#------------------------------------------------------------------------------
#$Date: 2016-03-22 21:53:30 +0200 (Tue, 22 Mar 2016) $
#$Revision: 179027 $
#$URL: svn://www.crystallography.net/cod/cif/4/12/25/4122585.cif $
#------------------------------------------------------------------------------
#
# This file is available in the Crystallography Open Database (COD),
# http://www.crystallography.net/
#
# All data on this site have been placed in the public domain by the
# contributors.
#
data_4122585
loop_
_publ_author_name
'Jablonskyt\.e, Au\<sra'
'Webster, Lee R.'
'Simmons, Trevor R.'
'Wright, Joseph A.'
'Pickett, Christopher J.'
_publ_section_title
;
 Electronic control of the protonation rates of Fe-Fe bonds.
;
_journal_issue                   37
_journal_name_full               'Journal of the American Chemical Society'
_journal_page_first              13038
_journal_page_last               13044
_journal_paper_doi               10.1021/ja506693m
_journal_volume                  136
_journal_year                    2014
_chemical_formula_moiety         'C12 H12 Fe2 O6 S2'
_chemical_formula_structural     Fe2(iPr-pdt)(CO)6
_chemical_formula_sum            'C12 H12 Fe2 O6 S2'
_chemical_formula_weight         428.04
_chemical_name_systematic
;
 ?
;
_space_group_crystal_system      triclinic
_space_group_IT_number           2
_space_group_name_Hall           '-P 1'
_space_group_name_H-M_alt        'P -1'
_symmetry_space_group_name_Hall  '-P 1'
_symmetry_space_group_name_H-M   'P -1'
_atom_sites_solution_hydrogens   geom
_audit_creation_method           SHELXL-2014
_cell_angle_alpha                74.585(3)
_cell_angle_beta                 75.109(3)
_cell_angle_gamma                89.144(4)
_cell_formula_units_Z            2
_cell_length_a                   9.11680(10)
_cell_length_b                   9.65810(10)
_cell_length_c                   9.82730(10)
_cell_measurement_reflns_used    4649
_cell_measurement_temperature    100(2)
_cell_measurement_theta_max      27.6
_cell_measurement_theta_min      2.2
_cell_volume                     804.84(2)
_computing_cell_refinement       'CrystalClear-SM Expert (Rigaku, 2011)'
_computing_data_collection       'CrystalClear-SM Expert (Rigaku, 2011)'
_computing_data_reduction        'CrystalClear-SM Expert (Rigaku, 2011)'
_computing_molecular_graphics    'ORTEP-3 (Farrugia, 1997)'
_computing_publication_material
;
 SHELXL-2014 (Sheldrick, 2014), WinGX (Farrugia, 2012)
 and enCIFer (Allen et al., 2004)
;
_computing_structure_refinement  'SHELXL-2014 (Sheldrick, 2014)'
_computing_structure_solution    'SIR92 (Altomare et al., 1993)'
_diffrn_ambient_temperature      100(2)
_diffrn_detector_area_resol_mean 28.5714
_diffrn_measured_fraction_theta_full 0.995
_diffrn_measured_fraction_theta_max 0.993
_diffrn_measurement_device
;
AFC12 (Right): Kappa 3 circle
;
_diffrn_measurement_device_type
;
Rigaku Saturn724+ (2x2 bin mode)
;
_diffrn_measurement_method       'profile data from \w-scans'
_diffrn_radiation_monochromator  graphite
_diffrn_radiation_probe          x-ray
_diffrn_radiation_type           MoK\a
_diffrn_radiation_wavelength     0.71073
_diffrn_reflns_av_R_equivalents  0.0233
_diffrn_reflns_av_unetI/netI     0.0256
_diffrn_reflns_Laue_measured_fraction_full 0.995
_diffrn_reflns_Laue_measured_fraction_max 0.993
_diffrn_reflns_limit_h_max       11
_diffrn_reflns_limit_h_min       -11
_diffrn_reflns_limit_k_max       12
_diffrn_reflns_limit_k_min       -12
_diffrn_reflns_limit_l_max       12
_diffrn_reflns_limit_l_min       -12
_diffrn_reflns_number            11191
_diffrn_reflns_point_group_measured_fraction_full 0.995
_diffrn_reflns_point_group_measured_fraction_max 0.993
_diffrn_reflns_theta_full        25.242
_diffrn_reflns_theta_max         27.500
_diffrn_reflns_theta_min         2.191
_diffrn_source                   'Rotating Anode'
_exptl_absorpt_coefficient_mu    2.084
_exptl_absorpt_correction_T_max  1.000
_exptl_absorpt_correction_T_min  0.727
_exptl_absorpt_correction_type   multi-scan
_exptl_absorpt_process_details   'CrystalClear-SM Expert (Rigaku, 2011)'
_exptl_crystal_colour            red
_exptl_crystal_density_diffrn    1.766
_exptl_crystal_description       block
_exptl_crystal_F_000             432
_exptl_crystal_size_max          0.440
_exptl_crystal_size_mid          0.220
_exptl_crystal_size_min          0.140
_refine_diff_density_max         0.351
_refine_diff_density_min         -0.343
_refine_diff_density_rms         0.066
_refine_ls_extinction_method     none
_refine_ls_goodness_of_fit_ref   1.138
_refine_ls_hydrogen_treatment    constr
_refine_ls_matrix_type           full
_refine_ls_number_parameters     201
_refine_ls_number_reflns         3667
_refine_ls_number_restraints     0
_refine_ls_restrained_S_all      1.138
_refine_ls_R_factor_all          0.0213
_refine_ls_R_factor_gt           0.0208
_refine_ls_shift/su_max          0.001
_refine_ls_shift/su_mean         0.000
_refine_ls_structure_factor_coef Fsqd
_refine_ls_weighting_details
'w=1/[\s^2^(Fo^2^)+(0.0236P)^2^+0.2937P] where P=(Fo^2^+2Fc^2^)/3'
_refine_ls_weighting_scheme      calc
_refine_ls_wR_factor_gt          0.0580
_refine_ls_wR_factor_ref         0.0583
_reflns_Friedel_coverage         0.000
_reflns_number_gt                3606
_reflns_number_total             3667
_reflns_threshold_expression     'I > 2\s(I)'
_cod_data_source_file            ja506693m_si_002.cif
_cod_data_source_block           2(iPr-pdt)
_cod_depositor_comments
'Adding full bibliography for 4122577--4122589.cif.'
_cod_database_code               4122585
#BEGIN Tags that were not found in dictionaries:
_shelx_space_group_comment
;
The symmetry employed for this shelxl refinement is uniquely defined
by the following loop, which should always be used as a source of
symmetry information in preference to the above space-group names.
They are only intended as comments.
;
_shelx_estimated_absorpt_t_min   0.461
_shelx_estimated_absorpt_t_max   0.759
_shelxl_version_number           2014-3
_shelx_res_file
;
TITL 2012ncs0294
CELL  0.71073   9.1168   9.6581   9.8273   74.585   75.109   89.144
ZERR     2.00   0.0001   0.0001   0.0001    0.003    0.003    0.004
LATT   1
SFAC  C    H    O    S    FE
UNIT  24   24   12   4    4
MERG   2
FMAP   2
PLAN   25
SIZE     0.140   0.220   0.440
ACTA
BOND   $H
CONF
L.S.   6
TEMP  -173.00
WGHT    0.023600    0.293700
FVAR       7.07536
C1    1    0.498198    0.269282   -0.068553    11.00000    0.01510    0.01927 =
         0.02416   -0.00752   -0.00456    0.00137
C2    1    0.423164    0.329958    0.198628    11.00000    0.01415    0.01894 =
         0.02144   -0.00209   -0.00526   -0.00242
C3    1    0.427511    0.065921    0.196315    11.00000    0.01532    0.02338 =
         0.02173   -0.00949   -0.00479    0.00323
C4    1    0.672545    0.282110    0.381217    11.00000    0.01938    0.02075 =
         0.01847   -0.00283   -0.00557   -0.00146
C5    1    0.687672    0.017344    0.379621    11.00000    0.01688    0.02311 =
         0.01679   -0.00821   -0.00299    0.00519
C6    1    0.948508    0.189825    0.235439    11.00000    0.02088    0.01894 =
         0.01776   -0.00682   -0.00608    0.00109
C7    1    0.893667    0.405867   -0.093527    11.00000    0.01473    0.01368 =
         0.01668   -0.00398   -0.00128   -0.00125
AFIX  23
H7A   2    0.896734    0.504148   -0.158663    11.00000   -1.20000
H7B   2    0.990343    0.396020   -0.064440    11.00000   -1.20000
AFIX   0
C8    1    0.897389    0.145695   -0.093720    11.00000    0.01378    0.01482 =
         0.01475   -0.00403   -0.00004    0.00231
AFIX  23
H8A   2    0.994568    0.139122   -0.065606    11.00000   -1.20000
H8B   2    0.901318    0.082304   -0.158750    11.00000   -1.20000
AFIX   0
C9    1    0.887971    0.299692   -0.181432    11.00000    0.01243    0.01513 =
         0.01345   -0.00323   -0.00286    0.00025
AFIX  13
H9    2    0.787732    0.306474   -0.205897    11.00000   -1.20000
AFIX   0
C10   1    1.014262    0.342142   -0.327586    11.00000    0.01790    0.01690 =
         0.01335   -0.00259   -0.00143   -0.00042
AFIX  13
H10   2    1.000640    0.444395   -0.377216    11.00000   -1.20000
AFIX   0
C11   1    1.174954    0.336280   -0.307919    11.00000    0.01648    0.02653 =
         0.02211   -0.00966   -0.00142   -0.00379
AFIX 137
H11A  2    1.193838    0.236994   -0.261446    11.00000   -1.50000
H11B  2    1.185860    0.397942   -0.245996    11.00000   -1.50000
H11C  2    1.248464    0.370137   -0.403674    11.00000   -1.50000
AFIX   0
C12   1    0.995650    0.252410   -0.429765    11.00000    0.02337    0.03312 =
         0.01562   -0.00898   -0.00410   -0.00202
AFIX 137
H12A  2    1.069210    0.289024   -0.525086    11.00000   -1.50000
H12B  2    0.892315    0.259018   -0.442292    11.00000   -1.50000
H12C  2    1.013510    0.151736   -0.387339    11.00000   -1.50000
AFIX   0
O1    3    0.463479    0.297454   -0.175131    11.00000    0.02696    0.03830 =
         0.02549   -0.00898   -0.01530    0.00515
O2    3    0.343315    0.396205    0.262146    11.00000    0.02176    0.02667 =
         0.02968   -0.01094   -0.00120    0.00647
O3    3    0.349192   -0.034381    0.259008    11.00000    0.02449    0.02322 =
         0.03395   -0.00526   -0.00291   -0.00742
O4    3    0.621413    0.339487    0.467443    11.00000    0.03987    0.02996 =
         0.02349   -0.01446   -0.00272    0.00307
O5    3    0.647795   -0.088931    0.466658    11.00000    0.03287    0.02052 =
         0.02144    0.00018    0.00247    0.00336
O6    3    1.076610    0.191780    0.222389    11.00000    0.01824    0.03494 =
         0.04085   -0.01571   -0.01101    0.00255
S1    4    0.743744    0.074705    0.071960    11.00000    0.01390    0.01180 =
         0.01405   -0.00338   -0.00285    0.00021
S2    4    0.738529    0.390286    0.071049    11.00000    0.01358    0.01251 =
         0.01556   -0.00483   -0.00301    0.00048
FE1   5    0.552225    0.223505    0.102742    11.00000    0.01086    0.01420 =
         0.01520   -0.00432   -0.00353    0.00041
FE2   5    0.749049    0.186548    0.244761    11.00000    0.01334    0.01483 =
         0.01227   -0.00393   -0.00351    0.00062
HKLF    4

REM  2012ncs0294
REM R1 =  0.0208 for    3606 Fo > 4sig(Fo)  and  0.0213 for all    3667 data
REM    201 parameters refined using      0 restraints

END

WGHT      0.0244      0.2906

REM Highest difference peak  0.351,  deepest hole -0.343,  1-sigma level  0.066
Q1    1   0.9680  0.3232 -0.2552  11.00000  0.05    0.35
Q2    1   0.8860  0.3607 -0.1360  11.00000  0.05    0.34
Q3    1   0.9108  0.2256 -0.1337  11.00000  0.05    0.28
Q4    1   1.0906  0.3279 -0.3213  11.00000  0.05    0.27
Q5    1   0.4311  0.1392  0.1254  11.00000  0.05    0.26
Q6    1   0.7047  0.0380  0.2782  11.00000  0.05    0.24
Q7    1   0.7657  0.0672  0.1628  11.00000  0.05    0.24
Q8    1   0.8811  0.1238 -0.4546  11.00000  0.05    0.23
Q9    1   0.7557  0.1593  0.3384  11.00000  0.05    0.22
Q10   1   0.2233  0.0220  0.2232  11.00000  0.05    0.22
Q11   1   1.0053  0.2924 -0.3784  11.00000  0.05    0.21
Q12   1   0.7193  0.4743  0.0806  11.00000  0.05    0.21
Q13   1   0.7670  0.3611  0.1840  11.00000  0.05    0.21
Q14   1   0.8386  0.0501 -0.1494  11.00000  0.05    0.21
Q15   1   0.4129  0.2767 -0.1277  11.00000  0.05    0.21
Q16   1   0.7179  0.2603  0.5571  11.00000  0.05    0.20
Q17   1   0.8453  0.4929 -0.1390  11.00000  0.05    0.20
Q18   1   1.0069  0.1394  0.0273  11.00000  0.05    0.20
Q19   1   0.4866  0.4498 -0.2310  11.00000  0.05    0.20
Q20   1   1.0853  0.5770 -0.3979  11.00000  0.05    0.20
Q21   1   0.5920  0.2611 -0.0743  11.00000  0.05    0.20
Q22   1   1.0537  0.2584 -0.4921  11.00000  0.05    0.19
Q23   1   0.5940  0.4975  0.5472  11.00000  0.05    0.19
Q24   1   0.2602  0.1358  0.1957  11.00000  0.05    0.19
Q25   1   0.8516  0.3856 -0.0437  11.00000  0.05    0.19
;
_shelx_res_checksum              34379
_shelx_hkl_file
;
   0   0   1287836.2 2943.72   1 0.68753-0.70794-0.72529 0.70529 0.03530 0.03705
   0   0  -1293327.4 2996.12   1 0.70801-0.68760-0.70522 0.72522-0.03701-0.03534
   0   0  -1299303.8 3004.74   1 0.40627-0.38590 0.85934-0.83930 0.31060-0.38293
   0   0   1292423.7 2938.62   1 0.42866-0.44903 0.81562-0.83567 0.38859-0.31627
   0   0   2105896.8 2354.87   1 0.67570-0.71653-0.73369 0.69369 0.07147 0.07325
   0   0  -2103847.2 2310.97   1 0.71657-0.67578-0.69364 0.73363-0.07334-0.07136
   0   0  -2102787.2 2243.89   1 0.39369-0.35296 0.87852-0.83845 0.27056-0.41523
   0   0   297061.44 2126.12   1 0.43857-0.47930 0.79110-0.83119 0.42639-0.28174
   0   0   3101399.5 2351.57   1 0.66281-0.72404-0.74100 0.68101 0.10763 0.10944
   0   0  -399730.83 2312.07   1 0.72415-0.66297-0.68089 0.74087-0.10949-0.10756
   0   0  -3101068.9 2268.39   1 0.38022-0.31911 0.89589-0.83579 0.22977-0.44677
   0   0   399216.94 2236.99   1 0.44758-0.50868 0.76477-0.82491 0.46344-0.24647
   0   0   4 9955.82 1095.20   1 0.64884-0.73048-0.74721 0.66721 0.14380 0.14564
   0   0  -4 9458.58 1019.72   1 0.73065-0.64908-0.66703 0.74700-0.14564-0.14376
   0   0  -4 9225.58  838.79   1 0.36583-0.28436 0.91144-0.83131 0.18821-0.47755
   0   0   4 9103.78 1286.03   1 0.45568-0.53715 0.73662-0.81680 0.49973-0.21043
   0   0   590558.45 2077.95   1 0.63377-0.73582-0.75229 0.65229 0.17997 0.18183
   0   0  -591572.72 1977.97   1 0.73605-0.63410-0.65204 0.75201-0.18179-0.17997
   0   0  -595274.40 1898.95   1 0.35051-0.24867 0.92512-0.82495 0.14588-0.50755
   0   0   589839.71 1914.04   1 0.46265-0.56452 0.70670-0.80692 0.53527-0.17373
   0   0   6419626.3 6393.24   1 0.61755-0.74006-0.75622 0.63621 0.21619 0.21804
   0   0  -6398462.0 6076.03   1 0.74034-0.61799-0.63591 0.75587-0.21793-0.21617
   0   0  -6413221.5 6054.30   1 0.33423-0.21202 0.93687-0.81666 0.10273-0.53675
   0   0   6394781.6 5803.08   1 0.46886-0.59110 0.67476-0.79502 0.56996-0.13612
   0   0   7135969.7 3384.95   1 0.60020-0.74313-0.75898 0.61896 0.25236 0.25424
   0   0  -7133246.4 3284.33   1 0.74348-0.60074-0.61860 0.75855-0.25408-0.25238
   0   0  -7140230.5 3238.08   1 0.31684-0.17422 0.94665-0.80649 0.05880-0.56498
   0   0   7134557.7 3144.81   1 0.47407-0.61669 0.64081-0.78112 0.60382-0.09767
   0   0   8  321.19   55.40   1 0.58167-0.74501-0.76052 0.60050 0.28854 0.29044
   0   0  -8  354.78   67.28   1 0.74543-0.58230-0.60008 0.76002-0.29022-0.28859
   0   0  -8  695.94   93.95   1 0.29853-0.13553 0.95429-0.79412 0.01396-0.59245
   0   0   8  436.15   80.55   1 0.47824-0.64123 0.60477-0.76512 0.63681-0.05835
   0   0   9 3271.80  295.81   1 0.56190-0.74566-0.76080 0.58077 0.32472 0.32663
   0   0  -9 3178.57  362.00   1 0.74610-0.56271-0.58028 0.76025-0.32650-0.32458
   0   0  -9 3398.49  305.22   1 0.27911-0.09574 0.95973-0.77953-0.03179-0.61899
   0   0   9 3868.87  500.64   1 0.48130-0.66467 0.56652-0.74691 0.66887-0.01811
   0   0  10  376.36   96.61   1 0.54084-0.74502-0.75975 0.55972 0.36089 0.36282
   0   0 -10  357.75   86.55   1 0.74553-0.54177-0.55918 0.75914-0.36263-0.36079
   0   0  10  191.26   75.25   1 0.48320-0.68693 0.52591-0.72635 0.69995 0.02311
   0   0  1114568.09 1397.21   1 0.51844-0.74303-0.75732 0.53729 0.39708 0.39902
   0   0 -1113898.68 1956.60   1 0.74360-0.51947-0.53669 0.75665-0.39876-0.39701
   0   0  1115299.71 1565.04   1 0.48355-0.70803 0.48266-0.70320 0.73020 0.06472
   0  -1  11  488.32   95.57   1 0.54186-0.77091-0.75983 0.46348 0.35920 0.43689
   0   1 -11  566.97  156.31   1 0.73720-0.50858-0.49604 0.79231-0.45876-0.33700
   0   1 -11  488.29   74.45   1 0.27143-0.04281 0.96118-0.66459-0.04943-0.74597
   0  -1  11  589.95  142.79   1 0.48154-0.71052 0.40650-0.70343 0.77644 0.01848
   0  -1  10 2312.79  262.85   1 0.56603-0.77466-0.76085 0.48449 0.31734 0.40638
   0   1 -10 1499.61  399.64   1 0.74094-0.53269-0.51701 0.79328-0.42860-0.29483
   0   1 -10 1559.07  428.21   1 0.29520-0.08696 0.95541-0.67884 0.00601-0.72911
   0  -1  10 1476.17  402.95   1 0.48302-0.69159 0.44471-0.72159 0.75426-0.03160
   0  -1   912452.83  709.18   1 0.58906-0.77727-0.76007 0.50372 0.27439 0.37696
   0   1  -912040.65 1336.61   1 0.74354-0.55567-0.53616 0.79244-0.39958-0.25150
   0   1  -913308.47  860.03   1 0.31799-0.13012 0.94608-0.68953 0.06167-0.71246
   0  -1   911557.38 1610.33   1 0.48355-0.67171 0.47943-0.73626 0.73233-0.08194
   0  -1   815209.50  931.53   1 0.61109-0.77888-0.75741 0.52107 0.22996 0.34902
   0   1  -815456.63  992.75   1 0.34005-0.17263 0.93297-0.69633 0.11795-0.69664
   0  -1   813717.60 1689.81   1 0.48331-0.65107 0.51047-0.74725 0.71120-0.13307
   0  -1   7217997.9 4841.11   1 0.63229-0.77964-0.75271 0.53641 0.18339 0.32313
   0   1  -7215968.5 4761.92   1 0.74594-0.59881-0.56854 0.78483-0.34687-0.15952
   0   1  -7225375.4 4746.15   1 0.36141-0.21436 0.91567-0.69907 0.17581-0.68216
   0  -1   7220970.7 4695.79   1 0.48278-0.62986 0.53766-0.75432 0.69125-0.18510
   0  -1   613775.68  993.71   1 0.65282-0.77976-0.74560 0.54930 0.13378 0.30038
   0   1  -612584.49 1401.91   1 0.74609-0.61935-0.58119 0.77748-0.32488-0.10917
   0   1  -612529.00 1203.72   1 0.38238-0.25570 0.89330-0.69673 0.23619-0.67020
   0  -1   611748.54 1684.97   1 0.48172-0.60842 0.55968-0.75630 0.67430-0.24046
   0  -1   5144967.8 2592.55   1 0.67298-0.77952-0.73538 0.55908 0.07935 0.28244
   0   1  -5144053.4 2570.50   1 0.74589-0.63952-0.59059 0.76689-0.30796-0.05375
   0   1  -5150408.1 2500.09   1 0.40326-0.29695 0.86422-0.68768 0.30082-0.66249
   0  -1   5143254.5 2419.39   1 0.48072-0.58705 0.57521-0.75178 0.66183-0.30030
   0  -1   454365.88 1291.49   1 0.69316-0.77928-0.72058 0.56427 0.01685 0.27259
   0   1  -453169.33 2578.71   1 0.74568-0.65969-0.59517 0.75146-0.29954 0.01016
   0   1  -455897.82 1221.27   1 0.42432-0.33839 0.82520-0.66866 0.37280-0.66209
   0  -1   451740.50  826.70   1 0.48029-0.56625 0.58111-0.73764 0.65697-0.36774
   0  -1   320099.51  591.06   1 0.71372-0.77939-0.69777 0.56149-0.06091 0.27797
   0   1  -321165.35  518.91   1 0.74587-0.68025-0.59113 0.72743-0.30697 0.08994
   0   1  -321687.31  461.63   1 0.44616-0.38060 0.76923-0.63273 0.45740-0.67437
   0  -1   320720.70  457.93   1 0.48105-0.54663 0.57048-0.70696 0.66568-0.44876
   0  -1   278357.04 1808.79   1 0.73463-0.77991-0.65643 0.54014-0.17148 0.31619
   0   1  -279890.46 1841.76   1 0.74590-0.70065-0.56732 0.68363-0.34895 0.20427
   0   1  -279409.05 1787.80   1 0.46824-0.42303 0.67829-0.56185 0.56627-0.71088
   0  -1   279501.36 1798.05   1 0.48321-0.52842 0.52538-0.64182 0.70033-0.55572
   0  -1   1286944.2 2995.47   1 0.74506-0.76992-0.55207 0.45576-0.37429 0.44663
   0   1  -1283388.3 2961.97   1 0.73282-0.70796-0.47594 0.57225-0.48624 0.41390
   0   1  -1290807.7 2993.17   1 0.48352-0.45861 0.49474-0.39831 0.72210-0.79436
   0  -1   1287869.2 2973.92   1 0.48045-0.50536 0.38711-0.48355 0.78695-0.71469
   0  -1   056506.70 1217.38   1 0.53343-0.53780-0.06885-0.00750-0.84303 0.84303
   0   1   057406.76 1236.01   1 0.47577-0.47139 0.01105 0.06529-0.87950 0.87950
   0   1   057056.10 1236.10   1 0.42108-0.41654 0.01331 0.06308 0.90692-0.90692
   0  -1   057153.27 1239.89   1 0.40119-0.40573-0.06217-0.01423 0.91387-0.91387
   0  -1  -1277144.5 2826.94   1-0.30281 0.31896 0.68452-0.74097-0.66311 0.59094
   0   1   1278152.2 2836.96   1-0.37750 0.36135 0.71735-0.66090-0.58557 0.65774
   0   1   2226982.9 2504.89   1 0.51588-0.55226-0.75697 0.79328 0.40106-0.25632
   0  -1  -2230293.4 2540.49   1 0.59688-0.56050-0.75936 0.72304 0.25902-0.40377
   0   1   3  196.27   41.43   1 0.56385-0.62064-0.76083 0.77714 0.32125-0.10413
   0  -1  -3  175.88   25.76   1 0.66117-0.60441-0.74182 0.72550 0.11203-0.32912
   0   1   3  207.69   33.71   1 0.34747-0.40410 0.92752-0.91126 0.13769 0.07931
   0   1   4  800.23  106.44   1 0.57607-0.65329-0.76073 0.75704 0.29901-0.00952
   0  -1  -4  667.22   75.20   1 0.69213-0.61496-0.72148 0.72516 0.02031-0.30975
   0   1   4  788.63   95.20   1 0.39391-0.47091 0.87821-0.88199 0.27123 0.01810
   0   1   5130900.2 2619.84   1 0.57538-0.67301-0.76075 0.73706 0.30030 0.06156
   0  -1  -5130195.3 2591.95   1 0.71099-0.61342-0.70148 0.72516-0.04899-0.31280
   0  -1  -5130588.3 2436.98   1 0.26696-0.16959 0.96186-0.93810-0.05957-0.30197
   0   1   5131155.2 2447.84   1 0.42159-0.51897 0.83091-0.85478 0.36309-0.00148
   0   1   648622.04 1217.00   1 0.56828-0.68633-0.76085 0.71715 0.31328 0.12094
   0  -1  -647104.15 1174.95   1 0.72372-0.60587-0.68168 0.72534-0.10732-0.32679
   0  -1  -647899.73 1021.49   1 0.26394-0.14619 0.96224-0.91847-0.06639-0.36746
   0   1   648099.22 1028.24   1 0.44053-0.55829 0.78572-0.82964 0.43423-0.00029
   0   1   7135412.0 3347.44   1 0.55726-0.69572-0.76068 0.69698 0.33289 0.17371
   0  -1  -7135224.5 3310.42   1 0.73281-0.59456-0.66154 0.72518-0.15921-0.34725
   0   1   7139146.7 3199.43   1 0.45438-0.59250 0.74150-0.80546 0.49366 0.01260
   0   1   8132835.0 3378.98   1 0.54342-0.70230-0.75995 0.67625 0.35659 0.22238
   0  -1  -8132023.5 3332.70   1 0.73919-0.58055-0.64082 0.72446-0.20720-0.37161
   0   1   8136348.9 3205.46   1 0.46460-0.62312 0.69743-0.78143 0.54564 0.03280
   0   1   9 4219.37  380.63   1 0.52732-0.70661-0.75844 0.65473 0.38301 0.26834
   0  -1  -9 4033.93  483.80   1 0.74337-0.56435-0.61932 0.72295-0.25263-0.39854
   0   1   9 4237.15  579.78   1 0.47243-0.65132 0.65251-0.75655 0.59248 0.05827
   0   1  10  666.83  145.37   1 0.50924-0.70896-0.75597 0.63226 0.41130 0.31242
   0  -1 -10  627.15  116.08   1 0.74559-0.54632-0.59686 0.72052-0.29638-0.42704
   0   1  10  722.65  105.55   1 0.47809-0.67736 0.60632-0.73041 0.63545 0.08762
   0   1  11 1331.12  135.01   1 0.48950-0.70934-0.75240 0.60890 0.44075 0.35505
   0  -1 -11  619.96  455.72   1 0.74605-0.52641-0.57328 0.71694-0.33873-0.45703
   0   1  11 1935.79  287.13   1 0.48179-0.70143 0.55841-0.70254 0.67531 0.12006
   0   1  12 1891.30  220.63   1 0.46786-0.70808-0.74759 0.58411 0.47139 0.39676
   0  -1 -12 1607.81  307.87   1 0.74477-0.50475-0.54845 0.71211-0.38014-0.48797
   0   1  12 1735.62  284.88   1 0.48335-0.72374 0.50835-0.67255 0.71270 0.15449
   0  -2  11 4099.93  498.07   1 0.56021-0.79371-0.76076 0.38809 0.32770 0.46839
   0   2 -11 4186.31  441.37   1 0.29926-0.06615 0.95404-0.58108 0.01573-0.81114
   0  -2  11 4331.17  603.78   1 0.47607-0.70955 0.33105-0.70436 0.81470-0.01977
   0  -2  10 2522.91  241.67   1 0.58559-0.79868-0.76030 0.40763 0.28108 0.44264
   0   2 -10 2326.89  321.10   1 0.73156-0.51882-0.47070 0.82329-0.49319-0.23023
   0   2 -10 2512.01  195.49   1 0.32390-0.11116 0.94298-0.59005 0.07656-0.79967
   0  -2  10 2926.54  440.13   1 0.47891-0.69198 0.36464-0.71791 0.79854-0.07588
   0  -2   929685.84 2145.66   1 0.60984-0.80251-0.75762 0.42495 0.23257 0.41878
   0   2  -926744.22 2922.20   1 0.73543-0.54306-0.48747 0.82007-0.47064-0.18044
   0   2  -927486.22 2067.85   1 0.34759-0.15533 0.92743-0.59439 0.13800-0.78902
   0  -2   927897.06 3718.71   1 0.48086-0.67352 0.39389-0.72711 0.78333-0.13294
   0  -2   831528.74 2960.06   1 0.63311-0.80535-0.75248 0.43987 0.18149 0.39738
   0   2  -831150.38 2850.89   1 0.73828-0.56630-0.50162 0.81422-0.45088-0.12785
   0   2  -830091.94 2734.12   1 0.37033-0.19844 0.90688-0.59388 0.20100-0.77969
   0  -2   831743.19 1268.76   1 0.48209-0.65435 0.41832-0.73149 0.76979-0.19166
   0  -2   716475.82 1149.16   1 0.65548-0.80731-0.74445 0.45184 0.12695 0.37956
   0   2  -715507.88 1819.56   1 0.74024-0.58862-0.51264 0.80524-0.43501-0.07138
   0   2  -716580.30 1350.00   1 0.39229-0.24077 0.88046-0.58749 0.26622-0.77257
   0  -2   717537.98 2027.36   1 0.48280-0.63465 0.43709-0.73021 0.75884-0.25298
   0  -2   651031.82 3702.59   1 0.67709-0.80851-0.73280 0.46018 0.06738 0.36677
   0   2  -651133.48 1558.84   1 0.74135-0.61011-0.51965 0.79225-0.42468-0.00937
   0   2  -651346.07 1440.33   1 0.41344-0.28233 0.84669-0.57370 0.33492-0.76886
   0  -2   648804.00 1051.78   1 0.48312-0.61456 0.44877-0.72184 0.75179-0.31819
   0  -2   5 1258.87  149.86   1 0.69798-0.80899-0.71611 0.46350 0.00028 0.36152
   0   2  -5  844.26  110.09   1 0.74155-0.63069-0.52103 0.77363-0.42263 0.06091
   0   2  -5 1039.21  118.21   1 0.43394-0.32319 0.80306-0.55011 0.40839-0.77001
   0  -2   5  932.91  162.40   1 0.48317-0.59421 0.45086-0.70388 0.75050-0.38917
   0  -2   4 4567.07  277.40   1 0.71781-0.80838-0.69173 0.45916-0.07895 0.36836
   0   2  -4 4404.51  563.27   1 0.74039-0.64991-0.51358 0.74619-0.43364 0.14426
   0   2  -4 4509.70  443.80   1 0.45337-0.36299 0.74517-0.51227 0.48903-0.77833
   0  -2   4 4549.80  662.17   1 0.48285-0.57348 0.43892-0.67189 0.75775-0.46869
   0  -2   3  323.53   38.34   1 0.73558-0.80575-0.65354 0.44095-0.17830 0.39536
   0   2  -3  228.48   67.38   1 0.73605-0.66594-0.49040 0.70301-0.46661 0.24958
   0  -2   2166466.6 2062.75   1 0.74601-0.79574-0.58655 0.39393-0.31531 0.45999
   0   2  -2165247.1 2048.82   1 0.72133-0.67167-0.43415 0.62677-0.53962 0.39497
   0   2  -2163014.3 1957.33   1 0.48241-0.43274 0.54632-0.35353 0.68468-0.82930
   0  -2   2162682.2 1983.85   1 0.47604-0.52585 0.33067-0.52354 0.81488-0.67035
   0  -2   169586.61 1591.67   1 0.72500-0.75428-0.44660 0.27398-0.52431 0.59664
   0   2  -170495.98 1610.79   1 0.66653-0.63725-0.29580 0.46843-0.68427 0.61194
   0   2  -170710.50 1604.94   1 0.47839-0.44898 0.35792-0.18510 0.80188-0.87415
   0  -2   171429.26 1631.53   1 0.45626-0.48570 0.18237-0.35518 0.87095-0.79870
   0  -2   0497564.7 5002.77   1 0.56023-0.56909-0.10909-0.04355-0.82111 0.82111
   0   2   0502261.3 5047.65   1 0.44484-0.43609 0.05113 0.10157-0.89414 0.89414
   0   2   0497157.6 5028.21   1 0.43014-0.42112 0.05126 0.10152 0.90130-0.90130
   0  -2   0500885.2 5074.45   1 0.39030-0.39938-0.09986-0.05294 0.91525-0.91525
   0  -2  -1329597.0 3396.29   1 0.09687-0.08518 0.41425-0.54708-0.90498 0.83273
   0   2   1341066.9 3505.58   1-0.05999 0.04829 0.53835-0.40553-0.84057 0.91280
   0   2   1337616.6 3511.13   1 0.29340-0.30481-0.36807 0.50096 0.88228-0.81001
   0  -2  -1335315.9 3484.19   1 0.22224-0.21086-0.51710 0.38426 0.82656-0.89881
   0   2   2  258.30   59.79   1 0.10335-0.13528-0.70968 0.82253 0.69689-0.55239
   0   2   3277382.3 3160.94   1 0.41044-0.46269-0.73074 0.82343 0.54547-0.32843
   0  -2  -3271423.5 3097.79   1 0.56156-0.50922-0.76079 0.66816 0.32533-0.54245
   0   2   4  993.05  106.13   1 0.46974-0.54238-0.74804 0.82075 0.46879-0.17940
   0  -2  -4 1010.97  133.17   1 0.63176-0.55907-0.75285 0.68023 0.18460-0.47404
   0   2   4  962.33  127.33   1 0.29077-0.36328 0.95678-0.88415-0.00451 0.29375
   0   2   5 4288.30  359.96   1 0.49438-0.58741-0.75336 0.80608 0.43361-0.07188
   0  -2  -5 4151.89  558.61   1 0.67164-0.57854-0.73618 0.68355 0.08320-0.44501
   0   2   5 4376.72  519.52   1 0.35321-0.44611 0.92291-0.87035 0.15320 0.20846
   0   2   6 4872.74  476.95   1 0.50263-0.61605-0.75486 0.78760 0.42135 0.01272
   0  -2  -6 5065.09  629.73   1 0.69720-0.58369-0.71686 0.68423 0.00301-0.43717
   0   2   6 5003.38  705.34   1 0.39346-0.50673 0.87884-0.84632 0.26984 0.16417
   0   2   732122.30 2793.03   1 0.50177-0.63558-0.75471 0.76746 0.42264 0.08378
   0  -2  -732016.23 3451.80   1 0.71465-0.58090-0.69645 0.68380-0.06492-0.44154
   0   2   731648.31  744.98   1 0.42122-0.55488 0.83167-0.81928 0.36178 0.14448
   0   2   8 5719.37  402.32   1 0.49515-0.64935-0.75350 0.74627 0.43248 0.14628
   0  -2  -8 5818.06  667.70   1 0.72706-0.57292-0.67511 0.68244-0.12492-0.45389
   0   2   8 6202.53  721.32   1 0.44140-0.59543 0.78330-0.79095 0.43772 0.14087
   0   2   937706.05 3040.50   1 0.48446-0.65905-0.75136 0.72415 0.44803 0.20308
   0  -2  -936245.67 4131.30   1 0.73578-0.56125-0.65292 0.68025-0.17974-0.47142
   0   2   938462.64 1383.04   1 0.45636-0.63076 0.73403-0.76173 0.50291 0.14799
   0   2  1024572.49 2802.16   1 0.47062-0.66560-0.74825 0.70106 0.46757 0.25589
   0  -2 -1022842.43 2322.98   1 0.74161-0.54669-0.62981 0.67713-0.23096-0.49255
   0   2  1025074.58 3255.88   1 0.46723-0.66204 0.68385-0.73159 0.56038 0.16268
   0   2  11 3371.75  323.22   1 0.45415-0.66952-0.74408 0.67690 0.48998 0.30583
   0  -2 -11 3028.79  326.32   1 0.74498-0.52967-0.60565 0.67297-0.27959-0.51628
   0   2  11 2994.89  389.58   1 0.47521-0.69039 0.63205-0.69983 0.61211 0.18326
   0  -2 -12 3803.22  401.78   1 0.74610-0.51057-0.58035 0.66770-0.32637-0.54174
   0   2  12 3739.55  574.87   1 0.48049-0.71605 0.57837-0.66619 0.65924 0.20844
   0  -3  10 7300.75  584.57   1 0.60026-0.81781-0.75897 0.32998 0.25224 0.47148
   0   3 -10 6816.98  994.48   1 0.71711-0.50002-0.42072 0.84964-0.55565-0.16759
   0   3 -10 7360.71  660.65   1 0.34589-0.12879 0.92873-0.49929 0.13344-0.85680
   0  -3  10 7857.35 1159.65   1 0.47122-0.68893 0.28675-0.71617 0.83409-0.11163
   0  -3   983608.11 4333.89   1 0.62524-0.82236-0.75454 0.34555 0.19935 0.45200
   0   3  -983862.77 1952.19   1 0.72154-0.52483-0.43486 0.84378-0.53876-0.11215
   0   3  -985829.91 5767.36   1 0.36947-0.17275 0.90777-0.49837 0.19855-0.84957
   0  -3   984844.93 1779.82   1 0.47410-0.67126 0.31107-0.72067 0.82368-0.17329
   0  -3   815073.71 1072.94   1 0.64906-0.82578-0.74712 0.35820 0.14325 0.43563
   0   3  -814171.67 1518.89   1 0.72472-0.54837-0.44562 0.83454-0.52554-0.05304
   0   3  -814367.72 1127.60   1 0.39190-0.21554 0.88100-0.49164 0.26501-0.84369
   0  -3   815381.76 1782.70   1 0.47597-0.65273 0.32998-0.71953 0.81520-0.23707
   0  -3   746772.11 2992.34   1 0.67175-0.82806-0.73612 0.36719 0.08288 0.42364
   0   3  -745488.67 3680.15   1 0.41305-0.25712 0.84739-0.47800 0.33361-0.83988
   0  -3   744894.31 1343.30   1 0.47709-0.63344 0.34222-0.71173 0.80948-0.30361
   0  -3   6194721.8 4351.74   1 0.69326-0.82915-0.72049 0.37157 0.01652 0.41764
   0   3  -6194260.7 4329.46   1 0.72689-0.59129-0.45335 0.80228-0.51583 0.08189
   0   3  -6201577.1 4318.45   1 0.43301-0.29744 0.80534-0.45599 0.40486-0.83880
   0  -3   6186155.0 4099.87   1 0.47743-0.61337 0.34616-0.69562 0.80760-0.37400
   0  -3   512057.33 1639.79   1 0.71318-0.82863-0.69852 0.36965-0.05862 0.42039
   0   3  -510636.63 1077.57   1 0.72505-0.60982-0.44676 0.77570-0.52411 0.16249
   0   3  -511419.05 1009.55   1 0.45133-0.33613 0.75237-0.42306 0.47982-0.84144
   0  -3   511591.70 1609.29   1 0.47681-0.59235 0.33914-0.66855 0.81093-0.44960
   0  -3   4 4902.39  400.19   1 0.73077-0.82583-0.66672 0.35784-0.14640 0.43581
   0   3  -4 4956.66  565.67   1 0.71953-0.62468-0.42833 0.73726-0.54662 0.25733
   0   3  -4 4702.57  535.31   1 0.46710-0.37222 0.68455-0.37532 0.55964-0.84887
   0  -3   4 6136.64  869.96   1 0.47470-0.56983 0.31691-0.62627 0.82111-0.53204
   0  -3   321689.37 1629.68   1 0.74347-0.81814-0.61864 0.32976-0.25400 0.47106
   0   3  -321526.66 2082.32   1 0.70650-0.63202-0.39004 0.67897-0.59052 0.37355
   0   3  -322190.84  544.00   1 0.47909-0.40458 0.59569-0.30650 0.64468-0.86160
   0  -3   321664.99  573.02   1 0.46949-0.54427 0.27242-0.56168 0.83985-0.62311
   0  -3   246367.20 1219.44   1 0.74400-0.79822-0.54034 0.27141-0.39305 0.53773
   0   3  -245506.59 1199.33   1 0.67572-0.62161-0.31548 0.58441-0.66622 0.52158
   0   3  -247208.82 1207.23   1 0.48353-0.42921 0.47575-0.20649 0.73474-0.87927
   0  -3   246582.63 1221.50   1 0.45821-0.51258 0.19411-0.46334 0.86738-0.72289
   0  -3   172619.71 1724.47   1 0.71059-0.74433-0.40144 0.15251-0.57783 0.65015
   0   3  -173437.42 1718.47   1 0.59898-0.56533-0.17092 0.41990-0.78230 0.70998
   0   3  -173870.36 1725.28   1 0.47416-0.44025 0.31165-0.06244 0.82343-0.89569
   0  -3   173023.75 1727.68   1 0.43308-0.46703 0.06425-0.31346 0.89905-0.82681
   0  -3   0 8895.01  263.79   1 0.58554-0.59883-0.14885-0.08012-0.79685 0.79685
   0   3   0 9579.32  943.14   1 0.41249-0.39937 0.09128 0.13778-0.90637 0.90637
   0   3   0 9065.42  273.89   1 0.43849-0.42496 0.08910 0.14007 0.89430-0.89430
   0  -3   0 9655.84 1049.30   1 0.37876-0.39238-0.13752-0.09170 0.91521-0.91521
   0  -3  -1 8740.01  248.09   1 0.30480-0.29744 0.21412-0.42331-0.92803 0.85576
   0   3   1 8677.52  747.27   1 0.07779-0.08515 0.43055-0.22139-0.89920 0.97145
   0   3   1 9830.15  910.53   1 0.36288-0.36969-0.18617 0.39543 0.91304-0.84080
   0  -3  -1 8940.63  840.83   1 0.27537-0.26852-0.40869 0.19938 0.87013-0.94241
   0  -3  -223946.12  449.12   1-0.01467 0.04243 0.50469-0.69399-0.86317 0.71872
   0   3   223646.11  442.96   1-0.24978 0.22196 0.65723-0.46792-0.71109 0.85544
   0   3   223915.46  455.35   1 0.25046-0.27780-0.46174 0.65100 0.85091-0.70641
   0  -3  -224473.06  683.55   1 0.12182-0.09448-0.68360 0.49434 0.71960-0.86411
   0  -3  -3   53.16   22.87   1 0.44855-0.40076-0.74255 0.57354 0.49740-0.71444
   0  -3  -3   63.64   27.34   1-0.22376 0.27222 0.64273-0.81207-0.73267 0.51616
   0   3   3   76.21   15.38   1 0.13171-0.17960-0.66911 0.83838 0.73139-0.51464
   0  -3  -451731.87  866.82   1 0.55783-0.48953-0.76070 0.61175 0.33188-0.62138
   0  -3  -451910.41 2364.32   1-0.33353 0.40264 0.69887-0.84824-0.63271 0.34402
   0  -3  -5 2600.68  316.14   1 0.62185-0.53314-0.75532 0.62637 0.20683-0.56869
   0  -3  -5 2747.45  137.55   1-0.39038 0.48012 0.72227-0.85168-0.57089 0.21003
   0   3   5 2439.81  280.21   1 0.26510-0.35349 0.96210-0.83314-0.06377 0.42533
   0   3   6 7079.58  696.97   1 0.41973-0.52869-0.73383 0.84289 0.53414-0.10006
   0  -3  -6 6756.23  921.42   1 0.66270-0.55367-0.74106 0.63212 0.10793-0.54209
   0   3   6 6687.26  862.89   1 0.32977-0.43857 0.93963-0.83075 0.09123 0.34277
   0   3   775685.98 2104.27   1 0.43272-0.56207-0.73793 0.82700 0.51788-0.01145
   0  -3  -770145.57 1987.22   1 0.69047-0.56103-0.72289 0.63395 0.02577-0.53230
   0   3   8200285.2 4780.80   1 0.43588-0.58562-0.73889 0.80797 0.51385 0.06491
   0  -3  -8197836.2 4646.39   1 0.71012-0.56026-0.70260 0.63366-0.04543-0.53344
   0   3   8195886.3 4357.79   1 0.40802-0.55756 0.85640-0.78759 0.31635 0.26233
   0   3   9  871.24  107.93   1 0.43241-0.60254-0.73784 0.78694 0.51827 0.13284
   0  -3  -9  880.16  104.82   1 0.72412-0.55409-0.68095 0.63197-0.10933-0.54183
   0   3   9  901.15  138.04   1 0.43225-0.60219 0.80720-0.75854 0.40197 0.24894
   0   3  1054176.46 4424.69   1 0.42412-0.61464-0.73525 0.76437 0.52869 0.19477
   0  -3 -1052329.91 5646.07   1 0.73410-0.54368-0.65796 0.62898-0.16784-0.55568
   0   3  1054881.16 1823.32   1 0.45044-0.64075 0.75541-0.72680 0.47586 0.24736
   0   3  1155563.52 3994.71   1 0.41206-0.62298-0.73129 0.74043 0.54351 0.25229
   0  -3 -1154902.87 6157.44   1 0.74080-0.52999-0.63378 0.62479-0.22252-0.57335
   0   3  1156556.27 1627.88   1 0.46372-0.67444 0.70166-0.69309 0.54094 0.25443
   0  -3 -12  745.24  115.05   1 0.74472-0.51352-0.60836 0.61936-0.27436-0.59386
   0  -3 -12  786.47  134.89   1-0.39679 0.63104 0.72463-0.71428-0.56343-0.30262
   0   3  12  774.50  123.60   1 0.47343-0.70452 0.64550-0.65697 0.59931 0.26836
   0  -4  10  495.54  104.81   1 0.61070-0.83270-0.75748 0.25216 0.23076 0.49296
   0   4 -10  542.47  106.57   1 0.69785-0.47630-0.36734 0.87257-0.61487-0.10837
   0   4 -10  439.24   92.37   1 0.36228-0.14071 0.91486-0.40906 0.17823-0.90158
   0  -4  10  609.28  115.22   1 0.46090-0.68312 0.21103-0.71685 0.86199-0.13952
   0  -4   9 3817.46  240.76   1 0.63611-0.83772-0.75159 0.26637 0.17452 0.47672
   0   4  -9 3273.86  423.59   1 0.70229-0.50112-0.37879 0.86403-0.60273-0.04818
   0   4  -9 3517.03  518.50   1 0.38535-0.18415 0.88962-0.40386 0.24507-0.89609
   0  -4   9 3231.57  497.64   1 0.46400-0.66580 0.23168-0.71747 0.85499-0.20478
   0  -4   833999.99 2033.07   1 0.66013-0.84133-0.74232 0.27709 0.11479 0.46409
   0   4  -828562.83 3406.78   1 0.70507-0.52427-0.38615 0.85139-0.59477 0.01617
   0   4  -830104.08 2593.44   1 0.40696-0.22613 0.85819-0.39246 0.31284-0.89153
   0  -4   831664.38 3964.96   1 0.46605-0.64743 0.24622-0.71199 0.84980-0.27183
   0  -4   763295.26 3794.90   1 0.68271-0.84350-0.72894 0.28370 0.05044 0.45608
   0   4  -764256.17 1526.98   1 0.70592-0.54549-0.38845 0.83369-0.59226 0.08599
   0   4  -762088.19 5225.65   1 0.42689-0.26650 0.81960-0.37385 0.38210-0.88837
   0  -4   760857.94 1428.65   1 0.46706-0.62802 0.25358-0.69933 0.84708-0.34135
   0  -4   6 5022.03  373.74   1 0.70362-0.84399-0.71028 0.28505-0.02016 0.45432
   0   4  -6 5334.08  785.53   1 0.70430-0.56424-0.38409 0.80934-0.59701 0.16306
   0   4  -6 4959.07  414.07   1 0.44512-0.30509 0.77242-0.34671 0.45301-0.88696
   0  -4   6 5348.82  776.34   1 0.46687-0.60741 0.25217-0.67789 0.84760-0.41412
   0  -4   512561.91 1005.29   1 0.72217-0.84212-0.68451 0.27933-0.09954 0.46130
   0   4  -513264.60 1644.20   1 0.69910-0.57942-0.37052 0.77576-0.61152 0.24990
   0   4  -512285.50 1385.61   1 0.46108-0.34142 0.71460-0.30894 0.52606-0.88768
   0  -4   512706.68 1692.73   1 0.46513-0.58526 0.23961-0.64530 0.85219-0.49096
   0  -4   417791.80 1183.86   1 0.73723-0.83679-0.64812 0.26293-0.19083 0.48024
   0   4  -414243.69 1209.47   1 0.68802-0.58871-0.34339 0.72863-0.63929 0.34999
   0   4  -415357.65 1368.90   1 0.47375-0.37440 0.64321-0.25763 0.60152-0.89075
   0  -4   413836.59 1724.49   1 0.46111-0.56082 0.21235-0.59803 0.86155-0.57257
   0  -4   368296.20 1371.01   1 0.74568-0.82477-0.59515 0.22992-0.29956 0.51659
   0   4  -369440.17 1445.66   1 0.66624-0.58730-0.29520 0.66044-0.68481 0.46784
   0   4  -370138.71 1397.88   1 0.48202-0.40305 0.55422-0.18868 0.67859-0.89551
   0  -4   368614.27 1123.29   1 0.45330-0.53259 0.16523-0.53088 0.87590-0.65916
   0  -4   231608.35  690.69   1 0.74060-0.79931-0.51484 0.16961-0.43178 0.57647
   0   4  -230706.07 2619.21   1 0.62327-0.56483-0.21279 0.55811-0.75249 0.60784
   0   4  -231643.12  655.89   1 0.48294-0.42413 0.44196-0.09631 0.75593-0.90046
   0  -4   231535.48  701.44   1 0.43888-0.49775 0.09092-0.43655 0.89393-0.74943
   0  -4   1257102.6 4444.19   1 0.70562-0.74382-0.38766 0.06241-0.59313 0.66545
   0   4  -1260842.7 4500.51   1 0.53842-0.50059-0.07614 0.40152-0.83922 0.76692
   0   4  -1256540.5 4433.79   1 0.47302-0.43462 0.30106 0.02453 0.82801-0.90027
   0  -4   1249346.7 4358.11   1 0.41263-0.45122-0.01996-0.30564 0.91067-0.83844
   0  -4   0 1234.37  162.35   1 0.60939-0.62711-0.18853-0.11677-0.77012 0.77012
   0   4   0 1364.77  147.66   1 0.37852-0.36120 0.13174 0.17367-0.91616 0.91616
   0   4   0 1616.49  213.07   1 0.44619-0.42815 0.12697 0.17859 0.88587-0.88587
   0  -4   0 1324.56  151.73   1 0.36659-0.38475-0.17513-0.13049 0.91374-0.91374
   0  -4  -1316071.1 3475.68   1 0.42081-0.41797 0.08111-0.36658-0.90351 0.83121
   0   4   1308980.5 3400.85   1 0.13070-0.13373 0.38455-0.09905-0.91380 0.98605
   0   4   1315518.8 3533.08   1 0.39723-0.39950-0.07613 0.36180 0.91455-0.84231
   0  -4  -1318607.6 3606.12   1 0.29147-0.28917-0.37253 0.08681 0.88105-0.95333
   0  -4  -2 4935.26  333.96   1 0.17497-0.15157 0.34407-0.60972-0.92249 0.77798
   0   4   2 4494.37  371.73   1-0.13870 0.11531 0.59243-0.32679-0.79358 0.93803
   0   4   2 5710.55  706.88   1 0.32605-0.34886-0.28845 0.55424 0.90026-0.75571
   0  -4  -2 4612.68  464.01   1 0.18358-0.16082-0.58647 0.32080 0.78888-0.93339
   0  -4  -3284857.8 4887.62   1-0.03777 0.08160 0.52208-0.76786-0.85205 0.63538
   0   4   3280774.9 4818.17   1-0.34729 0.30332 0.70492-0.45916-0.61844 0.83496
   0   4   3276799.7 4749.77   1 0.24168-0.28498-0.47943 0.72511 0.84364-0.62688
   0  -4  -465481.43 1442.75   1 0.48211-0.41839-0.75086 0.52552 0.45140-0.74078
   0  -4  -465034.34 1423.86   1-0.18256 0.24717 0.61838-0.84417-0.76437 0.47568
   0   4   463824.00 1361.33   1 0.15990-0.22375-0.62560 0.85130 0.76357-0.47456
   0  -4  -597180.16 1856.23   1 0.56746-0.48320-0.76085 0.55558 0.31477-0.67663
   0  -4  -596753.23 1836.30   1-0.26962 0.35487 0.66780-0.87362-0.69378 0.33292
   0  -4  -611088.70 1334.98   1 0.62353-0.51885-0.75494 0.56967 0.20314-0.63738
   0  -4  -611496.82 1143.46   1-0.32100 0.42690 0.69315-0.87901-0.64535 0.21232
   0  -4  -716757.71 2025.71   1 0.66209-0.53712-0.74136 0.57611 0.10958-0.61610
   0  -4  -716630.33 1395.37   1-0.35026 0.47680 0.70619-0.87208-0.61530 0.11010
   0   4   716432.47 1736.34   1 0.31948-0.44412 0.94532-0.78005 0.06542 0.44074
   0  -4  -8 6938.48  784.91   1 0.68954-0.54416-0.72367 0.57841 0.02882-0.60771
   0  -4  -8 7798.89  595.55   1-0.36532 0.51250 0.71248-0.85840-0.59908 0.02171
   0   4   8 7572.68  697.90   1 0.36607-0.51113 0.91120-0.76603 0.18890 0.38978
   0  -4  -956519.60 6075.35   1 0.70948-0.54369-0.70341 0.57815-0.04286-0.60838
   0  -4  -962134.40 4589.15   1-0.37079 0.53861 0.71469-0.84065-0.59306-0.05648
   0   4   963316.72 2046.38   1 0.40103-0.56646 0.86771-0.74257 0.29366 0.35735
   0  -4 -1042912.43 4972.08   1 0.72388-0.53796-0.68138 0.57610-0.10814-0.61538
   0  -4 -1043652.04 4366.65   1-0.36940 0.55787 0.71413-0.82013-0.59460-0.12712
   0   4  1044881.26 1557.78   1 0.42746-0.61332 0.81833-0.71336 0.38419 0.33904
   0  -4 -11 3602.38  437.94   1 0.73419-0.52787-0.65771 0.57242-0.16844-0.62743
   0  -4 -11 3867.34  449.06   1-0.36282 0.57193 0.71146-0.79749-0.60181-0.19207
   0   4  11 3997.10  713.89   1 0.44758-0.65380 0.76479-0.67986 0.46342 0.33213
   0  -4 -12  769.88  118.47   1 0.74105-0.51435-0.63258 0.56728-0.22509-0.64313
   0  -4 -12  847.29  255.89   1-0.35209 0.58185 0.70697-0.77304-0.61336-0.25270
   0   4  12  817.55  156.04   1 0.46235-0.68898 0.70810-0.64322 0.53368 0.33400
   0  -5   9  249.19   93.87   1 0.64315-0.84924-0.74930 0.18776 0.15776 0.49348
   0   5  -9  335.12   88.27   1 0.67774-0.47211-0.31991 0.88146-0.66205 0.01113
   0   5  -9  323.11   63.57   1 0.39659-0.19092 0.87437-0.31224 0.27959-0.93061
   0  -5   9  562.28  116.47   1 0.45156-0.65786 0.15548-0.71767 0.87858-0.22837
   0  -5   816222.47 1156.58   1 0.66725-0.85292-0.73867 0.19713 0.09551 0.48337
   0   5  -816441.00 1347.79   1 0.67960-0.49434-0.32406 0.86561-0.65811 0.07952
   0   5  -816018.41 1447.83   1 0.41712-0.23191 0.83979-0.29763 0.34749-0.92608
   0  -5   814879.19 2087.59   1 0.45357-0.63946 0.16676-0.70892 0.87547-0.29750
   0  -5   7 8099.83  706.38   1 0.68960-0.85486-0.72362 0.20208 0.02864 0.47788
   0   5  -7 8229.32  791.34   1 0.67886-0.51398-0.32241 0.84396-0.65968 0.15341
   0   5  -7 8395.09  672.03   1 0.43588-0.27103 0.79815-0.27604 0.41587-0.92213
   0  -5   7 7145.30  985.75   1 0.45426-0.61973 0.17070-0.69284 0.87435-0.36863
   0  -5   6126729.2 9212.97   1 0.70984-0.85469-0.70296 0.20142-0.04429 0.47846
   0   5  -6134306.5 4101.43   1 0.67472-0.53021-0.31328 0.81483-0.66828 0.23433
   0   5  -6136083.0 4058.35   1 0.45249-0.30801 0.74834-0.24627 0.48501-0.91895
   0  -5   6125679.6 3872.52   1 0.45342-0.59847 0.16590-0.66801 0.87571-0.44223
   0  -5   582040.00 6233.02   1 0.72715-0.85159-0.67491 0.19343-0.12543 0.48719
   0   5  -585032.09 2302.70   1 0.66570-0.54156-0.29407 0.77562-0.68582 0.32420
   0   5  -583465.97 2184.54   1 0.46630-0.34212 0.68880-0.20682 0.55507-0.91661
   0  -5   579069.95 2194.99   1 0.45062-0.57526 0.15036-0.63245 0.87995-0.51872
   0  -5   490424.89 4273.02   1 0.74026-0.84431-0.63629 0.17480-0.21711 0.50653
   0   5  -486998.42 2258.10   1 0.64893-0.54533-0.26051 0.72215-0.71485 0.42556
   0   5  -487750.42 2208.75   1 0.47691-0.37310 0.61758-0.15565 0.62541-0.91463
   0  -5   488506.51 2321.21   1 0.44509-0.54931 0.12134-0.58340 0.88722-0.59823
   0  -5   389558.12 1932.37   1 0.74608-0.82967-0.58212 0.14059-0.32322 0.54025
   0   5  -387910.08 1884.36   1 0.61987-0.53663-0.20675 0.64839-0.75697 0.54000
   0   5  -388566.39 1854.22   1 0.48299-0.39955 0.53220-0.09031 0.69532-0.91224
   0  -5   386447.96 1900.52   1 0.43549-0.51929 0.07517-0.51721 0.89704-0.68030
   0  -5   2 9881.87  950.65   1 0.73881-0.80202-0.50448 0.08293-0.44681 0.59150
   0   5  -2 7700.84  825.62   1 0.56949-0.50662-0.12339 0.54503-0.81267 0.66803
   0   5  -2 9427.47  885.76   1 0.48254-0.41922 0.42953-0.00749 0.76331-0.90784
   0  -5   2 7852.11 1006.14   1 0.41953-0.48309 0.00707-0.42906 0.90770-0.76323
   0  -5   141166.24  909.21   1 0.70679-0.74943-0.39082-0.01073-0.58966 0.66198
   0   5  -141865.28  914.78   1 0.48311-0.44091 0.00127 0.40045-0.87555 0.80325
   0   5  -140840.27  906.26   1 0.47373-0.43082 0.30756 0.09442 0.82521-0.89748
   0  -5   140519.53  952.26   1 0.39390-0.43702-0.08765-0.31435 0.91496-0.84272
   0  -5   0132931.5 2477.76   1 0.63175-0.65390-0.22812-0.15351-0.74083 0.74083
   0   5   0130435.3 2430.78   1 0.34322-0.32158 0.17204 0.20973-0.92336 0.92336
   0   5   0132805.1 2510.17   1 0.45324-0.43069 0.16489 0.21707 0.87600-0.87600
   0  -5   0133272.1 2571.75   1 0.35403-0.37678-0.21278-0.16926 0.91070-0.91070
   0  -5  -149811.29  899.15   1 0.49649-0.49802-0.01681-0.34500-0.86787 0.79557
   0   5   151116.52  775.55   1 0.14602-0.14471 0.37075-0.00891-0.91717 0.98943
   0   5   151395.77  835.73   1 0.41888-0.41661 0.00445 0.35761 0.90802-0.83579
   0  -5  -145773.92  841.07   1 0.29417-0.29642-0.36629 0.00417 0.88277-0.95504
   0  -5  -2203006.8 3583.04   1 0.31124-0.29218 0.20719-0.54921-0.92746 0.78293
   0   5   2208662.0 3667.77   1-0.07533 0.05631 0.54934-0.20736-0.83219 0.97664
   0   5   2208708.4 3723.22   1 0.37012-0.38827-0.16444 0.50654 0.91431-0.76983
   0  -5  -2206493.9 3709.91   1 0.21211-0.19395-0.53596 0.19388 0.81715-0.96166
   0  -5  -358756.21 1292.71   1 0.12223-0.08281 0.39209-0.71421-0.91176 0.69500
   0   5   359528.04 1300.84   1-0.27097 0.23149 0.66851-0.34634-0.69257 0.90909
   0   5   360508.04 1350.11   1 0.31079-0.34954-0.32673 0.64899 0.89255-0.67573
   0  -5  -358679.15 1317.95   1 0.11133-0.07261-0.69858 0.37648 0.70681-0.92357
   0  -5  -412904.25 1785.66   1 0.41478-0.35552-0.73220 0.43054 0.54021-0.82959
   0  -5  -412802.32 1401.00   1-0.03047 0.09037 0.51663-0.81890-0.85566 0.56677
   0   5   413210.32 1253.24   1 0.24739-0.30666-0.46797 0.77008 0.84840-0.55939
   0  -5  -5 5318.41  691.80   1 0.51458-0.43477-0.75678 0.47519 0.40309-0.76495
   0  -5  -5 6639.60  562.82   1-0.13833 0.21867 0.59219-0.87460-0.79383 0.43271
   0   5   5 6159.84  478.54   1 0.18790-0.26772-0.57906 0.86118 0.79333-0.43207
   0  -5  -6215389.6 3944.62   1 0.58340-0.48318-0.76043 0.49884 0.28526-0.71950
   0  -5  -6210857.9 3852.80   1-0.21156 0.31297 0.63570-0.89797-0.74237 0.30934
   0   5   6215203.2 3820.90   1 0.13784-0.23821-0.65992 0.92205 0.73858-0.30506
   0  -5  -7 1298.08  220.33   1 0.63196-0.51147-0.75280 0.51124 0.18414-0.69067
   0  -5  -7 1466.28  127.00   1-0.25719 0.37924 0.66122-0.90353-0.70472 0.19951
   0  -5  -8134716.3 2959.05   1 0.66703-0.52613-0.73879 0.51723 0.09613-0.67502
   0  -5  -8132633.8 2894.44   1-0.28505 0.42775 0.67573-0.89807-0.67979 0.10241
   0  -5  -997256.89 2127.03   1 0.69284-0.53153-0.72086 0.51929 0.01793-0.66918
   0  -5  -9101768.6 6493.46   1-0.30050 0.46384 0.68340-0.88577-0.66532 0.01577
   0   5   9103069.4 1523.70   1 0.36438-0.52534 0.91286-0.71135 0.18413 0.46688
   0  -5 -10 1466.86  254.81   1 0.71194-0.53022-0.70023 0.51866-0.05290-0.67070
   0  -5 -10 1526.07  191.60   1-0.30696 0.49094 0.68653-0.86893-0.65912-0.06259
   0   5  10 1735.30  220.86   1 0.39960-0.58093 0.86990-0.68843 0.28910 0.43425
   0  -5 -1112480.67 1422.43   1 0.72583-0.52401-0.67762 0.51602-0.11829-0.67758
   0  -5 -1112830.34 1190.30   1-0.30665 0.51128 0.68638-0.84882-0.65942-0.13447
   0   5  1114056.87 1283.45   1 0.42679-0.62856 0.81981-0.65853 0.38176 0.41380
   0  -5 -12 3317.24  450.31   1 0.73572-0.51351-0.65312 0.51152-0.17928-0.68894
   0  -5 -12 3698.21  503.16   1-0.30103 0.52630 0.68366-0.82613-0.66481-0.20124
   0   5  12 3271.45  757.88   1 0.44773-0.66987 0.76430-0.62306 0.46408 0.40380
   0  -6   8  224.46   83.75   1 0.67109-0.86124-0.73650 0.11865 0.08475 0.49413
   0   6  -8  112.18   44.77   1 0.64857-0.45909-0.25981 0.87778-0.71543 0.13685
   0   6  -8  132.61   55.82   1 0.42386-0.23419 0.82618-0.20766 0.37116-0.94975
   0  -6   8  152.48   50.58   1 0.43898-0.62938 0.09144-0.71000 0.89382-0.31585
   0  -6   7 3981.54  259.57   1 0.69327-0.86301-0.72048 0.12262 0.01646 0.49006
   0   6  -7 2871.94  270.61   1 0.64594-0.47682-0.25473 0.85270-0.71962 0.21336
   0   6  -7 3218.84  237.82   1 0.44150-0.27219 0.78303-0.18456 0.43810-0.94437
   0  -6   7 2870.64  298.56   1 0.43934-0.60932 0.09311-0.69164 0.89348-0.38775
   0  -6   615866.26 2109.55   1 0.71294-0.86227-0.69884 0.12107-0.05763 0.49174
   0   6  -615353.81 1532.61   1 0.63907-0.49031-0.24167 0.81964-0.73019 0.29625
   0   6  -616392.29 1346.65   1 0.45679-0.30785 0.73236-0.15394 0.50495-0.93889
   0  -6   614892.10 1564.01   1 0.43790-0.58746 0.08632-0.66483 0.89486-0.46138
   0  -6   5127108.5 3907.66   1 0.72950-0.85844-0.66975 0.11197-0.13877 0.50053
   0   6  -5124151.7 3792.52   1 0.62630-0.49791-0.21821 0.77618-0.74841 0.38680
   0   6  -5128864.7 3854.25   1 0.46914-0.34050 0.67311-0.11479 0.57167-0.93320
   0  -6   5121079.0 3754.77   1 0.43424-0.56339 0.06948-0.62797 0.89810-0.53687
   0  -6   490660.47 5578.95   1 0.74144-0.84999-0.63068 0.09289-0.22912 0.51853
   0   6  -486058.56 2282.80   1 0.60490-0.49687-0.18087 0.71884-0.77548 0.48619
   0   6  -487380.88 2266.65   1 0.47831-0.37004 0.60404-0.06575 0.63745-0.92668
   0  -6   490881.06 2449.14   1 0.42760-0.53655 0.04044-0.57877 0.90306-0.61411
   0  -6   312867.80  939.92   1 0.74610-0.83417-0.57760 0.05975-0.33122 0.54825
   0   6  -311365.36 1128.46   1 0.57037-0.48270-0.12476 0.64273-0.81185 0.59488
   0   6  -312365.77 1074.77   1 0.48326-0.39536 0.52367-0.00543 0.70158-0.91850
   0  -6   311049.68 1631.01   1 0.41694-0.50546-0.00324-0.51511 0.90892-0.69221
   0  -6   2  187.48   38.92   1 0.73886-0.80656-0.50476 0.00691-0.44641 0.59110
   0   6  -2  206.99   37.59   1 0.51550-0.44860-0.04320 0.54124-0.85579 0.71120
   0   6  -2  166.04   29.84   1 0.48257-0.41475 0.43033 0.06809 0.76284-0.90738
   0  -6   2  206.82   36.28   1 0.40052-0.46862-0.06455-0.43383 0.91400-0.76953
   0  -6   127295.45 2182.34   1 0.71145-0.75855-0.40389-0.07398-0.57506 0.64739
   0   6  -121661.35 2052.63   1 0.43082-0.38425 0.06874 0.40934-0.89981 0.82751
   0   6  -126314.91 2500.23   1 0.47535-0.42794 0.32348 0.15489 0.81816-0.89043
   0  -6   122992.23 2864.25   1 0.37597-0.42364-0.14634-0.33207 0.91500-0.84276
   0  -6   0 6795.37  511.30   1 0.65256-0.67914-0.26762-0.19034-0.70889 0.70889
   0   6   0 5647.19  617.44   1 0.30638-0.28041 0.21243 0.24570-0.92790 0.92790
   0   6   0 7721.26  784.68   1 0.45962-0.43256 0.20284 0.25551 0.86463-0.86463
   0  -6   0 6038.93  764.61   1 0.34051-0.36781-0.25032-0.20813 0.90630-0.90630
   0  -6  -1469494.5 6731.83   1 0.55160-0.55781-0.09600-0.34196-0.82856 0.75623
   0   6   1466092.5 6674.22   1 0.14205-0.13641 0.37435 0.06382-0.91633 0.98859
   0   6   1465740.6 6718.56   1 0.43449-0.42785 0.07059 0.36774 0.89790-0.82565
   0  -6  -1468918.0 6871.01   1 0.29045-0.29725-0.37487-0.06365 0.88039-0.95267
   0  -6  -2640861.1 3079.90   1 0.41076-0.39633 0.09338-0.51160-0.90694 0.76235
   0   6   2665658.8 3105.42   1-0.04322 0.02857 0.52611-0.10780-0.84931 0.99376
   0   6   2634818.3 8981.35   1 0.39950-0.41311-0.06817 0.48669 0.91419-0.76971
   0  -6  -2626509.2 8894.97   1 0.22431-0.21072-0.51319 0.09469 0.82844-0.97294
   0  -6  -316377.48 1542.03   1 0.25293-0.21785 0.26822-0.66671-0.92955 0.71276
   0   6   313775.11 1415.15   1-0.21944 0.18444 0.64026-0.24168-0.73614 0.95266
   0   6   315154.60  821.84   1 0.35625-0.39029-0.20556 0.60410 0.91149-0.69478
   0  -6  -313871.04 1389.18   1 0.14285-0.10871-0.65230 0.25379 0.74437-0.96112
   0  -6  -434716.16  925.61   1 0.10739-0.05194 0.40513-0.78374-0.90792 0.61891
   0   6   432827.23 2450.73   1-0.36106 0.30543 0.71073-0.33212-0.60372 0.89241
   0   6   435469.61  953.86   1 0.30858-0.36329-0.33211 0.71086 0.89133-0.60223
   0  -6  -5   63.28   26.92   1 0.46791-0.39272-0.74760 0.38961 0.47131-0.83304
   0   6   5   39.00   49.53   1 0.26025-0.33546-0.44115 0.79997 0.85886-0.49749
   0  -6  -613122.17 1332.89   1 0.54574-0.44997-0.76011 0.42220 0.35269-0.78693
   0  -6  -614810.62 1231.54   1-0.09461 0.19101 0.56283-0.90173-0.82113 0.38779
   0   6   613245.61 1328.12   1 0.21572-0.31150-0.52930 0.86785 0.82054-0.38703
   0  -6  -777370.95 2140.00   1 0.60242-0.48624-0.75870 0.44080 0.24788-0.75449
   0  -6  -774289.03 2047.00   1-0.15450 0.27135 0.60259-0.92164-0.78294 0.27738
   0   6   776579.98 2007.20   1 0.17789-0.29422-0.59609 0.91465 0.78295-0.27719
   0  -6  -8150248.5 4508.11   1 0.64427-0.50785-0.74890 0.45103 0.15503-0.73392
   0  -6  -8147064.9 4402.78   1-0.19658 0.33478 0.62685-0.92560-0.75392 0.17655
   0   6   8153623.1 4429.81   1 0.27150-0.40753 0.96117-0.66321-0.04926 0.62774
   0   6   8144059.5 4486.76   1 0.14798-0.28486-0.64440 0.94297 0.75023-0.17221
   0  -6  -914905.96 1508.25   1 0.67553-0.51869-0.73380 0.45593 0.07199-0.72324
   0  -6  -915120.00 1298.63   1-0.22227 0.38112 0.64188-0.92066-0.73387 0.08432
   0   6   915537.11 1350.35   1 0.32491-0.48131 0.94242-0.66448 0.07913 0.57166
   0   6   912784.71 2564.21   1 0.12601-0.28344-0.67751 0.95610 0.72463-0.07436
   0  -6 -10  903.92  253.27   1 0.69902-0.52177-0.71509 0.45721-0.00339-0.72021
   0  -6 -10  714.30  185.68   1-0.23712 0.41661 0.65026-0.90908-0.72175 0.00003
   0   6  10  682.37  173.67   1 0.36834-0.54519 0.90894-0.65110 0.19532 0.52803
   0   6  10  586.11  253.59   1 0.11139-0.28937-0.69849 0.95708 0.70689 0.01562
   0  -6 -11 1002.14  138.02   1 0.71648-0.51916-0.69378 0.45588-0.07294-0.72293
   0  -6 -11 1052.42  169.97   1-0.24368 0.44381 0.65389-0.89274-0.71626-0.07762
   0   6  11 1265.84  169.04   1 0.40273-0.59995 0.86506-0.62726 0.29911 0.49657
   0  -6 -12  351.53  100.73   1 0.72931-0.51160-0.67018 0.45227-0.13768-0.73055
   0  -6 -12  292.56   64.73   1-0.24372 0.46449 0.65391-0.87280-0.71623-0.14983
   0   6  12  362.09   71.72   1 0.42969-0.64737 0.81325-0.59566 0.39239 0.47548
   0  -7   7  798.13  105.00   1 0.69431-0.86852-0.71955 0.04539 0.01297 0.49355
   0   7  -7  780.03  121.21   1 0.60811-0.43457-0.18634 0.86064-0.77166 0.26540
   0   7  -7  741.63  103.16   1 0.44469-0.27094 0.77371-0.09888 0.45123-0.95750
   0  -7   7  708.76  133.16   1 0.42274-0.59752 0.02010-0.69475 0.90602-0.40036
   0  -7   629419.83 2644.03   1 0.71378-0.86761-0.69768 0.04360-0.06119 0.49531
   0   7  -628572.18 3234.23   1 0.59860-0.44541-0.17028 0.82458-0.78273 0.34880
   0   7  -628407.94 2239.01   1 0.45901-0.30562 0.72341-0.06863 0.51573-0.94967
   0  -7   625988.48 3030.68   1 0.42083-0.57517 0.01229-0.66696 0.90705-0.47363
   0  -7   571558.10 2430.04   1 0.72997-0.86341-0.66865 0.03457-0.14154 0.50331
   0   7  -566224.69 6059.68   1 0.58247-0.44965-0.14392 0.77821-0.80000 0.43839
   0   7  -570595.58 2320.71   1 0.47039-0.33729 0.66563-0.03095 0.57935-0.94089
   0  -7   565847.21 2317.57   1 0.41654-0.55046-0.00480-0.62990 0.90910-0.54791
   0  -7   440475.67 3558.89   1 0.74149-0.85454-0.63041 0.01631-0.22971 0.51912
   0   7  -436351.10 2996.97   1 0.55715-0.44469-0.10439 0.71869-0.82381 0.53452
   0   7  -440614.22 3317.98   1 0.47873-0.36599 0.59966 0.01497 0.64126-0.93049
   0  -7   437020.52 4700.87   1 0.40926-0.52275-0.03271-0.58202 0.91182-0.62287
   0  -7   322033.48 1630.44   1 0.74610-0.83866-0.57976-0.01439-0.32742 0.54445
   0   7  -319227.02 1538.25   1 0.51864-0.42703-0.04764 0.64200-0.85365 0.63676
   0   7  -320713.38 1731.58   1 0.48323-0.39087 0.52466 0.06992 0.70086-0.91778
   0  -7   317879.36 2421.80   1 0.39806-0.49112-0.07324-0.52152 0.91442-0.69771
   0  -7   219782.54 1268.22   1 0.74022-0.81241-0.51256-0.06159-0.43512 0.57981
   0   7  -217452.87 1872.85   1 0.46181-0.39053 0.02936 0.54504-0.88649 0.74189
   0   7  -218066.90 1299.72   1 0.48288-0.41056 0.43977 0.13503 0.75724-0.90177
   0  -7   215880.33 1974.68   1 0.38165-0.45428-0.12830-0.44649 0.91535-0.77088
   0  -7   1 7799.28  498.81   1 0.71789-0.76944-0.42314-0.13104-0.55279 0.62512
   0   7  -1 5880.46  749.39   1 0.37991-0.32926 0.13011 0.42425-0.91582 0.84355
   0   7  -1 7226.55  560.74   1 0.47734-0.42543 0.34512 0.20964 0.80810-0.88037
   0  -7   1 8451.94 1094.86   1 0.35832-0.41053-0.19954-0.35528 0.91201-0.83978
   0  -7   0107367.2 2563.69   1 0.67192-0.70310-0.30723-0.22695-0.67388 0.67388
   0   7   0104585.9 2497.16   1 0.26790-0.23760 0.25291 0.28157-0.92965 0.92965
   0   7   0107522.3 2599.33   1 0.46531-0.43374 0.24084 0.29391 0.85175-0.85175
   0  -7   0104115.0 2608.75   1 0.32630-0.35816-0.28781-0.24705 0.90037-0.90037
   0  -7  -152035.39 1233.75   1 0.59480-0.60545-0.16398-0.35030-0.78696 0.71464
   0   7   153024.37 1247.65   1 0.12665-0.11668 0.38816 0.12635-0.91284 0.98509
   0   7   153881.11 1315.47   1 0.44651-0.43536 0.12860 0.38613 0.88548-0.81324
   0  -7  -148596.05 4283.60   1 0.28300-0.29435-0.39178-0.12316 0.87545-0.94772
   0  -7  -211446.63 1023.62   1 0.48644-0.47638-0.00319-0.49138-0.87370 0.72910
   0   7   2 9268.77  755.70   1-0.03170 0.02142 0.51755-0.02290-0.85506 0.99950
   0   7   212375.60  992.89   1 0.42064-0.42971 0.01153 0.48338 0.90715-0.76267
   0  -7  -2 9690.54 1097.14   1 0.22745-0.21845-0.50721 0.01230 0.83126-0.97576
   0  -7  -395803.01 1943.39   1 0.35777-0.32701 0.15563-0.63048-0.92074 0.70394
   0   7   397360.80 2336.03   1-0.18865 0.15815 0.62208-0.14709-0.75988 0.97639
   0   7   394401.27 2321.58   1 0.38856-0.41806-0.10568 0.58063 0.91534-0.69862
   0  -7  -395867.55 2036.17   1 0.15951-0.12996-0.62622 0.15130 0.76314-0.97990
   0  -7  -459167.72 1588.33   1 0.22788-0.17677 0.29330-0.74827-0.92846 0.63939
   0   7   461122.59 1628.76   1-0.32280 0.27165 0.69398-0.23896-0.64356 0.93225
   0   7   463231.50 3639.46   1 0.35249-0.40265-0.21716 0.67232 0.91026-0.62117
   0  -7  -5 6338.18  626.13   1 0.43041-0.35969-0.73722 0.30291 0.52079-0.88253
   0  -7  -5 7241.63  582.50   1 0.11296-0.04147 0.40026-0.83535-0.90940 0.54813
   0   7   5 7131.80  521.54   1 0.31425-0.38491-0.31823 0.75346 0.89441-0.53304
   0  -7  -615156.75 1801.01   1 0.51314-0.42183-0.75657 0.34234 0.40532-0.83955
   0  -7  -618642.53 1294.38   1 0.02043 0.07160 0.47736-0.89259-0.87846 0.44512
   0   7   616896.65 1482.12   1 0.27708-0.36824-0.40494 0.82025 0.87134-0.43770
   0  -7  -736164.52 3602.54   1 0.57559-0.46386-0.76075 0.36652 0.29991-0.80652
   0  -7  -735554.96 3040.78   1-0.04959 0.16206 0.53079-0.92617-0.84604 0.34048
   0   7   736727.50  951.03   1 0.24334-0.35508-0.47612 0.87109 0.84503-0.33927
   0  -7  -8 2283.13  233.47   1 0.62282-0.49068-0.75510 0.38088 0.20469-0.78368
   0  -7  -8 2462.94  248.30   1-0.10038 0.23330 0.56681-0.94234-0.81770 0.23992
   0   7   8 1972.50  362.80   1 0.21467-0.34696-0.53125 0.90623 0.81956-0.24154
   0  -7  -9104519.2 3301.48   1 0.65876-0.50640-0.74297 0.38878 0.11842-0.76967
   0  -7  -999312.90 3154.09   1-0.13573 0.28909 0.59049-0.94617-0.79554 0.14553
   0   7   9108497.8 3186.59   1 0.28624-0.43814 0.95803-0.60373-0.01518 0.66597
   0   7   9107496.0 3235.57   1 0.19193-0.34477-0.57208 0.92707 0.79742-0.14715
   0  -7 -1016592.22 1857.82   1 0.68616-0.51339-0.72636 0.39217 0.03968-0.76329
   0  -7 -1015574.44 2365.34   1-0.15896 0.33276 0.60542-0.94124-0.77986 0.05763
   0   7  1016745.46 1942.36   1 0.33592-0.50830 0.93577-0.60158 0.10713 0.61621
   0   7  1016064.98 1715.52   1 0.17529-0.34868-0.60045 0.93546 0.78020-0.05768
   0  -7 -11  320.62   73.09   1 0.70698-0.51380-0.70645 0.39226-0.03299-0.76297
   0  -7 -11  182.01   70.55   1-0.17448 0.37013 0.61341-0.92867-0.77024-0.02364
   0   7  11  145.12   42.05   1 0.37657-0.56932 0.90011-0.58595 0.21904 0.57664
   0   7  11  172.17   61.71   1 0.16452-0.35846-0.61815 0.93317 0.76864 0.02612
   0  -8   715781.67 1859.01   1 0.69300-0.87169-0.72072-0.02974 0.01738 0.48913
   0   8  -714862.99 2091.63   1 0.56568-0.38771-0.11748 0.86810-0.81620 0.30994
   0  -8   715242.81 2071.71   1 0.40483-0.58414-0.04906-0.70198 0.91307-0.40740
   0  -8   6 8525.18  936.93   1 0.71262-0.87095-0.69928-0.03109-0.05626 0.49038
   0   8  -6 7683.80 1113.02   1 0.55378-0.39617-0.09929 0.82992-0.82671 0.39277
   0   8  -6 9125.81  694.61   1 0.45974-0.30190 0.72036 0.01077 0.51933-0.95327
   0  -8   6 8681.27  800.75   1 0.40259-0.56148-0.05715-0.67392 0.91359-0.48016
   0  -8   5 9217.15  832.21   1 0.72890-0.86683-0.67112-0.03926-0.13527 0.49703
   0   8  -5 8896.39  981.59   1 0.53475-0.39809-0.07077 0.78140-0.84204 0.48055
   0   8  -5 9013.81  786.14   1 0.47054-0.33297 0.66474 0.04628 0.58026-0.94179
   0  -8   5 8648.85 1086.66   1 0.39791-0.53637-0.07377-0.63734 0.91445-0.55326
   0  -8   445601.79 3990.46   1 0.74064-0.85819-0.63455-0.05583-0.22087 0.51028
   0   8  -441530.75 4156.87   1 0.50638-0.39006-0.03043 0.72111-0.86177 0.57258
   0   8  -441897.96 2850.47   1 0.47848-0.36128 0.60227 0.08871 0.63899-0.92822
   0  -8   439550.69 4917.84   1 0.39024-0.50827-0.10005-0.59109 0.91525-0.62630
   0  -8   3 3621.64  293.82   1 0.74600-0.84305-0.58711-0.08335-0.31429 0.53132
   0   8  -3 2996.72  292.55   1 0.46548-0.36949 0.02458 0.64613-0.88471 0.66782
   0   8  -3 3259.50  258.97   1 0.48298-0.38615 0.53254 0.13839 0.69507-0.91199
   0  -8   3 3058.17  377.98   1 0.37885-0.47645-0.13725-0.53392 0.91522-0.69850
   0  -8   2  683.72   88.10   1 0.74223-0.81891-0.52577-0.12470-0.41551 0.56019
   0   8  -2  701.34   86.81   1 0.40803-0.33238 0.09669 0.55406-0.90783 0.76323
   0   8  -2  775.76  112.94   1 0.48326-0.40644 0.45514 0.19605 0.74785-0.89239
   0  -8   2  707.26  105.22   1 0.36273-0.43991-0.18663-0.46457 0.91301-0.76853
   0  -8   110901.93  922.57   1 0.72496-0.78097-0.44645-0.18404-0.52450 0.59682
   0   8  -1 9822.83 1152.63   1 0.32963-0.27465 0.18714 0.44358-0.92537 0.85310
   0   8  -110651.28 1011.92   1 0.47934-0.42293 0.37048 0.26066 0.79559-0.86786
   0  -8   1 9631.08 1204.23   1 0.34090-0.39781-0.24925-0.38195 0.90645-0.83417
   0  -8   036557.43 3562.07   1 0.68935-0.72499-0.34653-0.26396-0.63616 0.63616
   0   8   036271.98  879.85   1 0.22768-0.19306 0.29350 0.31735-0.92844 0.92844
   0   8   039522.44 2542.42   1 0.47028-0.43421 0.27887 0.33227 0.83729-0.83729
   0  -8   037220.61 3652.33   1 0.31138-0.34779-0.32527-0.28601 0.89288-0.89288
   0  -8  -111932.07  799.71   1 0.63004-0.64512-0.22500-0.36562-0.74324 0.67092
   0   8   113139.01 1199.82   1 0.10363-0.08932 0.40841 0.18244-0.90689 0.97914
   0   8   113866.14  957.81   1 0.45614-0.44048 0.18162 0.40950 0.87117-0.79892
   0  -8  -112200.48 1631.54   1 0.27304-0.28894-0.41379-0.17756 0.86846-0.94073
   0  -8  -2338111.0 6819.90   1 0.54600-0.54032-0.08734-0.48358-0.83321 0.68861
   0   8   2340850.9 3467.61   1-0.03422 0.02831 0.51943 0.05154-0.85382 0.99826
   0   8   2346005.2 2789.38   1 0.43671-0.44147 0.08080 0.49030 0.89596-0.75146
   0  -8  -2333579.9 6890.40   1 0.22498-0.22057-0.51190-0.05941 0.82905-0.97355
   0  -8  -363748.00 1644.05   1 0.44216-0.41614 0.05451-0.60549-0.89527 0.67838
   0   8   363456.45 4717.85   1-0.17409 0.14808 0.61317-0.06177-0.77052 0.98704
   0   8   370790.26 5021.50   1 0.41250-0.43746-0.02044 0.57181 0.91072-0.69401
   0  -8  -363242.09 1733.07   1 0.16680-0.14184-0.61445 0.06312 0.77111-0.98787
   0  -8  -446337.76 3523.65   1 0.33055-0.28377 0.18612-0.71745-0.92525 0.63618
   0   8   446642.04 1360.82   1-0.29850 0.25184 0.68242-0.15099-0.66722 0.95591
   0   8   447010.30 3831.21   1 0.38460-0.42999-0.11871 0.65011 0.91541-0.62646
   0  -8  -510713.79  767.36   1 0.22378-0.15665 0.29735-0.80879-0.92817 0.56684
   0   8   5 9644.60  527.57   1 0.35506-0.42117-0.20983 0.72147 0.91098-0.54961
   0  -8  -6  758.43  108.97   1 0.48714-0.40048-0.75192 0.26127 0.44418-0.87826
   0  -8  -6  863.82   90.34   1 0.13081-0.04329 0.38446-0.87603-0.91382 0.48030
   0   8   6  855.62  107.08   1 0.32486-0.41147-0.29152 0.78324 0.89970-0.46606
   0  -8  -7 1462.53  262.06   1 0.55300-0.44573-0.76051 0.28997 0.34028-0.84689
   0  -8  -7 1820.11  158.28   1 0.05530 0.05257 0.44933-0.92105-0.89164 0.38586
   0   8   7 1344.07  200.34   1 0.29625-0.40337-0.36145 0.83324 0.88407-0.37815
   0  -8  -844265.23 4505.03   1 0.60404-0.47635-0.75849 0.30794 0.24457-0.82355
   0  -8  -849410.40 4468.74   1-0.00318 0.13172 0.49586-0.94773-0.86839 0.29060
   0   8   848797.77 1705.74   1 0.27074-0.39836-0.41878 0.87064 0.86678-0.28859
   0  -8  -914101.06 1434.73   1 0.64361-0.49573-0.74914 0.31864 0.15665-0.80790
   0  -8  -913704.16 1744.40   1-0.04655 0.19554 0.52856-0.96058-0.84761 0.19760
   0   8   911411.85 2545.38   1 0.24925-0.39751-0.46420 0.89560 0.84993-0.19966
   0  -8 -10 6616.51  824.44   1 0.67424-0.50595-0.73461 0.32411 0.07574-0.79935
   0  -8 -10 6394.53 1010.73   1-0.07737 0.24679 0.55078-0.96293-0.83105 0.10882
   0   8  10 6470.00 1011.67   1 0.30409-0.47187 0.95224-0.54161 0.02741 0.69568
   0   8  10 4767.48 1591.23   1 0.23248-0.40129-0.49750 0.90892 0.83572-0.11320
   0  -8 -11 9990.83 1257.41   1 0.69786-0.50916-0.71622 0.32572 0.00068-0.79665
   0   8  1110068.47 1091.58   1 0.35001-0.53829 0.92552-0.53500 0.14452 0.65115
   0   8  1110664.66  626.99   1 0.22062-0.40998-0.52015 0.91159 0.82508-0.03030
   0  -9   547517.10 6086.53   1 0.72634-0.86878-0.67658-0.11010-0.12103 0.48279
   0   9  -549146.58 2263.11   1 0.48373-0.34270 0.00045 0.78653-0.87521 0.51372
   0   9  -543859.37 4212.41   1 0.46982-0.32778 0.66913 0.11825 0.57578-0.93732
   0  -9   544660.48 5318.73   1 0.37844-0.52144-0.13854-0.64897 0.91519-0.55400
   0  -9   433008.94 3647.83   1 0.73882-0.86086-0.64228-0.12441-0.20397 0.49338
   0   9  -427658.19 3743.77   1 0.45319-0.33250 0.04047 0.72655-0.89049 0.60129
   0   9  -428574.46 2405.69   1 0.47769-0.35603 0.61028 0.15705 0.63195-0.92118
   0  -9   427891.72 3254.29   1 0.37062-0.49319-0.16291-0.60464 0.91438-0.62543
   0  -9   3 1452.12  357.25   1 0.74549-0.84704-0.59846-0.14831-0.29338 0.51041
   0   9  -3 1245.51  343.92   1 0.41086-0.31050 0.09326 0.65380-0.90691 0.69002
   0   9  -3 1259.09  324.08   1 0.48245-0.38116 0.54553 0.20176 0.68529-0.90222
   0  -9   3 1366.50  361.11   1 0.35926-0.46140-0.19682-0.55076 0.91224-0.69553
   0  -9   2  506.61   99.74   1 0.74426-0.82543-0.54289-0.18388-0.38901 0.53370
   0   9  -2  559.32   68.28   1 0.35371-0.27405 0.16024 0.56672-0.92152 0.77699
   0   9  -2  476.93   61.86   1 0.48352-0.40220 0.47473 0.25284 0.73540-0.87994
   0  -9   2  548.76   82.49   1 0.34386-0.42583-0.24118-0.48636 0.90751-0.76296
   0  -9   168145.49 4904.27   1 0.73209-0.79289-0.47287-0.23391-0.49033 0.56267
   0   9  -164255.12 1312.19   1 0.27908-0.21977 0.24132 0.46576-0.92944 0.85718
   0   9  -161635.13 4131.72   1 0.48111-0.42020 0.39842 0.30911 0.78088-0.85315
   0  -9   160958.56 5699.02   1 0.32294-0.38440-0.29641-0.41120 0.89879-0.82652
   0  -9   0 5831.14  661.37   1 0.70491-0.74500-0.38572-0.30108-0.59524 0.59524
   0   9   0 5538.23  664.02   1 0.18557-0.14657 0.33410 0.35295-0.92408 0.92408
   0   9   0 5961.06  541.35   1 0.47470-0.43420 0.31697 0.37052 0.82108-0.82108
   0  -9   0 5365.10  819.44   1 0.29573-0.33668-0.36267-0.32501 0.88374-0.88374
   0  -9  -121058.08 1295.37   1 0.65943-0.67894-0.28137-0.38557-0.69711 0.62479
   0   9   121132.13 1469.27   1 0.07494-0.05630 0.43295 0.23424-0.89829 0.97054
   0   9   120453.80 1136.63   1 0.46396-0.44379 0.23140 0.43611 0.85509-0.78284
   0  -9  -116895.40 1670.10   1 0.26120-0.28165-0.43914-0.22862 0.85960-0.93188
   0  -9  -212038.24  756.16   1 0.59403-0.59317-0.16271-0.48423-0.78780 0.64316
   0   9   212681.98  763.20   1 0.44930-0.44955 0.14325 0.50423 0.88181-0.73732
   0  -9  -211090.29 1262.53   1 0.21872-0.21889-0.52372-0.12400 0.82333-0.96783
   0  -9  -332646.17 2323.76   1 0.51108-0.48943-0.03699-0.59033-0.85873 0.64183
   0   9   332775.18 2626.24   1 0.43089-0.45156 0.05456 0.57290 0.90074-0.68400
   0  -9  -330586.26 2922.65   1 0.16780-0.14743-0.61281-0.01492 0.77220-0.98895
   0  -9  -4 2575.36  218.42   1 0.41711-0.37512 0.08565-0.69303-0.90480 0.61561
   0   9   4 2105.15  304.13   1-0.28633 0.24416 0.67637-0.06853-0.67862 0.96730
   0   9   4 2372.67  223.49   1 0.40946-0.45030-0.03197 0.63978 0.91176-0.62281
   0  -9  -4 2455.25  286.71   1 0.10924-0.06832-0.70150 0.09375 0.70423-0.99324
   0  -9  -524637.33 1428.42   1 0.32199-0.25919 0.19551-0.78332-0.92633 0.56500
   0   9   525128.99 2130.41   1-0.38576 0.32295 0.72053-0.13265-0.57621 0.93707
   0   9   525702.59 2276.23   1 0.38600-0.44727-0.11415 0.70198 0.91540-0.55421
   0  -9  -645547.51 4135.41   1 0.46861-0.38642-0.74777 0.18080 0.47034-0.90442
   0  -9  -648266.54 3167.82   1 0.23349-0.15033 0.28774-0.85566-0.92880 0.49521
   0   9   649708.24 4430.20   1 0.36178-0.44348-0.18943 0.75730 0.91281-0.47938
   0  -9  -7 2218.16  183.88   1 0.53567-0.43286-0.75931 0.21244 0.36945-0.87607
   0  -9  -7 2273.67  185.06   1 0.15686-0.05331 0.36086-0.90891-0.91933 0.41355
   0   9   7 2493.85  234.28   1 0.33868-0.44125-0.25525 0.80345 0.90561-0.39969
   0  -9  -8   85.94   49.72   1 0.58891-0.46568-0.76008 0.23321 0.27468-0.85366
   0  -9  -8  203.56   76.50   1 0.09410 0.02980 0.41664-0.94484-0.90418 0.32614
   0   9   8   69.71   73.57   1 0.31687-0.43994-0.31172 0.83999 0.89577-0.31758
   0  -9  -938360.33 4435.18   1 0.63098-0.48758-0.75307 0.24626 0.18637-0.83762
   0  -9  -942128.83 4098.53   1 0.04483 0.09943 0.45792-0.96626-0.88785 0.23757
   0   9   944436.00 1792.71   1 0.29783-0.44140-0.35776 0.86610 0.88504-0.23457
   0  -9 -1033896.50 1350.65   1 0.66404-0.50022-0.74038 0.25357 0.10432-0.82793
   0  -9 -1034770.36 3596.13   1 0.00764 0.15740 0.48744-0.97593-0.87312 0.15088
   0   9  1034858.16 1160.01   1 0.27522-0.43851 0.96051-0.47352-0.04075 0.76385
   0   9  1036376.28 1279.11   1 0.28227-0.44635-0.39340 0.88181 0.87495-0.15221
   0 -10   4   95.38   64.74   1 0.73579-0.86234-0.65287-0.19012-0.17986 0.46927
   0  10  -4  190.44   83.07   1 0.39768-0.27298 0.10915 0.73393-0.91100 0.62194
   0  10  -4  393.05   79.19   1 0.47635-0.35023 0.62250 0.22118 0.62094-0.91017
   0 -10   4   91.76   65.94   1 0.35064-0.47816-0.22238-0.62143 0.90972-0.62062
   0 -10   3 4844.62  499.57   1 0.74422-0.85037-0.61295-0.21005-0.26537 0.48243
   0  10  -3 4921.22  399.33   1 0.35466-0.25032 0.15916 0.66404-0.92134 0.70454
   0  10  -3 4669.02  486.96   1 0.48156-0.37581 0.56237 0.26126 0.67218-0.88910
   0 -10   3 4373.94  411.67   1 0.33948-0.44649-0.25311-0.57077 0.90591-0.68909
   0 -10   2 1838.76  230.48   1 0.74572-0.83138-0.56290-0.24018-0.35641 0.50110
   0  10  -2 1345.19  284.12   1 0.29857-0.21458 0.22078 0.58253-0.92849 0.78396
   0  10  -2 1929.16  255.68   1 0.48350-0.39768 0.49743 0.30654 0.72026-0.86480
   0 -10   2 1590.59  246.46   1 0.32436-0.41087-0.29281-0.51114 0.89947-0.75492
   0 -10   1  657.56  197.77   1 0.73815-0.80343-0.50090-0.28219-0.45191 0.52426
   0  10  -1  560.85  171.37   1 0.22768-0.16404 0.29350 0.48994-0.92844 0.85618
   0  10  -1  770.26  204.23   1 0.48249-0.41708 0.42820 0.35572 0.76409-0.83636
   0 -10   1  570.16  164.55   1 0.30456-0.37056-0.34181-0.44222 0.88904-0.81677
   0 -10   030089.13 1777.30   1 0.71842-0.76297-0.42480-0.33832-0.55082 0.55082
   0  10   027806.75 3237.72   1 0.14145-0.09811 0.37489 0.38849-0.91621 0.91621
   0  10   027367.66 2136.28   1 0.47817-0.43316 0.35509 0.40878 0.80328-0.80328
   0 -10   025619.46 3066.58   1 0.27930-0.32480-0.40004-0.36406 0.87290-0.87290
   0 -10  -137815.93 1773.16   1 0.68428-0.70846-0.33468-0.40844-0.64787 0.57554
   0  10   137157.21 2777.64   1 0.04165-0.01868 0.46051 0.28302-0.88667 0.95892
   0  10   136165.74 2119.01   1 0.47029-0.44561 0.27896 0.46495 0.83725-0.76501
   0 -10  -134564.82 3576.54   1 0.24794-0.27325-0.46685-0.27727 0.84886-0.92111
   0 -10  -2 9485.67  517.78   1 0.63366-0.63723-0.23162-0.49165-0.73811 0.59347
   0  10   2 8445.02 1068.84   1-0.06717 0.07001 0.54352 0.18013-0.83670 0.98114
   0  10   2 9516.92  728.25   1 0.45932-0.45505 0.20096 0.52292 0.86523-0.72074
   0 -10  -2 8739.46  633.58   1 0.20965-0.21441-0.54048-0.18366 0.81481-0.95932
   0 -10  -331283.49 2310.04   1 0.56763-0.55084-0.12049-0.58277-0.81441 0.59744
   0  10   332332.61 2271.29   1-0.18002 0.16299 0.61682 0.08739-0.76623 0.98274
   0  10   335764.07 2894.61   1 0.44534-0.46149 0.12260 0.58126 0.88692-0.67018
   0 -10  -329369.11 2401.47   1 0.16432-0.14854-0.61847-0.08568 0.76843-0.98518
   0 -10  -419050.59 2162.86   1 0.49036-0.45275-0.00848-0.67524-0.87147 0.58228
   0  10   418099.49 2692.73   1-0.28446 0.24679 0.67543 0.00882-0.68034 0.96902
   0  10   420633.21 1716.24   1 0.42884-0.46541 0.04562 0.63822 0.90222-0.61324
   0 -10  -419642.30 1867.78   1 0.11230-0.07597-0.69720 0.01304 0.70801-0.99702
   0 -10  -536702.35 2854.46   1 0.40760-0.34966 0.09720-0.76098-0.90796 0.54647
   0  10   536790.88 2960.13   1-0.37780 0.31948 0.71746-0.05317-0.58523 0.94609
   0  10   540033.69 3745.39   1 0.41057-0.46731-0.02777 0.69201 0.91140-0.55021
   0 -10  -6   87.83   46.92   1 0.45761-0.37987-0.74500 0.10171 0.48534-0.91942
   0 -10  -6   31.27   40.24   1 0.32690-0.24807 0.19014-0.83442-0.92573 0.49213
   0  10   6   40.72   31.38   1 0.39137-0.46853-0.09625 0.74052 0.91518-0.48175
   0 -10  -710330.19 1161.91   1 0.52412-0.42577-0.75806 0.13487 0.38811-0.89472
   0 -10  -710965.62  685.31   1 0.25288-0.15370 0.26827-0.89266-0.92955 0.42369
   0  10   711605.42  704.78   1 0.37220-0.46979-0.15804 0.78234 0.91459-0.40893
   0 -10  -8 7718.60  839.11   1 0.57813-0.45936-0.76067 0.15748 0.29519-0.87417
   0 -10  -8 8207.80  688.57   1 0.18891-0.06933 0.33094-0.93547-0.92454 0.34651
   0  10   8 8498.39  750.75   1 0.35463-0.47315-0.21107 0.81575 0.91086-0.33267
   0 -10  -9  371.24   60.60   1 0.62154-0.48235-0.75539 0.17220 0.20752-0.85888
   0 -10  -9  372.77   95.85   1 0.13621 0.00373 0.37962-0.96430-0.91505 0.26477
   0  10   9  383.13  119.45   1 0.33836-0.47738-0.25611 0.84087 0.90548-0.25502
   0 -11   2 9903.98 1313.54   1 0.74604-0.83620-0.58503-0.29436-0.31803 0.46272
   0  11  -2 7952.45 1784.31   1 0.24208-0.15376 0.27917 0.60051-0.92922 0.78469
   0  11  -210049.83 1245.31   1 0.48329-0.39345 0.52253 0.35741 0.70240-0.84702
   0 -11   210090.60 1276.65   1 0.30436-0.39542-0.34229-0.53808 0.88893-0.74438
   0 -11   1 1364.32  373.39   1 0.74283-0.81261-0.53029-0.32911-0.40863 0.48097
   0  11  -1 1837.78  168.30   1 0.17490-0.10686 0.34414 0.51545-0.92248 0.85022
   0  11  -1 1873.82  188.63   1 0.48334-0.41343 0.45935 0.40096 0.74523-0.81749
   0 -11   1 1701.93  249.98   1 0.28561-0.35617-0.38588-0.47455 0.87721-0.80494
   0 -11   0   43.93   53.29   1 0.72991-0.77932-0.46411-0.37529-0.50181 0.50181
   0  11   0  104.75   25.86   1 0.09505-0.04738 0.41582 0.42391-0.90446 0.90446
   0 -11   0   94.02   71.57   1 0.26205-0.31211-0.43735-0.40316 0.86025-0.86025
   0 -11  -127390.17 2498.67   1 0.70481-0.73345-0.38548-0.43395-0.59551 0.52318
   0  11   128486.87 2695.20   1 0.00409 0.02355 0.49021 0.32963-0.87159 0.94381
   0  11   126952.84 2681.74   1 0.47549-0.44639 0.32491 0.49530 0.81751-0.74525
   0 -11  -125587.62 2903.99   1 0.23319-0.26308-0.49613-0.32440 0.83634-0.90859
   0 -11  -2 2999.99  391.62   1 0.66660-0.67486-0.29595-0.50349-0.68414 0.53949
   0  11   2 2724.75  590.24   1-0.09379 0.10100 0.56226 0.23772-0.82161 0.96606
   0  11   2 3313.73  387.79   1 0.46728-0.45851 0.25528 0.54500 0.84644-0.70195
   0 -11  -2 2857.15  406.60   1 0.19836-0.20771-0.56078-0.23976 0.80384-0.94835
   0 -11  -3  267.34   57.23   1 0.61480-0.60244-0.19786-0.58173-0.76345 0.54648
   0  11   3  311.83   64.40   1-0.19602 0.18347 0.62652 0.15411-0.75435 0.97086
   0  11   3  260.08   50.68   1 0.45678-0.46843 0.18546 0.59479 0.87002-0.65328
   0 -11  -3  408.36   86.49   1 0.15746-0.14626-0.62949-0.15107 0.76088-0.97764
   0 -11  -410210.00 1084.37   1 0.55182-0.51910-0.09633-0.66326-0.82837 0.53908
   0  11   4 8309.42 2055.90   1-0.29136 0.25818 0.67890 0.08176-0.67394 0.96262
   0  11   411803.69 1131.23   1 0.44419-0.47625 0.11679 0.64344 0.88828-0.59930
   0 -11  -4 9854.59  822.67   1 0.11067-0.07892-0.69951-0.06106 0.70599-0.99500
   0 -11  -5 7869.00 1525.20   1 0.48220-0.42862 0.00249-0.74262-0.87605 0.51456
   0  11   5 9437.61  934.48   1-0.37820 0.32437 0.71762 0.02308-0.58478 0.94564
   0  11   510654.11  931.80   1 0.43001-0.48249 0.05070 0.68950 0.90139-0.54016
   0 -11  -6   46.17   48.39   1 0.45389-0.38061-0.74401 0.02440 0.49033-0.92441
   0 -11  -6  120.79   53.71   1 0.41028-0.33638 0.09396-0.81413-0.90710 0.47331
   0  11   6   81.77   65.02   1 0.41495-0.48758-0.01099 0.73167 0.90977-0.47634
   0 -11  -7 5067.90  773.63   1 0.51856-0.42466-0.75734 0.05783 0.39689-0.90350
   0 -11  -7 5061.69  727.47   1 0.34183-0.24697 0.17360-0.87436-0.92358 0.41772
   0  11   7 5852.11  700.14   1 0.39965-0.49270-0.06763 0.76835 0.91416-0.40850
   0 -11  -8 4530.46  640.36   1 0.57209-0.45778-0.76082 0.08131 0.30635-0.88533
   0 -11  -8 4495.78  909.59   1 0.27953-0.16433 0.24085-0.92172-0.92943 0.35130
   0  11   8 5028.58  574.34   1 0.38488-0.49835-0.11783 0.79857 0.91541-0.33751
   0 -12   0  564.41  117.44   1 0.73852-0.79242-0.50291-0.41280-0.44906 0.44906
   0  12   0  683.30  117.80   1 0.04609 0.00591 0.45689 0.45917-0.88832 0.88832
   0  12   0  557.88   91.18   1 0.48261-0.42861 0.43148 0.48516 0.76217-0.76217
   0 -12   0  920.61  136.86   1 0.24402-0.29905-0.47476-0.44217 0.84560-0.84560
   0 -12  -1 1696.33  220.11   1 0.72144-0.75453-0.43452-0.46122-0.53917 0.46684
   0  12   1 1786.66  367.62   1-0.03711 0.06914 0.52159 0.37459-0.85238 0.92460
   0  12   1 1889.55  287.92   1 0.47928-0.44568 0.36972 0.52687 0.79597-0.72371
   0 -12  -1 1720.07  191.60   1 0.21717-0.25166-0.52660-0.37034 0.82190-0.89415
   0 -12  -226525.13 1020.00   1 0.69352-0.70624-0.35659-0.51916-0.62599 0.48134
   0  12   228355.43 1065.26   1-0.12585 0.13744 0.58399 0.29233-0.80194 0.94638
   0  12   223247.46 2995.38   1 0.47367-0.46048 0.30706 0.56949 0.82543-0.68090
   0 -12  -223170.05 3440.85   1 0.18520-0.19913-0.58370-0.29325 0.79055-0.93506
   0 -12  -359917.71 2535.03   1 0.65392-0.64599-0.27032-0.58560-0.70661 0.48964
   0  12   363616.76 2678.15   1-0.21888 0.21082 0.63993 0.21710-0.73659 0.95310
   0  12   354703.39 5163.01   1 0.46582-0.47295 0.24449 0.61216 0.85043-0.63369
   0 -12  -351276.64 4974.06   1 0.14790-0.14128-0.64452-0.21245 0.75014-0.96690
   0  12   440291.74 1385.66   1 0.45636-0.48391 0.18292 0.65370 0.87078-0.58180
   0 -12  -5 1282.77  185.40   1 0.54652-0.49731-0.08810-0.72838-0.83279 0.47130
   0  12   5  400.08  132.69   1-0.38616 0.33681 0.72068 0.09643-0.57575 0.93661
   0  12   5  455.42   72.27   1 0.44552-0.49349 0.12354 0.69306 0.88670-0.52547
   0 -12  -6 1608.42  413.80   1 0.45709-0.38827-0.74486-0.05106 0.48604-0.92012
   0 -12  -6 1392.29  386.44   1 0.48462-0.41508-0.00074-0.79578-0.87472 0.44093
   0  12   6 2010.50  298.99   1 0.43380-0.50218 0.06748 0.72909 0.89847-0.46499
   1 -12  -6  995.66  182.48   1 0.42731-0.27778-0.73626-0.05966 0.52470-0.95878
   1 -12  -6   85.24   84.32   1 0.45365-0.30335 0.03988-0.83641-0.89028 0.45649
  -1  12   6  109.80   54.45   1 0.44728-0.59641 0.13260 0.66397 0.88450-0.45102
   1 -12  -568636.34 1942.27   1 0.51113-0.38116-0.03706-0.77942-0.85869 0.49720
  -1  12   569769.20 1976.91   1-0.35819 0.22802 0.70954 0.10757-0.60683 0.96769
  -1  12   565229.39 5606.78   1 0.45679-0.58550 0.18548 0.63112 0.87002-0.50879
   1 -12  -463529.33 1821.69   1 0.56670-0.45764-0.11906-0.71687-0.81527 0.52598
  -1  12   466226.14 1879.17   1-0.28180 0.17228 0.67408 0.16299-0.68278 0.97146
  -1  12   465099.42 1819.04   1 0.46537-0.57367 0.24132 0.59530 0.85157-0.56259
   1 -12  -460034.62 1858.31   1 0.10752 0.00031-0.70391-0.13307 0.70209-0.99110
   1 -12  -3  664.87  223.86   1 0.61804-0.52934-0.20353-0.65240-0.75934 0.54237
  -1  12   3  940.05  147.11   1-0.20073 0.11185 0.62933 0.22771-0.75076 0.96728
  -1  12   3 1007.53  139.53   1 0.47279-0.56075 0.29895 0.55755 0.82890-0.61211
   1 -12  -3  917.58  133.82   1 0.15334-0.06606-0.63601-0.22096 0.75628-0.97304
   1 -12  -2 2153.78  284.23   1 0.66211-0.59407-0.28665-0.58909-0.69240 0.54775
  -1  12   2 2455.13  299.44   1-0.11533 0.04608 0.57697 0.29936-0.80857 0.95302
  -1  12   2 2538.54  283.24   1 0.47835-0.54590 0.35739 0.51915 0.80214-0.65761
   1 -12  -2 2266.07  276.07   1 0.19322-0.12648-0.56983-0.30713 0.79871-0.94322
   1 -12  -1 1093.00  160.77   1 0.69697-0.64930-0.36514-0.53061-0.61716 0.54484
  -1  12   1 1334.88  188.65   1-0.03402-0.01477 0.51929 0.37688-0.85391 0.92614
  -1  12   1 1095.49  148.88   1 0.48198-0.52912 0.41563 0.48097 0.77132-0.69906
   1 -12  -1 1004.99  154.17   1 0.22713-0.18094-0.50781-0.38913 0.83098-0.90323
   1 -12   0 2254.27  301.53   1 0.72212-0.69482-0.43675-0.47899-0.53645 0.53645
  -1  12   0 2715.68  319.31   1 0.04250-0.07130 0.45982 0.45624-0.88699 0.88699
  -1  12   0 2661.70  273.78   1 0.48351-0.51025 0.47282 0.44383 0.73665-0.73665
   1 -12   0 2534.43  312.47   1 0.25536-0.22973-0.45168-0.46525 0.85484-0.85484
   1 -11  -8 3660.74  438.38   1 0.54471-0.34966-0.76004 0.08053 0.35442-0.93340
   1 -11  -8 3757.20  412.87   1 0.26829-0.07229 0.25251-0.93338-0.92965 0.35152
  -1  11   8 3410.83  708.86   1 0.40572-0.59994-0.04581 0.72655 0.91284-0.33494
   1 -11  -7 1991.28  325.10   1 0.48914-0.31476-0.75233 0.05271 0.44127-0.94770
   1 -11  -7 2204.37  296.93   1 0.32285-0.14720 0.19458-0.89533-0.92622 0.42036
  -1  11   7 2038.85  326.53   1 0.41844-0.59223 0.00272 0.69798 0.90823-0.40257
   1 -11  -6 5872.64  625.11   1 0.42420-0.27021-0.73528 0.01567 0.52859-0.96267
   1 -11  -6 6120.54  562.12   1 0.38373-0.22843 0.12565-0.84629-0.91485 0.48126
  -1  11   6 6606.44  628.13   1 0.43147-0.58511 0.05708 0.66310 0.90031-0.46683
   1 -11  -543824.39 1786.87   1 0.44822-0.31388 0.04682-0.78695-0.89269 0.53120
  -1  11   547159.87 1891.80   1-0.35061 0.21595 0.70634 0.03436-0.61493 0.97579
  -1  11   543573.37 3227.95   1 0.44416-0.57738 0.11667 0.62354 0.88831-0.52708
   1 -11  -4  738.23  111.62   1 0.51356-0.39955-0.04047-0.71961-0.85709 0.56790
  -1  11   4  585.93  121.93   1-0.26838 0.15436 0.66715 0.09351-0.69488 0.98357
  -1  11   4  536.86  102.57   1 0.45581-0.56861 0.17967 0.58056 0.87175-0.58276
   1 -11  -4  585.94  104.77   1 0.11304-0.00062-0.69617-0.06440 0.70891-0.99792
   1 -11  -3 6964.20  639.94   1 0.57509-0.48196-0.13217-0.64743-0.80734 0.59037
  -1  11   3 7668.66  458.59   1-0.18012 0.08674 0.61688 0.16374-0.76616 0.98268
  -1  11   3 7216.06  677.39   1 0.46584-0.55823 0.24464 0.53561 0.85037-0.63363
   1 -11  -3 6261.09  770.63   1 0.16357-0.07170-0.61969-0.16087 0.76760-0.98436
   1 -11  -2 3387.95  428.92   1 0.62969-0.55692-0.22435-0.57525-0.74374 0.59909
  -1  11   2 3129.41  540.68   1-0.08693 0.01331 0.55749 0.24249-0.82561 0.97006
  -1  11   2 3633.22  473.04   1 0.47401-0.54606 0.31021 0.48995 0.82406-0.67952
   1 -11  -2 3230.51  441.61   1 0.20733-0.13601-0.54470-0.25585 0.81259-0.95709
   1 -11  -110004.36  741.01   1 0.67442-0.62229-0.31263-0.50680-0.66889 0.59656
  -1  11   110414.46  705.17   1 0.00221-0.05539 0.49168 0.32816-0.87077 0.94299
  -1  11   1 9060.57 1131.91   1 0.47967-0.53132 0.37524 0.44497 0.79316-0.72089
   1 -11  -1 9288.62  660.48   1 0.24421-0.19344-0.47438-0.34615 0.84576-0.91801
   1 -11   0   85.47   60.59   1 0.70778-0.67602-0.39354-0.44589-0.58665 0.58665
  -1  11   0   88.22   62.24   1 0.08563-0.11876 0.42390 0.41583-0.90165 0.90165
  -1  11   0  129.83   57.38   1 0.48285-0.51409 0.43866 0.40160 0.75790-0.75790
   1 -11   0   71.09   58.24   1 0.27440-0.24378-0.41081-0.42969 0.86944-0.86944
   1 -11   137887.86 4402.84   1 0.73029-0.71937-0.46561-0.39379-0.49987 0.57221
  -1  11  -136487.44 3551.68   1 0.15999-0.17276 0.35798 0.50161-0.91991 0.84766
  -1  11  -136368.00 3321.23   1 0.48347-0.49431 0.49972 0.36059 0.71869-0.79096
   1 -11   134260.86 4387.03   1 0.29883-0.28871-0.35540-0.50503 0.88565-0.81337
   1 -11   2   65.42   69.19   1 0.74247-0.75192-0.52755-0.35185-0.41281 0.55749
  -1  11  -2  210.12   87.76   1 0.22379-0.21628 0.29733 0.58234-0.92817 0.78364
  -1  11  -2  195.62   78.01   1 0.48181-0.47271 0.55796 0.32198 0.67566-0.82028
   1 -11   2  129.20   91.75   1 0.31808-0.32846-0.30868-0.57168 0.89640-0.75185
   1 -10  -916671.16 2244.88   1 0.59755-0.37762-0.75928 0.17610 0.25770-0.90905
   1 -10  -914958.80 2725.69   1 0.14021 0.08053 0.37601-0.96069-0.91594 0.26565
  -1  10   914789.48 2682.91   1 0.36339-0.58257-0.18467 0.76904 0.91314-0.26300
   1 -10  -812684.18 1228.86   1 0.55087-0.35136-0.76041 0.15722 0.34395-0.92294
   1 -10  -813777.28 1488.84   1 0.18617 0.01421 0.33353-0.93807-0.92417 0.34613
  -1  10   812946.43 1635.92   1 0.37810-0.57686-0.13962 0.74396 0.91517-0.33727
   1 -10  -718062.41 1621.51   1 0.49446-0.31562-0.75337 0.13007 0.43349-0.93992
   1 -10  -719020.04 1538.25   1 0.24179-0.06181 0.27945-0.90385-0.92921 0.42335
  -1  10   719117.40 1360.40   1 0.39439-0.57271-0.08598 0.71028 0.91491-0.40924
   1 -10  -664987.51 5029.38   1 0.42743-0.26897-0.73629 0.09300 0.52456-0.95864
   1 -10  -669261.19 5444.52   1 0.30628-0.14665 0.21254-0.85682-0.92790 0.49431
  -1  10   671556.96 1418.89   1 0.41134-0.56924-0.02486 0.66913 0.91113-0.47771
   1 -10  -5 6941.70  525.18   1 0.37764-0.23836 0.13277-0.79692-0.91638 0.55505
  -1  10   5 6376.25 1029.38   1-0.34978 0.21063 0.70599-0.04169-0.61581 0.97667
  -1  10   5 7571.33 1043.50   1 0.42802-0.56549 0.04223 0.62200 0.90277-0.54159
   1 -10  -421230.12 1169.15   1 0.45212-0.33373 0.04185-0.72558-0.89097 0.60178
  -1  10   418499.77 2169.94   1-0.26169 0.14319 0.66363 0.02062-0.70079 0.98948
  -1  10   422023.52 1626.84   1 0.44351-0.56083 0.11342 0.57041 0.88905-0.60007
   1 -10  -418986.30 1777.92   1 0.11469 0.00231-0.69383 0.00966 0.71094-0.99995
   1 -10  -317345.95  809.87   1 0.52538-0.42733-0.05723-0.64645-0.84894 0.63204
  -1  10   317828.54 1144.26   1-0.16360 0.06516 0.60834 0.09546-0.77662 0.99329
  -1  10   318948.90 1590.50   1 0.45706-0.55396 0.18714 0.51672 0.86951-0.65278
   1 -10  -316416.53 1512.71   1 0.17110-0.07464-0.60740-0.09675 0.77574-0.99250
   1 -10  -2  135.35   41.34   1 0.59178-0.51459-0.15902-0.56425-0.79025 0.64560
  -1  10   2  194.39   39.29   1-0.06363-0.01435 0.54098 0.18267-0.83862 0.98306
  -1  10   2  140.40   38.38   1 0.46808-0.54456 0.26136 0.46252 0.84414-0.69965
   1 -10  -2  117.65   54.37   1 0.21968-0.14378-0.52191-0.20222 0.82422-0.96872
   1 -10  -113032.08  756.35   1 0.64766-0.59083-0.25805-0.48522-0.71689 0.64457
  -1  10   112787.70  918.37   1 0.03471-0.09254 0.46613 0.27740-0.88403 0.95628
  -1  10   111830.17  683.65   1 0.47639-0.53254 0.33450 0.40932 0.81310-0.74084
   1 -10  -111062.33 1949.25   1 0.26002-0.20434-0.44162-0.30255 0.85869-0.93096
   1 -10   013931.54 1569.72   1 0.69066-0.65445-0.34965-0.41347-0.63303 0.63303
  -1  10   015857.20 1004.00   1 0.12594-0.16341 0.38880 0.37459-0.91267 0.91267
  -1  10   014612.26  976.55   1 0.48148-0.51722 0.40530 0.35857 0.77711-0.77711
   1 -10   014421.08 1202.71   1 0.29284-0.25766-0.36938-0.39472 0.88193-0.88193
   1 -10   112008.75 1003.17   1 0.72027-0.70444-0.43071-0.35240-0.54376 0.61609
  -1  10  -111762.38  814.24   1 0.20642-0.22352 0.31417 0.46908-0.92665 0.85439
  -1  10  -110850.27  808.75   1 0.48351-0.49884 0.47281 0.31111 0.73665-0.80892
   1 -10   110499.77 1237.57   1 0.31881-0.30414-0.30685-0.47718 0.89677-0.82449
   1 -10   211467.92 1915.98   1 0.73810-0.74305-0.50063-0.30245-0.45229 0.59697
  -1  10  -211892.52 1560.77   1 0.27426-0.27107 0.24633 0.55698-0.92956 0.78503
  -1  10  -213073.92 1173.84   1 0.48283-0.47819 0.53658 0.26701 0.69206-0.83667
   1 -10   212598.52 1363.13   1 0.33892-0.34475-0.25461-0.54934 0.90570-0.76115
   1 -10   3 6410.89  647.78   1 0.74552-0.77086-0.55913-0.26395-0.36271 0.57974
  -1  10  -3 5321.36  707.10   1 0.32943-0.30589 0.18735 0.63585-0.92540 0.70860
  -1  10  -3 5565.55  415.25   1 0.47906-0.45405 0.59595 0.22769 0.64446-0.86138
   1 -10   3 6022.11  628.78   1 0.35412-0.38045-0.21253-0.61135 0.91072-0.69390
   1 -10   4 4545.01  626.51   1 0.74480-0.79063-0.60761-0.23538-0.27581 0.56523
  -1  10  -4 4559.80  417.47   1 0.37292-0.32903 0.13824 0.70484-0.91750 0.62844
  -1  10  -4 4011.62  861.12   1 0.47266-0.42728 0.65087 0.19281 0.59408-0.88331
   1 -10   4 4249.22  557.00   1 0.36495-0.41132-0.18003-0.66393 0.91345-0.62450
   1  -9 -1032606.39 4324.08   1 0.64442-0.39989-0.74885 0.26204 0.15469-0.87830
   1  -9 -1036778.85 1343.14   1 0.02481 0.22107 0.47387-0.96237-0.88024 0.15800
  -1   9  1036383.46  981.93   1 0.30443-0.54848 0.95211-0.46512 0.02824 0.69485
  -1   9  1039425.75 1138.79   1 0.31151-0.55627-0.32497 0.81338 0.89294-0.17020
   1  -9  -913835.96 1436.45   1 0.60744-0.38306-0.75800 0.25114 0.23756-0.88892
   1  -9  -915075.97 2245.29   1 0.05772 0.16736 0.44733-0.95567-0.89250 0.24221
  -1   9   914289.27 1712.43   1 0.32610-0.55036-0.28833 0.79667 0.90028-0.24982
   1  -9  -8 9204.93  861.49   1 0.56171-0.35775-0.76079 0.23393 0.32505-0.90404
   1  -9  -8 8928.70 1378.96   1 0.10096 0.10375 0.41072-0.93892-0.90615 0.32811
  -1   9   8 9295.87 1069.33   1 0.34401-0.54776-0.24080 0.76906 0.90756-0.32937
   1  -9  -7 8193.82  738.35   1 0.50558-0.32203-0.75538 0.20851 0.41686-0.92347
   1  -9  -7 8380.84 1298.39   1 0.15553 0.02882 0.36208-0.91013-0.91907 0.41329
  -1   9   7 8532.44  591.03   1 0.36375-0.54662-0.18360 0.73150 0.91321-0.40755
   1  -9  -6 2116.96  243.49   1 0.43737-0.27446-0.73933 0.17236 0.51194-0.94602
   1  -9  -6 2249.69  236.28   1 0.22165-0.05765 0.29933-0.86725-0.92804 0.49451
  -1   9   6 2365.99  225.41   1 0.38548-0.54792-0.11584 0.68371 0.91541-0.48198
   1  -9  -552378.77 3809.96   1 0.29824-0.15464 0.22113-0.80893-0.92851 0.56718
  -1   9   553060.50 2726.08   1-0.35643 0.21279 0.70880-0.12092-0.60872 0.96958
  -1   9   553178.51 1141.66   1 0.40724-0.54926-0.04021 0.62804 0.91243-0.55124
   1  -9  -448022.96 3475.01   1 0.38192-0.25867 0.12777-0.73545-0.91531 0.62625
  -1   9   442290.68 3912.94   1-0.26271 0.13971 0.66417-0.05632-0.69989 0.98858
  -1   9   448251.85 1666.81   1 0.42774-0.54933 0.04104 0.56676 0.90296-0.61401
   1  -9  -443966.93 4064.60   1 0.11132 0.01026-0.69859 0.09083 0.70680-0.99581
   1  -9  -328829.18 2698.09   1 0.46719-0.36477 0.02234-0.64967-0.88387 0.66697
  -1   9   327938.21 2691.63   1-0.15644 0.05363 0.60382 0.02363-0.78161 0.99828
  -1   9   330375.86 1176.65   1 0.44586-0.54727 0.12528 0.50218 0.88628-0.66954
   1  -9  -328165.64 2220.81   1 0.17520-0.07416-0.60059-0.02714 0.78012-0.99687
  -1   9   212069.87  841.05   1-0.04621-0.03615 0.52831 0.11900-0.84778 0.99223
  -1   9   212611.68 1096.13   1 0.46077-0.54176 0.21014 0.43735 0.86228-0.71778
   1  -9  -211403.43 1378.05   1 0.22997-0.14948-0.50235-0.14537 0.83351-0.97801
  -1   9   1 7631.05  637.80   1 0.06282-0.12499 0.44310 0.22409-0.89426 0.96651
  -1   9   1 7719.32  554.54   1 0.47216-0.53280 0.29328 0.37415 0.83129-0.75902
   1  -9  -1 7163.39  678.11   1 0.27484-0.21461-0.40985-0.25791 0.86975-0.94203
   1  -9   0 1832.35  205.74   1 0.67083-0.63017-0.30489-0.38191-0.67603 0.67603
  -1   9   0 1641.22  194.66   1 0.16349-0.20530 0.35474 0.33230-0.92055 0.92055
  -1   9   0 1711.80  176.01   1 0.47951-0.51976 0.37299 0.31450 0.79431-0.79431
   1  -9   0 1712.18  211.64   1 0.31066-0.27093-0.32704-0.36064 0.89248-0.89248
   1  -9   1 2895.96  278.42   1 0.70892-0.68863-0.39671-0.31009-0.58313 0.65545
  -1   9  -1 2554.19  224.88   1 0.25099-0.27248 0.27019 0.43689-0.92951 0.85724
  -1   9  -1 2673.41  210.38   1 0.48310-0.50294 0.44810 0.25943 0.75219-0.82446
   1  -9   1 2623.29  312.13   1 0.33837-0.31915-0.25608-0.45153 0.90549-0.83322
   1  -9   223826.25 2310.42   1 0.73266-0.73313-0.47524-0.25153-0.48717 0.63186
  -1   9  -222597.63 2187.59   1 0.32318-0.32432 0.19422 0.53275-0.92619 0.78165
  -1   9  -224709.49 2666.78   1 0.48315-0.48258 0.51798 0.20960 0.70586-0.85039
   1  -9   222053.29 2719.11   1 0.35902-0.36000-0.19751-0.53010 0.91218-0.76771
   1  -9   3 2508.69  436.38   1 0.74399-0.76483-0.54025-0.20652-0.39319 0.61022
  -1   9  -3 2530.80  317.64   1 0.38041-0.36119 0.12954 0.61731-0.91569 0.69890
  -1   9  -3 2445.15  320.73   1 0.48018-0.45963 0.58256 0.16472 0.65577-0.87269
   1  -9   3 2203.39  335.87   1 0.37447-0.39587-0.15103-0.59655 0.91485-0.69814
   1  -9   4 8836.76  633.71   1 0.74577-0.78699-0.59343-0.17333-0.30274 0.59211
  -1   9  -4 8103.52  865.20   1 0.42431-0.38439 0.07681 0.69021-0.90225 0.61306
  -1   9  -4 8396.73  661.70   1 0.47400-0.43307 0.64138 0.12595 0.60328-0.89251
   1  -9   4 8255.87  977.56   1 0.38553-0.42736-0.11570-0.65184 0.91541-0.62646
   1  -9   5 1741.68  220.80   1 0.74019-0.80192-0.63658-0.15010-0.21649 0.57825
  -1   9  -5 1569.09  256.71   1 0.45699-0.39673 0.03559 0.75138-0.88875 0.52726
  -1   9  -5 1552.64  191.31   1 0.46513-0.40384 0.69476 0.09262 0.54859-0.91012
   1  -9   5 1461.89  256.34   1 0.39308-0.45534-0.09045-0.69707 0.91504-0.55385
   1  -9   612336.68 1682.03   1 0.72886-0.81098-0.67120-0.13547-0.13505 0.56916
  -1   9  -611913.40 1712.04   1 0.48056-0.39998 0.00467 0.80226-0.87694 0.44315
  -1   9  -612398.39 1344.85   1 0.45399-0.37243 0.74293 0.06455 0.49186-0.92580
   1  -9   611769.01 1511.72   1 0.39779-0.48048-0.07419-0.73330 0.91447-0.48104
   1  -8 -10  -29.69  100.07   1 0.65554-0.40654-0.74443 0.33393 0.12680-0.85041
   1  -8 -10   47.09   59.62   1-0.05261 0.30286 0.53300-0.94515-0.84447 0.12224
  -1   8  10   57.86   41.77   1 0.33493-0.58359 0.93642-0.52586 0.10457 0.61878
  -1   8  10   72.72   46.61   1 0.26282-0.51213-0.43572 0.84772 0.86085-0.13811
   1  -8  -931272.10 3229.47   1 0.62071-0.39187-0.75557 0.32503 0.20933-0.86068
   1  -8  -932135.32 2200.12   1-0.02472 0.25454 0.51232-0.94433-0.85843 0.20842
  -1   8   933592.00 1080.57   1 0.28045-0.50862 0.95943-0.52878-0.02868 0.67947
  -1   8   935280.73 1185.58   1 0.27922-0.50803-0.40020 0.83213 0.87285-0.22238
   1  -8  -8 1125.42  166.97   1 0.57697-0.36855-0.76071 0.31016 0.29735-0.87633
   1  -8  -8 1290.31  165.16   1 0.01396 0.19541 0.48248-0.93434-0.87579 0.29800
  -1   8   8  769.48  245.01   1 0.30024-0.50855-0.35208 0.80394 0.88650-0.30831
   1  -8  -7  448.07   86.88   1 0.52230-0.33429-0.75783 0.28728 0.39100-0.89761
   1  -8  -7  377.27   67.04   1 0.06525 0.12343 0.44108-0.91279-0.89509 0.38931
  -1   8   7  216.31   40.82   1 0.32507-0.51288-0.29097 0.76275 0.89980-0.39389
   1  -8  -613956.80 1507.34   1 0.45436-0.28698-0.74413 0.25348 0.48970-0.92378
   1  -8  -614573.87 1122.49   1 0.13048 0.03784 0.38475-0.87632-0.91374 0.48022
  -1   8   616207.21 1294.39   1 0.35244-0.51974-0.21730 0.70902 0.91025-0.47660
   1  -8  -538250.46 2206.65   1 0.20987-0.06191 0.31082-0.82226-0.92700 0.56573
  -1   8   535893.60 2733.71   1-0.37135 0.22323 0.71492-0.20345-0.59243 0.95329
  -1   8   541526.08 3209.41   1 0.38011-0.52666-0.13323 0.64466 0.91529-0.55410
   1  -8  -4 4770.48  304.82   1 0.30138-0.17380 0.21778-0.74911-0.92829 0.63923
  -1   8   4 4564.41  499.39   1-0.27268 0.14520 0.66939-0.13796-0.69104 0.97973
  -1   8   4 6308.23  756.23   1 0.40723-0.53336-0.04026 0.57165 0.91243-0.62348
   1  -8  -393075.11 2414.27   1 0.39921-0.29242 0.10729-0.65827-0.91055 0.69366
  -1   8   395431.01 2410.93   1-0.15790 0.05072 0.60475-0.05362-0.78060 0.99727
  -1   8   394994.30 2350.18   1 0.43149-0.53741 0.05718 0.49389 0.90030-0.68356
   1  -8  -395915.03 2433.37   1 0.17471-0.06908-0.60141 0.05008 0.77959-0.99635
   1  -8  -2 6897.90  441.71   1 0.49540-0.40894-0.01533-0.55559-0.86852 0.72392
  -1   8   2 7002.85  600.35   1-0.03589-0.05083 0.52068 0.05029-0.85299 0.99743
  -1   8   2 7352.66  566.60   1 0.45157-0.53707 0.15555 0.41555 0.87857-0.73407
   1  -8  -2 5937.49  684.77   1 0.23765-0.15258-0.48739-0.08392 0.84021-0.98472
   1  -8  -1 1041.72  104.56   1 0.58041-0.51472-0.14061-0.45000-0.80208 0.72976
  -1   8   1  906.88  124.78   1 0.08604-0.15254 0.42355 0.16731-0.90177 0.97403
  -1   8   1 1042.19   84.60   1 0.46675-0.53183 0.25131 0.33980 0.84792-0.77567
   1  -8  -1  926.02  125.43   1 0.28844-0.22365-0.37948-0.21187 0.87908-0.95136
   1  -8   0 9861.46  598.97   1 0.64809-0.60276-0.25888-0.35173-0.71620 0.71620
  -1   8   0 9560.79  904.11   1 0.19821-0.24434 0.32207 0.28864-0.92573 0.92573
  -1   8   0 9681.92  684.96   1 0.47708-0.52182 0.34211 0.26898 0.80953-0.80953
   1  -8   010235.94 1211.39   1 0.32798-0.28370-0.28348-0.32779 0.90114-0.90114
   1  -8   1  978.39   80.05   1 0.69633-0.67159-0.36354-0.26695-0.61883 0.69115
  -1   8  -1  905.51   99.60   1 0.29399-0.31981 0.22565 0.40507-0.92878 0.85652
  -1   8  -1  874.43   84.82   1 0.48242-0.50676 0.42639 0.20476 0.76514-0.83741
   1  -8   1  780.65   89.65   1 0.35738-0.33339-0.20228-0.42895 0.91178-0.83954
   1  -8   224383.12 1990.42   1 0.72642-0.72205-0.45164-0.19884-0.51799 0.66264
  -1   8  -221314.29 1786.11   1 0.37091-0.37637 0.14057 0.51003-0.91796 0.77343
  -1   8  -223178.62 1620.66   1 0.48343-0.48735 0.50350 0.14770 0.71608-0.86061
   1  -8   220746.31 2648.59   1 0.37908-0.37552-0.13651-0.51469 0.91523-0.77076
   1  -8   322277.40 2046.95   1 0.74199-0.75834-0.52401-0.14645-0.41816 0.63519
  -1   8  -321214.80 1831.50   1 0.42999-0.41478 0.06976 0.60094-0.90012 0.68323
  -1   8  -321842.42 1742.30   1 0.48084-0.46475 0.57360 0.09733 0.66315-0.88007
   1  -8   320472.32 2254.40   1 0.39458-0.41145-0.08529-0.58587 0.91488-0.69817
   1  -8   4 2100.53  126.49   1 0.74608-0.78281-0.58205-0.10841-0.32336 0.61273
  -1   8  -4 1834.67  163.17   1 0.47375-0.43821 0.01371 0.67695-0.88054 0.59135
  -1   8  -4 1787.46  159.18   1 0.47465-0.43819 0.63643 0.05455 0.60799-0.89722
   1  -8   4 1795.33  180.42   1 0.40535-0.44264-0.04717-0.64397 0.91294-0.62399
   1  -8   522415.17 1135.45   1 0.74186-0.79910-0.62845-0.08193-0.23382 0.59558
  -1   8  -520462.99 2109.19   1 0.50533-0.44945-0.02899 0.73962-0.86243 0.50094
  -1   8  -520925.43 1822.41   1 0.46556-0.40873 0.69262 0.01840 0.55093-0.91246
   1  -8   520159.40 2592.83   1 0.41248-0.47020-0.02053-0.69058 0.91073-0.54954
   1  -8   6 1045.43  219.58   1 0.73137-0.80900-0.66525-0.06512-0.15007 0.58418
  -1   8  -6  684.71  105.36   1 0.52741-0.45120-0.06016 0.79074-0.84747 0.41368
  -1   8  -6 1002.63  259.61   1 0.45407-0.37696 0.74266-0.01152 0.49221-0.92615
   1  -8   6  675.61  104.48   1 0.41678-0.49493-0.00384-0.72723 0.90899-0.47557
   1  -8   7 7089.88  872.78   1 0.71614-0.81416-0.69428-0.05609-0.07145 0.57792
  -1   8  -7 6984.58  769.02   1 0.54211-0.44556-0.08156 0.83211-0.83633 0.33025
  -1   8  -7 7428.61  654.36   1 0.44011-0.34264 0.78691-0.03572 0.43251-0.93878
   1  -8   7 7273.62  988.07   1 0.41881-0.51738 0.00418-0.75523 0.90806-0.40239
   1  -7 -11 3972.64  401.92   1 0.69346-0.41957-0.72031 0.40612 0.01582-0.81180
  -1   7  11 4086.66  556.89   1 0.40478-0.67828 0.86178-0.54762 0.30574 0.48994
  -1   7  11 1883.28 1146.66   1 0.19408-0.46869-0.56832 0.88334 0.79958-0.00481
   1  -7 -1024175.18 2628.91   1 0.66864-0.41516-0.73790 0.40371 0.09164-0.81525
   1  -7 -1022677.83 2678.59   1-0.12735 0.38198 0.58498-0.92080-0.80098 0.07874
  -1   7  1024344.64 2603.77   1 0.36676-0.61988 0.91053-0.57633 0.19083 0.53251
  -1   7  1025365.59 1137.48   1 0.20489-0.45895-0.54910 0.88411 0.81024-0.08772
   1  -7  -9  519.05   83.73   1 0.63680-0.40373-0.75138 0.39719 0.17290-0.82415
   1  -7  -9  407.28   87.35   1-0.10553 0.33972 0.57033-0.92601-0.81460 0.16459
  -1   7   9  465.19  113.53   1 0.31819-0.55085 0.94598-0.59168 0.06217 0.58861
  -1   7   9  562.72  134.44   1 0.22193-0.45544-0.51769 0.87269 0.82627-0.17600
   1  -7  -894969.45 2890.98   1 0.59615-0.38327-0.75943 0.38521 0.26048-0.83946
   1  -7  -893066.32 2814.38   1-0.07304 0.28679 0.54771-0.92324-0.83347 0.25568
  -1   7   899330.67 2757.25   1 0.24525-0.45821-0.47230 0.84728 0.84663-0.26861
   1  -7  -7  549.18   87.64   1 0.54438-0.35192-0.76002 0.36579 0.35498-0.86159
   1  -7  -7  510.47   70.07   1-0.02746 0.22077 0.51437-0.90976-0.85712 0.35156
  -1   7   7  624.20   97.65   1 0.27438-0.46674-0.41085 0.80623 0.86942-0.36350
   1  -7  -6 3826.95  416.06   1 0.47848-0.30664-0.75007 0.33573 0.45656-0.89064
   1  -7  -6 4311.32  278.66   1 0.03382 0.13883 0.46685-0.88208-0.88368 0.45016
  -1   7   6 3785.13  567.51   1 0.30808-0.47993-0.33332 0.74862 0.89105-0.45741
   1  -7  -520575.64 1443.80   1 0.11282 0.03947 0.40038-0.83547-0.90937 0.54810
  -1   7   517157.18 1619.26   1-0.39529 0.24268 0.72408-0.28902-0.56518 0.92604
  -1   7   518346.27 1371.41   1 0.34432-0.49566-0.23994 0.67518 0.90767-0.54630
   1  -7  -470770.48 1895.65   1 0.20947-0.07754 0.31121-0.76616-0.92696 0.63794
  -1   7   474472.71 1967.56   1-0.29310 0.16113 0.67976-0.22474-0.67231 0.96100
  -1   7   471774.53 3140.16   1 0.37981-0.51048-0.13418 0.58916 0.91527-0.62632
   1  -7  -3  974.55   81.87   1 0.31961-0.20806 0.19811-0.67296-0.92660 0.70980
  -1   7   3  879.66   94.99   1-0.17168 0.06035 0.61167-0.13668-0.77225 0.98877
  -1   7   3  917.06   87.36   1 0.41261-0.52285-0.02004 0.49500 0.91068-0.69397
   1  -7  -3 1173.23  155.93   1 0.16759-0.05738-0.61315 0.13823 0.77197-0.98873
   1  -7  -2210100.5 4663.97   1 0.43333-0.34250 0.06560-0.56018-0.89883 0.75424
  -1   7   2203762.2 4646.64   1-0.03458-0.05651 0.51971-0.02506-0.85364 0.99808
  -1   7   2205798.0 4531.38   1 0.43992-0.52993 0.09589 0.39881 0.89290-0.74840
   1  -7  -2211251.5 4685.80   1 0.24178-0.15212-0.47922-0.01568 0.84373-0.98823
   1  -7  -1128040.3 3014.09   1 0.53798-0.46748-0.07549-0.43903-0.83956 0.76726
  -1   7   1128925.5 3025.01   1 0.10322-0.17406 0.40876 0.10575-0.90678 0.97903
  -1   7   1133293.5 3077.90   1 0.46048-0.53007 0.20828 0.30644 0.86288-0.79064
   1  -7  -1129827.5 3086.28   1 0.30062-0.23128-0.35119-0.16375 0.88673-0.95900
   1  -7   0 4314.87  302.09   1 0.62254-0.57278-0.21148-0.32280-0.75346 0.75346
  -1   7   0 4114.94  422.03   1 0.22986-0.28036 0.29135 0.24314-0.92858 0.92858
  -1   7   0 4299.99  285.27   1 0.47433-0.52357 0.31330 0.22140 0.82270-0.82270
   1  -7   0 3593.20  421.04   1 0.34496-0.29613-0.23817-0.29670 0.90789-0.90789
   1  -7   151006.30 3161.22   1 0.68291-0.65371-0.33154-0.22263-0.65092 0.72324
  -1   7  -144941.06 1087.25   1 0.33568-0.36582 0.18045 0.37392-0.92452 0.85226
  -1   7  -147377.17  992.96   1 0.48166-0.51049 0.40884 0.14591 0.77514-0.84740
   1  -7   146565.49 1075.15   1 0.37660-0.34807-0.14434-0.41048 0.91505-0.84281
   1  -7   266938.22 4672.38   1 0.72041-0.71158-0.43115-0.14302-0.54323 0.68788
  -1   7  -253471.58 4898.40   1 0.41790-0.42739 0.08468 0.48971-0.90453 0.75993
  -1   7  -261348.76 1640.81   1 0.48352-0.49195 0.49436 0.08045 0.72236-0.86689
   1  -7   261191.50 1718.72   1 0.39893-0.39083-0.07018-0.50461 0.91428-0.76981
   1  -7   319436.20 1137.64   1 0.74000-0.75186-0.51124-0.08291-0.43705 0.65408
  -1   7  -318635.87 1746.81   1 0.47831-0.46748 0.00767 0.58668-0.87815 0.66125
  -1   7  -318237.76 1490.34   1 0.48105-0.46943 0.57044 0.02414 0.66571-0.88263
   1  -7   317012.33 1650.16   1 0.41419-0.42651-0.01397-0.58079 0.91008-0.69336
   1  -7   4153454.5 4607.61   1 0.74606-0.77830-0.57415-0.04000-0.33724 0.62661
  -1   7  -4149605.2 4484.70   1 0.52131-0.49014-0.05142 0.66574-0.85181 0.56262
  -1   7  -4148830.5 4399.58   1 0.47454-0.44255 0.63724-0.02260 0.60722-0.89645
   1  -7   4146662.3 4447.58   1 0.42433-0.45709 0.02667-0.64141 0.90511-0.61616
   1  -7   592129.57 5869.86   1 0.74273-0.79547-0.62349-0.01059-0.24413 0.60589
  -1   7  -588597.38 2694.32   1 0.55121-0.49916-0.09542 0.72972-0.82888 0.46727
  -1   7  -591312.11 2699.70   1 0.46491-0.41254 0.69589-0.06121 0.54734-0.90887
   1  -7   586674.96 2705.95   1 0.43082-0.48373 0.05422-0.68910 0.90080-0.53957
   1  -7   6 1391.32  350.05   1 0.73263-0.80576-0.66201 0.00793-0.15806 0.59218
  -1   7  -6 1543.14  404.98   1 0.57121-0.49879-0.12607 0.78037-0.81106 0.37712
  -1   7  -6 1297.93  329.68   1 0.45278-0.38014 0.74729-0.09251 0.48634-0.92029
   1  -7   6 1194.45  310.72   1 0.43450-0.50783 0.07064-0.72555 0.89789-0.46441
   1  -7   718903.86 1916.93   1 0.71763-0.81114-0.69203 0.01796-0.07809 0.58456
  -1   7  -717907.52 1507.08   1 0.58394-0.49116-0.14628 0.82057-0.79850 0.29224
  -1   7  -718487.36 1613.92   1 0.43819-0.34518 0.79210-0.11727 0.42491-0.93117
   1  -7   717445.28 2004.04   1 0.43606-0.52980 0.07777-0.75270 0.89654-0.39082
   1  -7   8 4432.89  656.19   1 0.69895-0.81287-0.71515 0.02099-0.00317 0.58206
  -1   7  -8 4126.33  726.26   1 0.59116-0.47801-0.15799 0.85229-0.79092 0.21234
  -1   7  -8 4405.61  570.89   1 0.42155-0.30817 0.83099-0.13612 0.36295-0.94154
   1  -7   8 4640.82  644.38   1 0.43588-0.55005 0.07696-0.77191 0.89670-0.31873
   1  -6 -11 1638.08  237.78   1 0.70459-0.42623-0.70920 0.47132-0.02384-0.77212
   1  -6 -11 1429.82  228.39   1-0.20671 0.48767 0.63286-0.87171-0.74615-0.04773
  -1   6  11 1700.51  298.22   1 0.42845-0.70651 0.81608-0.57844 0.38784 0.40771
  -1   6  11 1208.33  380.79   1 0.13014-0.40933-0.67143 0.91004 0.72954 0.06523
   1  -6 -10  114.35   67.44   1 0.68303-0.42507-0.72870 0.47082 0.04945-0.77306
   1  -6 -10  241.50   49.13   1-0.19958 0.45990 0.62864-0.88746-0.75164 0.02992
  -1   6  10   54.80   38.80   1 0.39812-0.65572 0.87212-0.61429 0.28441 0.43894
  -1   6  10  104.30   41.66   1 0.13843-0.39707-0.65903 0.91763 0.73926-0.01674
   1  -6  -932961.94 3529.74   1 0.65492-0.41737-0.74470 0.46682 0.12840-0.77965
   1  -6  -933586.57 2420.84   1-0.18460 0.42427 0.61962-0.89841-0.76287 0.11333
  -1   6   935995.20 1258.69   1 0.35799-0.59522 0.91878-0.64092 0.16632 0.48469
  -1   6   935731.48 1307.46   1 0.15386-0.39195-0.63520 0.91378 0.75686-0.10659
   1  -6  -823359.06 2262.45   1 0.61846-0.40112-0.75604 0.45814 0.21423-0.79322
   1  -6  -823672.84 2160.80   1-0.15812 0.37624 0.60489-0.90408-0.78044 0.20266
  -1   6   824440.02  673.07   1 0.30553-0.52231 0.95168-0.65371 0.03090 0.54757
  -1   6   824944.29  751.33   1 0.17722-0.39477-0.59722 0.89579 0.78225-0.20423
   1  -6  -7 7490.50  932.86   1 0.57113-0.37422-0.76083 0.44292 0.30811-0.81472
   1  -6  -7 8962.78  570.42   1-0.12038 0.31806 0.58035-0.89940-0.80541 0.29985
  -1   6   7 7104.42 1260.38   1 0.20897-0.40597-0.54171 0.86027 0.81417-0.30840
   1  -6  -610148.92 1421.32   1 0.50949-0.33299-0.75601 0.41810 0.41092-0.84516
   1  -6  -612523.05  702.19   1-0.06632 0.24356 0.54291-0.88181-0.83716 0.40382
  -1   6   610391.43 1537.30   1 0.24870-0.42514-0.46533 0.80387 0.84947-0.41596
   1  -6  -5 2541.13  295.32   1 0.42906-0.27316-0.73680 0.37881 0.52250-0.88424
   1  -6  -5 2815.91  187.48   1 0.00802 0.14877 0.48715-0.84590-0.87328 0.51216
  -1   6   5 2689.51  444.23   1 0.29429-0.45019-0.36601 0.72483 0.88284-0.52147
   1  -6  -418534.64 1448.77   1 0.10568 0.03057 0.40662-0.78523-0.90746 0.61844
  -1   6   415349.85 1366.67   1-0.32554 0.18907 0.69524-0.31663-0.64082 0.92951
  -1   6   416949.95  905.48   1 0.34210-0.47749-0.24601 0.62476 0.90688-0.61778
   1  -6  -3327491.3 4970.88   1 0.22559-0.10970 0.29556-0.69406-0.92830 0.71150
  -1   6   3332241.7 5013.92   1-0.19696 0.08114 0.62708-0.22850-0.75363 0.97015
  -1   6   3328262.8 4854.86   1 0.38676-0.50154-0.11164 0.51019 0.91539-0.69868
   1  -6  -3328854.3 4936.54   1 0.15022-0.03542-0.64091 0.24240 0.75277-0.96952
   1  -6  -2116072.9 2085.87   1 0.35848-0.26295 0.15482-0.57320-0.92060 0.77607
  -1   6   2117829.2 2112.96   1-0.04522-0.05025 0.52759-0.10927-0.84829 0.99274
  -1   6   2116951.6 2029.53   1 0.42470-0.51905 0.02820 0.39031 0.90489-0.76041
   1  -6  -2117666.1 2081.63   1 0.24058-0.14633-0.48161 0.06311 0.84271-0.98721
   1  -6  -1 1548.36  175.41   1 0.48713-0.41226-0.00411-0.43405-0.87331 0.80101
  -1   6   1 1251.32  171.55   1 0.11244-0.18761 0.40072 0.03745-0.90927 0.98152
  -1   6   1 1699.31  174.66   1 0.45300-0.52710 0.16352 0.27481 0.87638-0.80413
   1  -6  -1 2002.28  248.60   1 0.31102-0.23713-0.32616-0.11236 0.89268-0.96495
   1  -6   016032.01 1473.27   1 0.59357-0.53938-0.16195-0.29601-0.78831 0.78831
  -1   6   016216.49 1686.06   1 0.25786-0.31269 0.26321 0.19492-0.92963 0.92963
  -1   6   014675.61  793.51   1 0.47131-0.52500 0.28752 0.17083 0.83377-0.83377
   1  -6   016363.66 1839.59   1 0.36154-0.30804-0.19015-0.26829 0.91275-0.91275
   1  -6   1  680.33   63.28   1 0.66913-0.63548-0.30128-0.17659-0.67932 0.75165
  -1   6  -1  593.05   72.32   1 0.37634-0.41082 0.13427 0.34374-0.91669 0.84442
  -1   6  -1  674.55   79.62   1 0.48105-0.51439 0.39738 0.08099 0.78145-0.85372
   1  -6   1 1628.73  218.82   1 0.39603-0.36296-0.08031-0.39810 0.91471-0.84247
   1  -6   2118113.6 2398.67   1 0.71508-0.70180-0.41456-0.08330-0.56283 0.70748
  -1   6  -2120476.9 2430.69   1 0.46430-0.47817 0.02611 0.47193-0.88528 0.74069
  -1   6  -2116452.3 2308.10   1 0.48353-0.49646 0.49267 0.00574 0.72350-0.86803
   1  -6   2116189.8 2382.40   1 0.41866-0.40602 0.00357-0.50196 0.90813-0.76365
   1  -6   3208265.1 4942.25   1 0.73855-0.74592-0.50307-0.01477-0.44883 0.66586
  -1   6  -3215276.9 4857.02   1 0.52557-0.51910-0.05751 0.57551-0.84880 0.63190
  -1   6  -3213650.6 4773.09   1 0.48074-0.47358 0.57502-0.05678 0.66199-0.87891
   1  -6   3208746.9 4740.81   1 0.43323-0.44079 0.06491-0.58334 0.89894-0.68220
   1  -6   4104218.6 2699.28   1 0.74599-0.77374-0.57065 0.03280-0.34327 0.63264
  -1   6  -4100893.7 2611.82   1 0.56701-0.53975-0.11953 0.65750-0.81498 0.52569
  -1   6  -499721.25 2517.68   1 0.47344-0.44591 0.64540-0.10712 0.59941-0.88864
   1  -6   499316.29 2609.56   1 0.44229-0.47027 0.10738-0.64584 0.89041-0.60143
   1  -6   5  537.49   87.58   1 0.74291-0.79115-0.62237 0.06458-0.24643 0.60819
  -1   6  -5  653.84   96.45   1 0.59419-0.54656-0.16297 0.72094-0.78763 0.42602
  -1   6  -5  490.80   86.85   1 0.46284-0.41494 0.70581-0.14748 0.53627-0.89781
   1  -6   5  634.46   89.75   1 0.44770-0.49610 0.13478-0.69327 0.88396-0.52273
   1  -6   639919.11 2754.74   1 0.73265-0.80128-0.66195 0.08417-0.15821 0.59232
  -1   6  -636314.04 4453.46   1 0.61157-0.54358-0.19227 0.77024-0.76747 0.33353
  -1   6  -639440.28 3226.84   1 0.44975-0.38156 0.75771-0.17929 0.47284-0.90678
   1  -6   638491.54 1490.45   1 0.45056-0.51938 0.15006-0.72857 0.88003-0.44656
   1  -6   7  583.44  162.07   1 0.71743-0.80645-0.69233 0.09456-0.07721 0.58368
  -1   6  -7  723.50  197.46   1 0.62202-0.53367-0.21057 0.80854-0.75415 0.24789
  -1   6  -7  615.50  163.01   1 0.43427-0.34571 0.80222-0.20375 0.40968-0.91594
   1  -6   7  637.72  172.74   1 0.45155-0.54079 0.15546-0.75399 0.87859-0.37286
   1  -6   8 9100.59  966.83   1 0.69863-0.80807-0.71547 0.09762-0.00204 0.58092
  -1   6  -8 8870.22  663.57   1 0.62742-0.51871-0.22024 0.83822-0.74687 0.16829
  -1   6  -8 8718.00  912.01   1 0.41686-0.30793 0.84028-0.22177 0.34660-0.92519
   1  -6   8 8425.61 1076.61   1 0.45104-0.56070 0.15266-0.77122 0.87934-0.30137
   1  -6   940689.88 4674.31   1 0.67688-0.80673-0.73294 0.09509 0.06803 0.58321
  -1   6  -936568.63 5445.28   1 0.62895-0.49988-0.22302 0.86099-0.74476 0.09385
  -1   6  -938460.39 4540.95   1 0.39780-0.26841 0.87260-0.23410 0.28340-0.93442
   1  -6   936876.58 5664.33   1 0.44923-0.57931 0.14290-0.78148 0.88190-0.23169
   1  -5 -11 3692.29  393.01   1 0.71566-0.43314-0.69499 0.53340-0.06933-0.72654
   1  -5 -11 3267.41  588.43   1-0.26616 0.55161 0.66599-0.82843-0.69685-0.09703
  -1   5  11 2962.14  753.31   1 0.44902-0.73153 0.76014-0.59886 0.46964 0.32592
   1  -5 -1017030.63 2331.65   1 0.69787-0.43544-0.71621 0.53464 0.00064-0.72425
   1  -5 -1015329.79 2674.63   1-0.26499 0.52980 0.66537-0.84778-0.69789-0.02383
  -1   5  1016944.04 2713.78   1 0.42652-0.68866 0.82042-0.63909 0.38076 0.34247
   1  -5  -910851.37 1240.31   1 0.67411-0.43208-0.73469 0.53313 0.07612-0.72737
   1  -5  -911254.86 1393.55   1-0.25707 0.50124 0.66116-0.86353-0.70481 0.05527
  -1   5   910835.59 1339.88   1 0.39597-0.63767 0.87527-0.67377 0.27765 0.37336
   1  -5  -8  146.13   53.73   1 0.64279-0.42117-0.74943 0.52786 0.15865-0.73753
   1  -5  -8  122.44   57.16   1-0.24045 0.46398 0.65211-0.87445-0.71897 0.14159
  -1   5   8  283.16   47.55   1 0.35451-0.57584 0.92181-0.70027 0.15676 0.42191
   1  -5  -7  533.71   75.43   1 0.60138-0.40001-0.75884 0.51725 0.24998-0.75659
  -1   5   7  415.81   65.36   1 0.29831-0.49921 0.95437-0.71274 0.01344 0.49272
  -1   5   7 2600.43  523.58   1 0.12667-0.32826-0.67654 0.91869 0.72542-0.21965
   1  -5  -6  352.37   52.44   1 0.54620-0.36524-0.76014 0.49855 0.35191-0.78615
   1  -5  -6  436.09   69.27   1-0.16854 0.35078 0.60971-0.87198-0.77449 0.34146
  -1   5   6  353.34   47.09   1 0.16915-0.35019-0.61059 0.87273 0.77366-0.34014
   1  -5  -5 8705.40  979.81   1 0.47179-0.31142-0.74853 0.46685 0.46594-0.82768
   1  -5  -510824.92  884.92   1-0.10206 0.26324 0.56796-0.85038-0.81669 0.45558
  -1   5   5 9179.45  869.48   1 0.22349-0.38397-0.51474 0.79686 0.82770-0.46644
   1  -5  -479030.11 1611.41   1-0.00958 0.15031 0.50079-0.80306-0.86551 0.57661
  -1   5   479185.59 1602.08   1-0.37119 0.23024 0.71485-0.41265-0.59261 0.88130
  -1   5   479776.74 1471.43   1 0.28606-0.42600-0.38489 0.68723 0.87751-0.58841
   1  -5  -3 4846.69  514.49   1 0.11477 0.00546 0.39867-0.72080-0.90988 0.69311
  -1   5   3 4648.38  518.09   1-0.23883 0.11852 0.65121-0.32905-0.72032 0.93684
  -1   5   3 4194.19  239.91   1 0.34931-0.46875-0.22611 0.54838 0.90931-0.69249
   1  -5  -3 3981.26  416.25   1 0.11565 0.00372-0.69246 0.37036 0.71212-0.92887
   1  -5  -2 5217.26  550.94   1 0.26636-0.16650 0.25450-0.59652-0.92966 0.78513
  -1   5   2 5587.51  601.58   1-0.07230-0.02755 0.54718-0.20520-0.83388 0.97833
  -1   5   2 6166.66  368.96   1 0.40370-0.50259-0.05316 0.39526 0.91334-0.76886
   1  -5  -2 5214.94  562.66   1 0.23040-0.13157-0.50152 0.15944 0.83389-0.97839
   1  -5  -1112338.9 2195.29   1 0.42460-0.34536 0.07644-0.43826-0.90214 0.82984
  -1   5   1112204.7 2185.56   1 0.11033-0.18983 0.40256-0.04072-0.90871 0.98096
  -1   5   1110488.7 2104.38   1 0.44399-0.52260 0.11580 0.24614 0.88851-0.81626
   1  -5  -1115656.1 2237.95   1 0.31888-0.24045-0.30668-0.05543 0.89680-0.96907
   1  -5   0 6444.27  641.26   1 0.56034-0.50172-0.10925-0.27238-0.82102 0.82102
  -1   5   0 3911.60  432.74   1 0.28126-0.34041 0.23905 0.14272-0.92937 0.92937
  -1   5   0 5743.96  560.84   1 0.46879-0.52698 0.26684 0.11512 0.84203-0.84203
   1  -5   0 4228.21  536.34   1 0.37864-0.32060-0.13790-0.24413 0.91520-0.91520
   1  -5   1   83.50   37.68   1 0.65551-0.61725-0.27347-0.12816-0.70392 0.77625
  -1   5  -1  201.89   40.15   1 0.41654-0.45511 0.08635 0.31538-0.90500 0.83270
  -1   5  -1  155.09   33.14   1 0.48093-0.51877 0.39523 0.00675 0.78261-0.85488
   1  -5   1   72.56   29.80   1 0.41600-0.37839-0.00693-0.39507 0.90933-0.83710
   1  -5   2 5008.55  494.49   1 0.71132-0.69358-0.40351-0.01804-0.57550 0.72015
  -1   5  -2 3928.02  470.86   1 0.51067-0.52891-0.03642 0.45811-0.85900 0.71440
  -1   5  -2 4222.05  369.76   1 0.48345-0.50088 0.50174-0.07970 0.71730-0.86183
   1  -5   2 3969.22  519.63   1 0.43830-0.42093 0.08818-0.51020 0.89449-0.74999
   1  -5   3105434.9 2195.63   1 0.73816-0.74104-0.50099 0.05945-0.45178 0.66881
  -1   5  -3105673.9 2196.51   1 0.57192-0.56945-0.12719 0.56883-0.81038 0.59341
  -1   5  -3106435.0 2173.29   1 0.47957-0.47688 0.59008-0.14819 0.64946-0.86638
   1  -5   3106256.7 2203.08   1 0.45123-0.45429 0.15372-0.59577 0.87906-0.66232
   1  -5   467719.32 5280.85   1 0.74604-0.76929-0.57268 0.11115-0.33977 0.62914
  -1   5  -465470.16 1821.67   1 0.61029-0.58746-0.19007 0.65171-0.76903 0.47973
  -1   5  -467275.00 1798.25   1 0.47082-0.44775 0.66300-0.20106 0.58202-0.87125
   1  -5   466245.70 1841.06   1 0.45863-0.48210 0.19668-0.65874 0.86658-0.57760
   1  -5   597752.56 2584.29   1 0.74233-0.78607-0.62584 0.14436-0.23926 0.60103
  -1   5  -597770.52 2570.68   1 0.63397-0.59077-0.23219 0.71383-0.73767 0.37606
  -1   5  -599359.33 2518.59   1 0.45891-0.41554 0.72384-0.24182 0.51521-0.87683
   1  -5   593027.89 2459.25   1 0.46265-0.50654 0.22251-0.70460 0.85815-0.49692
   1  -5   626320.37 1805.41   1 0.73125-0.79539-0.66554 0.16407-0.14934 0.58346
  -1   5  -623736.83 2584.78   1 0.64816-0.58460-0.25902 0.76067-0.71608 0.28215
  -1   5  -623628.93 2081.62   1 0.44431-0.38057 0.77484-0.27278 0.44965-0.88360
   1  -5   622351.74 3360.20   1 0.46451-0.52882 0.23525-0.73737 0.85374-0.42026
   1  -5   7 1260.69  140.83   1 0.71534-0.79986-0.69546 0.17399-0.06793 0.57439
  -1   5  -7 1267.05  177.63   1 0.65606-0.57213-0.27456 0.79621-0.70299 0.19673
  -1   5  -7 1313.10  166.46   1 0.42770-0.34360 0.81778-0.29567 0.38508-0.89135
   1  -5   7 1221.58  171.71   1 0.46487-0.54960 0.23775-0.75989 0.85285-0.34713
   1  -5   8  -69.72  132.07   1 0.69609-0.80105-0.71791 0.17637 0.00687 0.57201
  -1   5  -8  -28.52   68.83   1 0.65953-0.55525-0.28157 0.82321-0.69694 0.11835
  -1   5  -8   73.46   75.38   1 0.40938-0.30491 0.85390-0.31174 0.32132-0.89991
   1  -5   8  139.94   89.35   1 0.46405-0.56919 0.23200-0.77416 0.85488-0.27691
   1  -5   9 3191.34  301.17   1 0.67412-0.79949-0.73468 0.17314 0.07607 0.57517
  -1   5  -9 3344.07  397.38   1 0.65971-0.53506-0.28192 0.84357-0.69663 0.04572
  -1   5  -9 3143.79  284.27   1 0.38961-0.26468 0.88411-0.32198 0.25797-0.90899
   1  -5   9 3199.80  447.87   1 0.46218-0.58774 0.21939-0.78158 0.85921-0.20899
   1  -4 -1212308.29 1980.61   1-0.31094 0.62152 0.68843-0.75449-0.65526-0.21079
  -1   4  1213877.04  623.09   1 0.47516-0.78253 0.63244-0.56757 0.61174 0.25594
   1  -4 -1139491.07 3837.61   1 0.72612-0.43910-0.67703 0.59174-0.11984-0.67603
   1  -4 -1140353.19 4516.99   1-0.31990 0.60985 0.69264-0.77867-0.64644-0.14744
  -1   4  1142228.27 1354.88   1 0.46493-0.75193 0.69577-0.61085 0.54747 0.24790
   1  -4 -1032675.69 4183.24   1 0.71225-0.44533-0.69983 0.59457-0.05416-0.66944
   1  -4 -1035800.97 3321.59   1-0.32440 0.59370 0.69472-0.80072-0.64196-0.07975
  -1   4  1036404.12 1125.31   1 0.45013-0.71673 0.75645-0.65148 0.47451 0.24872
   1  -4  -9 1186.93  124.02   1 0.69322-0.44672-0.72052 0.59527 0.01664-0.66789
   1  -4  -9 1103.92   87.70   1-0.32336 0.57202 0.69424-0.82021-0.64300-0.00654
  -1   4   9 1680.69  219.63   1 0.42899-0.67522 0.81487-0.68985 0.38980 0.26110
   1  -4  -8 7756.82  983.32   1 0.66771-0.44162-0.73842 0.59317 0.09424-0.67313
   1  -4  -8 8012.22  603.70   1-0.31518 0.54319 0.69043-0.83636-0.65112 0.07374
  -1   4   8 7537.16  989.91   1 0.39968-0.62548 0.86978-0.72460 0.28935 0.28932
   1  -4  -7122098.5 2979.78   1 0.63345-0.42777-0.75238 0.58712 0.18070-0.68723
   1  -4  -7119573.9 6790.89   1-0.29732 0.50469 0.68185-0.84774-0.66833 0.16313
   1  -4  -625291.74 3013.84   1 0.58683-0.40142-0.76022 0.57496 0.27869-0.71293
   1  -4  -631833.04 3015.40   1-0.26589 0.45262 0.66585-0.85170-0.69709 0.26406
   1  -4  -5127306.3 2348.22   1 0.52217-0.35718-0.75782 0.55255 0.39120-0.75306
   1  -4  -5124804.2 2300.68   1-0.21478 0.38086 0.63757-0.84339-0.73984 0.37898
  -1   4   5130629.9 2150.11   1 0.12324-0.28831-0.68155 0.88726 0.72131-0.36005
   1  -4  -4106524.1 2198.38   1 0.43060-0.28617-0.73728 0.51194 0.52056-0.80994
   1  -4  -4102164.2 2105.20   1-0.13353 0.27863 0.58905-0.81498-0.79698 0.50809
  -1   4   4103731.9 1963.84   1 0.19945-0.34397-0.55884 0.78454 0.80492-0.51591
   1  -4  -3113060.8 2219.28   1-0.01394 0.13860 0.50413-0.74992-0.86351 0.64684
  -1   4   3113345.2 2213.32   1-0.30056 0.17576 0.68343-0.43768-0.66526 0.88178
  -1   4   3115280.7 2123.91   1 0.28822-0.41221-0.37998 0.62584 0.87894-0.66212
   1  -4  -2156321.2 2198.34   1 0.15105-0.04684 0.36618-0.63182-0.91820 0.77369
  -1   4   2160454.3 2095.56   1-0.12246 0.01823 0.58173-0.31609-0.80410 0.94855
  -1   4   2162430.6 1985.13   1 0.37143-0.47487-0.16040 0.42610 0.91449-0.77002
   1  -4  -2163323.7 2015.04   1 0.20278-0.09935-0.55291 0.28724 0.80818-0.95269
   1  -4  -163459.06 1569.47   1 0.34455-0.26071 0.17056-0.45611-0.92314 0.85087
  -1   4   162326.91 1543.83   1 0.09082-0.17466 0.41946-0.13395-0.90321 0.97547
  -1   4   163539.99 1514.12   1 0.43267-0.51579 0.06241 0.22314 0.89938-0.82714
   1  -4  -167230.67 1619.91   1 0.32244-0.23946-0.29769 0.01198 0.89855-0.97083
   1  -4   0 2746.98  269.55   1 0.52120-0.45792-0.05127-0.25414-0.85188 0.85188
  -1   4   0 2814.31  194.98   1 0.29811-0.36160 0.22127 0.08415-0.92852 0.92852
  -1   4   0 2541.13  334.95   1 0.46726-0.52996 0.25510 0.05047 0.84651-0.84651
   1  -4   0 2845.32  300.98   1 0.39670-0.33412-0.07800-0.22763 0.91462-0.91462
   1  -4   185225.19 1726.91   1 0.64343-0.60075-0.24992-0.07538-0.72355 0.79587
  -1   4  -185407.07 1728.50   1 0.45646-0.49941 0.03627 0.28910-0.88900 0.81670
  -1   4  -185634.46 1681.34   1 0.48163-0.52397 0.40830-0.08270 0.77544-0.84771
   1  -4   184423.26 1692.26   1 0.43696-0.39467 0.08194-0.40754 0.89573-0.82349
   1  -4   2 9870.29  548.92   1 0.71027-0.68807-0.40051 0.05526-0.57888 0.72352
  -1   4  -2 9459.88  880.59   1 0.55766-0.57998-0.10517 0.45048-0.82337 0.67872
  -1   4  -210202.89  921.06   1 0.48315-0.50530 0.52725-0.18176 0.69896-0.84358
   1  -4   2 9758.51 1289.33   1 0.45730-0.43543 0.18856-0.53418 0.86908-0.72459
   1  -4   3 4344.06  413.29   1 0.73928-0.73767-0.50710 0.14187-0.44305 0.66007
  -1   4  -3 3553.28  427.32   1 0.61687-0.61882-0.20147 0.56679-0.76083 0.54387
  -1   4  -3 3628.22  328.47   1 0.47669-0.47846 0.61953-0.25399 0.62364-0.84056
   1  -4   3 3457.57  499.17   1 0.46742-0.46596 0.25630-0.62194 0.84606-0.62932
   1  -4   4192879.2 3587.60   1 0.74609-0.76485-0.58160 0.19637-0.32417 0.61354
  -1   4  -4190323.3 3536.16   1 0.65069-0.63228-0.26394 0.64925-0.71199 0.42270
  -1   4  -4192853.6 3482.29   1 0.46557-0.44696 0.69256-0.30697 0.55099-0.84022
   1  -4   4190608.0 3505.25   1 0.47257-0.49146 0.29699-0.68274 0.82973-0.54067
   1  -4   5 1442.60  128.49   1 0.74061-0.77985-0.63468 0.22950-0.22059 0.58236
  -1   4  -5 1294.13  172.31   1 0.67002-0.63110-0.30318 0.70842-0.67760 0.31597
  -1   4  -5 1448.61  162.87   1 0.45161-0.41270 0.75140-0.34573 0.48107-0.84269
   1  -4   5 1790.31  274.11   1 0.47488-0.51417 0.31875-0.72455 0.82029-0.45895
   1  -4   625681.33 1776.54   1 0.72796-0.78759-0.67318 0.24801-0.12995 0.56406
  -1   4  -624421.85 2863.23   1 0.68056-0.62126-0.32621 0.75146-0.65605 0.22211
  -1   4  -624204.16 1859.42   1 0.43537-0.37609 0.79944-0.37373 0.41391-0.84786
   1  -4   624081.03  830.80   1 0.47568-0.53538 0.32692-0.75277 0.81660-0.38300
   1  -4   722494.76 1310.17   1 0.71098-0.79105-0.70150 0.25626-0.04894 0.55547
  -1   4  -720517.56 2097.53   1 0.68574-0.60607-0.33805 0.78329-0.64457 0.13830
  -1   4  -720308.13 1684.45   1 0.41750-0.33785 0.83905-0.39330 0.34881-0.85508
   1  -4   722176.04 2964.61   1 0.47549-0.55560 0.32493-0.77083 0.81750-0.31164
   1  -4   8 4370.32  455.84   1 0.69090-0.79139-0.72253 0.25730 0.02436 0.55452
  -1   4  -8 4134.48  546.45   1 0.68732-0.58728-0.34174 0.80697-0.64093 0.06234
  -1   4  -8 4201.10  400.81   1 0.39834-0.29826 0.87179-0.40606 0.28511-0.86380
   1  -4   8 4102.46  525.39   1 0.47450-0.57502 0.31501-0.78096 0.82195-0.24382
   1  -4   9 5115.29  456.29   1 0.66856-0.78945-0.73795 0.25272 0.09188 0.55936
  -1   4  -9 4824.80  778.62   1 0.68625-0.56584-0.33924 0.82448-0.64340-0.00751
  -1   4  -9 4852.79  471.09   1 0.37779-0.25733 0.89872-0.41296 0.22261-0.87363
   1  -4   9 4837.78  668.08   1 0.47276-0.59368 0.29862-0.78461 0.82904-0.17864
   1  -4  10 9993.06 1035.98   1 0.64432-0.78563-0.74889 0.24366 0.15492 0.56868
  -1   4 -10 9420.14 1240.14   1 0.68304-0.54225-0.33183 0.83707-0.65064-0.07259
  -1   4 -1010130.95 1098.87   1 0.35597-0.21515 0.92056-0.41475 0.16077-0.88412
   1  -4  10 9549.26 1509.15   1 0.47005-0.61151 0.27691-0.78273 0.83807-0.11560
   1  -3 -12 3770.65  477.31   1 0.74168-0.42977-0.62944 0.64045-0.23174-0.63648
   1  -3 -12 3692.92  563.60   1-0.35441 0.66949 0.70796-0.69761-0.61088-0.25517
  -1   3  12 3169.26  962.87   1 0.48143-0.79326 0.56456-0.57604 0.67043 0.19725
   1  -3 -1123710.20 2809.79   1 0.73509-0.44357-0.65506 0.64607-0.17472-0.62115
   1  -3 -1123517.16 3179.74   1-0.36760 0.66203 0.71341-0.72303-0.59658-0.19731
  -1   3  1125267.89  969.89   1 0.47609-0.76755 0.62477-0.61620 0.61886 0.17651
   1  -3 -1010208.75 1002.79   1 0.72506-0.45393-0.67913 0.65015-0.11423-0.60929
   1  -3 -1011199.92 1038.41   1-0.37721 0.65100 0.71723-0.74682-0.58589-0.13582
  -1   3  1010503.31 1573.68   1 0.46735-0.73844 0.68318-0.65457 0.56109 0.16197
   1  -3  -9118366.2 2140.44   1 0.71102-0.46004-0.70145 0.65250-0.04909-0.60215
   1  -3  -9115210.1 2122.63   1-0.38250 0.63564 0.71928-0.76883-0.57993-0.06961
  -1   3   9124568.8 1606.81   1 0.45475-0.70543 0.74015-0.69149 0.49535 0.15555
   1  -3  -874514.00 2179.36   1 0.69162-0.46106-0.72192 0.65297 0.02198-0.60087
   1  -3  -872510.71 2125.33   1-0.38225 0.61476 0.71919-0.78870-0.58020 0.00282
   1  -3  -717637.68 1731.44   1 0.66518-0.45502-0.73978 0.65084 0.10121-0.60774
   1  -3  -717793.60 1459.75   1-0.37456 0.58642 0.71619-0.80567-0.58887 0.08366
  -1   3   717255.98  538.80   1 0.41061-0.62056 0.85176-0.76301 0.32541 0.18085
   1  -3  -686321.45 1958.22   1 0.62866-0.43879-0.75368 0.64474 0.19167-0.62591
   1  -3  -681820.59 1875.57   1-0.35620 0.54741 0.70871-0.81815-0.60897 0.17594
   1  -3  -519912.47 2359.41   1 0.57683-0.40738-0.76071 0.63176 0.29761-0.65947
   1  -3  -521159.97 1652.77   1-0.32167 0.49225 0.69346-0.82287-0.64468 0.28382
  -1   3   520539.89  505.29   1 0.31420-0.48334 0.94791-0.81895 0.05222 0.30932
   1  -3  -428697.45  702.12   1 0.50043-0.35154-0.75447 0.60545 0.42464-0.71403
   1  -3  -428161.84  686.70   1-0.26144 0.41137 0.66349-0.81287-0.70101 0.41232
   1  -3  -3475042.1 5207.13   1-0.15823 0.28726 0.60496-0.77441-0.78037 0.56370
  -1   3   3476842.3 5214.95   1-0.38350 0.25421 0.71967-0.55033-0.57878 0.79530
  -1   3   3467347.1 4861.53   1 0.17826-0.30682-0.59546 0.76474 0.78335-0.56659
   1  -3  -2 3002.52  248.57   1 0.00630 0.10229 0.48849-0.67779-0.87254 0.72809
  -1   3   2 2825.88  292.90   1-0.20574 0.09710 0.63229-0.44298-0.74690 0.89125
  -1   3   2 3591.92  380.52   1 0.31228-0.42032-0.32306 0.51244 0.89336-0.74881
   1  -3  -2 2846.38  174.48   1 0.13458-0.02657-0.66482 0.47556 0.73477-0.87927
   1  -3  -1  424.20   54.86   1 0.23637-0.14820 0.28488-0.49407-0.92896 0.85669
  -1   3   1  550.35   57.09   1 0.04239-0.13057 0.45991-0.25075-0.88695 0.95920
  -1   3   1  484.51   31.20   1 0.41673-0.50428-0.00404 0.21330 0.90901-0.83677
   1  -3  -1  430.92   58.41   1 0.31664-0.22911-0.31228 0.10298 0.89566-0.96793
   1  -3   052708.78 1296.32   1 0.47271-0.40506 0.01509-0.24415-0.88108 0.88108
  -1   3   051978.98 1278.96   1 0.30431-0.37212 0.21465 0.01440-0.92807 0.92807
  -1   3   052347.70 1241.36   1 0.46813-0.53535 0.26174-0.03256 0.84400-0.84400
   1  -3   052919.10 1262.52   1 0.41718-0.35006-0.00228-0.22693 0.90881-0.90881
   1  -3   1263925.7 3032.49   1 0.63461-0.58749-0.23337-0.01560-0.73675 0.80907
  -1   3  -1261866.0 3015.04   1 0.49724-0.54456-0.01784 0.26686-0.86742 0.79512
  -1   3  -1268631.0 3042.68   1 0.48311-0.52995 0.44835-0.19914 0.75204-0.82431
   1  -3   1263892.7 2984.28   1 0.45881-0.41201 0.19781-0.44702 0.86623-0.79398
   1  -3   238575.53 1067.70   1 0.71345-0.68681-0.40972 0.14078-0.56842 0.71307
  -1   3  -238233.22 1057.06   1 0.60542-0.63217-0.18175 0.45074-0.77487 0.63022
  -1   3  -238751.67 1033.16   1 0.48059-0.50720 0.57705-0.30790 0.66033-0.80494
   1  -3   238335.68 1037.83   1 0.47434-0.44791 0.31342-0.58268 0.82265-0.67812
   1  -3   3362027.8 6237.62   1 0.74202-0.73591-0.52422 0.23530-0.41783 0.63486
  -1   3  -3349162.8 6027.71   1 0.65986-0.66624-0.28223 0.57121-0.69636 0.47940
  -1   3  -3357401.1 6090.65   1 0.46992-0.47615 0.66851-0.37933 0.57641-0.79333
   1  -3   3355163.5 6083.67   1 0.47983-0.47380 0.37752-0.66683 0.79198-0.57518
   1  -3   4 7370.36  728.71   1 0.74551-0.75986-0.59894 0.29006-0.29237 0.58178
  -1   3  -411599.87 1466.96   1 0.68722-0.67313-0.34152 0.65045-0.64115 0.35185
  -1   3  -4 7197.64  751.85   1 0.45564-0.44155 0.73678-0.42752 0.49953-0.78882
   1  -3   4 9501.54 1420.84   1 0.48175-0.49614 0.41080-0.72016 0.77404-0.48498
   1  -3   554740.11 4599.81   1 0.73683-0.77157-0.64951 0.32063-0.18765 0.54941
  -1   3  -553188.90 1387.83   1 0.70093-0.66646-0.37522 0.70415-0.60654 0.24492
  -1   3  -553031.51 1302.55   1 0.43911-0.40465 0.78964-0.46033 0.42853-0.79015
   1  -3   550514.15 1039.63   1 0.48236-0.51715 0.42470-0.75411 0.76612-0.40479
   1  -3   6 2226.59  146.22   1 0.72187-0.77701-0.68503 0.33616-0.09808 0.53220
  -1   3  -6 2399.16  310.96   1 0.70757-0.65273-0.39297 0.74190-0.58728 0.15334
  -1   3  -6 2311.82  211.42   1 0.42120-0.36638 0.83170-0.48235 0.36173-0.79567
   1  -3   6 2756.55  421.50   1 0.48239-0.53759 0.42563-0.77509 0.76558-0.33198
   1  -3   759648.01 4013.58   1 0.70338-0.77898-0.71054 0.34162-0.01928 0.52581
  -1   3  -757620.25 5303.55   1 0.71015-0.63493-0.40018 0.76910-0.57925 0.07298
  -1   3  -764082.92 1828.03   1 0.40232-0.32707 0.86571-0.49638 0.29778-0.80413
   1  -3   759390.54 1759.10   1 0.48205-0.55765 0.41728-0.78679 0.77038-0.26452
   1  -3   818969.11 1417.73   1 0.68241-0.77842-0.72915 0.34023 0.05135 0.52753
  -1   3  -818122.58 2097.06   1 0.71008-0.61449-0.39999 0.78891-0.57946 0.00087
  -1   3  -819925.20 1457.99   1 0.38233-0.28672 0.89336-0.50399 0.23604-0.81472
   1  -3   820742.74 2375.15   1 0.48130-0.57731 0.40187-0.79142 0.77900-0.20087
   1  -3   9  708.84  118.13   1 0.65965-0.77606-0.74255 0.33363 0.11608 0.53516
  -1   3  -9  723.46  130.51   1 0.70805-0.59209-0.39430 0.80323-0.58581-0.06510
  -1   3  -9  970.34  200.70   1 0.36136-0.24538 0.91572-0.50632 0.17567-0.82669
   1  -3   9  735.89  111.00   1 0.48004-0.59646 0.38074-0.79034 0.79030-0.13991
   1  -3  10    2.89   90.48   1 0.63533-0.77216-0.75183 0.32291 0.17635 0.54725
  -1   3 -10   78.84   84.73   1 0.70437-0.56804-0.38430 0.81322-0.59679-0.12644
  -1   3 -10   76.46   42.86   1 0.33935-0.20300 0.93345-0.50402 0.11613-0.83949
   1  -3  10  117.99   56.63   1 0.47814-0.61497 0.35474-0.78440 0.80345-0.08078
  -1   2  1112863.00 1182.84   1 0.40956-0.70565-0.73044 0.66326 0.54654 0.24927
   1  -2 -1112524.85 1303.12   1 0.74180-0.44578-0.62879 0.69610-0.23311-0.56276
  -1   2  1112451.14 1914.75   1 0.48224-0.77816 0.54994-0.61772 0.68191 0.11346
  -1   2  1061591.21 4456.29   1 0.42364-0.69934-0.73510 0.68790 0.52929 0.19417
   1  -2 -1057434.12 6272.30   1 0.73559-0.45996-0.65353 0.70085-0.17833-0.54519
  -1   2  1063273.98 1696.04   1 0.47834-0.75389 0.60369-0.65142 0.63775 0.08531
  -1   2   910473.03  778.81   1 0.43445-0.68976-0.73846 0.71124 0.51567 0.13544
   1  -2  -9 9852.06 1025.87   1 0.72614-0.47091-0.67698 0.70431-0.11997-0.53120
  -1   2   9 9807.83 1377.52   1 0.47189-0.72707 0.65608-0.68377 0.58895 0.06180
  -1   2   8 9857.91  757.00   1 0.44124-0.67616-0.74047 0.73324 0.50695 0.07181
   1  -2  -8 9639.90 1160.47   1 0.71274-0.47790-0.69912 0.70645-0.05678-0.52203
  -1   2   8 9901.46 1092.38   1 0.46241-0.69721 0.70783-0.71548 0.53399 0.04446
  -1   2   7118976.6 3065.37   1 0.44273-0.65726-0.74090 0.75365 0.50501 0.00140
   1  -2  -7115580.9 2943.03   1 0.69423-0.47960-0.71962 0.70699 0.01322-0.51975
  -1   2   7117047.2 2771.64   1 0.44917-0.66358 0.75963-0.74723 0.47031 0.03594
  -1   2   6 1418.69  139.73   1 0.43673-0.63087-0.73914 0.77188 0.51275-0.07867
   1  -2  -6 1548.20  178.76   1 0.66828-0.47405-0.73811 0.70548 0.09267-0.52684
  -1   2   6 1609.44  224.99   1 0.42985-0.62389 0.81287-0.78043 0.39300 0.04093
  -1   2   556458.01 1417.11   1 0.41924-0.59299-0.73368 0.78640 0.53473-0.17300
   1  -2  -554168.86 1404.63   1 0.63105-0.45724-0.75305 0.70042 0.18622-0.54802
  -1   2   556130.41 1182.48   1 0.40068-0.57432 0.86825-0.81570 0.29254 0.06913
   1  -2  -4210163.1 3818.60   1 0.57492-0.42143-0.76076 0.68813 0.30115-0.59064
   1  -2  -4202797.2 3693.93   1-0.38174 0.53617 0.71899-0.79196-0.58078 0.29209
  -1   2   4202973.4 3454.78   1 0.35156-0.50483 0.92427-0.85168 0.14873 0.14060
   1  -2  -3120550.4 1697.46   1 0.48418-0.35122-0.75131 0.65862 0.44843-0.66547
   1  -2  -3119437.4 1228.20   1-0.30990 0.44368 0.68794-0.78086-0.65627 0.43975
   1  -2  -2743643.5 7597.54   1-0.17099 0.28413 0.61124-0.72414-0.77274 0.62840
  -1   2   2750359.3 7657.59   1-0.32673 0.21359 0.69579-0.58290-0.63962 0.78396
  -1   2   2752458.4 7429.57   1 0.16609-0.27868-0.61561 0.72845 0.77034-0.62584
   1  -2  -1168455.2 1971.31   1 0.08099 0.01151 0.42784-0.56066-0.90021 0.82796
  -1   2   1167338.7 1956.90   1-0.05718-0.03533 0.53632-0.40350-0.84207 0.91429
  -1   2   1164657.7 1763.22   1 0.38674-0.47883-0.11169 0.24454 0.91539-0.84315
   1  -2  -1166717.8 1797.44   1 0.27974-0.18765-0.39905 0.26616 0.87321-0.94548
   1  -2   022141.81  398.24   1 0.40659-0.33456 0.09843-0.25114-0.90829 0.90829
  -1   2   021975.05  395.16   1 0.28966-0.36180 0.23023-0.07751-0.92902 0.92902
  -1   2   022257.35  324.15   1 0.47462-0.54636 0.31611-0.16334 0.82146-0.82146
   1  -2   022216.45  331.27   1 0.44386-0.37213 0.11513-0.26792 0.88866-0.88866
   1  -2   124356.71  671.42   1 0.63277-0.58122-0.22998 0.05732-0.73939 0.81171
  -1   2  -124831.68  681.84   1 0.54073-0.59243-0.07954 0.25221-0.83742 0.76512
  -1   2  -125066.81  658.89   1 0.48264-0.53408 0.54113-0.36838 0.68864-0.76094
   1  -2   124773.05  655.08   1 0.47906-0.42772 0.36664-0.53947 0.79753-0.72527
   1  -2   2216135.4 2565.93   1 0.72252-0.69141-0.43809 0.24547-0.53482 0.67947
  -1   2  -2215166.5 2552.74   1 0.65428-0.68546-0.27102 0.46368-0.70601 0.56136
  -1   2  -2215226.9 2494.11   1 0.47059-0.50165 0.66445-0.47166 0.58055-0.72517
   1  -2   2215382.0 2502.85   1 0.48353-0.45260 0.47528-0.66816 0.73504-0.59051
   1  -2   3 5500.15  412.26   1 0.74532-0.73473-0.55589 0.34328-0.36805 0.58508
  -1   2  -3 5252.94  606.12   1 0.69928-0.71001-0.37097 0.58359-0.61104 0.39407
  -1   2  -3 5471.90  561.35   1 0.45416-0.46489 0.74233-0.52947 0.49262-0.70959
   1  -2   3 5240.67  665.76   1 0.48329-0.47259 0.52277-0.73560 0.70223-0.48531
   1  -2   4225681.6 4102.15   1 0.74234-0.75219-0.62582 0.39324-0.23931 0.52873
  -1   2  -4225640.7 4100.53   1 0.71758-0.70794-0.42220 0.65482-0.55390 0.26460
  -1   2  -4228179.6 4069.09   1 0.43633-0.42669 0.79700-0.56410 0.41761-0.70690
   1  -2   4218499.3 3927.42   1 0.48269-0.49237 0.54001-0.77289 0.68948-0.40025
   1  -2   542802.98 3697.51   1 0.72917-0.75941-0.67050 0.41793-0.13684 0.49860
  -1   2  -539432.82 1033.27   1 0.72533-0.69531-0.44775 0.70037-0.52288 0.16125
  -1   2  -540315.30  971.41   1 0.41797-0.38796 0.83814-0.58520 0.35043-0.71205
   1  -2   538016.07  951.24   1 0.48266-0.51271 0.54076-0.79369 0.68891-0.32738
   1  -2   634896.59 2810.47   1 0.71155-0.76225-0.70076 0.42814-0.05126 0.48543
  -1   2  -632961.36 3617.20   1 0.72849-0.67796-0.45867 0.73127-0.50882 0.07476
  -1   2  -635867.32 3285.39   1 0.39925-0.34884 0.87042-0.59749 0.28800-0.72201
   1  -2   634851.63 1011.63   1 0.48302-0.53345 0.53118-0.80414 0.69607-0.26223
   1  -2   738501.51 1327.17   1 0.69140-0.76252-0.72210 0.42949 0.02270 0.48382
  -1   2  -733965.69 4016.09   1 0.72894-0.65804-0.46038 0.75298-0.50663 0.00023
  -1   2  -738376.51 3159.33   1 0.37989-0.30912 0.89628-0.60331 0.22881-0.73515
   1  -2   737048.14 1673.74   1 0.48324-0.55435 0.51407-0.80719 0.70865-0.20279
   1  -2   8 6979.84  463.65   1 0.66966-0.76119-0.73733 0.42472 0.08879 0.49008
  -1   2  -8 7113.40  475.51   1 0.35988-0.26874 0.91708-0.60408 0.17155-0.75024
   1  -2   8 6736.35  839.86   1 0.48354-0.57505 0.49182-0.80499 0.72408-0.14595
   1  -2   9 4158.07  439.75   1 0.64663-0.75857-0.74805 0.41544 0.14928 0.50196
  -1   2  -9 4116.83  460.75   1 0.72505-0.61355-0.44679 0.77940-0.52409-0.12682
  -1   2  -9 4365.00  384.07   1 0.33910-0.22758 0.93363-0.60059 0.11545-0.76647
   1  -2   9 4131.35  485.16   1 0.48342-0.59534 0.46505-0.79827 0.74163-0.09123
   1  -2  10 5756.86  509.74   1 0.62237-0.75472-0.75520 0.40253 0.20569 0.51803
  -1   2 -10 5324.70  613.85   1 0.72131-0.58943-0.43408 0.78669-0.53970-0.18353
  -1   2 -10 5616.50  513.26   1 0.31736-0.18538 0.94639-0.59346 0.06011-0.78321
   1  -2  10 5888.66  807.23   1 0.48271-0.61503 0.43432-0.78758 0.76049-0.03783
   1  -2  11 8864.89  835.54   1 0.59689-0.74966-0.75936 0.38668 0.25900 0.53709
  -1   2 -11 8085.01  897.12   1 0.71633-0.56408-0.41833 0.79094-0.55845-0.23711
  -1   2 -11 8297.81  808.62   1 0.29468-0.14232 0.95558-0.58263 0.00476-0.80017
   1  -2  11 7997.11 1350.71   1 0.48119-0.63393 0.39992-0.77324 0.78006 0.01486
  -1   1  11 5471.06  608.33   1 0.44507-0.74562-0.74157 0.59807 0.50196 0.29384
   1  -1 -11 5260.09  504.64   1 0.74551-0.44517-0.59807 0.74173-0.29411-0.50165
  -1   1  11 5045.59  825.47   1 0.48351-0.78424 0.47352-0.61767 0.73619 0.05873
  -1   1  10 8051.32  629.45   1 0.46280-0.74296-0.74633 0.62282 0.47832 0.24514
   1  -1 -10 7778.74  787.34   1 0.74283-0.46271-0.62288 0.74650-0.24538-0.47814
  -1   1  10 8008.19 1071.69   1 0.48332-0.76333 0.52160-0.64569 0.70308 0.01998
  -1   1   934273.07 2594.05   1 0.47810-0.73787-0.74998 0.64645 0.45709 0.19402
   1  -1  -933091.50 3881.70   1 0.73767-0.47794-0.64659 0.75022-0.19430-0.45687
  -1   1   936672.21  934.22   1 0.48125-0.74089 0.56735-0.67139 0.66821-0.01744
  -1   1   838159.69 2980.12   1 0.49058-0.72996-0.75262 0.66907 0.43918 0.13959
   1  -1  -838275.65 1149.30   1 0.72969-0.49035-0.66929 0.75293-0.13992-0.43889
  -1   1   840284.10  915.34   1 0.47759-0.71685 0.61122-0.69522 0.63111-0.05265
  -1   1   719996.48 1685.24   1 0.49959-0.71858-0.75432 0.69076 0.42590 0.08052
   1  -1  -717970.03 1873.92   1 0.71824-0.49929-0.69106 0.75471-0.08090-0.42556
   1  -1  -716683.46 1530.27   1 0.26251-0.04363 0.96241-0.89861-0.06961-0.43655
  -1   1   717790.86  596.77   1 0.47224-0.69114 0.65373-0.71768 0.59128-0.08513
  -1   1   621364.30 1996.11   1 0.50393-0.70252-0.75508 0.71150 0.41940 0.01467
   1  -1  -619266.13 2072.28   1 0.70222-0.50352-0.71179 0.75547-0.01498-0.41918
   1  -1  -621826.15 1639.49   1 0.27471-0.07620 0.96061-0.91683-0.04194-0.39192
  -1   1   620048.45  615.35   1 0.46498-0.66349 0.69554-0.73945 0.54772-0.11388
  -1   1   5  921.16  107.12   1 0.50134-0.67955-0.75463 0.73104 0.42328-0.06155
   1  -1  -5  829.27  112.25   1 0.67917-0.50088-0.73141 0.75510 0.06120-0.42300
   1  -1  -5  924.22   92.77   1 0.28287-0.10473 0.95888-0.93512-0.02307-0.33847
  -1   1   5  731.60  128.33   1 0.45542-0.63354 0.73762-0.76150 0.49849-0.13687
  -1   1   442411.46 1216.49   1 0.48722-0.64504-0.75194 0.74832 0.44406-0.15467
   1  -1  -441536.67 1187.25   1 0.64459-0.48672-0.74879 0.75247 0.15426-0.44370
   1  -1  -442164.07 1051.61   1 0.28402-0.12626 0.95860-0.95486-0.02038-0.26885
  -1   1   442067.64 1064.08   1 0.44169-0.59945 0.78247-0.78630 0.43889-0.14960
  -1   1   3177977.4 2282.82   1 0.45095-0.58838-0.74321 0.75958 0.49423-0.27719
   1  -1  -3174561.1 2224.80   1 0.58785-0.45032-0.76015 0.74384 0.27674-0.49386
   1  -1  -3169259.1 1894.45   1 0.26933-0.13194 0.96151-0.97781-0.05421-0.16271
  -1   1   3165256.2 1876.48   1 0.41952-0.55690 0.83510-0.81888 0.35580-0.13883
   1  -1  -2 9733.40 1134.64   1 0.48082-0.36378-0.75058 0.71423 0.45324-0.59793
   1  -1  -2 9284.24  289.11   1-0.36363 0.48126 0.71179-0.74827-0.60092 0.45658
  -1   1   2 9569.19  178.92   1 0.36764-0.48465 0.90964-0.87335 0.19334-0.04867
   1  -1  -115772.28  313.65   1-0.14704 0.24394 0.59782-0.65431-0.78802 0.71580
  -1   1   115765.60  311.31   1-0.24395 0.14697 0.65404-0.59759-0.71603 0.78820
   1  -1   0577198.2 5758.04   1 0.29772-0.22125 0.22169-0.29805-0.92855 0.92855
  -1   1   0571965.3 5706.93   1 0.22215-0.29862 0.29895-0.22259-0.92804 0.92804
  -1   1   0579183.8 5657.94   1 0.48183-0.55811 0.55764-0.48129 0.67591-0.67591
   1  -1   0574841.1 5609.59   1 0.48143-0.40518 0.40428-0.48066 0.77767-0.77767
   1  -1   1191316.1 2108.20   1 0.64643-0.59045-0.25567 0.15934-0.71885 0.79118
  -1   1  -1189227.7 2087.47   1 0.59140-0.64738-0.15839 0.25472-0.79066 0.71833
  -1   1  -1188579.2 2050.95   1 0.45642-0.51234 0.73380-0.63739 0.50320-0.57552
   1  -1   1191530.6 2070.43   1 0.47440-0.41850 0.63832-0.73471 0.60620-0.53389
   1  -1   217077.91  384.32   1 0.73745-0.70198-0.49727 0.38096-0.45704 0.60172
  -1   1  -216938.87  381.33   1 0.70269-0.73825-0.37983 0.49614-0.60161 0.45696
  -1   1  -216910.43  367.11   1 0.43523-0.47078 0.79981-0.68336 0.41336-0.55800
   1  -1   217064.86  365.78   1 0.46713-0.43160 0.68438-0.80082 0.55982-0.41520
   1  -1   3158839.1 2054.89   1 0.74500-0.72996-0.60548 0.46920-0.27992 0.49698
  -1   1  -3157332.4 2037.01   1 0.73092-0.74601-0.46809 0.60439-0.49662 0.27959
  -1   1  -3155094.3 1965.89   1 0.41705-0.43223 0.83992-0.70342 0.34725-0.56423
   1  -1   3148610.6 1896.47   1 0.46604-0.45088 0.69016-0.82664 0.55360-0.33668
   1  -1   419642.40 1767.33   1 0.73249-0.73785-0.66238 0.50610-0.15715 0.44657
  -1   1  -418760.05  553.77   1 0.73890-0.73361-0.50493 0.66123-0.44616 0.15679
  -1   1  -419179.15 1813.39   1 0.39999-0.39479 0.86930-0.71280 0.29034-0.57969
   1  -1   418503.32  505.87   1 0.46782-0.47304 0.68063-0.83716 0.56380-0.27457
   1  -1   591100.32 1986.51   1 0.71442-0.74016-0.69679 0.52052-0.06391 0.42567
  -1   1  -592687.85 2009.36   1 0.74129-0.71563-0.51928 0.69558-0.42522 0.06351
  -1   1  -595932.04 1974.47   1 0.38297-0.35740 0.89259-0.71605 0.23792-0.59960
   1  -1   593896.42 1946.35   1 0.47081-0.49640 0.66307-0.83964 0.58195-0.22041
   1  -1   6302847.2 5343.49   1 0.69442-0.74065-0.71945 0.52315 0.01257 0.42158
  -1   1  -6301967.3 5317.78   1 0.74169-0.69565-0.52196 0.71825-0.42122-0.01282
  -1   1  -6318181.0 5415.33   1 0.36563-0.31969 0.91164-0.71507 0.18764-0.62166
   1  -1   6300102.2 5142.98   1 0.47414-0.52010 0.64029-0.83691 0.60432-0.17047
   1  -1   749049.64 3499.70   1 0.67329-0.73994-0.73519 0.51889 0.07846 0.42805
  -1   1  -748949.30 1201.97   1 0.74104-0.67463-0.51765 0.73394-0.42764-0.07875
  -1   1  -749242.43 4062.93   1 0.34773-0.28142 0.92732-0.71071 0.13838-0.64473
   1  -1   750928.00 1479.88   1 0.47734-0.54368 0.61359-0.83025 0.62900-0.12285
   1  -1   8  156.00   80.94   1 0.65133-0.73838-0.74621 0.50992 0.13756 0.44132
  -1   1  -8   65.92   45.96   1 0.73955-0.65276-0.50862 0.74490-0.44086-0.13788
  -1   1  -8  -20.32   81.04   1 0.32909-0.24242 0.94004-0.70340 0.08948-0.66817
   1  -1   8   27.03   29.99   1 0.48010-0.56681 0.58358-0.82028 0.65492-0.07646
   1  -1   915672.79 1397.39   1 0.62849-0.73596-0.75373 0.49738 0.19205 0.45930
  -1   1  -915539.69 1492.62   1 0.73721-0.63004-0.49607 0.75235-0.45872-0.19236
  -1   1  -915723.27 1075.49   1 0.30952-0.20241 0.95002-0.69346 0.04067-0.69146
   1  -1   914666.34 1632.59   1 0.48221-0.58929 0.55058-0.80733 0.68141-0.03064
   1  -1  10  340.22   74.27   1 0.60471-0.73261-0.75840 0.48204 0.24319 0.48053
  -1   1 -10  299.33   95.49   1 0.73392-0.60638-0.48068 0.75695-0.47989-0.24353
  -1   1 -10  360.84  102.80   1 0.28905-0.16156 0.95727-0.68070-0.00858-0.71452
   1  -1  10  372.24   88.47   1 0.48323-0.61106 0.51457-0.79145 0.70830 0.01435
   1  -1  1124289.73 2020.11   1 0.57988-0.72819-0.76060 0.46425 0.29191 0.50418
  -1   1 -1122692.95 2728.23   1 0.72958-0.58166-0.46282 0.75909-0.50348-0.29228
  -1   1 -1124283.35 2036.95   1 0.26749-0.11963 0.96178-0.66519-0.05838-0.73702
   1  -1  1122745.04 2853.88   1 0.48353-0.63176 0.47588-0.77281 0.73466 0.06026
  -1   0  11 1455.01  207.08   1 0.47480-0.77981-0.74923 0.52941 0.46174 0.33407
   1   0 -11 1342.60  214.92   1 0.74571-0.44087-0.56280 0.78277-0.35658-0.43919
  -1   0  11 1050.30  339.03   1 0.48104-0.78627 0.39719-0.61773 0.78155 0.01337
  -1   0  10  551.55  158.12   1 0.49543-0.78005-0.75356 0.55372 0.43208 0.29138
   1   0 -10  543.97  163.21   1 0.74599-0.46153-0.58714 0.78711-0.31423-0.40919
  -1   0  10  493.50  145.11   1 0.48287-0.76768 0.43938-0.63987 0.75747-0.03481
  -1   0   9 1715.04  201.32   1 0.51408-0.77857-0.75671 0.57668 0.40386 0.24749
   1   0  -9 1518.56  188.76   1 0.74452-0.48029-0.61030 0.79023-0.27058-0.38058
   1   0  -9 1883.03  189.81   1 0.28258-0.01846 0.95894-0.77875-0.02373-0.62706
  -1   0   9 1805.86  201.73   1 0.48354-0.74795 0.47812-0.65856 0.73319-0.08280
  -1   0   810752.73  841.02   1 0.53096-0.77503-0.75884 0.59881 0.37714 0.20183
   1   0  -810806.58  920.23   1 0.30485-0.06110 0.95194-0.79177 0.02926-0.60775
  -1   0   8 9844.72 1577.33   1 0.48326-0.72726 0.51333-0.67372 0.70918-0.13105
  -1   0   740780.57 3146.81   1 0.54565-0.76931-0.76010 0.62008 0.35283 0.15377
   1   0  -740518.88 1334.45   1 0.73554-0.51209-0.65368 0.79363-0.17797-0.32848
   1   0  -740304.92 3464.75   1 0.32642-0.10304 0.94157-0.80141 0.08298-0.58915
  -1   0   740333.40 1169.58   1 0.48248-0.70583 0.54491-0.68522 0.68576-0.17961
  -1   0   6 1064.99   91.49   1 0.55773-0.76097-0.76069 0.64068 0.33206 0.10217
   1   0  -6 1128.02  159.69   1 0.72746-0.52441-0.67425 0.79421-0.12716-0.30694
   1   0  -6 1022.23   94.78   1 0.34771-0.14476 0.92733-0.80713 0.13833-0.57234
  -1   0   6  878.75  119.41   1 0.48096-0.68394 0.57181-0.69207 0.66460-0.23076
  -1   0   529387.89 2811.66   1 0.56635-0.74917-0.76085 0.66083 0.31677 0.04508
   1   0  -530114.14  867.11   1 0.71607-0.53340-0.69439 0.79435-0.07112-0.29063
   1   0  -530933.33  723.73   1 0.36894-0.18636 0.90832-0.80815 0.19703-0.55870
  -1   0   528518.11  701.85   1 0.47935-0.66195 0.59274-0.69296 0.64720-0.28566
  -1   0   419212.99 1760.52   1 0.56972-0.73212-0.76084 0.68083 0.31068-0.02119
   1   0  -418439.52 2156.07   1 0.69980-0.53744-0.71430 0.79430-0.00619-0.28325
   1   0  -419289.36 1769.17   1 0.39103-0.22881 0.88220-0.80206 0.26232-0.55166
  -1   0   417493.01  431.72   1 0.47827-0.64050 0.60448-0.68466 0.63706-0.34783
  -1   0   312250.64 1309.79   1 0.56365-0.70564-0.76082 0.70081 0.32160-0.10448
   1   0  -312029.33 1448.68   1 0.67454-0.53260-0.73442 0.79442 0.07485-0.29193
   1   0  -311310.09  290.51   1 0.41554-0.27370 0.84279-0.78265 0.34207-0.55904
  -1   0   310879.19  288.49   1 0.47883-0.62069 0.59853-0.65866 0.64224-0.42532
  -1   0   238564.75  989.41   1 0.53586-0.65743-0.75932 0.71932 0.36914-0.22440
   1   0  -239014.80  997.39   1 0.62895-0.50738-0.75361 0.79361 0.19100-0.33575
   1   0  -240861.56  946.84   1 0.44654-0.32506 0.76805-0.72796 0.45900-0.60365
  -1   0   238584.76  898.96   1 0.48245-0.60394 0.54541-0.58550 0.68538-0.54077
  -1   0   1453575.0 4614.51   1 0.43557-0.53668-0.73879 0.71881 0.51424-0.44189
   1   0  -1434243.0 4418.02   1 0.51550-0.41435-0.75691 0.77692 0.40165-0.47402
   1   0  -1425008.9 4164.19   1 0.48326-0.38211 0.51338-0.49333 0.70914-0.78141
  -1   0   1428006.5 4197.55   1 0.46908-0.57024 0.26913-0.28915 0.84114-0.76890
   1   0   0128825.4 1363.89   1 0.04040 0.04040 0.46153-0.46153-0.88620 0.88620
  -1   0   0130580.7 1382.02   1-0.04041-0.04041 0.52404-0.52403-0.85073 0.85073
   1   0   156412.28 1241.30   1 0.69659-0.63620-0.36417 0.34417-0.61816 0.69049
  -1   0  -155972.66 1232.77   1 0.66082-0.72122-0.28419 0.30419-0.69465 0.62233
  -1   0  -156163.33 1236.85   1 0.27921-0.33959 0.95970-0.93968-0.03156-0.04074
   1   0   155161.92 1214.16   1 0.31767-0.25729 0.94624-0.96626 0.06087 0.01143
   1   0   2 7839.56  234.01   1 0.74536-0.70543-0.60107 0.56109-0.28834 0.43304
  -1   0  -2 7579.77  227.95   1 0.74074-0.78069-0.51572 0.55572-0.43049 0.28580
  -1   0  -2 7172.76  654.43   1 0.32791-0.36792 0.94074-0.90067 0.08646-0.23113
   1   0   2 7176.04  213.20   1 0.37927-0.33927 0.89701-0.93708 0.22698-0.08231
   1   0   3351126.0 3873.62   1 0.72859-0.70906-0.67181 0.61183-0.13350 0.35056
  -1   0  -3347895.1 3833.79   1 0.74600-0.76558-0.57093 0.63092-0.34280 0.12577
  -1   0  -3340601.7 3710.14   1 0.33728-0.35692 0.93487-0.87476 0.11069-0.32770
   1   0   3357416.0 3868.58   1 0.40845-0.38881 0.85568-0.91579 0.31775-0.10074
   1   0   4151182.4 2077.70   1 0.70797-0.70890-0.70527 0.62528-0.03685 0.32630
  -1   0  -4151996.2 2075.34   1 0.74601-0.74522-0.58630 0.66629-0.31575 0.02638
  -1   0  -4152712.4 1999.34   1 0.33488-0.33415 0.93645-0.85631 0.10444-0.39378
   1   0   4149722.0 1961.39   1 0.42733-0.42806 0.81861-0.89879 0.38373-0.09444
   1   0   5301215.5 5344.19   1 0.68749-0.70883-0.72532 0.62533 0.03544 0.32635
  -1   0  -5302169.3 5349.55   1 0.74599-0.72482-0.58729 0.68727-0.31396-0.04774
  -1   0  -5301522.7 5229.51   1 0.32712-0.30602 0.94120-0.84102 0.08444-0.44611
   1   0   5291939.5 5080.80   1 0.44150-0.46259 0.78303-0.88326 0.43810-0.07648
   1   0   620955.96 1703.09   1 0.66719-0.70895-0.73871 0.61871 0.09567 0.33848
  -1   0  -621576.91 2556.39   1 0.74609-0.70454-0.58122 0.70120-0.32484-0.10921
  -1   0  -622263.38 1910.43   1 0.31608-0.27458 0.94702-0.82689 0.05690-0.49076
   1   0   621476.05  666.95   1 0.45272-0.49419 0.74751-0.86778 0.48607-0.05212
   1   0   713210.52  936.12   1 0.64672-0.70888-0.74801 0.60803 0.14906 0.35746
  -1   0  -712425.14 1511.78   1 0.74600-0.68408-0.57086 0.71084-0.34290-0.16349
  -1   0  -713050.34 1049.03   1 0.30291-0.24104 0.95270-0.81254 0.02454-0.53071
   1   0   713964.33 1708.32   1 0.46163-0.52350 0.71138-0.85169 0.52993-0.02378
   1   0   854305.58 4277.70   1 0.62573-0.70833-0.75442 0.59439 0.19825 0.38072
  -1   0  -855643.75 1747.25   1 0.74543-0.66313-0.55748 0.71746-0.36542-0.21331
  -1   0  -852418.59 4584.39   1 0.28794-0.20570 0.95758-0.79740-0.01118-0.56729
   1   0   855793.39 1603.44   1 0.46900-0.55125 0.67395-0.83430 0.57080 0.00764
   1   0   9 1571.71  169.49   1 0.60403-0.70705-0.75849 0.57846 0.24460 0.40675
  -1   0  -9 1605.42  241.68   1 0.74414-0.64146-0.54170 0.72167-0.39089-0.26018
  -1   0  -9 1519.61  170.54   1 0.27140-0.16879 0.96119-0.78099-0.04949-0.60129
   1   0   9 1602.07  232.04   1 0.47484-0.57746 0.63497-0.81536 0.60937 0.04139
   1   0  1036987.57 2909.12   1 0.58143-0.70487-0.76053 0.56050 0.28899 0.43473
  -1   0 -1035201.78 4450.07   1 0.74196-0.61891-0.52384 0.72381-0.41841-0.30501
   1   0  1037053.71 1418.74   1 0.47922-0.60222 0.59415-0.79459 0.64599 0.07707
   1   0  1168312.82 6081.58   1 0.55777-0.70163-0.76069 0.54066 0.33199 0.46410
   1   0  1172715.83 2651.39   1 0.48217-0.62554 0.55125-0.77174 0.68089 0.11448
   1   0  1212797.28 1618.60   1 0.53292-0.69719-0.75904 0.51900 0.37395 0.49451
  -1   0 -1212907.38 1931.69   1 0.73433-0.57052-0.48246 0.72242-0.47747-0.39063
   1   0  1213670.23 1614.32   1 0.48339-0.64753 0.50596-0.74655 0.71437 0.15282
  -1  -1  11 1591.53  201.39   1 0.49912-0.80859-0.75424 0.45810 0.42660 0.36920
   1   1 -11 1427.12  138.09   1 0.27156 0.03781 0.96116-0.66456-0.04914-0.74626
  -1  -1  11 1391.55  205.62   1 0.47522-0.78494 0.32217-0.61910 0.81875-0.02382
  -1  -1  10 9362.51  646.94   1 0.52182-0.81118-0.75777 0.48142 0.39175 0.33197
   1   1 -10 8359.97 1035.43   1 0.74459-0.45563-0.54640 0.82267-0.38344-0.33998
   1   1 -10 9387.66  764.02   1 0.29766-0.00866 0.95459-0.67802 0.01188-0.73498
  -1  -1  10 9805.29  879.11   1 0.47847-0.76779 0.35896-0.63584 0.80137-0.07871
  -1  -1   9 2508.86  378.70   1 0.54325-0.81220-0.75994 0.50359 0.35687 0.29448
   1   1  -9 1524.78  197.01   1 0.74593-0.47735-0.56826 0.82454-0.34735-0.30373
   1   1  -9 1249.82  107.27   1 0.32281-0.05419 0.94357-0.68702 0.07381-0.72460
  -1  -1   9 1083.69  189.67   1 0.48070-0.74961 0.39126-0.64809 0.78474-0.13435
  -1  -1   861981.24 4943.83   1 0.56327-0.81180-0.76082 0.52447 0.32228 0.25669
   1   1  -861801.81 6200.52   1 0.74595-0.49775-0.58877 0.82505-0.31129-0.26745
   1   1  -864382.09 4821.23   1 0.34734-0.09919 0.92762-0.69098 0.13735-0.71603
  -1  -1   862721.10 2069.42   1 0.48211-0.73061 0.41860-0.65538 0.76963-0.19150
  -1  -1   7 2312.43  201.78   1 0.58190-0.81001-0.76051 0.54417 0.28810 0.21850
   1   1  -7 2033.37  252.79   1 0.74476-0.51682-0.60798 0.82423-0.27510-0.23136
   1   1  -7 2033.45  154.19   1 0.37131-0.14352 0.90586-0.68925 0.20381-0.71015
  -1  -1   7 2213.97  324.03   1 0.48289-0.71098 0.44007-0.65680 0.75706-0.25120
  -1  -1   636434.14 2676.62   1 0.59914-0.80683-0.75911 0.56277 0.25451 0.17972
   1   1  -636224.08 1102.47   1 0.74232-0.53477-0.62592 0.82218-0.23910-0.19501
   1   1  -637159.85 2975.82   1 0.39504-0.18762 0.87661-0.68004 0.27474-0.70875
  -1  -1   633920.15  936.05   1 0.48324-0.69093 0.45402-0.65070 0.74855-0.31496
  -1  -1   5 8481.87  830.54   1 0.61492-0.80220-0.75673 0.58040 0.22184 0.14001
   1   1  -5 7668.72 1075.92   1 0.73873-0.55157-0.64264 0.81891-0.20317-0.15858
   1   1  -5 7213.17  830.51   1 0.41867-0.23164 0.83677-0.66018 0.35287-0.71448
  -1  -1   5 6566.11 1075.25   1 0.48330-0.67058 0.45738-0.63402 0.74646-0.38513
  -1  -1   4 1360.39  121.76   1 0.62909-0.79595-0.75357 0.59724 0.19069 0.09879
   1   1  -4 1249.25  179.18   1 0.73403-0.56726-0.65816 0.81444-0.16736-0.12204
   1   1  -4 1368.64  141.53   1 0.44248-0.27581 0.78022-0.62368 0.44210-0.73139
  -1  -1   4 1213.99  207.01   1 0.48300-0.64988 0.44421-0.60079 0.75457-0.46550
  -1  -1   3199295.2 2536.32   1 0.64125-0.78767-0.74995 0.61365 0.16234 0.05473
   1   1  -3199794.4 2527.19   1 0.72828-0.58190-0.67248 0.80876-0.13175-0.08529
   1   1  -3189902.7 2222.42   1 0.46533-0.31900 0.69378-0.55730 0.54965-0.76657
  -1  -1   3184634.2 2204.19   1 0.48129-0.62776 0.40177-0.53831 0.77905-0.56225
  -1  -1   226664.77  752.74   1 0.65030-0.77631-0.74663 0.63032 0.14014 0.00457
   1   1  -226196.31  739.02   1 0.72157-0.59559-0.68555 0.80184-0.09662-0.04808
   1   1  -227204.15  695.25   1 0.48245-0.35650 0.54546-0.42902 0.68534-0.82996
  -1  -1   226411.11  688.50   1 0.47291-0.59897 0.30002-0.41651 0.82845-0.68392
  -1  -1   111981.78  269.63   1 0.65197-0.75757-0.74595 0.64964 0.13594-0.06358
   1   1  -112277.23  270.24   1 0.71417-0.60857-0.69714 0.79343-0.06285-0.00949
   1   1  -112088.52  234.06   1 0.46728-0.36161 0.25528-0.15887 0.84644-0.91869
  -1  -1   112257.19  243.58   1 0.43334-0.53901 0.06540-0.16181 0.89885-0.82660
  -1  -1   0273449.9 2726.50   1 0.60287-0.68806-0.75865 0.68232 0.24696-0.24696
   1   1   0260947.2 2599.39   1 0.70824-0.62306-0.70494 0.78125-0.03794 0.03794
   1   1   0258892.6 2677.46   1 0.32889-0.24366-0.28113 0.35754 0.90155-0.90155
  -1  -1   0273703.6 2828.66   1 0.28012-0.36535-0.39821 0.32180 0.87347-0.87347
   1   1   1542616.2 5275.74   1 0.68710-0.62232-0.72562 0.78194 0.03668 0.03568
  -1  -1  -1568921.5 5522.02   1 0.74526-0.81007-0.60236 0.54605-0.28589 0.21354
   1   1   221807.69  351.50   1 0.68003-0.63566-0.73083 0.76714 0.05862 0.08609
  -1  -1  -220593.70  337.31   1 0.72966-0.77408-0.66938 0.63306-0.13971-0.00499
   1   1   3138889.4 1758.34   1 0.66845-0.64450-0.73801 0.75433 0.09217 0.12490
  -1  -1  -3133169.8 1690.88   1 0.72987-0.75390-0.66888 0.65256-0.14096-0.07609
   1   1   3133249.4 1625.92   1 0.29513-0.27100 0.95543-0.93914 0.00584 0.21108
   1   1   464301.98 1622.14   1 0.65536-0.65182-0.74451 0.74082 0.12726 0.16217
  -1  -1  -462475.15 1573.54   1 0.73328-0.73692-0.66025 0.66392-0.16233-0.12707
   1   1   462972.21 1524.01   1 0.35284-0.34910 0.92321-0.92699 0.15220 0.13713
   1   1   5  103.09   34.16   1 0.64104-0.65790-0.75002 0.72634 0.16286 0.19894
  -1  -1  -5  120.46   27.89   1 0.73717-0.72041-0.64835 0.67201-0.19030-0.17145
   1   1   5   94.73   30.83   1 0.38965-0.40628 0.88404-0.90785 0.25811 0.10355
   1   1   6331462.3 5144.82   1 0.62551-0.66282-0.75447 0.71077 0.19874 0.23549
  -1  -1  -6327585.0 5057.05   1 0.74068-0.70353-0.63437 0.67803-0.22125-0.21286
   1   1   6308495.0 4635.84   1 0.41538-0.45239 0.84309-0.88701 0.34152 0.09241
   1   1   7184694.9 3599.18   1 0.60883-0.66656-0.75778 0.69408 0.23469 0.27191
  -1  -1  -7181111.0 3493.81   1 0.74346-0.68592-0.61874 0.68239-0.25379-0.25267
   1   1   7184182.3 3355.99   1 0.43460-0.49198 0.80140-0.86537 0.41093 0.09532
   1   1   8 5027.85  370.08   1 0.59095-0.66910-0.75992 0.67621 0.27071 0.30826
  -1  -1  -8 7388.98  929.26   1 0.74532-0.66739-0.60163 0.68527-0.28729-0.29153
   1   1   8 4844.97  513.85   1 0.44938-0.52712 0.75896-0.84297 0.47120 0.10738
   1   1   9 4140.76  425.83   1 0.57185-0.67042-0.76082 0.65711 0.30679 0.34456
  -1  -1  -9 3957.28  498.55   1 0.74607-0.64789-0.58308 0.68674-0.32152-0.32956
   1   1   9 4101.49  530.33   1 0.46087-0.55898 0.71550-0.81956 0.52502 0.12589
   1   1  1014055.00 1118.09   1 0.55149-0.67047-0.76044 0.63673 0.34289 0.38083
  -1  -1 -1012710.43 1888.53   1 0.74573-0.62717-0.56313 0.68678-0.35604-0.36738
   1   1  1013530.04 1457.93   1 0.46953-0.58806 0.67086-0.79495 0.57399 0.14907
   1   1  11 4681.33  372.20   1 0.52979-0.66919-0.75871 0.61500 0.37903 0.41707
  -1  -1 -11 3998.12  620.06   1 0.74414-0.60521-0.54173 0.68538-0.39085-0.40491
   1   1  11 4854.03  530.46   1 0.47613-0.61504 0.62442-0.76855 0.61918 0.17619
  -1  -1 -1254057.52 1913.98   1 0.74122-0.58191-0.51884 0.68249-0.42588-0.44223
   1   1  1254695.73 1647.66   1 0.48067-0.63995 0.57597-0.74015 0.66121 0.20647
  -1  -2  1013987.39 1267.26   1 0.54286-0.83668-0.75991 0.40724 0.35752 0.36620
   1   2 -1013410.43 1498.34   1 0.73815-0.44471-0.50092 0.85351-0.45187-0.27155
   1   2 -1013687.69 1519.62   1 0.32724-0.03388 0.94113-0.58805 0.08475-0.80811
  -1  -2  1013990.97 1557.16   1 0.47059-0.76453 0.28142-0.63445 0.83626-0.11379
  -1  -2   953676.60 3638.81   1 0.56618-0.83959-0.76085 0.42818 0.31707 0.33428
   1   2  -955244.73 1837.52   1 0.74153-0.46846-0.52089 0.85348-0.42283-0.22825
   1   2  -951873.66 3856.82   1 0.35288-0.07988 0.92318-0.59014 0.15231-0.80333
  -1  -2   953588.16 1633.14   1 0.47378-0.74719 0.30804-0.64126 0.82500-0.17461
  -1  -2   816778.19 1637.06   1 0.58835-0.84133-0.76012 0.44745 0.27577 0.30320
   1   2  -817275.08 1987.65   1 0.74385-0.49116-0.53893 0.85152-0.39526-0.18348
   1   2  -817815.35  987.29   1 0.37756-0.12493 0.89899-0.58598 0.22194-0.80063
  -1  -2   817892.48 2288.10   1 0.47588-0.72888 0.32893-0.64210 0.81568-0.23755
  -1  -2   717631.58 1306.00   1 0.60949-0.84206-0.75768 0.46501 0.23331 0.27329
   1   2  -717106.13 1423.57   1 0.40135-0.16909 0.86722-0.57425 0.29467-0.80102
  -1  -2   716342.56 2043.26   1 0.47713-0.70972 0.34267-0.63579 0.80927-0.30340
  -1  -2   687974.73 2370.48   1 0.62976-0.84192-0.75339 0.48073 0.18916 0.24507
   1   2  -690633.32 2404.19   1 0.74593-0.53399-0.56840 0.84100-0.34712-0.08693
   1   2  -689896.35 2221.05   1 0.42408-0.21222 0.82571-0.55272 0.37194-0.80588
  -1  -2   5  609.84   60.82   1 0.64938-0.84110-0.74699 0.49438 0.14244 0.21936
   1   2  -5  645.92   72.86   1 0.74610-0.55453-0.57890 0.83151-0.32892-0.03278
   1   2  -5  626.92   75.16   1 0.44564-0.25415 0.77084-0.51789 0.45519-0.81681
  -1  -2   5 1088.49  150.83   1 0.47683-0.66861 0.33933-0.59235 0.81085-0.44951
  -1  -2   433819.42 3199.36   1 0.66865-0.83996-0.73790 0.50528 0.09161 0.19782
   1   2  -434654.97 3218.91   1 0.74604-0.57485-0.58515 0.81776-0.31782 0.02845
   1   2  -434465.78  676.80   1 0.46480-0.29364 0.69640-0.46353 0.54677-0.83600
  -1  -2   434090.82  720.18   1 0.47431-0.64568 0.31313-0.54610 0.82278-0.53371
  -1  -2   3177739.5 3260.13   1 0.68810-0.83900-0.72484 0.51222 0.03349 0.18358
   1   2  -3179012.6 3274.78   1 0.74605-0.59524-0.58442 0.79703-0.31913 0.10210
   1   2  -3180396.4 3195.26   1 0.47946-0.32867 0.59144-0.37861 0.64830-0.86523
  -1  -2   3176274.9 3158.97   1 0.46771-0.61872 0.25847-0.47133 0.84524-0.62850
  -1  -2   2182837.1 2248.89   1 0.70861-0.83909-0.70450 0.51188-0.03937 0.18409
   1   2  -2178658.0 2201.74   1 0.74597-0.61553-0.56959 0.76220-0.34509 0.20041
   1   2  -2174974.7 2070.86   1 0.48279-0.35223 0.43676-0.24389 0.75904-0.90357
  -1  -2   2176145.0 2129.39   1 0.45186-0.58246 0.15717-0.35001 0.87812-0.73363
  -1  -2   1757141.6 7618.89   1 0.73124-0.84133-0.66557 0.49297-0.14927 0.22162
   1   2  -1765228.3 7669.86   1 0.74078-0.63072-0.51602 0.68863-0.43005 0.35771
   1   2  -1793440.0 7948.75   1 0.45990-0.34972 0.20463-0.03182 0.86406-0.93631
  -1  -2   1770049.0 7754.65   1 0.41279-0.52304-0.01934-0.15344 0.91061-0.83838
  -1  -2   0132253.0 1437.58   1 0.74395-0.83364-0.53985 0.38723-0.39381 0.39381
   1   2   0135004.2 1459.27   1 0.66160-0.57198-0.28579 0.43845-0.69324 0.69324
  -1  -2   0143856.9 1717.97   1 0.32418-0.41397-0.29325 0.14043 0.89939-0.89939
  -1  -2  -1 1501.41  195.06   1 0.24925-0.31835 0.27195-0.40478-0.92947 0.85720
   1   2   1 1201.65  136.46   1-0.17422 0.24339 0.61325-0.48039-0.77043 0.84260
   1   2   1 1492.64  153.76   1 0.24122-0.17193-0.48034 0.61318 0.84325-0.77100
  -1  -2  -1 3493.50  459.56   1 0.16821-0.23750-0.61214 0.47930 0.77264-0.84489
  -1  -2  -2  306.74   51.58   1 0.59295-0.64176-0.75974 0.64711 0.26681-0.41156
   1   2   3307951.3 3361.79   1 0.52614-0.49774-0.75830 0.85093 0.38489-0.16777
  -1  -2  -3301616.5 3349.24   1 0.66637-0.69481-0.73915 0.64652 0.09793-0.31502
   1   2   4 6030.54  630.04   1 0.55924-0.55126-0.76074 0.83337 0.32941-0.03992
  -1  -2  -4 5337.15  644.79   1 0.69608-0.70410-0.71792 0.64530 0.00690-0.29634
   1   2   5286682.0 5061.32   1 0.56727-0.57970-0.76085 0.81348 0.31512 0.04673
  -1  -2  -5280253.1 4941.06   1 0.71330-0.70104-0.69835 0.64571-0.05913-0.30263
   1   2   5270584.9 4661.03   1 0.31638-0.32850 0.94687-0.89427 0.05765 0.30389
   1   2   631401.42 2899.15   1 0.56484-0.59769-0.76084 0.79346 0.31948 0.11475
  -1  -2  -631296.25  883.45   1 0.72500-0.69235-0.67926 0.64661-0.11390-0.32021
   1   2   631799.50  783.74   1 0.36221-0.39473 0.91493-0.88241 0.17803 0.25597
   1   2   714126.41 1087.47   1 0.55676-0.61003-0.76066 0.77328 0.33376 0.17284
  -1  -2  -713844.68 1545.79   1 0.73336-0.68032-0.66003 0.64737-0.16287-0.34359
   1   2   713434.73 1634.76   1 0.39537-0.44827 0.87613-0.86365 0.27579 0.23055
   1   2   860790.80 4882.05   1 0.54502-0.61871-0.76006 0.75268 0.35390 0.22507
  -1  -2  -863759.76 1823.92   1 0.73932-0.66589-0.64027 0.64760-0.20843-0.37038
   1   2   912019.74  753.50   1 0.53055-0.62466-0.75880 0.73141 0.37780 0.27355
  -1  -2  -911640.88 1289.04   1 0.74332-0.64949-0.61972 0.64705-0.25182-0.39934
   1   2   911632.72 1264.96   1 0.43937-0.53303 0.78893-0.81663 0.42957 0.22133
   1   2  10 2264.48  225.32   1 0.51383-0.62836-0.75667 0.70928 0.40424 0.31948
  -1  -2 -10 2067.36  301.54   1 0.74550-0.63144-0.59821 0.64556-0.29386-0.42956
   1   2  10 2444.80  290.06   1 0.45419-0.56822 0.74220-0.78994 0.49279 0.23044
   1   2  11 5889.63  443.42   1 0.49526-0.62992-0.75352 0.68634 0.43232 0.36348
   1   2  11 6418.91  577.69   1 0.46534-0.59978 0.69373-0.76151 0.54971 0.24566
   1   2  1210891.37 1103.84   1 0.47471-0.62976-0.74921 0.66205 0.46186 0.40629
  -1  -2 -1210338.41 1813.85   1 0.74503-0.59021-0.55170 0.63904-0.37489-0.49322
   1   2  1210721.09 1398.07   1 0.47377-0.62859 0.64301-0.73084 0.60171 0.26597
  -1  -3  1017715.42 1426.63   1 0.55896-0.85723-0.76073 0.33174 0.32991 0.39381
   1   3 -1016393.56 1674.08   1 0.34950-0.05166 0.92593-0.49649 0.14314-0.86649
  -1  -3  1019425.09 1869.70   1 0.46021-0.75866 0.20662-0.63604 0.86342-0.14096
  -1  -3   9 4393.12  337.52   1 0.58362-0.86148-0.76042 0.35143 0.28483 0.36651
   1   3  -9 4599.44  462.38   1 0.73107-0.45351-0.46871 0.87761-0.49581-0.15527
   1   3  -9 4710.06  392.95   1 0.37473-0.09726 0.90217-0.49276 0.21368-0.86470
  -1  -3   9 4579.50  484.88   1 0.46362-0.74165 0.22906-0.63846 0.85590-0.20569
  -1  -3   861396.42 4305.57   1 0.60719-0.86463-0.75804 0.36905 0.23809 0.34088
   1   3  -861199.82 6040.02   1 0.73460-0.47742-0.48371 0.87261-0.47578-0.10296
   1   3  -858832.65 4474.93   1 0.39861-0.14151 0.87139-0.48202 0.28596-0.86465
  -1  -3   859432.60 2057.77   1 0.46588-0.72350 0.24497-0.63435 0.85025-0.27228
  -1  -3   7120179.8 3786.11   1 0.62980-0.86683-0.75338 0.38440 0.18907 0.31754
   1   3  -7120014.3 3742.61   1 0.73712-0.50031-0.49565 0.86455-0.45931-0.04708
   1   3  -7121643.0 3624.67   1 0.42094-0.18427 0.83223-0.46284 0.36081-0.86707
  -1  -3   7113281.9 3487.65   1 0.46699-0.70419 0.25311-0.62246 0.84725-0.34153
  -1  -3   642887.44 2885.97   1 0.65162-0.86823-0.74609 0.39717 0.13681 0.29735
   1   3  -641410.12 1713.18   1 0.73868-0.52225-0.50376 0.85267-0.44783 0.01377
   1   3  -643848.05 3396.55   1 0.44164-0.22533 0.78261-0.43326 0.43869-0.87264
  -1  -3   640308.49 1265.34   1 0.46678-0.68356 0.25154-0.60086 0.84784-0.41436
  -1  -3   512866.43  936.78   1 0.67282-0.86902-0.73548 0.40655 0.07982 0.28197
   1   3  -511684.40 1174.20   1 0.73921-0.54316-0.50671 0.83562-0.44362 0.08190
   1   3  -512508.25 1186.98   1 0.45997-0.26403 0.71937-0.39007 0.52049-0.88211
  -1  -3   511548.93 1441.98   1 0.46480-0.66116 0.23725-0.56656 0.85303-0.49180
  -1  -3   4109892.8 2096.01   1 0.69356-0.86935-0.72022 0.41129 0.01548 0.27395
   1   3  -4110360.7 2133.42   1 0.73834-0.56266-0.50192 0.81083-0.45046 0.16109
   1   3  -4115438.1 2020.69   1 0.47448-0.29885 0.63776-0.32853 0.60673-0.89596
  -1  -3   4114497.0 2098.82   1 0.46006-0.63600 0.20564-0.51492 0.86374-0.57475
  -1  -3   3  446.78   59.24   1 0.71379-0.86916-0.69767 0.40878-0.06122 0.27828
   1   3  -3  408.29   65.11   1 0.73470-0.57940-0.48416 0.77308-0.47517 0.25814
   1   3  -3  340.58   53.20   1 0.48304-0.32779 0.53070-0.24151 0.69643-0.91335
  -1  -3   3  505.63   73.96   1 0.45049-0.60601 0.14963-0.43889 0.88015-0.66341
  -1  -3   2189076.8 3372.05   1 0.73292-0.86790-0.66124 0.39235-0.15992 0.30463
   1   3  -2190288.5 3384.74   1 0.72344-0.58857-0.44121 0.71015-0.53099 0.38634
   1   3  -2186101.9 3283.50   1 0.48052-0.34546 0.38833-0.11907 0.78631-0.93084
  -1  -3   2186170.8 3333.38   1 0.43190-0.56700 0.05898-0.32821 0.89999-0.75549
  -1  -3   1309093.5 3383.81   1 0.74579-0.86035-0.59284 0.34392-0.30383 0.37617
   1   3  -1307212.4 3355.04   1 0.68704-0.57255-0.34109 0.59003-0.64157 0.56925
   1   3  -1305533.2 3400.70   1 0.45931-0.34462 0.20091 0.04828 0.86525-0.93749
  -1  -3   1308603.8 3478.39   1 0.39642-0.51121-0.07896-0.17023 0.91466-0.84242
  -1  -3   027751.46  696.19   1 0.72000-0.81412-0.42983 0.20089-0.54482 0.54482
   1   3   027113.88  697.94   1 0.54862-0.45457-0.09154 0.32052-0.83103 0.83103
   1   3   027234.56  752.72   1 0.40884-0.31449-0.03426 0.26349 0.91195-0.91195
  -1  -3   027769.03  780.36   1 0.33277-0.42711-0.27097 0.04174 0.90323-0.90323
  -1  -3  -129675.63  706.28   1 0.48122-0.55477 0.00380-0.21291-0.87659 0.80429
   1   3   129707.25  705.82   1 0.10617-0.03272 0.40619-0.19703-0.90759 0.97985
   1   3   130673.71  840.73   1 0.32369-0.24986-0.29451 0.50382 0.89915-0.82688
  -1  -3  -128796.83  799.26   1 0.23121-0.30509-0.49995 0.29071 0.83461-0.90686
  -1  -3  -2101805.2 2220.70   1-0.01570-0.03736 0.50547-0.69478-0.86269 0.71824
   1   3   2101021.4 2205.89   1-0.36918 0.42219 0.71404-0.52474-0.59483 0.73918
   1   3   2102776.8 2347.31   1 0.21549-0.16216-0.52974 0.71900 0.82032-0.67582
  -1  -3  -3261700.6 2921.12   1 0.55853-0.59138-0.76072 0.59176 0.33067-0.54779
  -1  -3  -3261444.2 2903.69   1-0.29953 0.26716 0.68292-0.85226-0.66624 0.44973
   1   3   3263366.0 3060.02   1 0.11087-0.07809-0.69923 0.86850 0.70624-0.48948
   1   3   454407.32 1385.51   1 0.41313-0.40060-0.73165 0.88067 0.54221-0.25282
  -1  -3  -453541.93 1367.05   1 0.63544-0.64793-0.75180 0.60286 0.17609-0.46554
   1   3   5264876.8 4685.36   1 0.46149-0.46934-0.74600 0.87504 0.48010-0.11837
  -1  -3  -5261438.5 4628.44   1 0.67541-0.66749-0.73388 0.60494 0.07234-0.43415
   1   3   616791.19 1454.07   1 0.48193-0.51018-0.75082 0.85988 0.45165-0.01757
  -1  -3  -615440.69 1874.73   1 0.69997-0.67165-0.71413 0.60518-0.00682-0.42734
   1   3   616120.93 1892.97   1 0.29728-0.32529 0.95472-0.84578 0.01098 0.42288
   1   3   751775.60 4413.40   1 0.48825-0.53689-0.75215 0.84122 0.44256 0.06386
  -1  -3  -752216.72 1377.92   1 0.71645-0.66791-0.69381 0.60485-0.07283-0.43363
   1   3   755738.21 1299.70   1 0.34587-0.39429 0.92875-0.83990 0.13339 0.37295
   1   3   820018.15 1467.25   1 0.48632-0.55534-0.75175 0.82084 0.44536 0.13340
  -1  -3  -819650.82 2254.94   1 0.72810-0.65917-0.67288 0.60391-0.13073-0.44808
   1   3   821130.41 2095.64   1 0.38259-0.45138 0.89305-0.82424 0.23680 0.34187
   1   3   940572.92 3115.12   1 0.47894-0.56836-0.75017 0.79928 0.45590 0.19521
  -1  -3  -939332.34 4752.14   1 0.73629-0.64697-0.65128 0.60230-0.18357-0.46760
   1   3   940208.12 1182.01   1 0.41080-0.50000 0.85143-0.80277 0.32603 0.32487
  -1  -3 -1010013.13 1156.39   1 0.74179-0.63207-0.62885 0.59987-0.23298-0.49053
   1   3  1010792.45  957.56   1 0.43283-0.54240 0.80578-0.77717 0.40418 0.31905
   1   3  11  884.10  251.35   1 0.45317-0.58337-0.74381 0.75295 0.49129 0.30452
  -1  -3 -11  754.52  222.95   1 0.74500-0.61489-0.60545 0.59646-0.27999-0.51588
   1   3  11  806.98  218.07   1 0.44997-0.57990 0.75700-0.74844 0.47378 0.32178
   1   3  12 3472.24  475.51   1 0.43606-0.58665-0.73894 0.72810 0.51361 0.35454
  -1  -3 -12 3556.44  470.81   1 0.74609-0.59576-0.58094 0.59198-0.32532-0.54278
   1   3  12 3499.25  465.36   1 0.46288-0.61324 0.70563-0.71710 0.53648 0.33120
  -1  -4   939946.21 3229.23   1 0.59626-0.87858-0.75942 0.27411 0.26026 0.39109
   1   4  -936469.57 3970.98   1 0.71435-0.43242-0.41236 0.89760-0.56537-0.08554
   1   4  -936744.34 3420.47   1 0.39034-0.10840 0.88313-0.39736 0.26021-0.91123
  -1  -4   936588.14 4401.33   1 0.45126-0.73380 0.15387-0.63966 0.87902-0.22880
  -1  -4   843582.98 2632.89   1 0.62074-0.88264-0.75556 0.29025 0.20927 0.36971
   1   4  -840800.06 4494.15   1 0.71817-0.45661-0.42402 0.88925-0.55175-0.02683
   1   4  -841845.12 3006.46   1 0.41291-0.15141 0.84765-0.38185 0.33314-0.91173
  -1  -4   844344.88 4932.02   1 0.45346-0.71559 0.16614-0.63191 0.87564-0.29767
  -1  -4   7 1170.52  204.68   1 0.64416-0.88566-0.74894 0.30371 0.15531 0.35121
   1   4  -7 1061.49  134.83   1 0.72055-0.47937-0.43161 0.87685-0.54268 0.03641
   1   4  -7 1036.08  125.81   1 0.43368-0.19254 0.80370-0.35795 0.40740-0.91367
  -1  -4   7 1038.31  183.37   1 0.45422-0.69593 0.17048-0.61622 0.87442-0.36869
  -1  -4   6 7606.45  671.81   1 0.66662-0.88771-0.73902 0.31378 0.09725 0.33690
   1   4  -6 8144.29 1019.12   1 0.72129-0.50047-0.43401 0.85925-0.53978 0.10584
   1   4  -6 7631.40  753.35   1 0.45214-0.23137 0.74957-0.32386 0.48343-0.91737
  -1  -4   6 7645.11  924.58   1 0.45329-0.67458 0.16519-0.59091 0.87591-0.44243
  -1  -4   593979.33 2381.40   1 0.68814-0.88881-0.72480 0.31957 0.03336 0.32844
   1   4  -594777.39 2373.96   1 0.71983-0.51939-0.42927 0.83452-0.54549 0.18387
   1   4  -597160.78 2310.00   1 0.46741-0.26695 0.68287-0.27724 0.56142-0.92296
  -1  -4   591549.27 2298.59   1 0.45015-0.65102 0.14782-0.55352 0.88062-0.51939
  -1  -4   454102.77 3739.55   1 0.70856-0.88883-0.70455 0.31931-0.03920 0.32865
   1   4  -449855.48 3866.97   1 0.71489-0.53482-0.41398 0.79923-0.56350 0.27421
   1   4  -453424.44 1272.98   1 0.47866-0.29858 0.60034-0.21475 0.64067-0.92990
  -1  -4   452129.94 1334.55   1 0.44381-0.62427 0.11493-0.50060 0.88871-0.59972
  -1  -4   386584.92 1707.62   1 0.72714-0.88701-0.67493 0.30974-0.12537 0.34243
   1   4  -385741.60 1676.60   1 0.70341-0.54372-0.38174 0.74698-0.59956 0.38259
   1   4  -384927.10 1603.11   1 0.48349-0.32353 0.49755-0.13185 0.72018-0.93698
  -1  -4   383742.43 1669.72   1 0.43253-0.59256 0.06178-0.42743 0.89949-0.68275
  -1  -4   2150127.4 2803.97   1 0.74182-0.88130-0.62867 0.28347-0.23336 0.37807
   1   4  -2152184.5 2824.62   1 0.67771-0.53839-0.31985 0.66510-0.66211 0.51746
   1   4  -2153764.1 2841.41   1 0.47933-0.33977 0.37037-0.02472 0.79564-0.94018
  -1  -4   2148980.6 2830.22   1 0.41321-0.55297-0.01771-0.32785 0.91045-0.76598
  -1  -4   188318.64 1782.38   1 0.74484-0.86389-0.54933 0.22409-0.37873 0.45108
   1   4  -189076.14 1714.71   1 0.61724-0.49839-0.20213 0.52744-0.76035 0.68803
   1   4  -188555.14 1760.29   1 0.46147-0.34226 0.21468 0.11091 0.86078-0.93303
  -1  -4   190444.14 1844.35   1 0.38132-0.50065-0.12935-0.19625 0.91534-0.84310
  -1  -4   0171587.9 2023.83   1 0.70923-0.80781-0.39758 0.09233-0.58216 0.58216
   1   4   0167942.5 1980.30   1 0.47137-0.37310 0.01686 0.28855-0.88177 0.88177
   1   4   0174905.1 2219.26   1 0.42541-0.32651 0.03116 0.27447 0.90446-0.90446
  -1  -4   0171907.2 2245.37   1 0.33091-0.42979-0.27587-0.02976 0.90243-0.90243
  -1  -4  -189008.64 1982.85   1 0.55895-0.63707-0.10713-0.17817-0.82224 0.74992
   1   4   188683.95 1974.80   1 0.16898-0.09119 0.34966-0.06416-0.92150 0.99376
   1   4   190605.75 2139.51   1 0.36842-0.28995-0.16960 0.45526 0.91405-0.84181
  -1  -4  -187747.40 2097.57   1 0.25638-0.33484-0.44958 0.16392 0.85565-0.92790
  -1  -4  -2 1758.27  223.08   1 0.24739-0.30479 0.27383-0.53949-0.92941 0.78488
   1   4   2 1642.23  188.71   1-0.20102 0.25852 0.62950-0.36378-0.75054 0.89489
   1   4   2 2038.33  279.85   1 0.29439-0.23651-0.36578 0.63156 0.88291-0.73836
  -1  -4  -2 1846.86  215.53   1 0.15865-0.21656-0.62760 0.36193 0.76219-0.90670
  -1  -4  -3111792.3 2523.14   1 0.43874-0.47613-0.73974 0.49441 0.51018-0.72722
  -1  -4  -3112061.9 2515.28   1-0.05086 0.01386 0.53172-0.77750-0.84539 0.62872
   1   4   3105784.6 2482.13   1 0.21355-0.17619-0.53331 0.77900 0.81851-0.60175
  -1  -4  -425749.94  571.01   1 0.56096-0.57785-0.76078 0.53551 0.32639-0.61588
  -1  -4  -424498.40  933.66   1-0.23164 0.21543 0.64720-0.87298-0.72626 0.43758
   1   4   425743.28  624.62   1 0.13862-0.12181-0.65873 0.88443 0.73948-0.45048
  -1  -4  -5 4791.58  647.37   1 0.62733-0.62380-0.75402 0.54875 0.19466-0.55653
  -1  -4  -5 5365.02  304.75   1-0.32642 0.33085 0.69565-0.90147-0.63993 0.27907
  -1  -4  -6156858.6 2724.14   1 0.66762-0.64377-0.73847 0.55322 0.09450-0.52866
  -1  -4  -6157124.2 2710.61   1-0.37654 0.40161 0.71697-0.90283-0.58665 0.15361
  -1  -4  -7 7350.99  917.00   1 0.69422-0.64996-0.71963 0.55438 0.01328-0.51980
   1   4   7 7573.52  742.82   1 0.29045-0.33433 0.95687-0.79160-0.00528 0.51145
   1   4   825648.70 2169.14   1 0.41388-0.47845-0.73190 0.87731 0.54130 0.03746
  -1  -4  -822326.55 2807.84   1 0.71265-0.64821-0.69924 0.55397-0.05639-0.52242
   1   4   824702.87 2411.60   1 0.33873-0.40305 0.93389-0.78871 0.11448 0.46419
   1   4   919649.58 1469.72   1 0.41610-0.50105-0.73264 0.85806 0.53860 0.11251
  -1  -4  -919022.40 2068.59   1 0.72582-0.64099-0.67763 0.55236-0.11824-0.53293
   1   4   918146.31 1978.43   1 0.37655-0.46124 0.90013-0.77499 0.21900 0.43201
   1   4  10 2838.20  268.26   1 0.41195-0.51730-0.73125 0.83669 0.54365 0.17981
  -1  -4 -10 2612.51  336.13   1 0.73510-0.62988-0.65501 0.54972-0.17485-0.54866
   1   4  10 2911.23  311.34   1 0.40644-0.51149 0.85906-0.75395 0.31114 0.41220
  -1  -4 -11 8296.99 1002.90   1 0.74131-0.61570-0.63132 0.54603-0.22776-0.56811
   1   4  11 8946.52 1313.47   1 0.42992-0.55540 0.81271-0.72779 0.39326 0.40229
  -1  -4 -12 5675.86  880.61   1 0.74490-0.59890-0.60650 0.54120-0.27797-0.59026
  -1  -4 -12 5961.43  822.31   1-0.39061 0.53954 0.72235-0.78842-0.57063-0.29543
   1   4  12 6582.16  807.15   1 0.44841-0.59426 0.76211-0.69724 0.46701 0.40087
  -1  -5   9 6622.36  539.48   1 0.60469-0.89147-0.75840 0.19677 0.24323 0.40811
   1   5  -9 6148.47  610.39   1 0.69178-0.40539-0.35235 0.91390-0.63029-0.02061
   1   5  -9 6347.43  721.72   1 0.40123-0.11482 0.86741-0.30528 0.29429-0.94531
  -1  -5   9 6503.58  840.03   1 0.43705-0.72410 0.08235-0.64454 0.89565-0.24543
  -1  -5   8  501.50   92.88   1 0.62981-0.89616-0.75338 0.21175 0.18906 0.38992
   1   5  -8  541.34   91.98   1 0.69517-0.42915-0.36064 0.90219-0.62182 0.04323
   1   5  -8  712.49   98.84   1 0.42256-0.15660 0.82891-0.28675 0.36652-0.94511
  -1  -5   8  513.92   89.69   1 0.43911-0.70575 0.09205-0.63421 0.89370-0.31572
  -1  -5   730397.16 1800.43   1 0.65368-0.89965-0.74523 0.22369 0.13159 0.37493
   1   5  -727121.33 3089.78   1 0.69650-0.45086-0.36396 0.88552-0.61838 0.11211
   1   5  -729271.45 2514.68   1 0.44175-0.19617 0.78230-0.26018 0.43915-0.94541
  -1  -5   725710.06 3128.01   1 0.43951-0.68573 0.09393-0.61607 0.89331-0.38758
  -1  -5   6  208.36   59.89   1 0.67633-0.90189-0.73329 0.23175 0.06964 0.36452
   1   5  -6  235.44   52.04   1 0.69529-0.47002-0.36093 0.86249-0.62152 0.18757
   1   5  -6  297.78   49.61   1 0.45831-0.23309 0.72628-0.22421 0.51230-0.94625
  -1  -5   6  764.93  121.50   1 0.43796-0.66376 0.08660-0.58872 0.89481-0.46133
  -1  -5   5  170.84   44.86   1 0.69762-0.90278-0.71645 0.23491 0.00152 0.36028
   1   5  -5  239.82   44.90   1 0.69051-0.48561-0.34929 0.83085-0.63338 0.27176
   1   5  -5  146.48   39.35   1 0.47142-0.26650 0.65917-0.17720 0.58586-0.94740
  -1  -5   5  162.72   29.06   1 0.43394-0.63932 0.06813-0.55023 0.89835-0.53712
  -1  -5   4   48.81   53.97   1 0.71705-0.90181-0.69291 0.23142-0.07551 0.36492
   1   5  -4   69.31   20.33   1 0.68017-0.49564-0.32533 0.78689-0.65690 0.36760
   1   5  -4  128.28   28.36   1 0.48045-0.29591 0.57891-0.11698 0.65879-0.94802
  -1  -5   4   81.22   53.11   1 0.42654-0.61169 0.03592-0.49784 0.90375-0.61480
  -1  -5   3 1171.23   90.94   1 0.73371-0.89808-0.65907 0.21758-0.16518 0.38224
   1   5  -3 1699.77  230.57   1 0.65999-0.49599-0.28251 0.72415-0.69612 0.47915
   1   5  -3 1041.08  111.16   1 0.48355-0.31909 0.48291-0.04082 0.73004-0.94684
  -1  -5   3  891.34  134.72   1 0.41442-0.57915-0.01305-0.42889 0.90998-0.69327
  -1  -5   248146.73 3610.90   1 0.74470-0.88867-0.60859 0.18709-0.27391 0.41862
   1   5  -245427.38  998.76   1 0.62200-0.47836-0.21052 0.63216-0.75418 0.60953
   1   5  -245731.09 1020.52   1 0.47926-0.33520 0.36940 0.05262 0.79614-0.94067
  -1  -5   245955.52 1099.77   1 0.39542-0.53972-0.08240-0.33957 0.91479-0.77031
  -1  -5   148517.18  986.28   1 0.74264-0.86618-0.52880 0.12725-0.41091 0.48325
   1   5  -146473.45  981.45   1 0.54881-0.42553-0.09181 0.49345-0.83088 0.75856
   1   5  -147535.43 1019.88   1 0.46474-0.34103 0.23683 0.16515 0.85318-0.92542
  -1  -5   147522.44 1084.81   1 0.36652-0.49039-0.17532-0.22668 0.91373-0.84150
  -1  -5   0 1624.23  157.28   1 0.70868-0.81172-0.39605 0.01449-0.58386 0.58386
   1   5   0 1934.67  232.91   1 0.40984-0.30720 0.09450 0.28727-0.90724 0.90724
   1   5   0 1622.62  175.66   1 0.43794-0.33465 0.08652 0.29544 0.89482-0.89482
  -1  -5   0 1879.03  258.82   1 0.32434-0.42778-0.29284-0.08921 0.89946-0.89946
  -1  -5  -137087.16  583.09   1 0.60457-0.68712-0.18031-0.18132-0.77587 0.70354
   1   5   137126.25  579.39   1 0.17784-0.09572 0.34139 0.02045-0.92294 0.99519
   1   5   137668.42  753.98   1 0.39733-0.31432-0.07579 0.43787 0.91453-0.84230
  -1  -5  -136488.48  776.18   1 0.26520-0.34813-0.43068 0.06855 0.86265-0.93493
  -1  -5  -254292.01 1113.36   1 0.40107-0.46304 0.10506-0.44693-0.90999 0.76540
   1   5   255659.54 1160.33   1-0.10540 0.16721 0.57024-0.22826-0.81468 0.95913
   1   5   254150.09 1259.56   1 0.34465-0.28223-0.23901 0.58121 0.90778-0.76324
  -1  -5  -252610.97 2416.79   1 0.18890-0.25140-0.57733 0.23525 0.79435-0.93885
  -1  -5  -3 1694.57  117.29   1 0.15581-0.19720 0.36182-0.68394-0.91913 0.70237
   1   5   3 1917.20  256.22   1-0.33914 0.38049 0.70136-0.37920-0.62694 0.84346
   1   5   3 1942.24  189.84   1 0.28397-0.24205-0.38959 0.71186 0.87611-0.65929
  -1  -5  -4  900.90  149.81   1 0.48663-0.50809-0.75182 0.45016 0.44491-0.73429
  -1  -5  -4 1120.34  119.91   1-0.04209 0.02116 0.52527-0.82754-0.84988 0.56099
   1   5   4 1830.69  228.83   1 0.22249-0.20109-0.51664 0.81875 0.82678-0.53777
  -1  -5  -543960.26  996.18   1 0.57554-0.57647-0.76075 0.47916 0.30001-0.66187
  -1  -5  -542205.65 3126.48   1-0.17425 0.17419 0.61326-0.89550-0.77041 0.40955
   1   5   543331.39 1025.19   1 0.16643-0.16558-0.61505 0.89717 0.77071-0.40945
  -1  -5  -621142.04  731.59   1 0.63137-0.61201-0.75296 0.49140 0.18548-0.61964
  -1  -5  -623736.59 1551.38   1-0.25362 0.27420 0.65931-0.92158-0.70779 0.27476
   1   5   622551.78 1613.04   1 0.11973-0.13943-0.68662 0.94875 0.71708-0.28357
  -1  -5  -7156092.3 3512.06   1 0.66851-0.62873-0.73798 0.49642 0.09201-0.59854
  -1  -5  -7155207.7 3641.30   1-0.30101 0.34223 0.68365-0.92595-0.66484 0.15963
  -1  -5  -847872.31 1514.10   1 0.69442-0.63423-0.71945 0.49789 0.01259-0.59148
  -1  -5  -852065.50 4546.01   1-0.32817 0.39004 0.69645-0.91878-0.63816 0.06079
   1   5   850481.32 1437.67   1 0.29208-0.35184 0.95639-0.73478-0.00142 0.57990
  -1  -5  -9 5052.68  744.15   1 0.71290-0.63256-0.69890 0.49732-0.05744-0.59373
  -1  -5  -9 5306.48  507.00   1-0.34207 0.42458 0.70265-0.90502-0.62391-0.02563
   1   5   9 5524.42  615.28   1 0.33865-0.41887 0.93394-0.73243 0.11428 0.53672
  -1  -5 -10 8055.61  746.17   1 0.72626-0.62554-0.67674 0.49516-0.12061-0.60291
  -1  -5 -10 7996.19  686.47   1-0.34680 0.44995 0.70471-0.88711-0.61895-0.10276
   1   5  10 8565.09  757.37   1 0.37614-0.47673 0.90059-0.71912 0.21780 0.50555
  -1  -5 -11 4921.49  791.21   1 0.73567-0.61456-0.65325 0.49166-0.17897-0.61690
  -1  -5 -11 4457.33  671.53   1-0.34484 0.46864 0.70386-0.86630-0.62101-0.17288
   1   5  11 5266.59  389.25   1 0.40635-0.52730 0.85920-0.69777 0.31086 0.48482
  -1  -5 -12  463.07   97.35   1 0.74186-0.60035-0.62847 0.48687-0.23378-0.63444
  -1  -5 -12  672.49  103.65   1-0.33773 0.48217 0.70074-0.84322-0.62840-0.23766
   1   5  12  571.06  121.27   1 0.43038-0.57178 0.81163-0.67039 0.39499 0.47289
  -1  -6   8 2567.60  268.88   1 0.63500-0.90586-0.75193 0.13407 0.17710 0.40177
   1   6  -8 2802.17  464.78   1 0.66586-0.39539-0.29440 0.91226-0.68553 0.10693
   1   6  -8 2436.85  275.45   1 0.42876-0.15835 0.81539-0.19687 0.38896-0.96755
  -1  -6   8 2163.66  393.52   1 0.42323-0.69463 0.02210-0.64031 0.90575-0.32785
  -1  -6   7  237.43   74.51   1 0.65920-0.90965-0.74276 0.14491 0.11726 0.38926
   1   6  -7  660.56  103.57   1 0.66556-0.41547-0.29379 0.89165-0.68607 0.17980
   1   6  -7  342.18   63.14   1 0.44666-0.19662 0.76769-0.16922 0.45949-0.96576
  -1  -6   7  282.57   51.01   1 0.42332-0.67429 0.02248-0.62072 0.90569-0.40003
  -1  -6   615313.50  941.71   1 0.68190-0.91194-0.72952 0.15166 0.05292 0.38124
   1   6  -615218.80 1510.86   1 0.66178-0.43205-0.28596 0.86383-0.69301 0.25906
   1   6  -614764.87 1858.09   1 0.46159-0.23183 0.71154-0.13316 0.52975-0.96359
  -1  -6   613868.27 1564.05   1 0.42130-0.65184 0.01418-0.59245 0.90681-0.47338
  -1  -6   528173.66 1680.84   1 0.70289-0.91251-0.71108 0.15322-0.01744 0.37924
   1   6  -524315.62 2522.00   1 0.65295-0.44379-0.26840 0.82637-0.70824 0.34662
   1   6  -527831.76 2366.47   1 0.47338-0.26400 0.64582-0.08749 0.59900-0.96054
  -1  -6   525069.09 2606.51   1 0.41668-0.62680-0.00424-0.55405 0.90903-0.54785
  -1  -6   4 3486.24  246.67   1 0.72148-0.91073-0.68572 0.14793-0.09616 0.38557
   1   6  -4 3217.51  285.80   1 0.63706-0.44827-0.23793 0.77590-0.73316 0.44387
   1   6  -4 3052.46  300.18   1 0.48113-0.29211 0.56928-0.03100 0.66665-0.95587
  -1  -6   4 2946.14  362.67   1 0.40874-0.59843-0.03464-0.50368 0.91199-0.62303
  -1  -6   317192.75 1217.61   1 0.73663-0.90549-0.65018 0.13238-0.18611 0.40317
   1   6  -315573.77 1269.53   1 0.60961-0.44118-0.18890 0.70687-0.76986 0.55289
   1   6  -313955.26 1461.06   1 0.48355-0.31458 0.48045 0.03801 0.73166-0.94846
  -1  -6   313369.78 1857.00   1 0.39637-0.56563-0.07914-0.43921 0.91467-0.69795
  -1  -6   2 1187.34  146.47   1 0.74549-0.89396-0.59924 0.10144-0.29179 0.43650
   1   6  -2  683.76   84.95   1 0.56290-0.41483-0.11319 0.61115-0.81873 0.67408
   1   6  -2 1003.82  102.77   1 0.47991-0.33135 0.37874 0.11968 0.79135-0.93588
  -1  -6   2  932.96  140.58   1 0.37800-0.52683-0.13995-0.35844 0.91516-0.77069
  -1  -6   112611.67  909.42   1 0.74194-0.86997-0.52371 0.04585-0.41861 0.49095
   1   6  -111547.64 1145.19   1 0.48388-0.35654 0.00024 0.47784-0.87513 0.80283
   1   6  -111730.67 1121.20   1 0.46838-0.34016 0.26364 0.21474 0.84327-0.91551
  -1  -6   110914.86 1376.70   1 0.35187-0.48036-0.21892-0.25946 0.91008-0.83781
  -1  -6   0229758.2 3512.08   1 0.71320-0.82069-0.40898-0.04889-0.56927 0.56927
   1   6   0224010.1 3407.26   1 0.35501-0.24824 0.15877 0.29936-0.92128 0.92128
   1   6   0227023.1 3617.39   1 0.44802-0.34022 0.13648 0.32187 0.88353-0.88353
  -1  -6   0232513.7 3799.01   1 0.31508-0.42307-0.31616-0.14229 0.89485-0.89485
  -1  -6  -1200194.6 3050.58   1 0.63784-0.72483-0.23939-0.19857-0.73201 0.65968
   1   6   1198281.6 3018.25   1 0.16565-0.07920 0.35275 0.08543-0.92093 0.99319
   1   6   1200540.7 3248.85   1 0.41796-0.33041 0.00081 0.43766 0.90846-0.83622
  -1  -6  -1194987.7 3242.10   1 0.26587-0.35336-0.42924-0.00928 0.86316-0.93544
  -1  -6  -2 6411.01  795.66   1 0.49773-0.56407-0.01851-0.39970-0.86713 0.72253
   1   6   2 6199.77  799.69   1-0.06095 0.12714 0.53905-0.12074-0.84006 0.98450
   1   6   2 5925.84  450.60   1 0.37889-0.31176-0.13713 0.55565 0.91522-0.77074
  -1  -6  -2 5876.66  966.72   1 0.20355-0.27063-0.55152 0.13303 0.80894-0.95344
  -1  -6  -317078.58 1608.02   1 0.31033-0.35604 0.20818-0.60667-0.92755 0.71075
   1   6   314670.39  754.27   1-0.27053 0.31637 0.66828-0.26970-0.69297 0.90948
   1   6   314690.10 1336.98   1 0.33343-0.28696-0.26923 0.66791 0.90350-0.68668
  -1  -6  -316843.31 1687.88   1 0.12947-0.17601-0.67242 0.27391 0.72875-0.94551
  -1  -6  -4  701.29   89.09   1 0.42351-0.44943-0.73505 0.35707 0.52945-0.81884
  -1  -6  -4 1600.13  198.53   1 0.12693-0.15229 0.38791-0.76652-0.91291 0.62389
   1   6   4  526.27   46.12   1 0.28467-0.25870-0.38801 0.76676 0.87658-0.58748
  -1  -6  -589508.67 1832.89   1-0.01731 0.01244 0.50670-0.86545-0.86194 0.50083
   1   6   587316.95 1883.92   1 0.23713-0.23169-0.48843 0.84696 0.83976-0.47850
  -1  -6  -7117829.6 2802.14   1 0.64180-0.60650-0.74976 0.43189 0.16101-0.66754
  -1  -6  -7117102.9 2753.71   1-0.18801 0.22475 0.62170-0.94041-0.76035 0.25514
   1   6   7118376.3 2795.71   1 0.15804-0.19370-0.62857 0.94713 0.76152-0.25575
  -1  -6  -8 1445.10  170.33   1 0.67484-0.61913-0.73424 0.43636 0.07399-0.65288
  -1  -6  -8 1482.13  246.10   1-0.23126 0.28864 0.64698-0.94573-0.72658 0.14920
   1   6   8 1357.76  208.93   1 0.12949-0.18570-0.67240 0.97097 0.72877-0.15075
  -1  -6  -932341.21 3541.71   1 0.69875-0.62263-0.71535 0.43748-0.00244-0.64880
  -1  -6  -933769.84 3839.25   1-0.25780 0.33582 0.66155-0.94033-0.70419 0.05464
   1   6   932997.28 3011.62   1 0.29961-0.37525 0.95391-0.67597 0.01656 0.63422
   1   6   935771.42 1073.42   1 0.10839-0.18515-0.70269 0.98128 0.70318-0.05291
  -1  -6 -10 4702.91  588.66   1 0.71613-0.61991-0.69429 0.43640-0.07141-0.65211
  -1  -6 -10 4704.61  589.02   1-0.27244 0.37110 0.66927-0.92809-0.69126-0.03045
   1   6  10 4735.09  405.98   1 0.34389-0.44001 0.93022-0.67239 0.12813 0.59521
  -1  -6 -11 4746.14  550.73   1 0.72877-0.61216-0.67139 0.43350-0.13456-0.66131
  -1  -6 -11 4190.25  823.92   1-0.27833 0.39764 0.67231-0.91116-0.68594-0.10794
   1   6  11 4885.89  438.40   1 0.38024-0.49672 0.89587-0.65807 0.22982 0.56585
  -1  -6 -1238590.48 1510.19   1 0.73757-0.60056-0.64694 0.42904-0.19351-0.67471
  -1  -6 -1238641.33 1361.31   1-0.27754 0.41749 0.67190-0.89079-0.68666-0.17939
  -1  -7   7 7782.23  944.71   1 0.66131-0.91624-0.74174 0.06758 0.11165 0.39487
   1   7  -7 6961.63  905.09   1 0.62823-0.37391-0.22170 0.89600-0.74576 0.23951
   1   7  -7 7690.01  775.11   1 0.44932-0.19482 0.75916-0.08433 0.47093-0.97720
  -1  -7   7 7263.67  974.99   1 0.40599-0.66150-0.04482-0.62981 0.91277-0.40711
  -1  -7   627604.29 3133.65   1 0.68413-0.91865-0.72789 0.07373 0.04604 0.38812
   1   7  -626357.95 3516.39   1 0.62164-0.38769-0.20989 0.86419-0.75465 0.32071
   1   7  -628396.86 2425.12   1 0.46323-0.22901 0.70399-0.04927 0.53833-0.97217
  -1  -7   625972.21 2761.99   1 0.40367-0.63875-0.05329-0.60138 0.91335-0.47992
  -1  -7   518938.99 1384.50   1 0.70495-0.91905-0.70880 0.07464-0.02518 0.38698
   1   7  -518661.05 1616.68   1 0.60917-0.39558-0.18814 0.82244-0.77039 0.40878
   1   7  -518868.60 1404.73   1 0.47409-0.26025 0.64064-0.00596 0.60398-0.96552
  -1  -7   518126.87 2055.10   1 0.39871-0.61337-0.07095-0.56374 0.91432-0.55313
  -1  -7   462238.19 4234.22   1 0.72305-0.91681-0.68292 0.06883-0.10393 0.39334
   1   7  -461524.78 1341.32   1 0.58828-0.39505-0.15330 0.76759-0.79398 0.50469
   1   7  -459077.85 4479.91   1 0.48118-0.28771 0.56839 0.04624 0.66737-0.95659
  -1  -7   458557.62 1466.99   1 0.39051-0.58474-0.09914-0.51558 0.91524-0.62629
  -1  -7   3  876.66   82.86   1 0.73742-0.91079-0.64745 0.05335-0.19234 0.40940
   1   7  -3  793.79   78.58   1 0.55490-0.38204-0.10098 0.69527-0.82576 0.60879
   1   7  -3  751.23   81.86   1 0.48355-0.31008 0.48643 0.10842 0.72770-0.94450
  -1  -7   3  925.50  126.46   1 0.37820-0.55200-0.13931-0.45545 0.91517-0.69846
  -1  -7   2 8176.71  616.02   1 0.74550-0.89840-0.59823 0.02407-0.29382 0.43850
   1   7  -2 6726.09  751.66   1 0.50247-0.35042-0.02503 0.59944-0.86422 0.71963
   1   7  -2 7780.67  652.16   1 0.48090-0.32784 0.39474 0.18006 0.78287-0.92741
  -1  -7   2 6888.84  869.67   1 0.36061-0.51399-0.19287-0.38192 0.91255-0.76807
  -1  -7   130054.32 2135.73   1 0.74265-0.87517-0.52887-0.02529-0.41080 0.48314
   1   7  -128364.91  719.61   1 0.42208-0.29037 0.07955 0.47489-0.90305 0.83076
   1   7  -129741.58 2602.01   1 0.47216-0.33951 0.29333 0.26143 0.83127-0.90354
  -1  -7   125883.18 2997.14   1 0.33657-0.46961-0.26090-0.29389 0.90478-0.83251
  -1  -7   061380.34 1588.75   1 0.71996-0.83190-0.42969-0.10449-0.54499 0.54499
   1   7   060350.57 1548.47   1 0.30328-0.19219 0.21575 0.31874-0.92815 0.92815
   1   7   060740.54 1666.16   1 0.45642-0.34411 0.18331 0.35144 0.87067-0.87067
  -1  -7   061851.89 1775.33   1 0.30396-0.41650-0.34323-0.19164 0.88870-0.88870
  -1  -7  -183472.85 2000.40   1 0.66469-0.75627-0.29198-0.22220-0.68769 0.61536
   1   7   183771.52 1999.88   1 0.14257-0.05178 0.37388 0.14063-0.91645 0.98870
   1   7   181515.24 2088.97   1 0.43371-0.34181 0.06709 0.44764 0.89854-0.82630
  -1  -7  -178718.91 2093.59   1 0.26164-0.35367-0.43822-0.07671 0.85994-0.93221
  -1  -7  -2174838.5 3067.59   1 0.56427-0.63532-0.11529-0.37899-0.81749 0.67285
   1   7   2180800.2 3174.96   1-0.04526 0.11581 0.52761-0.03296-0.84827 0.99272
   1   7   2172204.2 3230.88   1 0.40419-0.33253-0.05137 0.54629 0.91322-0.76875
  -1  -7  -2172769.5 3304.14   1 0.20897-0.28064-0.54172 0.04681 0.81416-0.95866
  -1  -7  -389840.31 2119.07   1 0.42335-0.47373 0.07799-0.55261-0.90260 0.68570
   1   7   393612.46 2194.39   1-0.22913 0.27945 0.64578-0.17079-0.72832 0.94484
   1   7   391949.41 2312.35   1 0.36919-0.31795-0.16726 0.64222 0.91417-0.69746
  -1  -7  -387233.75 2249.25   1 0.14631-0.19744-0.64697 0.17205 0.74834-0.96509
  -1  -7  -4  244.52   34.05   1 0.26793-0.29762 0.25288-0.70785-0.92965 0.64059
   1   7   4  424.57   66.40   1-0.37640 0.40608 0.71691-0.26189-0.58681 0.87550
   1   7   4  380.03   47.55   1 0.33121-0.30069-0.27506 0.73022 0.90256-0.61347
  -1  -7  -5103285.9 2381.20   1 0.48507-0.49506-0.75149 0.31718 0.44715-0.80889
  -1  -7  -5104362.4 2384.92   1 0.12717-0.13650 0.38770-0.82279-0.91296 0.55169
   1   7   599806.10 2421.10   1 0.29218-0.28216-0.37088 0.80612 0.88151-0.52014
  -1  -7  -6 7166.15  944.28   1 0.56196-0.55139-0.76080 0.34657 0.32461-0.75884
  -1  -7  -6 9752.77  752.55   1 0.01557-0.00436 0.48121-0.89644-0.87646 0.44312
   1   7   6 8714.66  385.16   1 0.25507-0.26559-0.45229 0.86725 0.85461-0.42110
  -1  -7  -763844.08 1635.78   1 0.61638-0.58539-0.75646 0.36223 0.21871-0.72532
  -1  -7  -766429.57 1656.92   1-0.06635 0.09800 0.54294-0.93832-0.83714 0.33158
   1   7   759816.45 1881.91   1 0.22180-0.25288-0.51793 0.91290 0.82616-0.32039
  -1  -7  -8191852.610991.73   1 0.65564-0.60441-0.74438 0.37020 0.12654-0.70543
  -1  -7  -8189238.5 2364.00   1-0.12392 0.17600 0.58270-0.95823-0.80317 0.22539
   1   7   8189298.3 2338.58   1 0.19378-0.24541-0.56884 0.94382 0.79928-0.22127
  -1  -7  -938058.44 4280.80   1 0.68441-0.61276-0.72769 0.37350 0.04517-0.69642
  -1  -7  -944112.00 4041.78   1-0.16285 0.23537 0.60787-0.96355-0.77715 0.12714
   1   7   939648.63 3865.63   1 0.26255-0.33370 0.96240-0.60811-0.06951 0.72030
   1   7   942164.34 1578.01   1 0.17157-0.24374-0.60662 0.96162 0.77625-0.12598
  -1  -7 -10  137.61   74.88   1 0.70571-0.61366-0.70793 0.37374-0.02810-0.69551
  -1  -7 -10   87.83   95.83   1-0.18990 0.28408 0.62284-0.95807-0.75894 0.03722
   1   7  10   41.06   53.74   1 0.31136-0.40288 0.94921-0.61493 0.04521 0.67788
   1   7  10   58.54   59.38   1 0.15518-0.24791-0.63311 0.96812 0.75834-0.03582
  -1  -7 -1130287.39 3290.24   1 0.72133-0.60921-0.68598 0.37178-0.09542-0.70045
  -1  -7 -1131543.55 4382.27   1-0.20419 0.31901 0.63137-0.94664-0.74810-0.04578
   1   7  1131419.58 3083.74   1 0.35315-0.46516 0.92296-0.60879 0.15305 0.64263
   1   7  1133072.25 1326.88   1 0.14435-0.25763-0.64999 0.96501 0.74610 0.04867
  -1  -8   6  692.76  100.92   1 0.68347-0.92246-0.72838-0.00208 0.04809 0.38606
   1   8  -6  831.59  122.19   1 0.57612-0.33774-0.13380 0.86443-0.80633 0.37239
   1   8  -6  697.92  117.39   1 0.46357-0.22489 0.70240 0.02867 0.54011-0.97396
  -1  -8   6  662.85  127.06   1 0.38518-0.62480-0.11683-0.61424 0.91541-0.48198
  -1  -8   526784.36 2478.19   1 0.70439-0.92297-0.70943-0.00103-0.02305 0.38486
   1   8  -523077.62 2733.54   1 0.56015-0.34213-0.10896 0.81959-0.82119 0.45957
   1   8  -523910.53 1976.09   1 0.47392-0.25561 0.64192 0.06911 0.60276-0.96430
  -1  -8   523581.24 2461.49   1 0.38008-0.59928-0.13333-0.57778 0.91529-0.55410
  -1  -8   4 8013.96  652.18   1 0.72243-0.92068-0.68404-0.00634-0.10083 0.39024
   1   8  -4 8017.02  655.50   1 0.53501-0.33792-0.07115 0.76183-0.84184 0.55264
   1   8  -4 7659.49  639.75   1 0.48080-0.28287 0.57406 0.11692 0.66277-0.95200
  -1  -8   4 7112.69  707.42   1 0.37184-0.57061-0.15914-0.53199 0.91454-0.62559
  -1  -8   3 1680.70  184.82   1 0.73672-0.91458-0.64987-0.02052-0.18681 0.40387
   1   8  -3 1604.68  220.03   1 0.49723-0.32047-0.01782 0.68854-0.86743 0.65054
   1   8  -3 1456.70  163.96   1 0.48349-0.30552 0.49844 0.17280 0.71957-0.93637
  -1  -8   3 1342.95  197.67   1 0.35979-0.53813-0.19528-0.47589 0.91236-0.69565
  -1  -8   213474.75  981.24   1 0.74514-0.90261-0.60377-0.04663-0.28320 0.42790
   1   8  -210193.46 1316.40   1 0.44170-0.28528 0.05510 0.59565-0.89546 0.75087
   1   8  -211360.24  857.54   1 0.48196-0.32440 0.41532 0.23588 0.77150-0.91603
  -1  -8   210766.23 1223.64   1 0.34330-0.50139-0.24274-0.40839 0.90731-0.76276
  -1  -8   121631.43 2261.09   1 0.74406-0.88108-0.54096-0.08951-0.39207 0.46441
   1   8  -122348.96 1797.85   1 0.36202-0.22624 0.15079 0.47994-0.91989 0.84762
   1   8  -122310.62 1967.53   1 0.47549-0.33833 0.32489 0.30625 0.81752-0.88979
  -1  -8   122385.31 2442.28   1 0.32079-0.45838-0.30187-0.32933 0.89775-0.82547
  -1  -8   0  839.74  116.52   1 0.72734-0.84374-0.45502-0.15547-0.51372 0.51372
   1   8   0 1081.76  140.47   1 0.25255-0.13713 0.26860 0.34224-0.92955 0.92955
   1   8   0  864.74   90.07   1 0.46348-0.34666 0.22814 0.38300 0.85622-0.85622
  -1  -8   0 1185.21  163.83   1 0.29141-0.40850-0.37267-0.23860 0.88101-0.88101
   1   8   1111682.3 2616.74   1 0.11261-0.01749 0.40057 0.19028-0.90931 0.98157
   1   8   1113971.1 2816.99   1 0.44616-0.34975 0.12680 0.46432 0.88592-0.81367
  -1  -8  -1106685.5 2761.18   1 0.25426-0.35106-0.45396-0.13734 0.85397-0.92622
  -1  -8  -217094.67 1686.55   1 0.61368-0.68916-0.19592-0.37469-0.76485 0.62020
   1   8   216618.67 1975.34   1-0.04744 0.12236 0.52921 0.04176-0.84715 0.99160
   1   8   217973.34 1273.07   1 0.42357-0.34737 0.02352 0.54780 0.90555-0.76107
  -1  -8  -215992.59 1772.26   1 0.20846-0.28471-0.54265-0.02866 0.81367-0.95818
  -1  -8  -3 5377.21  529.53   1 0.50786-0.56261-0.03249-0.51847-0.86082 0.64393
   1   8   3 4867.28  723.64   1-0.20875 0.26356 0.63405-0.08265-0.74457 0.96109
   1   8   3 5416.97  345.06   1 0.39655-0.34077-0.07852 0.62988 0.91464-0.69793
  -1  -8  -3 5560.64  650.98   1 0.15433-0.21004-0.63445 0.08312 0.75739-0.97415
  -1  -8  -4 8549.11  710.67   1 0.38154-0.41556 0.12821-0.65953-0.91541 0.62634
   1   8   4 7187.28 1084.04   1-0.34579 0.37996 0.70427-0.17283-0.62002 0.90870
   1   8   4 8147.70  580.99   1 0.36637-0.33102-0.17577 0.70717 0.91371-0.62476
  -1  -8  -5 3847.52  499.02   1 0.45374-0.46819-0.74397 0.23334 0.49052-0.85225
  -1  -8  -5 3968.47  310.24   1 0.25473-0.26839 0.26639-0.77784-0.92959 0.56826
   1   8   5 3885.72  271.14   1 0.33520-0.32063-0.26455 0.77620 0.90423-0.54286
  -1  -8  -626444.77 2959.53   1 0.53475-0.52863-0.75922 0.26867 0.37096-0.80520
  -1  -8  -629246.30 1724.14   1 0.14321-0.13651 0.37330-0.86487-0.91658 0.48306
   1   8   627066.54 2436.45   1 0.30405-0.30998-0.34301 0.83473 0.88875-0.45511
  -1  -8  -730539.01  920.65   1 0.59430-0.56777-0.75962 0.28907 0.26414-0.77076
  -1  -8  -732906.88 1724.07   1 0.05365-0.02658 0.45069-0.92241-0.89106 0.38528
   1   8   731296.77  956.16   1 0.27500-0.30144-0.40950 0.88128 0.86987-0.36395
  -1  -8  -8 2693.21  289.57   1 0.63833-0.59157-0.75091 0.30041 0.16930-0.74819
  -1  -8  -8 2986.18  270.47   1-0.01441 0.06212 0.50449-0.95636-0.86329 0.28550
   1   8   8 2395.93  382.61   1 0.24927-0.29631-0.46416 0.91556 0.84994-0.27193
  -1  -8  -916948.23 1613.29   1 0.67112-0.60395-0.73649 0.30599 0.08469-0.73594
  -1  -8  -914755.96 2526.65   1-0.06386 0.13201 0.54115-0.97316-0.83849 0.18848
   1   8   916390.29 3839.28   1 0.22775-0.29534-0.50663 0.93803 0.83153-0.18126
  -1  -8 -10 3925.09  479.95   1 0.69572-0.60814-0.71825 0.30775 0.00812-0.73173
  -1  -8 -10 3210.30  669.92   1-0.09838 0.18697 0.56543-0.97759-0.81890 0.09666
   1   8  10 3927.46  348.48   1 0.28093-0.36795 0.95933-0.54870-0.02758 0.75069
   1   8  10 3001.05  812.97   1 0.21088-0.29901-0.53823 0.94965 0.81598-0.09346
  -1  -8 -11 5296.37  774.54   1 0.71404-0.60642-0.69731 0.30681-0.06232-0.73356
   1   8  11 4994.52  555.46   1 0.32622-0.43362 0.94168-0.55107 0.08247 0.71293
   1   8  11 3495.80 1150.44   1 0.19876-0.30744-0.56008 0.95151 0.80423-0.00946
  -1  -9   525747.49 3982.21   1 0.70143-0.92449-0.71262-0.07415-0.01210 0.37390
   1   9  -527222.77 2557.13   1 0.50662-0.28483-0.03078 0.81776-0.86161 0.50012
   1   9  -524558.91 2980.88   1 0.47303-0.25026 0.64830 0.13907 0.59660-0.95813
  -1  -9   524401.94 2807.55   1 0.36080-0.58454-0.19232-0.59519 0.91259-0.55140
  -1  -9   4 8544.23  827.47   1 0.71984-0.92259-0.68848-0.07821-0.08834 0.37775
   1   9  -4 7083.98 1165.14   1 0.47824-0.27678 0.00777 0.75925-0.87819 0.58899
   1   9  -4 8100.65 1083.04   1 0.48001-0.27761 0.58475 0.18258 0.65395-0.94318
  -1  -9   4 8057.79  867.89   1 0.35294-0.55659-0.21588-0.55152 0.91039-0.62130
  -1  -9   3 6189.91  430.17   1 0.73463-0.91699-0.65643-0.09027-0.17149 0.38855
   1   9  -3 4733.67  772.96   1 0.43746-0.25634 0.06043 0.68663-0.89720 0.68030
   1   9  -3 5252.16  583.97   1 0.48322-0.30076 0.51490 0.23273 0.70806-0.92486
  -1  -9   3 5014.76  558.62   1 0.34127-0.52442-0.24827-0.49921 0.90658-0.68976
  -1  -9   2 6599.67  448.19   1 0.74408-0.90605-0.61405-0.11265-0.26318 0.40789
   1   9  -2 6255.91  489.46   1 0.38041-0.21995 0.12954 0.59742-0.91570 0.77116
   1   9  -2 6080.95  714.46   1 0.48286-0.32080 0.43914 0.28844 0.75762-0.90215
  -1  -9   2 6043.27  786.86   1 0.32536-0.48800-0.29025-0.43729 0.89994-0.75539
  -1  -9   127696.99 2599.79   1 0.74545-0.88695-0.55784-0.14893-0.36483 0.43718
   1   9  -126580.73  806.20   1 0.30282-0.16271 0.21625 0.49083-0.92818 0.85592
   1   9  -125411.45 1809.99   1 0.47838-0.33673 0.35777 0.34976 0.80196-0.87422
  -1  -9   125611.42 2657.84   1 0.30442-0.44656-0.34213-0.36548 0.88897-0.81669
  -1  -9   062957.69 1213.20   1 0.73459-0.85571-0.48363-0.20315-0.47589 0.47589
   1   9   061384.53 1162.50   1 0.20160-0.08178 0.31881 0.36824-0.92612 0.92612
   1   9   062331.09 5027.94   1 0.46939-0.34806 0.27164 0.41590 0.84016-0.84016
  -1  -9   057308.62 5584.35   1 0.27764-0.39927-0.40371-0.28398 0.87174-0.87174
  -1  -9  -143189.83 1477.71   1 0.70528-0.80576-0.38673-0.28007-0.59414 0.52181
   1   9   143475.94 3664.74   1 0.07758 0.02187 0.43073 0.23646-0.89913 0.97139
   1   9   144701.63 3216.82   1 0.45621-0.35529 0.18205 0.48546 0.87104-0.79880
  -1  -9  -140066.03 3895.75   1 0.24435-0.34574-0.47410-0.19361 0.84588-0.91813
  -1  -9  -2 7007.81  553.40   1 0.65192-0.73183-0.26636-0.38058-0.70995 0.56531
   1   9   2 6648.19  958.20   1-0.06165 0.14095 0.53955 0.10776-0.83968 0.98413
   1   9   2 6978.29  398.38   1 0.43885-0.35835 0.09082 0.55667 0.89395-0.74946
  -1  -9  -2 6793.09  791.03   1 0.20384-0.28468-0.55100-0.09672 0.80922-0.95372
  -1  -9  -3 5993.98  672.18   1 0.57238-0.63192-0.12790-0.49904-0.80995 0.59298
   1   9   3 6056.28  797.89   1-0.20413 0.26344 0.63134-0.00353-0.74815 0.96466
   1   9   3 6318.03  523.47   1 0.41786-0.35755 0.00041 0.62735 0.90850-0.69179
  -1  -9  -3 5502.03  719.94   1 0.15623-0.21652-0.63145 0.00370 0.75951-0.97626
  -1  -9  -4 6639.54  846.14   1 0.47226-0.51105 0.01569-0.62306-0.88131 0.59212
   1   9   4 7060.51  845.98   1-0.32957 0.36823 0.69708-0.08923-0.63675 0.92543
   1   9   4 7118.60  580.46   1 0.39411-0.35422-0.08693 0.69473 0.91494-0.62599
  -1  -9  -5 1179.51  162.50   1 0.43311-0.45202-0.73805 0.15110 0.51737-0.87911
  -1  -9  -5 1041.28  113.97   1 0.36368-0.38167 0.14889-0.73669-0.91954 0.55821
   1   9   5 1069.59  136.03   1 0.36873-0.34927-0.16866 0.75650 0.91410-0.55291
  -1  -9  -6 9037.49 1048.90   1 0.51476-0.51310-0.75681 0.18993 0.40280-0.83704
  -1  -9  -6 9300.47  652.89   1 0.25967-0.25731 0.26136-0.82928-0.92965 0.49605
   1   9   6 9061.21  896.43   1 0.34349-0.34488-0.24220 0.81032 0.90738-0.47373
  -1  -9  -717787.43 1875.29   1 0.57697-0.55489-0.76071 0.21384 0.29735-0.80396
  -1  -9  -719146.38 1245.44   1 0.16908-0.14634 0.34957-0.89762-0.92152 0.41574
   1   9   717850.06 2484.77   1 0.31880-0.34068-0.30688 0.85508 0.89676-0.39084
  -1  -9  -810368.66  940.07   1 0.62409-0.58159-0.75481 0.22794 0.20190-0.78088
  -1  -9  -8 8558.97 1638.67   1 0.09538-0.05228 0.41554-0.94374-0.90455 0.32652
   1   9   8 9021.29 1478.80   1 0.29620-0.33859-0.36156 0.88983 0.88404-0.30584
  -1  -9  -9 4359.03  439.57   1 0.65988-0.59719-0.74244 0.23563 0.11545-0.76670
  -1  -9  -9 4629.17  534.85   1 0.03821 0.02524 0.46330-0.97164-0.88537 0.23508
   1   9   9 3574.62  862.06   1 0.27657-0.33946-0.40606 0.91440 0.87098-0.22052
  -1  -9 -10 7049.59  908.69   1 0.68708-0.60397-0.72564 0.23883 0.03676-0.76037
  -1  -9 -10 7016.66  810.26   1-0.00447 0.08869 0.49686-0.98536-0.86781 0.14558
   1   9  10 4916.19 1584.50   1 0.26048-0.34388-0.44065 0.92906 0.85905-0.13630
  -1 -10   4 9583.90 1467.86   1 0.71522-0.92247-0.69563-0.14736-0.06741 0.35682
   1  10  -4 7869.89 2026.27   1 0.41831-0.21247 0.08418 0.75919-0.90439 0.61520
   1  10  -4 9459.51  987.93   1 0.47876-0.27189 0.59932 0.24436 0.64155-0.93078
  -1 -10   4 9868.79 1225.19   1 0.33321-0.54141-0.26982-0.57399 0.90341-0.61432
  -1 -10   325961.81 2562.10   1 0.73098-0.91783-0.66623-0.15677-0.14763 0.36469
   1  10  -324684.84 2826.57   1 0.37571-0.19057 0.13501 0.68819-0.91684 0.70005
   1  10  -325004.61 2947.61   1 0.48290-0.29640 0.53478 0.28886 0.69340-0.91032
  -1 -10   325536.02 3063.85   1 0.32201-0.50970-0.29880-0.52509 0.89834-0.68152
  -1 -10   218307.75 1484.18   1 0.74196-0.90842-0.62793-0.17507-0.23490 0.37961
   1  10  -213059.02 3054.89   1 0.31831-0.15353 0.19953 0.60379-0.92674 0.78221
   1  10  -217487.76 1778.80   1 0.48343-0.31687 0.46536 0.33860 0.74143-0.88596
  -1 -10   216941.67 1950.93   1 0.30693-0.47413-0.33610-0.46786 0.89040-0.74585
  -1 -10   152118.58 4293.86   1 0.74610-0.89209-0.57811-0.20498-0.33033 0.40267
   1  10  -157280.44 1250.04   1 0.24348-0.09905 0.27776 0.50568-0.92928 0.85701
   1  10  -150890.34 4349.69   1 0.48072-0.33457 0.39161 0.39231 0.78456-0.85682
  -1 -10   147632.89 4198.99   1 0.28739-0.43408-0.38186-0.40216 0.87839-0.80612
  -1 -10   022379.26  870.64   1 0.74042-0.86604-0.51377-0.24932-0.43336 0.43336
   1  10   020401.70 2138.64   1 0.14965-0.02549 0.36745 0.39594-0.91792 0.91792
   1  10   021927.08 1908.51   1 0.47442-0.34867 0.31419 0.44968 0.82231-0.82231
  -1 -10   019893.93 2437.26   1 0.26276-0.38894-0.43586-0.32823 0.86080-0.86080
  -1 -10  -115723.73 1116.07   1 0.72048-0.82542-0.43138-0.31173-0.54295 0.47063
   1  10   115312.33 1359.15   1 0.03832 0.06546 0.46321 0.28032-0.88541 0.95767
   1  10   116150.05 1076.00   1 0.46436-0.35893 0.23417 0.50973 0.85412-0.78187
  -1 -10  -113764.45 1187.29   1 0.23254-0.33852-0.49738-0.24674 0.83577-0.90803
  -1 -10  -227682.19 2555.26   1 0.68238-0.76694-0.33033-0.39279-0.65209 0.50744
   1  10   232106.62 1177.02   1-0.08468 0.16835 0.55592 0.16772-0.82690 0.97135
   1  10   228985.30 1958.95   1 0.45108-0.36607 0.15287 0.57101 0.87929-0.73479
  -1 -10  -227721.86 2494.65   1 0.19617-0.28160-0.56464-0.15949 0.80167-0.94618
  -1 -10  -3 1166.75  222.29   1 0.62309-0.68706-0.21246-0.49080-0.75273 0.53576
   1  10   3 1443.60  215.83   1-0.21156 0.27535 0.63569 0.06852-0.74238 0.95889
   1  10   3 1449.02  151.10   1 0.43479-0.37019 0.07195 0.63191 0.89765-0.68091
  -1 -10  -3 1409.72  164.42   1 0.15367-0.21855-0.63550-0.06865 0.75665-0.97340
  -1 -10  -4 6456.89 1102.31   1 0.54517-0.58833-0.08609-0.59763-0.83389 0.54470
   1  10   4 5313.14 1164.97   1-0.32558 0.36873 0.69526-0.01100-0.64078 0.92946
   1  10   4 6550.31  566.05   1 0.41612-0.37169-0.00646 0.69067 0.90928-0.62033
  -1 -10  -4 3801.03  602.77   1 0.10540-0.14973-0.70685 0.02269 0.69945-0.98846
  -1 -10  -531176.11 1189.71   1 0.42279-0.44616-0.73482 0.07155 0.53035-0.89208
  -1 -10  -531065.90 1159.94   1 0.45500-0.47783 0.03814-0.70192-0.88966 0.52817
   1  10   527139.37 2841.80   1 0.39585-0.37184-0.08094 0.74519 0.91474-0.55355
  -1 -10  -612429.09 1982.88   1 0.50254-0.50552-0.75484 0.11155 0.42149-0.85557
  -1 -10  -614064.35 1263.47   1 0.36288-0.36485 0.14980-0.79408-0.91971 0.48611
   1  10   616057.52 4003.04   1 0.37492-0.37134-0.14963 0.79390 0.91490-0.48147
  -1 -10  -7 7703.06 1090.32   1 0.56529-0.54767-0.76084 0.13765 0.31868-0.82529
  -1 -10  -7 8069.74 1044.78   1 0.27669-0.25830 0.24381-0.86821-0.92951 0.42365
   1  10   7 9701.87 1029.95   1 0.35481-0.37215-0.21054 0.83515 0.91091-0.40500
  -1 -10  -810815.56 1465.72   1 0.61393-0.57589-0.75692 0.15373 0.22395-0.80293
  -1 -10  -810696.11 1282.24   1 0.20180-0.16303 0.31862-0.92316-0.92614 0.34811
   1  10   812389.17 1284.76   1 0.33549-0.37333-0.26379 0.86847 0.90435-0.32616
  -1 -10  -9 1836.67  310.65   1 0.65154-0.59332-0.74613 0.16301 0.13703-0.78828
  -1 -10  -9 1865.97  299.42   1 0.14027-0.08114 0.37596-0.96064-0.91595 0.26566
   1  10   9 1808.77  495.87   1 0.31820-0.37654-0.30839 0.89314 0.89646-0.24599
  -1 -10 -10 6046.47 1064.23   1 0.68048-0.60186-0.73051 0.16739 0.05724-0.78085
  -1 -10 -10 6242.43 1002.99   1 0.09184-0.01235 0.41858-0.98340-0.90352 0.18097
   1  10  10 4434.78 1657.88   1 0.30356-0.38241-0.34418 0.90900 0.88847-0.16573
  -1 -11   2 6228.07  983.06   1 0.73825-0.90921-0.64448-0.23483-0.19907 0.34377
   1  11  -2 4564.74 1407.63   1 0.25489-0.08577 0.26623 0.61344-0.92959 0.78506
   1  11  -2 7059.74  657.96   1 0.48353-0.31246 0.49341 0.38695 0.72300-0.86754
  -1 -11   2 6114.34  801.77   1 0.28791-0.45965-0.38069-0.49968 0.87873-0.73419
  -1 -11   1  648.44  157.26   1 0.74538-0.89595-0.60082-0.25850-0.28882 0.36117
   1  11  -1  547.40  100.61   1 0.18319-0.03434 0.33635 0.52324-0.92374 0.85149
   1  11  -1  562.79   97.27   1 0.48242-0.33176 0.42618 0.43412 0.76526-0.83753
  -1 -11   1  615.85  126.85   1 0.26962-0.42086-0.42120-0.43923 0.86596-0.79368
  -1 -11   023900.13  975.95   1 0.74448-0.87459-0.54518-0.29422-0.38538 0.38538
   1  11   024831.11  990.24   1 0.09600 0.03248 0.41500 0.42472-0.90473 0.90473
   1  11   022558.80 2051.72   1 0.47825-0.34800 0.35609 0.48417 0.80278-0.80278
  -1 -11   021581.41 2201.05   1 0.24688-0.37800-0.46900-0.37152 0.84798-0.84798
  -1 -11  -121725.66 2520.99   1 0.73269-0.84242-0.47537-0.34404-0.48701 0.41466
   1  11   125196.40 2008.73   1-0.00514 0.11363 0.49738 0.32246-0.86751 0.93973
   1  11   123479.28 1761.83   1 0.47090-0.36097 0.28403 0.53627 0.83520-0.76296
  -1 -11  -121858.78 2492.22   1 0.21913-0.32969-0.52295-0.29758 0.82370-0.89596
  -1 -11  -2 3960.36  935.64   1 0.70628-0.79530-0.38944-0.40999-0.59118 0.44653
   1  11   2 4618.22  838.55   1-0.11474 0.20279 0.57657 0.22342-0.80894 0.95339
   1  11   2 5403.17  501.11   1 0.46090-0.37138 0.21100 0.58928 0.86200-0.71750
  -1 -11  -2 4998.83  894.62   1 0.18609-0.27611-0.58217-0.21838 0.79148-0.93598
  -1 -11  -3 7698.72  940.64   1 0.66338-0.73203-0.28926-0.49017-0.69010 0.47313
   1  11   3 7098.72 1575.50   1-0.22856 0.29684 0.64546 0.13517-0.72879 0.94530
   1  11   3 7950.56  709.04   1 0.44836-0.37926 0.13828 0.64197 0.88308-0.66634
  -1 -11  -3 7652.56  682.27   1 0.14768-0.21715-0.64485-0.13571 0.74990-0.96665
  -1 -11  -4  198.90   95.94   1 0.60359-0.65163-0.17866-0.58094-0.77701 0.48772
   1  11   4  133.95   41.06   1-0.33192 0.37956 0.69814 0.06252-0.63436 0.92304
   1  11   4  404.82   77.42   1 0.43375-0.38507 0.06727 0.69295 0.89851-0.60952
  -1 -11  -4   -2.29  102.43   1 0.10411-0.15302-0.70863-0.05193 0.69784-0.98685
  -1 -11  -5 5200.01 1165.93   1 0.42196-0.44979-0.73455-0.00503 0.53138-0.89312
  -1 -11  -5 5819.13  858.29   1 0.53137-0.55857-0.06587-0.67425-0.84456 0.48307
   1  11   5 6478.97  839.35   1 0.41770-0.38916-0.00023 0.74088 0.90858-0.54739
  -1 -11  -6 1960.74  415.41   1 0.49820-0.50564-0.75407 0.03446 0.42797-0.86205
  -1 -11  -6 2124.27  394.69   1 0.45238-0.45924 0.04151-0.76169-0.89085 0.45706
   1  11   6 2840.25  280.94   1 0.40083-0.39272-0.06345 0.78413 0.91394-0.48052
  -1 -11  -728894.49 1128.21   1 0.55973-0.54656-0.76075 0.06124 0.32856-0.83517
  -1 -11  -722822.11 3674.71   1 0.37445-0.36039 0.13648-0.83723-0.91714 0.41128
   1  11   733602.83 2502.43   1 0.38393-0.39624-0.12093 0.82164 0.91540-0.40974
  -1 -11  -8 3727.75  769.14   1 0.60843-0.57485-0.75785 0.07834 0.23551-0.81449
  -1 -11  -8 3794.33  652.79   1 0.30241-0.26801 0.21668-0.89755-0.92821 0.35009
   1  11   8 4754.98  558.99   1 0.36772-0.40046-0.17172 0.85247 0.91394-0.33604
  -1 -12  -127827.37  915.79   1 0.74111-0.85533-0.51808-0.37763-0.42700 0.35466
   1  12   129464.44  938.82   1-0.05228 0.16514 0.53276 0.36342-0.84464 0.91687
   1  12   124731.83 3083.05   1 0.47618-0.36184 0.33215 0.56445 0.81420-0.74193
  -1 -12  -124775.02 2494.09   1 0.20428-0.31942-0.55022-0.34673 0.80964-0.88189
  -1 -12  -294572.75 1640.45   1 0.72462-0.81810-0.44528-0.43047-0.52596 0.38131
   1  12   293951.24 1643.49   1-0.15092 0.24333 0.60031 0.27601-0.78539 0.92983
   1  12   292596.48 7432.87   1 0.46871-0.37468 0.26619 0.61048 0.84228-0.69779
  -1 -12  -282996.79 7656.10   1 0.17400-0.26860-0.60259-0.27436 0.77884-0.92334
  -1 -12  -3 1676.49  568.17   1 0.69493-0.76803-0.36005-0.49570-0.62243 0.40546
   1  12   3 1559.11  585.52   1-0.25362 0.32639 0.65931 0.19773-0.70780 0.92431
   1  12   3 2870.47  469.00   1 0.45924-0.38563 0.20049 0.65615 0.86538-0.64864
  -1 -12  -3 2683.91  258.75   1 0.13895-0.21300-0.65824-0.19873 0.73986-0.95662
  -1 -12  -4 2007.40  414.13   1 0.65081-0.70328-0.26419-0.57173-0.71178 0.42249
   1  12   4 2244.65  479.15   1-0.34720 0.39933 0.70488 0.13219-0.61853 0.90722
   1  12   4 2411.64  326.43   1 0.44797-0.39478 0.13622 0.70040 0.88360-0.59461
  -1 -12  -5 3083.90  915.95   1 0.42979-0.46208-0.73703-0.07887 0.52158-0.88331
  -1 -12  -5 3115.12  725.03   1 0.59424-0.62635-0.16306-0.65286-0.78757 0.42596
   1  12   5 4674.59  564.71   1 0.43535-0.40257 0.07451 0.74209 0.89717-0.53593
  -1 -12  -6   88.40   56.79   1 0.50147-0.51337-0.75466-0.04126 0.42308-0.85716
  -1 -12  -6  124.05   27.17   1 0.52957-0.54080-0.06326-0.73327-0.84590 0.41211
   2 -12  -514834.32 2760.25   1 0.48636-0.27561-0.00308-0.81340-0.87375 0.51226
  -2  12   517080.48 1498.41   1-0.34210 0.13110 0.70266 0.11445-0.62387 0.98473
  -2  12   515378.96 2227.96   1 0.46814-0.67760 0.26180 0.55480 0.84397-0.48274
   2 -12  -4   20.65   52.75   1 0.53914-0.34872-0.07719-0.75925-0.83867 0.54947
  -2  12   4   52.39   53.49   1-0.26973 0.07938 0.66786 0.16921-0.69368 0.98237
  -2  12   4  126.91   58.64   1 0.47422-0.66334 0.31230 0.52415 0.82314-0.53408
   2 -12  -4   94.47   65.52   1 0.10506 0.08343-0.70732-0.12966 0.69903-0.98804
  -2  12   3 3713.00  400.59   1-0.19390 0.02419 0.62525 0.23179-0.75594 0.97246
  -2  12   3 3409.28  379.45   1 0.47890-0.64760 0.36448 0.49201 0.79862-0.58182
   2 -12  -3 3753.88  372.72   1 0.15480 0.01314-0.63372-0.22325 0.75791-0.97467
  -2  12   2 9863.26 1613.12   1-0.11478-0.03529 0.57659 0.29973-0.80892 0.95337
  -2  12   211083.17 1268.81   1 0.48205-0.63035 0.41726 0.45929 0.77039-0.62586
   2 -12  -211516.26 1440.15   1 0.19773-0.05033-0.56189-0.31507 0.80322-0.94773
   2 -12  -1  937.82  126.24   1 0.67287-0.54444-0.30927-0.58648-0.67200 0.59968
  -2  12   1  674.25  190.74   1-0.03939-0.09024 0.52328 0.37290-0.85124 0.92347
  -2  12   1  738.57  141.85   1 0.48348-0.61137 0.46976 0.42683 0.73862-0.66635
   2 -12  -1  763.15   99.02   1 0.23393-0.10707-0.49469-0.40225 0.83699-0.90924
   2 -12   0  769.65  141.73   1 0.70323-0.59518-0.38127-0.53448-0.60007 0.60007
  -2  12   0  898.24  121.55   1 0.03188-0.14150 0.46841 0.44766-0.88293 0.88293
  -2  12   0  782.32   81.55   1 0.48333-0.59125 0.52139 0.39481 0.70323-0.70323
   2 -11  -7 4030.02  442.48   1 0.46950-0.21440-0.74799 0.04836 0.46911-0.97554
   2 -11  -7 4497.59  585.28   1 0.31390-0.05745 0.20432-0.90507-0.92720 0.42134
  -2  11   7 3853.06  692.02   1 0.43947-0.69427 0.09376 0.60640 0.89334-0.38762
   2 -11  -619985.55 3534.90   1 0.40573-0.17102-0.72912 0.00951 0.55114-0.98522
   2 -11  -630260.79 3250.46   1 0.36806-0.13196 0.14386-0.86449-0.91860 0.48500
  -2  11   628741.43 3246.47   1 0.44951-0.68390 0.14440 0.57578 0.88152-0.44804
   2 -11  -511490.82 1282.73   1 0.42610-0.21099 0.07459-0.81472-0.90159 0.54010
  -2  11   511519.36  712.73   1-0.33510 0.11962 0.69957 0.04112-0.63110 0.99196
  -2  11   5 8871.34 1915.52   1 0.45906-0.67303 0.19938 0.54082 0.86573-0.50450
   2 -11  -414227.36 1688.48   1 0.48626-0.29147-0.00294-0.75714-0.87380 0.58461
  -2  11   413440.53 1693.07   1-0.25756 0.06272 0.66142 0.09924-0.70439 0.99308
  -2  11   415768.86 1265.85   1 0.46754-0.66109 0.25723 0.50299 0.84571-0.55672
   2 -11  -415889.57 1173.53   1 0.11044 0.08264-0.69983-0.06074 0.70571-0.99472
  -2  11   3 9838.27  610.07   1-0.17550 0.00130 0.61404 0.16658-0.76950 0.98602
  -2  11   3 8741.28  804.92   1 0.47466-0.64787 0.31656 0.46355 0.82126-0.60446
   2 -11  -3 9492.23  856.26   1 0.16548 0.00705-0.61660-0.16396 0.76968-0.98644
  -2  11   2 2131.96  252.87   1-0.08968-0.06476 0.55941 0.24057-0.82402 0.96846
  -2  11   2 2341.14  224.96   1 0.47973-0.63253 0.37615 0.42401 0.79269-0.64815
   2 -11  -2 2252.49  277.84   1 0.21266-0.06067-0.53496-0.26558 0.81767-0.96217
   2 -11  -1  626.76   92.26   1 0.64626-0.51309-0.25535-0.56425-0.71912 0.64679
  -2  11   1  652.33   85.70   1-0.00746-0.12655 0.49916 0.32067-0.86647 0.93869
  -2  11   1  488.61   98.44   1 0.48273-0.61512 0.43492 0.38529 0.76013-0.68787
   2 -11  -1  686.65   77.54   1 0.25198-0.12054-0.45865-0.36189 0.85214-0.92439
   2 -11   022587.86 2230.23   1 0.68463-0.57212-0.33549-0.50394-0.64708 0.64708
  -2  11   023699.34 1906.81   1 0.07001-0.18396 0.43710 0.40263-0.89668 0.89668
  -2  11   021689.09 1445.00   1 0.48353-0.59552 0.49203 0.34822 0.72393-0.72393
   2 -11   020985.73 1950.83   1 0.28377-0.17246-0.39004-0.45046 0.87597-0.87597
   2 -11   1 3110.58  368.98   1 0.71325-0.62111-0.40912-0.45031-0.56910 0.64143
  -2  11  -1 3088.85  277.84   1 0.14002-0.23361 0.37618 0.48340-0.91590 0.84364
  -2  11  -1 3097.07  253.80   1 0.48238-0.57439 0.54706 0.31284 0.68412-0.75643
   2 -11   1 2784.93  336.30   1 0.30924-0.21843-0.33051-0.52993 0.89170-0.81942
   2 -11   216461.85 3411.36   1 0.73267-0.66141-0.47527-0.40413-0.48714 0.63183
  -2  11  -221403.09 2065.02   1 0.20118-0.27439 0.31922 0.56022-0.92607 0.78157
  -2  11  -218195.31 2168.79   1 0.47877-0.55041 0.59920 0.28074 0.64165-0.78627
   2 -11   219536.23 2782.84   1 0.32912-0.25882-0.28053-0.59983 0.90165-0.75710
   2 -10  -816470.01 1780.31   1 0.53145-0.25121-0.75889 0.15570 0.37634-0.95532
   2 -10  -817249.51 1736.50   1 0.19090 0.09029 0.32905-0.93358-0.92481 0.34678
  -2  10   817351.30 2395.99   1 0.40695-0.68645-0.04127 0.64561 0.91251-0.33461
   2 -10  -750096.46 5609.55   1 0.47459-0.21503-0.74918 0.12588 0.46203-0.96845
   2 -10  -759451.15 2363.45   1 0.23989 0.02088 0.28136-0.90576-0.92913 0.42326
  -2  10   759949.16 2158.35   1 0.42031-0.67938 0.01021 0.61409 0.90731-0.40165
   2 -10  -614402.72 1220.21   1 0.40867-0.16950-0.73014 0.08685 0.54761-0.98169
   2 -10  -614991.41 1598.01   1 0.29670-0.05627 0.22277-0.86705-0.92862 0.49502
  -2  10   614549.99 1452.43   1 0.43399-0.67288 0.06834 0.57545 0.89831-0.46484
   2 -10  -558363.68 3843.58   1 0.35997-0.13989 0.15313-0.81729-0.92031 0.55898
  -2  10   562802.74 4750.76   1-0.33426 0.11428 0.69919-0.03490-0.63197 0.99283
  -2  10   561688.31 4649.30   1 0.44715-0.66562 0.13189 0.53192 0.88468-0.52344
   2 -10  -465204.34 5540.93   1 0.42696-0.22780 0.07353-0.75727-0.90127 0.61208
  -2  10   456218.82 5333.73   1-0.25152 0.05218 0.65817 0.02608-0.70960 0.99829
  -2  10   467343.38 3330.47   1 0.45894-0.65700 0.19863 0.48520 0.86597-0.57698
   2 -10  -463599.41 5381.22   1 0.11163 0.08603-0.69815 0.01399 0.70718-0.99619
   2 -10  -332807.93 2257.45   1 0.49475-0.31593-0.01444-0.68924-0.86891 0.65201
  -2  10   329519.34 3148.31   1-0.16101-0.01825 0.60671 0.09708-0.77843 0.99510
  -2  10   331871.93 2498.65   1 0.46877-0.64642 0.26673 0.43713 0.84208-0.62534
   2 -10  -332319.66 2553.94   1 0.17337 0.00375-0.60364-0.10050 0.77817-0.99492
   2 -10  -224267.79 1609.66   1 0.55876-0.40080-0.10684-0.61642-0.82241 0.67776
  -2  10   223372.15 1980.10   1-0.06949-0.08933 0.54518 0.17847-0.83543 0.97988
  -2  10   223885.56 1618.87   1 0.47640-0.63370 0.33458 0.38919 0.81307-0.66853
   2 -10  -221746.47 1654.95   1 0.22589-0.06932-0.51017-0.21396 0.82987-0.97437
   2 -10  -123758.98 1515.54   1 0.61586-0.47827-0.19972-0.54355-0.76211 0.68978
  -2  10   122883.94 1561.05   1 0.02051-0.15890 0.47729 0.26621-0.87850 0.95072
  -2  10   123810.84 1733.58   1 0.48124-0.61814 0.40085 0.34297 0.77956-0.70729
   2 -10  -120991.53 2298.85   1 0.26885-0.13248-0.42287-0.32130 0.86538-0.93766
   2 -10   0 2664.26  386.12   1 0.66319-0.54623-0.28887-0.47424-0.69044 0.69044
  -2  10   0 2827.92  363.08   1 0.10508-0.22337 0.40714 0.35625-0.90729 0.90729
  -2  10   0 2914.85  312.59   1 0.48342-0.59990 0.46453 0.29933 0.74196-0.74196
   2 -10   0 3115.70  429.34   1 0.30329-0.18742-0.34484-0.41925 0.88830-0.88830
   2 -10   115546.77 1557.98   1 0.69930-0.60270-0.37103-0.41209-0.61099 0.68331
  -2  10  -114592.40 1357.64   1 0.18090-0.27881 0.33851 0.44474-0.92340 0.85115
  -2  10  -115479.74 1037.64   1 0.48322-0.57969 0.52519 0.25836 0.70047-0.77278
   2 -10   114317.27 1529.21   1 0.33016-0.23480-0.27783-0.50620 0.90210-0.82983
   2 -10   228559.05 3233.33   1 0.72436-0.64814-0.44438-0.35873-0.52707 0.67172
  -2  10  -227714.92 2990.13   1 0.24623-0.32384 0.27499 0.52833-0.92937 0.78484
  -2  10  -230483.15 2681.30   1 0.48022-0.55633 0.58199 0.22160 0.65625-0.80086
   2 -10   229034.73 2839.44   1 0.35069-0.27583-0.22224-0.58171 0.90973-0.76518
   2 -10   3 1693.34  289.28   1 0.73954-0.68417-0.50854-0.31454-0.44097 0.65800
  -2  10  -3 1725.55  224.30   1 0.30065-0.35791 0.21856 0.60464-0.92835 0.71155
  -2  10  -3 1584.83  177.51   1 0.47485-0.53058 0.63490 0.18873 0.60943-0.82635
   2 -10   3 1657.08  202.43   1 0.36573-0.31093-0.17772-0.64627 0.91359-0.69688
   2 -10   4 7532.62  883.25   1 0.74573-0.71073-0.56316-0.27992-0.35599 0.64536
  -2  10  -4 8200.28  790.84   1 0.34462-0.38152 0.17048 0.67260-0.92313 0.63406
  -2  10  -4 7544.08  750.80   1 0.46723-0.50259 0.68385 0.15983 0.56039-0.84961
   2 -10   4 7708.58  945.03   1 0.37687-0.34251-0.14350-0.70046 0.91507-0.62612
   2  -9  -9  432.71   91.21   1 0.58964-0.28452-0.76002 0.25316 0.27328-0.92463
   2  -9  -9  302.88   71.94   1 0.07541 0.23048 0.43256-0.94090-0.89844 0.24815
  -2   9   9  203.23   75.57   1 0.28433-0.58876 0.95852-0.45151-0.01964 0.67044
   2  -9  -8  106.54   62.10   1 0.54210-0.25740-0.75985 0.23299 0.35881-0.93779
   2  -9  -8  190.26   54.75   1 0.11387 0.17166 0.39946-0.92766-0.90964 0.33161
  -2   9   8  177.85   36.89   1 0.37733-0.66137-0.14205 0.66998 0.91511-0.33721
   2  -9  -7 6734.63  712.26   1 0.48508-0.22106-0.75150 0.20451 0.44714-0.95357
   2  -9  -7 7397.71  417.57   1 0.16200 0.10316 0.35612-0.90418-0.92028 0.41450
  -2   9   7 6352.41  787.00   1 0.39510-0.65871-0.08351 0.63140 0.91483-0.40916
   2  -9  -684239.18 2776.06   1 0.41781-0.17418-0.73321 0.16624 0.53649-0.97057
   2  -9  -690298.39 6927.30   1 0.21998 0.02481 0.30097-0.86888-0.92791 0.49438
  -2   9   689533.24 2666.65   1 0.41359-0.65677-0.01627 0.58414 0.91031-0.47689
   2  -9  -564503.78 2098.02   1 0.28707-0.06266 0.23296-0.82076-0.92914 0.56782
  -2   9   558789.73 4381.74   1-0.34019 0.11572 0.70182-0.11394-0.62586 0.98672
  -2   9   565192.98 1918.49   1 0.43151-0.65450 0.05728 0.53013 0.90028-0.53905
   2  -9  -4 9839.96  847.77   1 0.36094-0.15689 0.15202-0.75971-0.92011 0.63105
  -2   9   4 9450.45  664.14   1-0.25242 0.04859 0.65866-0.05081-0.70883 0.99752
  -2   9   410597.40  746.72   1 0.44775-0.65032 0.13505 0.47239 0.88389-0.59491
   2  -9  -4 8609.28  980.52   1 0.10726 0.09499-0.70427 0.09651 0.70177-0.99078
   2  -9  -3 3245.39  319.48   1 0.43775-0.25455 0.06008-0.68741-0.89708 0.68019
  -2   9   3 2818.91  293.95   1-0.15498-0.02865 0.60290 0.02456-0.78261 0.99928
  -2   9   3 3100.40  273.88   1 0.46139-0.64354 0.21415 0.41331 0.86096-0.64422
   2  -9  -3 2808.59  333.08   1 0.17769 0.00401-0.59643-0.03130 0.78274-0.99950
   2  -9  -2 2530.56  264.36   1 0.51299-0.35013-0.03966-0.60762-0.85747 0.71288
  -2   9   2 2775.75  287.49   1-0.05491-0.10828 0.53467 0.11264-0.84327 0.98771
  -2   9   2 2648.25  261.72   1 0.47205-0.63385 0.29235 0.35504 0.83168-0.68714
   2  -9  -2 2362.93  239.60   1 0.23716-0.07600-0.48837-0.15935 0.83978-0.98429
   2  -9  -1 2320.66  211.25   1 0.58119-0.43916-0.14186-0.52508-0.80130 0.72898
  -2   9   1 2399.62  260.61   1 0.04421-0.18719 0.45843 0.20876-0.88762 0.95988
  -2   9   1 2580.08  427.94   1 0.47914-0.62054 0.36782 0.29961 0.79694-0.72467
   2  -9  -1 2250.67  259.13   1 0.28493-0.14402-0.38742-0.28033 0.87676-0.94903
   2  -9   0127096.6 1989.68   1 0.63877-0.51710-0.24111-0.44583-0.73063 0.73063
  -2   9   0130277.9 7906.41   1 0.13699-0.25960 0.37891 0.30813-0.91523 0.91523
  -2   9   0120051.9 1843.79   1 0.48287-0.60385 0.43936 0.24812 0.75748-0.75748
   2  -9   0127201.6 2032.80   1 0.32234-0.20193-0.29794-0.38974 0.89850-0.89850
   2  -9   149230.63 3911.22   1 0.68357-0.58252-0.33305-0.37375-0.64945 0.72178
  -2   9  -153210.46 4331.47   1 0.21949-0.32174 0.30145 0.40545-0.92787 0.85561
  -2   9  -149180.48 3516.87   1 0.48339-0.58397 0.50626 0.20127 0.71416-0.78642
   2  -9   150521.67 4436.73   1 0.35073-0.25082-0.22211-0.48550 0.90975-0.83747
   2  -9   2 2781.52  238.54   1 0.71517-0.63450-0.41484-0.31196-0.56251 0.70716
  -2   9  -2 2501.84  204.12   1 0.28950-0.37144 0.23039 0.49657-0.92903 0.78450
  -2   9  -2 2353.39  190.56   1 0.48118-0.56175 0.56846 0.15878 0.66731-0.81192
   2  -9   2 2490.32  314.92   1 0.37150-0.29173-0.16021-0.56740 0.91450-0.77002
   2  -9   310374.54 1288.14   1 0.73507-0.67521-0.48583-0.26094-0.47289 0.68992
  -2   9  -310530.77  984.97   1 0.34670-0.40828 0.16815 0.57869-0.92277 0.70598
  -2   9  -310806.71  755.69   1 0.47602-0.53621 0.62537 0.12191 0.61830-0.83522
   2  -9   310339.76 1211.88   1 0.38680-0.32747-0.11150-0.63608 0.91539-0.69868
   2  -9   4  891.62  191.56   1 0.74453-0.70504-0.54575-0.22101-0.38446 0.67383
  -2   9  -4  912.33  137.67   1 0.39194-0.43318 0.11596 0.65076-0.91264 0.62358
  -2   9  -4  964.27  145.94   1 0.46841-0.50823 0.67733 0.09000 0.56727-0.85650
   2  -9   4 1065.03  188.67   1 0.39763-0.35873-0.07473-0.69282 0.91449-0.62554
   2  -9   5  492.59  120.53   1 0.74565-0.72653-0.59581-0.19095-0.29834 0.66005
  -2   9  -5  504.16   88.36   1 0.42668-0.44720 0.07387 0.71311-0.90137 0.53988
  -2   9  -5  401.50   75.90   1 0.45873-0.47828 0.72458 0.06286 0.51433-0.87595
   2  -9   5  424.55   77.83   1 0.40497-0.38649-0.04855-0.73897 0.91303-0.55184
   2  -9   6 2641.37  436.21   1 0.74005-0.74146-0.63721-0.16946-0.21511 0.64923
  -2   9  -6 2561.03  419.06   1 0.45254-0.45273 0.04131 0.76563-0.89078 0.45699
  -2   9  -6 2547.20  282.41   1 0.44682-0.44600 0.76719 0.04030 0.46017-0.89412
   2  -9   6 2448.58  333.45   1 0.40954-0.41148-0.03167-0.77581 0.91174-0.47831
   2  -8 -1028787.87 2986.28   1 0.64053-0.31081-0.75019 0.33969 0.16408-0.88769
   2  -8 -1029744.65 3092.94   1-0.02482 0.35590 0.51239-0.92454-0.85839 0.13616
  -2   8  1030108.58  944.61   1 0.37368-0.70308 0.90331-0.49276 0.21065 0.51270
   2  -8  -911345.34  973.86   1 0.60308-0.29351-0.75862 0.32808 0.24653-0.89789
   2  -8  -911370.70  639.88   1 0.00064 0.31000 0.49290-0.92491-0.87008 0.22007
  -2   8   911432.76  483.00   1 0.32059-0.62951 0.94475-0.51410 0.06820 0.58258
  -2   8   912338.88  559.63   1 0.31938-0.62887-0.30544 0.73737 0.89705-0.24658
   2  -8  -8  114.01   67.28   1 0.55710-0.26795-0.76067 0.31013 0.33316-0.91215
   2  -8  -8  192.41  100.89   1 0.03554 0.25432 0.46546-0.91732-0.88435 0.30631
   2  -8  -718112.52 1720.98   1 0.50100-0.23252-0.75457 0.28391 0.42380-0.93023
   2  -8  -720079.51 1307.63   1 0.08119 0.18831 0.42767-0.89939-0.90027 0.39449
  -2   8   718383.73 2281.38   1 0.36154-0.62969-0.19014 0.66163 0.91275-0.40709
   2  -8  -618380.41 2374.73   1 0.43349-0.18540-0.73817 0.24752 0.51689-0.95097
   2  -8  -621930.64 1236.50   1 0.13850 0.11063 0.37756-0.86913-0.91556 0.48204
  -2   8   620529.17 1840.83   1 0.38625-0.63397-0.11334 0.60479 0.91540-0.48197
   2  -8  -510248.76  848.83   1 0.20759 0.02118 0.31304-0.82447-0.92677 0.56550
  -2   8   5 9591.68  820.70   1-0.35359 0.12464 0.70761-0.19614-0.61176 0.97262
  -2   8   510642.11  672.21   1 0.41068-0.63798-0.02735 0.53878 0.91136-0.55017
   2  -8  -467739.32 1759.12   1 0.28709-0.07871 0.23293-0.76426-0.92914 0.64008
  -2   8   466602.54 4084.49   1-0.26129 0.05297 0.66341-0.13198-0.70114 0.98983
  -2   8   468525.76 1560.54   1 0.43305-0.64013 0.06414 0.46691 0.89908-0.61009
   2  -8  -364624.91 4526.95   1 0.37326-0.18523 0.13785-0.68906-0.91742 0.70062
  -2   8   360671.48 3829.11   1-0.15668-0.03132 0.60398-0.05285-0.78144 0.99811
  -2   8   362194.10 1646.57   1 0.45192-0.63859 0.15752 0.39355 0.87803-0.66129
   2  -8  -362917.85 1720.70   1 0.17711 0.00917-0.59740 0.04606 0.78213-0.99889
   2  -8  -2 7944.71  426.39   1 0.46034-0.29311 0.03126-0.60219-0.88718 0.74259
  -2   8   2 8219.67  767.66   1-0.04702-0.12053 0.52891 0.04207-0.84737 0.99181
  -2   8   2 7269.49  546.57   1 0.46644-0.63269 0.24906 0.32203 0.84875-0.70426
   2  -8  -2 6979.93  646.56   1 0.24594-0.08019-0.47091-0.10040 0.84720-0.99170
   2  -8  -1 3499.33  214.72   1 0.54177-0.39487-0.08107-0.50981-0.83660 0.76430
  -2   8   1 2888.30  294.53   1 0.06271-0.21002 0.44320 0.14766-0.89422 0.96648
  -2   8   1 3272.28  222.73   1 0.47656-0.62245 0.33626 0.25478 0.81228-0.74002
   2  -8  -1 3400.19  328.25   1 0.30006-0.15460-0.35250-0.23884 0.88639-0.95867
   2  -8   0  904.59   78.79   1 0.61145-0.48535-0.19206-0.41855-0.76761 0.76761
  -2   8   0 1059.04  125.30   1 0.16544-0.29239 0.35294 0.25777-0.92090 0.92090
  -2   8   0  911.68   72.15   1 0.48205-0.60754 0.41742 0.19367 0.77030-0.77030
   2  -8   0  943.66  102.52   1 0.34112-0.21615-0.24868-0.36260 0.90652-0.90652
   2  -8   155159.62 3951.47   1 0.66628-0.56078-0.29528-0.33521-0.68474 0.75706
  -2   8  -153578.36 4140.45   1 0.25585-0.36247 0.26525 0.36547-0.92961 0.85734
  -2   8  -149527.88 3856.80   1 0.48354-0.58861 0.49186 0.13928 0.72405-0.79632
   2  -8   154168.62 1496.60   1 0.37083-0.26610-0.16227-0.46896 0.91441-0.84217
   2  -8   249892.30 4586.60   1 0.70528-0.62015-0.38672-0.26377-0.59415 0.73880
  -2   8  -251004.82 3080.06   1 0.33115-0.41742 0.18546 0.46515-0.92516 0.78063
  -2   8  -251053.47 3491.84   1 0.48171-0.56674 0.55979 0.09110 0.67422-0.81884
   2  -8   250196.88 4767.89   1 0.39225-0.30795-0.09328-0.55792 0.91511-0.77064
   2  -8   313338.16  885.56   1 0.73021-0.66586-0.46529-0.20517-0.50027 0.71730
  -2   8  -313302.33  964.61   1 0.39121-0.45713 0.11683 0.55366-0.91285 0.69605
  -2   8  -312947.29  761.46   1 0.47655-0.54120 0.62082 0.05011 0.62247-0.83939
   2  -8   314885.10 1107.93   1 0.40723-0.34336-0.04024-0.63092 0.91243-0.69572
   2  -8   4 6969.01  693.84   1 0.74290-0.69892-0.53085-0.15961-0.40777 0.69715
  -2   8  -4 6729.64  576.95   1 0.43753-0.48275 0.06035 0.63031-0.89717 0.60798
  -2   8  -4 6473.59  531.46   1 0.46870-0.51299 0.67566 0.01532 0.56902-0.85825
   2  -8   4 6617.42  789.82   1 0.41746-0.37401-0.00119-0.68994 0.90869-0.61974
   2  -8   5 2423.49  158.78   1 0.74604-0.72244-0.58493-0.12553-0.31822 0.67993
  -2   8  -5 2345.38  208.84   1 0.47212-0.49701 0.01587 0.69475-0.88139 0.51990
  -2   8  -5 2228.26  308.02   1 0.45867-0.48268 0.72480-0.01371 0.51406-0.87568
   2  -8   5 2093.93  360.29   1 0.42413-0.40112 0.02585-0.73696 0.90522-0.54404
   2  -8   6 4244.51  322.25   1 0.74173-0.73865-0.62916-0.10121-0.23232 0.66644
  -2   8  -6 4198.88  313.11   1 0.49724-0.50180-0.01784 0.74843-0.86742 0.43363
  -2   8  -6 4334.17  384.70   1 0.44637-0.45001 0.76858-0.03744 0.45829-0.89223
   2  -8   6 3888.13  724.28   1 0.42812-0.42553 0.04266-0.77375 0.90271-0.46928
   2  -8   7 8709.50 1157.33   1 0.73149-0.74880-0.66496-0.08540-0.15079 0.65726
  -2   8  -7 9505.72  927.50   1 0.51476-0.49898-0.04215 0.79269-0.85629 0.35021
  -2   8  -7 9292.43  691.27   1 0.43215-0.41542 0.80742-0.05624 0.40161-0.90788
   2  -8   7 9540.50 1338.19   1 0.43000-0.44751 0.05065-0.80197 0.90140-0.39567
   2  -7 -10 9124.36 1078.53   1 0.65427-0.32008-0.74498 0.41079 0.13008-0.85369
   2  -7 -10 8890.24  988.44   1-0.09343 0.42889 0.56202-0.89784-0.82182 0.09959
  -2   7  10 8799.49 1287.10   1 0.40422-0.73809 0.86268-0.52848 0.30393 0.41942
  -2   7  10 9541.09  492.49   1 0.24712-0.58185-0.46851 0.80352 0.84818-0.12566
   2  -7  -9  216.23   75.38   1 0.61948-0.30546-0.75583 0.40161 0.21200-0.86336
   2  -7  -9  251.01   78.85   1-0.07284 0.38786 0.54757-0.90324-0.83357 0.18357
  -2   7   9  189.13   53.15   1 0.35994-0.67344 0.91703-0.56280 0.17172 0.47929
  -2   7   9  109.04   43.07   1 0.26448-0.57853-0.43220 0.78772 0.86211-0.21165
   2  -7  -8  253.78   57.29   1 0.57610-0.28249-0.76073 0.38651 0.29897-0.87795
   2  -7  -8  -55.82   95.31   1-0.04276 0.33734 0.52577-0.90130-0.84954 0.27176
  -2   7   8  242.97   70.36   1 0.30112-0.59416 0.95337-0.57905 0.02021 0.55827
  -2   7   8  130.50   30.56   1 0.28799-0.58153-0.38050 0.75594 0.87879-0.30060
   2  -7  -713502.41 1281.11   1 0.52229-0.24909-0.75783 0.36360 0.39101-0.89762
   2  -7  -714263.64 1109.73   1-0.00139 0.27553 0.49448-0.88986-0.86918 0.36362
  -2   7   714981.21  545.50   1 0.31685-0.58989-0.31176 0.70713 0.89577-0.38985
   2  -7  -6  199.13   36.32   1 0.45588-0.20333-0.74454 0.33021 0.48766-0.92174
   2  -7  -6  253.56   54.76   1 0.05305 0.20041 0.45118-0.86642-0.89085 0.45732
  -2   7   6  332.58   52.06   1 0.34926-0.60179-0.22625 0.64155 0.90929-0.47565
   2  -7  -513055.95  850.59   1 0.12193 0.11117 0.39235-0.82745-0.91169 0.55042
  -2   7   512355.53  909.85   1-0.37514 0.14170 0.71642-0.28136-0.58822 0.94908
  -2   7   515057.02 1402.65   1 0.38199-0.61382-0.12721 0.56223 0.91536-0.55418
   2  -7  -410297.58  813.53   1 0.20508 0.00766 0.31546-0.77041-0.92651 0.63749
  -2   7   411260.02  981.83   1-0.27934 0.06653 0.67282-0.21780-0.68503 0.97372
  -2   7   412198.65  986.04   1 0.41317-0.62458-0.01788 0.47286 0.91047-0.62152
   2  -7  -346247.25 3247.36   1 0.29982-0.10747 0.21945-0.69430-0.92840 0.71161
  -2   7   341930.69 3214.68   1-0.16917-0.02298 0.61010-0.13512-0.77404 0.99056
  -2   7   341193.61  815.85   1 0.43964-0.63081 0.09455 0.38012 0.89318-0.67644
   2  -7  -341907.88  873.61   1 0.16927 0.02160-0.61041 0.13549 0.77378-0.99054
   2  -7  -213216.75  964.36   1 0.39973-0.22813 0.10666-0.60124-0.91040 0.76580
  -2   7   212188.35 1228.61   1-0.04742-0.12451 0.52920-0.03455-0.84716 0.99161
  -2   7   212381.49 1082.19   1 0.45984-0.63059 0.20423 0.29047 0.86419-0.71970
   2  -7  -2 9687.54 1056.03   1 0.25131-0.08097-0.46002-0.03488 0.85160-0.99610
   2  -7  -1 1374.98  125.50   1 0.49639-0.34512-0.01668-0.49784-0.86793 0.79563
  -2   7   1 1165.30  116.20   1 0.07497-0.22662 0.43293 0.08159-0.89830 0.97055
  -2   7   1 1419.63  112.34   1 0.47365-0.62405 0.30687 0.20778 0.82551-0.75324
   2  -7  -1 1188.83  171.63   1 0.31418-0.16416-0.31839-0.19654 0.89437-0.96665
   2  -7   010475.43  694.44   1 0.58078-0.45025-0.14120-0.39308-0.80171 0.80171
  -2   7   010142.69  954.19   1 0.18992-0.32121 0.32997 0.20440-0.92468 0.92468
  -2   7   010399.68  627.59   1 0.48121-0.61119 0.40013 0.13457 0.77995-0.77995
   2  -7   0 9403.01 1050.60   1 0.35955-0.22986-0.19596-0.33889 0.91231-0.91231
   2  -7   127264.37 1705.75   1 0.64748-0.53732-0.25770-0.29658-0.71718 0.78950
  -2   7  -127903.01 2361.95   1 0.28995-0.40089 0.22992 0.32445-0.92901 0.85674
  -2   7  -126262.12 1699.41   1 0.48355-0.59313 0.48347 0.07128 0.72967-0.80193
   2  -7   127577.70 2786.69   1 0.39125-0.28198-0.09666-0.45816 0.91519-0.84295
   2  -7   212304.61  786.06   1 0.69512-0.60554-0.36052-0.21365-0.62194 0.76659
  -2   7  -210066.91 1128.08   1 0.37137-0.46197 0.14003 0.43421-0.91786 0.77332
  -2   7  -214703.85 1121.65   1 0.48183-0.57133 0.55762 0.01692 0.67593-0.82054
   2  -7   210527.20 1389.42   1 0.41269-0.32385-0.01974-0.55505 0.91065-0.76618
   2  -7   387237.50 3820.04   1 0.72522-0.65600-0.44737-0.14681-0.52336 0.74033
  -2   7  -389189.03 2145.45   1 0.43449-0.50443 0.06415 0.53020-0.89838 0.68149
  -2   7  -388116.19 2013.75   1 0.47633-0.54545 0.62271-0.02812 0.62074-0.83766
   2  -7   391037.41 2163.46   1 0.42691-0.35850 0.03751-0.63228 0.90351-0.68679
   2  -7   485496.25 2813.25   1 0.74127-0.69280-0.51912-0.09502-0.42546 0.71483
  -2   7  -484114.96 2758.50   1 0.48145-0.53105 0.00350 0.61081-0.87646 0.58727
  -2   7  -482553.07 2638.45   1 0.46793-0.51667 0.68002-0.06538 0.56444-0.85367
   2  -7   482646.85 2712.98   1 0.43618-0.38793 0.07832-0.69318 0.89644-0.60745
   2  -7   5 2049.83  209.02   1 0.74609-0.71800-0.57716-0.05698-0.33198 0.69370
  -2   7  -5 2085.04  269.95   1 0.51546-0.54473-0.04314 0.67742-0.85582 0.49433
  -2   7  -5 2069.65  218.63   1 0.45726-0.48572 0.73049-0.09576 0.50722-0.86884
   2  -7   5 2076.67  325.62   1 0.44189-0.41406 0.10542-0.74030 0.89084-0.52961
   2  -7   611667.35  872.25   1 0.74266-0.73508-0.62394-0.03012-0.24319 0.67730
  -2   7  -611126.00  840.09   1 0.53941-0.54834-0.07759 0.73182-0.83846 0.40467
  -2   7  -611462.30  756.78   1 0.44433-0.45243 0.77478-0.12000 0.44974-0.88368
   2  -7   611194.50 1502.10   1 0.44509-0.43767 0.12133-0.77624 0.88722-0.45374
   2  -7   7 1749.94  183.57   1 0.73288-0.74569-0.66134-0.01272-0.15969 0.66616
  -2   7  -7 1604.32  188.51   1 0.55564-0.54362-0.10209 0.77639-0.82512 0.31887
  -2   7  -7 1573.02  237.04   1 0.42954-0.41727 0.81359-0.13876 0.39185-0.89812
   2  -7   7 1698.61  297.48   1 0.44638-0.45939 0.12795-0.80288 0.88564-0.37991
   2  -7   8 6170.07  512.52   1 0.71825-0.75146-0.69105-0.00300-0.08094 0.65977
  -2   7  -8 5899.09  636.00   1 0.56572-0.53334-0.11754 0.81184-0.81617 0.23758
  -2   7  -8 6149.41  582.34   1 0.41304-0.38039 0.84742-0.15255 0.33356-0.91215
   2  -7   8 6055.03 1044.94   1 0.44615-0.47956 0.12673-0.82168 0.88593-0.30796
   2  -6 -1110863.10 1180.31   1 0.69409-0.33501-0.71975 0.48186 0.01369-0.80966
  -2   6  1111454.58  502.62   1 0.45566-0.81446 0.73671-0.49907 0.49962 0.29593
  -2   6  1111223.90  552.23   1 0.16998-0.52984-0.60924 0.84785 0.77455 0.02022
   2  -6 -10  297.45   53.93   1 0.66954-0.33087-0.73740 0.47952 0.08914-0.81275
  -2   6  10  181.40   82.16   1 0.43200-0.77043 0.80779-0.55011 0.40104 0.32219
  -2   6  10  249.47  116.69   1 0.17886-0.51817-0.59446 0.85306 0.78397-0.06145
   2  -6  -9 2108.01  312.78   1 0.63819-0.31993-0.75095 0.47307 0.16962-0.82087
   2  -6  -9 2095.82  325.74   1-0.14382 0.46321 0.59575-0.87509-0.79018 0.14017
  -2   6   9 2228.98  258.11   1 0.39825-0.71622 0.87193-0.59407 0.28481 0.36620
  -2   6   9 1026.58  525.96   1 0.19564-0.51441-0.56558 0.84416 0.80114-0.15087
   2  -6  -816659.58 1508.35   1 0.59846-0.30040-0.75918 0.46128 0.25586-0.83485
   2  -6  -816589.49 1039.68   1-0.11965 0.41860 0.57986-0.87905-0.80587 0.22809
  -2   6   816637.51  520.97   1 0.35089-0.64849 0.92481-0.62691 0.14691 0.43177
  -2   6   815709.85 1019.10   1 0.22097-0.51918-0.51950 0.81807 0.82540-0.24738
   2  -6  -712928.90 1330.61   1 0.54825-0.27060-0.76027 0.44236 0.34842-0.85503
   2  -6  -714933.21 1123.05   1-0.08421 0.36272 0.55559-0.87464-0.82717 0.32161
  -2   6   714144.52  454.26   1 0.28558-0.56274 0.95820-0.64022-0.01673 0.52290
  -2   6   714113.51  496.07   1 0.25489-0.53255-0.45266 0.77122 0.85447-0.34870
   2  -6  -624079.17 2569.03   1 0.48484-0.22783-0.75145 0.41343 0.44748-0.88156
   2  -6  -628155.07 2249.72   1-0.03492 0.29299 0.51996-0.85885-0.85347 0.42013
  -2   6   626081.59  708.81   1 0.29597-0.55306-0.36210 0.70099 0.88390-0.45025
   2  -6  -5 2891.32  376.08   1 0.40552-0.16890-0.72905 0.37105 0.55138-0.91311
   2  -6  -5 6250.94  416.54   1 0.03082 0.20661 0.46926-0.82801-0.88251 0.52124
  -2   6   5 5079.04  557.65   1 0.34111-0.57769-0.24868 0.60750 0.90652-0.54515
   2  -6  -418592.42 1393.52   1 0.11486 0.10221 0.39859-0.77720-0.90990 0.62088
  -2   6   415140.95 1470.38   1-0.30785 0.09056 0.68695-0.30834-0.65826 0.94695
  -2   6   415465.90 1532.04   1 0.38481-0.60076-0.11803 0.49661 0.91541-0.62646
   2  -6  -355805.68 1721.60   1 0.21625-0.01954 0.30462-0.70308-0.92759 0.71083
  -2   6   358139.78 3499.33   1-0.19146-0.00518 0.62378-0.22521-0.75778 0.97429
  -2   6   358794.13 1247.88   1 0.42298-0.61850 0.02107 0.37747 0.90589-0.68918
   2  -6  -358454.53 1294.07   1 0.14963 0.04583-0.64183 0.24332 0.75210-0.96886
   2  -6  -2  753.50   74.55   1 0.32952-0.15319 0.18725-0.60563-0.92538 0.78085
  -2   6   2  944.99  106.09   1-0.05838-0.11792 0.53719-0.11888-0.84143 0.98588
  -2   6   2  942.67   69.39   1 0.45179-0.62705 0.15675 0.26155 0.87824-0.73375
   2  -6  -2  793.55   92.62   1 0.25144-0.07652-0.45974 0.04125 0.85170-0.99621
   2  -6  -132362.64 2630.81   1 0.44373-0.28809 0.05253-0.49070-0.89461 0.82231
  -2   6   126815.10 2450.23   1 0.07920-0.23519 0.42935 0.00882-0.89965 0.97190
  -2   6   131915.12 2198.38   1 0.47052-0.62537 0.28081 0.15752 0.83650-0.76426
   2  -6  -129469.47 1650.52   1 0.32716-0.17260-0.28560-0.15293 0.90077-0.97304
   2  -6   019979.25 1356.15   1 0.54625-0.41094-0.08771-0.37042-0.83301 0.83301
  -2   6   023106.30 2018.08   1 0.20955-0.34517 0.31114 0.14689-0.92697 0.92697
  -2   6   023533.34 1637.96   1 0.48062-0.61511 0.38992 0.06840 0.78546-0.78546
   2  -6   020157.65  662.92   1 0.37861-0.24437-0.13802-0.32043 0.91520-0.91520
   2  -6   133775.13 2774.86   1 0.62766-0.51307-0.22067-0.25729-0.74655 0.81887
  -2   6  -133844.28  984.14   1 0.32165-0.43693 0.19589 0.28212-0.92637 0.85410
  -2   6  -135812.98 2829.50   1 0.48355-0.59763 0.48376-0.00538 0.72948-0.80174
   2  -6   133216.52  923.73   1 0.41192-0.29811-0.02266-0.45575 0.91093-0.83869
   2  -6   275742.84 2027.59   1 0.68527-0.59123-0.33697-0.16090-0.64563 0.79028
  -2   6  -277864.03 2059.58   1 0.41052-0.50516 0.09368 0.40436-0.90702 0.76242
  -2   6  -277630.03 1968.93   1 0.48144-0.57539 0.56439-0.06619 0.67057-0.81519
   2  -6   276498.99 1986.63   1 0.43281-0.33921 0.06304-0.56145 0.89927-0.75478
   2  -6   327973.19 1597.60   1 0.72112-0.64745-0.43347-0.08439-0.54044 0.75741
  -2   6  -331933.61 3237.78   1 0.47655-0.55086 0.01001 0.50798-0.87908 0.66219
  -2   6  -329244.22 2548.07   1 0.47508-0.54867 0.63302-0.11478 0.61119-0.82812
   2  -6   329339.28 2094.81   1 0.44559-0.37241 0.12387-0.64230 0.88662-0.66988
   2  -6   413982.88  936.04   1 0.74004-0.68708-0.51147-0.02637-0.43672 0.72610
  -2   6  -412199.75 1529.05   1 0.52381-0.57778-0.05499 0.59295-0.85005 0.56086
  -2   6  -412031.81 1089.65   1 0.46569-0.51890 0.69193-0.15365 0.55168-0.84090
   2  -6   412508.87 1901.40   1 0.45329-0.40053 0.16515-0.70361 0.87592-0.58694
   2  -6   573790.07 5146.88   1 0.74605-0.71346-0.57325 0.01540-0.33880 0.70051
  -2   6  -571880.78 2432.14   1 0.55681-0.58995-0.10388 0.66185-0.82411 0.46250
  -2   6  -571098.68 2336.16   1 0.45405-0.48696 0.74273-0.18435 0.49212-0.85374
   2  -6   569411.40 2354.93   1 0.45772-0.42538 0.19113-0.74961 0.86830-0.50707
   2  -6   611746.65  759.78   1 0.74295-0.73087-0.62211 0.04434-0.24694 0.68106
  -2   6  -611180.24 1255.50   1 0.57903-0.59180-0.13841 0.71638-0.80347 0.36953
  -2   6  -611725.62  754.19   1 0.44024-0.45279 0.78654-0.20812 0.43304-0.86698
   2  -6   612019.90 1789.77   1 0.45997-0.44804 0.20504-0.78355 0.86393-0.43045
   2  -6   716973.52 1038.39   1 0.73316-0.74148-0.66057 0.06280-0.16155 0.66802
  -2   6  -715508.75 1737.63   1 0.59343-0.58584-0.16172 0.75969-0.78846 0.28220
  -2   6  -716260.04 3951.06   1 0.42470-0.41688 0.82439-0.22592 0.37416-0.88043
   2  -6   716217.60 4344.64   1 0.46063-0.46912 0.20929-0.80782 0.86255-0.35683
   2  -6   847368.21 4085.87   1 0.71844-0.74715-0.69075 0.07299-0.08181 0.66063
  -2   6  -842203.78 5763.28   1 0.60200-0.57405-0.17597 0.79394-0.77886 0.20028
  -2   6  -847273.71 4533.08   1 0.40770-0.37941 0.85696-0.23850 0.31527-0.89395
   2  -6   850142.55 2137.68   1 0.46005-0.48896 0.20560-0.82415 0.86375-0.28578
   2  -6   915391.40 1490.44   1 0.69997-0.74910-0.71413 0.07629-0.00678 0.65803
  -2   6  -914210.80 2104.72   1 0.60606-0.55774-0.18284 0.82081-0.77411 0.12321
  -2   6  -915182.46 1332.36   1 0.38909-0.34044 0.88479-0.24629 0.25641-0.90743
   2  -6   914452.94 2106.23   1 0.45839-0.50772 0.19520-0.83378 0.86704-0.21682
   2  -5 -11 9665.75  853.31   1 0.70652-0.34296-0.70700 0.54543-0.03119-0.76477
   2  -5 -11 9131.68 1216.28   1-0.22366 0.58994 0.64268-0.80512-0.73275-0.06113
  -2   5  1110085.17  473.43   1 0.46985-0.83312 0.66897-0.50769 0.57594 0.21943
   2  -5 -1038439.10 3724.38   1 0.68557-0.34243-0.72681 0.54524 0.04153-0.76514
   2  -5 -1037374.70 4192.39   1-0.22123 0.56687 0.64129-0.82369-0.73470 0.01298
  -2   5  1039541.25 1139.25   1 0.45484-0.79772 0.73980-0.55847 0.49578 0.22745
   2  -5  -9 1931.92  226.05   1 0.65835-0.33562-0.74316 0.54159 0.11948-0.77073
   2  -5  -9 2376.63  208.50   1-0.21215 0.53714 0.63604-0.83841-0.74191 0.09236
  -2   5   9 1473.24  415.25   1 0.43184-0.75436 0.80817-0.60680 0.40045 0.25046
  -2   5   9 1122.65  477.58   1 0.11363-0.43698-0.69533 0.89750 0.70964-0.05937
   2  -5  -8 1311.47  190.23   1 0.62328-0.32076-0.75500 0.53341 0.20368-0.78267
   2  -5  -8 1379.41  145.79   1-0.19473 0.49908 0.62574-0.84808-0.75532 0.17795
  -2   5   8 1458.47  163.50   1 0.39818-0.70025 0.87204-0.65050 0.28459 0.29408
  -2   5   8 1003.57  342.59   1 0.13644-0.43923-0.66204 0.88420 0.73694-0.15892
   2  -5  -7 1013.28  113.67   1 0.57812-0.29601-0.76067 0.51908 0.29521-0.80182
   2  -5  -7 1105.15  109.13   1-0.16666 0.45036 0.60853-0.85084-0.77582 0.27062
  -2   5   7  864.06  146.89   1 0.34876-0.63047 0.92651-0.68494 0.14116 0.36518
  -2   5   7  752.10  191.15   1 0.17121-0.45346-0.60721 0.84935 0.77587-0.27010
   2  -5  -6 1176.68  132.99   1 0.51985-0.25816-0.75751 0.49593 0.39485-0.82909
   2  -5  -6 1415.70  124.50   1-0.12354 0.38598 0.58245-0.84501-0.80341 0.37007
  -2   5   6 1247.92  138.07   1 0.27633-0.53761 0.96030-0.69865-0.03821 0.47207
  -2   5   6 1096.17  209.40   1 0.21899-0.48069-0.52322 0.78535 0.82357-0.39006
   2  -5  -565838.53 1651.69   1 0.44451-0.20343-0.74141 0.45973 0.50270-0.86444
   2  -5  -563305.83 1586.17   1-0.06409 0.30609 0.54131-0.82372-0.83837 0.47725
  -2   5   566071.33 1343.00   1 0.27792-0.51906-0.40307 0.68548 0.87194-0.51057
   2  -5  -467336.25 1449.64   1 0.01688 0.20468 0.48017-0.78244-0.87700 0.58811
  -2   5   464408.09 4670.78   1-0.34792 0.12614 0.70519-0.40299-0.61777 0.90646
  -2   5   468858.24  873.12   1 0.34140-0.56203-0.24789 0.55023 0.90663-0.61753
   2  -5  -351104.58 1167.33   1 0.12163 0.07941 0.39262-0.71474-0.91162 0.69485
  -2   5   351031.42 1147.67   1-0.22756 0.02642 0.64489-0.32273-0.72960 0.94612
  -2   5   351438.95  936.25   1 0.39855-0.59861-0.07151 0.39364 0.91435-0.69763
   2  -5  -353166.15  984.45   1 0.10883 0.09121-0.70208 0.37999 0.70372-0.92048
   2  -5  -254435.51 1171.80   1 0.24717-0.06651 0.27405-0.61607-0.92940 0.78487
  -2   5   254891.42 1171.83   1-0.08321-0.09747 0.55489-0.21291-0.82774 0.97219
  -2   5   255263.85  986.22   1 0.44169-0.62146 0.10442 0.23749 0.89106-0.74657
   2  -5  -256154.75 1032.36   1 0.24235-0.06284-0.47810 0.13601 0.84420-0.98871
   2  -5  -1 3930.97  264.84   1 0.38159-0.22129 0.12815-0.49005-0.91540 0.84313
  -2   5   1 3648.93  369.05   1 0.07252-0.23283 0.43499-0.07315-0.89750 0.96975
  -2   5   1 4921.02  371.73   1 0.46801-0.62736 0.26077 0.10116 0.84436-0.77212
   2  -5  -1 3972.39  458.27   1 0.33872-0.17961-0.25514-0.10698 0.90562-0.97790
   2  -5   0 5970.69  598.73   1 0.50679-0.36711-0.03101-0.35076-0.86150 0.86150
  -2   5   0 4715.39  433.50   1 0.22287-0.36282 0.29824 0.08353-0.92810 0.92810
  -2   5   0 6122.03  484.19   1 0.48070-0.61968 0.39118-0.00924 0.78479-0.78479
   2  -5   0 4617.75  494.77   1 0.39857-0.25980-0.07144-0.31059 0.91434-0.91434
   2  -5   193413.33 1796.79   1 0.60693-0.48791-0.18431-0.21732-0.77308 0.84540
  -2   5  -194743.25 1815.22   1 0.35068-0.47029 0.16366 0.23799-0.92207 0.84981
  -2   5  -193896.04 1688.06   1 0.48350-0.60208 0.49712-0.09513 0.72047-0.79274
   2  -5   193921.67 1718.44   1 0.43309-0.31457 0.06430-0.46630 0.89905-0.82680
   2  -5   219034.09 1654.51   1 0.67647-0.57797-0.31712-0.10443-0.66469 0.80934
  -2   5  -220001.95  684.13   1 0.44848-0.54749 0.04650 0.37518-0.89258 0.74798
  -2   5  -219616.23 1876.44   1 0.48009-0.57851 0.58368-0.16184 0.65484-0.79945
   2  -5   220146.89  644.10   1 0.45210-0.35399 0.15848-0.58050 0.87777-0.73328
   2  -5   335787.37 2817.78   1 0.71837-0.64025-0.42465-0.01690-0.55100 0.76798
  -2   5  -332630.81 3216.13   1 0.51766-0.59634-0.04625 0.48789-0.85433 0.63743
  -2   5  -335231.17  971.25   1 0.47215-0.55019 0.65440-0.21251 0.59062-0.80754
   2  -5   334452.52  978.10   1 0.46246-0.38478 0.22126-0.66331 0.85858-0.64184
   2  -5   4143606.7 3476.75   1 0.73962-0.68217-0.50902 0.04749-0.44027 0.72964
  -2   5  -4142804.1 3431.83   1 0.56475-0.62268-0.11604 0.57768-0.81705 0.52776
  -2   5  -4143698.4 3451.70   1 0.46138-0.51912 0.71325-0.25127 0.52763-0.81692
   2  -5   4143503.7 3409.35   1 0.46805-0.41078 0.26107-0.72314 0.84425-0.55527
   2  -5   515357.57  896.21   1 0.74606-0.70898-0.57405 0.09252-0.33740 0.69912
  -2   5  -514678.85 1840.41   1 0.59575-0.63332-0.16555 0.64719-0.78591 0.42430
  -2   5  -513829.22 1268.44   1 0.44824-0.48561 0.76266-0.28064 0.46627-0.82789
   2  -5   513177.72 1919.43   1 0.47090-0.43405 0.28403-0.76612 0.83520-0.47397
   2  -5   613454.96  823.98   1 0.74260-0.72603-0.62429 0.12281-0.24248 0.67660
  -2   5  -612259.87 1465.42   1 0.61572-0.63293-0.19948 0.70112-0.76228 0.32835
  -2   5  -611389.97 1025.53   1 0.43334-0.45034 0.80453-0.30247 0.40611-0.84005
   2  -5   610651.74 1852.82   1 0.47227-0.45573 0.29431-0.79654 0.83086-0.39726
   2  -5   7  543.78   84.03   1 0.73223-0.73605-0.66306 0.14160-0.15547 0.66194
  -2   5  -7  436.86   64.75   1 0.62803-0.62487-0.22134 0.74298-0.74604 0.23978
  -2   5  -7  527.00  109.75   1 0.41693-0.41357 0.84015-0.31804 0.34684-0.85311
   2  -5   7  480.43   85.87   1 0.47234-0.47620 0.29488-0.81716 0.83062-0.32475
   2  -5   8  642.07  177.32   1 0.71697-0.74118-0.69303 0.15157-0.07514 0.65396
  -2   5  -8  799.25  210.77   1 0.63485-0.61133-0.23382 0.77547-0.73639 0.15781
  -2   5  -8  724.00  198.76   1 0.39927-0.37546 0.87040-0.32830 0.28805-0.86674
   2  -5   8  786.43  226.30   1 0.47135-0.49575 0.28780-0.82997 0.83366-0.25569
   2  -5   936690.03 3085.22   1 0.69812-0.74278-0.71597 0.15443-0.00022 0.65147
  -2   5  -934423.42 4158.73   1 0.63758-0.59370-0.23890 0.80054-0.73239 0.08149
  -2   5  -934425.52 3679.14   1 0.38020-0.33601 0.89592-0.33379 0.22970-0.88072
   2  -5   934112.04 4560.03   1 0.46971-0.51453 0.27420-0.83639 0.83915-0.18893
   2  -4 -1115951.67 1830.26   1 0.71837-0.35065-0.69086 0.60557-0.08150-0.71437
   2  -4 -1114513.60 2956.16   1-0.27477 0.64554 0.67048-0.75651-0.68917-0.10472
  -2   4  1116974.15  864.57   1 0.47914-0.84688 0.59506-0.51013 0.64522 0.15015
   2  -4 -10 4276.68  561.30   1 0.70149-0.35387-0.71256 0.60731-0.01230-0.71130
   2  -4 -10 3735.21  738.09   1-0.27738 0.62751 0.67182-0.77782-0.68680-0.03491
  -2   4  10 4460.01  598.61   1 0.47092-0.81828 0.66236-0.55740 0.58266 0.14040
   2  -4  -950558.23 5755.49   1 0.67892-0.35171-0.73158 0.60633 0.06195-0.71320
   2  -4  -950928.27 1866.25   1-0.27425 0.60373 0.67021-0.79617-0.68963 0.04008
  -2   4   953415.96 1574.18   1 0.45776-0.78473 0.72853-0.60351 0.50960 0.14130
   2  -4  -8 5279.11  719.40   1 0.64932-0.34252-0.74702 0.60176 0.14260-0.72149
   2  -4  -8 5399.95  707.80   1-0.26386 0.57270 0.66477-0.81070-0.69888 0.12151
  -2   4   8 4831.09 1127.21   1 0.43725-0.74385 0.79460-0.64954 0.42120 0.15738
   2  -4  -7 3877.51  416.86   1 0.61052-0.32396-0.75751 0.59225 0.23114-0.73775
   2  -4  -7 4126.58  340.70   1-0.24399 0.53219 0.65406-0.81995-0.71600 0.21079
  -2   4   7 5102.93  606.13   1 0.40610-0.69228 0.85962-0.69441 0.31004 0.19630
   2  -4  -676126.92 2112.64   1 0.55936-0.29321-0.76074 0.57547 0.32920-0.76344
   2  -4  -674156.25 2058.18   1-0.21141 0.47897 0.63561-0.82147-0.74249 0.30945
   2  -4  -5329524.0 2863.68   1 0.49121-0.24566-0.75274 0.54738 0.43827-0.80000
   2  -4  -5326024.4 5665.03   1-0.16040 0.40678 0.60633-0.81241-0.77886 0.41774
  -2   4   5311244.7 5032.95   1 0.17808-0.42382-0.59577 0.80148 0.78316-0.42190
   2  -4  -418468.80 1557.78   1-0.08718 0.31312 0.55767-0.78360-0.82546 0.53657
  -2   4   415333.96 1768.89   1-0.39991 0.17364 0.72576-0.49997-0.55976 0.84845
  -2   4   415979.10  777.50   1 0.26582-0.49099-0.42936 0.65529 0.86312-0.57402
   2  -4  -3286141.7 5083.74   1 0.01549 0.18999 0.48127-0.72705-0.87643 0.65976
  -2   4   3286035.3 5060.17   1-0.27992 0.07429 0.67312-0.42737-0.68449 0.90101
  -2   4   3274583.7 4597.92   1 0.35709-0.56169-0.20313 0.44886 0.91171-0.69500
   2  -4  -2162660.1 3047.31   1 0.14991 0.03510 0.36722-0.63286-0.91797 0.77346
  -2   4   2159991.3 2991.69   1-0.12641-0.05864 0.58436-0.31872-0.80158 0.94603
  -2   4   2171967.8 2955.82   1 0.42787-0.61204 0.04159 0.22410 0.90288-0.75840
   2  -4  -2163785.6 2855.68   1 0.21366-0.02957-0.53312 0.26745 0.81861-0.96311
   2  -4  -139522.40  769.07   1 0.30658-0.14195 0.21221-0.49776-0.92788 0.85561
  -2   4   139588.94 3067.74   1 0.05021-0.21486 0.45352-0.16802-0.88982 0.96208
  -2   4   139538.44  572.05   1 0.46690-0.63077 0.25244 0.03310 0.84750-0.77525
   2  -4  -141008.18  615.73   1 0.34814-0.18447-0.22937-0.05634 0.90894-0.98122
   2  -4   087487.89 1795.08   1 0.46080-0.31675 0.03065-0.33608-0.88696 0.88696
  -2   4   086001.45 1763.63   1 0.22710-0.37138 0.29407 0.01134-0.92840 0.92840
  -2   4   088019.71 1671.61   1 0.48184-0.62533 0.41274-0.10719 0.77295-0.77295
   2  -4   088461.48 1696.34   1 0.42044-0.27713 0.01073-0.31636 0.90725-0.90725
   2  -4   111153.18 1156.80   1 0.58563-0.46218-0.14901-0.17629-0.79675 0.86907
  -2   4  -1 8139.42  866.01   1 0.37650-0.50043 0.13409 0.19121-0.91665 0.84439
  -2   4  -1 8633.42  815.68   1 0.48301-0.60626 0.53160-0.20615 0.69576-0.76807
   2  -4   1 8691.35 1003.23   1 0.45442-0.33139 0.17160-0.49720 0.87410-0.80185
   2  -4   2  677.12   74.00   1 0.66977-0.56682-0.30264-0.04259-0.67808 0.82273
  -2   4  -2  351.38   59.35   1 0.48569-0.58908-0.00218 0.34752-0.87412 0.72952
  -2   4  -2  313.84   32.98   1 0.47655-0.57943 0.62080-0.27530 0.62249-0.76711
   2  -4   2  511.67   79.66   1 0.46947-0.36686 0.27227-0.61789 0.83991-0.69542
   2  -4   368193.17 1168.13   1 0.71777-0.63519-0.42276 0.05752-0.55323 0.77020
  -2   4  -367511.39 1388.90   1 0.55815-0.64088-0.10592 0.47123-0.82294 0.60597
  -2   4  -369549.42 1414.29   1 0.46604-0.54854 0.69016-0.32462 0.55360-0.77052
   2  -4   368147.44 1341.49   1 0.47627-0.39401 0.33318-0.69888 0.81372-0.59692
   2  -4   436105.36 2792.54   1 0.74034-0.67840-0.51329 0.12806-0.43406 0.72344
  -2   4  -430903.85  950.80   1 0.60386-0.66622-0.17911 0.56442-0.77670 0.48741
  -2   4  -431349.08 2955.91   1 0.45321-0.51540 0.74576-0.36014 0.48829-0.77759
   2  -4   431929.75  940.39   1 0.47915-0.41729 0.36787-0.75362 0.79691-0.50785
   2  -4   5  289.70   52.17   1 0.74609-0.70453-0.58059 0.17537-0.32594 0.68766
  -2   4  -5  175.85   37.60   1 0.63214-0.67414-0.22882 0.63414-0.74029 0.37867
  -2   4  -5  257.01   41.49   1 0.43851-0.48033 0.79126-0.38560 0.42615-0.78777
   2  -4   5  366.19   67.98   1 0.48031-0.43886 0.38493-0.79073 0.78811-0.42678
   2  -4   652140.51 4179.48   1 0.74136-0.72029-0.63108 0.20591-0.22828 0.66240
  -2   4  -650566.81 1608.43   1 0.64927-0.67091-0.26117 0.68649-0.71430 0.28036
  -2   4  -646176.48 4208.22   1 0.42246-0.44392 0.82911-0.40341 0.36617-0.80012
   2  -4   648028.93 1506.44   1 0.48060-0.45955 0.38953-0.81538 0.78567-0.35207
   2  -4   7 3388.82  413.81   1 0.72975-0.72907-0.66916 0.22400-0.14026 0.64673
  -2   4  -7 3325.31  530.33   1 0.65914-0.66042-0.28078 0.72610-0.69762 0.19136
  -2   4  -7 3939.91  399.29   1 0.40535-0.40637 0.86085-0.41515 0.30759-0.81394
   2  -4   7 3043.79  515.36   1 0.48031-0.47967 0.38491-0.83080 0.78812-0.28225
   2  -4   8  116.59  110.91   1 0.71351-0.73322-0.69806 0.23291-0.06003 0.63885
  -2   4  -8  128.71   72.92   1 0.66424-0.64495-0.29103 0.75626-0.68853 0.10994
  -2   4  -8  112.89   71.96   1 0.38702-0.36768 0.88749-0.42176 0.25012-0.82880
   2  -4   8   68.62   55.15   1 0.47952-0.49929 0.37309-0.83904 0.79426-0.21613
   2  -4   919874.78 1355.88   1 0.69397-0.73416-0.71985 0.23462 0.01410 0.63714
  -2   4  -918736.11 1862.82   1 0.66559-0.62593-0.29384 0.77908-0.68603 0.03511
  -2   4  -919645.22 2012.63   1 0.36761-0.32789 0.90968-0.42391 0.19324-0.84426
   2  -4   918941.05 2282.44   1 0.47819-0.51837 0.35541-0.84140 0.80312-0.15272
   2  -4  10  215.86  116.40   1 0.67171-0.73231-0.73614 0.23091 0.08299 0.64061
  -2   4 -10  119.61   76.03   1 0.66417-0.60414-0.29088 0.79612-0.68866-0.03457
  -2   4 -10  386.69   96.37   1 0.34706-0.28698 0.92783-0.42203 0.13660-0.85995
   2  -4  10  255.92   58.78   1 0.47623-0.53681 0.33270-0.83874 0.81394-0.09128
   2  -3 -1117871.18 2563.43   1 0.72910-0.35688-0.67065 0.66166-0.13646-0.65941
   2  -3 -1118861.20 3125.23   1-0.32068 0.69594 0.69301-0.70262-0.64567-0.14821
  -2   3  1119578.36  977.51   1 0.48314-0.85561 0.51846-0.50983 0.70552 0.08940
   2  -3 -10128441.812799.87   1 0.71622-0.36439-0.69416 0.66518-0.07180-0.65172
   2  -3 -10127790.1 2477.14   1-0.32803 0.68265 0.69638-0.72596-0.63831-0.08340
   2  -3  -924522.70 2506.57   1 0.69871-0.36702-0.71539 0.66645-0.00230-0.64894
   2  -3  -925081.48 2912.26   1-0.33059 0.66457 0.69754-0.74709-0.63571-0.01383
  -2   3   927825.59  720.34   1 0.47429-0.80574 0.63917-0.59051 0.60538 0.04537
   2  -3  -810721.61 1167.02   1 0.67511-0.36383-0.73407 0.66512 0.07320-0.65209
   2  -3  -810314.69 1020.69   1-0.32713 0.64046 0.69597-0.76549-0.63921 0.06183
  -2   3   811447.57 1327.15   1 0.46421-0.77528 0.69934-0.63064 0.54353 0.03492
   2  -3  -7 2888.82  345.88   1 0.64365-0.35278-0.74913 0.66018 0.15656-0.66309
   2  -3  -7 2872.28  255.65   1-0.31574 0.60843 0.69070-0.78018-0.65056 0.14536
  -2   3   7 3085.53  455.53   1 0.44880-0.73949 0.76086-0.67211 0.46867 0.03758
   2  -3  -624142.25 2559.75   1 0.60136-0.33075-0.75884 0.64989 0.25003-0.68427
   2  -3  -624822.26  826.74   1-0.29344 0.56548 0.67993-0.78937-0.67199 0.23896
   2  -3  -5102704.9 2048.33   1 0.54362-0.29343-0.75996 0.63101 0.35626-0.71812
   2  -3  -5103311.6 2053.79   1-0.25560 0.50700 0.66037-0.78978-0.70609 0.34523
  -2   3   5104239.7 1665.90   1 0.38226-0.63217 0.89345-0.76453 0.23582 0.12584
   2  -3  -4379278.1 6624.61   1 0.46321-0.23360-0.74644 0.59741 0.47776-0.76715
   2  -3  -4368876.5 6436.26   1-0.19509 0.42585 0.62596-0.77534-0.75505 0.46636
  -2   3   4371362.4 6105.66   1 0.30233-0.53186 0.95291-0.80393 0.02315 0.26609
  -2   3   4378514.2 6240.30   1 0.12594-0.35572-0.67761 0.82690 0.72455-0.43554
   2  -3  -3281709.1 4975.62   1-0.10083 0.31070 0.56712-0.73657-0.81743 0.60076
  -2   3   3289544.1 5080.66   1-0.35005 0.13993 0.70610-0.53676-0.61552 0.83204
  -2   3   3285676.6 4713.79   1 0.26891-0.47813-0.42274 0.59219 0.86543-0.64861
   2  -3  -213471.20  441.95   1 0.03522 0.15412 0.46572-0.65502-0.88423 0.73972
  -2   3   212987.51 1129.68   1-0.19463 0.00515 0.62568-0.43638-0.75540 0.89974
  -2   3   213456.82  258.54   1 0.40467-0.59338-0.04964 0.23893 0.91311-0.76863
   2  -3  -213954.71  276.37   1 0.13037 0.05830-0.67110 0.48184 0.72981-0.87431
   2  -3  -156797.59 1439.52   1 0.21338-0.04439 0.30742-0.51658-0.92733 0.85508
  -2   3   157262.14 1448.22   1 0.00445-0.17344 0.48993-0.28078-0.87174 0.94397
  -2   3   158719.64 1332.40   1 0.46953-0.63791 0.27276-0.06360 0.83972-0.76747
   2  -3  -158872.48 1359.22   1 0.35315-0.18493-0.21528 0.00598 0.91045-0.98273
   2  -3   080517.33 1925.70   1 0.40529-0.25686 0.09999-0.32906-0.90869 0.90869
  -2   3   078018.31 1873.08   1 0.21720-0.36583 0.30369-0.07467-0.92768 0.92768
  -2   3   083133.05 1871.34   1 0.48352-0.63151 0.47461-0.24545 0.73548-0.73548
   2  -3   085803.41 1928.33   1 0.44591-0.29795 0.12552-0.35471 0.88622-0.88622
   2  -3   112180.29  397.40   1 0.56435-0.43647-0.11541-0.13356-0.81742 0.88974
  -2   3  -112997.31 1345.35   1 0.39808-0.52633 0.10867 0.14027-0.91089 0.83862
  -2   3  -113291.47 1236.49   1 0.47875-0.60646 0.59944-0.35034 0.64145-0.71375
   2  -3   112699.85  343.46   1 0.47436-0.34678 0.31363-0.56284 0.82256-0.75029
   2  -3   2344809.5 3981.94   1 0.66677-0.55937-0.29631 0.02738-0.68381 0.82846
  -2   3  -2343960.5 3974.84   1 0.52253-0.63029-0.05317 0.32215-0.85095 0.70636
  -2   3  -2342053.9 3847.41   1 0.46741-0.57475 0.68290-0.41375 0.56140-0.70601
   2  -3   2341044.8 3830.76   1 0.48181-0.37464 0.41211-0.68138 0.77330-0.62877
   2  -3   3215655.0 3925.60   1 0.72023-0.63319-0.43056 0.14163-0.54394 0.76092
  -2   3  -3211753.2 3856.77   1 0.59781-0.68496-0.16896 0.45795-0.78362 0.56665
  -2   3  -3214656.8 3843.96   1 0.45376-0.54077 0.74379-0.45458 0.49078-0.70775
   2  -3   3209647.7 3765.83   1 0.48339-0.39663 0.46287-0.75218 0.74301-0.52621
   2  -3   4 6975.32  719.16   1 0.74229-0.67585-0.52616 0.21724-0.41491 0.70428
  -2   3  -4 5428.54  705.75   1 0.64097-0.70776-0.24526 0.55425-0.72731 0.43802
  -2   3  -4 5448.43  525.30   1 0.43866-0.50530 0.79085-0.48160 0.42675-0.71604
   2  -3   4 5403.26  778.25   1 0.48355-0.41719 0.48668-0.79604 0.72753-0.43846
   2  -3   556972.98 3890.36   1 0.74574-0.69968-0.59398 0.26506-0.30174 0.66345
  -2   3  -555448.39 1428.66   1 0.66564-0.71193-0.29394 0.62287-0.68594 0.32432
  -2   3  -555268.91 1364.45   1 0.42265-0.46893 0.82871-0.49941 0.36686-0.72848
   2  -3   553192.43 1336.18   1 0.48352-0.43757 0.49400-0.82341 0.72260-0.36127
   2  -3   6 7810.72  558.29   1 0.73862-0.71305-0.64304 0.29418-0.20228 0.63639
  -2   3  -6 7763.68  819.59   1 0.67933-0.70525-0.32346 0.67239-0.65869 0.22474
  -2   3  -6 8624.22  708.60   1 0.40594-0.43180 0.85988-0.51058 0.30952-0.74353
   2  -3   6 7287.06  917.23   1 0.48354-0.45800 0.49034-0.83980 0.72508-0.29148
   2  -3   7 6110.67  438.86   1 0.72509-0.71992-0.67907 0.31021-0.11439 0.62086
  -2   3  -7 7297.94 1215.71   1 0.68652-0.69207-0.33987 0.70880-0.64277 0.13650
  -2   3  -7 6262.73  589.71   1 0.38831-0.39380 0.88582-0.51649 0.25401-0.76036
   2  -3   7 6064.66  777.54   1 0.48354-0.47840 0.47881-0.84832 0.73274-0.22688
   2  -3   812789.22  845.21   1 0.70754-0.72284-0.70578 0.31686-0.03518 0.61407
  -2   3  -812825.09 1764.76   1 0.68952-0.67470-0.34694 0.73587-0.63574 0.05715
  -2   3  -813087.32 1074.72   1 0.36982-0.35494 0.90742-0.51805 0.19954-0.77822
   2  -3   812442.77 1754.71   1 0.48337-0.49864 0.46122-0.85077 0.74405-0.16592
   2  -3   9 3034.94  364.78   1 0.68701-0.72271-0.72570 0.31678 0.03698 0.61426
  -2   3  -9 2779.45  379.31   1 0.68958-0.65438-0.34708 0.75600-0.63561-0.01530
  -2   3  -9 2849.41  353.50   1 0.35041-0.31517 0.92520-0.51580 0.14560-0.79662
   2  -3   9 2983.28  448.43   1 0.48285-0.51852 0.43867-0.84827 0.75790-0.10750
   2  -3  10 2385.98  552.93   1 0.66422-0.72034-0.74028 0.31136 0.10381 0.61979
  -2   3 -10 2383.96  318.50   1 0.68736-0.63178-0.34182 0.77075-0.64085-0.08239
  -2   3 -10 2668.49  267.85   1 0.33001-0.27440 0.93949-0.51006 0.09184-0.81519
   2  -3  10 2676.49  311.74   1 0.48180-0.53788 0.41183-0.84148 0.77347-0.05080
   2  -3  11 5259.04  583.06   1 0.63953-0.71606-0.75052 0.30161 0.16645 0.62951
  -2   3 -11 4779.72  620.32   1 0.68319-0.60725-0.33219 0.78111-0.65029-0.14527
  -2   3 -11 5026.13  577.90   1 0.30849-0.23240 0.95045-0.50115 0.03815-0.83356
   2  -3  11 4809.16  695.88   1 0.48006-0.55655 0.38109-0.83079 0.79012 0.00480
   2  -2 -1119704.53 2044.53   1 0.73780-0.36107-0.64612 0.71344-0.19536-0.60051
   2  -2 -1119410.74 1818.78   1-0.36121 0.74096 0.71079-0.64400-0.60356-0.19033
  -2   2  1120521.55 1701.34   1 0.48292-0.85989 0.44125-0.50901 0.75635 0.03857
   2  -2 -10 2845.32  454.01   1 0.72900-0.37267-0.67087 0.71819-0.13590-0.58762
   2  -2 -10 2953.87  398.23   1-0.37282 0.73193 0.71550-0.66867-0.59080-0.13091
  -2   2  10 2760.56  654.49   1 0.48352-0.84008 0.49474-0.54245 0.72210 0.00056
   2  -2  -9 8240.57  903.02   1 0.71635-0.38041-0.69397 0.72130-0.07237-0.57879
   2  -2  -9 8057.87  954.42   1-0.38058 0.71904 0.71854-0.69168-0.58210-0.06744
  -2   2   9 7248.27 1187.84   1 0.48243-0.81834 0.54601-0.57371 0.68492-0.03416
   2  -2  -864310.66 6138.42   1 0.69902-0.38327-0.71508 0.72245-0.00341-0.57546
   2  -2  -866357.98 1861.29   1-0.38355 0.70137 0.71969-0.71279-0.57873 0.00135
  -2   2   869150.96 1537.81   1 0.47907-0.79461 0.59585-0.60349 0.64455-0.06609
   2  -2  -7 8983.84 1045.98   1 0.67533-0.37999-0.73392 0.72129 0.07255-0.57907
   2  -2  -7 9399.51  936.10   1-0.38027 0.67745 0.71842-0.73149-0.58245 0.07724
  -2   2   7 9009.48  363.03   1 0.47347-0.76864 0.64520-0.63281 0.59960-0.09345
   2  -2  -6 7820.49  797.75   1 0.64300-0.36806-0.74935 0.71672 0.15813-0.59230
   2  -2  -6 8632.36  869.16   1-0.36835 0.64489 0.71371-0.74674-0.59575 0.16271
  -2   2   6 9244.92 1244.17   1 0.46496-0.73976 0.69561-0.66317 0.54765-0.11381
   2  -2  -5111038.5 2164.42   1 0.59797-0.34333-0.75924 0.70661 0.25685-0.61872
   2  -2  -5111635.4 2160.10   1-0.34377 0.59966 0.70339-0.75639-0.62213 0.26127
   2  -2  -321239.93 2281.96   1 0.43699-0.22331-0.73922 0.64653 0.51242-0.72946
   2  -2  -322007.30 2015.03   1-0.22399 0.43860 0.64286-0.73579-0.73249 0.51597
  -2   2   321393.10  295.93   1 0.37722-0.59086 0.89938-0.80675 0.22094-0.00393
   2  -2  -2685280.7 7187.23   1-0.09769 0.29149 0.56496-0.67792-0.81931 0.67486
  -2   2   2687768.7 7323.17   1-0.29064 0.09668 0.67854-0.56564-0.67461 0.81895
   2  -2  -1117725.2 1117.04   1 0.09458 0.07873 0.41622-0.54905-0.90432 0.83207
  -2   2   1120100.8 1602.21   1-0.07707-0.09628 0.55057-0.41775-0.83122 0.90344
  -2   2   1112382.2 2373.43   1 0.48127-0.65416 0.40123-0.26850 0.77935-0.70708
   2  -2  -1109510.3 2319.60   1 0.34157-0.16881-0.24744 0.11454 0.90669-0.97897
   2  -2   0188184.0 2247.11   1 0.33436-0.18142 0.18191-0.33463-0.92472 0.92472
  -2   2   0186656.8 2229.49   1 0.18312-0.33608 0.33641-0.18373-0.92373 0.92373
  -2   2   0187456.3 2033.05   1 0.47573-0.62828 0.62782-0.47511 0.61605-0.61605
   2  -2   137271.71  996.30   1 0.54405-0.41158-0.08443-0.08822-0.83479 0.90709
  -2   2  -138104.87  999.99   1 0.41346-0.54593 0.09010 0.08256-0.90605 0.83375
  -2   2  -138325.50  956.69   1 0.45960-0.59181 0.72094-0.54817 0.51865-0.59098
   2  -2   139668.01  970.46   1 0.48325-0.35117 0.51375-0.68657 0.70888-0.63662
   2  -2   254598.79 1380.84   1 0.66994-0.55808-0.30300 0.11038-0.67775 0.82240
  -2   2  -255064.17 1389.67   1 0.55977-0.67171-0.10838 0.30103-0.82152 0.67688
  -2   2  -255504.94 1374.35   1 0.44381-0.55565 0.77632-0.58351 0.44759-0.59224
   2  -2   254976.49 1349.83   1 0.47996-0.36815 0.58541-0.77820 0.65339-0.50878
   2  -2   3115604.0 2899.62   1 0.72654-0.63505-0.45209 0.23947-0.51743 0.73440
  -2   2  -3116713.6 2726.32   1 0.63680-0.72838-0.23744 0.45009-0.73355 0.51658
  -2   2  -3118935.1 1268.78   1 0.42845-0.51992 0.81610-0.60324 0.38781-0.60479
   2  -2   3117945.0 1234.73   1 0.47756-0.38612 0.61152-0.82435 0.63085-0.41392
   2  -2   499075.21 2062.49   1 0.74489-0.67396-0.54993 0.31732-0.37776 0.66713
  -2   2  -498899.48 2055.96   1 0.67561-0.74672-0.31523 0.54784-0.66646 0.37716
  -2   2  -498623.54 2015.46   1 0.41304-0.48414 0.84742-0.61452 0.33357-0.62286
   2  -2   497425.95 1986.37   1 0.47702-0.40596 0.61656-0.84944 0.62633-0.33710
   2  -2   518063.04 1745.66   1 0.74393-0.69347-0.61527 0.36270-0.26075 0.62252
  -2   2  -518697.21  675.43   1 0.69511-0.74585-0.36049 0.61311-0.62197 0.26035
  -2   2  -518522.36 1940.41   1 0.39738-0.44808 0.87322-0.62032 0.28207-0.64375
   2  -2   518607.37 2393.64   1 0.47774-0.42705 0.60977-0.86270 0.63240-0.27086
   2  -2   6 5061.17  453.63   1 0.73320-0.70314-0.66047 0.38791-0.16180 0.59591
  -2   2  -6 7218.20  958.65   1 0.70489-0.73526-0.38567 0.65829-0.59529 0.16135
  -2   2  -6 5665.82  522.44   1 0.38106-0.41139 0.89490-0.62196 0.23225-0.66626
   2  -2   6 5498.86  817.04   1 0.47912-0.44880 0.59536-0.86833 0.64496-0.21112
   2  -2   7 7097.53  488.87   1 0.71717-0.70749-0.69273 0.40018-0.07602 0.58249
  -2   2  -7 8629.07 1220.01   1 0.70935-0.71934-0.39791 0.69053-0.58179 0.07552
  -2   2  -7 7248.27  717.72   1 0.36404-0.37401 0.91319-0.62022 0.18317-0.68952
   2  -2   7 7408.33  925.69   1 0.48071-0.47077 0.57543-0.86844 0.66166-0.15551
   2  -2   8 8742.02  614.13   1 0.69798-0.70880-0.71611 0.40350 0.00028 0.57860
  -2   2  -8 7736.02 1180.34   1 0.71056-0.70018-0.40134 0.71395-0.57794-0.00064
  -2   2  -8 8913.95  607.11   1 0.34622-0.33582 0.92848-0.61547 0.13434-0.71302
   2  -2   8 8400.97 1311.84   1 0.48218-0.49261 0.55112-0.86418 0.68099-0.10253
   2  -2   920766.11 1346.25   1 0.67645-0.70768-0.73321 0.40060 0.06927 0.58197
  -2   2  -924299.29 2852.96   1 0.70952-0.67878-0.39841 0.73102-0.58123-0.06968
  -2   2  -921148.08 2310.30   1 0.32751-0.29673 0.94097-0.60793 0.08543-0.73644
   2  -2   920037.58 2536.79   1 0.48328-0.51409 0.52310-0.85620 0.70199-0.05122
   2  -2  1018286.93 1130.12   1 0.65316-0.70480-0.74546 0.39285 0.13291 0.59069
  -2   2 -1017437.47 2221.75   1 0.70671-0.65560-0.39062 0.74323-0.58987-0.13336
  -2   2 -1017897.75 1407.02   1 0.30776-0.25653 0.95076-0.59783 0.03635-0.75945
   2  -2  1017639.73 2142.65   1 0.48354-0.53512 0.49150-0.84477 0.72429-0.00163
   2  -2  11  845.29  137.72   1 0.62828-0.70031-0.75378 0.38111 0.19252 0.60357
  -2   2 -11  592.47  111.95   1 0.70234-0.63085-0.37891 0.75152-0.60260-0.19296
  -2   2 -11  952.36  141.71   1 0.28699-0.21539 0.95783-0.58488-0.01342-0.78199
   2  -2  11  806.58  146.68   1 0.48330-0.55528 0.45694-0.83025 0.74674 0.04818
   2  -1 -1137986.96 4147.99   1 0.74370-0.36248-0.61700 0.76062-0.25730-0.53857
   2  -1 -1138472.07 5068.70   1-0.39632 0.78056 0.72446-0.58125-0.56398-0.22990
  -2   1  1145947.78 1357.48   1 0.47896-0.86043 0.36539-0.50954 0.79816-0.00323
  -2   1  10 1225.01  204.89   1 0.41239-0.77326-0.73140 0.60788 0.54311 0.18034
   2  -1 -10 1038.27  159.80   1 0.73878-0.37795-0.64244 0.76606-0.20363-0.51989
  -2   1  10  907.68  211.12   1 0.48179-0.84285 0.41162-0.53572 0.77358-0.05092
  -2   1   922146.44 1624.93   1 0.42471-0.76519-0.73544 0.63190 0.52796 0.12315
   2  -1  -920547.78 1739.72   1 0.73084-0.39040-0.66656 0.77019-0.14681-0.50435
  -2   1   920944.78  682.46   1 0.48324-0.82389 0.45413-0.55818 0.74849-0.09809
  -2   1   8 4179.12  457.06   1 0.43337-0.75346-0.73813 0.65458 0.51705 0.06171
   2  -1  -8 3803.52  461.89   1 0.71931-0.39926-0.68936 0.77300-0.08582-0.49299
  -2   1   8 3896.45  610.66   1 0.48353-0.80378 0.49293-0.57693 0.72333-0.14520
  -2   1   7  279.73   74.09   1 0.43738-0.73708-0.73933 0.67577 0.51192-0.00550
   2  -1  -7  221.95   40.67   1 0.70331-0.40349-0.71062 0.77429-0.01903-0.48749
   2  -1  -7  224.98   31.11   1 0.26282 0.03681 0.96237-0.89858-0.06891-0.43725
  -2   1   7  340.12   66.87   1 0.48313-0.78277 0.52787-0.59183 0.69851-0.19236
  -2   1   610523.28  876.76   1 0.43507-0.71439-0.73864 0.69506 0.51488-0.08080
   2  -1  -6 9749.04 1056.20   1 0.68102-0.40161-0.73014 0.77382 0.05562-0.48979
   2  -1  -6 9776.07  857.97   1 0.27868 0.00058 0.95982-0.91604-0.03279-0.40106
  -2   1   6 9823.44  367.46   1 0.48181-0.76107 0.55800-0.60191 0.67563-0.24179
  -2   1   5 6583.66  656.63   1 0.42349-0.68241-0.73505 0.71145 0.52948-0.16774
   2  -1  -5 6173.11  699.56   1 0.64965-0.39065-0.74689 0.77057 0.14178-0.50359
   2  -1  -5 6532.91  604.71   1 0.29157-0.03268 0.95654-0.93279-0.00261-0.35893
  -2   1   5 6141.00  375.09   1 0.48025-0.73913 0.58164-0.60551 0.65653-0.29500
   2  -1  -4 5929.46  717.22   1 0.60383-0.36514-0.75852 0.76221 0.24501-0.53450
   2  -1  -4 6735.44  894.89   1-0.39612 0.63586 0.72439-0.72094-0.56421 0.27552
   2  -1  -4 5183.36  508.12   1 0.29949-0.06098 0.95395-0.95022 0.01629-0.30553
  -2   1   4 5156.46  201.82   1 0.47923-0.71774 0.59411-0.59794 0.64603-0.35680
   2  -1  -3 1397.23  174.09   1 0.53295-0.31468-0.75904 0.74273 0.37391-0.59102
   2  -1  -3 2008.81  285.19   1-0.34418 0.56328 0.70357-0.72009-0.62170 0.40518
   2  -1  -3 1340.42  216.15   1 0.29545-0.07731 0.95533-0.97162 0.00660-0.22353
  -2   1   3 1087.66  216.45   1 0.48043-0.69857 0.57919-0.56297 0.65857-0.44164
   2  -1  -2 1112.82  240.00   1 0.41531-0.21756-0.73238 0.69603 0.53956-0.68425
   2  -1  -2  582.81   75.71   1-0.24485 0.44331 0.65454-0.69102-0.71527 0.57093
  -2   1   2  332.54   63.52   1 0.48240-0.68021 0.42586-0.38957 0.76545-0.62092
   2  -1  -1101018.7 2281.23   1-0.05859 0.23632 0.53734-0.59383-0.84132 0.76909
  -2   1   1103560.4 2328.94   1-0.21187 0.03406 0.63588-0.57943-0.74213 0.81430
   2  -1   0 2909.93  325.33   1 0.23577-0.07850 0.28547-0.36183-0.92893 0.92893
  -2   1   0 3315.94  389.50   1 0.10181-0.25910 0.40998-0.33364-0.90639 0.90639
  -2   1   0 3038.16  317.24   1 0.35219-0.50920 0.92375-0.84739 0.15044-0.15044
   2  -1   0 2970.61  344.14   1 0.45554-0.29851 0.73717-0.81352 0.49905-0.49905
   2  -1   183045.60 1880.77   1 0.52717-0.39033-0.05980-0.03650-0.84765 0.91994
  -2   1  -182861.64 1878.32   1 0.41702-0.55386 0.08576 0.01054-0.90484 0.83254
  -2   1  -179754.43 1780.54   1 0.38276-0.51941 0.89284-0.79644 0.23732-0.30966
   2  -1   178563.89 1750.60   1 0.44159-0.30493 0.78276-0.87916 0.43849-0.36616
   2  -1   2119881.9 1061.39   1 0.68312-0.56681-0.33203 0.21572-0.65045 0.79510
  -2   1  -2119420.9 1053.23   1 0.59806-0.71444-0.16939 0.28572-0.78333 0.63869
  -2   1  -2114703.1 2565.89   1 0.38437-0.50064 0.89085-0.77442 0.24212-0.38679
   2  -1   2114127.6 2546.52   1 0.44195-0.32566 0.78172-0.89817 0.43996-0.29531
   2  -1   3 9734.24 1394.36   1 0.73666-0.64086-0.49334 0.35704-0.46253 0.67956
  -2   1  -310957.22 1377.66   1 0.67487-0.77082-0.31362 0.44993-0.66796 0.45099
  -2   1  -311504.28 1186.08   1 0.37852-0.47442 0.89789-0.76142 0.22475-0.44176
   2  -1   311263.87 1254.56   1 0.44645-0.35052 0.76834-0.90484 0.45861-0.24164
   2  -1   466951.70 1484.19   1 0.74600-0.67058-0.58689 0.43059-0.31469 0.60407
  -2   1  -466090.14 1459.98   1 0.70618-0.78175-0.38916 0.54547-0.59148 0.30218
  -2   1  -468078.00 1476.48   1 0.36924-0.44478 0.90802-0.75151 0.19788-0.48722
   2  -1   466192.48 1429.70   1 0.45228-0.37672 0.74907-0.90561 0.48407-0.19478
   2  -1   5214077.7 3979.09   1 0.73816-0.68320-0.64481 0.46855-0.19831 0.56008
  -2   1  -5210949.5 3916.54   1 0.71952-0.77472-0.42831 0.60461-0.54665 0.18502
  -2   1  -5214823.1 3928.48   1 0.35781-0.41298 0.91894-0.74241 0.16583-0.52750
   2  -1   5214780.1 3911.87   1 0.45839-0.40320 0.72596-0.90255 0.51268-0.15106
   2  -1   641185.14 3778.35   1 0.72298-0.68841-0.68305 0.48679-0.10356 0.53768
  -2   1  -639985.80 1132.76   1 0.72522-0.76005-0.44737 0.64368-0.52335 0.08940
  -2   1  -642702.61 1123.38   1 0.34476-0.37957 0.92957-0.73300 0.13045-0.56447
   2  -1   640409.41 1067.23   1 0.46408-0.42931 0.69993-0.89655 0.54287-0.10903
   2  -1   7  828.66   88.83   1 0.70434-0.69027-0.70948 0.49318-0.02289 0.52941
  -2   1  -7  712.56  114.60   1 0.72719-0.74164-0.45444 0.67074-0.51446 0.00819
  -2   1  -7  774.96   88.28   1 0.33034-0.34477 0.93929-0.72269 0.09268-0.59903
   2  -1   7  765.38  108.21   1 0.46946-0.45506 0.67123-0.88789 0.57361-0.06746
   2  -1   8  230.53   60.35   1 0.68354-0.68988-0.72833 0.49204 0.04789 0.53099
  -2   1  -8  613.93  131.98   1 0.72698-0.72106-0.45368 0.68998-0.51543-0.06316
  -2   1  -8  152.78   37.57   1 0.31456-0.30858 0.94774-0.71121 0.05313-0.63162
   2  -1   8  321.93   55.98   1 0.47417-0.48014 0.64010-0.87680 0.60450-0.02605
   2  -1   9   92.71   94.54   1 0.66124-0.68799-0.74178 0.48548 0.11184 0.53940
  -2   1  -9  174.87   61.21   1 0.72523-0.69894-0.44740 0.70370-0.52332-0.12759
  -2   1  -9   79.92   46.96   1 0.29765-0.27130 0.95459-0.69804 0.01187-0.66266
   2  -1   9   41.83   64.14   1 0.47806-0.50441 0.60657-0.86332 0.63522 0.01553
   2  -1  1034118.15 2464.02   1 0.63767-0.68483-0.75111 0.47482 0.17085 0.55275
  -2   1 -1031571.90 4063.54   1 0.72217-0.67551-0.43694 0.71323-0.53623-0.18701
  -2   1 -1030992.50 2462.46   1 0.27952-0.23279 0.95964-0.68306-0.03084-0.69225
   2  -1  1031723.43 3537.72   1 0.48104-0.52775 0.57065-0.84744 0.66554 0.05752
   2  -1  1149870.79 3997.72   1 0.61284-0.68042-0.75711 0.46076 0.22625 0.56984
  -2   1 -1146759.79 5470.20   1 0.71787-0.65083-0.42308 0.71937-0.55286-0.24270
   2  -1  1147867.43 5369.85   1 0.48299-0.55008 0.53225-0.82909 0.69528 0.10009
  -2   0  1111548.70 1360.24   1 0.42684-0.81256-0.73611 0.51629 0.52530 0.27050
   2   0 -1111297.56 1184.92   1 0.74607-0.36053-0.58315 0.80311-0.32141-0.47436
  -2   0  11 9866.66 2130.22   1 0.47199-0.85796 0.29184-0.51237 0.83189-0.03696
  -2   0  1018631.28 1774.08   1 0.44535-0.81068-0.74165 0.54181 0.50161 0.22185
   2   0 -1017704.25 2111.72   1 0.74469-0.37937-0.60865 0.80858-0.27379-0.44973
  -2   0  1017508.94 2277.62   1 0.47613-0.84169 0.33160-0.53210 0.81445-0.09178
  -2   0   921966.79 1736.35   1 0.46144-0.80638-0.74599 0.56614 0.48017 0.17094
   2   0  -920248.06 1811.89   1 0.74097-0.39603-0.63299 0.81293-0.22421-0.42695
   2   0  -921156.04 1406.55   1 0.28112 0.06375 0.95928-0.77909-0.02713-0.62365
  -2   0   923593.80 1612.40   1 0.47904-0.82419 0.36637-0.54681 0.79767-0.14727
  -2   0   837707.22 3144.62   1 0.47479-0.79934-0.74923 0.58936 0.46175 0.11701
   2   0  -835193.39 4258.46   1 0.73469-0.41014-0.65626 0.81620-0.17189-0.40692
   2   0  -840183.59 3150.21   1 0.30631 0.01819 0.95136-0.79118 0.03281-0.61129
  -2   0   838969.31 1377.63   1 0.48095-0.80570 0.39557-0.55597 0.78243-0.20429
  -2   0   7 7589.34  578.95   1 0.48483-0.78899-0.75144 0.61156 0.44750 0.05892
   2   0  -7 7067.82  718.98   1 0.72536-0.42121-0.67855 0.81850-0.11579-0.39067
   2   0  -7 7827.81  627.29   1 0.33125-0.02719 0.93874-0.79850 0.09503-0.60137
  -2   0   7 6831.39 1221.88   1 0.48208-0.78642 0.41803-0.55838 0.76995-0.26409
  -2   0   629854.11 2911.52   1 0.49058-0.77436-0.75262 0.63272 0.43918-0.00510
   2   0  -629629.04 3601.70   1 0.71225-0.42836-0.69983 0.81982-0.05417-0.37999
   2   0  -630396.10 2541.18   1 0.35619-0.07250 0.92037-0.80016 0.16137-0.59538
  -2   0   630228.09  688.32   1 0.48261-0.76654 0.43146-0.55176 0.76218-0.32858
  -2   0   5  182.47   37.92   1 0.49026-0.75364-0.75256 0.65264 0.43965-0.07791
   2   0  -5  273.29   43.91   1 0.69359-0.43011-0.72020 0.82019 0.01539-0.37720
   2   0  -5  413.91   48.68   1 0.38202-0.11870 0.89374-0.79357 0.23510-0.59678
  -2   0   5  777.90  117.93   1 0.48260-0.74613 0.43127-0.53152 0.76229-0.40095
  -2   0   4148916.6 2908.30   1 0.48040-0.72339-0.75049 0.67056 0.45383-0.16445
   2   0  -4144597.9 2842.76   1 0.66649-0.42343-0.73908 0.81908 0.09760-0.38705
   2   0  -4151028.1 2671.95   1 0.40985-0.16690 0.85309-0.77291 0.32287-0.61216
  -2   0   4148260.1 2635.30   1 0.48158-0.72470 0.40738-0.48758 0.77595-0.48688
  -2   0   397897.56 2356.08   1 0.45361-0.67621-0.74393 0.68398 0.49070-0.27366
   2   0  -395493.12 2290.68   1 0.62451-0.40179-0.75471 0.81472 0.20095-0.41807
   2   0  -397213.49 2151.14   1 0.44172-0.21914 0.78239-0.72225 0.43901-0.65598
  -2   0   397079.03 2150.47   1 0.47637-0.69908 0.33424-0.39439 0.81323-0.59643
   2   0  -2139097.8 1887.07   1 0.55199-0.34968-0.76047 0.80047 0.34203-0.48677
   2   0  -2144730.6 1862.42   1-0.39098 0.59392 0.72249-0.68256-0.57020 0.42585
   2   0  -2135304.6 1486.86   1 0.47618-0.27396 0.62396-0.58387 0.61960-0.76421
  -2   0   2137699.6 1521.19   1 0.44776-0.65009 0.13512-0.17517 0.88388-0.73938
   2   0   015922.07  294.09   1 0.08081 0.08081 0.42799-0.42799-0.90015 0.90015
  -2   0   016062.18  296.91   1-0.08083-0.08083 0.55322-0.55322-0.82910 0.82910
   2   0   1 8002.16  203.65   1 0.52006-0.37885-0.04965 0.02969-0.85268 0.92497
  -2   0  -1 7907.37  205.13   1 0.39256-0.53381 0.11523-0.09535-0.91247 0.84020
   2   0   1 8167.63  197.34   1 0.26260-0.12146 0.96240-0.98242-0.06941 0.14172
   2   0   227785.21  725.62   1 0.71097-0.59019-0.40250 0.36251-0.57663 0.72128
  -2   0  -227369.24  712.98   1 0.63953-0.76033-0.24254 0.28254-0.72950 0.58485
   2   0   228641.22  741.87   1 0.33590-0.21516 0.93578-0.97585 0.10710 0.03757
   2   0   3870286.6 8847.20   1 0.74562-0.64534-0.56098 0.50099-0.35962 0.57665
  -2   0  -3848660.6 8618.48   1 0.71014-0.81054-0.40017 0.46016-0.57926 0.36229
  -2   0  -3857244.0 8712.89   1 0.28900-0.38939 0.95728-0.89722-0.00869-0.20823
   2   0   3871163.0 8819.67   1 0.37551-0.27514 0.90129-0.96140 0.21597 0.00103
   2   0   4112491.6 2633.29   1 0.73989-0.66004-0.63790 0.55793-0.21362 0.50303
  -2   0  -4110920.1 2591.22   1 0.73071-0.81062-0.46726 0.54724-0.49771 0.20834
  -2   0  -4111212.1 2585.37   1 0.29885-0.37887 0.95418-0.87409 0.01475-0.30399
   2   0   4113758.7 2629.81   1 0.40170-0.32169 0.86668-0.94682 0.29579-0.00645
   2   0   5 1521.76  145.03   1 0.72380-0.66434-0.68155 0.58158-0.10770 0.46946
  -2   0  -5 1516.31  195.72   1 0.73729-0.79682-0.49647 0.59646-0.45815 0.09644
  -2   0  -5 1547.60  139.93   1 0.29908-0.35872 0.95410-0.85399 0.01529-0.37684
   2   0   5 1539.15  210.93   1 0.42095-0.36131 0.83221-0.93244 0.36085 0.00076
   2   0   6158246.1 2815.46   1 0.70459-0.66563-0.70921 0.58922-0.02381 0.45798
  -2   0  -6150707.1 2831.22   1 0.73937-0.77852-0.50757 0.62755-0.44237 0.00832
  -2   0  -6157589.4 2741.70   1 0.29383-0.33309 0.95585-0.83572 0.00273-0.43659
   2   0   6155773.9 2661.41   1 0.43616-0.39689 0.79743-0.91770 0.41696 0.01697
   2   0   740093.21 2908.68   1 0.68392-0.66538-0.72805 0.58806 0.04669 0.45983
  -2   0  -740415.07 1044.85   1 0.73955-0.75833-0.50859 0.64856-0.44090-0.06549
  -2   0  -742917.81  984.61   1 0.28499-0.30388 0.95835-0.81820-0.01812-0.48805
   2   0   741565.88 1397.74   1 0.44849-0.42958 0.76186-0.90218 0.46735 0.03891
   2   0   815598.50  964.65   1 0.66237-0.66423-0.74122 0.58124 0.10883 0.47005
  -2   0  -813815.32 1738.46   1 0.73859-0.73699-0.50326 0.66323-0.44856-0.13018
  -2   0  -815531.59 1246.23   1 0.27351-0.27203 0.96082-0.80065-0.04467-0.53380
   2   0   814781.03 1945.93   1 0.45859-0.46005 0.72514-0.88551 0.51366 0.06492
   2   0   954813.64 4084.51   1 0.63998-0.66226-0.75037 0.57039 0.16538 0.48586
  -2   0  -955187.75 2029.51   1 0.73669-0.71472-0.49348 0.67345-0.46233-0.18875
   2   0   957769.53 1975.89   1 0.46662-0.48850 0.68710-0.86749 0.55691 0.09385
   2   0  10100361.1 6873.88   1 0.61667-0.65937-0.75640 0.55637 0.21809 0.50563
  -2   0 -10100870.7 3267.76   1 0.73384-0.69149-0.48030 0.68027-0.48040-0.24302
   2   0  10101728.3 3128.08   1 0.47318-0.51544 0.64725-0.84769 0.59762 0.12544
   2   0  11  305.47  106.52   1 0.59238-0.65550-0.75979 0.53976 0.26792 0.52817
  -2   0 -11  194.04   72.20   1 0.72996-0.66724-0.46430 0.68427-0.50156-0.29420
   2   0  11  303.25  109.12   1 0.47817-0.54080 0.60546-0.82595 0.63620 0.15917
   2   0  1218556.36 1694.90   1 0.56696-0.65050-0.76085 0.52081 0.31567 0.55280
  -2   0 -1218564.07 2603.75   1 0.72482-0.64186-0.44596 0.68594-0.52512-0.34276
   2   0  1217383.49 2399.20   1 0.48161-0.56461 0.56150-0.80203 0.67287 0.19481
  -2  -1  10 7271.94  605.07   1 0.47265-0.84245-0.74873 0.47258 0.46474 0.25872
   2   1 -10 7589.37  822.17   1 0.74596-0.37630-0.56951 0.84578-0.34523-0.37819
   2   1 -10 7441.39 1234.49   1 0.29590 0.07385 0.95518-0.67861 0.00766-0.73077
  -2  -1  10 7055.64 1048.56   1 0.46732-0.83749 0.25557-0.53221 0.84633-0.12387
  -2  -1   9 8689.89  598.49   1 0.49179-0.84120-0.75286 0.49669 0.43741 0.21370
   2   1  -9 8630.59  807.94   1 0.74578-0.39649-0.59324 0.84952-0.30310-0.34798
   2   1  -9 8564.65  532.00   1 0.32359 0.02578 0.94315-0.68660 0.07578-0.72657
  -2  -1   9 8280.09  958.35   1 0.47090-0.82066 0.28402-0.54063 0.83520-0.18499
  -2  -1   825535.68 2794.86   1 0.50872-0.83798-0.75589 0.51954 0.41210 0.16688
   2   1  -822329.55 2023.47   1 0.74386-0.41482-0.61583 0.85208-0.25964-0.31918
   2   1  -822347.87 1552.38   1 0.35069-0.02180 0.92497-0.68833 0.14638-0.72506
  -2  -1   822664.40 2253.32   1 0.47351-0.80275 0.30551-0.54229 0.82610-0.24797
  -2  -1   7 2557.27  232.35   1 0.52350-0.83235-0.75798 0.54164 0.38909 0.11751
   2   1  -7 2063.94  232.88   1 0.74000-0.43135-0.63743 0.85368-0.21465-0.29181
   2   1  -7 2255.81  201.25   1 0.37727-0.06874 0.89932-0.68271 0.22109-0.72744
  -2  -1   7 2167.01  320.54   1 0.47490-0.78374 0.31892-0.53565 0.82021-0.31434
  -2  -1   6 4861.84  367.61   1 0.53553-0.82396-0.75929 0.56295 0.36969 0.06454
   2   1  -6 4713.67  522.35   1 0.73402-0.44576-0.65819 0.85445-0.16728-0.26682
   2   1  -6 4580.89  351.92   1 0.40362-0.11545 0.86365-0.66708 0.30196-0.73597
  -2  -1   6 4377.07  698.11   1 0.47514-0.76357 0.32130-0.51798 0.81915-0.38555
  -2  -1   516110.18 1189.91   1 0.54396-0.81197-0.75999 0.58365 0.35568 0.00617
   2   1  -514321.06 1668.92   1 0.72546-0.45760-0.67835 0.85461-0.11634-0.24541
   2   1  -514615.81 1606.30   1 0.42965-0.16188 0.81334-0.63675 0.39226-0.75388
  -2  -1   515031.06  525.62   1 0.47375-0.74178 0.30778-0.48442 0.82512-0.46378
  -2  -1   4  184.07   36.45   1 0.54716-0.79475-0.76020 0.60387 0.35028-0.06079
   2   1  -4  511.73  109.61   1 0.71342-0.46595-0.69818 0.85446-0.05966-0.22975
   2   1  -4  178.90   30.75   1 0.45496-0.20756 0.73934-0.58279 0.49636-0.78566
  -2  -1   3 1142.03   75.71   1 0.54153-0.76871-0.75981 0.62348 0.35975-0.14263
   2   1  -3 1108.78  163.22   1 0.69599-0.46886-0.71801 0.85431 0.00721-0.22429
   2   1  -3 1257.60  133.27   1 0.47628-0.24922 0.62312-0.48664 0.62037-0.83729
  -2  -1   3 1076.91  122.02   1 0.45736-0.68461 0.18893-0.32540 0.86897-0.65223
  -2  -1   2 2242.43  208.35   1 0.51787-0.72463-0.75725 0.64092 0.39796-0.25322
   2   1  -2 2147.38  257.92   1 0.66785-0.46113-0.73834 0.85465 0.09385-0.23857
   2   1  -2 1854.47  272.53   1 0.48238-0.27558 0.42526-0.30878 0.76580-0.91033
  -2  -1   2 2193.22  266.41   1 0.42596-0.63284 0.03350-0.14985 0.90411-0.75964
  -2  -1   126528.16  706.45   1 0.44593-0.63221-0.74181 0.64551 0.50084-0.42850
   2   1  -126042.75  692.80   1 0.61207-0.42572-0.75725 0.85357 0.22790-0.30027
   2   1  -125851.58  645.77   1 0.43694-0.25053 0.08187 0.01454 0.89575-0.96799
  -2  -1   126568.94  676.60   1 0.34408-0.53050-0.24059 0.14425 0.90759-0.83531
   2   1   072554.53 1588.30   1 0.44114-0.27525-0.74044 0.81676 0.50708-0.50708
   2   1   069082.55 1512.66   1-0.18422 0.35036 0.61939-0.54298-0.76316 0.76316
   2   1   073965.78 1648.10   1 0.28200-0.11609-0.39400 0.47041 0.87477-0.87477
  -2  -1   075501.71 1686.74   1 0.17567-0.34159-0.59981 0.52339 0.78061-0.78061
   2   1   1135420.8 1426.15   1 0.55012-0.40452-0.09377 0.15010-0.82980 0.90212
  -2  -1  -1138357.7 1457.57   1 0.25759-0.40316 0.26348-0.31996-0.92963 0.85736
   2   1   2 5466.94  606.73   1 0.74503-0.61987-0.55167 0.58799-0.37494 0.51962
  -2  -1  -2 4987.06  157.61   1 0.68755-0.81278-0.34229 0.30597-0.64039 0.49574
   2   1   366804.03 1569.53   1 0.73450-0.62977-0.65680 0.67313-0.17060 0.38766
  -2  -1  -365462.50 1533.35   1 0.73799-0.84276-0.50006 0.48374-0.45310 0.23607
   2   1   368519.47 1613.58   1 0.26429-0.15941 0.96220-0.94591-0.06561 0.28254
   2   1   4 4807.97  611.57   1 0.71344-0.62910-0.69815 0.69449-0.05974 0.34915
  -2  -1  -4 4314.93  663.16   1 0.74471-0.82911-0.54780 0.55148-0.38118 0.09181
   2   1   4 4239.67  547.62   1 0.32318-0.23867 0.94338-0.94711 0.07473 0.21450
   2   1   5202381.6 3822.57   1 0.69286-0.62901-0.72084 0.69716 0.01786 0.34394
  -2  -1  -5202864.3 3699.44   1 0.74572-0.80975-0.56306 0.58674-0.35614-0.00556
   2   1   5200715.0 3605.27   1 0.36395-0.29983 0.91328-0.93709 0.18291 0.17876
   2   1   6136960.7 2483.21   1 0.67271-0.62927-0.73554 0.69186 0.08015 0.35401
  -2  -1  -6133318.6 2411.16   1 0.74580-0.78945-0.56479 0.60846-0.35324-0.08081
   2   1   6138980.0 2395.61   1 0.39367-0.34993 0.87854-0.92239 0.27049 0.16351
   2   1   7 6331.79  493.09   1 0.65258-0.62956-0.74570 0.68202 0.13438 0.37214
  -2  -1  -7 6124.01  664.13   1 0.74554-0.76881-0.55936 0.62303-0.36232-0.14407
   2   1   7 6150.94  717.43   1 0.41634-0.39297 0.84129-0.90525 0.34479 0.16147
   2   1   8  997.33  187.41   1 0.63209-0.62948-0.75276 0.66908 0.18383 0.39505
  -2  -1  -8  786.19  123.14   1 0.74485-0.74774-0.54942 0.63309-0.37858-0.20016
   2   1   8  761.94  115.95   1 0.43426-0.43127 0.80225-0.88626 0.40964 0.16894
   2   1   9  260.68   58.32   1 0.61092-0.62875-0.75744 0.65374 0.23030 0.42105
  -2  -1  -9  224.78   56.40   1 0.74355-0.72607-0.53624 0.63991-0.39944-0.25164
   2   1   9  273.33   48.38   1 0.44858-0.46595 0.76158-0.86563 0.46772 0.18318
   2   1  10 5981.33  520.12   1 0.58893-0.62718-0.76008 0.63637 0.27464 0.44908
  -2  -1 -10 5839.03  667.07   1 0.74147-0.70362-0.52048 0.64414-0.42344-0.29998
   2   1  10 5559.14  594.61   1 0.46001-0.49775 0.71922-0.84333 0.52067 0.20256
   2   1  1173969.28 5072.42   1 0.56593-0.62459-0.76084 0.61713 0.31753 0.47856
   2   1  1178022.37 2156.11   1 0.46878-0.52695 0.67519-0.81933 0.56951 0.22586
   2   1  1220134.98 1560.92   1 0.54176-0.62084-0.75983 0.59611 0.35936 0.50910
  -2  -1 -1220312.79 2386.40   1 0.73432-0.65572-0.48244 0.64610-0.47749-0.39061
   2   1  1220427.10 3261.74   1 0.47559-0.55413 0.62897-0.79314 0.61498 0.25270
  -2  -2  1017799.38 1463.02   1 0.49465-0.86891-0.75341 0.40094 0.43322 0.29024
   2   2 -1017823.76 1765.54   1 0.32693 0.04717 0.94131-0.58823 0.08395-0.80731
  -2  -2  1018042.96  855.71   1 0.45637-0.83105 0.18301-0.53604 0.87076-0.14829
  -2  -2   9 4794.82  370.01   1 0.51603-0.87016-0.75699 0.42432 0.40084 0.25051
   2   2  -9 4164.35  601.49   1 0.74469-0.39091-0.54751 0.88010-0.38165-0.26943
   2   2  -9 4834.51  334.94   1 0.35475-0.00102 0.92160-0.58856 0.15742-0.80844
  -2  -2   9 4364.74  954.19   1 0.46021-0.81447 0.20658-0.53959 0.86343-0.21322
  -2  -2   812844.90  955.07   1 0.53597-0.86969-0.75933 0.44667 0.36896 0.21002
   2   2  -811619.08 1051.43   1 0.74593-0.41253-0.56840 0.88100-0.34711-0.23162
   2   2  -812378.86  808.07   1 0.38148-0.04812 0.89439-0.58138 0.23352-0.81220
  -2  -2   812542.66 1226.91   1 0.46269-0.79654 0.22280-0.53578 0.85806-0.28009
   2   2  -746806.47 3670.21   1 0.74598-0.43295-0.58782 0.88042-0.31300-0.19339
   2   2  -750189.39 3792.01   1 0.40712-0.09412 0.85792-0.56495 0.31338-0.81973
  -2  -2   746969.26 1315.18   1 0.46377-0.77720 0.23008-0.52304 0.85555-0.34983
  -2  -2   623988.90 1746.53   1 0.57078-0.86367-0.76083 0.48817 0.30874 0.12548
   2   2  -621683.22 2097.53   1 0.74497-0.45221-0.60580 0.87837-0.27930-0.15480
   2   2  -621589.75 2035.99   1 0.43133-0.13874 0.80939-0.53639 0.39853-0.83248
  -2  -2   621002.56 2288.41   1 0.46315-0.75617 0.22589-0.49882 0.85700-0.42352
  -2  -2   5  703.28   68.85   1 0.58533-0.85780-0.76032 0.50766 0.28158 0.08028
   2   2  -5  880.86  100.49   1 0.74293-0.47057-0.62225 0.87482-0.24667-0.11509
   2   2  -5  752.81   76.80   1 0.45365-0.18142 0.74417-0.49122 0.49030-0.85192
  -2  -2   5  720.83  118.92   1 0.46014-0.73274 0.20615-0.45906 0.86357-0.50234
  -2  -2   4123574.0 2437.04   1 0.59744-0.84949-0.75930 0.52664 0.25791 0.03157
   2   2  -4123224.9 2383.86   1 0.74008-0.48811-0.63706 0.86963-0.21545-0.07395
   2   2  -4129124.9 2232.89   1 0.47209-0.22019 0.65474-0.42186 0.59028-0.87951
  -2  -2   4127723.6 2183.64   1 0.45313-0.70531 0.16428-0.39716 0.87617-0.58718
  -2  -2   353955.36 1277.48   1 0.60612-0.83775-0.75819 0.54554 0.24030-0.02318
   2   2  -353485.60 1252.52   1 0.73670-0.50512-0.64992 0.86251-0.18670-0.03035
   2   2  -352642.67 2356.92   1 0.48311-0.25158 0.52867-0.31584 0.69792-0.91484
  -2  -2   352898.58 2388.03   1 0.43865-0.67042 0.08988-0.30274 0.89414-0.67740
  -2  -2   222583.77  528.90   1 0.60887-0.82009-0.75778 0.56513 0.23460-0.08985
   2   2  -222186.37  514.18   1 0.73335-0.52217-0.66005 0.85264-0.16281 0.01810
   2   2  -221905.88  444.47   1 0.47756-0.26626 0.34775-0.15488 0.80684-0.95137
  -2  -2   221708.09  478.46   1 0.40942-0.62083-0.03211-0.16064 0.91177-0.76730
  -2  -2   1538210.0 5552.15   1 0.59755-0.78835-0.75928 0.58664 0.25769-0.18532
   2   2  -1509319.2 5271.61   1 0.73150-0.54070-0.66494 0.83754-0.15084 0.07849
   2   2  -1527159.4 5437.83   1 0.43965-0.24873 0.09463 0.07818 0.89316-0.96541
  -2  -2   1536266.7 5588.33   1 0.35282-0.54379-0.21621 0.04347 0.91036-0.83809
  -2  -2   0218150.0 2284.26   1 0.52574-0.69612-0.75825 0.60561 0.38553-0.38553
   2   2   0216238.0 2264.17   1 0.73642-0.56601-0.65087 0.80348-0.18451 0.18451
   2   2   0218091.5 2473.00   1 0.35133-0.18087-0.22042 0.37324 0.90993-0.90993
  -2  -2   0224428.5 2560.99   1 0.25386-0.42437-0.45477 0.30195 0.85365-0.85365
   2   2   176776.07 1776.56   1 0.21863-0.06867-0.52388 0.65672 0.82324-0.75099
  -2  -2  -179302.28 1835.01   1 0.11685-0.26681-0.69075 0.55792 0.71358-0.78583
   2   2   2 2515.60  269.10   1 0.62315-0.49360-0.75503 0.86766 0.20398-0.05924
  -2  -2  -2 2257.13  117.03   1 0.73952-0.86916-0.50845 0.39582-0.44110 0.29642
   2   2   3 7904.99  875.11   1 0.64633-0.53719-0.74816 0.84078 0.15000 0.06707
  -2  -2  -3 7161.63  226.54   1 0.74448-0.85371-0.61069 0.51806-0.26981 0.05276
   2   2   481077.35 1926.36   1 0.64290-0.55416-0.74939 0.82202 0.15838 0.13106
  -2  -2  -478136.72 1853.32   1 0.74223-0.83107-0.62641 0.55378-0.23808-0.05132
   2   2   5103302.0 2079.77   1 0.63331-0.56499-0.75242 0.80505 0.18103 0.18076
  -2  -2  -599278.07 1993.43   1 0.74245-0.81090-0.62515 0.57251-0.24069-0.12106
   2   2   5103578.6 2029.00   1 0.29126-0.22263 0.95663-0.90403-0.00335 0.36490
   2   2   627501.92 2682.31   1 0.62072-0.57284-0.75556 0.78819 0.20930 0.22492
  -2  -2  -628543.09  811.58   1 0.74367-0.79173-0.61723 0.58458-0.25685-0.17726
   2   2   629355.71  770.70   1 0.33828-0.29007 0.93419-0.90167 0.11332 0.32068
   2   2   715570.02 1161.17   1 0.60615-0.57869-0.75819 0.77081 0.24023 0.26637
  -2  -2  -713970.48 1630.82   1 0.74499-0.77265-0.60559 0.59294-0.27970-0.22675
   2   2   715134.20 1791.07   1 0.37389-0.34604 0.90308-0.89060 0.21126 0.29508
   2   2   8 6258.59  537.32   1 0.58993-0.58288-0.76000 0.75262 0.27271 0.30626
  -2  -2  -8 6299.02  756.16   1 0.74586-0.75324-0.59139 0.59874-0.30650-0.27224
   2   2   8 6104.41  744.19   1 0.40162-0.39414 0.86679-0.87434 0.29555 0.28312
   2   2   9 4070.06  257.86   1 0.57220-0.58558-0.76082 0.73343 0.30615 0.34520
  -2  -2  -9 4209.75  531.72   1 0.74608-0.73309-0.57513 0.60249-0.33552-0.31556
   2   2   9 3969.89  520.61   1 0.42347-0.43639 0.82700-0.85470 0.36977 0.28114
  -2  -2 -1019836.25 2300.27   1 0.74540-0.71204-0.55707 0.60442-0.36611-0.35731
   2   2  1019570.84 1957.65   1 0.44098-0.47427 0.78446-0.83221 0.43604 0.28719
   2   2  1120548.64 1833.22   1 0.53243-0.58664-0.75899 0.69160 0.37475 0.42134
   2   2  1121120.25 2213.21   1 0.45492-0.50858 0.73949-0.80728 0.49617 0.29938
   2   2  12  -37.19   91.70   1 0.51035-0.58498-0.75614 0.66875 0.40960 0.45887
  -2  -2 -12  480.09  139.18   1 0.74076-0.66665-0.51587 0.60321-0.43027-0.43784
   2   2  12  268.26   65.88   1 0.46562-0.53969 0.69230-0.78013 0.55127 0.31641
  -2  -3  10   11.60   61.95   1 0.51152-0.89053-0.75632 0.32733 0.40781 0.31591
   2   3 -10  -25.94  122.85   1 0.73278-0.35414-0.47577 0.90467-0.48647-0.23695
   2   3 -10   -4.09   76.10   1 0.34997 0.02859 0.92555-0.49611 0.14442-0.86778
  -2  -3  10   60.79   57.95   1 0.44362-0.82281 0.11395-0.54337 0.88893-0.16647
  -2  -3   966883.17 5369.84   1 0.53498-0.89358-0.75924 0.35025 0.37058 0.28077
   2   3  -967510.94 5088.02   1 0.73724-0.37897-0.49624 0.90514-0.45849-0.19259
   2   3  -975276.96 2184.53   1 0.37703-0.01882 0.89959-0.49019 0.22039-0.87141
  -2  -3   969316.58 2161.31   1 0.44752-0.80630 0.13385-0.54325 0.88419-0.23397
  -2  -3   879493.69 3416.02   1 0.55706-0.89524-0.76067 0.37168 0.33324 0.24574
   2   3  -879112.81 2303.44   1 0.74056-0.40267-0.51462 0.90352-0.43212-0.14662
   2   3  -876975.65 5628.42   1 0.40249-0.06465 0.86544-0.47607 0.29834-0.87702
  -2  -3   877549.21 2139.85   1 0.44985-0.78821 0.14621-0.53559 0.88104-0.30307
  -2  -3   720564.51 1194.15   1 0.57784-0.89560-0.76068 0.39169 0.29573 0.21087
   2   3  -720003.02 2065.24   1 0.74289-0.42537-0.53073 0.89964-0.40795-0.09844
   2   3  -719208.53 1478.28   1 0.42606-0.10864 0.82143-0.45204 0.37908-0.88535
  -2  -3   716893.19 2355.38   1 0.45048-0.76842 0.14960-0.51896 0.88015-0.37443
  -2  -3   6 1089.06  282.03   1 0.59740-0.89474-0.75930 0.41032 0.25799 0.17624
   2   3  -6  214.34   39.32   1 0.74439-0.44725-0.54425 0.89316-0.38687-0.04718
   2   3  -6   75.87   50.96   1 0.44748-0.15043 0.76510-0.41575 0.46300-0.89694
  -2  -3   6   63.58   55.95   1 0.44905-0.74657 0.14190-0.49122 0.88216-0.44868
  -2  -3   5 6372.04  433.05   1 0.61583-0.89275-0.75656 0.42758 0.21990 0.14196
   2   3  -5 5602.53  678.05   1 0.74523-0.46847-0.55452 0.88343-0.37030 0.00859
   2   3  -5 6193.95  535.45   1 0.46552-0.18878 0.69282-0.36355 0.55070-0.91224
  -2  -3   5 6053.04  658.93   1 0.44481-0.72192 0.11993-0.44923 0.88755-0.52632
  -2  -3   470145.37 1643.55   1 0.63321-0.88970-0.75245 0.44352 0.18127 0.10817
   2   3  -464797.56 4892.54   1 0.74559-0.48920-0.56032 0.86924-0.36072 0.07135
   2   3  -470051.79 1484.59   1 0.47876-0.22240 0.59930-0.29007 0.64157-0.93080
  -2  -3   468518.04 1535.77   1 0.43635-0.69304 0.07914-0.38842 0.89628-0.60729
  -2  -3   3179291.1 2970.30   1 0.64968-0.88577-0.74687 0.45795 0.14169 0.07538
   2   3  -3179085.9 2931.08   1 0.74552-0.50951-0.55911 0.84803-0.36274 0.14571
   2   3  -3180610.8 2829.53   1 0.48354-0.24733 0.47733-0.18802 0.73371-0.95051
  -2  -3   3179489.0 2902.55   1 0.42104-0.65742 0.01314-0.30228 0.90694-0.69023
  -2  -3   2403980.2 6820.37   1 0.66550-0.88118-0.73961 0.47068 0.10033 0.04438
   2   3  -2404144.0 6811.21   1 0.74444-0.52880-0.54478 0.81370-0.38602 0.24133
   2   3  -2408508.6 6837.61   1 0.47495-0.25914 0.31939-0.05013 0.82000-0.96453
  -2  -3   2408284.8 6897.80   1 0.39454-0.61049-0.08545-0.18370 0.91489-0.77041
  -2  -3   177888.25 1810.98   1 0.68125-0.87651-0.72998 0.48105 0.05492 0.01743
   2   3  -178189.28 1805.85   1 0.73783-0.54257-0.49923 0.74815-0.45428 0.38194
   2   3  -176456.58 1847.22   1 0.44485-0.24941 0.12013 0.12907 0.88750-0.95975
  -2  -3   178444.78 1892.53   1 0.35045-0.54597-0.22291-0.02624 0.90966-0.83739
  -2  -3   085345.13 1878.27   1 0.69899-0.87384-0.71512 0.48618-0.00329 0.00329
   2   3   083579.33 1831.22   1 0.68859-0.51371-0.34474 0.57368-0.63795 0.63794
   2   3   085122.12 1986.81   1 0.38619-0.21110-0.11351 0.34273 0.91540-0.91540
  -2  -3   084411.57 2000.52   1 0.28109-0.45611-0.39604 0.16681 0.87414-0.87414
   2   3   157797.24 1224.14   1 0.09301 0.06124 0.41758-0.20841-0.90386 0.97612
   2   3   152796.75 1335.56   1 0.29978-0.14527-0.35316 0.56247 0.88622-0.81395
  -2  -3  -151920.43 1323.06   1 0.18512-0.33966-0.58384 0.37459 0.79047-0.86273
   2   3   299448.25 2315.69   1 0.19954-0.06555-0.55869 0.74795 0.80501-0.66050
   2   3   4589295.6 9675.40   1 0.49987-0.40662-0.75437 0.90340 0.42548-0.13609
  -2  -3  -4594492.825351.84   1 0.71623-0.80957-0.69415 0.54521-0.07184-0.21756
   2   3   511637.77 1101.51   1 0.53251-0.45975-0.75900 0.88795 0.37462-0.01276
  -2  -3  -511556.46 1541.97   1 0.72532-0.79826-0.67863 0.54969-0.11558-0.24618
   2   3   623157.55 2116.17   1 0.54182-0.48949-0.75983 0.86877 0.35927 0.07496
  -2  -3  -621633.48  679.54   1 0.73235-0.78490-0.66275 0.55380-0.15623-0.27788
   2   3   622701.73  666.33   1 0.27519-0.22244 0.96052-0.85158-0.04082 0.47468
   2   3   744115.69 3721.67   1 0.54052-0.50860-0.75973 0.84867 0.36144 0.14516
  -2  -3  -745075.58 1200.73   1 0.73781-0.76997-0.64609 0.55713-0.19543-0.31103
   2   3   745049.00 1117.51   1 0.32350-0.29112 0.94320-0.85428 0.07555 0.43062
   2   3   8 5150.24  426.29   1 0.53320-0.52170-0.75907 0.82801 0.37350 0.20548
  -2  -3  -8 4696.90  534.01   1 0.74187-0.75364-0.62844 0.55947-0.23384-0.34497
   2   3   8 4323.02  552.06   1 0.36193-0.34998 0.91519-0.84638 0.17725 0.40142
   2   3   914313.81 1046.47   1 0.52189-0.53080-0.75778 0.80672 0.39165 0.25970
  -2  -3  -913474.25 1733.68   1 0.74458-0.73596-0.60969 0.56071-0.27177-0.37939
   2   3   913791.09 1371.32   1 0.39238-0.40080 0.88034-0.83156 0.26650 0.38451
   2   3  1011766.25 2124.95   1 0.50759-0.53692-0.75571 0.78464 0.41382 0.30990
   2   3  1011875.49 1196.59   1 0.41672-0.44555 0.84056-0.81194 0.34611 0.37711
   2   3  11  132.76   82.03   1 0.49094-0.54042-0.75269 0.76183 0.43866 0.35714
  -2  -3 -11  187.04   60.37   1 0.74594-0.69669-0.56854 0.55957-0.34689-0.44888
   2   3  11  202.04   65.55   1 0.43636-0.48556 0.79690-0.78834 0.41775 0.37780
   2   3  12 9032.41  838.97   1 0.47204-0.54191-0.74859 0.73774 0.46560 0.40255
  -2  -3 -12 8366.34 1510.33   1 0.74455-0.67493-0.54596 0.55699-0.38414-0.48397
   2   3  12 9582.45  945.62   1 0.45203-0.52160 0.74994-0.76142 0.48296 0.38492
  -2  -4   919675.08 1851.22   1 0.54900-0.91205-0.76031 0.27500 0.34716 0.30419
   2   4  -918627.57 1832.44   1 0.72308-0.36040-0.44001 0.92524-0.53247-0.11844
   2   4  -918798.99 1903.54   1 0.39272-0.03004 0.87987-0.39410 0.26755-0.91857
  -2  -4   919796.75 2247.38   1 0.43329-0.79658 0.06521-0.55101 0.89888-0.24866
  -2  -4   8 4113.49  296.24   1 0.57266-0.91530-0.76081 0.29550 0.30530 0.27367
   2   4  -8 3801.30  507.88   1 0.41651-0.07427 0.84096-0.37516 0.34538-0.92397
  -2  -4   8 4110.07  403.67   1 0.43544-0.77831 0.07495-0.54072 0.89708-0.31911
   2   4  -742965.80 4546.45   1 0.73074-0.40874-0.46739 0.91260-0.49754-0.00885
   2   4  -743902.23 3239.52   1 0.43809-0.11622 0.79237-0.34662 0.42450-0.93077
  -2  -4   743108.50 4778.63   1 0.43567-0.75812 0.07601-0.52175 0.89688-0.39116
  -2  -4   612136.00  851.24   1 0.61669-0.91849-0.75639 0.33109 0.21804 0.21619
   2   4  -611703.36 1171.53   1 0.73273-0.43110-0.47554 0.90076-0.48678 0.05272
   2   4  -610910.70  836.33   1 0.45683-0.15533 0.73218-0.30647 0.50517-0.93911
  -2  -4   610716.51 1360.13   1 0.43362-0.73565 0.06667-0.49239 0.89862-0.46514
  -2  -4   5 3500.89  232.11   1 0.63737-0.91875-0.75121 0.34597 0.17157 0.19022
   2   4  -5 2978.66  349.85   1 0.73341-0.45215-0.47844 0.88366-0.48290 0.12118
   2   4  -5 3579.81  341.92   1 0.47163-0.19043 0.65783-0.25220 0.58721-0.94875
  -2  -4   5 3469.29  387.91   1 0.42859-0.71021 0.04456-0.45026 0.90239-0.54116
  -2  -4   449685.57 3854.52   1 0.65745-0.91842-0.74357 0.35834 0.12185 0.16758
   2   4  -450463.80 1467.50   1 0.73230-0.47142-0.47374 0.85897-0.48917 0.19980
   2   4  -451227.19 1406.04   1 0.48134-0.22051 0.56595-0.18037 0.66933-0.95855
  -2  -4   449748.30 1457.74   1 0.41938-0.68073 0.00646-0.39197 0.90778-0.61883
  -2  -4   3309932.5 5302.25   1 0.67726-0.91783-0.73268 0.36745 0.06688 0.15020
   2   4  -3308552.4 5228.93   1 0.72801-0.48750-0.45685 0.82208-0.51115 0.29412
   2   4  -3304988.4 5114.87   1 0.48321-0.24250 0.45257-0.08687 0.74945-0.96625
  -2  -4   3304365.3 5228.23   1 0.40419-0.64511-0.05138-0.31415 0.91322-0.69651
  -2  -4   2  674.83   75.26   1 0.69733-0.91748-0.71674 0.37150 0.00256 0.14215
   2   4  -2  668.14   81.73   1 0.71612-0.49604-0.41771 0.76295-0.55917 0.41452
   2   4  -2  595.68   86.45   1 0.47446-0.25416 0.31461 0.03103 0.82213-0.96666
  -2  -4   2  695.71  103.44   1 0.38012-0.60061-0.13320-0.21236 0.91529-0.77081
  -2  -4   1312460.9 5305.37   1 0.71817-0.91797-0.69117 0.36597-0.08059 0.15294
   2   4  -1306695.9 5186.47   1 0.68316-0.48345-0.33211 0.65736-0.65037 0.57804
   2   4  -1309547.5 5323.40   1 0.45068-0.25073 0.15068 0.17491 0.87987-0.95212
  -2  -4   1316196.5 5501.82   1 0.34357-0.54365-0.24198-0.08358 0.90741-0.83513
  -2  -4   0172006.0 2975.24   1 0.73940-0.91880-0.63994 0.33473-0.20914 0.20914
   2   4   0168066.9 2869.31   1 0.57528-0.39603-0.13247 0.43779-0.80715 0.80715
   2   4   0176313.0 3280.52   1 0.40875-0.22911-0.03463 0.34026 0.91198-0.91198
  -2  -4   0177953.5 3269.35   1 0.28999-0.46955-0.37594 0.07030 0.88009-0.88009
  -2  -4  -151025.32  471.13   1 0.73511-0.89411-0.48600 0.20076-0.47266 0.40031
   2   4   151261.73  460.70   1 0.20271-0.04411 0.31774-0.03224-0.92625 0.99850
   2   4   151312.07  848.39   1 0.34870-0.18963-0.22782 0.51354 0.90912-0.83684
  -2  -4  -150500.53  873.11   1 0.21772-0.37685-0.52558 0.23992 0.82240-0.89465
  -2  -4  -293031.28 1592.22   1 0.45295-0.59132 0.04078-0.30629-0.89059 0.74600
   2   4   288867.50 1529.58   1-0.38862 0.52694 0.72161-0.45589-0.57293 0.71727
   2   4   292580.72 1871.25   1 0.27544-0.13688-0.40853 0.67432 0.87018-0.72563
  -2  -4  -295508.94 1935.80   1 0.12956-0.26814-0.67229 0.40662 0.72885-0.87335
  -2  -4  -316203.89  329.09   1 0.60056-0.71860-0.75894 0.51366 0.25165-0.46877
  -2  -4  -316799.64  426.44   1-0.03849-0.07933 0.52262-0.76840-0.85169 0.63502
   2   4   316659.27  510.98   1 0.19935-0.08132-0.55902 0.80471 0.80482-0.58807
  -2  -4  -4 2156.14  446.31   1 0.66460-0.76229-0.74008 0.51484 0.10278-0.39223
  -2  -4  -4 2383.51  224.77   1-0.28318 0.18614 0.67478-0.90057-0.68151 0.39282
   2   4   4 2204.60  202.67   1 0.13013-0.03265-0.67144 0.89714 0.72953-0.44052
  -2  -4  -549801.07 1008.79   1 0.69447-0.77175-0.71940 0.51415 0.01241-0.37421
  -2  -4  -550142.60 1001.75   1-0.38550 0.30910 0.72043-0.92625-0.57650 0.21564
   2   4   655378.68 1312.58   1 0.43204-0.37511-0.73772 0.92310 0.51874-0.08466
  -2  -4  -650036.15 1238.48   1 0.71242-0.76947-0.69955 0.51430-0.05543-0.37868
   2   4   7  806.88   84.18   1 0.45282-0.41628-0.74372 0.90911 0.49175 0.01467
  -2  -4  -7  837.77  104.58   1 0.72466-0.76132-0.67992 0.51466-0.11211-0.39435
   2   4   7  774.38  109.94   1 0.27023-0.23335 0.96138-0.79610-0.05217 0.55834
   2   4   856372.42 1636.90   1 0.45982-0.44367-0.74557 0.89098 0.48236 0.09641
  -2  -4  -852213.89 1531.22   1 0.73336-0.74963-0.66005 0.51478-0.16282-0.41599
   2   4   853379.32 1463.04   1 0.31775-0.30125 0.94620-0.80095 0.06106 0.51741
   2   4   9 9204.11 1729.23   1 0.45847-0.46271-0.74522 0.87065 0.48419 0.16692
  -2  -4  -9 8526.21 1082.55   1 0.73949-0.73537-0.63959 0.51431-0.20992-0.44125
   2   4   9 8983.43  918.28   1 0.35674-0.36069 0.91989-0.79475 0.16288 0.48813
   2   4  10  203.43   57.10   1 0.45147-0.47610-0.74335 0.84879 0.49354 0.22991
  -2  -4 -10  469.26  143.06   1 0.74352-0.71901-0.61831 0.51303-0.25467-0.46885
   2   4  10   94.98   46.44   1 0.38832-0.41264 0.88580-0.78070 0.25406 0.46929
   2   4  1114012.12 1025.58   1 0.44030-0.48533-0.74020 0.82565 0.50816 0.28764
  -2  -4 -1112493.24 2688.41   1 0.74563-0.70088-0.59605 0.51077-0.29790-0.49786
   2   4  1112981.00 1321.75   1 0.41392-0.45867 0.84580-0.76088 0.33656 0.45899
   2   4  12 2243.82  309.34   1 0.42581-0.49122-0.73578 0.80126 0.52658 0.34157
  -2  -4 -12 1731.57  306.23   1 0.74604-0.68091-0.57260 0.50732-0.33992-0.52819
   2   4  12 2963.15  334.85   1 0.43476-0.49987 0.80100-0.73612 0.41155 0.45633
  -2  -5   835000.20 3304.91   1 0.58341-0.93050-0.76043 0.21880 0.28524 0.29374
   2   5  -832145.49 4479.24   1 0.70695-0.36018-0.39127 0.93282-0.58917 0.01057
   2   5  -832043.15 3124.61   1 0.42581-0.07912 0.82197-0.27982 0.37819-0.95678
  -2  -5   833075.97 3651.65   1 0.41979-0.76739 0.00812-0.54992 0.90758-0.32968
  -2  -5   712681.84  745.70   1 0.60715-0.93383-0.75804 0.23641 0.23816 0.26844
   2   5  -714832.03 1509.94   1 0.70975-0.38335-0.39905 0.92061-0.58051 0.07424
   2   5  -713434.54  954.53   1 0.44556-0.11924 0.77107-0.24896 0.45487-0.96114
  -2  -5   713100.34 1424.36   1 0.41973-0.74690 0.00786-0.52968 0.90761-0.40195
  -2  -5   6 5782.33  317.32   1 0.62991-0.93616-0.75336 0.25173 0.18883 0.24539
   2   5  -6 5137.45  572.28   1 0.71063-0.40461-0.40156 0.90311-0.57769 0.14375
   2   5  -6 5155.81  829.39   1 0.46199-0.15596 0.70972-0.20770 0.53183-0.96567
  -2  -5   6 4955.96  635.56   1 0.41725-0.72399-0.00200-0.49985 0.90878-0.47536
  -2  -5   510194.33  701.23   1 0.65180-0.93767-0.74602 0.26447 0.13636 0.22544
   2   5  -5 9505.17 1121.57   1 0.70901-0.42336-0.39698 0.87853-0.58283 0.22121
   2   5  -5 9686.08  761.55   1 0.47469-0.18902 0.63615-0.15417 0.60825-0.96979
  -2  -5   5 9176.25 1066.48   1 0.41178-0.69809-0.02321-0.45867 0.91098-0.54979
  -2  -5   4  296.73   59.99   1 0.67306-0.93851-0.73533 0.27379 0.07914 0.21030
   2   5  -4  208.01   44.84   1 0.70359-0.43830-0.38220 0.84375-0.59906 0.30977
   2   5  -4  144.78   29.86   1 0.48231-0.21702 0.54840-0.08646 0.68309-0.97232
  -2  -5   4  -10.40   90.66   1 0.40237-0.66826-0.05795-0.40396 0.91363-0.62468
  -2  -5   3  244.63   39.88   1 0.69382-0.93886-0.71999 0.27844 0.01461 0.20246
   2   5  -3  214.98   37.10   1 0.69147-0.44656-0.35160 0.79316-0.63105 0.41408
   2   5  -3  176.38   35.21   1 0.48301-0.23779 0.44430-0.00222 0.75451-0.97131
  -2  -5   3  271.23   45.44   1 0.38765-0.63310-0.10871-0.33323 0.91537-0.69866
  -2  -5   2198746.4 3528.70   1 0.71399-0.93867-0.69738 0.27588-0.06209 0.20680
   2   5  -2194222.7 3417.68   1 0.66590-0.44136-0.29448 0.71604-0.68545 0.54080
   2   5  -2192113.3 3426.28   1 0.47528-0.25048 0.32277 0.09926 0.81848-0.96301
  -2  -5   2191367.9 3532.91   1 0.36565-0.59069-0.17793-0.24404 0.91358-0.76910
  -2  -5   1  534.18   83.98   1 0.73298-0.93727-0.66108 0.25957-0.16032 0.23267
   2   5  -1  282.96   38.25   1 0.60979-0.40575-0.18921 0.59085-0.76963 0.69731
   2   5  -1  268.70   47.53   1 0.45650-0.25204 0.18375 0.21823 0.87053-0.94278
  -2  -5   1  441.59   74.20   1 0.33421-0.53883-0.26719-0.13479 0.90383-0.83155
  -2  -5   053874.59  946.35   1 0.74572-0.92959-0.59444 0.21289-0.30089 0.30089
   2   5   059321.80  989.49   1 0.48127-0.29786 0.00373 0.37804-0.87656 0.87656
   2   5   059399.89 1195.64   1 0.42523-0.24105 0.03041 0.35162 0.90457-0.90457
  -2  -5   059256.17 1261.18   1 0.29027-0.47439-0.37528-0.00676 0.88028-0.88028
  -2  -5  -149156.94  709.49   1 0.72552-0.88894-0.44845 0.08688-0.52201 0.44969
   2   5   150160.76  572.97   1 0.20131-0.03838 0.31909 0.04274-0.92609 0.99834
   2   5   149892.05  912.90   1 0.38120-0.21745-0.12974 0.49182 0.91534-0.84310
  -2  -5  -149568.89  951.02   1 0.23262-0.39633-0.49723 0.13516 0.83584-0.90809
  -2  -5  -2 3851.64  495.31   1 0.57241-0.71536-0.12795-0.21368-0.80991 0.66527
   2   5   2 3907.28  510.68   1-0.20582 0.34863 0.63233-0.29020-0.74685 0.89119
   2   5   2 4035.73  578.92   1 0.32711-0.18400-0.28574 0.62793 0.90074-0.75620
  -2  -5  -2 3988.06  447.06   1 0.16175-0.30492-0.62263 0.28054 0.76561-0.91011
  -2  -5  -3 7506.22  734.43   1 0.47563-0.59819-0.74942 0.42778 0.46057-0.67761
  -2  -5  -3 7295.58  852.40   1 0.24641-0.36859 0.27481-0.59695-0.92938 0.71258
   2   5   3 8185.81  858.23   1 0.26744-0.14483-0.42588 0.74815 0.86434-0.64752
  -2  -5  -4113479.2 1832.51   1-0.03626-0.06549 0.52096-0.82323-0.85280 0.56391
   2   5   4105979.1 1993.07   1 0.20858-0.10651-0.54243 0.84454 0.81379-0.52478
  -2  -5  -5 1816.89  247.56   1 0.65320-0.73495-0.74544 0.46388 0.13281-0.49462
  -2  -5  -5 1511.16  175.56   1-0.20439 0.12350 0.63149-0.91373-0.74795 0.38709
   2   5   5 1664.97  187.59   1 0.15559-0.07407-0.63246 0.91459 0.75879-0.39753
  -2  -5  -685697.10 1787.81   1 0.68586-0.74720-0.72659 0.46503 0.04062-0.47478
  -2  -5  -686034.76 2104.17   1-0.29425 0.23400 0.68033-0.94260-0.67123 0.23820
   2   5   689577.92 1978.30   1 0.11144-0.05047-0.69843 0.96056 0.70694-0.27343
  -2  -5  -786779.12 2114.11   1-0.34331 0.30371 0.70319-0.94550-0.62261 0.11740
  -2  -5  -8 4440.65  417.79   1 0.72134-0.74210-0.68596 0.46439-0.09548-0.48333
  -2  -5  -8 4475.28  338.01   1-0.36933 0.35037 0.71411-0.93644-0.59467 0.01729
   2   5   8 4002.12  464.54   1 0.27295-0.25196 0.96092-0.73932-0.04595 0.62443
  -2  -5  -911931.89 1716.32   1 0.73159-0.73197-0.66470 0.46312-0.15144-0.49973
  -2  -5  -913058.40  999.55   1-0.38133 0.38302 0.71883-0.92121-0.58125-0.06829
   2   5   911967.09 1244.27   1 0.31866-0.31805 0.94574-0.74416 0.06336 0.58742
  -2  -5 -10   36.21   55.29   1 0.73872-0.71870-0.64268 0.46109-0.20309-0.52043
  -2  -5 -10  105.32   53.78   1-0.38412 0.40644 0.71990-0.90231-0.57808-0.14363
   2   5  10  143.07   55.09   1 0.35708-0.37692 0.91959-0.73812 0.16380 0.55954
  -2  -5 -11 7392.27  995.00   1 0.74331-0.70291-0.61973 0.45814-0.25180-0.54407
  -2  -5 -11 6180.73  785.63   1-0.38038 0.42335 0.71847-0.88091-0.58232-0.21156
   2   5  11 7236.51  722.39   1 0.38872-0.42893 0.88528-0.72385 0.25526 0.54041
  -2  -5 -1240883.98 2013.19   1 0.74565-0.68501-0.59574 0.45415-0.29847-0.56964
  -2  -5 -1235818.58 5585.30   1-0.37172 0.43533 0.71506-0.85754-0.59202-0.27403
   2   5  1240255.64 3935.59   1 0.41468-0.47533 0.84441-0.70318 0.33912 0.52876
  -2  -6   810191.94 1395.57   1 0.58981-0.94136-0.76001 0.14206 0.27294 0.30603
   2   6  -8 9336.31 1310.71   1 0.67929-0.32807-0.32338 0.94124-0.65877 0.08017
   2   6  -810433.51 1097.21   1 0.43169-0.08054 0.80853-0.19002 0.39987-0.97846
  -2  -6   810738.22 1331.93   1 0.40313-0.75527-0.05522-0.56298 0.91347-0.33557
  -2  -6   7 2250.95  248.59   1 0.61448-0.94561-0.75681 0.15887 0.22277 0.28383
   2   6  -7 2106.05  202.65   1 0.68088-0.35002-0.32693 0.92479-0.65537 0.14910
   2   6  -7 2077.18  193.23   1 0.44999-0.11921 0.75693-0.15846 0.47387-0.98014
  -2  -6   7 1787.10  291.06   1 0.40291-0.73461-0.05603-0.54220 0.91352-0.40785
  -2  -6   6 2520.56  239.92   1 0.63804-0.94880-0.75100 0.17314 0.16997 0.26419
   2   6  -6 2944.56  288.36   1 0.67960-0.36912-0.32407 0.90194-0.65811 0.22416
   2   6  -6 2529.22  238.94   1 0.46487-0.15437 0.69608-0.11771 0.54713-0.98097
  -2  -6   6 2350.68  285.28   1 0.40021-0.71149-0.06566-0.51259 0.91406-0.48064
  -2  -6   514819.90  823.97   1 0.66064-0.95098-0.74207 0.18422 0.11343 0.24836
   2   6  -513649.26 1405.36   1 0.67445-0.38434-0.31270 0.87057-0.66881 0.30719
   2   6  -513874.61  935.92   1 0.47608-0.18595 0.62488-0.06655 0.61876-0.98030
  -2  -6   513477.86 1500.45   1 0.39455-0.68541-0.08541-0.47288 0.91489-0.55370
  -2  -6   413979.02 1026.22   1 0.68233-0.95226-0.72921 0.19135 0.05160 0.23784
   2   6  -412947.91 1124.34   1 0.66347-0.39373-0.28944 0.82731-0.68994 0.40064
   2   6  -413817.29 1092.45   1 0.48260-0.21285 0.54218-0.00389 0.68784-0.97707
  -2  -6   413872.77 1854.91   1 0.38520-0.65562-0.11678-0.42154 0.91541-0.62646
  -2  -6   319452.43 1058.11   1 0.70306-0.95258-0.71089 0.19303-0.01810 0.23519
   2   6  -315153.24 1606.35   1 0.64263-0.39343-0.24840 0.76637-0.72478 0.50781
   2   6  -315975.50 1685.72   1 0.48307-0.23336 0.44687 0.07159 0.75295-0.96974
  -2  -6   318170.07 1941.49   1 0.37110-0.62110-0.16143-0.35692 0.91445-0.69773
  -2  -6   217974.15 1630.39   1 0.72228-0.95146-0.68431 0.18650-0.10009 0.24480
   2   6  -217641.71 1657.07   1 0.60476-0.37593-0.18064 0.67861-0.77564 0.63099
   2   6  -219208.18 1595.80   1 0.47678-0.24748 0.33877 0.15965 0.81111-0.95564
  -2  -6   217664.70 2023.92   1 0.35114-0.58082-0.22097-0.27735 0.90987-0.76532
  -2  -6   111100.43 1091.80   1 0.73856-0.94735-0.64328 0.16547-0.20175 0.27411
   2   6  -111376.24 1257.92   1 0.53433-0.32622-0.07017 0.54826-0.84235 0.77005
   2   6  -110602.20  935.56   1 0.46201-0.25305 0.21828 0.26010 0.85958-0.93183
  -2  -6   112669.27 1589.38   1 0.32315-0.53233-0.29588-0.18251 0.89890-0.82662
  -2  -6   060029.53 1251.14   1 0.74607-0.93443-0.57460 0.11674-0.33645 0.33645
   2   6   058358.90 1194.34   1 0.40349-0.21571 0.10216 0.35596-0.90926 0.90926
   2   6   057850.06 1376.37   1 0.43819-0.24964 0.08770 0.37065 0.89458-0.89458
  -2  -6   057044.09 1435.50   1 0.28573-0.47440-0.38563-0.07282 0.87729-0.87729
  -2  -6  -1  361.77   45.45   1 0.72576-0.89363-0.44928 0.01141-0.52096 0.44864
   2   6   1  399.37   50.20   1 0.17803-0.01077 0.34120 0.09697-0.92297 0.99522
   2   6   1  390.34   54.06   1 0.40502-0.23673-0.04837 0.48686 0.91302-0.84078
  -2  -6  -1  297.39   72.18   1 0.23775-0.40605-0.48721 0.04872 0.84029-0.91254
  -2  -6  -218237.12  439.98   1 0.62999-0.77738-0.22490-0.19305-0.74331 0.59867
   2   6   219376.94  456.15   1-0.12039 0.26740 0.58035-0.16204-0.80541 0.94986
   2   6   218330.55 1569.83   1 0.36380-0.21593-0.18347 0.60198 0.91322-0.76875
  -2  -6  -217289.66 1833.16   1 0.17900-0.32675-0.59423 0.17573 0.78412-0.92862
  -2  -6  -317359.17  391.00   1 0.42276-0.54953 0.07872-0.47698-0.90281 0.68592
   2   6   317379.37  397.07   1-0.37595 0.50262 0.71674-0.31816-0.58731 0.80382
   2   6   319790.31 1795.78   1 0.31753-0.19037-0.31006 0.70873 0.89612-0.67929
  -2  -6  -315498.20 1665.65   1 0.11137-0.23857-0.69852 0.30002 0.70686-0.92361
  -2  -6  -430284.59  713.52   1 0.17941-0.28558 0.33991-0.71852-0.92318 0.63416
   2   6   434804.10 3091.12   1 0.26929-0.16264-0.42190 0.80065 0.86572-0.57662
  -2  -6  -567722.70 1409.30   1-0.01094-0.07475 0.50184-0.86059-0.86488 0.50377
   2   6   562876.65 1533.89   1 0.22306-0.13695-0.51556 0.87409 0.82730-0.46604
  -2  -6  -636850.51  822.52   1 0.65573-0.72155-0.74434 0.40647 0.12630-0.56047
  -2  -6  -637199.96  809.05   1-0.13580 0.07055 0.59054-0.92944-0.79549 0.36215
   2   6   640728.30 2363.75   1 0.18169-0.11614-0.58968 0.92822 0.78693-0.35341
  -2  -6  -713031.62 1598.98   1 0.68631-0.73172-0.72624 0.40837 0.03919-0.54571
  -2  -6  -715758.45 1191.48   1-0.21601 0.17191 0.63828-0.95699-0.73887 0.23367
   2   6   715220.30 1310.22   1 0.14693-0.10192-0.64602 0.96458 0.74903-0.24327
  -2  -6  -855826.48 1501.86   1 0.70718-0.73218-0.70622 0.40834-0.03376-0.54512
  -2  -6  -859259.09 4599.71   1-0.26312 0.23967 0.66438-0.96313-0.69953 0.12216
   2   6   856352.39 1605.30   1 0.11931-0.09486-0.68722 0.98580 0.71657-0.13855
  -2  -6  -923886.66 3076.78   1 0.72184-0.72672-0.68508 0.40720-0.09794-0.55322
  -2  -6  -924150.45 2438.85   1-0.29067 0.28787 0.67855-0.95734-0.67458 0.02503
   2   6   924597.75 2550.54   1 0.28112-0.27601 0.95928-0.68134-0.02713 0.67792
  -2  -6 -10 5901.84 1045.39   1 0.73230-0.71678-0.66289 0.40500-0.15590-0.56762
  -2  -6 -10 6652.06  458.37   1-0.30511 0.32295 0.68564-0.94446-0.66090-0.06081
   2   6  10 6448.45  607.47   1 0.32460-0.33986 0.94259-0.68467 0.07835 0.64475
  -2  -6 -1142188.61 1815.32   1 0.73947-0.70356-0.63968 0.40178-0.20973-0.58614
  -2  -6 -1139346.04 4930.70   1-0.31030 0.34878 0.68813-0.92698-0.65588-0.13800
   2   6  1144609.40 4036.16   1 0.36179-0.39753 0.91532-0.67752 0.17688 0.61880
  -2  -6 -1221744.30 3029.92   1 0.74392-0.68762-0.61535 0.39745-0.26060-0.60762
  -2  -6 -1220421.02 3045.47   1-0.30864 0.36776 0.68733-0.90622-0.65749-0.20856
   2   6  1221085.80 1991.84   1 0.39281-0.44892 0.87975-0.66198 0.26782 0.60019
  -2  -7   7 2805.90  365.59   1 0.61770-0.95328-0.75619 0.08193 0.21587 0.29073
   2   7  -7 2774.03  287.59   1 0.64444-0.30936-0.25185 0.92615-0.72198 0.21572
   2   7  -7 2660.51  332.70   1 0.45228-0.11705 0.74906-0.07424 0.48408-0.99034
  -2  -7   7 2446.48  369.91   1 0.38528-0.72153-0.11652-0.55812 0.91541-0.40975
  -2  -7   6 5030.57  409.02   1 0.64191-0.95714-0.74973 0.09557 0.16076 0.27339
   2   7  -6 4991.66  430.22   1 0.64042-0.32570-0.24422 0.89852-0.72815 0.29421
   2   7  -6 4458.10  380.89   1 0.46612-0.15115 0.68975-0.03503 0.55404-0.98788
  -2  -7   6 4662.41  683.71   1 0.38252-0.69834-0.12549-0.52917 0.91538-0.48195
  -2  -7   5  648.62  192.89   1 0.66497-0.95979-0.73989 0.10573 0.10177 0.26002
   2   7  -5  -31.00   77.62   1 0.63124-0.33688-0.22717 0.86147-0.74156 0.37995
   2   7  -5   90.12   57.24   1 0.47645-0.18186 0.62167 0.01300 0.62170-0.98323
  -2  -7   5  117.40   80.33   1 0.37687-0.67226-0.14352-0.49118 0.91507-0.55389
  -2  -7   4 6000.78  368.39   1 0.68686-0.96126-0.72582 0.11165 0.03746 0.25198
   2   7  -4 4753.55  478.53   1 0.61454-0.34055-0.19741 0.81171-0.76378 0.47449
   2   7  -4 4934.21  508.61   1 0.48251-0.20829 0.54422 0.07041 0.68629-0.97552
  -2  -7   4 5093.18  585.04   1 0.36774-0.64270-0.17167-0.44306 0.91394-0.62499
  -2  -7   3 9402.27  404.00   1 0.70736-0.96136-0.70600 0.11183-0.03446 0.25155
   2   7  -3 8211.25  766.42   1 0.58623-0.33260-0.14996 0.74426-0.79614 0.57917
   2   7  -3 9146.87  765.61   1 0.48329-0.22908 0.45688 0.13797 0.74677-0.96357
  -2  -7   3 8257.70  702.11   1 0.35459-0.60932-0.21119-0.38346 0.91085-0.69403
  -2  -7   2  899.82   72.84   1 0.72570-0.95938-0.67787 0.10376-0.11761 0.26232
   2   7  -2  983.83  124.57   1 0.53903-0.30621-0.07704 0.65144-0.83875 0.69415
   2   7  -2  847.56   86.81   1 0.47854-0.24474 0.35986 0.21494 0.80092-0.94546
  -2  -7   2  788.47  127.89   1 0.33591-0.57014-0.26267-0.31205 0.90452-0.75997
  -2  -7   1 4564.56  460.38   1 0.74029-0.95357-0.63616 0.08205-0.21740 0.28975
   2   7  -1 3963.76  525.49   1 0.46108-0.24859 0.03030 0.52413-0.88684 0.81454
   2   7  -1 4118.65  283.40   1 0.46708-0.25360 0.25374 0.30104 0.84702-0.91927
  -2  -7   1 4145.89  530.48   1 0.31079-0.52451-0.32672-0.22807 0.89255-0.82028
  -2  -7   0  392.11   65.17   1 0.74601-0.93886-0.57122 0.03705-0.34228 0.34228
   2   7   0  629.57   94.01   1 0.33471-0.14282 0.18152 0.35297-0.92466 0.92466
   2   7   0  411.50   49.74   1 0.44873-0.25567 0.14022 0.39453 0.88259-0.88259
  -2  -7   0  438.84   72.00   1 0.27806-0.47128-0.40278-0.13208 0.87203-0.87203
  -2  -7  -147502.53  766.83   1 0.73034-0.90282-0.46579-0.04837-0.49963 0.42728
   2   7   146218.45  738.68   1 0.14554 0.02605 0.37119 0.14332-0.91707 0.98933
   2   7   145863.67 3830.06   1 0.42329-0.25046 0.02236 0.49252 0.90571-0.83347
  -2  -7  -145743.83 1095.68   1 0.23689-0.40978-0.48889-0.02599 0.83956-0.91181
  -2  -7  -2 3383.07  399.80   1 0.66692-0.81888-0.29663-0.19756-0.68353 0.53888
   2   7   2 3326.39  493.98   1-0.09011 0.24150 0.55971-0.06506-0.82377 0.96821
   2   7   2 3058.80  286.70   1 0.39153-0.23913-0.09570 0.59062 0.91517-0.77069
  -2  -7  -2 3048.71  449.86   1 0.18687-0.33920-0.58084 0.08593 0.79227-0.93677
  -2  -7  -311445.17  986.16   1 0.53137-0.66252-0.06586-0.40875-0.84457 0.62767
   2   7   311497.48  355.88   1-0.31260 0.44375 0.68922-0.21423-0.65364 0.87016
   2   7   311315.40  731.99   1 0.35534-0.22363-0.20902 0.68411 0.91106-0.69423
  -2  -7  -313522.59 1494.40   1 0.12890-0.26068-0.67327 0.19835 0.72806-0.94482
  -2  -7  -4 1060.25   99.37   1 0.46785-0.57894-0.74759 0.29329 0.47140-0.76078
  -2  -7  -4  991.08  119.24   1 0.34513-0.45562 0.16991-0.62488-0.92304 0.63398
   2   7   4 1136.71   93.77   1 0.31632-0.20511-0.31308 0.76824 0.89549-0.60640
  -2  -7  -511767.77 1128.66   1 0.56528-0.65586-0.76084 0.32661 0.31870-0.68056
  -2  -7  -510777.29 1499.64   1 0.16479-0.25493 0.35354-0.78863-0.92078 0.55951
   2   7   512303.09 1001.12   1 0.27735-0.18665-0.40434 0.83957 0.87153-0.51016
  -2  -7  -650353.71 1398.34   1 0.62576-0.69592-0.75441 0.34018 0.19818-0.63242
  -2  -7  -646098.43 1292.48   1 0.02385-0.09347 0.47464-0.88987-0.87985 0.44651
   2   7   650465.28 1542.00   1 0.24071-0.17057-0.48134 0.89630 0.84282-0.40931
  -2  -7  -798619.13 2122.03   1-0.07546 0.02627 0.54942-0.94480-0.83212 0.32656
   2   7   796409.21 2250.57   1 0.20813-0.15854-0.54324 0.93821 0.81336-0.30760
  -2  -7  -863999.19 2133.14   1 0.69224-0.72172-0.72138 0.34719 0.01991-0.59880
  -2  -7  -863053.15 2085.98   1-0.14237 0.11362 0.59481-0.97034-0.79115 0.21337
   2   7   862304.37 4987.65   1 0.18072-0.15167-0.59133 0.96631 0.78591-0.20789
  -2  -7  -9 8122.17  754.41   1 0.71141-0.72047-0.70094 0.34675-0.05068-0.60056
  -2  -7  -9 8173.33  548.40   1-0.18854 0.18124 0.62202-0.97721-0.75995 0.11041
   2   7   9 7742.81  635.66   1 0.15887-0.15038-0.62724 0.98224 0.76244-0.11217
  -2  -7 -10 1151.13  300.39   1 0.72508-0.71405-0.67911 0.34491-0.11430-0.60922
  -2  -7 -10 1228.41  311.49   1-0.21560 0.22895 0.63804-0.97328-0.73919 0.01747
   2   7  10 1208.68  322.26   1 0.29323-0.30399 0.95604-0.62176 0.00130 0.72179
   2   7  10  991.85  316.86   1 0.14257-0.15463-0.65272 0.98773 0.74405-0.02153
  -2  -7 -11  509.55   72.32   1 0.73479-0.70337-0.65595 0.34175-0.17261-0.62326
  -2  -7 -11  580.11  110.45   1-0.23078 0.26477 0.64671-0.96198-0.72697-0.06691
   2   7  11  529.97   74.91   1 0.33465-0.36592 0.93660-0.62244 0.10383 0.69185
   2   7  11  469.81  105.75   1 0.13154-0.16415-0.66936 0.98438 0.73119 0.06357
  -2  -7 -1220320.90 2899.60   1 0.74126-0.68946-0.63156 0.33735-0.22727-0.64096
  -2  -7 -1218896.17 2896.14   1-0.23710 0.29173 0.65025-0.94555-0.72177-0.14429
   2   7  1221031.84 2011.53   1 0.36996-0.42160 0.90726-0.61314 0.19996 0.66805
   2   7  1220862.24  992.54   1 0.12539-0.17854-0.67842 0.97346 0.72388 0.14314
  -2  -8   618308.09 1758.26   1 0.64196-0.96167-0.74971 0.01924 0.16063 0.27352
   2   8  -617821.06 1742.09   1 0.59445-0.27531-0.16341 0.89403-0.78734 0.35341
   2   8  -616390.67 1655.24   1 0.46619-0.14676 0.68938 0.04168 0.55444-0.98829
  -2  -8   614940.07 2036.31   1 0.36418-0.68454-0.18234-0.54874 0.91330-0.47987
  -2  -8   524257.34 3751.74   1 0.66548-0.96478-0.73962 0.02915 0.10038 0.26142
   2   8  -525433.25 1941.48   1 0.58126-0.28248-0.14198 0.85260-0.80123 0.43961
   2   8  -523277.59 2447.41   1 0.47609-0.17704 0.62475 0.08627 0.61887-0.98041
  -2  -8   522094.05 2809.62   1 0.35867-0.65860-0.19854-0.51256 0.91210-0.55091
  -2  -8   4  220.12   73.36   1 0.68760-0.96648-0.72523 0.03475 0.03509 0.25435
   2   8  -4   49.68   38.57   1 0.55935-0.28093-0.10775 0.79837-0.82189 0.53260
   2   8  -4  132.35   73.41   1 0.48211-0.20344 0.55241 0.13857 0.68000-0.96923
  -2  -8   4  177.60   69.11   1 0.35012-0.62990-0.22384-0.46715 0.90956-0.62046
  -2  -8   313750.27 1022.86   1 0.70804-0.96652-0.70518 0.03470-0.03714 0.25423
   2   8  -313256.37  769.04   1 0.52471-0.26718-0.05628 0.72700-0.84941 0.63251
   2   8  -312760.83 1056.86   1 0.48350-0.22479 0.47219 0.19905 0.73705-0.95385
  -2  -8   312652.42 1579.41   1 0.33744-0.59672-0.25858-0.41248 0.90513-0.68830
  -2  -8   219992.57 1677.07   1 0.72600-0.96417-0.67728 0.02687-0.11918 0.26389
   2   8  -216319.81 2617.91   1 0.47130-0.23411 0.01695 0.63380-0.88180 0.73721
   2   8  -218302.80 1741.44   1 0.48028-0.24198 0.38445 0.26674 0.78836-0.93289
  -2  -8   220659.10 2305.91   1 0.32012-0.55890-0.30356-0.34757 0.89742-0.75287
  -2  -8   1 1106.17  121.82   1 0.74003-0.95781-0.63729 0.00688-0.21494 0.28729
   2   8  -1  978.51  123.27   1 0.39014-0.17357 0.11810 0.51263-0.91314 0.84088
   2   8  -1  950.29  184.29   1 0.47158-0.25359 0.28982 0.34135 0.83283-0.90507
  -2  -8   1 1169.90  179.25   1 0.29730-0.51558-0.35899-0.27221 0.88472-0.81244
  -2  -8   066626.62 1509.45   1 0.74610-0.94344-0.57831-0.03216-0.32996 0.32996
   2   8   064001.05 1434.56   1 0.27076-0.07454 0.24996 0.36088-0.92962 0.92962
   2   8   064180.88 5201.88   1 0.45747-0.25990 0.18962 0.42153 0.86876-0.86876
  -2  -8   061823.98 1711.31   1 0.26814-0.46591-0.42438-0.18689 0.86486-0.86486
  -2  -8  -170733.97 1747.87   1 0.73583-0.91280-0.48937-0.10110-0.46802 0.39568
   2   8   171283.53 1740.45   1 0.10747 0.06846 0.40507 0.18579-0.90794 0.98020
   2   8   168283.24 1906.24   1 0.43782-0.26066 0.08593 0.50519 0.89494-0.82269
  -2  -8  -165681.12 1928.88   1 0.23202-0.40949-0.49840-0.09289 0.83531-0.90757
  -2  -8  -2 7939.22 1069.84   1 0.69343-0.84985-0.35637-0.21412-0.62621 0.48156
   2   8   2 7954.48 1309.08   1-0.08708 0.24284 0.55760 0.01338-0.82552 0.96997
   2   8   2 8871.48  887.00   1 0.41308-0.25614-0.01822 0.58956 0.91050-0.76603
  -2  -8  -2 8375.92 1061.22   1 0.18848-0.34540-0.57806 0.00674 0.79392-0.93842
  -2  -8  -3 4658.80  727.42   1 0.60251-0.73839-0.17683-0.37378-0.77827 0.56130
   2   8   3 4480.45  831.83   1-0.27897 0.41461 0.67264-0.12124-0.68536 0.90188
   2   8   3 6180.23  588.27   1 0.38428-0.24776-0.11977 0.67114 0.91541-0.69869
  -2  -8  -3 5101.75  476.38   1 0.13798-0.27435-0.65971 0.10837 0.73874-0.95550
  -2  -8  -4 1030.57  104.83   1 0.42701-0.54256-0.73616 0.20554 0.52509-0.81447
  -2  -8  -4  630.92  118.20   1 0.46608-0.58127 0.02380-0.55482-0.88442 0.59522
   2   8   4  761.12   65.18   1 0.35322-0.23746-0.21508 0.74665 0.91047-0.62138
   2   8   537645.20 3239.02   1 0.32091-0.22566-0.30156 0.81320 0.89781-0.53644
  -2  -8  -678834.82 1757.72   1 0.59945-0.67407-0.75907 0.26852 0.25389-0.68813
  -2  -8  -683011.18 1786.56   1 0.17436-0.24847 0.34464-0.83622-0.92239 0.48887
   2   8   683215.32 5978.88   1 0.28947-0.21472-0.37711 0.86883 0.87976-0.44611
  -2  -8  -7 8786.43  879.46   1 0.64590-0.70026-0.74832 0.27782 0.15107-0.65760
  -2  -8  -7 8451.25  649.44   1 0.06420-0.11794 0.44195-0.91367-0.89473 0.38895
   2   8   7 7437.89 1348.16   1 0.26041-0.20616-0.44081 0.91259 0.85899-0.35307
  -2  -8  -8  917.24  135.45   1 0.67816-0.71211-0.73209 0.28160 0.06421-0.64310
  -2  -8  -8 1125.58  149.35   1-0.01743-0.01568 0.50680-0.95866-0.86188 0.28410
   2   8   8 1046.57  169.80   1 0.23473-0.20110-0.49312 0.94452 0.83768-0.25967
  -2  -8  -911907.92 1264.66   1 0.70125-0.71479-0.71281 0.28232-0.01143-0.63981
  -2  -8  -910211.50 1979.74   1-0.07520 0.06252 0.54924-0.98126-0.83226 0.18225
   2   8   911313.68 1643.65   1 0.21327-0.20019-0.53384 0.96524 0.81824-0.16797
  -2  -8 -10 3725.24  451.19   1 0.71791-0.71139-0.69158 0.28109-0.07939-0.64413
   2   8  10 3757.41  376.22   1 0.26413-0.27040 0.96222-0.55159-0.06596 0.78906
   2   8  10 3001.62  672.49   1 0.19633-0.20380-0.56437 0.97579 0.80183-0.07931
  -2  -8 -11 4538.25  980.69   1 0.72994-0.70303-0.66871 0.27821-0.14140-0.65447
   2   8  11 5208.94  560.27   1 0.30826-0.33491 0.95055-0.55994 0.03759 0.75782
   2   8  11 4004.33 1039.72   1 0.18396-0.21198-0.58582 0.97725 0.78928 0.00549
  -2  -9   5  201.41   77.63   1 0.66252-0.96629-0.74115-0.04563 0.10843 0.25337
   2   9  -5  113.16   42.02   1 0.52540-0.22282-0.05726 0.84424-0.84892 0.48743
   2   9  -5   84.52   51.14   1 0.47512-0.17160 0.63278 0.15459 0.61142-0.97296
  -2  -9   5   37.06   54.73   1 0.34012-0.64495-0.25139-0.53594 0.90615-0.54478
  -2  -9   4   27.72   81.45   1 0.68504-0.96840-0.72722-0.03956 0.04321 0.24623
   2   9  -4   46.53   65.56   1 0.49903-0.21680-0.02030 0.78733-0.86634 0.57714
   2   9  -4   84.68   57.77   1 0.48138-0.19824 0.56527 0.20205 0.66986-0.95909
  -2  -9   4   77.86   74.08   1 0.33175-0.61609-0.27365-0.49375 0.90280-0.61370
  -2  -9   3  660.51   98.80   1 0.70573-0.96868-0.70791-0.03887-0.02815 0.24523
   2   9  -3  528.63  168.26   1 0.45968-0.19778 0.03211 0.71496-0.88749 0.67060
   2   9  -3  566.65   90.50   1 0.48354-0.22032 0.49140 0.25623 0.72436-0.94116
  -2  -9   3  772.06  128.38   1 0.31981-0.58364-0.30435-0.44312 0.89726-0.68044
  -2  -9   229348.22 2532.59   1 0.72384-0.96651-0.68147-0.04523-0.10789 0.25260
   2   9  -230367.45 1039.80   1 0.40238-0.16082 0.10349 0.62362-0.90960 0.76500
   2   9  -225473.19 2899.43   1 0.48179-0.23898 0.41156 0.31602 0.77362-0.91815
  -2  -9   226408.81 3400.06   1 0.30370-0.54703-0.34386-0.38368 0.88855-0.74400
  -2  -9   1110113.6 3228.27   1 0.73822-0.96050-0.64457-0.06214-0.19887 0.27122
   2   9  -1108653.8 3151.75   1 0.32079-0.09988 0.19683 0.51025-0.92647 0.85420
   2   9  -1104830.6 3192.09   1 0.47563-0.25323 0.32634 0.38119 0.81686-0.88913
  -2  -9   197336.52 3148.06   1 0.28280-0.50562-0.39223-0.31538 0.87531-0.80304
  -2  -9   029446.11 2886.23   1 0.74582-0.94765-0.59223-0.09455-0.30496 0.30496
   2   9   026742.69 3023.54   1 0.20883-0.00820 0.31184 0.37521-0.92690 0.92690
   2   9   028511.48 2300.38   1 0.46475-0.26267 0.23687 0.45067 0.85316-0.85316
  -2  -9   027576.10 2880.15   1 0.25653-0.45913-0.44927-0.23842 0.85577-0.85577
  -2  -9  -1  831.41  147.99   1 0.74097-0.92242-0.51718-0.14961-0.42834 0.35600
   2   9   1  889.36   92.88   1 0.06511 0.11515 0.44120 0.22599-0.89504 0.96729
   2   9   1  945.91  102.47   1 0.44956-0.26790 0.14464 0.52287 0.88145-0.80921
  -2  -9  -1 1265.71  247.93   1 0.22422-0.40628-0.51335-0.15435 0.82836-0.90061
  -2  -9  -2 6376.82 1183.09   1 0.71355-0.87442-0.41000-0.23680-0.56809 0.42344
   2   9   2 6770.34 1193.54   1-0.10050 0.26064 0.56689 0.08042-0.81763 0.96208
   2   9   2 8004.51  500.29   1 0.43024-0.26899 0.05169 0.59580 0.90123-0.75673
  -2  -9  -2 7070.56 1443.22   1 0.18567-0.34718-0.58289-0.06483 0.79104-0.93555
  -2  -9  -3 2485.49  491.89   1 0.65240-0.79271-0.26730-0.35964-0.70917 0.49220
   2   9   3 2323.81  593.69   1-0.26719 0.40733 0.66653-0.03872-0.69594 0.91245
   2   9   3 3635.13  602.66   1 0.40747-0.26641-0.03937 0.66714 0.91236-0.69565
  -2  -9  -3 2957.65  386.56   1 0.14102-0.28198-0.65509 0.02734 0.74227-0.95902
  -2  -9  -426788.50  953.58   1 0.55420-0.67415-0.09992-0.50702-0.82636 0.53707
   2   9   427709.92 3248.63   1 0.38222-0.26159-0.12647 0.73427 0.91537-0.62642
  -2  -9  -5125479.5 1474.86   1 0.43213-0.53136 0.06710-0.65452-0.89930 0.53781
   2   9   5124399.1 1951.93   1 0.35609-0.25628-0.20689 0.79494 0.91125-0.54988
  -2  -9  -629839.04 2309.32   1 0.57922-0.65829-0.76063 0.19376 0.29315-0.72739
  -2  -9  -627105.65 2974.40   1 0.30777-0.38621 0.21093-0.77885-0.92778 0.49418
   2   9   630585.01 3870.76   1 0.32960-0.25029-0.27929 0.84742 0.90186-0.46821
  -2  -9  -7 1499.01  213.95   1 0.63013-0.68878-0.75330 0.20643 0.18833-0.69495
  -2  -9  -7 1429.79  158.52   1 0.19742-0.25550 0.32282-0.87088-0.92563 0.41985
   2   9   7 1464.91  182.99   1 0.30435-0.24555-0.34231 0.89051 0.88892-0.38300
  -2  -9  -810567.28 1148.28   1 0.66635-0.70478-0.73916 0.21235 0.09800-0.67689
  -2  -9  -8 9453.16 1080.30   1 0.10825-0.14597 0.40438-0.93258-0.90815 0.33012
   2   9   8 9111.30 1241.07   1 0.28137-0.24307-0.39542 0.92369 0.87433-0.29614
  -2  -9  -9  717.26   90.14   1 0.69253-0.71055-0.72113 0.21432 0.01895-0.67020
  -2  -9  -9  562.08   97.71   1 0.04012-0.05747 0.46175-0.97009-0.88609 0.23581
   2   9   9  682.18  182.43   1 0.26143-0.24364-0.43867 0.94700 0.85977-0.20931
  -2  -9 -10 3698.42  549.18   1 0.71170-0.70931-0.70055 0.21374-0.05190-0.67170
  -2  -9 -10 3803.28  514.22   1-0.01000 0.01339 0.50112-0.98961-0.86531 0.14308
   2   9  10 3160.25  808.13   1 0.24487-0.24776-0.47304 0.96087 0.84632-0.12380
  -2  -9 -11 6235.66 1133.93   1 0.72558-0.70317-0.67811 0.21130-0.11698-0.67889
  -2  -9 -11 4433.45 1554.58   1-0.04513 0.06896 0.52752-0.99616-0.84834 0.05388
   2   9  11 6340.15  670.98   1 0.28430-0.30645 0.95853-0.49156-0.01972 0.81513
  -2 -10   3 9295.56 1603.81   1 0.70053-0.96796-0.71355-0.10954-0.00884 0.22592
   2  10  -3 9228.74 1526.53   1 0.39177-0.12583 0.11618 0.70702-0.91269 0.69590
   2  10  -310600.99  954.58   1 0.48325-0.21554 0.51356 0.31046 0.70902-0.92582
  -2 -10   310304.57 1548.24   1 0.30158-0.56996-0.34891-0.47497 0.88730-0.67047
  -2 -10   233398.94 4490.79   1 0.71927-0.96644-0.68941-0.11359-0.08567 0.23037
   2  10  -239290.61 1339.06   1 0.33230-0.08672 0.18418 0.61913-0.92501 0.78047
   2  10  -233332.26 3549.77   1 0.48290-0.23559 0.44052 0.36345 0.75679-0.90132
  -2 -10   234622.25 3744.99   1 0.28658-0.53445-0.38371-0.42024 0.87785-0.73331
  -2 -10   131271.65 3627.60   1 0.73466-0.96144-0.65633-0.12668-0.17172 0.24408
   2  10  -135496.03 1142.59   1 0.25190-0.02666 0.26927 0.51417-0.92953 0.85727
   2  10  -132118.14 3062.27   1 0.47880-0.25190 0.36322 0.42070 0.79925-0.87152
  -2 -10   129549.54 2736.31   1 0.26731-0.49469-0.42617-0.35786 0.86424-0.79197
  -2 -10   053090.23 1120.93   1 0.74446-0.95085-0.61079-0.15223-0.26962 0.26962
   2  10   052855.52 1086.59   1 0.14719 0.05777 0.36969 0.39370-0.91742 0.91742
   2  10   048842.98 2988.59   1 0.47073-0.26414 0.28260 0.48133 0.83578-0.83578
  -2 -10   047012.21 4846.25   1 0.24333-0.45053-0.47613-0.28798 0.84503-0.84503
  -2 -10  -179358.92 1936.46   1 0.74469-0.93064-0.54753-0.19557-0.38163 0.30928
   2  10   178688.52 5348.15   1 0.01846 0.16648 0.47892 0.26458-0.87766 0.94988
   2  10   178880.65 5061.74   1 0.45913-0.27296 0.19979 0.54412 0.86560-0.79336
  -2 -10  -170503.51 5974.69   1 0.21415-0.40079-0.53222-0.21190 0.81907-0.89132
  -2 -10  -245681.53 1480.38   1 0.72900-0.89457-0.46058-0.26251-0.50637 0.36168
   2  10   245430.07 2744.66   1 0.44409-0.27834 0.11632 0.60756 0.88839-0.74390
  -2 -10  -239250.95 3923.45   1 0.17955-0.34564-0.59330-0.13083 0.78469-0.92919
  -2 -10  -318889.08  579.94   1 0.68883-0.83378-0.34529-0.35783-0.63740 0.42042
   2  10   320850.93  610.47   1-0.27151 0.41614 0.66879 0.03542-0.69209 0.90860
   2  10   319455.84 1081.17   1 0.42612-0.28053 0.03417 0.67001 0.90401-0.68730
  -2 -10  -318294.86 1493.23   1 0.13957-0.28512-0.65730-0.04685 0.74058-0.95734
  -2 -10  -431750.48 1091.83   1 0.61966-0.74404-0.20638-0.47688-0.75724 0.46795
   2  10   434152.03 1166.74   1-0.39566 0.51964 0.72422-0.03996-0.56475 0.85344
   2  10   432200.83 2421.82   1 0.40590-0.28073-0.04517 0.72938 0.91280-0.62385
  -2 -10  -5 1831.74  511.91   1 0.49336-0.59745-0.75316 0.08989 0.43511-0.79684
  -2 -10  -5 2049.10  381.26   1 0.52632-0.62992-0.05859-0.60518-0.84825 0.48676
   2  10   5 2456.83  359.16   1 0.38428-0.27954-0.11978 0.78402 0.91541-0.55422
  -2 -10  -613712.47 1325.48   1 0.56650-0.65004-0.76085 0.11765 0.31649-0.75073
  -2 -10  -612335.30 2110.29   1 0.42106-0.50432 0.08081-0.72463-0.90342 0.46963
   2  10   613854.11 1443.67   1 0.36223-0.27792-0.18810 0.83237 0.91290-0.47948
  -2 -10  -730287.22 2972.37   1 0.61946-0.68257-0.75583 0.13264 0.21206-0.71867
  -2 -10  -734084.42  899.34   1 0.31917-0.38158 0.19860-0.82299-0.92665 0.42079
   2  10   729004.74 3584.47   1 0.34119-0.27784-0.24848 0.87309 0.90655-0.40063
  -2 -10  -8 6229.11 1324.81   1 0.65798-0.70089-0.74333 0.14021 0.12046-0.69934
  -2 -10  -8 6413.41 1122.96   1 0.22930-0.27137 0.29190-0.89641-0.92855 0.35042
   2  10   8 7370.55 1174.02   1 0.32112-0.27827-0.30104 0.90572 0.89791-0.31972
  -2 -10  -9 2851.12  639.18   1 0.68619-0.70869-0.72634 0.14322 0.03957-0.69082
  -2 -10  -9 2847.11  582.96   1 0.15554-0.17722 0.36207-0.94675-0.91908 0.26879
   2  10   9 3210.25  499.13   1 0.30319-0.28085-0.34507 0.92982 0.88825-0.23778
  -2 -10 -1012448.55 2904.48   1 0.70705-0.70913-0.70637 0.14325-0.03324-0.69036
  -2 -10 -1015793.81  759.16   1 0.09798-0.09930 0.41330-0.97812-0.90530 0.18276
   2  10  1015662.38  832.48   1 0.28795-0.28611-0.38058 0.94540 0.87876-0.15602
  -2 -11   110143.72 1944.09   1 0.72880-0.96008-0.67132-0.18799-0.13475 0.20710
   2  11  -1 9369.91 2013.10   1 0.18233 0.04733 0.33716 0.52243-0.92362 0.85136
   2  11  -112131.77 1530.44   1 0.48122-0.24982 0.40038 0.45993 0.77981-0.85208
  -2 -11   112052.80 1286.54   1 0.25087-0.48320-0.46091-0.39960 0.85124-0.77899
  -2 -11   034774.23 1237.07   1 0.74110-0.95198-0.63236-0.20696-0.22556 0.22556
   2  11   035779.75 1201.25   1 0.08445 0.12484 0.42490 0.41483-0.90129 0.90129
   2  11   032154.42 2946.72   1 0.47571-0.26471 0.32717 0.51309 0.81649-0.81649
  -2 -11   029774.20 3440.64   1 0.22881-0.44059-0.50459-0.33593 0.83248-0.83248
  -2 -11  -1 1830.31  297.07   1 0.74610-0.93654-0.57948-0.23993-0.32792 0.25557
   2  11   1 2130.75  217.18   1-0.03179 0.22110 0.51762 0.30222-0.85501 0.92723
   2  11   1 2137.45  237.96   1 0.46689-0.27621 0.25232 0.56798 0.84755-0.77530
  -2 -11  -1 1969.72  220.67   1 0.20219-0.39342-0.55397-0.26657 0.80761-0.87986
  -2 -11  -220979.99  942.56   1 0.73950-0.90957-0.50834-0.29106-0.44126 0.29657
   2  11   221927.23  935.41   1-0.15860 0.32748 0.60520 0.19479-0.78011 0.92455
   2  11   221240.23 1719.57   1 0.45533-0.28507 0.17688 0.62340 0.87257-0.72808
  -2 -11  -219485.25 1816.59   1 0.17080-0.34148-0.60789-0.19265 0.77542-0.91993
  -2 -11  -3 4787.04  797.78   1 0.71512-0.86452-0.41467-0.36476-0.56270 0.34573
   2  11   3 3214.39 1292.98   1-0.28830 0.43741 0.67737 0.10326-0.67679 0.89330
   2  11   3 5917.93  483.35   1 0.44123-0.29139 0.10223 0.67802 0.89154-0.67480
  -2 -11  -3 5842.14  469.51   1 0.13462-0.28475-0.66476-0.11580 0.73482-0.95157
  -2 -11  -4 3331.25  734.21   1 0.66865-0.79768-0.30026-0.45918-0.68025 0.39095
   2  11   4 3875.97  518.27   1 0.42515-0.29544 0.03009 0.73052 0.90461-0.61566
  -2 -11  -5  965.66  327.67   1 0.49111-0.59965-0.75272 0.01313 0.43841-0.80014
  -2 -11  -5  837.03  350.67   1 0.59956-0.70800-0.17189-0.56770-0.78164 0.42003
   2  11   5 1789.61  290.13   1 0.40768-0.29840-0.03859 0.77924 0.91230-0.55111
  -2 -11  -629747.02 1212.85   1 0.56196-0.64995-0.76080 0.04128 0.32461-0.75885
  -2 -11  -630933.59 1224.05   1 0.51563-0.60327-0.04338-0.67678-0.85570 0.42191
   2  11   628164.24 3819.00   1 0.38956-0.30070-0.10234 0.82302 0.91529-0.48187
  -2 -11  -7  124.93   58.09   1 0.61476-0.68233-0.75676 0.05725 0.22218-0.72879
  -2 -11  -7   87.13   26.74   1 0.42628-0.49358 0.07437-0.77459-0.90152 0.39544
   2  11   7  190.94   60.94   1 0.37154-0.30311-0.16007 0.86079 0.91451-0.40884
  -2 -11  -829300.87 1049.29   1 0.65394-0.70133-0.74512 0.06569 0.13091-0.70979
  -2 -11  -828536.64  999.97   1 0.34198-0.38838 0.17343-0.85430-0.92356 0.34543
   2  11   828849.15 1226.81   1 0.35487-0.30747-0.21039 0.89148 0.91093-0.33274
   2  12   1 8352.78  817.51   1 0.47321-0.27813 0.30279 0.59380 0.82727-0.75500
  -2 -12  -1 7566.75  928.06   1 0.18858-0.38440-0.57789-0.31906 0.79402-0.86627
   2  12   2 1530.89  177.45   1 0.46438-0.28961 0.23432 0.64235 0.85407-0.70957
  -2 -12  -2 1367.84  203.23   1 0.15986-0.33513-0.62566-0.25129 0.76353-0.90803
   2  12   3 5614.17  681.09   1 0.45351-0.29915 0.16641 0.69024 0.87557-0.65883
  -2 -12  -3 5586.28  489.77   1 0.12684-0.28156-0.67630-0.18067 0.72562-0.94237
   2  12   4 4723.22  597.17   1 0.44083-0.30689 0.10027 0.73635 0.89196-0.60298
   2  12   5 3747.18  677.23   1 0.42689-0.31307 0.03741 0.77964 0.90352-0.54234
   2  12   6  192.46   75.72   1 0.41217-0.31878-0.02171 0.81880 0.91084-0.47742
   3 -12  -3 4543.72 1574.91   1 0.56710-0.31687-0.11968-0.73625-0.81490 0.59793
  -3  12   3 5542.56 1357.38   1-0.19531-0.05521 0.62610 0.23094-0.75488 0.97139
  -3  12   3 5673.73  898.87   1 0.48292-0.73237 0.44120 0.41529 0.75638-0.53958
   3 -12  -3 6354.25  641.82   1 0.15158 0.09702-0.63877-0.21820 0.75431-0.97106
   3 -12  -2  928.08  107.27   1 0.61189-0.38202-0.19282-0.68310-0.76707 0.62243
  -3  12   2  905.70  145.09   1-0.12152-0.10939 0.58111 0.29522-0.80469 0.94914
  -3  12   2  751.74  149.67   1 0.48355-0.71260 0.48648 0.39006 0.72766-0.58313
   3 -12  -2  763.86   99.51   1 0.19828 0.02978-0.56092-0.31604 0.80377-0.94827
   3 -11  -612717.56 1496.55   1 0.36102-0.04413 0.15193-0.87256-0.92009 0.48650
  -3  11   611762.93 1416.10   1-0.39649 0.07953 0.72452-0.00378-0.56379 0.99682
  -3  11   6 9583.00 2205.41   1 0.46713-0.78226 0.25417 0.46601 0.84686-0.41338
   3 -11  -5 2115.51  295.15   1 0.41330-0.11741 0.09029-0.83042-0.90610 0.54461
  -3  11   5 1654.22  268.24   1-0.32869 0.03237 0.69668 0.04401-0.63764 0.99850
  -3  11   5 1603.15  362.88   1 0.47302-0.76779 0.30104 0.43897 0.82801-0.46668
   3 -11  -4 1330.63  147.34   1 0.46833-0.19277 0.02085-0.78093-0.88330 0.59411
  -3  11   4 1300.36  175.88   1-0.25563-0.02003 0.66039 0.10027-0.70606 0.99475
  -3  11   4 1442.68  192.82   1 0.47781-0.75216 0.35067 0.40939 0.80543-0.51636
   3 -11  -3  822.57  100.88   1 0.52329-0.26807-0.05425-0.72579-0.85042 0.63352
  -3  11   3  965.13  222.86   1 0.48129-0.73524 0.40167 0.37844 0.77911-0.56231
   3 -11  -3  843.24  127.22   1 0.16241 0.09078-0.62156-0.15899 0.76633-0.98309
   3 -11  -212351.29 1272.36   1 0.57537-0.34108-0.13262-0.66698-0.80706 0.66241
  -3  11   212084.17 1150.89   1-0.09941-0.13586 0.56614 0.23384-0.81828 0.96273
  -3  11   211170.13 1152.82   1 0.48322-0.71676 0.45292 0.34724 0.74923-0.60470
   3 -11  -212598.45 1045.07   1 0.21385 0.01880-0.53277-0.26778 0.81879-0.96329
   3 -11  -1 4334.78  524.51   1 0.62277-0.40883-0.21189-0.60770-0.75316 0.68083
  -3  11   1 4183.73  296.24   1-0.02291-0.19193 0.51095 0.30889-0.85930 0.93152
  -3  11   1 4189.04  371.80   1 0.48343-0.69656 0.50351 0.31670 0.71607-0.64381
   3 -11  -1 4099.27  310.21   1 0.25619-0.04409-0.44997-0.37056 0.85550-0.92775
   3 -11   0 5958.85  757.45   1 0.66337-0.47010-0.28923-0.55020-0.69013 0.69013
  -3  11   0 6450.09  660.93   1 0.04966-0.24442 0.45397 0.38576-0.88962 0.88962
  -3  11   0 6216.22  622.16   1 0.48208-0.67521 0.55299 0.28687 0.67955-0.67955
   3 -11   0 6599.29  652.55   1 0.28998-0.09799-0.37594-0.46457 0.88009-0.88009
   3 -11   1 7133.00  934.89   1 0.69585-0.52296-0.36234-0.49709-0.62006 0.69239
  -3  11  -1 6845.52  766.74   1 0.11604-0.29043 0.39755 0.46203-0.91020 0.83795
  -3  11  -1 6103.55  933.74   1 0.47866-0.65141 0.60037 0.25952 0.64064-0.71295
   3 -11   1 6541.34  606.55   1 0.31677-0.14527-0.31197-0.54846 0.89572-0.82345
   3 -11   2 2926.42  416.68   1 0.71994-0.56741-0.42963-0.44980-0.54507 0.68971
  -3  11  -2 2615.22  391.23   1 0.17490-0.32893 0.34414 0.53531-0.92248 0.77797
  -3  11  -2 2569.69  391.45   1 0.47343-0.62581 0.64552 0.23442 0.59929-0.74391
   3 -11   2 3031.87  366.23   1 0.33747-0.18648-0.25850-0.62186 0.90514-0.76059
   3 -10  -8 2644.60  292.08   1 0.51890-0.15792-0.75739 0.15420 0.39635-0.97533
   3 -10  -8 3106.89  310.85   1 0.20134 0.16066 0.31906-0.92360-0.92609 0.34806
   3 -10  -7  201.53   50.59   1 0.46275-0.12248-0.74632 0.12302 0.47839-0.98481
   3 -10  -7  253.74  105.16   1 0.24490 0.09667 0.27634-0.90073-0.92933 0.42347
  -3  10   7  215.46   69.03   1 0.44830-0.78836 0.13795 0.48581 0.88316-0.37744
   3 -10  -646679.38 4718.76   1 0.29539 0.02583 0.22417-0.86844-0.92870 0.49510
  -3  10   644632.96 4792.30   1-0.39918 0.07773 0.72549-0.08116-0.56063 0.99366
  -3  10   652157.65 1878.72   1 0.45741-0.77705 0.18925 0.45454 0.86887-0.43540
   3 -10  -571310.92 6459.11   1 0.35181-0.05094 0.16239-0.82655-0.92187 0.56054
  -3  10   567546.46 6100.94   1-0.32809 0.02728 0.69641-0.03211-0.63825 0.99911
  -3  10   574991.21 1878.82   1 0.46588-0.76510 0.24494 0.41887 0.85026-0.48903
   3 -10  -421466.44 1655.57   1 0.41207-0.13214 0.09179-0.77553-0.90651 0.61732
  -3  10   419351.89 1724.86   1-0.25046-0.02969 0.65759 0.02665-0.71051 0.99920
  -3  10   419017.36 2137.78   1 0.47325-0.75211 0.30313 0.38054 0.82712-0.53805
   3 -10  -3 7729.44  670.22   1 0.47421-0.21461 0.01311-0.71680-0.88031 0.66341
  -3  10   3 7819.67  532.58   1 0.47872-0.73717 0.36214 0.34159 0.79979-0.58299
   3 -10  -3 7834.16  523.06   1 0.17024 0.08754-0.60881-0.09534 0.77483-0.99158
   3 -10  -2 9389.96  756.16   1 0.53474-0.29548-0.07076-0.65288-0.84204 0.69744
  -3  10   2 9852.95  561.42   1 0.48219-0.72024 0.42059 0.30318 0.76849-0.62396
   3 -10  -2 8796.74  985.34   1 0.22773 0.00950-0.50667-0.21746 0.83151-0.97602
   3 -10  -1  421.15   72.63   1 0.59039-0.37203-0.15674-0.58653-0.79174 0.71942
  -3  10   1  314.16   63.41   1 0.00119-0.22041 0.49247 0.25103-0.87032 0.94254
  -3  10   1  403.65   66.98   1 0.48354-0.70118 0.47746 0.26636 0.73362-0.66136
   3 -10  -1  370.45   66.69   1 0.27398-0.05693-0.41175-0.33242 0.86913-0.94140
   3 -10   080815.22 1762.99   1 0.63900-0.44100-0.24155-0.52172-0.73028 0.73028
  -3  10   073378.17 5975.30   1 0.08014-0.27924 0.42856 0.33483-0.89995 0.89995
  -3  10   082559.67 1571.07   1 0.48298-0.68057 0.53231 0.23119 0.69524-0.69524
   3 -10   085073.47 1760.44   1 0.31049-0.11394-0.32746-0.43664 0.89239-0.89239
   3 -10   1100762.8 2721.27   1 0.67877-0.50142-0.32220-0.46091-0.65988 0.73221
  -3  10  -196847.71 3004.31   1 0.15199-0.33072 0.36531 0.41793-0.91839 0.84613
  -3  10  -1103344.7 2403.51   1 0.48006-0.65727 0.58412 0.19943 0.65447-0.72678
   3 -10   1102271.0 2488.59   1 0.33855-0.16251-0.25561-0.52841 0.90556-0.83328
   3 -10   216083.98 1938.46   1 0.70882-0.55185-0.39645-0.40666-0.58342 0.72806
  -3  10  -214027.88 1478.74   1 0.21514-0.37351 0.30570 0.49740-0.92750 0.78299
  -3  10  -213945.51 1474.70   1 0.47511-0.63195 0.63286 0.17073 0.61135-0.75596
   3 -10   214391.85 1629.01   1 0.35938-0.20342-0.19648-0.60754 0.91227-0.76779
   3 -10   3  121.34   75.80   1 0.72971-0.59364-0.46334-0.35974-0.50281 0.71984
  -3  10  -3   92.69   44.61   1 0.26881-0.40686 0.25198 0.57122-0.92964 0.71285
  -3  10  -3  146.20   75.12   1 0.46822-0.60469 0.67838 0.14525 0.56617-0.78309
   3 -10   3  121.81   66.22   1 0.37501-0.23948-0.14933-0.67466 0.91491-0.69819
   3 -10   4 3013.08  551.20   1 0.74169-0.62599-0.52194-0.32114-0.42126 0.71063
  -3  10  -4 3388.86  372.14   1 0.31317-0.43088 0.20510 0.63798-0.92728 0.63821
  -3  10  -4 3417.12  379.44   1 0.45966-0.57586 0.72070 0.12305 0.51893-0.80822
   3 -10   4 3148.78  381.57   1 0.38629-0.27118-0.11320-0.73076 0.91540-0.62645
   3  -9  -9  188.36   90.01   1 0.57729-0.19144-0.76070 0.25383 0.29675-0.94811
   3  -9  -9  282.22   75.24   1 0.09691 0.28980 0.41423-0.92257-0.90499 0.25471
   3  -9  -8 7935.71  756.30   1 0.52926-0.16382-0.75866 0.23179 0.37988-0.95886
   3  -9  -8 8372.98  825.11   1 0.13141 0.23492 0.38391-0.91211-0.91396 0.33593
  -3   9   8 8735.95  406.92   1 0.26429-0.62910 0.96220-0.43517-0.06560 0.64408
  -3   9   8 5369.65 1647.11   1 0.41790-0.78267 0.00054 0.52737 0.90849-0.33059
   3  -9  -731420.84 3177.21   1 0.47275-0.12802-0.74876 0.20177 0.46460-0.97102
   3  -9  -734947.48 2065.78   1 0.17433 0.17164 0.34467-0.89273-0.92239 0.41661
  -3   9   734653.46 1027.54   1 0.43097-0.77554 0.05489 0.49248 0.90069-0.39496
   3  -9  -674404.82 6452.45   1 0.40745-0.08311-0.72972 0.16275 0.54908-0.98316
   3  -9  -682947.48 6651.88   1 0.22577 0.09977 0.29538-0.86330-0.92831 0.49472
  -3   9   682431.15 1265.25   1 0.44425-0.76840 0.11709 0.45030 0.88821-0.45473
   3  -9  -5  867.23  106.11   1 0.28508 0.02011 0.23504-0.82284-0.92923 0.56790
  -3   9   5  849.74   99.86   1-0.33370 0.02841 0.69894-0.11106-0.63254 0.99340
  -3   9   5  651.61  143.97   1 0.45655-0.76029 0.18410 0.40332 0.87043-0.50920
   3  -9  -452897.84 3358.39   1 0.35070-0.06585 0.16365-0.77133-0.92207 0.63301
  -3   9   449370.28 3662.09   1-0.25165-0.03299 0.65824-0.05039-0.70949 0.99818
  -3   9   450062.20 4203.70   1 0.46702-0.75033 0.25331 0.35413 0.84718-0.55819
   3  -9  -340211.44 2571.58   1 0.41974-0.15577 0.08243-0.70976-0.90389 0.68699
  -3   9   337088.98 3644.01   1-0.16186-0.10260 0.60725 0.02021-0.77784 0.99451
  -3   9   338975.01 3148.43   1 0.47526-0.73821 0.32256 0.30478 0.81858-0.60178
   3  -9  -341480.41 2537.21   1 0.17416 0.08820-0.60232-0.02542 0.77902-0.99577
   3  -9  -2 8426.00  548.37   1 0.48906-0.24543-0.00672-0.64056-0.87222 0.72762
  -3   9   2 8584.20  701.53   1-0.07016-0.17386 0.54566 0.10165-0.83506 0.97950
  -3   9   2 8297.61  482.59   1 0.48062-0.72317 0.38998 0.25741 0.78543-0.64090
   3  -9  -2 8023.52  576.06   1 0.23964 0.00218-0.48348-0.16424 0.84191-0.98641
   3  -9  -169145.91 5964.01   1 0.55417-0.33137-0.09987-0.56707-0.82638 0.75406
  -3   9   167649.12 4497.38   1 0.02082-0.24441 0.47705 0.19012-0.87862 0.95085
  -3   9   170213.50 1272.50   1 0.48325-0.70538 0.45441 0.21303 0.74831-0.67605
   3  -9  -170752.21 4872.39   1 0.29115-0.06955-0.37328-0.29448 0.88084-0.95312
   3  -9   093415.52 2791.83   1 0.61197-0.40954-0.19296-0.49398-0.76697 0.76697
  -3   9   087693.23 6874.45   1 0.10713-0.31056 0.40536 0.28169-0.90785 0.90785
  -3   9   091905.46 2607.53   1 0.48322-0.68495 0.51513 0.17235 0.70790-0.70790
   3  -9   092842.44 2702.50   1 0.33064-0.12955-0.27656-0.41113 0.90232-0.90232
   3  -9   1  265.80   78.69   1 0.65973-0.47766-0.28197-0.42497-0.69659 0.76891
  -3   9  -1  211.05   52.34   1 0.18527-0.36834 0.33438 0.37252-0.92404 0.85179
  -3   9  -1  248.01   50.65   1 0.48094-0.66262 0.57211 0.13509 0.66436-0.73667
   3  -9   1  200.36   52.07   1 0.35970-0.17877-0.19553-0.51210 0.91234-0.84010
   3  -9   252088.44 1927.75   1 0.69654-0.53511-0.36406-0.36274-0.61828 0.76293
  -3   9  -249141.72 3664.37   1 0.25321-0.41594 0.26794 0.45903-0.92956 0.78503
  -3   9  -247144.29 4683.98   1 0.47611-0.63742 0.62459 0.10265 0.61903-0.76364
   3  -9   249464.44 3847.27   1 0.38111-0.22061-0.13003-0.59757 0.91533-0.77086
   3  -9   338307.39 3368.65   1 0.72232-0.58126-0.43742-0.30937-0.53563 0.75260
  -3   9  -336847.21 3762.66   1 0.31018-0.45256 0.20834 0.53850-0.92756 0.71076
  -3   9  -335926.78 3042.85   1 0.46918-0.61011 0.67290 0.07438 0.57188-0.78881
   3  -9   336262.64 4028.96   1 0.39644-0.25636-0.07890-0.66868 0.91466-0.69795
   3  -9   4 7206.96  641.02   1 0.73831-0.61812-0.50176-0.26501-0.45069 0.74006
  -3   9  -4 7028.94  488.38   1 0.35650-0.47853 0.15708 0.60964-0.92099 0.63193
  -3   9  -4 7503.49  566.09   1 0.46046-0.58112 0.71726 0.05013 0.52297-0.81226
   3  -9   4 7712.44 1175.16   1 0.40716-0.28751-0.04052-0.72703 0.91245-0.62350
   3  -9   534417.19 3604.22   1 0.74538-0.64557-0.55681-0.22995-0.36654 0.72825
  -3   9  -531571.63 2879.76   1 0.39309-0.49477 0.11460 0.67201-0.91232 0.55099
  -3   9  -531469.55 3289.09   1 0.44978-0.55007 0.75762 0.02982 0.47296-0.83458
   3  -9   530998.47 4069.00   1 0.41437-0.31515-0.01327-0.77425 0.91001-0.54882
   3  -9   626939.31 2804.05   1 0.74517-0.66588-0.60349-0.20318-0.28373 0.71785
  -3   9  -627200.76 2776.56   1 0.42112-0.50208 0.08073 0.72620-0.90340 0.46961
  -3   9  -626185.95 2437.61   1 0.43739-0.51731 0.79423 0.01325 0.42174-0.85569
   3  -9   624548.41 3102.82   1 0.41885-0.34006 0.00435-0.81184 0.90804-0.47461
   3  -8  -9   20.63  118.07   1 0.59064-0.20033-0.75994 0.32940 0.27133-0.92269
   3  -8  -9   81.47   79.93   1 0.02887 0.36260 0.47063-0.90264-0.88185 0.23184
   3  -8  -819745.19 2047.82   1 0.54384-0.17395-0.75998 0.30943 0.35588-0.93487
   3  -8  -820992.96 1612.95   1 0.06057 0.31011 0.44497-0.89683-0.89349 0.31545
  -3   8   820979.15  693.52   1 0.30916-0.67847 0.95017-0.49949 0.03980 0.53868
  -3   8   821273.64  722.47   1 0.38798-0.75729-0.10760 0.55912 0.91536-0.33746
   3  -8  -735565.78 3302.61   1 0.48790-0.13870-0.75208 0.28141 0.44308-0.94950
   3  -8  -738509.39 2943.92   1 0.10161 0.24869 0.41015-0.88187-0.90633 0.40055
  -3   8   743829.57 1166.54   1 0.40686-0.75574-0.04163 0.51312 0.91254-0.40687
   3  -8  -6 6285.55  702.05   1 0.42210-0.09330-0.73460 0.24395 0.53120-0.96528
   3  -8  -6 6762.65  423.04   1 0.15258 0.17736 0.36477-0.85635-0.91850 0.48498
  -3   8   6 6056.44  809.84   1 0.42611-0.75457 0.03412 0.45733 0.90402-0.47060
   3  -8  -524651.76 1393.30   1 0.21350 0.09607 0.30730-0.81873-0.92735 0.56607
  -3   8   521511.05 1708.69   1-0.34612 0.03633 0.70441-0.19294-0.61967 0.98053
  -3   8   523784.50 1473.75   1 0.44401-0.75226 0.11592 0.39510 0.88848-0.52725
   3  -8  -4 9972.75  706.66   1 0.28338 0.00578 0.23682-0.76815-0.92930 0.64023
  -3   8   4 9355.55  759.98   1-0.26005-0.02908 0.66276-0.13132-0.70222 0.99091
  -3   8   410762.82  854.76   1 0.45917-0.74699 0.20001 0.33103 0.86553-0.57655
   3  -8  -3   87.73   74.13   1 0.35958-0.09075 0.15357-0.70478-0.92038 0.70359
  -3   8   3   86.25   48.35   1-0.16424-0.10459 0.60874-0.05761-0.77617 0.99284
  -3   8   3   82.09   32.25   1 0.47075-0.73816 0.28278 0.26829 0.83571-0.61897
   3  -8  -3   91.97   25.79   1 0.17258 0.09437-0.60494 0.05361 0.77733-0.99409
   3  -8  -217434.82 1047.05   1 0.43798-0.18997 0.05978-0.63072-0.89699 0.75239
  -3   8   215532.11 1436.43   1-0.06462-0.18377 0.54169 0.02928-0.83808 0.98253
  -3   8   216559.65  778.37   1 0.47870-0.72574 0.36186 0.20913 0.79993-0.65540
   3  -8  -214550.11 1099.39   1 0.24907-0.00265-0.46458-0.10673 0.84977-0.99428
   3  -8  -178223.14 5578.05   1 0.51386-0.28619-0.04089-0.54999-0.85689 0.78459
  -3   8   173711.64 1863.78   1 0.03531-0.26343 0.46565 0.12520-0.88426 0.95651
  -3   8   171143.35 4424.72   1 0.48275-0.70939 0.43561 0.15543 0.75972-0.68746
   3  -8  -174469.50 5226.40   1 0.30756-0.08141-0.33458-0.25677 0.89076-0.96303
   3  -8   010494.13  570.06   1 0.58201-0.37515-0.14318-0.46744-0.80047 0.80047
  -3   8   010174.63  825.35   1 0.13021-0.33797 0.38499 0.22572-0.91368 0.91368
  -3   8   0 9126.30  596.16   1 0.48343-0.68966 0.50349 0.10760 0.71609-0.71609
   3  -8   0 9674.08 1025.70   1 0.35068-0.14504-0.22225-0.38902 0.90973-0.90973
   3  -8   1100766.3 2376.32   1 0.63911-0.45261-0.24176-0.38886-0.73012 0.80244
  -3   8  -195064.53 3076.39   1 0.21575-0.40315 0.30510 0.32546-0.92755 0.85530
  -3   8  -1102224.0 2220.42   1 0.48135-0.66749 0.56579 0.06505 0.66945-0.74176
   3  -8   198782.92 2308.88   1 0.38103-0.19556-0.13029-0.50094 0.91533-0.84309
   3  -8   226063.22 1841.96   1 0.68341-0.51752-0.33269-0.31780-0.64981 0.79445
  -3   8  -224691.89 1931.44   1 0.28922-0.45628 0.23069 0.41992-0.92904 0.78451
  -3   8  -223768.03 2007.32   1 0.47641-0.64218 0.62201 0.02888 0.62139-0.76600
   3  -8   224080.72 1855.60   1 0.40240-0.23736-0.05786-0.59334 0.91363-0.76915
   3  -8   3  482.74   90.31   1 0.71474-0.56922-0.41354-0.25695-0.56402 0.78099
  -3   8  -3  662.15   92.14   1 0.34978-0.49649 0.16468 0.50580-0.92224 0.70544
  -3   8  -3  549.26   69.16   1 0.46919-0.61458 0.67287-0.00193 0.57192-0.78884
   3  -8   3  539.55   92.87   1 0.41704-0.27243-0.00283-0.66834 0.90888-0.69216
   3  -8   4 3222.44  244.71   1 0.73463-0.60994-0.48381-0.20665-0.47565 0.76502
  -3   8  -4 3228.27  401.44   1 0.39804-0.52440 0.10872 0.58165-0.91090 0.62183
  -3   8  -4 3097.53  270.58   1 0.46009-0.58521 0.71885-0.02781 0.52110-0.81040
   3  -8   4 3637.41  498.07   1 0.42687-0.30268 0.03731-0.72846 0.90354-0.61459
   3  -8   5 2281.43  296.26   1 0.74430-0.64000-0.54336-0.16709-0.38827 0.74998
  -3   8  -5 2389.53  241.02   1 0.43539-0.54106 0.06303 0.64759-0.89802 0.53653
  -3   8  -5 2357.04  236.03   1 0.44901-0.55376 0.76016-0.04907 0.46960-0.83122
   3  -8   5 2398.76  300.91   1 0.43323-0.32917 0.06494-0.77622 0.89893-0.53770
   3  -8   6  195.56   81.45   1 0.74577-0.66184-0.59333-0.13712-0.30293 0.73699
  -3   8  -6   -3.49   97.54   1 0.46341-0.54874 0.02728 0.70330-0.88572 0.45193
  -3   8  -6  152.40   76.27   1 0.43624-0.52062 0.79722-0.06608 0.41728-0.85122
   3  -8   7 9196.47 1212.90   1 0.74057-0.67718-0.63485-0.11551-0.22022 0.72669
  -3   8  -7 9035.43  996.33   1 0.48373-0.54872 0.00044 0.75009-0.87521 0.36912
  -3   8  -7 8757.64  810.64   1 0.42189-0.48590 0.83029-0.07911 0.36415-0.87042
   3  -8   7 8351.15 1283.41   1 0.43872-0.37549 0.09021-0.84153 0.89407-0.38835
   3  -7 -10 5372.59  568.94   1 0.64346-0.22855-0.74919 0.41501 0.15703-0.88064
   3  -7  -919967.33 1848.14   1 0.60699-0.21222-0.75807 0.40385 0.23851-0.88986
   3  -7  -920550.12 2188.66   1-0.03812 0.43397 0.52234-0.87801-0.85188 0.20187
   3  -7  -842763.85 3886.70   1 0.56236-0.18802-0.76080 0.38658 0.32390-0.90288
   3  -7  -844971.10 3207.56   1-0.01014 0.38555 0.50123-0.87675-0.86525 0.28746
  -3   7   838678.16  750.99   1 0.35921-0.73308 0.91769-0.54342 0.16970 0.40897
   3  -7  -7 2629.53  580.76   1 0.50821-0.15428-0.75581 0.36158 0.41287-0.91948
   3  -7  -7 3120.21  300.74   1 0.02767 0.32729 0.47158-0.86696-0.88138 0.37582
  -3   7   7 2292.37  555.39   1 0.28538-0.63880 0.95825-0.56391-0.01720 0.52337
  -3   7   7 2650.08  467.37   1 0.37205-0.72547-0.15852 0.55359 0.91457-0.40891
   3  -7  -657679.39 6358.00   1 0.44300-0.10973-0.74098 0.32665 0.50467-0.93875
   3  -7  -666241.35 5389.08   1 0.07658 0.25770 0.43157-0.84681-0.89881 0.46529
  -3   7   666828.28 2000.61   1 0.40007-0.73307-0.06616 0.48121 0.91409-0.48066
   3  -7  -5 1286.01  117.35   1 0.13749 0.17642 0.37846-0.81355-0.91534 0.55407
  -3   7   5 1101.57  121.20   1-0.36592 0.05165 0.71273-0.27767-0.59842 0.95928
  -3   7   5 1156.91  141.97   1 0.42651-0.73909 0.03582 0.39918 0.90376-0.54258
   3  -7  -4 7595.36  538.82   1 0.21016 0.08338 0.31054-0.76549-0.92703 0.63801
  -3   7   4 8406.45  802.66   1-0.27666-0.01696 0.67145-0.21643-0.68746 0.97615
  -3   7   4 8474.08  627.54   1 0.44886-0.74119 0.14088 0.31378 0.88242-0.59344
   3  -7  -3 1519.83  130.77   1 0.29273-0.01957 0.22699-0.70184-0.92886 0.71206
  -3   7   3 1395.85  124.77   1-0.17625-0.09672 0.61450-0.13952-0.76896 0.98548
  -3   7   3 1502.27  102.36   1 0.46559-0.73750 0.24283 0.23185 0.85103-0.63429
   3  -7  -3 1250.21  139.94   1 0.16248 0.10905-0.62144 0.14652 0.76641-0.98317
   3  -7  -250211.48 3896.92   1 0.38085-0.12805 0.12902-0.62375-0.91558 0.77105
  -3   7   244896.94 1373.54   1-0.06679-0.18597 0.54325-0.04860-0.83690 0.98135
  -3   7   245476.13 1188.19   1 0.47668-0.72823 0.33764 0.15697 0.81164-0.66711
   3  -7  -244412.62 2673.28   1 0.25503-0.00403-0.45237-0.04252 0.85458-0.99908
   3  -7  -1   82.43   64.97   1 0.46845-0.23640 0.02069-0.53523-0.88324 0.81094
  -3   7   1  202.49   49.61   1 0.04342-0.27588 0.45907 0.05544-0.88733 0.95958
  -3   7   1   83.22   21.65   1 0.48230-0.71344 0.42321 0.09144 0.76698-0.69472
   3  -7  -1   95.38   51.25   1 0.32328-0.09258-0.29555-0.21938 0.89896-0.97123
   3  -7   023718.10 1793.04   1 0.54885-0.33756-0.09187-0.44241-0.83085 0.83085
  -3   7   023364.49 2039.95   1 0.14871-0.36081 0.36830 0.16607-0.91773 0.91773
  -3   7   018855.22 1965.36   1 0.48348-0.69421 0.49942 0.03529 0.71890-0.71890
   3  -7   021080.42 1663.95   1 0.37058-0.16015-0.16302-0.37183 0.91437-0.91437
   3  -7   1 2336.84  159.33   1 0.61689-0.42597-0.20152-0.35277-0.76080 0.83312
  -3   7  -1 2132.01  208.74   1 0.24320-0.43495 0.27804 0.27633-0.92926 0.85700
  -3   7  -1 1991.15  161.58   1 0.48126-0.67186 0.56729-0.01279 0.66825-0.74056
   3  -7   1 2100.97  248.42   1 0.40239-0.21238-0.05789-0.49693 0.91363-0.84139
   3  -7   264768.17 4837.31   1 0.66979-0.49945-0.30268-0.27149-0.67805 0.82269
  -3   7  -261715.39 1824.58   1 0.32317-0.49456 0.19423 0.38001-0.92619 0.78166
  -3   7  -260815.67 4699.14   1 0.47583-0.64606 0.62694-0.05239 0.61686-0.76147
   3  -7   260876.28 1725.45   1 0.42319-0.25361 0.02194-0.59674 0.90577-0.76129
   3  -7   3 9241.63  672.84   1 0.70721-0.55724-0.39198-0.20219-0.58838 0.80535
  -3   7  -3 9226.87  946.86   1 0.38773-0.53877 0.12094 0.47318-0.91380 0.69700
  -3   7  -3 8539.85  686.16   1 0.46798-0.61784 0.67973-0.08514 0.56475-0.78167
   3  -7   3 8622.35 1044.77   1 0.43665-0.28724 0.08049-0.67532 0.89602-0.67928
   3  -7   4 7391.64  409.30   1 0.73107-0.60189-0.46869-0.14546-0.49584 0.78521
  -3   7  -4 7013.84  643.19   1 0.43800-0.56837 0.05975 0.55455-0.89698 0.60779
  -3   7  -4 7086.36  534.50   1 0.45823-0.58780 0.72659-0.11191 0.51192-0.80122
   3  -7   4 7435.57 1224.56   1 0.44512-0.31612 0.12149-0.73635 0.88718-0.59820
   3  -7   510281.11  934.81   1 0.74316-0.63436-0.53288-0.10127-0.40465 0.76637
  -3   7  -511047.52 1124.73   1 0.47581-0.58585 0.01100 0.62327-0.87947 0.51798
  -3   7  -511274.71  850.07   1 0.44653-0.55573 0.76807-0.13334 0.45897-0.82059
   3  -7   510570.33 1135.00   1 0.45027-0.34169 0.14847-0.78335 0.88045-0.51922
   3  -7   6  282.83  136.59   1 0.74602-0.65760-0.58604-0.06810-0.31622 0.75028
  -3   7  -6  146.62   48.74   1 0.50352-0.59322-0.02647 0.68070-0.86357 0.42978
  -3   7  -6  178.84   67.34   1 0.43322-0.52205 0.80483-0.15005 0.40566-0.83960
   3  -7   6  257.23   76.18   1 0.45310-0.36494 0.16411-0.81902 0.87621-0.44273
   3  -7   710581.00  955.37   1 0.74162-0.67373-0.62971-0.04435-0.23116 0.73763
  -3   7  -710280.79 1000.29   1 0.52313-0.59250-0.05402 0.72821-0.85053 0.34444
  -3   7  -710257.82  942.57   1 0.41841-0.48688 0.83728-0.16246 0.35195-0.85822
   3  -7   7 9632.34 1487.98   1 0.45422-0.38648 0.17046-0.84539 0.87442-0.36870
   3  -7   845609.77 5531.98   1 0.73139-0.68389-0.66521-0.02885-0.15018 0.72901
  -3   7  -845582.86 5175.53   1 0.53627-0.58531-0.07299 0.76714-0.84087 0.26249
  -3   7  -846763.18 4542.80   1 0.40229-0.45027 0.86576-0.17093 0.29768-0.87637
   3  -7   849769.98 1786.73   1 0.45397-0.40665 0.16905-0.86400 0.87482-0.29685
   3  -6 -10  503.57   96.55   1 0.65913-0.23975-0.74279 0.48491 0.11744-0.84105
   3  -6 -10  288.37   75.68   1-0.11800 0.53867 0.57876-0.83824-0.80691 0.08467
   3  -6  -9 1181.40  178.20   1 0.62579-0.22657-0.75440 0.47650 0.19811-0.84947
  -3   6   9  485.56  279.34   1 0.44380-0.84260 0.77638-0.49865 0.44751 0.20339
  -3   6   9  402.86  260.99   1 0.25819-0.65762-0.44581 0.72440 0.85707-0.20680
   3  -6  -8 2209.54  222.87   1 0.58433-0.20553-0.76038 0.46248 0.28349-0.86247
   3  -6  -8 2101.69  206.03   1-0.07977 0.45956 0.55247-0.85167-0.82970 0.25191
  -3   6   8 2274.69  237.65   1 0.40760-0.78594 0.85712-0.55922 0.31494 0.26373
  -3   6   8 1121.46  588.70   1 0.28558-0.66436-0.38596 0.68499 0.87719-0.29900
   3  -6  -7125982.1 2206.36   1 0.53311-0.17472-0.75906 0.44115 0.37364-0.88025
   3  -6  -7130033.7 8457.63   1-0.04643 0.40578 0.52848-0.84752-0.84767 0.34211
  -3   6   7131952.5 1248.40   1 0.35089-0.70886 0.92482-0.60688 0.14690 0.35944
  -3   6   7135865.8 1384.87   1 0.32087-0.67914-0.30168 0.62064 0.89779-0.39187
   3  -6  -634145.59 3331.44   1 0.47010-0.13237-0.74813 0.41012 0.46829-0.90237
   3  -6  -639184.47 3910.51   1-0.00121 0.34011 0.49434-0.83324-0.86926 0.43592
  -3   6   638931.53  891.27   1 0.26539-0.60293 0.96207-0.62406-0.06314 0.49700
   3  -6  -5  257.41   51.26   1 0.05763 0.26062 0.44741-0.80616-0.89246 0.53119
  -3   6   5  147.47   37.69   1-0.39355 0.07479 0.72344-0.36480-0.56721 0.92807
  -3   6   5  199.49   36.48   1 0.40034-0.71746-0.06518 0.42379 0.91404-0.55285
   3  -6  -4  752.03   73.79   1 0.13122 0.16666 0.38409-0.76270-0.91392 0.62490
  -3   6   4  589.71   97.40   1-0.30251 0.00439 0.68438-0.30577-0.66340 0.95209
  -3   6   4  549.12   86.08   1 0.43461-0.73146 0.07116 0.30710 0.89779-0.60881
   3  -6  -3 7834.77 1152.70   1 0.21871 0.05880 0.30221-0.70068-0.92780 0.71104
  -3   6   3 7363.52  615.84   1-0.19688-0.08058 0.62704-0.22846-0.75369 0.97021
  -3   6   3 8076.10  838.87   1 0.45955-0.73597 0.20239 0.19589 0.86478-0.64804
   3  -6  -3 7591.30 1045.82   1 0.13773 0.13840-0.66009 0.26158 0.73844-0.95520
   3  -6  -2  505.43   67.64   1 0.31646-0.05933 0.20154-0.61992-0.92694 0.78241
  -3   6   2  732.45   84.94   1-0.07853-0.17861 0.55160-0.13328-0.83040 0.97484
  -3   6   2  507.64   51.57   1 0.47500-0.73105 0.31998 0.09824 0.81974-0.67520
   3  -6  -2  475.95   65.39   1 0.25549 0.00008-0.45141 0.03291 0.85495-0.99945
   3  -6  -188384.25 1957.97   1 0.41719-0.18078 0.08555-0.52372-0.90477 0.83248
  -3   6   187500.12 1934.69   1 0.04360-0.28040 0.45892-0.02074-0.88740 0.95965
  -3   6   189090.58 1730.54   1 0.48221-0.71785 0.42102 0.01724 0.76824-0.69598
   3  -6  -189710.22 1785.32   1 0.33840-0.10315-0.25602-0.18251 0.90550-0.97777
   3  -6   025131.97 1999.51   1 0.51214-0.29605-0.03847-0.41966-0.85803 0.85803
  -3   6   024924.20 2175.95   1 0.16159-0.37802 0.35650 0.10153-0.92021 0.92021
  -3   6   021929.64 1448.97   1 0.48338-0.69861 0.50669-0.04837 0.71385-0.71385
   3  -6   022347.16  684.69   1 0.39142-0.17645-0.09608-0.36236 0.91518-0.91518
   3  -6   114983.67 1185.48   1 0.59316-0.39781-0.16128-0.31668-0.78875 0.86108
  -3   6  -115391.68 1465.29   1 0.26713-0.46320 0.25371 0.22430-0.92966 0.85739
  -3   6  -112103.43 1110.29   1 0.48039-0.67546 0.57982-0.10167 0.65804-0.73035
   3  -6   111871.83 1128.66   1 0.42389-0.22935 0.02485-0.50328 0.90536-0.83313
   3  -6   231076.94 1635.70   1 0.65599-0.48100-0.27444-0.22352-0.70309 0.84774
  -3   6  -229511.49 3193.83   1 0.35499-0.53071 0.15879 0.33911-0.92128 0.77675
  -3   6  -234117.83 2363.59   1 0.47393-0.64862 0.64188-0.14368 0.60280-0.74742
   3  -6   231950.64  819.07   1 0.44327-0.26893 0.11223-0.61064 0.88933-0.74483
   3  -6   334560.69 3037.44   1 0.70026-0.54583-0.37349-0.14437-0.60838 0.82536
  -3   6  -329715.89 3032.06   1 0.42427-0.57935 0.07685 0.44114-0.90226 0.68537
  -3   6  -333017.17 2924.49   1 0.46502-0.61934 0.69533-0.17709 0.54796-0.76488
   3  -6   333488.98  903.86   1 0.45464-0.30072 0.17288-0.69132 0.87373-0.65699
   3  -6   443045.18 3150.38   1 0.72810-0.59443-0.45720-0.08064-0.51071 0.80008
  -3   6  -440242.21 3972.91   1 0.47636-0.61110 0.01027 0.52768-0.87918 0.58999
  -3   6  -439495.51 3485.20   1 0.45430-0.58833 0.74178-0.20345 0.49330-0.78260
   3  -6   440915.84 1341.09   1 0.46125-0.32774 0.21326-0.75172 0.86125-0.57227
   3  -6   5 8741.66  694.78   1 0.74227-0.62898-0.52607-0.03176-0.41505 0.77676
  -3   6  -5 7915.64 1182.80   1 0.51442-0.62883-0.04167 0.59959-0.85652 0.49503
  -3   6  -5 8642.52  775.99   1 0.44177-0.55543 0.78223-0.22386 0.43924-0.80086
   3  -6   5 8214.06 1467.90   1 0.46493-0.35184 0.23816-0.79665 0.85270-0.49147
   3  -6   6 1122.71  154.75   1 0.74608-0.65317-0.58218 0.00434-0.32313 0.75719
  -3   6  -6 1083.35  142.56   1 0.54147-0.63554-0.08062 0.65850-0.83684 0.40305
  -3   6  -6 1131.23  145.27   1 0.42778-0.52107 0.81761-0.23918 0.38536-0.81931
   3  -6   6 1191.93  162.89   1 0.46672-0.37405 0.25109-0.82960 0.84800-0.41452
   3  -6   7 1115.84  278.74   1 0.74202-0.66963-0.62759 0.02983-0.23562 0.74209
  -3   6  -7 1108.01  288.28   1 0.56013-0.63331-0.10893 0.70690-0.82120 0.31494
  -3   6  -7  836.90  237.90   1 0.41243-0.48535 0.84851-0.25004 0.33152-0.83779
   3  -6   7  901.95  241.79   1 0.46718-0.39493 0.25454-0.85307 0.84672-0.34099
   3  -6   8 1097.94  151.27   1 0.73185-0.67985-0.66404 0.04628-0.15306 0.73188
  -3   6  -8 1501.06  236.07   1 0.57214-0.62496-0.12753 0.74551-0.81017 0.23159
  -3   6  -8 1074.06  109.06   1 0.39590-0.44836 0.87537-0.25691 0.27744-0.85613
   3  -6   8 1194.53  179.20   1 0.46661-0.41477 0.25027-0.86883 0.84831-0.27034
   3  -6   911657.64 1309.97   1 0.71693-0.68532-0.69310 0.05534-0.07495 0.72613
  -3   6  -910890.32 1487.57   1 0.57904-0.61149-0.13843 0.77640-0.80346 0.15255
  -3   6  -911775.58  870.18   1 0.37798-0.41007 0.89850-0.26001 0.22318-0.87420
   3  -6   910812.51 1696.63   1 0.46512-0.43370 0.23953-0.87811 0.85221-0.20200
   3  -5 -10 2095.66  244.01   1 0.67579-0.25194-0.73363 0.55207 0.07121-0.79482
   3  -5 -10 1895.31  226.49   1-0.17598 0.60244 0.61433-0.79674-0.76916 0.04744
   3  -5  -9 1584.57  404.32   1 0.64627-0.24283-0.74818 0.54661 0.15015-0.80140
   3  -5  -9 1682.47  439.36   1-0.16602 0.57184 0.60813-0.81051-0.77627 0.12672
  -3   5   9 1560.44  442.18   1 0.46695-0.87022 0.68535-0.48399 0.55878 0.09198
  -3   5   9  751.70  499.06   1 0.17263-0.57665-0.60486 0.80704 0.77738-0.12711
   3  -5  -826456.15 2572.56   1 0.60898-0.22572-0.75776 0.53618 0.23437-0.81336
   3  -5  -827626.63 2455.43   1-0.14710 0.53125 0.59786-0.82072-0.78798 0.21019
  -3   5   828957.18  658.87   1 0.20054-0.58400-0.55691 0.77907 0.80599-0.22797
   3  -5  -713514.05 1427.70   1 0.56203-0.19919-0.76080 0.51921 0.32449-0.83110
   3  -5  -714750.74 1162.06   1-0.11938 0.48309 0.57968-0.82239-0.80605 0.30048
  -3   5   714856.29  434.57   1 0.24203-0.60494-0.47873 0.72088 0.84393-0.33817
   3  -5  -6 3089.82  348.07   1 0.50298-0.16079-0.75492 0.49323 0.42082-0.85490
   3  -5  -6 3509.01  332.26   1-0.07953 0.42281 0.55231-0.81487-0.82983 0.39649
  -3   5   6 2978.79  367.92   1 0.35289-0.69497 0.92317-0.66156 0.15234 0.28167
  -3   5   6 2449.52  682.78   1 0.29621-0.63853-0.36154 0.62402 0.88404-0.45040
   3  -5  -5189216.9 4461.81   1 0.42937-0.10757-0.73690 0.45522 0.52211-0.88385
   3  -5  -5187360.2 4391.50   1-0.02491 0.34775 0.51246-0.79487-0.85834 0.49723
   3  -5  -4  910.55  100.37   1 0.04693 0.25528 0.45620-0.75847-0.88863 0.59961
  -3   5   4  702.97  110.32   1-0.33850 0.03589 0.70108-0.39888-0.62760 0.91629
  -3   5   4  904.79   80.03   1 0.41257-0.71379-0.02019 0.32236 0.91070-0.62175
   3  -5  -327226.38 2336.06   1 0.13724 0.14461 0.37869-0.70081-0.91529 0.69852
  -3   5   322974.18 2339.16   1-0.22932-0.05263 0.64589-0.32373-0.72816 0.94468
  -3   5   323285.28  550.53   1 0.45253-0.73346 0.16088 0.16101 0.87711-0.66037
   3  -5  -2 8946.49  927.04   1 0.24371 0.01773 0.27752-0.61954-0.92928 0.78475
  -3   5   2 7520.37  875.57   1-0.10232-0.15919 0.56813-0.22616-0.81654 0.96099
  -3   5   2 7840.37  654.80   1 0.47449-0.73503 0.31486 0.02697 0.82202-0.67748
   3  -5  -2 7116.28  918.93   1 0.24568 0.01448-0.47143 0.12935 0.84698-0.99149
   3  -5  -142472.44 3384.21   1 0.35885-0.11774 0.15440-0.51631-0.92053 0.84826
  -3   5   139613.81 1002.42   1 0.03342-0.27455 0.46717-0.10533-0.88353 0.95578
  -3   5   138639.59  772.65   1 0.48278-0.72292 0.43660-0.07471 0.75914-0.68687
   3  -5  -139723.22  829.19   1 0.35304-0.11324-0.21558-0.14653 0.91042-0.98270
   3  -5   0 7049.94  776.80   1 0.47095-0.25050 0.01741-0.39918-0.88198 0.88198
  -3   5   0 7206.96  811.68   1 0.16714-0.38791 0.35136 0.03033-0.92119 0.92119
  -3   5   0 6815.16  495.14   1 0.48298-0.70289 0.53243-0.15067 0.69515-0.69515
   3  -5   0 5756.81  520.13   1 0.41354-0.19402-0.01647-0.36557 0.91033-0.91033
   3  -5   174305.69 1585.57   1 0.56800-0.36821-0.12107-0.28056-0.81407 0.88639
  -3   5  -173031.86 1562.76   1 0.28680-0.48720 0.23324 0.16841-0.92916 0.85689
  -3   5  -174602.61 1431.58   1 0.47789-0.67742 0.60830-0.20650 0.63370-0.70601
   3  -5   177304.78 1478.64   1 0.44548-0.24621 0.12331-0.52530 0.88675-0.81451
   3  -5   2   76.67   59.83   1 0.64283-0.46341-0.24879-0.17285-0.72447 0.86912
  -3   5  -2   38.35   46.82   1 0.38457-0.56462 0.12466 0.29688-0.91463 0.77010
  -3   5  -2   64.09   15.70   1 0.46964-0.64879 0.67021-0.24837 0.57466-0.71928
   3  -5   2  141.72   25.87   1 0.46175-0.28290 0.21655-0.63857 0.86016-0.71567
   3  -5   363449.52 1578.98   1 0.69454-0.53566-0.35909-0.08246-0.62342 0.84039
  -3   5  -362745.58 1568.28   1 0.45922-0.61868 0.03270 0.40894-0.88771 0.67082
  -3   5  -364862.26 1507.93   1 0.45936-0.61821 0.72194-0.28002 0.51746-0.73443
   3  -5   364258.59 1505.94   1 0.47004-0.31161 0.27685-0.71889 0.83810-0.62136
   3  -5   418766.79  950.57   1 0.72601-0.58750-0.45018-0.01137-0.51984 0.80914
  -3   5  -416749.69 1781.86   1 0.51326-0.65238-0.04004 0.50165-0.85729 0.56810
  -3   5  -417306.49 1357.58   1 0.44727-0.58575 0.76577-0.30379 0.46210-0.75140
   3  -5   417861.86  658.30   1 0.47441-0.33630 0.31405-0.77619 0.82237-0.53331
   3  -5   516521.94  925.41   1 0.74196-0.62418-0.52384 0.04231-0.41841 0.78013
  -3   5  -514243.17 1788.94   1 0.55137-0.66970-0.09565 0.57729-0.82875 0.46714
  -3   5  -516227.78 1201.24   1 0.43380-0.55191 0.80340-0.32138 0.40786-0.76948
   3  -5   516135.10 2132.54   1 0.47641-0.35872 0.33469-0.81688 0.81302-0.45169
   3  -5   615283.76  996.65   1 0.74608-0.64867-0.58243 0.08090-0.32269 0.75675
  -3   5  -613858.39 1611.90   1 0.57730-0.67528-0.13567 0.63732-0.80517 0.37123
  -3   5  -613832.93 1265.50   1 0.41910-0.51684 0.83593-0.33387 0.35434-0.78829
   3  -5   613535.53 2118.98   1 0.47717-0.37988 0.34318-0.84542 0.80902-0.37542
   3  -5   7 6344.07  520.26   1 0.74176-0.66488-0.62899 0.10752-0.23270 0.73917
  -3   5  -7 6632.23  723.14   1 0.59446-0.67207-0.16341 0.68506-0.78734 0.28108
  -3   5  -7 6080.07  637.02   1 0.40335-0.48065 0.86407-0.34201 0.30111-0.80746
   3  -5   7 6011.06  917.98   1 0.47710-0.40022 0.34240-0.86468 0.80939-0.30353
   3  -5   810788.60  976.50   1 0.73116-0.67466-0.66578 0.12433-0.14875 0.72757
  -3   5  -810376.99  958.04   1 0.60513-0.66237-0.18126 0.72290-0.77521 0.19663
  -3   5  -812112.43  859.28   1 0.38636-0.44329 0.88834-0.34625 0.24811-0.82680
   3  -5   810441.11 1525.09   1 0.47637-0.41990 0.33426-0.87659 0.81322-0.23509
   3  -5   960510.49 4364.36   1 0.71583-0.67972-0.69474 0.13329-0.07007 0.72124
  -3   5  -957458.72 6685.62   1 0.61088-0.64776-0.19109 0.75273-0.76831 0.11740
  -3   5  -959891.98 4811.60   1 0.36823-0.40479 0.90904-0.34691 0.19502-0.84604
   3  -5   962135.94 2100.65   1 0.47501-0.43894 0.32003-0.88241 0.81971-0.16932
   3  -4 -11 1410.20  177.33   1 0.71189-0.26314-0.70030 0.61504-0.05268-0.74328
   3  -4 -11 1364.99  194.21   1-0.22771 0.67931 0.64498-0.73101-0.72948-0.06441
   3  -4 -1063257.09 2240.91   1-0.22870 0.65965 0.64553-0.75153-0.72868 0.00695
   3  -4  -926115.68 2923.75   1 0.66753-0.25961-0.73852 0.61326 0.09474-0.74599
   3  -4  -926580.05 1915.43   1-0.22383 0.63414 0.64277-0.76873-0.73262 0.08307
   3  -4  -8   29.74   51.16   1 0.63525-0.24774-0.75185 0.60660 0.17653-0.75541
   3  -4  -8   -0.30   90.74   1-0.21175 0.60142 0.63581-0.78173-0.74222 0.16485
  -3   4   8   13.86   24.86   1 0.47181-0.85916 0.65665-0.51160 0.58838-0.00992
   3  -4  -714952.60 1614.55   1 0.59388-0.22658-0.75966 0.59439 0.26497-0.77158
   3  -4  -715182.75 1104.51   1-0.19055 0.55958 0.62323-0.78913-0.75845 0.25325
  -3   4   714986.47  402.44   1 0.45692-0.82390 0.73184-0.56673 0.50559 0.00067
  -3   4   715690.70  441.65   1 0.12866-0.49616-0.67362 0.83935 0.72779-0.22202
   3  -4  -6 7806.55  799.51   1 0.54080-0.19392-0.75975 0.57448 0.36097-0.79520
   3  -4  -6 8783.66  774.06   1-0.15671 0.50435 0.60400-0.79022-0.78142 0.34808
  -3   4   6 8180.21  282.52   1 0.18844-0.53539-0.57814 0.76386 0.79387-0.36036
   3  -4  -5  251.32   46.84   1 0.47251-0.14626-0.74870 0.54334 0.46493-0.82666
   3  -4  -5  224.32   40.43   1-0.10863 0.43584 0.57244-0.77852-0.81271 0.45159
  -3   4   5  641.69   92.26   1 0.37356-0.69974 0.90345-0.69817 0.21030 0.15137
  -3   4   5  218.59   54.11   1 0.27379-0.60015-0.41216 0.61816 0.86899-0.50762
   3  -4  -4383579.3 3045.15   1-0.04149 0.34826 0.52483-0.75077-0.85018 0.56129
   3  -4  -3153607.8 2709.65   1 0.04821 0.23797 0.45516-0.70094-0.88910 0.67234
  -3   4   3155834.6 2717.41   1-0.27542-0.01102 0.67081-0.42506-0.68857 0.90509
  -3   4   3154334.3 2225.20   1 0.44412-0.72957 0.11648 0.12902 0.88835-0.67161
   3  -4  -243659.17  917.51   1 0.16127 0.10455 0.35680-0.62244-0.92015 0.77564
  -3   4   243654.34  906.32   1-0.14140-0.12448 0.59418-0.32854-0.79180 0.93624
  -3   4   244662.36  523.50   1 0.47679-0.74183 0.33884-0.07338 0.81108-0.66655
   3  -4  -245468.85  564.96   1 0.21125 0.05350-0.53755 0.27188 0.81633-0.96084
   3  -4  -117915.03  568.51   1 0.29152-0.04608 0.22826-0.51381-0.92892 0.85666
  -3   4   117592.27 1725.15   1 0.00913-0.25457 0.48628-0.20078-0.87375 0.94597
  -3   4   119747.43 1484.61   1 0.48355-0.72819 0.48694-0.20144 0.72736-0.65509
   3  -4  -118221.53  386.34   1 0.36715-0.12266-0.17345-0.11221 0.91384-0.98608
   3  -4   019600.32  588.03   1 0.42427-0.19944 0.07685-0.38227-0.90226 0.90226
  -3   4   016445.59 1457.51   1 0.16264-0.38774 0.35554-0.05018-0.92040 0.92040
  -3   4   018411.72  946.61   1 0.47978-0.70415 0.58759-0.28218 0.65156-0.65156
   3  -4   016907.12 1581.70   1 0.43788-0.21368 0.08623-0.39181 0.89488-0.89488
   3  -4   172131.10 1613.56   1 0.54147-0.33697-0.08062-0.24475-0.83684 0.90914
  -3   4  -172030.18 1612.41   1 0.30093-0.50566 0.21826 0.10703-0.92832 0.85606
  -3   4  -175346.46 1539.72   1 0.47128-0.67528 0.66006-0.33461 0.58498-0.65728
   3  -4   172537.32 1475.77   1 0.46598-0.26220 0.24565-0.57125 0.85000-0.77776
   3  -4   2416589.5 6182.48   1 0.63099-0.44713-0.22671-0.11859-0.74192 0.88656
  -3   4  -2410221.9 6089.65   1 0.41184-0.59600 0.09207 0.25326-0.90658 0.76199
  -3   4  -2409661.4 5957.70   1 0.46071-0.64438 0.71620-0.37068 0.52420-0.66885
   3  -4   2402965.7 5825.39   1 0.47691-0.29349 0.34024-0.68589 0.81042-0.66588
   3  -4   3217428.4 3585.83   1 0.69092-0.52758-0.35028-0.01496-0.63239 0.84936
  -3   4  -3220005.2 3623.64   1 0.49281-0.65664-0.01180 0.37710-0.87005 0.65315
  -3   4  -3214718.1 3717.04   1 0.44857-0.61187 0.76160-0.39603 0.46769-0.68466
   3  -4   3220861.5 3501.91   1 0.48092-0.31791 0.39497-0.76067 0.78275-0.56595
   3  -4   4 7387.85  488.83   1 0.72581-0.58285-0.44946 0.06422-0.52073 0.81003
  -3   4  -4 6651.74  689.12   1 0.54893-0.69206-0.09200 0.47731-0.83078 0.54149
  -3   4  -4 7315.21  599.50   1 0.43533-0.57826 0.79956-0.41395 0.41373-0.70303
   3  -4   4 8984.51 1251.95   1 0.48236-0.33976 0.42483-0.81058 0.76605-0.47698
   3  -4   5  210.70   49.27   1 0.74244-0.62017-0.52730 0.12207-0.41319 0.77490
  -3   4  -5  272.82   67.58   1 0.58630-0.70906-0.15008 0.55540-0.79606 0.43445
  -3   4  -5  282.35   48.19   1 0.42110-0.54367 0.83190-0.42624 0.36138-0.72300
   3  -4   5  301.98   62.52   1 0.48283-0.36064 0.43829-0.84408 0.75813-0.39680
   3  -4   6 4602.62  323.63   1 0.74598-0.64408-0.58757 0.16235-0.31346 0.74752
  -3   4  -6 4592.47  552.36   1 0.61068-0.71308-0.19074 0.61606-0.76855 0.33461
  -3   4  -6 4597.42  373.33   1 0.40605-0.50818 0.85971-0.43405 0.30986-0.74387
   3  -4   6 4685.09  655.78   1 0.48289-0.38110 0.44030-0.86614 0.75692-0.32333
   3  -4   720651.36 1554.53   1 0.74067-0.65929-0.63439 0.18923-0.22121 0.72768
  -3   4  -720004.19 2420.04   1 0.62609-0.70812-0.21783 0.66315-0.74870 0.24244
  -3   4  -719458.88 1672.62   1 0.38992-0.47169 0.88368-0.43799 0.25894-0.76529
   3  -4   718289.00 2286.30   1 0.48269-0.40131 0.43386-0.87975 0.76076-0.25490
   3  -4   855719.72 4369.44   1 0.72907-0.66808-0.67072 0.20556-0.13630 0.71512
  -3   4  -855514.21 5521.54   1 0.63517-0.69685-0.23442 0.69973-0.73593 0.15734
  -3   4  -854035.75 4964.70   1 0.37282-0.43422 0.90424-0.43851 0.20817-0.78686
   3  -4   856229.56 2010.59   1 0.48220-0.42122 0.42083-0.88678 0.76835-0.19022
   3  -4   938217.90 1538.80   1 0.71292-0.67232-0.69887 0.21372-0.05755 0.70873
  -3   4  -933736.67 4040.18   1 0.63965-0.68097-0.24278 0.72810-0.72930 0.07840
  -3   4  -935888.77 3017.26   1 0.35471-0.39574 0.92164-0.43587 0.15731-0.80832
   3  -4   935856.16 4710.15   1 0.48133-0.44076 0.40241-0.88840 0.77870-0.12830
   3  -4  10 4280.01  412.87   1 0.69335-0.67324-0.72040 0.21518 0.01619 0.70741
  -3   4 -10 3685.74  436.01   1 0.64060-0.66155-0.24456 0.74988-0.72788 0.00465
  -3   4 -10 3807.03  374.99   1 0.33553-0.35619 0.93603-0.43023 0.10612-0.82947
   3  -4  10 3793.27  478.17   1 0.47995-0.45979 0.37934-0.88539 0.79103-0.06837
   3  -3 -1130740.99 2747.25   1 0.72372-0.27079-0.68169 0.67270-0.10730-0.68857
   3  -3 -1130846.48 1301.70   1-0.27151 0.72759 0.66878-0.67840-0.69209-0.10179
   3  -3 -10  384.25   80.01   1 0.70870-0.27589-0.70438 0.67543-0.03974-0.68386
   3  -3 -10  441.62  121.04   1-0.27678 0.71223 0.67151-0.70110-0.68735-0.03436
  -3   3  10  114.13   87.71   1 0.48253-0.91533 0.42928-0.40061 0.76346-0.04079
   3  -3  -915808.75 1482.70   1 0.68844-0.27604-0.72456 0.67561 0.03237-0.68362
   3  -3  -914953.71 2026.32   1-0.27695 0.69175 0.67160-0.72115-0.68720 0.03765
  -3   3   915300.45  495.56   1 0.48355-0.89595 0.48604-0.43731 0.72796-0.07756
   3  -3  -8 1966.18  221.42   1 0.66185-0.26986-0.74148 0.67254 0.11021-0.68910
   3  -3  -8 2045.08  257.30   1-0.27078 0.66494 0.66841-0.73792-0.69274 0.11537
  -3   3   8 1676.66  337.77   1 0.48264-0.87446 0.54110-0.47240 0.68866-0.11020
   3  -3  -7  106.39   72.36   1 0.62714-0.25539-0.75407 0.66513 0.19508-0.70169
   3  -3  -7  136.43   59.72   1-0.25651 0.63003 0.66086-0.75034-0.70530 0.20010
  -3   3   7  218.98   69.94   1 0.47903-0.85047 0.59633-0.50758 0.64413-0.13798
   3  -3  -620781.83 2234.56   1 0.58168-0.23034-0.76052 0.65157 0.28852-0.72276
   3  -3  -620965.80 2528.93   1-0.23153 0.58441 0.64714-0.75658-0.72635 0.29332
  -3   3   620186.50  424.50   1 0.47214-0.82321 0.65446-0.54567 0.59055-0.15671
   3  -3  -5234880.2 4342.31   1 0.52172-0.19080-0.75776 0.62881 0.39191-0.75378
   3  -3  -5237245.0 4359.58   1-0.19212 0.52435 0.62418-0.75359-0.75728 0.39642
  -3   3   5232032.0 3722.07   1 0.45950-0.79020 0.72135-0.59251 0.51817-0.15655
  -3   3   5240006.2 3850.95   1 0.11208-0.44307-0.69752 0.82682 0.70774-0.34648
   3  -3  -359057.92 1429.50   1-0.04744 0.33814 0.52922-0.69867-0.84715 0.63048
  -3   3   361342.44 1456.56   1-0.33643 0.04549 0.70016-0.53082-0.62974 0.84625
  -3   3   360104.00 1032.51   1 0.31061-0.60052 0.94954-0.78054 0.04337 0.17356
   3  -3  -2123228.8 2439.40   1 0.06813 0.20202 0.43867-0.62797-0.89605 0.75155
  -3   3   2122622.0 2415.27   1-0.20041-0.06988 0.62913-0.43983-0.75101 0.89535
   3  -3  -112366.12 1035.20   1 0.21268 0.03711 0.30810-0.51726-0.92727 0.85502
  -3   3   111393.12 1146.02   1-0.03458-0.21523 0.51970-0.31055-0.85364 0.92586
  -3   3   111868.66  251.13   1 0.47687-0.72608 0.61789-0.40888 0.62513-0.55282
   3  -3  -112644.17  255.58   1 0.38225-0.13322-0.12637-0.08288 0.91537-0.98761
   3  -3   0230288.1 2876.46   1 0.37022-0.14081 0.14136-0.37043-0.91812 0.91812
  -3   3   0231833.0 2898.96   1 0.14342-0.37285 0.37311-0.14409-0.91663 0.91663
  -3   3   0221063.8 2489.44   1 0.46534-0.69417 0.69372-0.46466 0.54972-0.54972
   3  -3   0222262.3 2455.86   1 0.46445-0.23574 0.23477-0.46396 0.85391-0.85391
   3  -3   1166077.9 3075.39   1 0.51365-0.30478-0.04059-0.20842-0.85703 0.92933
  -3   3  -1165829.0 3071.43   1 0.30729-0.51634 0.21146 0.03749-0.92782 0.85555
  -3   3  -1165195.1 2934.80   1 0.45363-0.66212 0.74426-0.49514 0.49019-0.56251
   3  -3   1160663.7 2825.15   1 0.48150-0.27317 0.40563-0.65485 0.77692-0.70465
   3  -3   2105466.8 2123.25   1 0.62166-0.43338-0.20992-0.05905-0.75462 0.89927
  -3   3  -2105881.3 2136.35   1 0.43594-0.62447 0.06234 0.20663-0.89781 0.75321
  -3   3  -2106723.4 2076.84   1 0.44147-0.62959 0.78311-0.51394 0.43799-0.58264
   3  -3   2107765.9 2056.31   1 0.48355-0.29563 0.48838-0.75765 0.72639-0.58186
   3  -3   323811.08  669.23   1 0.69051-0.52272-0.34929 0.06036-0.63339 0.85036
  -3   3  -323751.60  665.95   1 0.52513-0.69332-0.05687 0.34581-0.84911 0.63222
  -3   3  -324051.16  636.28   1 0.42880-0.59656 0.81529-0.52608 0.38912-0.60609
   3  -3   324321.94  614.41   1 0.48310-0.31539 0.52895-0.81814 0.69772-0.48079
   3  -3   471321.46 1579.23   1 0.72803-0.58089-0.45695 0.14803-0.51102 0.80040
  -3   3  -470630.50 1535.48   1 0.58306-0.73061-0.14486 0.45384-0.79940 0.51011
  -3   3  -470407.14 1489.66   1 0.41549-0.56287 0.84289-0.53364 0.34188-0.63118
   3  -3   470863.50 1477.20   1 0.48244-0.33510 0.54572-0.85495 0.68515-0.39592
   3  -3   523496.24 1811.19   1 0.74373-0.61696-0.53778 0.20887-0.39705 0.75876
  -3   3  -523325.01 2748.66   1 0.61926-0.74645-0.20567 0.53466-0.75776 0.39615
  -3   3  -522745.28 1829.47   1 0.40153-0.52851 0.86693-0.53767 0.29527-0.65694
   3  -3   520174.45 2303.32   1 0.48231-0.35535 0.54840-0.87768 0.68309-0.32155
   3  -3   691704.28 2477.38   1 0.74549-0.63910-0.59842 0.24951-0.29346 0.72751
  -3   3  -691031.28 2337.72   1 0.64152-0.74835-0.24630 0.59529-0.72648 0.29254
  -3   3  -691973.75 2308.66   1 0.38666-0.49326 0.88796-0.53866 0.24901-0.68302
   3  -3   691114.98 2278.62   1 0.48262-0.37603 0.54168-0.89100 0.68822-0.25437
   3  -3   7136714.1 3459.97   1 0.73830-0.65242-0.64425 0.27540-0.19957 0.70604
  -3   3  -7132156.4 3359.52   1 0.65480-0.74127-0.27207 0.64106-0.70512 0.19886
  -3   3  -7137889.6 3380.99   1 0.37091-0.45714 0.90628-0.53695 0.20266-0.70901
   3  -3   7135787.7 3346.74   1 0.48313-0.39691 0.52815-0.89751 0.69831-0.19216
   3  -3   813663.53  987.86   1 0.72511-0.65962-0.67904 0.29019-0.11449 0.69331
  -3   3  -813446.54 1696.86   1 0.66227-0.72820-0.28696 0.67589-0.69213 0.11353
  -3   3  -813444.81 1110.49   1 0.35423-0.42010 0.92205-0.53268 0.15600-0.73468
   3  -3   812926.49 1658.52   1 0.48334-0.41786 0.50899-0.89855 0.71224-0.13411
   3  -3   912029.97  888.87   1 0.70783-0.66282-0.70544 0.29652-0.03630 0.68755
  -3   3  -911883.21 1408.85   1 0.66539-0.71095-0.29342 0.70234-0.68640 0.03548
  -3   3  -912227.87  953.28   1 0.33657-0.38207 0.93534-0.52593 0.10885-0.75987
   3  -3   911497.10 1455.43   1 0.48355-0.43848 0.48576-0.89536 0.72815-0.07775
   3  -3  1030647.18 2584.60   1 0.68732-0.66273-0.72545 0.29653 0.03597 0.68763
  -3   3 -1029641.53 3260.59   1 0.66538-0.69056-0.29340 0.72232-0.68642-0.03682
  -3   3 -1032269.09 2685.23   1 0.31784-0.34287 0.94616-0.51687 0.06129-0.78439
   3  -3  1030461.06 4007.06   1 0.48333-0.45866 0.45865-0.88830 0.74567-0.02300
   3  -3  11  181.21  114.91   1 0.66430-0.66012-0.74024 0.29133 0.10360 0.69236
  -3   3 -11  392.72   78.40   1 0.66285-0.66766-0.28816 0.73709-0.69107-0.10449
  -3   3 -11  527.53   79.38   1 0.29803-0.30269 0.95446-0.50516 0.01278-0.80819
   3  -3  11  239.81   58.78   1 0.48248-0.47823 0.42799-0.87769 0.76421 0.03071
   3  -2 -1113706.03 1600.46   1 0.73385-0.27643-0.65866 0.72598-0.16616-0.62971
   3  -2 -1112556.45 2444.11   1-0.31057 0.77114 0.68825-0.62146-0.65563-0.13826
   3  -2 -1027866.50 2870.35   1 0.72293-0.28589-0.68315 0.73047-0.10330-0.62021
   3  -2 -1026572.57 2846.01   1-0.31985 0.75979 0.69262-0.64579-0.64649-0.07522
  -3   2  1028995.81 1153.29   1 0.47752-0.91482 0.34721-0.39492 0.80710-0.08444
   3  -2  -918669.74 1836.99   1 0.70780-0.29092-0.70548 0.73284-0.03618-0.61505
   3  -2  -918175.60 2399.66   1-0.32479 0.74408 0.69490-0.66804-0.64157-0.00797
  -3   2   918734.24  670.36   1 0.48076-0.89765 0.39220-0.41987 0.78424-0.13384
   3  -2  -8  604.56  109.19   1 0.68725-0.29079-0.72551 0.73287 0.03619-0.61508
   3  -2  -8  103.48   41.20   1-0.32436 0.72300 0.69470-0.68780-0.64200 0.06463
  -3   2   8  336.85   79.05   1 0.48263-0.87912 0.43216-0.43978 0.76176-0.18363
   3  -2  -7 5237.52  566.36   1 0.65990-0.28384-0.74243 0.72980 0.11542-0.62194
   3  -2  -7 5246.95  425.24   1-0.31704 0.69504 0.69131-0.70437-0.64928 0.14408
  -3   2   7 5406.52  724.24   1 0.48344-0.85952 0.46630-0.45386 0.74083-0.23497
   3  -2  -697217.14 2577.38   1 0.62341-0.26761-0.75497 0.72234 0.20341-0.63764
   3  -2  -691982.91 2461.99   1-0.30048 0.65784 0.68339-0.71642-0.66534 0.23230
   3  -2  -5 2598.62  359.69   1 0.57414-0.23876-0.76078 0.70815 0.30259-0.66445
   3  -2  -5 1962.67  187.15   1-0.27104 0.60776 0.66854-0.72154-0.69251 0.33165
  -3   2   5 1942.44  198.17   1 0.48341-0.81868 0.50480-0.45227 0.71518-0.35385
   3  -2  -4131538.1 2406.52   1 0.50652-0.19156-0.75553 0.68290 0.41544-0.70494
   3  -2  -4133959.1 2439.20   1-0.22310 0.53917 0.64235-0.71532-0.73321 0.44452
  -3   2   4128213.3 1843.79   1 0.48355-0.79841 0.48160-0.40902 0.73090-0.44184
   3  -2  -3149634.7 2907.21   1 0.41216-0.11776-0.73132 0.63863 0.54340-0.76044
   3  -2  -3147835.2 2862.62   1-0.14773 0.44280 0.59827-0.69138-0.78755 0.57088
  -3   2   3158139.4 2536.69   1 0.45765-0.75212 0.19068-0.09796 0.86844-0.65170
   3  -2  -216467.20 1443.63   1-0.03591 0.31054 0.52070-0.63366-0.85298 0.70853
  -3   2   215885.13  495.87   1-0.28086 0.00607 0.67360-0.56071-0.68364 0.82798
   3  -2  -177939.36 1902.55   1 0.11930 0.13482 0.39468-0.52750-0.91103 0.83878
  -3   2   178232.71 1904.52   1-0.10551-0.14867 0.57031-0.43749-0.81461 0.88684
  -3   2   178838.67 1676.42   1 0.35537-0.60902 0.92108-0.78839 0.15911-0.08677
   3  -2  -175217.07 1595.78   1 0.40308-0.14952-0.05541-0.07743 0.91348-0.98572
   3  -2   0218899.1 2659.09   1 0.30589-0.07215 0.21296-0.36567-0.92794 0.92794
  -3   2   0218236.8 2658.13   1 0.10131-0.33508 0.41042-0.25774-0.90624 0.90624
  -3   2   0204712.9 2245.31   1 0.40123-0.63452 0.86740-0.71467 0.29431-0.29431
   3  -2   0209602.0 2232.57   1 0.48355-0.25032 0.48380-0.63657 0.72945-0.72945
   3  -2   120018.37  501.73   1 0.48468-0.27144-0.00082-0.17184-0.87469 0.94698
  -3   2  -120213.39  505.33   1 0.30160-0.51499 0.21755-0.04495-0.92828 0.85601
  -3   2  -119538.14  422.40   1 0.40530-0.61821 0.86094-0.68818 0.30742-0.37975
   3  -2   120657.61  397.97   1 0.47696-0.26404 0.61711-0.78986 0.62583-0.55352
   3  -2   2265019.9 3159.36   1 0.61679-0.42408-0.20134 0.00868-0.76093 0.90558
  -3   2  -2269163.6 3208.38   1 0.45620-0.64910 0.03661 0.15601-0.88912 0.74452
  -3   2  -2249271.0 2944.89   1 0.40103-0.59358 0.86771-0.67491 0.29367-0.43834
   3  -2   2263084.4 3023.80   1 0.47106-0.27852 0.66144-0.85423 0.58359-0.43897
   3  -2   3377668.8 6471.04   1 0.69475-0.52250-0.35960 0.14698-0.62289 0.83987
  -3   2  -3373909.1 6408.62   1 0.55644-0.72879-0.10331 0.31597-0.82443 0.60746
  -3   2  -3368354.3 6306.03   1 0.39322-0.56540 0.87918-0.66635 0.26909-0.48610
   3  -2   3368521.4 6263.67   1 0.46895-0.29678 0.67423-0.88706 0.57051-0.35359
   3  -2   4  633.92   73.88   1 0.73257-0.58094-0.47486 0.24226-0.48768 0.77705
  -3   2  -4  522.75  100.85   1 0.61580-0.76779-0.19961 0.43227-0.76219 0.47290
  -3   2  -4  394.34   47.37   1 0.38326-0.53507 0.89223-0.65937 0.23879-0.52813
   3  -2   4  271.36   56.63   1 0.46935-0.31755 0.67193-0.90481 0.57289-0.28366
   3  -2   5 2662.76  258.72   1 0.74539-0.61413-0.55685 0.30424-0.36648 0.72819
  -3   2  -5 2832.56  382.32   1 0.65000-0.78163-0.26260 0.51526-0.71310 0.35149
  -3   2  -5 2977.41  299.22   1 0.37169-0.50313 0.90545-0.65255 0.20491-0.56658
   3  -2   5 2782.91  402.94   1 0.47116-0.33973 0.66086-0.91379 0.58417-0.22264
   3  -2   6 1440.29  118.57   1 0.74386-0.63309-0.61581 0.34324-0.25969 0.69381
  -3   2  -6 1203.11  217.36   1 0.66966-0.78079-0.30240 0.57502-0.67830 0.24436
  -3   2  -6 1381.49  139.22   1 0.35877-0.46985 0.91808-0.64515 0.16849-0.60250
   3  -2   6 1166.41  181.55   1 0.47365-0.36260 0.64388-0.91685 0.60088-0.16703
   3  -2   7 1258.33  106.28   1 0.73379-0.64341-0.65884 0.36629-0.16572 0.67219
  -3   2  -7 1278.77  168.20   1 0.68047-0.77123-0.32601 0.61863-0.65625 0.14998
  -3   2  -7 1540.73  153.32   1 0.34463-0.43534 0.92967-0.63670 0.13011-0.63645
   3  -2   7 1172.91  160.00   1 0.47636-0.38568 0.62244-0.91545 0.62099-0.11484
   3  -2   840461.71 3302.48   1 0.71844-0.64845-0.69074 0.37820-0.08183 0.66065
  -3   2  -840165.97 1424.55   1 0.68587-0.75625-0.33835 0.65096-0.64427 0.06568
  -3   2  -841357.19 3839.64   1 0.32933-0.39966 0.93990-0.62690 0.09009-0.66877
   3  -2   841745.53 1288.17   1 0.47894-0.40863 0.59733-0.91039 0.64327-0.06481
   3  -2   923723.51 1726.02   1 0.69964-0.65016-0.71447 0.38186-0.00561 0.65686
  -3   2  -923186.98 2877.00   1 0.68764-0.73765-0.34248 0.67509-0.64019-0.01071
  -3   2  -923481.86 1897.28   1 0.31281-0.36271 0.94856-0.61565 0.04878-0.69957
   3  -2   924739.00 3071.41   1 0.48114-0.43121 0.56900-0.90210 0.66687-0.01611
   3  -2  10 7968.35  595.72   1 0.67813-0.64906-0.73211 0.37951 0.06430 0.65930
  -3   2 -10 8301.32 1772.62   1 0.68674-0.71638-0.34038 0.69299-0.64227-0.08096
  -3   2 -10 8192.89 1001.57   1 0.29519-0.32472 0.95541-0.60248 0.00597-0.72908
   3  -2  10 8275.52 1050.14   1 0.48278-0.45322 0.53768-0.89082 0.69123 0.03183
   3  -2  11 3397.97  240.59   1 0.65452-0.64586-0.74487 0.37227 0.12943 0.66653
  -3   2 -11 3247.20  463.48   1 0.68370-0.69296-0.33334 0.70595-0.64918-0.14638
  -3   2 -11 3231.67  284.96   1 0.27637-0.28553 0.96029-0.58734-0.03811-0.75729
   3  -2  11 3229.47  434.73   1 0.48343-0.47467 0.50331-0.87663 0.71621 0.07871
   3  -1 -1010456.32 1077.42   1 0.73455-0.29302-0.65664 0.78027-0.17098-0.55254
   3  -1 -1010715.46 1114.32   1-0.35770 0.80212 0.70933-0.58609-0.60735-0.11436
  -3   1  1011282.40  517.41   1 0.46930-0.91119 0.27085-0.39470 0.84047-0.11800
   3  -1  -9 8980.50  778.56   1 0.72424-0.30310-0.68072 0.78435-0.10995-0.54121
   3  -1  -9 8938.38  768.90   1-0.36698 0.79076 0.71315-0.60988-0.59726-0.05228
  -3   1   9 7352.95 1628.10   1 0.47357-0.89497 0.30611-0.41017 0.82584-0.17544
   3  -1  -8 6627.48  637.73   1 0.70984-0.30890-0.70296 0.78664-0.04430-0.53458
   3  -1  -8 6289.04  712.72   1-0.37185 0.77499 0.71511-0.63180-0.59189 0.01451
  -3   1   8 5704.98 1040.73   1 0.47637-0.87736 0.33427-0.41828 0.81321-0.23508
   3  -1  -740556.77 3957.34   1 0.69002-0.30949-0.72327 0.78694 0.02725-0.53378
   3  -1  -741993.46 3514.89   1-0.37111 0.75360 0.71482-0.65147-0.59271 0.08750
  -3   1   742400.27 1034.62   1 0.47799-0.85857 0.35287-0.41682 0.80436-0.29850
   3  -1  -621070.00 1875.88   1 0.66310-0.30298-0.74085 0.78453 0.10685-0.54101
   3  -1  -622306.80 2232.49   1-0.36283 0.72469 0.71146-0.66808-0.60180 0.16876
   3  -1  -622572.20  506.63   1 0.27356 0.08645 0.96082-0.91704-0.04456-0.38929
  -3   1   621031.73  503.51   1 0.47835-0.83853 0.35738-0.40128 0.80215-0.36855
   3  -1  -579619.07 1855.57   1 0.62613-0.28630-0.75432 0.77801 0.19734-0.55921
   3  -1  -578861.76 1837.48   1-0.34388 0.68509 0.70344-0.68003-0.62202 0.26115
   3  -1  -580939.92 1487.34   1 0.29039 0.04925 0.95689-0.93313-0.00542-0.35612
  -3   1   579497.75 1469.20   1 0.47667-0.81644 0.33750-0.36136 0.81171-0.45037
   3  -1  -4136177.0 2459.32   1 0.57407-0.25465-0.76078 0.76447 0.30272-0.59222
   3  -1  -4134961.8 2434.78   1-0.30895 0.62951 0.68748-0.68403-0.65720 0.36851
   3  -1  -4138278.8 2040.18   1 0.30385 0.01541 0.95233-0.94860 0.02683-0.31607
  -3   1   4138233.7 2042.82   1 0.46867-0.78806 0.26588-0.26958 0.84240-0.55342
   3  -1  -3 1875.93  265.01   1 0.49820-0.19934-0.75407 0.73770 0.42798-0.64502
   3  -1  -3 1898.08  234.80   1-0.24905 0.54897 0.65683-0.67335-0.71171 0.49520
   3  -1  -3 1706.75  180.48   1 0.30901-0.01011 0.95024-0.96653 0.03941-0.25634
  -3   1   3 2276.16  252.90   1 0.42822-0.72717 0.04307-0.02657 0.90264-0.68593
   3  -1  -2127794.2 1817.86   1-0.14923 0.42824 0.59923-0.63586-0.78653 0.64209
  -3   1   2124410.9 1780.39   1-0.38408 0.10480 0.71989-0.68341-0.57812 0.72246
   3  -1  -1 2547.87  229.80   1 0.00802 0.25053 0.48714-0.54363-0.87328 0.80105
  -3   1   1 2321.73  274.65   1-0.21334-0.04528 0.63673-0.58029-0.74097 0.81314
   3  -1  -1 2279.95   52.49   1 0.43607-0.17794 0.79766-0.85397 0.41662-0.48894
   3  -1  -1 2376.83   50.25   1 0.35337-0.09537-0.21464 0.15816 0.91052-0.98279
   3  -1   099209.22 2267.91   1 0.22596 0.01210 0.29520-0.37156-0.92832 0.92832
  -3   1   0101138.4 2344.58   1 0.02146-0.25959 0.47654-0.40020-0.87889 0.87889
   3  -1   096024.93 2068.96   1 0.40684-0.16909 0.85839-0.93475 0.31246-0.31246
   3  -1   110465.48  323.80   1 0.45476-0.23715 0.03845-0.13477-0.88977 0.96207
  -3   1  -110747.41 1238.68   1 0.27498-0.49270 0.24559-0.14935-0.92955 0.85728
  -3   1  -110645.52  266.19   1 0.28700-0.50440 0.95783-0.86145-0.01341-0.05889
   3  -1   110159.14  263.70   1 0.41093-0.19354 0.85119-0.94759 0.32649-0.25417
   3  -1   2144088.8 1858.75   1 0.61969-0.42255-0.20645 0.09012-0.75719 0.90184
  -3   1  -2144758.9 1874.30   1 0.47089-0.66817 0.01748 0.09877-0.88201 0.73741
  -3   1  -2139328.2 1766.12   1 0.32107-0.51810 0.94450-0.82810 0.06941-0.21403
   3  -1   2137236.1 1739.19   1 0.41927-0.22224 0.83558-0.95203 0.35496-0.21031
   3  -1   3  268.64   43.04   1 0.70529-0.52859-0.38676 0.25045-0.59411 0.81108
  -3   1  -3  319.29   48.95   1 0.58655-0.76333-0.15049 0.28682-0.79580 0.57883
  -3   1  -3  196.52   24.49   1 0.33187-0.50852 0.93836-0.80189 0.09663-0.31364
   3  -1   4190596.4 3501.35   1 0.73922-0.58310-0.50676 0.35047-0.44353 0.73291
  -3   1  -4187499.4 3441.06   1 0.64706-0.80348-0.25689 0.41322-0.71785 0.42856
  -3   1  -4189190.4 3476.09   1 0.33258-0.48886 0.93791-0.78141 0.09847-0.38781
   3  -1   4186266.7 3397.99   1 0.43755-0.28125 0.79381-0.95036 0.42237-0.13308
   3  -1   549842.77 1153.66   1 0.74602-0.61027-0.58600 0.40971-0.31629 0.67800
  -3   1  -548139.77 1114.92   1 0.67828-0.81424-0.32112 0.49742-0.66091 0.29929
  -3   1  -547973.09 2631.61   1 0.32792-0.46383 0.94073-0.76419 0.08649-0.44816
   3  -1   548797.90 1095.61   1 0.44616-0.31023 0.76923-0.94582 0.45740-0.09578
   3  -1   6 1347.34  144.20   1 0.73938-0.62411-0.64003 0.44377-0.20895 0.64307
  -3   1  -6 1241.44  164.70   1 0.69434-0.80993-0.35860 0.55490-0.62393 0.18998
  -3   1  -6 1487.65  129.40   1 0.31976-0.43528 0.94518-0.74870 0.06610-0.49996
   3  -1   6 1324.61  210.65   1 0.45411-0.33855 0.74249-0.93912 0.49242-0.05848
   3  -1   7  717.11   75.34   1 0.72562-0.63074-0.67804 0.46179-0.11715 0.62362
  -3   1  -7  901.88  109.11   1 0.70242-0.79763-0.37912 0.59542-0.60237 0.09610
  -3   1  -7 1366.02  139.79   1 0.30922-0.40438 0.95014-0.73363 0.03995-0.54612
   3  -1   7  634.72   90.00   1 0.46129-0.36610 0.71365-0.93034 0.52715-0.02089
   3  -1   8 5728.26  448.57   1 0.70786-0.63349-0.70540 0.46910-0.03643 0.61532
  -3   1  -8 5917.41  694.59   1 0.70590-0.78074-0.38840 0.62470-0.59232 0.01372
  -3   1  -8 5489.26  485.57   1 0.29673-0.37150 0.95491-0.71838 0.00965-0.58814
   3  -1   8 5449.57  678.74   1 0.46742-0.39265 0.68282-0.91952 0.56148 0.01697
   3  -1   927975.95 1922.80   1 0.68736-0.63340-0.72542 0.46912 0.03585 0.61539
  -3   1  -928145.19 3211.27   1 0.70641-0.76088-0.38979 0.64609-0.59079-0.06012
  -3   1  -928159.66 2457.30   1 0.28254-0.33695 0.95895-0.70240-0.02382-0.62696
   3  -1   929368.47 2381.61   1 0.47282-0.41843 0.64979-0.90654 0.59514 0.05561
   3  -1  1093237.74 6964.62   1 0.66490-0.63135-0.73993 0.46363 0.10197 0.62163
  -3   1 -1086859.01 2513.21   1 0.70477-0.73886-0.38536 0.66165-0.59564-0.12760
  -3   1 -1089793.97 6305.11   1 0.26682-0.30085 0.96188-0.68530-0.05989-0.66320
   3  -1  1087960.01 2354.12   1 0.47723-0.44321 0.61458-0.89137 0.62811 0.09495
   3  -1  11 4697.84  464.10   1 0.64079-0.62766-0.75010 0.45381 0.16344 0.63252
  -3   1 -11 4836.70  550.99   1 0.70136-0.71508-0.37635 0.67265-0.60534-0.19022
   3  -1  11 4654.42  643.41   1 0.48059-0.46694 0.57707-0.87391 0.66031 0.13506
   3   0 -1044245.08 5377.26   1 0.74254-0.29651-0.62466 0.82458-0.24172-0.48180
   3   0 -1044323.51 5608.67   1-0.39026 0.83917 0.72222-0.52257-0.57104-0.15067
  -3   0  1047308.66 2031.20   1 0.45905-0.90545 0.19926-0.39950 0.86577-0.14331
  -3   0   9 5972.66 1062.66   1 0.46343-0.88942 0.22774-0.40796 0.85636-0.20614
  -3   0   8  475.69   75.63   1 0.41405-0.81932-0.73196 0.57209 0.54110 0.03767
   3   0  -8  940.18  178.23   1 0.72793-0.32268-0.67325 0.83320-0.12976-0.44905
   3   0  -8  290.53   44.84   1 0.30186 0.10340 0.95309-0.79292 0.02200-0.60048
  -3   0   8  293.88   54.75   1 0.46625-0.87182 0.24761-0.40780 0.84929-0.27132
  -3   0   7 5662.87  505.12   1 0.41923-0.80411-0.73367 0.59379 0.53474-0.02832
   3   0  -7 5409.48  472.77   1 0.71524-0.33039-0.69560 0.83555-0.06750-0.43896
   3   0  -7 5896.29  541.48   1 0.33019 0.05460 0.93939-0.79914 0.09230-0.59865
  -3   0   7 5303.80  801.42   1 0.46743-0.85259 0.25641-0.39658 0.84602-0.34029
  -3   0   656048.13 4855.03   1 0.41860-0.78309-0.73347 0.61356 0.53552-0.10144
   3   0  -652599.74 4079.60   1 0.69772-0.33312-0.71636 0.83635 0.00119-0.43535
   3   0  -646971.30 1181.78   1 0.35896 0.00547 0.91792-0.79771 0.16899-0.60300
  -3   0   655122.32 1366.91   1 0.46652-0.83126 0.24960-0.36974 0.84856-0.41508
  -3   0   5202367.7 3834.29   1 0.40974-0.75384-0.73050 0.63058 0.54632-0.18458
   3   0  -5195881.5 3692.18   1 0.67319-0.32900-0.73525 0.83525 0.07877-0.44057
   3   0  -5211221.5 3552.01   1 0.38927-0.04521 0.88455-0.78438 0.25694-0.61862
  -3   0   5202313.3 3442.46   1 0.46204-0.80636 0.21842-0.31854 0.85954-0.49830
   3   0  -481299.92 1682.72   1 0.63823-0.31445-0.75094 0.83093 0.16953-0.45898
   3   0  -482391.89 1688.94   1-0.38704 0.71210 0.72101-0.64115-0.57474 0.28605
   3   0  -483560.95 1387.00   1 0.42229-0.09860 0.82947-0.74929 0.36556-0.65485
  -3   0   484881.29 1414.46   1 0.44965-0.77356 0.14513-0.22523 0.88132-0.59234
   3   0  -3 6833.60  740.11   1 0.58609-0.28264-0.76027 0.82028 0.28011-0.49723
   3   0  -3 6904.23 1000.27   1-0.34499 0.64940 0.70392-0.64403-0.62085 0.40434
   3   0  -3 6983.73  720.68   1 0.45850-0.15518 0.72550-0.66536 0.51323-0.73020
  -3   0   3 7232.57  217.64   1 0.41583-0.71932-0.00760-0.05230 0.90940-0.69269
   3   0  -233210.03  955.37   1 0.50307-0.22015-0.75493 0.79490 0.42068-0.56538
   3   0  -233873.78  965.47   1-0.26660 0.55037 0.66622-0.62629-0.69646 0.55212
   3   0  -233259.43  774.11   1 0.48355-0.20050 0.48723-0.44713 0.72717-0.87170
  -3   0   235528.71  845.48   1 0.31981-0.60287-0.30433 0.26448 0.89727-0.75272
   3   0  -1 4296.00  472.81   1-0.12263 0.38557 0.58185-0.56200-0.80399 0.73176
  -3   0   1 4134.40  488.00   1-0.36159 0.09847 0.71095-0.73092-0.60314 0.67531
   3   0  -1 4025.69  482.23   1 0.39884-0.13620-0.07050 0.09046 0.91430-0.98654
   3   0   031854.68  830.15   1 0.12121 0.12121 0.39299-0.39299-0.91151 0.91151
  -3   0   032303.13  840.39   1-0.12124-0.12124 0.58092-0.58092-0.80487 0.80487
   3   0   033484.73  800.36   1 0.12100 0.12100-0.68480 0.68480 0.71860-0.71861
   3   0   1996638.0 9906.83   1 0.42440-0.20241 0.07670-0.09665-0.90221 0.97451
  -3   0  -1999998.3 2776.59   1 0.20593-0.42801 0.31463-0.29478-0.92660 0.85434
   3   0   239293.95  991.46   1 0.63644-0.43486-0.23676 0.19676-0.73408 0.87873
  -3   0  -239194.79  991.58   1 0.47605-0.67770 0.01068 0.02922-0.87935 0.73475
   3   0   239431.19  989.35   1 0.31186-0.11034 0.94898-0.98903 0.04644 0.09817
   3   0   3154362.0 1965.34   1 0.72300-0.54184-0.43971 0.37972-0.53283 0.74980
  -3   0  -3151422.4 1923.18   1 0.61589-0.79710-0.19976 0.25977-0.76208 0.54511
   3   0   3150399.4 1920.06   1 0.35321-0.17209 0.92290-0.98301 0.15322 0.06378
   3   0   419815.68 1622.08   1 0.74536-0.58474-0.55641 0.47642-0.36719 0.65657
  -3   0  -418305.08  505.27   1 0.67667-0.83745-0.31756 0.39755-0.66427 0.37498
   3   0   418359.79  500.96   1 0.38218-0.22142 0.89355-0.97369 0.23558 0.05376
   3   0   5101937.0 2107.85   1 0.74229-0.60213-0.62609 0.52613-0.23875 0.60051
  -3   0  -599079.85 2048.03   1 0.70316-0.84357-0.38106 0.48105-0.60029 0.23867
  -3   0  -599006.32 2059.49   1 0.26709-0.40749 0.96184-0.86173-0.05928-0.30226
   3   0   5100988.9 2063.07   1 0.40424-0.26385 0.86266-0.96283 0.30398 0.05769
   3   0   6163170.4 2867.47   1 0.72908-0.60931-0.67071 0.55075-0.13632 0.57044
  -3   0  -6157023.5 2765.10   1 0.71513-0.83517-0.41471 0.53470-0.56266 0.12871
  -3   0  -6159090.6 2781.00   1 0.26770-0.38772 0.96175-0.84162-0.05792-0.37594
   3   0   6158720.6 2725.31   1 0.42178-0.30177 0.83051-0.95079 0.36377 0.07016
   3   0   7 9440.66  858.25   1 0.71143-0.61217-0.70091 0.56092-0.05078 0.55731
  -3   0  -7 9112.36 1240.82   1 0.72039-0.82006-0.43108 0.57107-0.54332 0.03705
  -3   0  -710521.93  993.55   1 0.26336-0.36301 0.96231-0.82216-0.06769-0.43847
   3   0   7 9117.74 1233.80   1 0.43629-0.33664 0.79711-0.93743 0.41744 0.08881
   3   0   8 7772.05 1344.74   1 0.69126-0.61242-0.72222 0.56223 0.02316 0.55572
  -3   0  -8 6815.32 1217.04   1 0.72209-0.80139-0.43667 0.59666-0.53655-0.04203
   3   0   8 7679.55  925.85   1 0.44836-0.36908 0.76227-0.92264 0.46679 0.11179
   3   0   9 2276.80  244.37   1 0.66950-0.61107-0.73742 0.55743 0.08924 0.56200
  -3   0  -9 2212.71  245.33   1 0.72158-0.78050-0.43498 0.61497-0.53860-0.11231
   3   0   9 2257.57  327.63   1 0.45842-0.39950 0.72585-0.90626 0.51282 0.13809
   3   0  10  437.95   92.18   1 0.64645-0.60843-0.74811 0.54813 0.14971 0.57389
  -3   0 -10  189.01   55.59   1 0.71943-0.75798-0.42802 0.62800-0.54699-0.17624
   3   0  10  169.90   35.54   1 0.46649-0.42801 0.68778-0.88822 0.55617 0.16690
   3   0  1143014.95 3192.26   1 0.62217-0.60455-0.75525 0.53521 0.20614 0.58995
  -3   0 -1140759.49 4895.87   1 0.71588-0.73405-0.41695 0.63694-0.56005-0.23551
   3   0  1144300.03 2501.12   1 0.47313-0.45501 0.64767-0.86815 0.59721 0.19816
   3   0  1216702.82 1589.27   1 0.59667-0.59947-0.75938 0.51934 0.25945 0.60902
  -3   0 -1215988.22 2182.60   1 0.71097-0.70877-0.40251 0.64249-0.57662-0.29126
   3   0  1215598.91 2622.40   1 0.47818-0.48044 0.60541-0.84593 0.63625 0.23143
  -3  -1  10 7094.49  745.60   1 0.41867-0.86918-0.73349 0.45733 0.53544 0.18802
   3   1 -10 7007.78  751.81   1 0.74600-0.29563-0.58703 0.86331-0.31442-0.40900
   3   1 -10 6499.76  667.22   1 0.28906 0.16144 0.95727-0.68069-0.00854-0.71455
  -3  -1  10 5690.09 1384.58   1 0.44719-0.89811 0.13213-0.40877 0.88462-0.16215
  -3  -1   915413.47  853.18   1 0.43511-0.86523-0.73865 0.48248 0.51483 0.13628
   3   1  -915526.86 1461.26   1 0.74433-0.31419-0.61201 0.86825-0.26722-0.38395
   3   1  -915291.78  853.54   1 0.31962 0.11050 0.94525-0.68870 0.06577-0.71657
  -3  -1   913054.52 2395.14   1 0.45155-0.88205 0.15547-0.41208 0.87859-0.22837
  -3  -1   8 6078.74  698.95   1 0.44869-0.85842-0.74259 0.50640 0.49721 0.08155
   3   1  -8 6297.26  749.26   1 0.74036-0.33061-0.63585 0.87209-0.21807-0.36074
   3   1  -8 6333.00  397.49   1 0.34958 0.06005 0.92587-0.68922 0.14336-0.72204
  -3  -1   8 4200.43 1297.08   1 0.45411-0.86419 0.16982-0.40641 0.87460-0.29663
   3   1  -716149.95 1266.28   1 0.73385-0.34450-0.65867 0.87492-0.16614-0.34032
   3   1  -716886.59 1228.08   1 0.37897 0.01029 0.89736-0.68075 0.22608-0.73243
  -3  -1   715543.69  575.71   1 0.45465-0.84431 0.17293-0.38949 0.87371-0.36799
  -3  -1   659945.62 3805.65   1 0.46477-0.83372-0.74683 0.55061 0.47562-0.04154
   3   1  -657009.12 4975.45   1 0.72430-0.35534-0.68059 0.87685-0.11030-0.32381
   3   1  -658264.16 1765.97   1 0.40804-0.03914 0.85638-0.65981 0.31639-0.75041
  -3  -1   659956.28 1583.17   1 0.45255-0.82180 0.16103-0.35756 0.87707-0.44359
  -3  -1   5 2600.16  210.35   1 0.46473-0.81329-0.74682 0.57058 0.47568-0.11395
   3   1  -5 2474.31  241.67   1 0.71091-0.36224-0.70159 0.87789-0.04864-0.31316
   3   1  -5 2733.78  237.12   1 0.43639-0.08787 0.79685-0.62026 0.41783-0.77945
  -3  -1   5 2752.01  410.27   1 0.44636-0.79519 0.12783-0.30434 0.88567-0.52444
  -3  -1   4123707.7 2327.65   1 0.45577-0.78394-0.74451 0.58826 0.48781-0.19842
   3   1  -4121555.9 2256.57   1 0.69173-0.36347-0.72182 0.87813 0.02162-0.31107
   3   1  -4123918.1 1985.02   1 0.46250-0.13432 0.70740-0.55088 0.53447-0.82370
  -3  -1   4124553.7 2044.79   1 0.43276-0.76118 0.06283-0.21932 0.89931-0.61032
  -3  -1   3103654.1 2134.91   1 0.43193-0.73971-0.73769 0.60142 0.51887-0.30183
   3   1  -398263.86 2206.34   1 0.66339-0.35555-0.74071 0.87701 0.10606-0.32314
   3   1  -3105621.0 1919.24   1 0.48134-0.17354 0.56596-0.42947 0.66932-0.88624
  -3  -1   3105689.0 1963.18   1 0.40441-0.71245-0.05058-0.08572 0.91317-0.69646
   3   1  -266198.00 1404.73   1 0.61801-0.33052-0.75613 0.87246 0.21520-0.35994
   3   1  -266710.71 1404.17   1-0.37856 0.66682 0.71776-0.60142-0.58438 0.44003
   3   1  -266540.57 1251.34   1 0.47646-0.18891 0.33516-0.21868 0.81280-0.95733
  -3  -1   268145.98 1316.17   1 0.34701-0.63461-0.23252 0.11625 0.90857-0.76403
   3   1  -139620.70 1018.74   1 0.53497-0.26789-0.75924 0.85556 0.37061-0.44298
   3   1  -141615.87 1058.74   1-0.26684 0.53446 0.66635-0.56997-0.69625 0.62408
   3   1  -141682.64  995.48   1 0.41324-0.14606-0.01761 0.11398 0.91044-0.98268
  -3  -1   142097.67 1031.60   1 0.24085-0.50799-0.48107 0.38467 0.84294-0.77069
   3   1   012419.43  288.11   1-0.02271 0.26958 0.51079-0.43446-0.85940 0.85940
  -3  -1   012349.64  289.20   1-0.35433 0.10736 0.70792-0.78433-0.61097 0.61097
   3   1   012265.86  294.20   1 0.26723-0.02063-0.42633 0.50274 0.86418-0.86418
   3   1   1104887.1 2273.77   1 0.39476-0.16839 0.11263-0.05615-0.91185 0.98411
  -3  -1  -1107276.7 2325.81   1 0.03374-0.26015 0.46691-0.52340-0.88365 0.81140
   3   1   2140147.8 1623.51   1 0.67800-0.47202-0.32051 0.35682-0.66149 0.80614
  -3  -1  -2140512.0 1628.12   1 0.46018-0.66620 0.03147-0.06791-0.88726 0.74266
   3   1   350038.30 1224.04   1 0.74300-0.55752-0.53159 0.54791-0.40663 0.62366
  -3  -1  -348289.22 1179.32   1 0.64489-0.83053-0.25272 0.23639-0.72127 0.50430
   3   1   488408.92 1747.64   1 0.74235-0.57731-0.62573 0.62206-0.23949 0.52890
  -3  -1  -486075.47 1697.46   1 0.70372-0.86896-0.38255 0.38623-0.59868 0.30938
   3   1   490253.22 1788.79   1 0.30508-0.13981 0.95185-0.95558 0.02981 0.25942
   3   1   5134398.1 2598.53   1 0.72694-0.58228-0.67536 0.65169-0.12427 0.48603
  -3  -1  -5128189.9 2476.47   1 0.72379-0.86866-0.44240 0.46608-0.52952 0.16790
   3   1   5133903.8 2563.37   1 0.34582-0.20096 0.92878-0.95259 0.13327 0.22840
   3   1   6 7519.88  755.72   1 0.70784-0.58369-0.70543 0.66175-0.03634 0.47050
  -3  -1  -6 5761.82  881.48   1 0.73143-0.85579-0.47017 0.51384-0.49389 0.05983
   3   1   6 6248.29  946.25   1 0.37685-0.25237 0.89979-0.94364 0.21988 0.21413
   3   1   714612.43 1309.61   1 0.68734-0.58360-0.72544 0.66176 0.03592 0.47060
  -3  -1  -710879.40 1464.13   1 0.73405-0.83803-0.48126 0.54492-0.47910-0.02729
   3   1   711588.41 1241.67   1 0.40138-0.29726 0.86717-0.93105 0.29477 0.21157
   3   1   8 1368.87  136.46   1 0.66608-0.58276-0.73931 0.65563 0.09874 0.48014
  -3  -1  -8 1454.94  178.73   1 0.73435-0.81796-0.48259 0.56625-0.47730-0.10143
   3   1   8 1285.13  174.50   1 0.42108-0.33735 0.83194-0.91595 0.36131 0.21727
   3   1   9  504.28   83.63   1 0.64410-0.58119-0.74897 0.64529 0.15546 0.49578
  -3  -1  -9  357.93   82.07   1 0.73320-0.79643-0.47755 0.58121-0.48410-0.16698
   3   1   9  504.75   98.96   1 0.43728-0.37391 0.79453-0.89859 0.42130 0.22960
   3   1  1099083.44 7222.02   1 0.62129-0.57880-0.75544 0.63173 0.20807 0.51564
  -3  -1 -1096628.60 2968.00   1 0.73088-0.77373-0.46793 0.59159-0.49683-0.22659
   3   1  1098840.85 2879.84   1 0.45054-0.40754 0.75506-0.87916 0.47632 0.24691
   3   1  1136300.12 2424.82   1 0.59755-0.57548-0.75928 0.61557 0.25769 0.53840
   3   1  1135540.88 1293.51   1 0.46132-0.43869 0.71351-0.85766 0.52732 0.26823
   3   1  12  -34.81  146.77   1 0.57274-0.57109-0.76081 0.59709 0.30515 0.56331
  -3  -1 -12  130.97   62.47   1 0.72272-0.72498-0.43876 0.60243-0.53400-0.33388
   3   1  12   78.15   46.20   1 0.46968-0.46748 0.66994-0.83412 0.57494 0.29273
  -3  -2   918660.64 2342.79   1 0.46019-0.89477-0.74567 0.41318 0.48186 0.16925
   3   2  -918765.31 2012.70   1 0.74592-0.31144-0.56798 0.90057-0.34783-0.30325
   3   2  -918754.61 1320.43   1 0.35279 0.08167 0.92325-0.59021 0.15208-0.80310
  -3  -2   916241.70 2333.78   1 0.43834-0.87335 0.08841-0.42142 0.89444-0.24422
   3   2  -813301.90 1859.31   1 0.74587-0.33177-0.59090 0.90349-0.30740-0.27133
   3   2  -813957.24  784.35   1 0.38186 0.03224 0.89394-0.58093 0.23462-0.81330
  -3  -2   812736.76 1457.06   1 0.44061-0.85520 0.09919-0.41217 0.89220-0.31423
  -3  -2   7 1996.55  166.16   1 0.49135-0.88515-0.75277 0.46025 0.43806 0.06835
   3   2  -7 1795.00  142.60   1 0.74425-0.35040-0.61264 0.90519-0.26598-0.24048
   3   2  -7 2332.16  303.54   1 0.40946-0.01576 0.85377-0.56073 0.32157-0.82784
  -3  -2   7 2003.40  204.48   1 0.44060-0.83478 0.09917-0.39213 0.89220-0.38647
  -3  -2   6  626.41   97.84   1 0.50250-0.87591-0.75484 0.48230 0.42154 0.01253
   3   2  -6  420.07   56.54   1 0.74090-0.36744-0.63332 0.90588-0.22351-0.21060
   3   2  -6  398.47   40.71   1 0.43541-0.06207 0.79936-0.52637 0.41404-0.84798
  -3  -2   6  375.17   51.94   1 0.43772-0.81148 0.08548-0.35841 0.89503-0.46155
  -3  -2   5120049.2 2877.32   1 0.50948-0.86268-0.75601 0.50335 0.41094-0.04907
   3   2  -5121447.3 2875.66   1 0.73572-0.38265-0.65312 0.90569-0.17928-0.18247
   3   2  -5125416.6 2720.96   1 0.45854-0.10557 0.72535-0.47241 0.51341-0.87503
  -3  -2   5119188.8 2675.50   1 0.43071-0.78405 0.05374-0.30664 0.90088-0.53965
  -3  -2   4 2926.36  210.40   1 0.51078-0.84357-0.75621 0.52356 0.40894-0.11945
   3   2  -4 3091.18  306.83   1 0.72838-0.39570-0.67226 0.90484-0.13233-0.15707
   3   2  -4 3500.74  321.32   1 0.47624-0.14360 0.62345-0.39058 0.62006-0.90929
  -3  -2   4 2908.17  336.21   1 0.41714-0.75015-0.00244-0.23025 0.90883-0.61988
  -3  -2   3129163.6 2278.36   1 0.50277-0.81501-0.75488 0.54230 0.42113-0.20409
   3   2  -3128747.4 2255.38   1 0.71822-0.40593-0.69110 0.90368-0.08080-0.13624
   3   2  -3131426.3 2097.96   1 0.48355-0.17109 0.48106-0.26814 0.73126-0.94806
  -3  -2   3130654.9 2158.84   1 0.39281-0.70539-0.09137-0.12134 0.91506-0.69835
  -3  -2   299283.52 1954.73   1 0.47689-0.76874-0.74971 0.55710 0.45880-0.31411
   3   2  -298196.95 1932.28   1 0.70374-0.41183-0.71015 0.90276-0.02063-0.12408
   3   2  -2101505.5 1889.14   1 0.47092-0.17884 0.28421-0.09138 0.83513-0.97962
  -3  -2   2102009.2 1953.36   1 0.35091-0.64307-0.22161 0.02893 0.90980-0.76525
  -3  -2   132463.00 2203.95   1 0.40986-0.68132-0.73054 0.55792 0.54617-0.47383
   3   2  -131423.14  844.93   1 0.68026-0.40876-0.73067 0.90329 0.05791-0.13027
   3   2  -132448.79  858.63   1 0.42426-0.15254 0.02637 0.14641 0.90515-0.97739
  -3  -2   132739.47  897.07   1 0.28241-0.55407-0.39309 0.22034 0.87505-0.80277
   3   2   019485.11  337.94   1 0.62988-0.37876-0.75336 0.90600 0.18889-0.18889
   3   2   020865.05  341.19   1-0.21558 0.46705 0.63803-0.48521-0.73920 0.73920
   3   2   020078.28  437.11   1 0.33438-0.08322-0.26674 0.41956 0.90390-0.90390
  -3  -2   021037.49  471.75   1 0.18415-0.43533-0.58549 0.43267 0.78948-0.78948
   3   2   1320997.9 3224.06   1 0.41873-0.18806-0.73351 0.86616 0.53536-0.46301
   3   2   1312216.4 3126.08   1 0.37240-0.14170 0.13885-0.00602-0.91762 0.98989
   3   2   1316957.5 3529.01   1 0.21443 0.01618-0.53168 0.66452 0.81934-0.74709
   3   2   217679.32  248.94   1 0.74412-0.53377-0.54149 0.65411-0.39123 0.53592
  -3  -2  -218076.54  246.59   1 0.36940-0.57975 0.14231-0.25526-0.91830 0.77377
   3   2   3212163.5 2355.81   1 0.73008-0.54015-0.66838 0.76101-0.14224 0.35930
  -3  -2  -3215612.5 2369.31   1 0.67445-0.86452-0.31269 0.22006-0.66882 0.45185
   3   2   4361333.8 6064.99   1 0.70705-0.53760-0.70638 0.77900-0.03324 0.32268
  -3  -2  -4366573.8 6126.25   1 0.72683-0.89653-0.45314 0.38051-0.51611 0.22681
   3   2   5 2442.41  289.12   1 0.68663-0.53759-0.72600 0.77863 0.03819 0.32360
  -3  -2  -5  961.39  165.34   1 0.73881-0.88803-0.50446 0.45182-0.44684 0.08513
   3   2   5  909.33  111.71   1 0.27625-0.12686 0.96031-0.90771-0.03839 0.39994
   3   2   6  248.99   44.31   1 0.66738-0.53876-0.73860 0.77123 0.09515 0.33900
  -3  -2  -6  267.47   45.60   1 0.74198-0.87083-0.52396 0.49132-0.41823-0.01582
   3   2   6  327.71   56.68   1 0.32162-0.19260 0.94421-0.91163 0.07079 0.36307
   3   2   7   77.69   44.78   1 0.64831-0.54010-0.74741 0.76004 0.14511 0.36141
  -3  -2  -7  111.90   29.61   1 0.74265-0.85112-0.52884 0.51620-0.41084-0.09555
   3   2   7  155.26   39.10   1 0.35773-0.24914 0.91902-0.90654 0.16559 0.34075
   3   2   8  165.78   57.90   1 0.62885-0.54107-0.75363 0.74625 0.19124 0.38773
  -3  -2  -8   39.15   66.84   1 0.74221-0.83030-0.52559 0.53294-0.41578-0.16296
   3   2   8    9.31   42.93   1 0.38658-0.29835 0.88807-0.89562 0.24876 0.32991
   3   2   926151.61 2100.32   1 0.60872-0.54135-0.75780 0.73042 0.23492 0.41643
  -3  -2  -927018.08 2967.73   1 0.74096-0.80868-0.51712 0.54447-0.42843-0.22265
   3   2   924434.63 2366.81   1 0.40993-0.34211 0.85294-0.88064 0.32316 0.32775
   3   2  1030699.86 2349.49   1 0.58769-0.54075-0.76017 0.71278 0.27704 0.44668
   3   2  1030754.02 3459.90   1 0.42914-0.38168 0.81452-0.86227 0.39036 0.33287
   3   2  11 3650.66  324.99   1 0.56562-0.53909-0.76084 0.69345 0.31809 0.47801
  -3  -2 -11 3929.87  442.56   1 0.73590-0.76287-0.48970 0.55705-0.46757-0.32819
   3   2  11 4009.00  510.61   1 0.44484-0.41776 0.77325-0.84104 0.45187 0.34368
   3   2  12 4792.18  500.06   1 0.54236-0.53625-0.75987 0.67248 0.35837 0.51010
  -3  -2 -12 4922.03  630.95   1 0.73187-0.73847-0.47197 0.55931-0.49152-0.37659
   3   2  12 5275.41  592.44   1 0.45756-0.45084 0.72929-0.81713 0.50868 0.35920
  -3  -3   920947.60 1975.85   1 0.47999-0.91903-0.75040 0.34159 0.45442 0.19669
   3   3  -920251.28 3066.68   1 0.74106-0.30209-0.51777 0.92667-0.42746-0.22362
   3   3  -921709.80 1867.01   1 0.37612 0.06281 0.90061-0.49121 0.21775-0.86877
  -3  -3   919649.98 3162.45   1 0.42407-0.86375 0.02559-0.43454 0.90526-0.25512
  -3  -3   818115.89 1087.43   1 0.49953-0.91818-0.75431 0.36549 0.42599 0.15278
   3   3  -817950.57 1366.33   1 0.40344 0.01513 0.86393-0.47456 0.30140-0.88008
  -3  -3   817666.78 1719.71   1 0.42611-0.84536 0.03410-0.42308 0.90402-0.32612
   3   3  -7 6839.84  561.58   1 0.74546-0.34724-0.55806 0.92697-0.36447-0.14192
   3   3  -7 7104.01  550.48   1 0.42848-0.03032 0.81603-0.44663 0.38793-0.89420
  -3  -3   7 7054.64  588.47   1 0.42573-0.82455 0.03250-0.40151 0.90426-0.39860
  -3  -3   6  206.33   57.60   1 0.53210-0.91018-0.75896 0.40998 0.37528 0.05895
   3   3  -6  304.59   59.37   1 0.74608-0.36823-0.57551 0.92442-0.33487-0.09918
   3   3  -6  172.64   28.79   1 0.45082-0.07303 0.75412-0.40477 0.47755-0.91149
  -3  -3   6  165.55   37.40   1 0.42239-0.80079 0.01864-0.36768 0.90622-0.47279
  -3  -3   5  383.61   55.32   1 0.54463-0.90229-0.76003 0.43106 0.35456 0.00730
   3   3  -5  473.69   47.04   1 0.74587-0.38840-0.59096 0.91987-0.30729-0.05442
   3   3  -5  448.15   55.46   1 0.46893-0.11146 0.67434-0.34507 0.57039-0.93193
  -3  -3   5  373.92   59.19   1 0.41508-0.77306-0.01049-0.31857 0.90972-0.54853
  -3  -3   4116377.6 4405.94   1 0.55360-0.89084-0.76054 0.45156 0.33925-0.04976
   3   3  -4109896.0 2687.50   1 0.74512-0.40794-0.60409 0.91298-0.28258-0.00682
   3   3  -4115399.1 2661.35   1 0.48099-0.14389 0.57128-0.26205 0.66503-0.95426
  -3  -3   4113633.5 2710.24   1 0.40211-0.73965-0.05890-0.25020 0.91369-0.62474
  -3  -3   3180756.5 3299.59   1 0.55730-0.87412-0.76068 0.47171 0.33282-0.11570
   3   3  -3187031.2 3361.54   1 0.74408-0.42730-0.61404 0.90292-0.26322 0.04616
   3   3  -3187710.1 3374.95   1 0.48284-0.16588 0.43853-0.14922 0.75798-0.97478
  -3  -3   3190485.0 3406.22   1 0.38074-0.69786-0.13122-0.15790 0.91532-0.69860
  -3  -3   2  788.67   96.33   1 0.55172-0.84813-0.76045 0.49148 0.34249-0.19774
   3   3  -2  756.61   99.53   1 0.74342-0.44703-0.61901 0.88790-0.25326 0.10856
   3   3  -2 1145.21  145.31   1 0.46929-0.17269 0.27083-0.00160 0.84048-0.98497
  -3  -3   2  839.21   95.29   1 0.34728-0.64399-0.23176-0.03732 0.90866-0.76411
  -3  -3   031960.16  433.04   1 0.43015-0.68568-0.73714 0.50819 0.52113-0.52113
   3   3   031632.58  421.88   1 0.74608-0.49049-0.57583 0.80476-0.33431 0.33431
   3   3   032016.17  622.67   1 0.37220-0.11637-0.15803 0.38726 0.91459-0.91459
  -3  -3   029924.34  639.89   1 0.22617-0.48193-0.50964 0.28040 0.83012-0.83012
   3   3   183633.14 2007.75   1 0.28873-0.05353-0.37880 0.58810 0.87928-0.80700
  -3  -3  -186263.81 2079.84   1 0.13805-0.37326-0.65959 0.45035 0.73882-0.81108
   3   3   2228341.8 2810.90   1 0.19660 0.01805-0.56388 0.75314 0.80210-0.65760
   3   3   3158096.1 2652.79   1 0.53169-0.33737-0.75892 0.92787 0.37595-0.15883
  -3  -3  -3161798.9 2716.82   1 0.70614-0.90066-0.38906 0.22011-0.59159 0.37462
   3   3   3174239.7 3215.80   1 0.11146 0.08264-0.69839 0.86767 0.70697-0.49021
   3   3   4 8149.55  750.06   1 0.59051-0.41661-0.75995 0.90890 0.27158 0.01791
  -3  -3  -4 8313.23  270.34   1 0.74275-0.91684-0.52965 0.38070-0.40961 0.12024
   3   3   591111.14 1629.15   1 0.60023-0.44674-0.75898 0.88793 0.25232 0.10953
  -3  -3  -591110.14 1614.08   1 0.74583-0.89955-0.56564 0.43670-0.35180-0.00990
   3   3   631840.05 2939.27   1 0.59703-0.46396-0.75934 0.86829 0.25872 0.17551
  -3  -3  -632856.61  839.91   1 0.74607-0.87941-0.57481 0.46586-0.33608-0.09797
   3   3   752129.73 4314.44   1 0.58806-0.47541-0.76014 0.84908 0.27632 0.23028
  -3  -3  -751467.50 1469.16   1 0.74604-0.85900-0.57290 0.48395-0.33939-0.16700
   3   3   753703.70 1494.67   1 0.30829-0.19516 0.95054-0.86162 0.03765 0.46851
   3   3   8103867.7 2562.00   1 0.57564-0.48340-0.76074 0.82968 0.29982 0.27916
  -3  -3  -899079.89 2448.49   1 0.74581-0.83839-0.56501 0.49605-0.35288-0.22586
   3   3   8104911.0 2516.51   1 0.34646-0.25376 0.92830-0.85949 0.13497 0.44370
   3   3   9110560.4 7574.79   1 0.56072-0.48890-0.76077 0.80971 0.32680 0.32454
  -3  -3  -9106247.2 2455.70   1 0.74514-0.81735-0.55322 0.50426-0.37243-0.27865
   3   3   9109616.6 2409.14   1 0.37759-0.30527 0.89895-0.85017 0.22205 0.42896
   3   3  10 2197.48  222.17   1 0.54376-0.49235-0.75997 0.78891 0.35603 0.36769
  -3  -3 -10 2103.00  321.25   1 0.74381-0.79564-0.53853 0.50957-0.39588-0.32754
   3   3  10 2021.51  245.60   1 0.40326-0.35130 0.86423-0.83548 0.30080 0.42254
   3   3  1124397.83 1783.58   1 0.52496-0.49398-0.75816 0.76709 0.38677 0.40932
  -3  -3 -1121987.66 2890.17   1 0.74162-0.77307-0.52145 0.51248-0.42200-0.37377
   3   3  1123735.38 2500.75   1 0.42430-0.39276 0.82524-0.81667 0.37274 0.42281
   3   3  1222224.57 1914.38   1 0.50454-0.49370-0.75518 0.74434 0.41848 0.44967
  -3  -3 -1220723.98 2830.91   1 0.73840-0.74948-0.50224 0.51327-0.45000-0.41810
   3   3  1220977.42 2381.89   1 0.44166-0.43048 0.78257-0.79405 0.43875 0.42912
  -3  -4   853315.67 4416.07   1 0.51631-0.93968-0.75703 0.29172 0.40040 0.17858
   3   4  -850714.05 5974.19   1 0.73381-0.31072-0.48019 0.94541-0.48054-0.09820
   3   4  -848600.18 5373.89   1 0.41762 0.00535 0.83883-0.37303 0.34921-0.92780
  -3  -4   851179.87 5213.02   1 0.41080-0.83460-0.02690-0.43848 0.91132-0.33342
  -3  -4   732244.40 2419.19   1 0.53633-0.93928-0.75937 0.31406 0.36837 0.13823
   3   4  -730179.14 3684.71   1 0.73719-0.33448-0.49598 0.94120-0.45884-0.04755
   3   4  -731768.22 2577.09   1 0.44026-0.03765 0.78648-0.34072 0.43314-0.93940
  -3  -4   731516.49 2568.26   1 0.41023-0.81359-0.02908-0.41633 0.91151-0.40585
  -3  -4   6   59.52   79.00   1 0.55460-0.93713-0.76058 0.33528 0.33752 0.09671
   3   4  -6  136.83   52.09   1 0.73958-0.35724-0.50876 0.93398-0.44065 0.00659
   3   4  -6  207.33   50.26   1 0.45952-0.07727 0.72129-0.29558 0.51824-0.95218
  -3  -4   6  205.56   45.45   1 0.40670-0.78964-0.04221-0.38323 0.91258-0.47915
  -3  -4   510506.18  747.19   1 0.57101-0.93312-0.76083 0.35553 0.30834 0.05352
   3   4  -5 9844.53  822.69   1 0.74106-0.37910-0.51779 0.92301-0.42744 0.06573
   3   4  -5 9882.39  834.38   1 0.47409-0.11215 0.64068-0.23505 0.60395-0.96548
  -3  -4   5 9547.54 1127.57   1 0.39943-0.76194-0.06842-0.33705 0.91420-0.55301
  -3  -4   410725.00  888.86   1 0.58527-0.92697-0.76032 0.37503 0.28168 0.00780
   3   4  -411336.09  992.11   1 0.74165-0.40006-0.52165 0.90688-0.42169 0.13232
   3   4  -412597.92 1095.87   1 0.48263-0.14106 0.54141-0.15583 0.68842-0.97765
  -3  -4   411566.71 1305.81   1 0.38717-0.72926-0.11027-0.27523 0.91538-0.62643
   3   4  -3  507.01   75.71   1 0.74103-0.41982-0.51756 0.88279-0.42777 0.21074
   3   4  -3  372.38   51.10   1 0.48218-0.16072 0.42025-0.05455 0.76869-0.98549
  -3  -4   3  311.07   47.14   1 0.36810-0.68976-0.17057-0.19496 0.91400-0.69729
  -3  -4   2307305.0 5172.65   1 0.60438-0.90524-0.75844 0.41315 0.24388-0.09913
   3   4  -2297420.8 4968.63   1 0.73784-0.43700-0.49929 0.84452-0.45419 0.30950
   3   4  -2306705.2 5115.96   1 0.46986-0.16876 0.27544 0.07018 0.83866-0.98315
  -3  -4   2305551.5 5206.42   1 0.34000-0.64126-0.25170-0.09379 0.90611-0.76156
  -3  -4   1227966.4 3414.87   1 0.60441-0.88486-0.75844 0.43315 0.24381-0.17144
   3   4  -1223062.7 3305.03   1 0.72598-0.44551-0.45006 0.77531-0.51999 0.44766
   3   4  -1226905.1 3498.53   1 0.44241-0.16172 0.10795 0.21764 0.89029-0.96253
  -3  -4   1233820.8 3701.92   1 0.29963-0.58038-0.35353 0.02796 0.88613-0.81386
  -3  -4   028655.49  444.29   1 0.58354-0.84357-0.76042 0.45514 0.28499-0.28499
   3   4   028374.32  419.11   1 0.67335-0.41325-0.31030 0.61555-0.67105 0.67105
   3   4   028992.82  654.20   1 0.39757-0.13719-0.07497 0.38060 0.91450-0.91450
  -3  -4   028303.84  694.23   1 0.24514-0.50549-0.47251 0.16686 0.84654-0.84654
   3   4   140410.75  245.38   1 0.20952 0.02987 0.31116-0.02566-0.92696 0.99922
   3   4   138309.49  768.80   1 0.33718-0.09743-0.25928 0.54500 0.90502-0.83275
  -3  -4  -138697.17  806.04   1 0.17649-0.41629-0.59843 0.31277 0.78148-0.85373
   3   4   2 9732.95 1081.38   1 0.26680-0.04755-0.42727 0.69305 0.86386-0.71931
  -3  -4  -353324.41  934.43   1 0.73932-0.93828-0.50730 0.26205-0.44276 0.22573
   3   4   352547.96 2426.84   1 0.19545 0.00323-0.56591 0.81160 0.80095-0.58420
  -3  -4  -4431828.3 7099.57   1 0.74463-0.92317-0.60925 0.38401-0.27263-0.01677
  -3  -4  -4429828.7 7049.96   1-0.33904 0.16117 0.70132-0.92711-0.62705 0.33836
   3   4   4439835.5 7568.55   1 0.13086 0.04728-0.67037 0.89607 0.73039-0.44138
   3   4   5310753.6 4536.44   1 0.44676-0.28872-0.74205 0.94740 0.49976-0.13803
   3   4   6 2746.54  225.84   1 0.48639-0.34875-0.75177 0.93714 0.44525-0.01117
  -3  -4  -6 3040.48  509.06   1 0.74313-0.88088-0.62098 0.43573-0.24926-0.18485
   3   4   7 1334.41  144.33   1 0.50067-0.38342-0.75452 0.91991 0.42428 0.08214
  -3  -4  -7  896.43  130.78   1 0.74428-0.86165-0.61241 0.44715-0.26644-0.24002
   3   4   8 5582.93  415.53   1 0.50268-0.40582-0.75487 0.90028 0.42127 0.15749
  -3  -4  -8 5363.54  632.45   1 0.74542-0.84240-0.60019 0.45492-0.29001-0.28880
   3   4   8 5396.08  609.03   1 0.30330-0.20604 0.95255-0.80730 0.02548 0.55299
   3   4   917739.71 1251.94   1 0.49756-0.42108-0.75395 0.87938 0.42892 0.22219
  -3  -4  -916288.99 2008.76   1 0.74603-0.82274-0.58540 0.46014-0.31736-0.33372
   3   4   916850.26 1827.60   1 0.34182-0.26503 0.93172-0.80658 0.12264 0.52837
   3   4  1062364.91 4189.54   1 0.48768-0.43160-0.75203 0.85748 0.44339 0.28007
  -3  -4 -1060707.90 2020.63   1 0.74594-0.80226-0.56852 0.46325-0.34691-0.37651
   3   4  1063118.66 1998.10   1 0.37384-0.31741 0.90314-0.79803 0.21112 0.51223
   3   4  1155535.32 1539.32   1 0.47428-0.43859-0.74911 0.83457 0.46246 0.33334
  -3  -4 -1149602.44 1416.61   1 0.74488-0.78083-0.54978 0.46451-0.37800-0.41776
   3   4  1153285.00 4620.52   1 0.40058-0.36452 0.86841-0.78334 0.29220 0.50348
   3   4  12 1105.32  280.95   1 0.45801-0.44271-0.74510 0.81058 0.48480 0.38335
  -3  -4 -12 1347.79  223.67   1 0.74270-0.75828-0.52928 0.46400-0.41017-0.45793
   3   4  12 1444.39  191.22   1 0.42268-0.40705 0.82866-0.76378 0.36695 0.50093
  -3  -5   8 8169.61  893.65   1 0.52820-0.95602-0.75854 0.21691 0.38159 0.19738
   3   5  -8 9109.89  965.49   1 0.71553-0.28800-0.41592 0.95747-0.56126-0.01733
   3   5  -8 7475.54  957.94   1 0.42690 0.00052 0.81957-0.27741 0.38215-0.96074
  -3  -5   8 6492.55 1649.04   1 0.39476-0.82310-0.08468-0.45711 0.91486-0.33696
  -3  -5   7  287.20  104.13   1 0.55016-0.95756-0.76037 0.23875 0.34517 0.16143
   3   5  -7  208.19   47.51   1 0.71930-0.31214-0.42758 0.94913-0.54751 0.04124
   3   5  -7  193.41   62.28   1 0.44745-0.04039 0.76518-0.24307 0.46290-0.96916
  -3  -5   7  118.55   33.66   1 0.39413-0.80204-0.08684-0.43498 0.91493-0.40927
  -3  -5   6 7040.62  639.97   1 0.57066-0.95766-0.76083 0.25921 0.30896 0.12527
   3   5  -6 7772.25  644.76   1 0.72156-0.33477-0.43490 0.93645-0.53871 0.10476
   3   5  -6 6857.53  630.36   1 0.46418-0.07741 0.69945-0.19743 0.54341-0.97725
  -3  -5   6 7103.30  664.65   1 0.39061-0.77809-0.09882-0.40302 0.91523-0.48181
  -3  -5   524918.50  890.47   1 0.58977-0.95634-0.76001 0.27839 0.27302 0.08884
   3   5  -523830.36 2535.99   1 0.72204-0.35563-0.43651 0.91807-0.53675 0.17512
   3   5  -521740.09 2089.81   1 0.47657-0.11017 0.62062-0.13864 0.62265-0.98419
  -3  -5   525944.62 2318.42   1 0.38356-0.75061-0.12213-0.35975 0.91540-0.55421
  -3  -5   4 5367.62  389.88   1 0.60749-0.95365-0.75799 0.29637 0.23746 0.05202
   3   5  -4 4936.28  500.48   1 0.72006-0.37402-0.43003 0.89158-0.54458 0.25529
   3   5  -4 5146.41  460.59   1 0.48316-0.13713 0.52696-0.06502 0.69918-0.98841
  -3  -5   4 5132.63  565.21   1 0.37206-0.71869-0.15848-0.30343 0.91457-0.62562
  -3  -5   346945.18 3598.20   1 0.62381-0.94955-0.75487 0.31326 0.20251 0.01460
   3   5  -342863.00 1230.54   1 0.71387-0.38820-0.41094 0.85250-0.56701 0.35004
   3   5  -343643.77 1237.09   1 0.48203-0.15607 0.41687 0.02521 0.77062-0.98742
  -3  -5   342191.97 4107.20   1 0.35507-0.68139-0.20980-0.23203 0.91098-0.69416
  -3  -5   2156752.3 3547.41   1 0.63858-0.94392-0.75083 0.32928 0.16870-0.02398
   3   5  -2154709.9 3456.43   1 0.69890-0.39361-0.37001 0.79157-0.61205 0.46741
   3   5  -2156907.5 3551.57   1 0.47160-0.16598 0.29000 0.13201 0.83275-0.97725
  -3  -5   2147868.2 3479.15   1 0.33049-0.63629-0.27697-0.14493 0.90225-0.75770
  -3  -5   117691.50 1650.17   1 0.65162-0.93655-0.74610 0.34455 0.13683-0.06447
   3   5  -118497.35  539.83   1 0.66153-0.37672-0.28564 0.68728-0.69338 0.62105
   3   5  -119879.15 1943.29   1 0.45011-0.16491 0.14759 0.25439 0.88068-0.95293
  -3  -5   118526.37 2313.40   1 0.29673-0.58204-0.36033-0.04164 0.88436-0.81209
  -3  -5   018167.58  475.65   1 0.66199-0.92651-0.74141 0.35986 0.10983-0.10983
   3   5   017664.53  364.22   1 0.55622-0.29177-0.10297 0.48461-0.82462 0.82462
   3   5   017841.25 1949.07   1 0.41629-0.15137-0.00579 0.38783 0.90921-0.90921
  -3  -5   017076.26 2052.46   1 0.25235-0.51728-0.45787 0.07582 0.85244-0.85244
  -3  -5  -1 1895.52  269.46   1 0.66517-0.90928-0.73979 0.37823 0.10122-0.17359
   3   5   1 1744.89  202.88   1 0.19986 0.04388 0.32049 0.04134-0.92592 0.99818
   3   5   1 1705.01  209.39   1 0.37089-0.12640-0.16208 0.52416 0.91442-0.84218
  -3  -5  -1 1773.32  249.34   1 0.19676-0.44114-0.56361 0.20154 0.80225-0.87451
   3   5   232583.52  880.70   1 0.31714-0.09334-0.31104 0.65324 0.89591-0.75136
  -3  -5  -232800.53  899.69   1 0.13140-0.35523-0.66957 0.32749 0.73102-0.87553
  -3  -5  -382933.99 1196.34   1 0.72596-0.92939-0.67735 0.35581-0.11901-0.09804
   3   5   379848.81 1637.11   1 0.25943-0.05613-0.44287 0.76514 0.85822-0.64140
  -3  -5  -421566.44  466.36   1 0.72365-0.90669-0.68182 0.38028-0.10694-0.18246
  -3  -5  -423107.53  472.68   1 0.01092-0.19351 0.48487-0.78714-0.87451 0.58562
   3   5   423564.43 2718.06   1 0.20328-0.02055-0.55201 0.85412 0.80867-0.51966
  -3  -5  -5 6151.07  703.55   1 0.72808-0.89073-0.67292 0.39137-0.13063-0.23113
  -3  -5  -5 5105.76  633.08   1-0.22777 0.06605 0.64501-0.92724-0.72943 0.36857
   3   5   5 5549.94  565.26   1 0.15290 0.00928-0.63671 0.91883 0.75578-0.39452
  -3  -5  -6112143.5 2577.66   1-0.33269 0.19161 0.69849-0.96076-0.63357 0.20054
   3   5   6114042.9 2843.03   1 0.11065 0.03097-0.69953 0.96166 0.70598-0.27246
  -3  -5  -7 2744.89  391.00   1 0.73771-0.85958-0.64642 0.40486-0.19469-0.31177
  -3  -5  -7 2540.45  231.91   1-0.38348 0.26305 0.71966-0.96196-0.57880 0.07360
   3   5   8  450.66   63.07   1 0.40756-0.30624-0.72975 0.95148 0.54894 0.02982
  -3  -5  -8  338.91   56.28   1 0.74145-0.84292-0.63060 0.40903-0.22930-0.34951
   3   5   929887.40 2149.35   1 0.41732-0.33639-0.73304 0.93479 0.53709 0.11402
  -3  -5  -930609.76 3444.08   1 0.74417-0.82525-0.61332 0.41174-0.26463-0.38654
   3   5   926743.92 2891.70   1 0.30463-0.22325 0.95203-0.75045 0.02871 0.62207
   3   5  10  731.44   77.34   1 0.41794-0.35740-0.73325 0.91501 0.53634 0.18712
  -3  -5 -10  765.34  100.56   1 0.74571-0.80652-0.59465 0.41307-0.30049-0.42293
   3   5  10  552.39   95.31   1 0.34254-0.28164 0.93120-0.74973 0.12455 0.59880
   3   5  1125305.83 1982.03   1 0.41229-0.37214-0.73137 0.89314 0.54323 0.25257
  -3  -5 -1126717.52 3212.43   1 0.74607-0.78651-0.57453 0.41295-0.33657-0.45920
   3   5  1124904.77 2346.68   1 0.37452-0.33399 0.90239-0.74096 0.21309 0.58259
  -3  -5 -1249259.52 2305.14   1 0.74512-0.76519-0.55294 0.41136-0.37287-0.49524
   3   5  1248728.38 5561.31   1 0.40151-0.38135 0.86696-0.72556 0.29520 0.57281
  -3  -6   7  404.55   83.94   1 0.55887-0.97073-0.76073 0.16278 0.33006 0.17654
   3   6  -7  387.00   85.25   1 0.69248-0.28087-0.35405 0.95191-0.62857 0.12230
   3   6  -7  323.95   59.26   1 0.45163-0.04011 0.75133-0.15286 0.48116-0.98743
  -3  -6   7  468.44   90.67   1 0.37744-0.78989-0.14171-0.45652 0.91512-0.40946
  -3  -6   6 1621.62  237.87   1 0.58105-0.97250-0.76055 0.18260 0.28970 0.14453
   3   6  -6 1334.89  260.02   1 0.69317-0.30193-0.35573 0.93360-0.62686 0.19291
   3   6  -6 1734.70  236.88   1 0.46671-0.07547 0.68663-0.10826 0.55740-0.99125
  -3  -6   6 1607.56  260.36   1 0.37404-0.76606-0.15234-0.42591 0.91481-0.48138
  -3  -6   5 4054.68  264.92   1 0.60203-0.97306-0.75875 0.20081 0.24866 0.11319
   3   6  -5 3087.81  496.11   1 0.69078-0.31992-0.34996 0.90782-0.63272 0.27109
   3   6  -5 3359.84  427.57   1 0.47762-0.10675 0.61095-0.05262 0.63135-0.99289
  -3  -6   5 3357.22  510.01   1 0.36733-0.73892-0.17290-0.38539 0.91387-0.55268
  -3  -6   491607.66 6328.45   1 0.62195-0.97256-0.75530 0.21736 0.20662 0.08286
   3   6  -493657.71 1591.10   1 0.68384-0.33335-0.33367 0.87154-0.64885 0.35955
   3   6  -492285.04 1520.76   1 0.48327-0.13278 0.52336 0.01491 0.70180-0.99103
  -3  -6   492720.10 1776.41   1 0.35659-0.70776-0.20456-0.33376 0.91158-0.62263
  -3  -6   373652.38 4907.63   1 0.64093-0.97116-0.75006 0.23220 0.16310 0.05397
   3   6  -372203.60 1687.11   1 0.66925-0.33913-0.30153 0.81940-0.67909 0.46212
   3   6  -370416.71 1676.95   1 0.48230-0.15184 0.42319 0.09528 0.76700-0.98380
  -3  -6   370145.66 1834.34   1 0.34114-0.67200-0.24861-0.26962 0.90653-0.68971
  -3  -6   2  579.08   65.79   1 0.65934-0.96916-0.74269 0.24483 0.11688 0.02783
   3   6  -2  550.14   60.84   1 0.63996-0.33036-0.24335 0.74132-0.72884 0.58420
   3   6  -2  596.29   71.56   1 0.47405-0.16400 0.31062 0.18780 0.82388-0.96841
  -3  -6   2  595.71   93.91   1 0.31936-0.62972-0.30547-0.19284 0.89704-0.75249
  -3  -6   1 5252.05  515.43   1 0.67761-0.96702-0.73246 0.25459 0.06585 0.00650
   3   6  -1 4864.94  581.12   1 0.58042-0.29118-0.14063 0.61859-0.80208 0.72975
   3   6  -1 5789.81  553.00   1 0.45703-0.16731 0.18692 0.29146 0.86958-0.94183
  -3  -6   1 5458.25  646.39   1 0.29025-0.58010-0.37534-0.10304 0.88026-0.80799
  -3  -6   0 9988.61  909.77   1 0.69675-0.96575-0.71729 0.25943 0.00458-0.00457
   3   6   0 9249.06 1189.07   1 0.45082-0.18227 0.04350 0.41462-0.89154 0.89154
   3   6   010905.04  988.26   1 0.43101-0.16171 0.05506 0.40330 0.90066-0.90066
  -3  -6   0 9318.19 1129.34   1 0.25276-0.52228-0.45704-0.00142 0.85277-0.85277
  -3  -6  -1   28.08   15.06   1 0.71889-0.96760-0.69004 0.25221-0.08387 0.01152
   3   6   1   90.95   15.58   1 0.16413 0.08394 0.35416 0.08401-0.92066 0.99292
   3   6   1   48.81   36.37   1 0.39618-0.14715-0.07978 0.51827 0.91469-0.84245
  -3  -6  -1   48.68   64.51   1 0.20623-0.45520-0.54669 0.10821 0.81153-0.88378
  -3  -6  -262518.13 1070.12   1 0.74474-0.97306-0.60814 0.19031-0.27478 0.13008
   3   6   260748.16 1034.84   1-0.32375 0.55189 0.69442-0.27588-0.64261 0.78695
   3   6   259681.10 1456.54   1 0.35452-0.12618-0.21137 0.62997 0.91084-0.76629
  -3  -6  -259193.48 1480.85   1 0.15120-0.37962-0.63937 0.22087 0.75388-0.89838
  -3  -6  -362714.70 1081.63   1 0.60979-0.81749-0.75763 0.35971 0.23267-0.44979
   3   6   364192.91 1557.15   1 0.30826-0.10041-0.33288 0.73156 0.89115-0.67433
  -3  -6  -414263.22 1181.39   1 0.67778-0.86514-0.73234 0.35447 0.06534-0.35478
  -3  -6  -413644.00  361.23   1 0.30852-0.49548 0.21012-0.58874-0.92771 0.63865
   3   6   415521.30 1801.66   1 0.26116-0.07382-0.43924 0.81799 0.85957-0.57047
  -3  -6  -539509.71  644.23   1 0.02363-0.19015 0.47481-0.83357-0.87976 0.51864
   3   6   542087.07 3772.51   1 0.21641-0.04963-0.52803 0.88656 0.82118-0.45992
  -3  -6  -614325.87 1502.84   1 0.71737-0.86412-0.69242 0.35456-0.07695-0.35716
  -3  -6  -614096.46  454.70   1-0.14255-0.00352 0.59493-0.93383-0.79103 0.35769
   3   6   616120.66 1421.63   1 0.17647-0.03025-0.59847 0.93702 0.78145-0.34794
  -3  -6  -750518.07 1413.06   1 0.72744-0.85380-0.67430 0.35643-0.12703-0.37943
  -3  -6  -750216.51 1390.23   1-0.23880 0.11388 0.65120-0.96991-0.72034 0.21514
   3   6   751030.95 1607.77   1 0.14277-0.01710-0.65242 0.97098 0.74427-0.23851
  -3  -6  -811106.99 1147.66   1 0.73481-0.84078-0.65590 0.35803-0.17274-0.40608
  -3  -6  -811062.02 1339.93   1-0.29125 0.18697 0.67884-0.97759-0.67404 0.09666
   3   6   811620.20  997.89   1 0.11575-0.01063-0.69232 0.99089 0.71224-0.13422
  -3  -6  -9 1680.56  196.04   1 0.74014-0.82572-0.63680 0.35891-0.21602-0.43514
  -3  -6  -9 1721.51  115.79   1-0.32025 0.23662 0.69281-0.97159-0.64610-0.00344
   3   6   9 1472.90  178.62   1 0.26866-0.18279 0.96161-0.68367-0.05572 0.70651
  -3  -6 -10  549.03   95.89   1 0.74374-0.80892-0.61673 0.35884-0.25784-0.46568
  -3  -6 -10  488.70   79.42   1-0.33461 0.27162 0.69935-0.95817-0.63161-0.09011
   3   6  10  576.84  108.24   1 0.31075-0.24525 0.94948-0.69156 0.04370 0.67940
  -3  -6 -11 1184.16  220.19   1 0.74566-0.79059-0.59558 0.35769-0.29876-0.49700
  -3  -6 -11 1033.86  152.97   1-0.33916 0.29681 0.70137-0.94022-0.62693-0.16695
   3   6  11 1221.67  126.45   1 0.34751-0.30251 0.92749-0.68969 0.13780 0.65788
  -3  -6 -1210738.85 1414.94   1 0.74605-0.77060-0.57313 0.35524-0.33899-0.52911
  -3  -6 -1210004.21 1451.04   1-0.33666 0.31495 0.70026-0.91915-0.62951-0.23655
   3   6  12 9606.22 1104.60   1 0.37886-0.35423 0.89748-0.67972 0.22577 0.64225
  -3  -7   614291.63 1282.99   1 0.58636-0.98226-0.76026 0.10599 0.27960 0.15463
   3   7  -614194.90 1157.09   1 0.65512-0.25964-0.27270 0.92700-0.70458 0.27065
   3   7  -613583.54 1526.18   1 0.46772-0.07202 0.68119-0.02647 0.56320-0.99705
  -3  -7   613008.13 2518.97   1 0.35694-0.75350-0.20356-0.45111 0.91167-0.47825
  -3  -7   529444.22 1754.31   1 0.60870-0.98419-0.75780 0.12354 0.23495 0.12690
   3   7  -527685.50 2315.84   1 0.64878-0.27366-0.26021 0.89451-0.71510 0.35348
   3   7  -524868.57 2362.76   1 0.47779-0.10246 0.60924 0.02543 0.63287-0.99441
  -3  -7   525423.22 3139.50   1 0.35084-0.72726-0.22181-0.41270 0.90978-0.54841
  -3  -7   438857.25 3379.44   1 0.63005-0.98512-0.75332 0.13906 0.18851 0.10097
   3   7  -437593.98 2833.54   1 0.63582-0.28106-0.23561 0.84991-0.73499 0.44570
   3   7  -436331.65 3137.58   1 0.48314-0.12819 0.52762 0.08700 0.69869-0.98792
  -3  -7   435136.72 3963.52   1 0.34086-0.69678-0.24936-0.36521 0.90643-0.61733
  -3  -7   349074.23 3483.52   1 0.65056-0.98527-0.74652 0.15235 0.13948 0.07759
   3   7  -347345.13 1522.28   1 0.61231-0.27792-0.19355 0.78785-0.76655 0.54958
   3   7  -346718.99 3414.53   1 0.48277-0.14781 0.43616 0.15869 0.75940-0.97620
  -3  -7   346112.42 4848.26   1 0.32651-0.66192-0.28729-0.30736 0.90047-0.68365
  -3  -7   238095.20 2680.38   1 0.67064-0.98494-0.73676 0.16259 0.08602 0.05869
   3   7  -234569.72 3294.50   1 0.57067-0.25664-0.12523 0.69953-0.81156 0.66692
   3   7  -236486.39 3070.77   1 0.47646-0.16191 0.33526 0.23954 0.81275-0.95728
  -3  -7   237848.95 3826.37   1 0.30695-0.62186-0.33605-0.23867 0.89041-0.74586
  -3  -7   1   41.63   30.33   1 0.69067-0.98455-0.72272 0.16855 0.02512 0.04723
   3   7  -1  236.97   40.72   1 0.49590-0.20264-0.01601 0.57046-0.86822 0.79593
   3   7  -1   74.67   49.65   1 0.46318-0.16896 0.22606 0.32871 0.85694-0.92919
  -3  -7   1  180.27   38.94   1 0.28129-0.57570-0.39560-0.15920 0.87428-0.80201
  -3  -7   010127.95 1106.23   1 0.71121-0.98468-0.70120 0.16702-0.04988 0.04988
   3   7   0 7879.34 1238.84   1 0.35993-0.08724 0.15317 0.38132-0.92031 0.92031
   3   7   0 9425.05  795.09   1 0.44296-0.16915 0.11067 0.42408 0.88968-0.88968
  -3  -7   0 9461.87 1261.41   1 0.24878-0.52288-0.46516-0.06971 0.84954-0.84954
  -3  -7  -1 5265.44  876.11   1 0.73215-0.98535-0.66328 0.14915-0.15494 0.08259
   3   7   1 5337.04  440.44   1 0.12170 0.13070 0.39256 0.12195-0.91163 0.98389
   3   7   1 5775.57  467.38   1 0.41587-0.16230-0.00743 0.52233 0.90939-0.83715
  -3  -7  -1 5634.94  678.45   1 0.20881-0.46237-0.54200 0.02710 0.81401-0.88627
  -3  -7  -248367.03 1073.42   1 0.74610-0.97890-0.57762 0.08345-0.33117 0.18649
   3   7   248862.05 1422.84   1 0.38294-0.14979-0.12414 0.61906 0.91539-0.77091
  -3  -7  -244592.40 1385.14   1 0.16155-0.39456-0.62294 0.12803 0.76539-0.90990
  -3  -7  -312134.85  275.17   1 0.49566-0.70786-0.75360 0.27932 0.43172-0.64876
  -3  -7  -312834.99  278.59   1 0.69564-0.90799-0.36182-0.11237-0.62061 0.40364
   3   7   313280.01 1255.25   1 0.34618-0.13379-0.23480 0.70989 0.90830-0.69148
  -3  -7  -314633.33 1973.63   1 0.10790-0.32036-0.70337 0.22845 0.70257-0.91933
  -3  -7  -416029.01 1253.94   1 0.62028-0.81201-0.75566 0.30142 0.21028-0.49977
  -3  -7  -416553.41  356.82   1 0.49657-0.68816-0.01693-0.43773-0.86782 0.57863
   3   7   419046.62 1596.59   1 0.30724-0.11535-0.33534 0.79050 0.89058-0.60148
  -3  -7  -5 2496.14  194.58   1 0.67164-0.84306-0.73618 0.30200 0.08321-0.44501
  -3  -7  -5 2425.82  430.47   1 0.24790-0.41883 0.27331-0.70840-0.92943 0.56810
   3   7   5 2887.04  262.29   1 0.26880-0.09741-0.42296 0.85820 0.86535-0.50398
   3   7   663474.33 5067.01   1 0.23287-0.08206-0.49675 0.91171 0.83606-0.40255
  -3  -7  -7 2537.15  251.71   1 0.71506-0.84592-0.69586 0.30169-0.06670-0.43976
  -3  -7  -7 2019.97  376.64   1-0.07281-0.05720 0.54754-0.94293-0.83359 0.32803
   3   7   7 2498.45  178.97   1 0.20098-0.07072-0.55613 0.95110 0.80642-0.30065
  -3  -7  -8  -11.02   66.28   1 0.72662-0.83709-0.67600 0.30183-0.12256-0.45625
  -3  -7  -8   78.71   58.47   1-0.15370 0.04412 0.60208-0.97761-0.78349 0.20570
   3   7   8  -21.21   93.46   1 0.17405-0.06434-0.60251 0.97750 0.77889-0.20087
  -3  -7  -9 8502.16  886.48   1 0.73486-0.82493-0.65574 0.30156-0.17312-0.47805
  -3  -7  -9 8168.99  553.90   1-0.20698 0.11886 0.63302-0.98822-0.74594 0.09639
   3   7   9 8210.08  858.79   1 0.15242-0.06326-0.63746 0.99245 0.75525-0.10498
  -3  -7 -10  115.00   56.23   1 0.74060-0.81028-0.63475 0.30056-0.22043-0.50308
  -3  -7 -10   47.64   50.50   1-0.23713 0.16965 0.65027-0.98550-0.72174 0.00002
   3   7  10  140.32   50.21   1 0.28054-0.21055 0.95941-0.62514-0.02846 0.75157
   3   7  10   -5.05  106.33   1 0.13605-0.06744-0.66261 0.99762 0.73649-0.01397
  -3  -7 -1125797.26 2933.10   1 0.74423-0.79353-0.61281 0.29861-0.26565-0.53022
  -3  -7 -1123787.91 2776.90   1-0.25364 0.20680 0.65932-0.97458-0.70778-0.08610
   3   7  1123650.94 2420.91   1 0.32054-0.27092 0.94478-0.63053 0.06807 0.72734
   3   7  1122724.97 4393.12   1 0.12468-0.07662-0.67945 0.99447 0.72304 0.07172
  -3  -7 -1243507.27 1385.33   1 0.74592-0.77496-0.58976 0.29555-0.30948-0.55863
  -3  -7 -1243616.89 1356.28   1-0.26038 0.23419 0.66293-0.95823-0.70193-0.16412
   3   7  1244358.46 4672.79   1 0.35585-0.32675 0.92066-0.62654 0.16043 0.70758
   3   7  1245553.44 1522.39   1 0.11795-0.09044-0.68918 0.98421 0.71492 0.15210
  -3  -8   5   36.61   73.08   1 0.61039-0.99034-0.75753 0.04695 0.23141 0.13044
   3   8  -5   40.94   47.96   1 0.59805-0.21850-0.16936 0.87999-0.78335 0.42174
   3   8  -5   35.77   42.87   1 0.47733-0.09754 0.61368 0.09734 0.62892-0.99045
  -3  -8   5  123.92   55.70   1 0.33358-0.71455-0.26885-0.44207 0.90357-0.54220
  -3  -8   411894.93 1958.79   1 0.63271-0.99231-0.75259 0.06211 0.18240 0.10703
   3   8  -411260.25  890.38   1 0.57902-0.21983-0.13839 0.82902-0.80347 0.51418
   3   8  -410941.65  841.02   1 0.48278-0.12336 0.53770 0.15328 0.69122-0.98045
  -3  -8   411665.60 1263.21   1 0.32433-0.68480-0.29287-0.39812 0.89946-0.61036
  -3  -8   357220.42 3875.22   1 0.65424-0.99342-0.74500 0.07452 0.13016 0.08691
   3   8  -352457.98 4206.88   1 0.48324-0.14378 0.45388 0.21736 0.74864-0.96544
  -3  -8   352236.70 5559.72   1 0.31114-0.65111-0.32585-0.34521 0.89275-0.67592
  -3  -8   2 2030.76  218.46   1 0.67515-0.99392-0.73404 0.08356 0.07310 0.07162
   3   8  -2 1421.12  339.85   1 0.49598-0.17801-0.01612 0.66688-0.86818 0.72358
   3   8  -2 1957.15  224.61   1 0.47876-0.15971 0.36268 0.28851 0.79952-0.94405
  -3  -8   2 2041.64  277.55   1 0.29340-0.61287-0.36807-0.28306 0.88228-0.73774
  -3  -8   126770.20 1489.24   1 0.69570-0.99406-0.71827 0.08779 0.00819 0.06416
   3   8  -126081.83  673.90   1 0.41253-0.11490 0.09123 0.53957-0.90635 0.83406
   3   8  -125590.96 2238.47   1 0.46857-0.16984 0.26510 0.36607 0.84271-0.91495
  -3  -8   125429.20 2436.60   1 0.27045-0.56941-0.41941-0.21180 0.86657-0.79429
  -3  -8   0 6511.11  514.25   1 0.71586-0.99396-0.69469 0.08427-0.07022 0.07022
   3   8   0 4581.42 1121.70   1 0.27849-0.00147 0.24194 0.36890-0.92946 0.92946
   3   8   0 6228.65  598.13   1 0.45285-0.17454 0.16271 0.44843 0.87660-0.87660
  -3  -8   0 6456.36  715.27   1 0.24171-0.52040-0.47937-0.13192 0.84366-0.84366
  -3  -8  -1  169.61   39.29   1 0.73499-0.99269-0.65536 0.06493-0.17402 0.10166
   3   8   1  159.03   37.59   1 0.07504 0.18169 0.43287 0.15798-0.89832 0.97057
   3   8   1  165.46   47.73   1 0.43165-0.17375 0.05789 0.53323 0.90017-0.82793
  -3  -8  -1  183.96   64.14   1 0.20669-0.46483-0.54586-0.04544 0.81197-0.88423
  -3  -8  -2 7552.99  542.32   1 0.74609-0.98339-0.58063 0.01015-0.32587 0.18119
   3   8   2 8150.26  266.91   1-0.19206 0.42918 0.62414-0.05278-0.75733 0.90167
   3   8   2 7369.71  618.95   1 0.40561-0.16793-0.04621 0.61754 0.91287-0.76839
  -3  -8  -2 7057.11  694.60   1 0.16538-0.40297-0.61676 0.04544 0.76957-0.91408
  -3  -8  -373555.15 1670.60   1 0.42592-0.64258-0.73582 0.18522 0.52644-0.74348
  -3  -8  -375079.35 1684.05   1 0.71975-0.93655-0.42904-0.12145-0.54577 0.32879
   3   8   373032.64 2042.84   1 0.37586-0.15861-0.14666 0.69803 0.91499-0.69827
  -3  -8  -372530.66 2096.13   1 0.11825-0.33529-0.68876 0.13742 0.71527-0.93203
  -3  -8  -4  169.00   26.05   1 0.56952-0.76570-0.76084 0.23029 0.31105-0.60054
  -3  -8  -4  155.65   39.76   1 0.60574-0.80202-0.18229-0.34832-0.77449 0.48520
   3   8   4  204.93   31.77   1 0.34424-0.14780-0.24014 0.77171 0.90764-0.61855
   3   8   5109924.3 2539.20   1 0.31178-0.13584-0.32431 0.83595 0.89309-0.53172
   3   8   624897.94 2055.25   1 0.28043-0.12500-0.39751 0.88923 0.87369-0.44004
  -3  -8  -7  218.48   34.11   1 0.70259-0.83766-0.71140 0.24090-0.01635-0.49017
  -3  -8  -7  240.36   43.99   1 0.09434-0.22890 0.41644-0.88815-0.90425 0.39847
   3   8   7  182.45   45.26   1 0.25153-0.11669-0.45956 0.93094 0.85178-0.34601
  -3  -8  -8 9217.54  845.01   1 0.71825-0.83322-0.69104 0.24056-0.08096-0.49786
  -3  -8  -8 8542.12  876.66   1-0.00832-0.10562 0.49983-0.95169-0.86608 0.28829
   3   8   8 8390.38  870.88   1 0.22606-0.11177-0.50985 0.96124 0.83002-0.25200
  -3  -8  -9  253.97  105.64   1 0.72930-0.82387-0.67021 0.23972-0.13759-0.51357
   3   8   9  205.71   67.38   1 0.20468-0.11093-0.54949 0.98090 0.81003-0.15976
  -3  -8 -10 1224.05  207.83   1 0.73707-0.81125-0.64868 0.23818-0.18955-0.53397
   3   8  10 1093.86  205.45   1 0.18765-0.11445-0.57949 0.99091 0.79307-0.07055
  -3  -8 -11 9565.44 1538.05   1 0.74227-0.79606-0.62623 0.23573-0.23845-0.55742
   3   8  1111103.85 1772.12   1 0.29528-0.24117 0.95538-0.56477 0.00619 0.78921
   3   8  1111188.27 1167.19   1 0.17499-0.12235-0.60094 0.99237 0.77990 0.01487
  -3  -9   4  417.88  132.95   1 0.63060-0.99467-0.75317-0.01361 0.18726 0.10218
   3   9  -4  397.73   53.37   1 0.51508-0.15207-0.04260 0.80963-0.85607 0.56688
   3   9  -4  556.84   82.58   1 0.48212-0.11824 0.55219 0.21514 0.68016-0.96939
  -3  -9   4  372.86   69.57   1 0.30714-0.67216-0.33558-0.43182 0.89052-0.60143
  -3  -9   314735.69 1274.93   1 0.65285-0.99651-0.74558-0.00120 0.13370 0.08338
   3   9  -315958.86  677.39   1 0.47676-0.13409 0.00973 0.73733-0.87897 0.66208
   3   9  -314337.61 1121.26   1 0.48352-0.13957 0.47510 0.27253 0.73517-0.95196
  -3  -9   310675.87 2476.02   1 0.29501-0.63953-0.36433-0.38314 0.88330-0.66647
  -3  -9   255005.01 1592.61   1 0.67432-0.99757-0.73456 0.00777 0.07551 0.06920
   3   9  -254969.25 1515.98   1 0.41842-0.09608 0.08404 0.64306-0.90435 0.75975
   3   9  -248668.83 4535.81   1 0.48075-0.15720 0.39210 0.33548 0.78430-0.92883
  -3  -9   246831.12 4512.66   1 0.27882-0.60283-0.40109-0.32645 0.87257-0.72802
  -3  -9   141203.17 2495.05   1 0.69514-0.99798-0.71879 0.01200 0.01011 0.06224
   3   9  -141917.58 1184.72   1 0.33073-0.02903 0.18592 0.52116-0.92522 0.85296
   3   9  -139141.85 3504.83   1 0.47335-0.17020 0.30403 0.40350 0.82674-0.89900
  -3  -9   139813.27 3762.81   1 0.25808-0.56190-0.44605-0.26163 0.85698-0.78473
  -3  -9   017972.25  993.65   1 0.71512-0.99771-0.69578 0.00906-0.06695 0.06695
   3   9   018037.14  543.57   1 0.20201 0.07942 0.31841 0.36863-0.92617 0.92617
   3   9   018100.99 1454.18   1 0.46109-0.17827 0.21226 0.47527 0.86158-0.86158
  -3  -9   016460.00 1902.62   1 0.23229-0.51556-0.49787-0.18982 0.83555-0.83555
  -3  -9  -167271.78 1846.56   1 0.73355-0.99575-0.65952-0.00721-0.16410 0.09175
   3   9   163010.89 1718.28   1 0.02393 0.23747 0.47457 0.19259-0.87988 0.95211
   3   9   165074.39 4528.33   1 0.44451-0.18210 0.11840 0.54911 0.88791-0.81566
  -3  -9  -158784.65 6036.33   1 0.20112-0.46385-0.55587-0.11184 0.80657-0.87882
   3   9   233338.75  599.83   1-0.19528 0.43688 0.62607 0.02169-0.75491 0.89925
   3   9   231414.00 2216.23   1 0.42389-0.18166 0.02481 0.62292 0.90537-0.76089
  -3  -9  -229108.51 2693.31   1 0.16448-0.40665-0.61822-0.02950 0.76859-0.91310
  -3  -9  -312720.33  360.23   1 0.73515-0.95656-0.48620-0.14059-0.47239 0.25536
   3   9   311598.82  339.92   1-0.39549 0.61646 0.72416-0.09634-0.56495 0.78146
   3   9   312465.47 1184.57   1 0.40000-0.17821-0.06640 0.69418 0.91410-0.69739
  -3  -9  -312740.01 1077.92   1 0.12259-0.34422-0.68249 0.05475 0.72053-0.93728
  -3  -9  -498423.53 1021.49   1 0.53509-0.73573-0.75925 0.15237 0.37041-0.65990
   3   9   4103106.1 1850.00   1 0.37389-0.17252-0.15282 0.76062 0.91479-0.62584
  -3  -9  -543554.12  763.14   1 0.61682-0.79705-0.75637 0.16949 0.21777-0.57963
   3   9   545918.93 3713.86   1 0.34714-0.16665-0.23215 0.82020 0.90862-0.54725
  -3  -9  -612645.72  452.94   1 0.66341-0.82337-0.74070 0.17390 0.10603-0.54019
  -3  -9  -613113.18  441.08   1 0.39322-0.55246 0.11445-0.68237-0.91228 0.47869
   3   9   613322.41  944.92   1 0.32028-0.16030-0.30316 0.87128 0.89750-0.46385
  -3  -9  -826939.04 2060.24   1 0.71113-0.83027-0.70130 0.17449-0.04955-0.52933
  -3  -9  -827834.70  788.86   1 0.13890-0.25743 0.37719-0.90539-0.91565 0.33762
   3   9   826510.84 3260.64   1 0.27170-0.15272-0.41671 0.94497 0.86748-0.28929
  -3  -9  -910513.65 1174.47   1 0.72446-0.82353-0.68030 0.17351-0.11109-0.54007
  -3  -9  -9 8802.29 1593.46   1 0.05435-0.15251 0.45011-0.95846-0.89131 0.24102
   3   9   9 9754.83 1194.50   1 0.25150-0.15317-0.45962 0.96743 0.85175-0.20148
  -3  -9 -1036061.75 1679.26   1 0.73391-0.81259-0.65849 0.17169-0.16656-0.55696
  -3  -9 -1036829.67 1697.87   1-0.00651-0.07092 0.49844-0.98693-0.86689 0.14466
   3   9  1034999.26 1766.61   1 0.23478-0.15700-0.49302 0.98085 0.83773-0.11521
  -3 -10   3 2984.85  460.81   1 0.64671-0.99485-0.74802-0.07507 0.14907 0.06801
   3  10  -3 1785.12  831.35   1 0.40153-0.05448 0.10452 0.71890-0.90986 0.69296
   3  10  -3 3595.52  344.34   1 0.48348-0.13502 0.49897 0.32504 0.71920-0.93600
  -3 -10   3 3240.61  347.07   1 0.27808-0.62714-0.40274-0.42114 0.87204-0.65522
   3  10  -2  115.83   42.43   1 0.33869-0.01231 0.17710 0.62622-0.92407 0.77954
   3  10  -2  316.19   84.98   1 0.48229-0.15424 0.42301 0.38095 0.76710-0.91163
  -3 -10   2   71.69   82.54   1 0.26323-0.59179-0.43486-0.36910 0.86116-0.71661
  -3 -10   134456.71 1375.90   1 0.68989-0.99721-0.72337-0.05972 0.02767 0.04468
   3  10  -133657.76 1309.70   1 0.24961 0.05641 0.27158 0.51186-0.92948 0.85721
   3  10  -132385.51 2877.59   1 0.47715-0.16951 0.34299 0.44093 0.80911-0.88138
  -3 -10   130738.52 3103.44   1 0.24431-0.55272-0.47418-0.30991 0.84584-0.77359
  -3 -10   091145.55 2154.62   1 0.71020-0.99711-0.70250-0.06060-0.04577 0.04577
   3  10   090323.82 2095.43   1 0.12741 0.15836 0.38749 0.37590-0.91302 0.91302
   3  10   084767.78 7132.57   1 0.46791-0.18057 0.26001 0.50392 0.84465-0.84465
  -3 -10   081109.60 2431.47   1 0.22096-0.50882-0.51952-0.24459 0.82539-0.82539
  -3 -10  -120659.50 2096.02   1 0.72878-0.99548-0.67138-0.07165-0.13460 0.06225
   3  10   126188.08  638.76   1-0.03078 0.29656 0.51687 0.22663-0.85550 0.92773
   3  10   124878.96 1819.76   1 0.45506-0.18814 0.17528 0.56862 0.87303-0.80079
  -3 -10  -121885.50 2129.45   1 0.19289-0.46021-0.57040-0.17372 0.79839-0.87064
  -3 -10  -2 6329.87  296.61   1 0.74307-0.98938-0.62135-0.10169-0.24851 0.10380
   3  10   2 6024.36  278.57   1-0.21774 0.46384 0.63928 0.08490-0.73749 0.88184
   3  10   2 6283.49  461.06   1 0.43878-0.19228 0.09046 0.63342 0.89402-0.74953
  -3 -10  -2 5968.87  529.52   1 0.15999-0.40676-0.62545-0.09869 0.76368-0.90818
  -3 -10  -3 4947.30  244.22   1 0.74371-0.96962-0.53768-0.16542-0.39721 0.18018
   3  10   3 4670.58  233.79   1-0.38968 0.61513 0.72201-0.01778-0.57170 0.78821
   3  10   3 5019.26  386.29   1 0.41966-0.19333 0.00759 0.69658 0.90764-0.69093
  -3 -10  -3 4278.30  440.38   1 0.12238-0.34859-0.68280-0.02134 0.72027-0.93703
  -3 -10  -4  744.38  193.50   1 0.51901-0.72411-0.75740 0.07420 0.39618-0.68567
  -3 -10  -4  679.28  238.88   1 0.71154-0.91687-0.40414-0.27898-0.57478 0.28548
   3  10   4 1077.10  187.86   1 0.39843-0.19252-0.07195 0.75616 0.91437-0.62542
  -3 -10  -574321.28 1694.58   1 0.60291-0.78759-0.75864 0.09544 0.24689-0.60875
  -3 -10  -575850.11 1675.56   1 0.63166-0.81644-0.22795-0.43532-0.74097 0.37935
   3  10   576898.27 2173.60   1 0.37598-0.19050-0.14631 0.81055 0.91500-0.55381
  -3 -10  -6109917.2 1348.03   1 0.65356-0.81800-0.74529 0.10217 0.13190-0.56606
  -3 -10  -6110941.1 1279.79   1 0.51618-0.68022-0.04415-0.59965-0.85533 0.42154
   3  10   6113658.4 2110.80   1 0.35367-0.18914-0.21379 0.85833 0.91060-0.47696
  -3 -10  -740731.43 1164.19   1 0.68525-0.82928-0.72706 0.10394 0.04255-0.54907
  -3 -10  -742587.42 1171.00   1 0.39196-0.53518 0.11594-0.74034-0.91264 0.40678
   3  10   739952.76 3851.97   1 0.33166-0.18763-0.27389 0.89850 0.90276-0.39684
  -3 -10  -8  819.53  164.02   1 0.70648-0.83010-0.70704 0.10392-0.03105-0.54783
  -3 -10  -8  700.55  175.75   1 0.27952-0.40238 0.24086-0.84537-0.92943 0.35130
   3  10   8 1016.94  138.26   1 0.31116-0.18763-0.32582 0.93050 0.89275-0.31456
  -3 -10  -9 2293.75  352.96   1 0.72130-0.82487-0.68602 0.10293-0.09530-0.55586
  -3 -10  -9 1648.43  514.93   1 0.18752-0.29002 0.33225-0.91693-0.92435 0.27407
   3  10   9 2414.56  434.59   1 0.29283-0.18980-0.36939 0.95414 0.88192-0.23145
  -3 -10 -10  257.37  104.84   1 0.73183-0.81501-0.66409 0.10099-0.15295-0.57057
  -3 -10 -10  185.35   51.06   1 0.11660-0.19873 0.39706-0.96188-0.91035 0.18781
   3  10  10  268.03   77.91   1 0.27718-0.19466-0.40471 0.96953 0.87142-0.14867
   3  11  -123244.16 3317.84   1 0.48012-0.16798 0.38195 0.47836 0.78967-0.86194
  -3 -11   124230.89 2340.50   1 0.22929-0.54228-0.50368-0.35683 0.83290-0.76065
   3  11   0 5021.15  522.70   1 0.47360-0.18186 0.30634 0.53392 0.82574-0.82574
  -3 -11   0 5079.78  535.75   1 0.20799-0.50043-0.54350-0.29702 0.81322-0.81322
   3  11   1 8175.42  763.63   1 0.46368-0.19225 0.22944 0.59086 0.85577-0.78353
  -3 -11  -1 7405.94  646.11   1 0.18248-0.45438-0.58833-0.23220 0.78775-0.86000
   3  11   2   45.44   89.84   1 0.45098-0.19997 0.15231 0.64796 0.87943-0.73494
  -3 -11  -2   39.21   67.60   1 0.15266-0.40401-0.63708-0.16346 0.75552-0.90002
   3  11   3 1314.58  124.91   1 0.43576-0.20517 0.07641 0.70385 0.89681-0.68007
  -3 -11  -3 1301.54  164.12   1 0.11857-0.34937-0.68829-0.09226 0.71567-0.93242
   3  11   412623.89  995.12   1 0.41864-0.20819 0.00348 0.75713 0.90814-0.61919
   3  11   5 9425.70  857.56   1 0.40021-0.21019-0.06566 0.80631 0.91406-0.55287
   3  11   6  359.41   88.85   1 0.38125-0.21166-0.12958 0.85026 0.91534-0.48191
   3  11   712571.33 1664.97   1 0.36250-0.21334-0.18731 0.88802 0.91296-0.40730
   3  11   8 1521.49  201.51   1 0.34514-0.21706-0.23768 0.91877 0.90795-0.32976
   3  12   3 6262.98  746.54   1 0.44898-0.21388 0.14157 0.71508 0.88225-0.66551
  -3 -12  -3 5713.39  635.07   1 0.11183-0.34722-0.69787-0.15910 0.70743-0.92418
   3  12   4 6371.06  605.23   1 0.43527-0.22059 0.07415 0.76247 0.89723-0.60825
   3  12   5  190.16   57.17   1 0.42035-0.22579 0.01035 0.80670 0.90730-0.54611
   4 -11  -5 4051.84  592.41   1 0.40792-0.03126 0.09682-0.83695-0.90786 0.54637
  -4  11   5 3932.75  417.20   1-0.32929-0.04784 0.69695 0.04374-0.63703 0.99789
  -4  11   5 2648.63  841.39   1 0.48233-0.85784 0.42395 0.31606 0.76655-0.40522
   4 -11  -4 3467.17  490.53   1 0.45812-0.10179 0.03413-0.79422-0.88823 0.59904
  -4  11   4 2931.79  361.57   1-0.26045-0.09604 0.66296 0.09770-0.70188 0.99057
  -4  11   4 2501.68  573.19   1 0.48336-0.83846 0.46067 0.29939 0.74440-0.45533
   4 -11  -3 9304.20  882.71   1 0.50903-0.17304-0.03413-0.74591-0.86006 0.64317
  -4  11   3 8415.57  818.03   1-0.18873-0.14712 0.62213 0.15849-0.75982 0.97633
  -4  11   3 7590.96 1179.34   1 0.48347-0.81817 0.49966 0.28045 0.71873-0.50193
   4 -11  -3 8802.69 1057.53   1 0.15321 0.18065-0.63622-0.14434 0.75614-0.97289
   4 -11  -231762.82 3824.46   1 0.55829-0.24323-0.10612-0.69347-0.82282 0.67818
  -4  11   231313.82 3147.26   1-0.11444-0.20167 0.57636 0.22362-0.80913 0.95358
  -4  11   228726.95 3846.80   1 0.48269-0.79730 0.54005 0.25971 0.68945-0.54483
   4 -11  -233065.60 3077.33   1 0.21016 0.10315-0.53954-0.26100 0.81530-0.95980
   4 -11  -1 4706.53  658.74   1 0.60447-0.30977-0.18015-0.63945-0.77598 0.70366
  -4  11   1 4982.15  590.93   1-0.04282-0.25285 0.52581 0.29403-0.84951 0.92174
  -4  11   1 4545.44  588.21   1 0.48035-0.77459 0.58030 0.23952 0.65765-0.58534
   4 -11  -1 5100.37  450.76   1 0.25640 0.03636-0.44954-0.37099 0.85566-0.92792
   4 -11   014666.20 1877.47   1 0.64542-0.37108-0.25373-0.58587-0.72044 0.72044
  -4  11   016380.44 1929.39   1 0.02550-0.30074 0.47332 0.36638-0.88052 0.88052
  -4  11   015047.03 1616.17   1 0.47664-0.75050 0.62001 0.21985 0.62321-0.62321
   4 -11   016008.47 1846.04   1 0.29279-0.02011-0.36950-0.47101 0.88189-0.88189
   4 -11   132463.24 4202.80   1 0.67994-0.42629-0.32483-0.53460-0.65738 0.72970
  -4  11  -134960.72 3138.73   1 0.08878-0.34399 0.42120 0.43838-0.90260 0.83035
  -4  11  -128360.02 4590.81   1 0.47150-0.72499 0.65866 0.20124 0.58638-0.65869
   4 -11   130727.24 4273.85   1 0.32129-0.06911-0.30061-0.55982 0.89799-0.82572
   4 -11   2 1012.04  206.92   1 0.70714-0.47386-0.39178-0.48764-0.58860 0.73325
  -4  11  -2  937.28  211.39   1 0.14560-0.38044 0.37114 0.50831-0.91709 0.77258
  -4  11  -2 1139.12  158.71   1 0.46491-0.69803 0.69586 0.18408 0.54737-0.69199
   4 -11   2  921.15  165.62   1 0.34310-0.11143-0.24328-0.63708 0.90724-0.76269
   4 -10  -7 8667.44 1532.51   1 0.45752-0.03653-0.74497 0.12167 0.48547-0.99189
   4 -10  -7 9381.06  762.48   1 0.25528 0.16709 0.26584-0.89023-0.92960 0.42374
   4 -10  -615315.56 1679.64   1 0.30044 0.10157 0.21879-0.86306-0.92836 0.49476
  -4  10   614507.01 1199.56   1-0.39654-0.00572 0.72454-0.08021-0.56372 0.99676
  -4  10   615337.08  766.86   1 0.47732-0.87773 0.34487 0.29871 0.80822-0.37462
   4 -10  -5   59.65   66.73   1 0.35101 0.03065 0.16329-0.82745-0.92202 0.56069
  -4  10   5  105.60   40.63   1-0.32910-0.05252 0.69687-0.03257-0.63722 0.99808
  -4  10   5   77.08   37.04   1 0.48031-0.86032 0.38490 0.27872 0.78812-0.42679
   4 -10  -4  409.02  111.56   1 0.40530-0.04460 0.09999-0.78372-0.90869 0.61950
  -4  10   4  343.30   57.82   1-0.25625-0.10473 0.66072 0.02353-0.70553 0.99422
  -4  10   4  177.58   53.93   1 0.48249-0.84210 0.42825 0.25542 0.76406-0.47499
   4 -10  -3 5869.22  533.65   1 0.46201-0.12164 0.02909-0.73278-0.88639 0.66949
  -4  10   3 5552.72  388.33   1-0.17956-0.16078 0.61654 0.08768-0.76657 0.98308
  -4  10   3 4992.61  730.67   1 0.48351-0.82271 0.47319 0.23054 0.73641-0.51961
   4 -10  -3 5742.67  571.66   1 0.16033 0.17811-0.62490-0.07924 0.76405-0.98081
   4 -10  -2 8012.72  467.68   1 0.51832-0.19829-0.04718-0.67645-0.85387 0.70928
  -4  10   2 7802.54  664.09   1-0.09971-0.22077 0.56635 0.15730-0.81810 0.96255
  -4  10   2 7725.43  794.84   1 0.48339-0.80247 0.51878 0.20463 0.70511-0.56049
   4 -10  -2 7608.86 1075.00   1 0.22436 0.09354-0.51310-0.21104 0.82848-0.97299
   4 -10  -170264.65 6081.36   1 0.57146-0.27233-0.12647-0.61680-0.81082 0.73850
  -4  10   170154.76 6301.22   1-0.02215-0.27789 0.51037 0.23313-0.85966 0.93189
  -4  10   169529.97 5317.83   1 0.48150-0.78020 0.56341 0.18005 0.67135-0.59904
   4 -10  -173230.98 5171.37   1 0.27494 0.02278-0.40963-0.33454 0.86983-0.94210
   4 -10   034277.51 2302.29   1 0.61958-0.34082-0.20625-0.55702-0.75734 0.75734
  -4  10   031666.84 2726.61   1 0.05198-0.33188 0.45207 0.31132-0.89046 0.89046
  -4  10   034063.30 3096.69   1 0.47804-0.75637 0.60675 0.15675 0.63507-0.63507
   4 -10   034509.40 3249.80   1 0.31420-0.03697-0.31834-0.44575 0.89438-0.89438
   4 -10   1 3584.83  411.09   1 0.66064-0.40223-0.28382-0.49945-0.69497 0.76730
  -4  10  -1 3453.47  272.78   1 0.12033-0.37987 0.39377 0.38948-0.91129 0.83904
  -4  10  -1 3514.48  440.20   1 0.47303-0.73098 0.64835 0.13520 0.59655-0.66886
   4 -10   1 3543.01  426.35   1 0.34389-0.08717-0.24111-0.54291 0.90752-0.83524
   4 -10   2 2674.10  427.65   1 0.69372-0.45598-0.35707-0.44604-0.62549 0.77014
  -4  10  -2 2691.21  249.64   1 0.18141-0.42059 0.33803 0.46508-0.92348 0.77897
  -4  10  -2 2687.63  374.31   1 0.46647-0.70405 0.68790 0.11569 0.55604-0.70065
   4 -10   2 2663.29  340.50   1 0.36562-0.12892-0.17803-0.62598 0.91357-0.76910
   4 -10   3  104.95   60.83   1 0.71831-0.50095-0.42447-0.39865-0.55122 0.76819
  -4  10  -3   93.71   70.20   1 0.23432-0.45317 0.28691 0.53628-0.92885 0.71205
  -4  10  -3  113.31   93.62   1 0.45855-0.67586 0.72532 0.09839 0.51345-0.73042
   4 -10   3   28.32   64.55   1 0.38176-0.16549-0.12793-0.69606 0.91536-0.69864
   4 -10   4 2020.43  253.46   1 0.73497-0.53856-0.48538-0.35770-0.47351 0.76288
  -4  10  -4 2075.63  423.73   1 0.27894-0.47744 0.24147 0.60161-0.92945 0.64038
  -4  10  -4 2061.63  257.99   1 0.44899-0.64593 0.76023 0.08352 0.46951-0.75880
   4 -10   4 2221.22  333.08   1 0.39332-0.19748-0.08961-0.75434 0.91501-0.62606
   4  -9  -8 8662.93  958.83   1 0.52230-0.07614-0.75783 0.23097 0.39099-0.96997
   4  -9  -8 9434.06 1079.49   1 0.15263 0.29452 0.36473-0.89293-0.91851 0.34048
   4  -9  -7 1402.84  167.57   1 0.46713-0.04168-0.74741 0.20042 0.47239-0.97882
   4  -9  -7 1710.83  147.49   1 0.19117 0.23561 0.32879-0.87684-0.92484 0.41907
   4  -9  -6 7297.47  524.19   1 0.23715 0.16919 0.28410-0.85202-0.92900 0.49540
  -4   9   6 7286.20  342.06   1 0.47256-0.87748 0.29690 0.27029 0.82977-0.39617
   4  -9  -532371.72 3005.88   1 0.29003 0.09596 0.22983-0.81763-0.92900 0.56767
  -4   9   532484.64 2062.12   1-0.33465-0.05146 0.69937-0.11149-0.63157 0.99243
  -4   9   533483.00  748.88   1 0.47745-0.86196 0.34646 0.24078 0.80746-0.44613
   4  -9  -4 1276.81  167.72   1 0.34864 0.01700 0.16597-0.77365-0.92244 0.63337
  -4   9   4 1310.98  150.73   1-0.25795-0.10752 0.66163-0.05379-0.70405 0.99274
  -4   9   4  948.84  185.81   1 0.48111-0.84521 0.39832 0.20897 0.78094-0.49187
   4  -9  -314871.94  895.50   1 0.41074-0.06600 0.09340-0.72073-0.90695 0.69005
  -4   9   314154.77  988.47   1-0.17613-0.16870 0.61443 0.01338-0.76905 0.98557
  -4   9   312935.58 1721.39   1 0.48316-0.82686 0.45056 0.17678 0.75069-0.53389
   4  -9  -314153.40 1389.25   1 0.16288 0.18015-0.62080-0.00693 0.76685-0.98361
   4  -9  -210815.79  730.13   1 0.47414-0.14974 0.01320-0.66049-0.88034 0.73574
  -4   9   210645.09 1030.08   1-0.09024-0.23461 0.55980 0.08751-0.82369 0.96814
  -4   9   210381.96  756.65   1 0.48345-0.80674 0.50184 0.14554 0.71723-0.57269
   4  -9  -210877.38  793.93   1 0.23645 0.08603-0.48975-0.15797 0.83918-0.98368
   4  -9  -133920.32 2616.88   1 0.53536-0.23129-0.07166-0.59558-0.84157 0.76927
  -4   9   133095.89 2817.35   1-0.00602-0.29839 0.49806 0.16911-0.86711 0.93934
  -4   9   133176.01 3100.73   1 0.48215-0.78532 0.55171 0.11540 0.68054-0.60823
   4  -9  -136689.99 1315.55   1 0.29298 0.00929-0.36904-0.29871 0.88202-0.95429
   4  -9   011772.08  630.13   1 0.59123-0.30803-0.15811-0.52883-0.79084 0.79084
  -4   9   011389.40  983.61   1 0.07464-0.35888 0.43320 0.25384-0.89819 0.89819
  -4   9   011907.42  836.49   1 0.47880-0.76160 0.59881 0.08834 0.64199-0.64199
   4  -9   012001.01 1065.05   1 0.33535-0.05357-0.26416-0.42352 0.90429-0.90429
   4  -9   145362.51 3415.38   1 0.63967-0.37684-0.24281-0.46413-0.72928 0.80160
  -4   9  -145465.90 2630.01   1 0.14887-0.41275 0.36816 0.33874-0.91776 0.84550
  -4   9  -146391.66 4204.29   1 0.47374-0.73616 0.64327 0.06393 0.60147-0.67377
   4  -9   141351.35 4650.03   1 0.36585-0.10419-0.17734-0.53030 0.91361-0.84138
   4  -9   241092.99 2776.25   1 0.67913-0.43694-0.32302-0.40378-0.65911 0.80376
  -4   9  -238422.78 2691.36   1 0.21475-0.45826 0.30608 0.42068-0.92746 0.78295
  -4   9  -237332.74 3748.54   1 0.46703-0.70908 0.68492 0.04232 0.55924-0.70385
   4  -9   237203.00 3746.79   1 0.38793-0.14669-0.10777-0.61984 0.91536-0.77088
   4  -9   320768.66 2844.17   1 0.70892-0.48710-0.39671-0.35008-0.58313 0.80010
  -4   9  -320303.54 1160.77   1 0.27126-0.49444 0.24944 0.49740-0.92961 0.71282
  -4   9  -320713.28 1628.65   1 0.45891-0.68068 0.72383 0.02352 0.51523-0.73220
   4  -9   318945.14 2042.83   1 0.40351-0.18270-0.05385-0.69373 0.91338-0.69667
   4  -9   429773.87 2690.21   1 0.72964-0.52874-0.46304-0.30373-0.50320 0.79257
  -4   9  -429193.85 3357.06   1 0.31834-0.52116 0.19950 0.56722-0.92674 0.63768
  -4   9  -428053.75 2015.15   1 0.44913-0.65053 0.75976 0.00763 0.47014-0.75943
   4  -9   427711.65 3067.66   1 0.41429-0.21391-0.01357-0.75398 0.91004-0.62109
   4  -9   510388.60 1817.54   1 0.74159-0.56106-0.52124-0.26552-0.42231 0.78402
  -4   9  -511912.89 1210.24   1 0.35648-0.53896 0.15710 0.62951-0.92099 0.55966
  -4   9  -511522.17 1032.01   1 0.43791-0.61894 0.79286-0.00541 0.42379-0.78541
   4  -9   511700.51 1631.50   1 0.42150-0.24154 0.01501-0.80253 0.90670-0.54551
   4  -8  -9 5470.68  610.31   1 0.58302-0.11197-0.76045 0.32991 0.28598-0.93734
   4  -8  -9 6409.62  806.26   1 0.05933 0.41251 0.44600-0.87800-0.89306 0.24277
   4  -8  -832328.27 3115.73   1 0.53640-0.08578-0.75937 0.30883 0.36825-0.94723
   4  -8  -834194.21 3166.64   1 0.08836 0.36312 0.42156-0.87342-0.90248 0.32444
   4  -8  -7  403.97  100.42   1 0.48158-0.05167-0.75075 0.28008 0.45215-0.95858
   4  -8  -7  430.24   86.67   1 0.12552 0.30560 0.38917-0.86088-0.91257 0.40679
   4  -8  -629474.22 2797.01   1 0.41823-0.00871-0.73334 0.24269 0.53598-0.97006
   4  -8  -632784.45 2118.61   1 0.17125 0.23951 0.34755-0.83912-0.92188 0.48836
  -4   8   632999.84  883.86   1 0.46598-0.87538 0.24564 0.24536 0.85001-0.41653
   4  -8  -517112.82 1258.65   1 0.22552 0.16480 0.29563-0.80708-0.92829 0.56696
  -4   8   517021.16 1234.98   1-0.34645-0.04415 0.70455-0.19309-0.61932 0.98018
  -4   8   517532.83  488.19   1 0.47387-0.86288 0.30891 0.20194 0.82463-0.46329
   4  -8  -4 1004.01   86.89   1 0.28746 0.08251 0.23254-0.76387-0.92913 0.64006
  -4   8   4  857.30   92.73   1-0.26626-0.10370 0.66604-0.13461-0.69676 0.98545
  -4   8   4  825.82  106.00   1 0.47947-0.84807 0.37233 0.15857 0.79465-0.50558
   4  -8  -3 4945.97  465.07   1 0.35522-0.00560 0.15853-0.70973-0.92123 0.70444
  -4   8   3 4536.22  450.25   1-0.17928-0.17004 0.61637-0.06497-0.76677 0.98329
  -4   8   3 4324.33  485.33   1 0.48269-0.83089 0.43385 0.11709 0.76077-0.54397
   4  -8  -3 4475.96  619.31   1 0.15873 0.18889-0.62747 0.07614 0.76228-0.97904
   4  -8  -216597.76 1246.38   1 0.42571-0.09693 0.07508-0.64601-0.90173 0.75714
  -4   8   215118.41 1977.56   1-0.08687-0.24235 0.55745 0.01352-0.82564 0.97009
  -4   8   215960.49  824.05   1 0.48353-0.81132 0.49225 0.07875 0.72379-0.57926
   4  -8  -215461.53 1562.54   1 0.24586 0.08121-0.47107-0.10024 0.84713-0.99164
   4  -8  -110456.83  713.87   1 0.49549-0.18705-0.01546-0.57542-0.86847 0.79617
  -4   8   1 9730.97  879.87   1 0.00484-0.31363 0.48963 0.10120-0.87191 0.94413
  -4   8   110646.29  669.15   1 0.48236-0.78999 0.54738 0.04338 0.68388-0.61157
   4  -8  -1 9516.04 1079.06   1 0.31039-0.00356-0.32770-0.26365 0.89233-0.96461
   4  -8   088052.50 6799.56   1 0.56026-0.27264-0.10914-0.50147-0.82108 0.82108
  -4   8   084907.14 2837.27   1 0.09308-0.38166 0.41752 0.19319-0.90388 0.90388
  -4   8   087972.32 2681.92   1 0.47886-0.76612 0.59815 0.01265 0.64256-0.64256
   4  -8   092076.35 2825.93   1 0.35615-0.06952-0.20583-0.40543 0.91147-0.91147
   4  -8   116683.36 1279.19   1 0.61705-0.34979-0.20180-0.42881-0.76059 0.83292
  -4   8  -116231.15 1482.95   1 0.17414-0.44235 0.34485 0.28572-0.92236 0.85010
  -4   8  -115376.24 1526.36   1 0.47349-0.74037 0.64507-0.01421 0.59973-0.67204
   4  -8   114649.75 1708.43   1 0.38801-0.12181-0.10749-0.52374 0.91536-0.84312
   4  -8   2  268.47   42.64   1 0.66364-0.41700-0.28980-0.36069-0.68962 0.83427
  -4   8  -2  249.85   48.11   1 0.24556-0.49342 0.27567 0.37494-0.92935 0.78482
  -4   8  -2  354.38   52.81   1 0.46640-0.71291 0.68828-0.03738 0.55564-0.70025
   4  -8   2  257.45   42.21   1 0.40968-0.16391-0.03112-0.62008 0.91169-0.76721
   4  -8   3   -4.77   96.72   1 0.69909-0.47282-0.37050-0.29999-0.61154 0.82851
  -4   8  -3   19.11   42.85   1 0.30610-0.53361 0.21272 0.45776-0.92792 0.71112
  -4   8  -3   69.24   49.41   1 0.45787-0.68410 0.72805-0.05705 0.51018-0.72715
   4  -8   3   38.01   61.44   1 0.42424-0.19889 0.02629-0.69747 0.90516-0.68845
   4  -8   4  470.62   85.78   1 0.72382-0.51792-0.44251-0.24798-0.52939 0.81869
  -4   8  -4  538.65   78.76   1 0.35580-0.56296 0.15787 0.53250-0.92112 0.63206
  -4   8  -4  375.24  110.89   1 0.44771-0.65357 0.76435-0.07331 0.46400-0.75330
   4  -8   4  414.54   91.48   1 0.43389-0.22866 0.06791-0.75916 0.89839-0.60941
   4  -8   5 6149.28 1094.48   1 0.73902-0.55400-0.50561-0.20485-0.44519 0.80691
  -4   8  -5 5610.63 1034.04   1 0.39544-0.58224 0.11182 0.59843-0.91165 0.55032
  -4   8  -5 6198.10  468.06   1 0.43615-0.62163 0.79747-0.08637 0.41690-0.77852
   4  -8   5 6137.18  803.49   1 0.44002-0.25521 0.09637-0.80765 0.89279-0.53156
   4  -8   644320.57 3836.50   1 0.74555-0.58091-0.55968-0.17077-0.36178 0.79584
  -4   8  -640171.52 4190.78   1 0.42615-0.59225 0.07453 0.65605-0.90157 0.46778
  -4   8  -639809.55 3752.46   1 0.42323-0.58834 0.82751-0.09638 0.36889-0.80284
   4  -8   639988.81 5654.67   1 0.44364-0.27924 0.11403-0.84533 0.88891-0.45544
   4  -8   710148.78 1184.56   1 0.74498-0.60088-0.60563-0.14474-0.27965 0.78611
  -4   8  -7 9658.41 2010.19   1 0.44916-0.59493 0.04562 0.70491-0.89228 0.38619
  -4   8  -7 9424.41 2153.23   1 0.40898-0.55373 0.85460-0.10341 0.31998-0.82624
   4  -8   7 9982.56 1674.35   1 0.44535-0.30137 0.12267-0.87399 0.88690-0.38118
   4  -7  -921689.69 2084.84   1 0.59909-0.12359-0.75911 0.40489 0.25461-0.90597
   4  -7  -922261.14 2153.60   1-0.00169 0.47838 0.49472-0.85039-0.86905 0.21904
   4  -7  -8 2926.59  570.73   1 0.55432-0.09923-0.76057 0.38635 0.33801-0.91699
   4  -7  -7110730.3 2950.64   1 0.50081-0.06644-0.75454 0.36019 0.42408-0.93050
   4  -7  -7115535.8 8273.17   1 0.05900 0.37645 0.44627-0.84165-0.89294 0.38716
  -4   7   7114132.2 2297.58   1 0.37309-0.80733 0.90396-0.50965 0.20894 0.29740
  -4   7   7116861.4 2364.17   1 0.44174-0.87607 0.10467 0.28991 0.89101-0.38528
   4  -7  -645891.94 5448.98   1 0.43789-0.02391-0.73948 0.32515 0.51127-0.94535
   4  -7  -652645.37 4380.82   1 0.10334 0.31175 0.40866-0.82389-0.90681 0.47329
  -4   7   652816.89 1418.14   1 0.27355-0.68735 0.96082-0.54646-0.04459 0.47845
  -4   7   654497.71 1457.14   1 0.45725-0.87116 0.18827 0.22634 0.86917-0.43570
   4  -7  -5 4485.56  426.53   1 0.15776 0.23696 0.36003-0.79512-0.91950 0.55823
  -4   7   5 3688.33  490.22   1-0.36498-0.03011 0.71234-0.27729-0.59945 0.96031
  -4   7   5 2795.53  859.77   1 0.46953-0.86303 0.27273 0.16190 0.83973-0.47850
   4  -7  -4 4041.65  317.73   1 0.22206 0.15223 0.29903-0.75400-0.92804 0.63897
  -4   7   4 3926.11  381.45   1-0.28199-0.09246 0.67418-0.21916-0.68260 0.97129
  -4   7   4 2914.83  650.38   1 0.47802-0.85112 0.35328 0.10123 0.80416-0.51510
   4  -7  -323597.72 1575.60   1 0.29472 0.05922 0.22487-0.69973-0.92874 0.71194
  -4   7   321645.53 1816.14   1-0.19006-0.16374 0.62294-0.14795-0.75882 0.97534
  -4   7   322363.78  534.19   1 0.48245-0.83515 0.42705 0.04751 0.76476-0.54796
   4  -7  -323134.90  590.48   1 0.14360 0.20861-0.65116 0.17624 0.74523-0.96198
   4  -7  -216692.96 1343.07   1 0.37275-0.03915 0.13844-0.63318-0.91754 0.77301
  -4   7   215518.40 1410.44   1-0.09074-0.24285 0.56015-0.06550-0.82340 0.96784
  -4   7   215351.18 1108.34   1 0.48353-0.81582 0.49366 0.00095 0.72283-0.57830
   4  -7  -213601.99 1902.66   1 0.25137 0.08029-0.45989-0.03501 0.85165-0.99615
   4  -7  -1104644.7 2834.47   1 0.45169-0.13888 0.04239-0.55693-0.89116 0.81886
  -4   7   1110172.0 2841.18   1 0.00943-0.32260 0.48604 0.02845-0.87388 0.94610
  -4   7   1111887.3 2604.06   1 0.48203-0.79412 0.55400-0.03958 0.67876-0.60646
   4  -7  -1114223.7 2684.87   1 0.32732-0.01594-0.28519-0.22975 0.90084-0.97311
   4  -7   086691.22 2358.42   1 0.52666-0.23418-0.05907-0.47541-0.84801 0.84801
  -4   7   086613.62 2348.30   1 0.10655-0.39946 0.40587 0.12850-0.90769 0.90769
   4  -7   087725.60 2182.91   1 0.37763-0.08646-0.14110-0.39375 0.91513-0.91513
   4  -7   1   90.30   79.64   1 0.59287-0.32118-0.16080-0.39349-0.78907 0.86139
  -4   7  -1  113.08   34.18   1 0.19573-0.46827 0.32444 0.22979-0.92543 0.85317
  -4   7  -1  131.40   24.41   1 0.47189-0.74324 0.65607-0.10157 0.58895-0.66126
   4  -7   1  123.17   26.99   1 0.41016-0.13941-0.02934-0.52548 0.91154-0.83930
   4  -7   2 1355.59  135.98   1 0.64745-0.39612-0.25765-0.31664-0.71722 0.86186
  -4   7  -2 1321.80  130.17   1 0.27369-0.52588 0.24692 0.32732-0.92957 0.78504
  -4   7  -2 1240.78  117.07   1 0.46413-0.71510 0.69972-0.12518 0.54310-0.68771
   4  -7   2 1342.79  137.44   1 0.43078-0.18020 0.05405-0.62886 0.90083-0.75634
   4  -7   320306.28 1695.46   1 0.68924-0.45851-0.34626-0.24791-0.63643 0.85340
  -4   7  -321859.12 2290.14   1 0.33887-0.57071 0.17690 0.41723-0.92404 0.70725
  -4   7  -318758.75 1627.28   1 0.45498-0.68565 0.73928-0.14464 0.49643-0.71340
   4  -7   319776.91 2212.54   1 0.44365-0.21350 0.11412-0.70895 0.88890-0.67216
   4  -7   4  540.52   82.19   1 0.71839-0.50803-0.42470-0.18947-0.55094 0.84023
  -4   7  -4  438.74  102.86   1 0.39143-0.60292 0.11657 0.49744-0.91279 0.62372
  -4   7  -4  608.45   65.38   1 0.44428-0.65458 0.77495-0.16026 0.44950-0.73880
   4  -7   4  676.54   89.01   1 0.45162-0.24188 0.15584-0.77069 0.87849-0.58950
   4  -7   518432.95 1329.07   1 0.73654-0.54703-0.49274-0.14140-0.46336 0.82508
  -4   7  -517116.72 1683.61   1 0.43258-0.62339 0.06654 0.56772-0.89913 0.53764
  -4   7  -517260.30 1180.87   1 0.43225-0.62220 0.80718-0.17244 0.40200-0.76362
   4  -7   516733.35 2250.39   1 0.45638-0.26706 0.18309-0.81797 0.87073-0.50950
   4  -7   6 7547.24  925.38   1 0.74493-0.57580-0.55045-0.10369-0.37692 0.81098
  -4   7  -6 7909.41  919.64   1 0.46376-0.63424 0.02681 0.62741-0.88555 0.45176
  -4   7  -6 7757.93  606.61   1 0.41897-0.58854 0.83618-0.18140 0.35390-0.78784
   4  -7   6 7996.04 1036.89   1 0.45898-0.29007 0.19882-0.85373 0.86591-0.43243
   4  -7   720869.07 2592.78   1 0.74550-0.59691-0.59897-0.07509-0.29231 0.79878
  -4   7  -720368.24 2441.93   1 0.48673-0.63687-0.00357 0.67776-0.87354 0.36745
  -4   7  -721065.87 2145.04   1 0.40457-0.55366 0.86213-0.18734 0.30504-0.81139
   4  -7   721564.39 3329.27   1 0.46000-0.31151 0.20523-0.88016 0.86387-0.35814
   4  -7   8  345.27   74.59   1 0.73957-0.61136-0.63927-0.05478-0.21062 0.78945
  -4   7  -8  536.07  103.90   1 0.50292-0.63273-0.02565 0.71979-0.86395 0.28556
  -4   7  -8  385.86   70.34   1 0.38881-0.51753 0.88517-0.19034 0.25553-0.83421
   4  -7   8  377.46   83.14   1 0.45979-0.33172 0.20392-0.89887 0.86429-0.28632
   4  -6 -10 1137.75  156.61   1 0.65199-0.15190-0.74594 0.48806 0.13587-0.85948
   4  -6 -10 1109.05  138.55   1-0.07578 0.57727 0.54965-0.80914-0.83194 0.10971
   4  -6  -915158.86 1542.35   1 0.61766-0.13770-0.75620 0.47830 0.21597-0.86732
   4  -6  -915679.01 1482.21   1-0.06112 0.54217 0.53917-0.81851-0.83997 0.18996
   4  -6  -8103408.5 2225.13   1 0.57564-0.11610-0.76074 0.46284 0.29981-0.87880
   4  -6  -8102947.7 2199.58   1-0.03874 0.49936 0.52280-0.82199-0.85157 0.27378
   4  -6  -799789.21 3247.80   1 0.52470-0.08558-0.75813 0.44022 0.38718-0.89379
   4  -6  -7107611.0 3464.59   1-0.00740 0.44757 0.49912-0.81816-0.86649 0.36093
  -4   6   7103141.4 2760.78   1 0.43869-0.87749 0.79078-0.47296 0.42685 0.07940
  -4   6   7106522.3 2836.32   1 0.41557-0.85427-0.00860 0.32727 0.90951-0.40385
   4  -6  -6  578.51   78.26   1 0.46334-0.04489-0.74647 0.40846 0.47759-0.91167
   4  -6  -6  670.52   86.97   1 0.03415 0.38527 0.46658-0.80548-0.88381 0.45028
  -4   6   6  556.40   83.23   1 0.37031-0.78866 0.90691-0.56894 0.20094 0.23306
  -4   6   6  623.11  215.58   1 0.44418-0.86260 0.11674 0.22147 0.88829-0.45482
   4  -6  -520359.50 1529.84   1 0.08734 0.31171 0.42243-0.78118-0.90217 0.54090
  -4   6   518777.47 1896.66   1-0.39063-0.00895 0.72236-0.36372-0.57060 0.93146
  -4   6   520109.90  386.00   1 0.46519-0.86319 0.24000 0.11824 0.85205-0.49082
   4  -6  -414151.57 1255.35   1 0.15259 0.22610 0.36477-0.74338-0.91850 0.62949
  -4   6   412532.28 1293.31   1-0.30598-0.07296 0.68605-0.30744-0.66007 0.94876
  -4   6   413530.99  334.93   1 0.47763-0.85523 0.34856 0.02956 0.80645-0.51738
   4  -6  -327361.21 1983.79   1 0.22922 0.12905 0.29198-0.69047-0.92854 0.71175
  -4   6   324334.95 2532.45   1-0.20974-0.14855 0.63464-0.23606-0.74379 0.96031
  -4   6   328532.26  524.23   1 0.48285-0.84005 0.43890-0.04071 0.75777-0.54097
   4  -6  -327220.93  547.88   1 0.10783 0.24896-0.70347 0.30497 0.70248-0.91924
   4  -6  -2192169.9 4470.45   1 0.31449 0.02343 0.20368-0.62206-0.92714 0.78261
   4  -6  -2199505.5 4286.47   1 0.25039 0.08585-0.46189 0.04339 0.85085-0.99536
   4  -6  -181207.82 2185.07   1 0.40344-0.08626 0.10221-0.54039-0.90927 0.83697
  -4   6   182092.96 1939.89   1 0.48054-0.79710 0.57772-0.13966 0.65977-0.58747
   4  -6  -184120.53 1999.86   1 0.34402-0.02809-0.24075-0.19778 0.90756-0.97984
   4  -6   0 9436.38  852.20   1 0.48987-0.19302-0.00782-0.45031-0.87175 0.87175
  -4   6   0 9383.45  887.90   1 0.11394-0.41118 0.39940 0.05863-0.90966 0.90966
  -4   6   0 8313.56  444.85   1 0.47521-0.77139 0.63204-0.17393 0.61212-0.61212
   4  -6   0 7424.47 1167.46   1 0.39994-0.10423-0.06662-0.39182 0.91411-0.91411
   4  -6   139147.73 3095.90   1 0.56720-0.29108-0.11983-0.35813-0.81481 0.88713
  -4   6  -140844.18 3824.06   1 0.21298-0.48986 0.30781 0.17008-0.92730 0.85504
  -4   6  -132500.84 2774.37   1 0.46802-0.74383 0.67949-0.20134 0.56500-0.63731
   4  -6   131905.09 2742.47   1 0.43232-0.15682 0.06086-0.53924 0.89966-0.82741
   4  -6   2 2380.44  206.36   1 0.63112-0.37536-0.22697-0.27099-0.74172 0.88637
  -4   6  -2 2078.20  263.34   1 0.29887-0.55539 0.22046 0.27743-0.92847 0.78394
  -4   6  -2 2390.07  201.96   1 0.45945-0.71495 0.72158-0.22335 0.51789-0.66253
   4  -6   2 2599.89  337.59   1 0.45061-0.19552 0.15030-0.64871 0.87997-0.73548
   4  -6   3   19.76   48.47   1 0.67983-0.44464-0.32458-0.19329-0.65762 0.87460
  -4   6  -3  133.09   63.87   1 0.36951-0.60568 0.14218 0.37559-0.91828 0.70148
  -4   6  -3   72.66   50.57   1 0.44936-0.68450 0.75900-0.24071 0.47115-0.68812
   4  -6   3  -40.53   74.03   1 0.46095-0.22628 0.21133-0.72977 0.86189-0.64515
   4  -6   429379.43 2219.00   1 0.71359-0.49878-0.41012-0.12774-0.56796 0.85726
  -4   6  -425395.16 2570.89   1 0.42538-0.64090 0.07548 0.46247-0.90185 0.61266
  -4   6  -426628.91 2035.54   1 0.43804-0.65280 0.79251-0.25418 0.42431-0.71360
   4  -6   424949.96 1751.69   1 0.46676-0.25251 0.25137-0.78984 0.84790-0.55891
   4  -6   523111.10 1484.78   1 0.73452-0.54052-0.48332-0.07451-0.47630 0.83802
  -4   6  -521293.36 2155.89   1 0.46788-0.66307 0.02143 0.53648-0.88352 0.52203
  -4   6  -521055.77 1768.58   1 0.42554-0.61994 0.82256-0.26419 0.37721-0.73883
   4  -6   520221.23 2521.43   1 0.46990-0.27607 0.27575-0.83424 0.83853-0.47730
   4  -6   6  772.48  109.35   1 0.74442-0.57080-0.54457-0.03326-0.38635 0.82041
  -4   6  -6  786.01  159.58   1 0.49942-0.67427-0.02083 0.59871-0.86610 0.43231
  -4   6  -6  751.92   95.95   1 0.41190-0.58593 0.84947-0.27104 0.32974-0.76368
   4  -6   6  706.78  142.41   1 0.47139-0.29798 0.28820-0.86671 0.83350-0.40002
   4  -6   714399.03 1017.15   1 0.74567-0.59243-0.59534-0.00249-0.29921 0.80561
  -4   6  -713933.25 1312.89   1 0.52212-0.67663-0.05257 0.65040-0.85124 0.34516
  -4   6  -714767.20  931.23   1 0.39725-0.55082 0.87341-0.27498 0.28167-0.78802
   4  -6   713606.52 1691.40   1 0.47192-0.31879 0.29121-0.88988 0.83215-0.32628
   4  -6   811999.11 1101.85   1 0.74007-0.60737-0.63710 0.01934-0.21535 0.79418
  -4   6  -811954.37 1470.18   1 0.53776-0.67194-0.07516 0.69295-0.83973 0.26135
  -4   6  -812443.08 1146.40   1 0.38135-0.51454 0.89455-0.27609 0.23311-0.81179
   4  -6   812072.70 1754.92   1 0.47123-0.33865 0.28683-0.90538 0.83406-0.25609
   4  -6   919003.03 1071.00   1 0.72892-0.61660-0.67107 0.03332-0.13538 0.78656
  -4   6  -917438.78  992.47   1 0.54774-0.66158-0.08992 0.72766-0.83180 0.18111
  -4   6  -918463.04 1493.10   1 0.36429-0.47711 0.91295-0.27446 0.18386-0.83488
   4  -6   917122.13 2361.62   1 0.46994-0.35778 0.27606-0.91464 0.83841-0.18819
   4  -5 -10 3353.93  316.17   1 0.66887-0.16430-0.73778 0.55621 0.09102-0.81463
   4  -5 -10 3198.29  522.16   1-0.12863 0.63450 0.58583-0.76898-0.80015 0.07792
   4  -5  -911854.00 1326.63   1-0.11805 0.60347 0.57879-0.78179-0.80688 0.15687
   4  -5  -8 1557.36  218.87   1 0.59974-0.13574-0.75904 0.53745 0.25330-0.83229
   4  -5  -8 1922.93  292.96   1-0.09997 0.56496 0.56653-0.78938-0.81795 0.24016
  -4   5   8  975.57  310.95   1 0.48321-0.94694 0.51578-0.29424 0.70743-0.12930
   4  -5  -745388.87 5068.76   1 0.55244-0.10886-0.76049 0.51890 0.34125-0.84786
   4  -5  -750727.50 4571.16   1-0.07293 0.51748 0.54763-0.79034-0.83353 0.32796
  -4   5   749473.31 1259.10   1 0.47769-0.92095 0.61024-0.36879 0.63199-0.12584
   4  -5  -638284.26 3510.96   1 0.49427-0.07137-0.75334 0.49164 0.43378-0.86786
   4  -5  -639202.17 4571.03   1-0.03518 0.45929 0.52015-0.78271-0.85334 0.42000
  -4   5   638191.01  426.53   1 0.45726-0.88016 0.73049-0.46898 0.50722-0.07328
  -4   5   638254.45  430.89   1 0.41907-0.84189 0.00520 0.25701 0.90793-0.47451
   4  -5  -5 4470.28  444.15   1 0.42362-0.02111-0.73509 0.45341 0.52931-0.89104
   4  -5  -5 5050.07  431.40   1 0.01514 0.38852 0.48155-0.76396-0.87628 0.51517
  -4   5   5 4684.21  144.99   1 0.39127-0.79372 0.88187-0.60023 0.26306 0.09861
  -4   5   5 4786.41  147.28   1 0.46188-0.86439 0.21738 0.06446 0.85988-0.49865
   4  -5  -4 1871.69  156.55   1 0.07952 0.30350 0.42908-0.73135-0.89975 0.61073
  -4   5   4 1713.69  190.90   1-0.33895-0.04448 0.70128-0.39908-0.62714 0.91583
  -4   5   4 1466.25  303.83   1 0.48025-0.86235 0.38389-0.08215 0.78865-0.49959
   4  -5  -317115.75 1281.49   1 0.15860 0.20406 0.35926-0.68138-0.91966 0.70289
  -4   5   319467.16 1423.85   1-0.23974-0.12304 0.65172-0.32956-0.71956 0.93608
  -4   5   316655.65  324.58   1 0.48352-0.84522 0.49373-0.17194 0.72278-0.50599
   4  -5  -2 6473.60  578.52   1 0.25051 0.09174 0.27068-0.61270-0.92950 0.78497
  -4   5   2 5136.41  566.94   1-0.12668-0.21566 0.58454-0.24256-0.80141 0.94585
  -4   5   2 4922.46  480.85   1 0.48101-0.82240 0.57105-0.22939 0.66521-0.52060
   4  -5  -2 5682.70  631.97   1 0.23608 0.10475-0.49049 0.14840 0.83885-0.98336
   4  -5  -159084.60 1486.04   1 0.35015-0.02824 0.16426-0.52617-0.92217 0.84990
  -4   5   158744.96 1477.06   1-0.00658-0.31532 0.49849-0.13666-0.86686 0.93909
  -4   5   160371.41 1210.67   1 0.47549-0.79651 0.62974-0.26802 0.61426-0.54196
   4  -5  -159427.67 1195.90   1 0.36059-0.03991-0.19294-0.16912 0.91254-0.98478
  -4   5   095185.86 2067.14   1 0.11357-0.41515 0.39972-0.01802-0.90957 0.90957
  -4   5   097606.87 1855.41   1 0.46828-0.76893 0.67805-0.29629 0.56652-0.56652
   4  -5   095849.64 1809.50   1 0.42368-0.12343 0.02397-0.40601 0.90549-0.90549
  -4   5  -1  654.52   74.45   1 0.22492-0.50612 0.29622 0.10543-0.92825 0.85598
  -4   5  -1  719.70   55.89   1 0.45991-0.74023 0.71965-0.31782 0.52016-0.59249
   4  -5   1  691.31  102.87   1 0.45386-0.17384 0.16838-0.57038 0.87501-0.80277
   4  -5   218690.32 1651.47   1 0.61500-0.35481-0.19821-0.22342-0.76320 0.90784
  -4   5  -219822.87 2030.91   1 0.32063-0.58148 0.19700 0.22454-0.92648 0.78195
  -4   5  -215626.66 1284.02   1 0.45023-0.71019 0.75610-0.33422 0.47496-0.61961
   4  -5   215132.20 1299.81   1 0.46808-0.20849 0.26136-0.68338 0.84414-0.69965
   4  -5   312585.52  920.76   1 0.67147-0.43183-0.30626-0.13529-0.67477 0.89174
  -4   5  -311035.48 1437.63   1 0.39792-0.63841 0.10886 0.33255-0.91093 0.69413
  -4   5  -312923.27  932.67   1 0.43949-0.67908 0.78859-0.34666 0.43007-0.64704
   4  -5   312784.19 1622.50   1 0.47502-0.23576 0.32010-0.76219 0.81968-0.60288
   4  -5   4 1645.25  233.90   1 0.70997-0.49070-0.39967-0.06188-0.57982 0.86912
  -4   5  -4 1659.16  196.43   1 0.45744-0.67733 0.03500 0.42659-0.88854 0.59935
  -4   5  -4 1824.83  153.05   1 0.42772-0.64694 0.81774-0.35576 0.38515-0.67445
   4  -5   4 1852.98  244.16   1 0.47820-0.25935 0.35549-0.81763 0.80308-0.51401
   4  -5   529310.70 1931.89   1 0.73336-0.53487-0.47821-0.00331-0.48321 0.84492
  -4   5  -525228.03 3215.20   1 0.50144-0.70100-0.02361 0.50517-0.86486 0.50337
  -4   5  -528100.52 2091.74   1 0.41494-0.61379 0.84393-0.36191 0.34000-0.70162
   4  -5   529626.22  913.74   1 0.47963-0.28119 0.37466-0.85685 0.79345-0.43212
   4  -5   616279.56 1147.17   1 0.74425-0.56613-0.54276 0.04123-0.38921 0.82327
  -4   5  -615343.61 1600.80   1 0.53315-0.71237-0.06845 0.56996-0.84324 0.40945
  -4   5  -615615.72 1156.45   1 0.40125-0.57965 0.86738-0.36535 0.29435-0.72836
   4  -5   615008.51 1525.82   1 0.48013-0.30209 0.38206-0.88429 0.78961-0.35602
   4  -5   710494.62  745.33   1 0.74567-0.58793-0.59539 0.07386-0.29912 0.80552
  -4   5  -7 9454.16 1046.57   1 0.55544-0.71381-0.10179 0.62344-0.82530 0.31904
  -4   5  -710539.69  608.04   1 0.38641-0.54445 0.88828-0.36622 0.24827-0.75462
   4  -5   7 9705.77 1272.89   1 0.48003-0.32240 0.38053-0.90282 0.79041-0.28455
   4  -5   823629.70 1850.24   1 0.73986-0.60265-0.63804 0.09659-0.21330 0.79213
  -4   5  -822137.85 2750.30   1 0.57026-0.70827-0.12459 0.66624-0.81195 0.23337
  -4   5  -824235.72 1756.27   1 0.37053-0.50820 0.90668-0.36458 0.20157-0.78026
   4  -5   822067.33 3014.70   1 0.47944-0.34222 0.37195-0.91428 0.79484-0.21671
   4  -5   9 9547.25  710.14   1 0.72836-0.61155-0.67230 0.11085-0.13222 0.78339
  -4   5  -9 8888.71 1135.64   1 0.57941-0.69706-0.13902 0.70067-0.80308 0.15218
  -4   5  -9 9458.95  823.11   1 0.35356-0.47086 0.92261-0.36048 0.15417-0.80519
   4  -5   9 8780.12 1321.21   1 0.47836-0.36155 0.35755-0.91993 0.80207-0.15167
   4  -4 -10 1509.17  179.66   1 0.68611-0.17707-0.72639 0.62114 0.03982-0.76343
   4  -4 -10 1488.80  171.44   1-0.17863 0.69042 0.61597-0.72197-0.76724 0.04552
   4  -4  -911398.15  996.09   1 0.65944-0.17080-0.74265 0.61739 0.11663-0.76788
   4  -4  -811074.04  986.34   1 0.62570-0.15725-0.75442 0.60916 0.19830-0.77729
   4  -4  -811440.58  962.40   1-0.15842 0.62777 0.60508-0.75160-0.78024 0.20245
  -4   4   810578.34  296.82   1 0.48008-0.94832 0.38139-0.23623 0.78996-0.21183
  -4   4   811181.78  331.20   1 0.19177-0.66049-0.57235 0.71810 0.79726-0.21924
   4  -4  -7 4513.73  442.53   1 0.58326-0.13523-0.76044 0.59518 0.28552-0.79213
   4  -4  -7 4681.41  465.98   1-0.13643 0.58535 0.59095-0.75732-0.79508 0.28952
  -4   4   7 4532.62  166.27   1 0.48231-0.93014 0.42357-0.25836 0.76677-0.26091
  -4   4   7 4965.67  185.98   1 0.25205-0.70022-0.45849 0.62422 0.85220-0.34643
   4  -4  -6   68.84   47.51   1 0.53009-0.10247-0.75875 0.57348 0.37854-0.81278
   4  -4  -6  237.72   57.35   1-0.10375 0.53223 0.56911-0.75534-0.81568 0.38234
  -4   4   6  149.84   40.51   1 0.48315-0.91057 0.44997-0.26472 0.75105-0.31745
   4  -4  -512586.83 1492.63   1 0.46357-0.05660-0.74653 0.54117 0.47726-0.83900
   4  -4  -514655.04 1309.17   1-0.05790 0.46594 0.53684-0.74292-0.84168 0.48057
   4  -4  -411488.12 1158.22   1 0.00372 0.38387 0.49051-0.71644-0.87142 0.58253
  -4   4   412688.51 1107.22   1-0.38129-0.00662 0.71882-0.49303-0.58129 0.86998
   4  -4  -3 1690.81  163.74   1 0.08308 0.28392 0.42606-0.67185-0.90086 0.68410
  -4   4   3 1959.55  164.27   1-0.28145-0.08582 0.67390-0.42815-0.68310 0.89962
   4  -4  -2140103.6 2557.96   1 0.18022 0.16641 0.33915-0.60479-0.92330 0.77879
  -4   4   2140653.9 2552.33   1-0.16307-0.18364 0.60801-0.34237-0.77699 0.92144
  -4   4   2137553.3 1996.25   1 0.46195-0.80781 0.70990-0.44458 0.53162-0.38701
   4  -4  -2147867.0 2134.42   1 0.18294 0.16248-0.58756 0.32189 0.78822-0.93272
   4  -4  -1 4940.12  544.47   1 0.29078 0.03544 0.22904-0.51459-0.92896 0.85670
  -4   4   1 4161.11  540.17   1-0.03212-0.29415 0.51787-0.23238-0.85485 0.92707
  -4   4   1 4732.34  543.04   1 0.45726-0.78277 0.73051-0.44512 0.50721-0.43488
   4  -4  -1 4725.47  674.40   1 0.37887-0.05365-0.13719-0.14846 0.91522-0.98746
   4  -4   065607.25 1379.28   1 0.40532-0.09972 0.09996-0.40538-0.90869 0.90869
  -4   4   065248.35 1374.96   1 0.10292-0.40883 0.40902-0.10366-0.90670 0.90670
  -4   4   065261.58 1121.32   1 0.45050-0.75564 0.75521-0.44978 0.47612-0.47612
   4  -4   066513.28 1089.28   1 0.44934-0.14440 0.14346-0.44904 0.88176-0.88176
   4  -4   1261734.2 4151.09   1 0.51170-0.22644-0.03786-0.28751-0.85832 0.93062
  -4   4  -1258491.0 4108.35   1 0.22980-0.51533 0.29140 0.03389-0.92858 0.85631
  -4   4  -1260472.5 3914.16   1 0.44237-0.72714 0.78054-0.45506 0.44165-0.51397
   4  -4   1251398.1 3728.79   1 0.47313-0.18856 0.30202-0.62762 0.82760-0.75533
   4  -4   216505.03 1712.39   1 0.59970-0.33508-0.17212-0.17318-0.78148 0.92613
  -4   4  -214476.50  836.46   1 0.33824-0.60342 0.17760 0.16758-0.92414 0.77961
  -4   4  -215139.97 1644.04   1 0.43307-0.69748 0.80519-0.45967 0.40509-0.54974
   4  -4   213674.60 1902.77   1 0.48071-0.21655 0.39149-0.73714 0.78462-0.64009
   4  -4   3  144.67   35.63   1 0.66494-0.42085-0.29249-0.07274-0.68723 0.90420
  -4   4  -3  240.64   52.98   1 0.42406-0.66866 0.07711 0.28818-0.90234 0.68544
  -4   4  -3  182.63   32.84   1 0.42269-0.66673 0.82863-0.46306 0.36700-0.58397
   4  -4   3   85.28   22.23   1 0.48294-0.23918 0.44176-0.80746 0.75604-0.53924
   4  -4   4 9357.90  723.30   1 0.70816-0.48444-0.39461 0.00936-0.58547 0.87477
  -4   4  -4 8414.53 1268.55   1 0.48774-0.71200-0.00494 0.39018-0.87297 0.58378
  -4   4  -4 8839.17  675.39   1 0.41128-0.63496 0.85057-0.46496 0.32766-0.61695
   4  -4   4 7926.27 1061.45   1 0.48346-0.26012 0.46829-0.85404 0.73956-0.45050
   4  -4   514725.00 1068.05   1 0.73342-0.53044-0.47849 0.07327-0.48283 0.84454
  -4   4  -512910.33 1314.50   1 0.53328-0.73721-0.06863 0.47384-0.84314 0.48165
  -4   4  -513806.23 1138.54   1 0.39896-0.60221 0.87086-0.46523 0.28708-0.64876
   4  -4   512662.94 1407.08   1 0.48355-0.28060 0.47941-0.88521 0.73235-0.37101
   4  -4   615303.26  880.63   1 0.74454-0.56194-0.54588 0.12066-0.38427 0.81832
  -4   4  -614407.86 1644.01   1 0.56506-0.74823-0.11651 0.54183-0.81677 0.38284
  -4   4  -615080.91 1726.99   1 0.38552-0.56840 0.88941-0.46375 0.24558-0.67959
   4  -4   613783.68 1574.05   1 0.48355-0.30101 0.47986-0.90571 0.73205-0.29845
   4  -4   786905.11 5967.77   1 0.74545-0.58336-0.59972 0.15456-0.29089 0.79736
  -4   4  -782118.88 1907.86   1 0.58642-0.74922-0.15028 0.59560-0.79593 0.28968
  -4   4  -783242.28 6657.50   1 0.37106-0.53356 0.90612-0.46042 0.20309-0.70944
   4  -4   786971.52 1673.44   1 0.48350-0.32138 0.47243-0.91833 0.73689-0.23103
   4  -4   845302.71 3117.20   1 0.73877-0.59707-0.64249 0.17733-0.20351 0.78233
  -4   4  -843093.79 5130.54   1 0.60024-0.74268-0.17303 0.63835-0.78087 0.20229
  -4   4  -845751.81 4422.18   1 0.35555-0.49769 0.92092-0.45519 0.15962-0.73830
   4  -4   844957.81 1706.97   1 0.48333-0.34161 0.45886-0.92481 0.74553-0.16740
   4  -4   9   46.59   67.77   1 0.72645-0.60514-0.67636 0.19121-0.12163 0.77280
  -4   4  -9  167.21   62.88   1 0.60843-0.73051-0.18688 0.67220-0.77128 0.12037
  -4   4  -9  212.73   55.73   1 0.33899-0.46076 0.93371-0.44794 0.11516-0.76618
   4  -4   9  215.11   65.19   1 0.48289-0.36158 0.44023-0.92622 0.75696-0.10657
   4  -4  1017065.41 1333.73   1 0.70988-0.60906-0.70290 0.19768-0.04448 0.76809
  -4   4 -1015329.08 2002.06   1 0.61227-0.71399-0.19349 0.69880-0.76660 0.04337
  -4   4 -1016757.35 1379.49   1 0.32128-0.42258 0.94439-0.43875 0.06994-0.79304
   4  -4  1016682.99 2805.25   1 0.48205-0.38114 0.41723-0.92328 0.77041-0.04774
   4  -3 -1011577.41 1251.30   1 0.70286-0.18934-0.71111 0.68216-0.01735-0.70625
   4  -3 -1011512.97 1336.05   1-0.22385 0.74013 0.64279-0.67237-0.73260 0.01088
   4  -3  -9 3285.61  470.03   1 0.68082-0.18770-0.73028 0.68134 0.05623-0.70748
   4  -3  -9 3353.30  474.12   1-0.22199 0.71762 0.64172-0.69127-0.73410 0.08455
   4  -3  -8 1367.45  167.35   1 0.65235-0.17965-0.74579 0.67685 0.13496-0.71385
   4  -3  -8 1423.76  189.50   1-0.21367 0.68866 0.63692-0.70644-0.74071 0.16334
  -4   3   8  546.17  375.51   1 0.47009-0.94288 0.27729-0.20830 0.83792-0.25995
   4  -3  -7 3177.41  383.54   1 0.61590-0.16341-0.75655 0.66761 0.21974-0.72635
   4  -3  -7 3315.70  386.18   1-0.19730 0.65165 0.62729-0.71677-0.75337 0.24817
  -4   3   7 3252.68  258.77   1 0.47124-0.92361 0.28685-0.19784 0.83405-0.32832
   4  -3  -623834.87 2662.03   1 0.56924-0.13717-0.76085 0.65190 0.31155-0.74579
   4  -3  -626626.23  951.94   1-0.17071 0.60441 0.61106-0.72051-0.77294 0.33991
  -4   3   626610.20  358.91   1 0.46694-0.89889 0.25273-0.14369 0.84739-0.41392
  -4   3   626564.82  379.62   1 0.15908-0.59129-0.62691 0.73622 0.76267-0.32915
   4  -3  -5  411.27   67.83   1 0.50948-0.09783-0.75601 0.62706 0.41093-0.77279
   4  -3  -5  528.45   88.64   1-0.13032 0.54273 0.58694-0.71668-0.79907 0.43795
   4  -3  -481348.76 1915.68   1 0.43287-0.04182-0.73798 0.58895 0.51769-0.80708
   4  -3  -478123.14 1851.29   1-0.07376 0.46574 0.54822-0.69782-0.83306 0.54417
   4  -3  -3148352.6 2686.29   1 0.00333 0.36819 0.49081-0.66025-0.87126 0.65459
  -4   3   3151181.0 2700.50   1-0.33582-0.03594 0.69989-0.53055-0.63037 0.84688
   4  -3  -2 3640.17  428.64   1 0.10334 0.24763 0.40866-0.59796-0.90681 0.76230
  -4   3   2 3257.71  426.06   1-0.21593-0.13519 0.63823-0.44893-0.73893 0.88327
   4  -3  -161888.78 1456.67   1 0.22429 0.10626 0.29684-0.50603-0.92820 0.85594
  -4   3   162122.46 1459.95   1-0.07426-0.25638 0.54857-0.33942-0.83279 0.90501
  -4   3   163168.53 1151.16   1 0.37905-0.70897 0.89727-0.68821 0.22632-0.15398
   4  -3  -162334.65 1160.77   1 0.40223-0.07247-0.05846-0.15078 0.91366-0.98590
   4  -3   0191883.2 3558.50   1 0.35605-0.04584 0.15759-0.38666-0.92108 0.92108
  -4   3   0193115.7 3584.23   1 0.07802-0.38827 0.43035-0.20133-0.89928 0.89928
  -4   3   0180542.5 3128.35   1 0.40177-0.71132 0.86657-0.63748 0.29602-0.29602
   4  -3   0184949.0 3139.11   1 0.47477-0.16529 0.31761-0.54677 0.82080-0.82080
   4  -3   1 3751.02  406.88   1 0.48199-0.19235 0.00278-0.25180-0.87617 0.94846
  -4   3  -1 3106.99  397.12   1 0.22496-0.51482 0.29618-0.04723-0.92825 0.85599
  -4   3  -1 2946.33  213.35   1 0.40484-0.69403 0.86168-0.61256 0.30593-0.37827
   4  -3   1 2801.02  369.51   1 0.48350-0.19443 0.47188-0.72109 0.73725-0.66498
   4  -3   2187724.6 3600.62   1 0.58614-0.31709-0.14982-0.11915-0.79623 0.94087
  -4   3  -2191834.4 3584.84   1 0.35045-0.61995 0.16392 0.10490-0.92212 0.77759
  -4   3  -2189140.9 3443.29   1 0.40142-0.67024 0.86711-0.59795 0.29490-0.43957
   4  -3   2199126.8 3536.39   1 0.48254-0.21372 0.54339-0.81254 0.68692-0.54230
   4  -3   3443443.4 6596.34   1 0.66131-0.41276-0.28500-0.00392-0.69385 0.91083
  -4   3  -3441882.7 6549.59   1 0.44724-0.69620 0.04808 0.24085-0.89312 0.67622
  -4   3  -3433583.3 6369.79   1 0.39468-0.64313 0.87713-0.58793 0.27361-0.49062
   4  -3   3428689.8 6222.46   1 0.48066-0.23221 0.57615-0.86533 0.66107-0.44414
   4  -3   414207.98 1183.64   1 0.70891-0.48073-0.39668 0.08775-0.58316 0.87246
  -4   3  -411636.19 1552.29   1 0.51622-0.74486-0.04422 0.35311-0.85530 0.56611
  -4   3  -413261.41 1371.44   1 0.38576-0.61384 0.88910-0.57987 0.24631-0.53565
   4  -3   411798.43 1678.88   1 0.47970-0.25163 0.58852-0.89775 0.65078-0.36155
   4  -3   549370.50 3704.90   1 0.73502-0.52755-0.48558 0.15666-0.47323 0.83495
  -4   3  -546144.67 1090.54   1 0.56352-0.77148-0.11414 0.44312-0.81817 0.45656
  -4   3  -547122.18 1067.23   1 0.37519-0.58290 0.90166-0.57239 0.21502-0.57669
   4  -3   544143.09 1080.21   1 0.47970-0.27200 0.58852-0.91779 0.65078-0.28925
   4  -3   6132225.4 3166.70   1 0.74526-0.55816-0.55489 0.20598-0.36969 0.80375
  -4   3  -6125380.5 3015.79   1 0.59483-0.78243-0.16403 0.51302-0.78693 0.35299
  -4   3  -6132979.1 3137.84   1 0.36320-0.55054 0.91399-0.56469 0.18081-0.61482
   4  -3   6130967.2 3052.78   1 0.48036-0.29303 0.58019-0.92951 0.65773-0.22389
   4  -3   7 2005.35  155.63   1 0.74467-0.57808-0.60885 0.23999-0.27341 0.77988
  -4   3  -7 2088.09  282.03   1 0.61512-0.78236-0.19843 0.56742-0.76304 0.25678
  -4   3  -7 2210.88  161.23   1 0.34993-0.51691 0.92558-0.55625 0.14432-0.65067
   4  -3   7 2006.21  268.76   1 0.48135-0.31439 0.56577-0.93513 0.66947-0.16332
   4  -3   8112767.6 7677.52   1 0.73644-0.59025-0.65078 0.26193-0.18471 0.76353
  -4   3  -8105061.2 2054.53   1 0.62772-0.77459-0.22078 0.60976-0.74647 0.16789
  -4   3  -8116543.2 2012.36   1 0.33546-0.48207 0.93607-0.54670 0.10594-0.68462
   4  -3   8111732.8 1927.64   1 0.48240-0.33582 0.54652-0.93593 0.68453-0.10607
   4  -3   9103128.1 6411.86   1 0.72279-0.59699-0.68339 0.27455-0.10263 0.75380
  -4   3  -9101977.7 2789.99   1 0.63480-0.76131-0.23372 0.64271-0.73647 0.08557
  -4   3  -9107405.4 7804.86   1 0.31975-0.44592 0.94519-0.53592 0.06609-0.71689
   4  -3   9105776.7 2735.93   1 0.48327-0.35706 0.52322-0.93267 0.70190-0.05114
   4  -3  1028133.71 2290.64   1 0.70517-0.59987-0.70855 0.27963-0.02602 0.74963
  -4   3 -1025558.63 3170.78   1 0.63776-0.74390-0.23923 0.66822-0.73213 0.00891
  -4   3 -1028118.91 2025.22   1 0.30291-0.40871 0.95269-0.52341 0.02455-0.74765
   4  -3  1027349.68 3391.27   1 0.48351-0.37810 0.49610-0.92576 0.72117 0.00148
   4  -3  11 4158.48  528.19   1 0.68426-0.59936-0.72780 0.27889 0.04565 0.75031
  -4   3 -11 3787.21  467.45   1 0.63748-0.72326-0.23870 0.68769-0.73255-0.06299
  -4   3 -11 4270.41  429.83   1 0.28486-0.37028 0.95839-0.50908-0.01841-0.77699
   4  -3  11 4142.17  572.46   1 0.48344-0.39844 0.46590-0.91561 0.74108 0.05384
   4  -2 -1010130.35 1153.39   1 0.71803-0.20029-0.69139 0.73871-0.07996-0.64356
   4  -2 -10 9111.16 1945.38   1-0.26473 0.78549 0.66524-0.61841-0.69811-0.02360
   4  -2  -910020.84 1138.53   1 0.70103-0.20344-0.71305 0.74041-0.01062-0.64062
   4  -2  -9 9757.20 1530.15   1-0.26714 0.76726 0.66650-0.63964-0.69598 0.04643
  -4   2   9 9953.66  399.16   1 0.45547-0.95319 0.17772-0.20515 0.87232-0.22210
   4  -2  -8   88.05   61.60   1 0.67834-0.20116-0.73197 0.73934 0.06368-0.64257
   4  -2  -8  131.20   74.98   1-0.26379 0.74327 0.66474-0.65784-0.69894 0.12156
  -4   2   8   93.37   25.78   1 0.45835-0.93565 0.19494-0.20235 0.86712-0.28915
   4  -2  -7 7137.33  856.31   1 0.64867-0.19190-0.74727 0.73464 0.14421-0.65074
   4  -2  -7 7466.32  695.25   1-0.25321 0.71205 0.65909-0.67215-0.70815 0.20294
  -4   2   7 7589.22  281.91   1 0.45778-0.91466 0.19149-0.17888 0.86819-0.36246
   4  -2  -659579.25 5133.03   1 0.60995-0.17342-0.75760 0.72498 0.23233-0.66657
   4  -2  -660488.14 1848.53   1-0.23325 0.67144 0.64810-0.68113-0.72495 0.29191
  -4   2   663615.56 1438.16   1 0.45055-0.88701 0.14997-0.11732 0.88006-0.44658
   4  -2  -536777.74 3372.05   1 0.55914-0.14303-0.76073 0.70811 0.32959-0.69146
   4  -2  -538581.58 3360.91   1-0.20082 0.61837 0.62938-0.68238-0.75069 0.38983
  -4   2   539325.23  410.78   1 0.42091-0.83692 0.01264 0.04032 0.90700-0.54582
   4  -2  -447592.66 4489.17   1 0.49187-0.09637-0.75287 0.68017 0.43730-0.72668
   4  -2  -450452.68 1112.48   1-0.15114 0.54748 0.60045-0.67371-0.78524 0.49635
   4  -2  -313855.42 1691.27   1-0.07956 0.45546 0.55232-0.64544-0.82982 0.61315
   4  -2  -2 6180.62  484.70   1 0.01995 0.33550 0.47773-0.59070-0.87827 0.73382
  -4   2   2 7326.38  708.19   1-0.28595-0.06966 0.67618-0.56329-0.67897 0.82331
   4  -2  -1145638.2 2787.17   1 0.14940 0.18554 0.36768-0.50050-0.91787 0.84561
  -4   2   1149137.7 2836.74   1-0.13808-0.19694 0.59202-0.45920-0.79399 0.86622
   4  -2  -1138619.5 2257.50   1 0.44996-0.11558 0.14679-0.27956 0.88089-0.95314
   4  -2   012671.80 1621.65   1 0.30052 0.01400 0.21870-0.37141-0.92835 0.92835
  -4   2   013338.93 1354.77   1 0.03268-0.34726 0.46776-0.31508-0.88324 0.88324
  -4   2   014181.94  285.06   1 0.27312-0.58716 0.96089-0.80818-0.04556 0.04556
   4  -2   014268.86  274.35   1 0.47979-0.16576 0.58744-0.74014 0.65169-0.65169
   4  -2   1320712.8 5543.64   1 0.45112-0.15711 0.04312-0.21579-0.89141 0.96371
  -4   2  -1319260.3 5527.47   1 0.20565-0.49987 0.31491-0.14237-0.92657 0.85431
  -4   2  -1316346.8 5299.78   1 0.32673-0.62039 0.94142-0.76866 0.08345-0.15579
   4  -2   1326610.9 5442.01   1 0.46787-0.17421 0.68036-0.85311 0.56409-0.49178
   4  -2   2249869.1 4432.30   1 0.57572-0.30224-0.13316-0.05948-0.80672 0.95137
  -4   2  -2250090.0 4440.54   1 0.35509-0.62892 0.15868 0.03378-0.92126 0.77673
  -4   2  -2238328.8 4161.94   1 0.34443-0.61772 0.92982-0.73703 0.12956-0.27423
   4  -2   2250892.8 4324.16   1 0.46202-0.18873 0.70962-0.90241 0.53195-0.38733
   4  -2   3 6315.47  502.06   1 0.66203-0.40903-0.28649 0.07387-0.69255 0.90952
  -4   2  -3 5524.53  722.73   1 0.46702-0.72036 0.02257 0.19000-0.88395 0.66706
  -4   2  -3 5807.19  549.03   1 0.34893-0.60185 0.92638-0.71355 0.14161-0.35862
   4  -2   3 5520.32  488.32   1 0.46087-0.20792 0.71552-0.92838 0.52499-0.30802
   4  -2   452343.46 1186.63   1 0.71299-0.48036-0.40835 0.17573-0.56998 0.85928
  -4   2  -451379.19 1169.16   1 0.54282-0.77583-0.08263 0.31516-0.83576 0.54657
  -4   2  -450767.49 1141.98   1 0.34691-0.57946 0.92795-0.69509 0.13617-0.42552
   4  -2   451402.12 1110.13   1 0.46200-0.22946 0.70971-0.94259 0.53184-0.24261
   4  -2   513485.26 1080.85   1 0.73821-0.52625-0.50122 0.24862-0.45145 0.81317
  -4   2  -513382.09 1680.61   1 0.59183-0.80422-0.15909 0.41174-0.79020 0.42859
  -4   2  -512388.93 1019.56   1 0.34097-0.55315 0.93233-0.67943 0.12039-0.48206
   4  -2   510930.16 1115.13   1 0.46471-0.25255 0.69686-0.94978 0.54628-0.18474
   4  -2   6  172.42   36.87   1 0.74600-0.55441-0.57087 0.29827-0.34289 0.77694
  -4   2  -6   28.88   27.43   1 0.62253-0.81456-0.21147 0.48413-0.75347 0.31954
  -4   2  -6  101.75   24.03   1 0.33233-0.52415 0.93807-0.66513 0.09782-0.53184
   4  -2   6  224.75   40.17   1 0.46811-0.27631 0.67904-0.95200 0.56548-0.13164
   4  -2   764731.95 5107.20   1 0.74275-0.57166-0.62337 0.33082-0.24436 0.75083
  -4   2  -765881.89 1927.95   1 0.64143-0.81310-0.24614 0.53880-0.72661 0.22035
  -4   2  -768103.56 1944.42   1 0.32154-0.49296 0.94425-0.65139 0.07061-0.57678
   4  -2   767972.49 1912.28   1 0.47170-0.30028 0.65734-0.95035 0.58769-0.08154
   4  -2   8137966.7 4256.02   1 0.73220-0.58151-0.66314 0.35059-0.15529 0.73411
  -4   2  -8132757.8 4106.08   1 0.65258-0.80389-0.26767 0.58033-0.70885 0.13027
  -4   2  -8138932.6 4192.89   1 0.30911-0.46014 0.95019-0.63731 0.03965-0.61813
   4  -2   8137033.2 4112.12   1 0.47517-0.32412 0.63237-0.94542 0.61181-0.03335
   4  -2   9  804.68  118.76   1 0.71671-0.58641-0.69342 0.36088-0.07400 0.72517
  -4   2  -9  723.19  155.42   1 0.65844-0.78938-0.27936 0.61202-0.69886 0.04795
  -4   2  -9  542.47  101.60   1 0.29513-0.42579 0.95543-0.62253 0.00583-0.65662
   4  -2   9  713.30  121.32   1 0.47827-0.34760 0.60444-0.93754 0.63710 0.01366
   4  -2  1016143.89  830.11   1 0.69774-0.58796-0.71634 0.36374 0.00111 0.72249
  -4   2 -1015404.18 1941.21   1 0.66048-0.77105-0.28349 0.63615-0.69526-0.02795
  -4   2 -1016702.19 1130.72   1 0.27971-0.39000 0.95960-0.60667-0.03039-0.69270
   4  -2  1015681.81 1938.28   1 0.48083-0.37053 0.57373-0.92687 0.66304 0.06002
   4  -2  11 3282.28  249.47   1 0.67589-0.58652-0.73357 0.36097 0.07092 0.72504
  -4   2 -11 2851.31  356.18   1 0.65956-0.74977-0.28163 0.65429-0.69689-0.09865
  -4   2 -11 3396.73  262.02   1 0.26291-0.35283 0.96236-0.58941-0.06870-0.72670
   4  -2  11 3234.51  436.53   1 0.48268-0.39275 0.54031-0.91349 0.68926 0.10611
   4  -1 -10 7870.79  949.91   1 0.73089-0.20865-0.66644 0.79007-0.14711-0.57641
   4  -1 -10 7937.72 1183.80   1-0.30100 0.82626 0.68365-0.56040-0.66484-0.05687
   4  -1  -9 5517.13  587.55   1 0.71873-0.21688-0.69029 0.79392-0.08315-0.56801
   4  -1  -9 5632.69  612.72   1-0.30745 0.81206 0.68676-0.58349-0.65864 0.00910
  -4   1   9 3433.12 1346.45   1 0.44389-0.94611 0.11530-0.21912 0.88862-0.23841
   4  -1  -838172.99 3700.68   1 0.70211-0.22046-0.71191 0.79558-0.01458-0.56429
   4  -1  -838295.39 4411.23   1-0.30889 0.79286 0.68745-0.60414-0.65725 0.07988
   4  -1  -720640.22 1782.08   1 0.67966-0.21842-0.73108 0.79476 0.05972-0.56625
   4  -1  -722812.04 2570.76   1-0.30402 0.76735 0.68511-0.62177-0.66195 0.15674
  -4   1   720922.36  550.33   1 0.44454-0.90593 0.11855-0.18233 0.88787-0.38215
   4  -1  -644673.61 3411.79   1 0.64975-0.20892-0.74685 0.79053 0.14151-0.57568
   4  -1  -645459.75 4577.12   1-0.29091 0.73359 0.67867-0.63529-0.67436 0.24133
   4  -1  -5154761.8 3728.46   1 0.60969-0.18912-0.75765 0.78134 0.23288-0.59475
   4  -1  -5154557.7 3695.76   1-0.26656 0.68859 0.66620-0.64278-0.69650 0.33564
   4  -1  -5158806.9 3345.40   1 0.27339 0.14700 0.96085-0.93709-0.04494-0.31660
  -4   1   5164494.5 3461.88   1 0.41558-0.83613-0.00858-0.01485 0.90951-0.54832
   4  -1  -416533.14 1859.26   1 0.55522-0.15507-0.76061 0.76430 0.33644-0.62593
   4  -1  -417733.23 1978.73   1-0.22641 0.62781 0.64424-0.64079-0.73053 0.44184
   4  -1  -417032.43  372.00   1 0.28847 0.11155 0.95743-0.95370-0.00995-0.27928
  -4   1   417323.90  384.74   1 0.35532-0.75552-0.20908 0.20578 0.91105-0.62196
   4  -1  -3   39.69   38.67   1 0.47981-0.10024-0.75036 0.73399 0.45467-0.67171
   4  -1  -3  255.08   54.24   1-0.16347 0.54375 0.60826-0.62504-0.77671 0.56004
   4  -1  -3  112.15   21.11   1 0.29121 0.08843 0.95665-0.97294-0.00347-0.21345
  -4   1   3   81.97   12.80   1 0.14890-0.52863-0.64296 0.65941 0.75127-0.53452
   4  -1  -217522.30  553.25   1-0.06918 0.42901 0.54495-0.58158-0.83560 0.69115
  -4   1   215266.41 1769.05   1-0.37439 0.01428 0.71612-0.67964-0.58905 0.73340
   4  -1  -114872.41 1391.97   1 0.06491 0.27436 0.44136-0.49784-0.89497 0.82272
  -4   1   114364.52 1539.89   1-0.22947-0.10999 0.64597-0.58952-0.72805 0.80022
   4  -1  -115141.32  223.86   1 0.37948-0.04062 0.89676-0.95309 0.22759-0.29992
   4  -1  -114903.47  188.10   1 0.32544 0.01323-0.29002 0.23354 0.89998-0.97225
   4  -1   018608.51 1720.94   1 0.23671 0.08215 0.28454-0.36089-0.92897 0.92897
  -4   1   017187.54  483.10   1-0.04277-0.27618 0.52578-0.44944-0.84954 0.84954
   4  -1   017865.31  333.04   1 0.38253-0.06404 0.89311-0.96948 0.23664-0.23664
   4  -1   1220949.2 2683.62   1 0.41931-0.12093 0.08295-0.17926-0.90404 0.97633
  -4   1  -1218387.5 2670.23   1 0.16356-0.46211 0.35468-0.25849-0.92056 0.84831
   4  -1   1214585.9 2430.87   1 0.39285-0.09472 0.87969-0.97609 0.26795-0.19561
   4  -1   256378.90 1239.96   1 0.57079-0.29288-0.12541 0.00908-0.81145 0.95610
  -4   1  -256795.32 1251.96   1 0.34805-0.62621 0.16663-0.05051-0.92254 0.77801
   4  -1   257416.77 1202.52   1 0.40424-0.12648 0.86265-0.97909 0.30398-0.15931
   4  -1   323922.91 1938.22   1 0.66916-0.41170-0.30133 0.16502-0.67927 0.89625
  -4   1  -323805.54  596.18   1 0.48233-0.74004 0.00232 0.13390-0.87598 0.65909
  -4   1  -324722.97  588.48   1 0.27913-0.53654 0.95972-0.82330-0.03174-0.18518
   4  -1   323384.39  558.53   1 0.41541-0.15801 0.84304-0.97953 0.34163-0.12465
   4  -1   4 4027.36  305.09   1 0.72101-0.48392-0.43311 0.27680-0.54087 0.83017
  -4   1  -4 4040.00  567.61   1 0.56755-0.80473-0.12037 0.27670-0.81448 0.52519
  -4   1  -4 3733.40  364.28   1 0.29067-0.52771 0.95680-0.80036-0.00474-0.28449
   4  -1   4 3798.47  579.00   1 0.42613-0.18910 0.82127-0.97781 0.37935-0.09006
   4  -1   5  229.37   39.42   1 0.74247-0.52602-0.52753 0.35124-0.41283 0.77455
  -4   1  -5  174.91   39.31   1 0.61830-0.83512-0.20399 0.38032-0.75900 0.39738
  -4   1  -5  174.80   33.62   1 0.29350-0.51015 0.95595-0.77949 0.00194-0.36349
   4  -1   5  566.55   91.15   1 0.43615-0.21948 0.79745-0.97404 0.41692-0.05530
   4  -1   631936.01 2907.03   1 0.74570-0.54962-0.59483 0.39854-0.30015 0.73421
  -4   1  -631495.11 3330.24   1 0.64802-0.84448-0.25875 0.45509-0.71631 0.28237
  -4   1  -633095.82 3211.18   1 0.29092-0.48721 0.95673-0.76024-0.00415-0.42970
   4  -1   633313.62 3374.68   1 0.44538-0.24908 0.77163-0.96827 0.45410-0.02015
   4  -1   742529.82 3068.28   1 0.73847-0.56289-0.64362 0.42737-0.20099 0.70746
  -4   1  -741173.91 1322.13   1 0.66534-0.84131-0.29331 0.50961-0.68650 0.18023
  -4   1  -740463.91 4040.61   1 0.28465-0.46055 0.95844-0.74193-0.01891-0.48725
   4  -1   741924.95 1289.18   1 0.45375-0.27781 0.74382-0.96050 0.49074 0.01552
   4  -1   8 4666.30  417.15   1 0.72488-0.56968-0.67949 0.44325-0.11326 0.69208
  -4   1  -8 5061.01  522.13   1 0.67485-0.83045-0.31356 0.54986-0.66801 0.08942
  -4   1  -8 5041.37  426.60   1 0.27559-0.43113 0.96044-0.72391-0.03989-0.53858
   4  -1   8 4282.80  690.11   1 0.46121-0.30565 0.71400-0.95073 0.52675 0.05183
   4  -1   940575.66 3171.16   1 0.70728-0.57261-0.70610 0.44980-0.03416 0.68540
  -4   1  -941675.12 4665.04   1 0.67940-0.81463-0.32362 0.57992-0.65853 0.00761
  -4   1  -943618.31 3314.55   1 0.26431-0.39946 0.96220-0.70565-0.06557-0.58521
   4  -1   942626.67 1155.81   1 0.46753-0.33240 0.68221-0.93896 0.56212 0.08863
   4  -1  10 1292.96  192.45   1 0.68670-0.57244-0.72594 0.44964 0.03795 0.68565
  -4   1 -10  425.12   77.97   1 0.68051-0.79536-0.32610 0.60240-0.65616-0.06707
   4  -1  10  499.75   87.81   1 0.47305-0.35828 0.64822-0.92501 0.59668 0.12639
   4  -1  11 3476.09  627.03   1 0.66388-0.57003-0.74046 0.44417 0.10475 0.69121
  -4   1 -11 3531.14  385.15   1 0.67900-0.77348-0.32272 0.61901-0.65939-0.13616
   4  -1  11 3712.77  513.03   1 0.47751-0.38312 0.61201-0.90884 0.63041 0.16496
   4   0 -10 4496.46  629.36   1 0.74033-0.21360-0.63594 0.83587-0.21787-0.50565
   4   0 -10 4564.05  690.30   1-0.33252 0.86226 0.69841-0.49876-0.63375-0.08796
  -4   0  10 2644.70 1075.74   1 0.42706-0.95428 0.03812-0.23781 0.90341-0.18104
   4   0  -9 3529.30  311.72   1 0.73294-0.22660-0.66118 0.84111-0.16008-0.49109
   4   0  -9 3472.05  461.64   1-0.34268 0.85178 0.70292-0.52323-0.62327-0.02627
  -4   0   9 2217.12  736.99   1 0.43172-0.93845 0.05819-0.23841 0.90012-0.24990
   4   0  -8 9012.34  839.15   1 0.72198-0.23602-0.68485 0.84479-0.09859-0.48022
   4   0  -8 9112.03 1026.89   1-0.34855 0.83701 0.70546-0.54574-0.61711 0.03973
   4   0  -8 8254.82 1143.91   1 0.28962 0.19640 0.95711-0.79693-0.00724-0.57123
  -4   0   8 7117.22 1711.69   1 0.43345-0.91976 0.06589-0.22609 0.89876-0.32079
   4   0  -793624.66 1876.86   1 0.70677-0.24105-0.70670 0.84669-0.03218-0.47434
   4   0  -789204.14 1845.83   1-0.34908 0.81689 0.70569-0.56593-0.61655 0.11135
   4   0  -792727.95 1149.89   1 0.32153 0.14411 0.94426-0.80411 0.07057-0.57674
  -4   0   794786.50 1266.68   1 0.43150-0.89740 0.05725-0.19742 0.90029-0.39456
   4   0  -6259685.1 4956.80   1 0.68586-0.24055-0.72659 0.84658 0.04062-0.47479
   4   0  -6258659.5 4927.93   1-0.34262 0.78979 0.70289-0.58310-0.62333 0.19030
   4   0  -6265694.016648.04   1 0.35462 0.09054 0.92171-0.80151 0.15707-0.59108
   4   0  -5 7192.45  663.74   1 0.65731-0.23241-0.74363 0.84363 0.12220-0.48401
   4   0  -5 7068.81  774.60   1-0.32654 0.75306 0.69570-0.59587-0.63981 0.27895
   4   0  -5 6917.57  670.47   1 0.38975 0.03505 0.88391-0.78374 0.25841-0.62009
  -4   0   5 7076.20  412.89   1 0.40712-0.83221-0.04065-0.05919 0.91246-0.55127
   4   0  -414913.26 1462.74   1 0.61773-0.21312-0.75619 0.83620 0.21581-0.50530
   4   0  -416598.26 1922.08   1-0.29652 0.70240 0.68145-0.60159-0.66910 0.38041
   4   0  -415086.86  408.20   1 0.42807-0.02364 0.81696-0.73677 0.38642-0.67572
  -4   0   416661.24  452.43   1 0.37133-0.77599-0.16072 0.08084 0.91448-0.62553
   4   0  -334719.90 2817.81   1 0.56119-0.17699-0.76078 0.82079 0.32598-0.54310
   4   0  -335754.09  923.62   1-0.24542 0.63066 0.65485-0.59495-0.71479 0.49827
   4   0  -260649.83 1381.66   1 0.47745-0.11381-0.74984 0.78980 0.45800-0.60270
   4   0  -262951.84 1416.58   1-0.16180 0.52600 0.60721-0.56750-0.77788 0.63344
   4   0  -263325.96 1134.51   1 0.48082-0.11703 0.39325-0.35316 0.78368-0.92821
  -4   0   263957.57 1185.07   1 0.15907-0.52284-0.62692 0.58695 0.76266-0.61815
   4   0  -1291646.4 5029.99   1-0.02961 0.37338 0.51599-0.49613-0.85608 0.78385
  -4   0   1303915.5 5355.76   1-0.35023 0.00628 0.70618-0.72614-0.61533 0.68750
   4   0  -1295682.2 4844.45   1 0.38016-0.03677-0.13308 0.15305 0.91529-0.98753
   4   0   0151669.8 1940.00   1 0.16162 0.16162 0.35647-0.35647-0.92021 0.92021
  -4   0   0158576.2 2015.05   1-0.16166-0.16166 0.60712-0.60712-0.77798 0.77798
   4   0   0149638.5 1738.77   1 0.16133 0.16133-0.62330 0.62330 0.76515-0.76515
   4   0   118608.87  434.23   1 0.38682-0.08398 0.12202-0.14190-0.91404 0.98631
  -4   0  -119171.53  447.91   1 0.08211-0.38499 0.42689-0.40704-0.90056 0.82831
   4   0   2121804.2 1618.77   1 0.57558-0.29324-0.13295 0.09294-0.80686 0.95150
  -4   0  -2123571.7 1650.30   1 0.32072-0.60321 0.19691-0.15715-0.92647 0.78194
   4   0   2124888.6 1620.24   1 0.30321-0.02093 0.95258-0.99263 0.02526 0.11935
   4   0   310356.32  946.87   1 0.68530-0.42338-0.33703 0.27703-0.64557 0.86255
  -4   0  -310185.43 1406.72   1 0.49107-0.75316-0.00944 0.06931-0.87106 0.65417
   4   0   310378.43 1183.24   1 0.34127-0.07941 0.93212-0.99222 0.12117 0.09582
   4   0   421143.05  565.75   1 0.73281-0.49149-0.47589 0.39591-0.48631 0.77568
  -4   0  -419906.57  744.74   1 0.58984-0.83145-0.15584 0.23584-0.79233 0.50304
   4   0   421202.93  562.82   1 0.36973-0.12824 0.90750-0.98764 0.19930 0.09003
   4   0   5 7152.25  620.81   1 0.74587-0.52493-0.56666 0.46668-0.35008 0.71179
  -4   0  -5 6604.17  855.15   1 0.64285-0.86410-0.24882 0.34882-0.72445 0.36283
   4   0   5 6331.10  706.54   1 0.39232-0.17119 0.88043-0.98060 0.26630 0.09537
   4   0   618476.98 1598.29   1 0.74206-0.54159-0.62736 0.50740-0.23611 0.67023
  -4   0  -614330.58 1950.86   1 0.67126-0.87206-0.30581 0.42580-0.67519 0.24124
   4   0   614755.48 1613.64   1 0.41079-0.21004 0.85144-0.97171 0.32602 0.10791
   4   0   7 3473.31  484.23   1 0.72967-0.54959-0.66934 0.52939-0.13981 0.64628
  -4   0  -7 2553.24  379.91   1 0.68637-0.86679-0.33951 0.47950-0.64313 0.13686
   4   0   7 2505.75  297.95   1 0.42638-0.24600 0.82072-0.96104 0.38027 0.12599
   4   0   8 1963.26  266.44   1 0.71262-0.55293-0.69928 0.53933-0.05629 0.63511
  -4   0  -8 2083.99  254.07   1 0.69410-0.85415-0.35799 0.51798-0.62454 0.04595
   4   0   8 1927.01  218.83   1 0.43961-0.27959 0.78826-0.94863 0.43054 0.14804
   4   0   9 1382.80  136.23   1 0.69279-0.55364-0.72091 0.54092 0.01809 0.63314
  -4   0  -9 1359.15  173.45   1 0.69734-0.83702-0.36607 0.54605-0.61619-0.03472
   4   0   9 1113.20  182.39   1 0.45085-0.31120 0.75400-0.93442 0.47770 0.17321
   4   0  1038299.56 3115.69   1 0.67083-0.55209-0.73666 0.53667 0.08551 0.63809
  -4   0 -1035882.91 4115.79   1 0.69758-0.81689-0.36666 0.56665-0.61557-0.10766
   4   0  1037031.50 4226.88   1 0.46033-0.34104 0.71785-0.91831 0.52228 0.20095
   4   0  1112949.92  855.69   1 0.64722-0.54889-0.74783 0.52784 0.14782 0.64814
  -4   0 -1112774.41 1498.56   1 0.69556-0.79449-0.36160 0.58158-0.62083-0.17473
   4   0  1112976.56 1649.09   1 0.46797-0.36912 0.67980-0.90029 0.56467 0.23070
   4   0  12 3244.52  407.12   1 0.62208-0.54415-0.75527 0.51523 0.20633 0.66214
  -4   0 -12 3123.11  450.54   1 0.69164-0.77021-0.35203 0.59201-0.63063-0.23726
   4   0  12 3178.17  455.07   1 0.47425-0.39577 0.63947-0.88000 0.60510 0.26258
   4   1  -9 7601.11  847.27   1 0.74240-0.23156-0.62545 0.88169-0.24008-0.41109
   4   1  -9 7773.74 1139.38   1-0.37272 0.88631 0.71546-0.45936-0.59092-0.05862
   4   1  -9 7355.81  780.65   1 0.30970 0.20119 0.94994-0.69339 0.04110-0.69190
  -4  -1   9 5679.36 1617.02   1 0.41895-0.93029 0.00474-0.26087 0.90799-0.25785
   4   1  -819606.09 1693.04   1 0.73668-0.24623-0.65001 0.88625-0.18650-0.39232
   4   1  -819324.74 2205.32   1-0.38257 0.87551 0.71931-0.48318-0.57985 0.00247
   4   1  -820013.64 1562.02   1 0.34303 0.14734 0.93085-0.69421 0.12584-0.70452
  -4  -1   820165.21  693.78   1 0.42044-0.91135 0.01072-0.24688 0.90725-0.32935
   4   1  -750693.68 4792.02   1 0.72788-0.25782-0.67336 0.88961-0.12949-0.37697
   4   1  -752902.82 1849.86   1-0.38797 0.86028 0.72137-0.50520-0.57367 0.06846
   4   1  -751551.10 3768.66   1 0.37572 0.09428 0.90106-0.68446 0.21657-0.72292
  -4  -1   751839.31 1583.54   1 0.41838-0.88887 0.00247-0.21866 0.90826-0.40260
   4   1  -6  400.05   59.13   1 0.71531-0.26564-0.69550 0.89176-0.06780-0.36631
   4   1  -6  317.97   56.77   1-0.38765 0.83931 0.72124-0.52504-0.57404 0.14101
   4   1  -6  613.04   81.67   1 0.40796 0.04167 0.85651-0.65993 0.31614-0.75016
  -4  -1   6  368.69   59.57   1 0.41149-0.86155-0.02429-0.17193 0.91108-0.47766
   4   1  -5132263.1 3121.02   1 0.69789-0.26851-0.71620 0.89250 0.00059-0.36240
   4   1  -5135666.3 3171.39   1-0.37945 0.81046 0.71810-0.54187-0.58338 0.22252
   4   1  -496960.21 2443.31   1 0.67329-0.26433-0.73519 0.89149 0.07846-0.36791
   4   1  -497122.07 2440.68   1-0.35970 0.77007 0.71017-0.55389-0.60520 0.31651
   4   1  -497926.64 2192.92   1 0.46643-0.05751 0.68811-0.53159 0.55581-0.84504
  -4  -1   4100134.5 2287.92   1 0.37101-0.78021-0.16171 0.00543 0.91443-0.62548
   4   1  -3  196.59   31.69   1 0.63771-0.24916-0.75110 0.88741 0.17075-0.38784
   4   1  -3  158.46   32.75   1-0.32180 0.71153 0.69352-0.55721-0.64456 0.42804
   4   1  -3  242.74   35.31   1 0.48313-0.09458 0.52816-0.39167 0.69830-0.91522
  -4  -1   3  271.02   45.90   1 0.32504-0.71383-0.29106 0.15486 0.89979-0.68297
   4   1  -218566.99 2099.32   1 0.58334-0.21511-0.76044 0.87676 0.28537-0.43012
   4   1  -218998.00  579.59   1-0.25354 0.62263 0.65926-0.54292-0.70787 0.56352
   4   1  -218530.09  427.71   1 0.47047-0.10215 0.28043-0.16398 0.83666-0.98115
  -4  -1   219701.66  488.85   1 0.24920-0.61756-0.46430 0.34792 0.84989-0.70538
   4   1  -119303.52 1759.24   1 0.49375-0.14603-0.75324 0.84954 0.43455-0.50689
   4   1  -119359.03  484.25   1-0.13322 0.48136 0.58885-0.49266-0.79718 0.72496
   4   1  -119579.96  381.89   1 0.40148-0.05356-0.06115 0.15753 0.91382-0.98606
  -4  -1   119988.58  427.38   1 0.14100-0.48880-0.65512 0.55873 0.74224-0.66998
   4   1   0  813.09  102.09   1 0.07102 0.25656 0.43625-0.35991-0.89701 0.89701
  -4  -1   0  700.40   92.52   1-0.33597 0.00816 0.69995-0.77637-0.63022 0.63022
   4   1   0  815.43  127.07   1 0.27047 0.05681-0.41937 0.49578 0.86658-0.86658
   4   1   167605.27 1563.96   1 0.35479-0.04762 0.15902-0.10254-0.92132 0.99358
  -4  -1  -166283.67 1543.10   1-0.07174-0.23551 0.54678-0.60326-0.83419 0.76196
   4   1   172211.01 1712.58   1 0.12277 0.18393-0.68223 0.73866 0.72074-0.64849
   4   1   2297364.0 3223.56   1 0.59856-0.31179-0.17021 0.20654-0.78278 0.92742
  -4  -1  -2301552.5 3277.21   1 0.25189-0.53870 0.26928-0.30587-0.92953 0.78500
   4   1   3 8914.53  750.85   1 0.71252-0.44615-0.40700 0.42332-0.57153 0.78850
  -4  -1  -3 8252.11  285.33   1 0.48856-0.75502-0.00605-0.01043-0.87250 0.65561
   4   1   4 6832.76  727.77   1 0.74420-0.49839-0.54230 0.53862-0.38995 0.67932
  -4  -1  -4 5237.70  838.12   1 0.60946-0.85550-0.18864 0.19232-0.77004 0.48075
   4   1   4 5973.71  766.44   1 0.29659-0.05056 0.95495-0.95868 0.00931 0.27992
   4   1   5  197.68   35.62   1 0.74331-0.51795-0.61976 0.59610-0.25173 0.61349
  -4  -1  -5  520.05  101.47   1 0.66541-0.89104-0.29347 0.31715-0.68636 0.32474
   4   1   5  283.41   46.76   1 0.33497-0.10938 0.93639-0.96020 0.10468 0.25699
   4   1   6  962.17   98.76   1 0.73044-0.52547-0.66754 0.62388-0.14436 0.57848
  -4  -1  -6  748.60  119.78   1 0.69175-0.89701-0.35229 0.39596-0.63036 0.19642
   4   1   6  736.07  113.87   1 0.36542-0.16019 0.91184-0.95569 0.18706 0.24694
   4   1   767422.83 1869.65   1 0.71273-0.52815-0.69913 0.63548-0.05674 0.56321
  -4  -1  -763688.50 1763.57   1 0.70447-0.88935-0.38454 0.44822-0.59652 0.09025
   4   1   766760.03 1822.41   1 0.39024-0.20538 0.88326-0.94714 0.25990 0.24643
   4   1   8 8868.54  887.06   1 0.69275-0.52872-0.72094 0.63726 0.01822 0.56066
  -4  -1  -810644.74 1475.45   1 0.71034-0.87485-0.40071 0.48439-0.57865 0.00005
   4   1   8 7895.98  830.18   1 0.41069-0.24621 0.85162-0.93563 0.32568 0.25291
   4   1   930708.44 2404.76   1 0.67120-0.52758-0.73644 0.63276 0.08445 0.56679
  -4  -1  -931531.01 3608.67   1 0.71234-0.85647-0.40646 0.51013-0.57214-0.07876
   4   1   928756.52 3599.75   1 0.42786-0.28376 0.81742-0.92148 0.38567 0.26523
   4   1  10 9792.39  733.51   1 0.64847-0.52526-0.74735 0.62367 0.14471 0.57889
  -4  -1 -10 9439.87 1089.88   1 0.71182-0.83559-0.40497 0.52864-0.57384-0.14939
   4   1  10 9690.40 1207.45   1 0.44225-0.31851 0.78087-0.90498 0.44118 0.28205
   4   1  11 7780.71  655.60   1 0.62460-0.52179-0.75469 0.61098 0.20076 0.59533
  -4  -1 -11 8083.13 1624.05   1 0.70942-0.81281-0.39812 0.54179-0.58156-0.21400
   4   1  11 7975.85  788.28   1 0.45423-0.35086 0.74204-0.88619 0.49298 0.30257
   4   1  12 3992.71  323.49   1 0.59959-0.51720-0.75905 0.59534 0.25360 0.61486
  -4  -1 -12 4317.33  551.26   1 0.70539-0.78841-0.38703 0.55070-0.59381-0.27407
   4   1  12 4337.38  565.77   1 0.46385-0.38091 0.70103-0.86521 0.54164 0.32604
   4   2  -9 5055.48  590.11   1 0.74607-0.23089-0.58295 0.91554-0.32175-0.32933
   4   2  -9 4906.52  734.31   1-0.39758 0.91566 0.72492-0.39240-0.56250-0.08703
   4   2  -9 4552.85  519.35   1 0.34625 0.16896 0.92845-0.59541 0.13442-0.78544
  -4  -2   9 3830.28  885.94   1 0.40557-0.92145-0.04637-0.28616 0.91288-0.26274
  -4  -2   8 3198.36  434.44   1 0.41242-0.90732-0.73141 0.41890 0.54308 0.03568
   4   2  -8 2844.04  416.61   1 0.74483-0.24988-0.60729 0.91984-0.27643-0.30239
   4   2  -8 3050.54  389.59   1 0.37815 0.11669 0.89830-0.58530 0.22368-0.80237
  -4  -2   8 2371.79  523.35   1 0.40698-0.90243-0.04119-0.27138 0.91250-0.33460
  -4  -2   7 1263.53  127.04   1 0.42211-0.89663-0.73460 0.44208 0.53119-0.02476
   4   2  -7 1244.61  150.37   1 0.74147-0.26691-0.63050 0.92306-0.22950-0.27696
   4   2  -7 1195.46  146.16   1 0.40829 0.06614 0.85577-0.56273 0.31772-0.82398
  -4  -2   7 1176.06  140.91   1 0.40500-0.88002-0.04846-0.24414 0.91303-0.40736
  -4  -2   621250.88 1376.49   1 0.42721-0.88133-0.73622 0.46369 0.52484-0.09076
   4   2  -620063.39 1889.26   1 0.73584-0.28167-0.65273 0.92529-0.18019-0.25392
   4   2  -621108.44 1566.99   1 0.43632 0.01775 0.79703-0.52404 0.41756-0.85150
  -4  -2   621236.45  684.30   1 0.39868-0.85328-0.07105-0.20157 0.91432-0.48090
  -4  -2   550425.79 3279.96   1 0.42611-0.85984-0.73588 0.48332 0.52621-0.16448
   4   2  -548255.13 3837.46   1 0.72751-0.29374-0.67414 0.92671-0.12744-0.23432
   4   2  -550802.93 1342.82   1 0.46070-0.02700 0.71622-0.46328 0.52418-0.88580
  -4  -2   548778.05 1389.76   1 0.38638-0.82055-0.11289-0.13976 0.91540-0.55421
  -4  -2   422025.08 1465.20   1 0.41598-0.82932-0.73260 0.50003 0.53874-0.24935
   4   2  -418830.90 1810.68   1 0.71571-0.30233-0.69492 0.92749-0.06954-0.21986
   4   2  -420776.46 1957.01   1 0.47823-0.06485 0.60484-0.37197 0.63674-0.92597
  -4  -2   420666.40  585.73   1 0.36535-0.77910-0.17882-0.05386 0.91352-0.62457
   4   2  -359067.62 1389.95   1 0.69899-0.30596-0.71511 0.92773-0.00331-0.21376
   4   2  -360745.79 1405.62   1-0.38964 0.78386 0.72199-0.50927-0.57175 0.35523
   4   2  -359270.90 1228.08   1 0.48318-0.08998 0.45142-0.23849 0.75016-0.96696
  -4  -2   358470.74 1303.76   1 0.33171-0.72506-0.27375 0.06115 0.90278-0.68596
   4   2  -213200.24 1261.24   1 0.67388-0.30126-0.73483 0.92745 0.07678-0.22151
   4   2  -215630.09 1906.89   1-0.33963 0.71321 0.70158-0.50883-0.62643 0.48209
   4   2  -215801.96 1554.98   1 0.46609-0.09326 0.24649-0.05365 0.84970-0.99419
  -4  -2   214155.81  740.30   1 0.28016-0.65300-0.39811 0.20544 0.87350-0.72895
   4   2  -1 4461.99  343.09   1 0.63237-0.28016-0.75268 0.92530 0.18320-0.25556
   4   2  -1 4764.64  715.77   1-0.24010 0.59304 0.65192-0.47913-0.71926 0.64709
   4   2  -1 4176.31  450.63   1 0.41591-0.06345-0.00725 0.18004 0.90937-0.98160
  -4  -2   1 3852.65  577.61   1 0.20758-0.55997-0.54425 0.37144 0.81283-0.74058
   4   2   0143769.3 2524.87   1 0.55079-0.21894-0.76041 0.91305 0.34408-0.34408
   4   2   0147727.6 2582.51   1-0.03948 0.37155 0.52334-0.37067-0.85120 0.85120
   4   2   0145532.6 2628.96   1 0.32966 0.00217-0.27914 0.43196 0.90188-0.90188
  -4  -2   0158647.0 2878.24   1 0.11694-0.44878-0.69062 0.53780 0.71369-0.71369
   4   2   126708.84  380.57   1 0.32553-0.01403 0.19165-0.05881-0.92590 0.99817
  -4  -2  -127739.10  427.69   1-0.35166 0.04001 0.70679-0.83965-0.61382 0.54164
   4   2   126389.65  563.70   1 0.22172 0.08957-0.51809 0.65093 0.82608-0.75383
   4   2   2242656.2 4007.45   1 0.65852-0.36732-0.27952 0.39218-0.69871 0.84336
   4   2   2267254.8 4655.58   1 0.11675 0.17399-0.69090 0.80375 0.71345-0.56894
   4   2   3284128.1 4735.58   1 0.74337-0.47269-0.53469 0.62732-0.40185 0.61888
  -4  -2  -3285522.9 4749.77   1 0.46168-0.73252 0.02951-0.12236-0.88655 0.66965
   4   2   4 2543.47  469.11   1 0.74042-0.49017-0.63555 0.70819-0.21871 0.50812
  -4  -2  -4 2810.19  434.32   1 0.62560-0.87607-0.21696 0.14430-0.74936 0.46007
   4   2   550237.63 1027.54   1 0.72265-0.49280-0.68364 0.73628-0.10195 0.46371
  -4  -2  -547175.35 1043.80   1 0.68560-0.91568-0.33772 0.28509-0.64489 0.28327
   4   2   550384.52 1090.52   1 0.26958-0.03944 0.96148-0.90887-0.05364 0.41519
   4   2   615464.38 1355.17   1 0.70264-0.49331-0.71134 0.74397-0.01654 0.45071
  -4  -2  -614787.78  557.28   1 0.70936-0.91907-0.39795 0.36532-0.58175 0.14780
   4   2   614336.32 1725.32   1 0.31199-0.10222 0.94893-0.91635 0.04675 0.38710
   4   2   7  171.70   43.28   1 0.68206-0.49313-0.72941 0.74204 0.05244 0.45407
  -4  -2  -7  230.61   48.48   1 0.71942-0.90875-0.42796 0.41532-0.54706 0.04079
   4   2   7   19.00   39.64   1 0.34689-0.15756 0.92797-0.91548 0.13613 0.37021
   4   2   833456.99 3054.12   1 0.66114-0.49262-0.74183 0.73446 0.11212 0.46676
  -4  -2  -832608.95  935.67   1 0.72346-0.89243-0.44129 0.44865-0.53089-0.04769
   4   2   833912.04 3529.34   1 0.37558-0.20661 0.90122-0.90878 0.21615 0.36252
   4   2   9149768.4 4517.05   1 0.63971-0.49161-0.75046 0.72310 0.16602 0.48522
  -4  -2  -9141264.7 4258.39   1 0.72437-0.87296-0.44442 0.47178-0.52703-0.12388
   4   2   9148528.9 4406.56   1 0.39949-0.25089 0.87007-0.89766 0.28873 0.36228
   4   2  10  168.30   70.68   1 0.61754-0.48986-0.75623 0.70884 0.21621 0.50751
  -4  -2 -10  251.36   49.10   1 0.72329-0.85151-0.44070 0.48806-0.53162-0.19161
   4   2  10  562.89   87.11   1 0.41939-0.29119 0.83535-0.88310 0.35536 0.36787
   4   2  1120550.16 2909.21   1 0.59451-0.48725-0.75960 0.69221 0.26372 0.53237
  -4  -2 -1121379.71 2779.57   1 0.72067-0.82852-0.43200 0.49936-0.54221-0.25335
   4   2  1121169.75 2270.93   1 0.43613-0.32830 0.79752-0.86531 0.41682 0.37873
   4   2  12 2452.53  246.02   1 0.57044-0.48360-0.76084 0.67344 0.30937 0.55910
  -4  -2 -12 2341.96  382.96   1 0.71668-0.80415-0.41940 0.50675-0.55719-0.31069
   4   2  12 2208.77  296.41   1 0.45002-0.36256 0.75680-0.84464 0.47404 0.39384
  -4  -3   814149.90 1367.46   1 0.43523-0.93460-0.73869 0.34987 0.51468 0.06409
   4   3  -814114.86  918.49   1 0.74538-0.24608-0.55682 0.94572-0.36652-0.21221
   4   3  -814227.70  954.73   1 0.40117 0.09814 0.86750-0.47813 0.29410-0.87278
  -4  -3   814150.00  684.11   1 0.39298-0.89297-0.09078-0.29819 0.91505-0.33715
  -4  -3   7  856.10  222.45   1 0.44852-0.92750-0.74254 0.37370 0.49744 0.00898
   4   3  -7  875.09  228.96   1 0.74610-0.26717-0.57841 0.94732-0.32979-0.17660
   4   3  -7 1008.22  254.29   1 0.42811 0.05077 0.81685-0.44746 0.38659-0.89285
  -4  -3   7 1211.74  312.29   1 0.39119-0.87075-0.09686-0.27214 0.91519-0.40953
  -4  -3   6   89.31   57.45   1 0.45814-0.91673-0.74514 0.39628 0.48462-0.05054
   4   3  -6  196.03   50.59   1 0.74553-0.28686-0.59864 0.94750-0.29293-0.14118
   4   3  -6   97.69   47.99   1 0.45181 0.00671 0.75073-0.40138 0.48194-0.91588
  -4  -3   6   62.32   49.70   1 0.38546-0.84459-0.11593-0.23310 0.91541-0.48198
  -4  -3   5 3336.05  276.61   1 0.46299-0.90119-0.74638 0.41751 0.47805-0.11632
   4   3  -5 2908.31  253.69   1 0.74363-0.30536-0.61750 0.94637-0.25630-0.10545
   4   3  -5 3379.91  264.16   1 0.47046-0.03225 0.66519-0.33592 0.57979-0.94133
  -4  -3   5 3351.08  341.34   1 0.37464-0.81335-0.15049-0.17857 0.91487-0.55368
  -4  -3   444581.30 1932.02   1 0.46107-0.87888-0.74589 0.43700 0.48066-0.19128
   4   3  -447092.77 1377.80   1 0.74053-0.32265-0.63507 0.94395-0.21976-0.06964
   4   3  -448601.95 1263.15   1 0.48198-0.06413 0.55502-0.24579 0.67796-0.96719
  -4  -3   447637.10 1330.84   1 0.35698-0.77526-0.20345-0.10565 0.91168-0.62273
  -4  -3   331125.03 2181.86   1 0.44850-0.84591-0.74253 0.45363 0.49747-0.28043
   4   3  -326649.24 2579.25   1 0.73626-0.33877-0.65137 0.94026-0.18335-0.03370
   4   3  -330180.70  654.88   1 0.48195-0.08425 0.41499-0.12568 0.77168-0.98848
  -4  -3   328604.08  920.52   1 0.33025-0.72814-0.27759-0.01141 0.90214-0.68532
  -4  -3   2107219.1 2091.19   1 0.41690-0.79393-0.73291 0.46398 0.53761-0.39292
   4   3  -2103877.5 2049.43   1 0.73090-0.35380-0.66642 0.93531-0.14717 0.00247
   4   3  -2107454.4 2013.73   1 0.46550-0.08816 0.24224 0.02698 0.85124-0.99574
  -4  -3   2105790.8 2086.20   1 0.29118-0.66857-0.37320 0.10411 0.88086-0.73631
   4   3  -192032.50 1582.73   1 0.72453-0.36782-0.68017 0.92907-0.11144 0.03909
   4   3  -194442.42 1602.99   1-0.34310 0.70053 0.70310-0.45390-0.62283 0.55066
   4   3  -196989.92 1696.84   1 0.42752-0.07052 0.04010 0.20908 0.90311-0.97535
  -4  -3   194309.89 1739.20   1 0.23760-0.59458-0.48750 0.23828 0.84016-0.76791
   4   3   0   80.22   20.28   1 0.71736-0.38104-0.69244 0.92135-0.07688 0.07688
   4   3   0  117.19   26.32   1-0.16865 0.50543 0.60978-0.38054-0.77441 0.77441
   4   3   0   74.74   18.39   1 0.36627-0.02969-0.17609 0.40531 0.91369-0.91369
  -4  -3   0  188.69   35.80   1 0.16943-0.50585-0.61014 0.38091 0.77395-0.77395
   4   3   1166091.4 2744.31   1 0.71051-0.39464-0.70211 0.91104-0.04701 0.11937
   4   3   1168463.9 2771.56   1 0.30861 0.00721 0.21003-0.00084-0.92770 0.99997
   4   3   1181835.8 3309.35   1 0.28747 0.02841-0.38169 0.59099 0.87844-0.80617
   4   3   297093.58 1973.02   1 0.20269 0.09263-0.55307 0.74233 0.80809-0.66359
   4   3   324684.40  327.09   1 0.68244-0.40739-0.72913 0.89807 0.05128 0.16579
  -4  -3  -324455.65  399.76   1 0.35064-0.62576 0.16371-0.33314-0.92208 0.70529
   4   3   325796.51  675.64   1 0.12417 0.15060-0.68020 0.84947 0.72242-0.50567
   4   3   4381048.8 5324.90   1 0.67176-0.41713-0.73611 0.88505 0.08284 0.20659
  -4  -3  -4399445.3 5541.23   1 0.63639-0.89129-0.23667 0.08768-0.73416 0.44487
   4   3   5215095.0 3276.01   1 0.65899-0.42476-0.74286 0.87180 0.11782 0.24398
  -4  -3  -5213493.8 3226.15   1 0.70326-0.93780-0.38134 0.25239-0.59999 0.23837
   4   3   6 1757.53  157.29   1 0.64482-0.43101-0.74871 0.85765 0.15371 0.28045
  -4  -3  -6 1798.89  279.11   1 0.72376-0.93792-0.44231 0.33336-0.52964 0.09570
  -4  -3  -7116413.1 2784.03   1 0.73118-0.92484-0.46912 0.38017-0.49527-0.01112
   4   3   7121345.9 2926.90   1 0.29929-0.10540 0.95403-0.86511 0.01579 0.49037
   4   3   879932.03 2149.58   1 0.61271-0.43974-0.75713 0.82607 0.22653 0.35244
   4   3   880914.46 2154.29   1 0.33603-0.16260 0.93569-0.86688 0.10744 0.47123
   4   3   929696.48 1249.42   1 0.59481-0.44226-0.75957 0.80850 0.26313 0.38822
  -4  -3  -929559.55 3590.20   1 0.73363-0.88655-0.47941 0.43045-0.48159-0.16949
   4   3   926232.77 3135.60   1 0.36677-0.21370 0.91051-0.86174 0.19087 0.46014
   4   3  10150347.5 4179.20   1 0.57564-0.44351-0.76074 0.78968 0.29981 0.42391
  -4  -3 -10145293.4 4045.19   1 0.73222-0.86476-0.47339 0.44443-0.48963-0.23379
   4   3  10151649.5 4163.74   1 0.39268-0.25998 0.87993-0.85119 0.26741 0.45593
  -4  -3 -1161080.78 1586.56   1 0.72958-0.84175-0.46284 0.45387-0.50346-0.29230
   4   3  1164819.69 1514.97   1 0.41440-0.30211 0.84493-0.83636 0.33816 0.45739
   4   3  1211161.44  973.02   1 0.53328-0.44198-0.75908 0.74800 0.37336 0.49510
  -4  -3 -1211965.21 1652.82   1 0.72565-0.81758-0.44889 0.45993-0.52145-0.34643
   4   3  1211801.50 1263.76   1 0.43271-0.34079 0.80608-0.81756 0.40372 0.46416
  -4  -4   8  635.92  108.18   1 0.45266-0.95649-0.74368 0.27853 0.49196 0.08680
   4   4  -8  617.86   93.52   1 0.73779-0.23400-0.49905 0.96426-0.45453-0.12421
   4   4  -8  444.67   63.73   1 0.41607 0.08764 0.84180-0.37600 0.34387-0.92246
  -4  -4   8  494.87  130.52   1 0.37838-0.88291-0.13874-0.32664 0.91519-0.33729
  -4  -4   715166.00 1750.36   1 0.46894-0.95238-0.74785 0.30269 0.46989 0.03653
   4   4  -715234.77 2031.62   1 0.74106-0.25764-0.51779 0.96300-0.42744-0.07895
   4   4  -715912.03 1339.85   1 0.44018 0.04316 0.78669-0.34094 0.43282-0.93909
  -4  -4   714982.80 1584.68   1 0.37685-0.86096-0.14356-0.30185 0.91507-0.40941
  -4  -4   6 5745.91  491.98   1 0.48226-0.94531-0.75089 0.32572 0.45118-0.01710
   4   4  -6 5025.46  543.77   1 0.74331-0.28027-0.53418 0.95940-0.40264-0.03141
   4   4  -6 5448.27  479.13   1 0.46037 0.00261 0.71768-0.29197 0.52247-0.95642
  -4  -4   6 5343.22  491.28   1 0.37170-0.83538-0.15959-0.26585 0.91453-0.48110
  -4  -4   5 5641.65  411.14   1 0.49190-0.93456-0.75288 0.34769 0.43725-0.07552
   4   4  -5 5183.05  521.82   1 0.74472-0.30205-0.54787 0.95309-0.38108 0.01937
   4   4  -5 5921.69  512.01   1 0.47518-0.03250 0.63228-0.22666 0.61189-0.97343
  -4  -4   5 5677.45  495.52   1 0.36209-0.80534-0.18853-0.21694 0.91287-0.55168
  -4  -4   4   65.22   46.51   1 0.49658-0.91884-0.75377 0.36856 0.43038-0.14099
   4   4  -4   57.27   31.58   1 0.74546-0.32317-0.55813 0.94336-0.36436 0.07499
   4   4  -4   53.92   29.53   1 0.48315-0.06084 0.52752-0.14194 0.69877-0.98800
  -4  -4   4   55.31   35.59   1 0.34702-0.76997-0.23248-0.15287 0.90858-0.61948
  -4  -4   311072.82  855.00   1 0.49373-0.89561-0.75323 0.38801 0.43457-0.21753
   4   4  -3 9941.83 1194.57   1 0.74575-0.34383-0.56356 0.92879-0.35532 0.13829
   4   4  -311673.66 1101.91   1 0.48126-0.07905 0.40106-0.03536 0.77944-0.99624
  -4  -4   312371.69 1306.32   1 0.32455-0.72699-0.29232-0.07309 0.89956-0.68273
  -4  -4   211495.93  966.19   1 0.47780-0.85928-0.74991 0.40467 0.45752-0.31282
   4   4  -210471.47 1469.87   1 0.74562-0.36408-0.56099 0.90622-0.35962 0.21493
   4   4  -211464.68 1244.95   1 0.46690-0.08505 0.25242 0.09320 0.84751-0.99200
  -4  -4   212946.40 1437.51   1 0.29300-0.67495-0.36899 0.02349 0.88203-0.73748
  -4  -4   1 4411.48  420.32   1 0.43420-0.79529-0.73838 0.41312 0.51599-0.44365
   4   4  -1 4998.49  655.09   1 0.74417-0.38301-0.54202 0.86726-0.39039 0.31805
   4   4  -1 4149.00  549.12   1 0.43749-0.07606 0.08442 0.24118 0.89524-0.96749
  -4  -4   1 4220.05  503.97   1 0.25076-0.61232-0.46113 0.13550 0.85115-0.77890
   4   4   084799.57 1349.35   1 0.73262-0.39183-0.47509 0.78033-0.48738 0.48738
   4   4   087029.60 1376.72   1-0.30766 0.64893 0.68686-0.38121-0.65845 0.65845
   4   4   083521.10 1592.84   1 0.39195-0.05084-0.09428 0.39991 0.91513-0.91513
  -4  -4   083094.96 1660.63   1 0.19712-0.53813-0.56298 0.25734 0.80261-0.80261
   4   4   121172.33 2355.83   1 0.33302-0.01259-0.27032 0.55603 0.90333-0.83106
  -4  -4  -121559.86  687.23   1 0.13330-0.45377-0.66673 0.38107 0.73327-0.80552
   4   4   295491.00 1812.11   1 0.26620 0.03372-0.42854 0.69433 0.86341-0.71886
   4   4   3263335.1 4131.47   1 0.19924 0.08012-0.55922 0.80491 0.80471-0.58795
  -4  -4  -442596.71  674.72   1 0.63571-0.89504-0.23542 0.01011-0.73514 0.44585
   4   4   443217.69 1084.10   1 0.13841 0.12039-0.65905 0.88475 0.73924-0.45023
   4   4   5 4087.39  245.28   1 0.50976-0.27108-0.75605 0.96132 0.41051-0.04864
  -4  -4  -5 4657.42  733.62   1 0.71808-0.95707-0.42373 0.21847-0.55209 0.19047
   4   4   6 4443.23  415.08   1 0.53842-0.32016-0.75955 0.94482 0.36492 0.06930
  -4  -4  -6 5305.71  907.86   1 0.73478-0.95331-0.48448 0.29922-0.47473 0.04067
   4   4   7 2874.68  252.34   1 0.54495-0.34711-0.76006 0.92532 0.35401 0.15259
  -4  -4  -7 3284.85  549.67   1 0.73933-0.93749-0.50737 0.34211-0.44266-0.06373
   4   4   810579.46  684.45   1 0.54166-0.36423-0.75982 0.90508 0.35953 0.21944
  -4  -4  -810491.54 1596.09   1 0.74042-0.91820-0.51374 0.36847-0.43340-0.14533
   4   4   810156.76 1037.05   1 0.29448-0.11647 0.95564-0.81039 0.00429 0.57418
   4   4   9106319.2 3293.60   1 0.53278-0.37577-0.75903 0.88428 0.37418 0.27717
  -4  -4  -9103594.7 3214.16   1 0.73999-0.89739-0.51116 0.38589-0.43717-0.21391
   4   4   9110341.7 3391.63   1 0.33160-0.17406 0.93852-0.81338 0.09594 0.55507
   4   4  1051364.47 3891.57   1 0.52014-0.38354-0.75755 0.86281 0.39441 0.32931
  -4  -4 -1050399.61 2048.11   1 0.73852-0.87555-0.50291 0.39763-0.44906-0.27436
   4   4  1051719.85 5307.17   1 0.36314-0.22597 0.91405-0.80894 0.18064 0.54271
   4   4  11 1119.09  149.72   1 0.50467-0.38826-0.75521 0.84066 0.41828 0.37752
  -4  -4 -11 1143.50  207.06   1 0.73609-0.85275-0.49060 0.40532-0.46634-0.32943
   4   4  11 1210.69  181.51   1 0.39002-0.27322 0.88355-0.79848 0.25924 0.53644
   4   4  1215136.94 1440.07   1 0.48676-0.39074-0.75185 0.81732 0.44472 0.42343
  -4  -4 -1216037.85 1880.14   1 0.73262-0.82890-0.47509 0.40981-0.48738-0.38073
   4   4  1216028.80 1629.42   1 0.41272-0.31635 0.84799-0.78312 0.33249 0.53538
  -4  -5   7 3083.10  433.58   1 0.48367-0.97157-0.75120 0.22972 0.44917 0.05725
   4   5  -7 3115.05  295.23   1 0.72585-0.23794-0.44962 0.97117-0.52054 0.01427
   4   5  -7 2850.64  439.50   1 0.44746 0.04034 0.76517-0.24306 0.46290-0.96916
  -4  -5   7 2325.02  565.32   1 0.36191-0.85056-0.18904-0.33278 0.91283-0.40717
  -4  -5   614727.42 1209.33   1 0.49994-0.96745-0.75439 0.25289 0.42537 0.00870
   4   5  -614684.50 1292.00   1 0.72910-0.26157-0.46097 0.96250-0.50586 0.07181
   4   5  -614035.85 1105.27   1 0.46487 0.00264 0.69607-0.19405 0.54714-0.98098
  -4  -5   615062.79 2484.39   1 0.35733-0.82555-0.20244-0.29941 0.91177-0.47834
  -4  -5   512549.79  774.78   1 0.51316-0.96047-0.75657 0.27495 0.40527-0.04341
   4   5  -512541.08 1167.68   1 0.73084-0.28368-0.46778 0.94932-0.49702 0.13531
   4   5  -511268.88 1168.18   1 0.47738-0.03024 0.61319-0.13122 0.62935-0.99089
  -4  -5   512675.03  930.68   1 0.34893-0.79693-0.22717-0.25451 0.90919-0.54782
  -4  -5   461490.11 3887.93   1 0.52289-0.94978-0.75791 0.29629 0.39006-0.10057
   4   5  -456581.38 4747.59   1 0.73097-0.30419-0.46831 0.92985-0.49633 0.20696
   4   5  -459056.23 1148.17   1 0.48322-0.05611 0.51506-0.05293 0.70795-0.99702
  -4  -5   458149.51 1331.19   1 0.33552-0.76302-0.26370-0.19806 0.90436-0.61527
  -4  -5   318600.00 1473.32   1 0.52741-0.93388-0.75845 0.31683 0.38286-0.16574
   4   5  -314900.91 2360.97   1 0.72865-0.32224-0.45926 0.90080-0.50807 0.29104
   4   5  -317516.16 1640.83   1 0.48124-0.07454 0.40084 0.04124 0.77956-0.99636
  -4  -5   318249.33 1930.57   1 0.31619-0.72318-0.31341-0.12842 0.89542-0.67860
   4   5  -2  126.79   25.71   1 0.72112-0.33506-0.43346 0.85502-0.54045 0.39580
   4   5  -2  157.78   31.70   1 0.46928-0.08292 0.27074 0.15127 0.84051-0.98500
  -4  -5   2  113.20   28.95   1 0.28968-0.67617-0.37664-0.04526 0.87989-0.73534
  -4  -5   1  625.50   71.76   1 0.50217-0.86773-0.75478 0.35320 0.42204-0.34969
   4   5  -1  529.49   80.25   1 0.70024-0.33456-0.37346 0.77502-0.60841 0.53609
   4   5  -1  840.59  124.27   1 0.44621-0.08026 0.12706 0.27493 0.88586-0.95810
  -4  -5   1  656.54   77.76   1 0.25483-0.62098-0.45277 0.05073 0.85442-0.78217
  -4  -5   014114.04  390.66   1 0.43208-0.77725-0.73774 0.35614 0.51868-0.51868
   4   5   013535.79  985.67   1 0.62780-0.28259-0.22093 0.60257-0.74635 0.74635
   4   5   014421.56 1418.28   1 0.41136-0.06571-0.02479 0.40683 0.91113-0.91113
  -4  -5   015199.28 1656.94   1 0.21093-0.55653-0.53814 0.15608 0.81603-0.81603
   4   5   160709.70 1422.47   1 0.36604-0.04081-0.17676 0.53884 0.91365-0.84141
  -4  -5  -160804.35 1480.33   1 0.15825-0.48330-0.62823 0.26616 0.76175-0.83400
   4   5   285590.76 1868.27   1 0.31366-0.00918-0.31968 0.66187 0.89410-0.74955
   4   5   333803.53  983.78   1 0.25835 0.02559-0.44547 0.76757 0.85720-0.64044
  -4  -5  -417306.85  296.72   1 0.56932-0.83308-0.12313-0.17850-0.81283 0.52354
   4   5   419923.38 2042.89   1 0.20475 0.05864-0.54937 0.85148 0.81010-0.52109
  -4  -5  -527185.87  615.10   1 0.72976-0.97316-0.46351 0.18194-0.50259 0.14088
  -4  -5  -526055.17  589.05   1-0.23752-0.00502 0.65048-0.93272-0.72141 0.36055
   4   5   527865.30 3086.38   1 0.15656 0.08628-0.63092 0.91304 0.75988-0.39862
  -4  -5  -6 6091.72  287.76   1 0.74192-0.96495-0.52355 0.26198-0.41885-0.01520
  -4  -5  -6 5906.68  690.53   1-0.36770 0.14580 0.71345-0.97571-0.59647 0.16344
   4   5   6 7726.47  836.62   1 0.11577 0.10653-0.69230 0.95443 0.71225-0.27874
   4   5   7  366.36   56.09   1 0.42004-0.21761-0.73394 0.97565 0.53375-0.02732
  -4  -5  -7  396.78   75.75   1 0.74415-0.94680-0.54184 0.30027-0.39068-0.11571
   4   5   876453.05 1802.47   1 0.44268-0.26064-0.74089 0.96261 0.50508 0.07368
  -4  -5  -874490.32 1745.82   1 0.74441-0.92669-0.54449 0.32291-0.38648-0.19226
   4   5   9  163.37   54.96   1 0.45012-0.28847-0.74298 0.94473 0.49533 0.15578
  -4  -5  -9  336.26   61.99   1 0.74387-0.90577-0.53914 0.33756-0.39492-0.25615
   4   5   9  299.00   82.36   1 0.29572-0.13359 0.95524-0.75366 0.00724 0.64354
   4   5  1022009.40 1518.02   1 0.44861-0.30735-0.74257 0.92433 0.49732 0.22614
  -4  -5 -1022197.18 2483.98   1 0.74264-0.88416-0.52881 0.34722-0.41089-0.31253
   4   5  1019843.52 2317.33   1 0.33236-0.19072 0.93805-0.75658 0.09789 0.62545
   4   5  1134620.06 3481.16   1 0.44117-0.32030-0.74045 0.90222 0.50704 0.28876
  -4  -5 -1134912.08 3251.87   1 0.74060-0.86175-0.51490 0.35331-0.43171-0.36406
   4   5  1133792.54 3800.41   1 0.36387-0.24260 0.91335-0.75192 0.18269 0.61299
   4   5  12 1147.46  208.05   1 0.42936-0.32888-0.73690 0.87869 0.52213 0.34602
  -4  -5 -12 1277.94  185.13   1 0.73761-0.83838-0.49813 0.35654-0.45583-0.41228
   4   5  12 1274.87  175.36   1 0.39099-0.29009 0.88224-0.74084 0.26222 0.60579
  -4  -6   615766.38 1057.45   1 0.51143-0.98361-0.75631 0.17837 0.40795 0.02628
   4   6  -612393.06 2505.60   1 0.70301-0.23102-0.38068 0.95855-0.60070 0.16675
   4   6  -614474.77 1312.78   1 0.46726 0.00470 0.68366-0.10529 0.56058-0.99442
  -4  -6   615255.32 1354.46   1 0.34245-0.81550-0.24506-0.33296 0.90701-0.47336
  -4  -6   591457.35 6108.78   1 0.52770-0.97946-0.75848 0.20054 0.38239-0.02052
   4   6  -593679.11 1758.39   1 0.70271-0.25108-0.37988 0.93775-0.60156 0.23994
   4   6  -591647.64 1599.50   1 0.47826-0.02666 0.60451-0.04618 0.63704-0.99857
  -4  -6   587005.05 1848.57   1 0.33480-0.78735-0.26562-0.29247 0.90407-0.54270
  -4  -6   499015.33 7113.49   1 0.54115-0.97250-0.75978 0.22184 0.36039-0.07090
   4   6  -4101193.6 3045.47   1 0.69888-0.26763-0.36996 0.90783-0.61211 0.32282
   4   6  -491935.46 2780.34   1 0.48326-0.05165 0.51320 0.02531 0.70927-0.99834
  -4  -6   497931.47 3133.29   1 0.32288-0.75493-0.29657-0.24159 0.89876-0.60967
  -4  -6   3 1506.49  131.33   1 0.55090-0.96183-0.76041 0.24248 0.34390-0.12678
   4   6  -3 1197.33  218.43   1 0.68918-0.27829-0.34612 0.86399-0.63657 0.41960
   4   6  -3 1549.87  149.51   1 0.48169-0.07049 0.40955 0.10892 0.77474-0.99154
  -4  -6   3 1355.57  149.25   1 0.30592-0.71746-0.33854-0.17970 0.88983-0.67300
  -4  -6   231237.86  791.86   1 0.55508-0.94560-0.76060 0.26267 0.33668-0.19193
   4   6  -226722.64 2593.75   1 0.66798-0.27747-0.29884 0.79671-0.68153 0.53688
   4   6  -229274.45 2394.87   1 0.47224-0.08145 0.29406 0.20436 0.83096-0.97550
  -4  -6   228036.09 2682.01   1 0.28303-0.67407-0.39170-0.10661 0.87547-0.73092
  -4  -6   1 9104.63 1152.09   1 0.54901-0.91910-0.76031 0.28238 0.34713-0.27476
   4   6  -1 8917.17 1363.39   1 0.61984-0.24984-0.20671 0.68467-0.75700 0.68468
   4   6  -110885.21 1002.88   1 0.45391-0.08346 0.16871 0.30967 0.87492-0.94717
  -4  -6   112554.81 1378.97   1 0.25337-0.62410-0.45579-0.02266 0.85326-0.78100
  -4  -6   034157.91  553.50   1 0.51678-0.86646-0.75709 0.29917 0.39965-0.39965
   4   6   037484.69 3363.97   1 0.42678-0.07659 0.03696 0.42148 0.90359-0.90359
  -4  -6   035127.42  975.82   1 0.21632-0.56650-0.52820 0.06973 0.82110-0.82110
   4   6   1165049.9 3799.03   1 0.39145-0.06168-0.09597 0.53445 0.91517-0.84294
  -4  -6  -1164369.1 3865.60   1 0.17181-0.50145-0.60621 0.16773 0.77651-0.84876
   4   6   2122662.9 2978.09   1 0.35001-0.04098-0.22413 0.64274 0.90953-0.76498
  -4  -6  -2124200.2 3061.18   1 0.12060-0.42969-0.68537 0.26688 0.71813-0.86263
   4   6   310549.98 1066.71   1 0.30473-0.01620-0.34139 0.74007 0.88914-0.67232
   4   6   442609.14 1130.16   1 0.25910 0.00888-0.44392 0.82244 0.85778-0.56877
  -4  -6  -5  317.43   82.52   1 0.73773-0.98562-0.49872 0.14085-0.45499 0.09327
  -4  -6  -5  312.00   63.51   1 0.13319-0.38062 0.38232-0.74107-0.91437 0.55310
   4   6   5  667.11   92.99   1 0.21580 0.03162-0.52915 0.88768 0.82062-0.45936
  -4  -6  -6   11.22   17.19   1 0.74546-0.97298-0.55804 0.22016-0.36451-0.06954
  -4  -6  -6   46.01   35.99   1-0.12982-0.09709 0.58661-0.92551-0.79939 0.36605
   4   6   6  -15.64   92.92   1 0.17712 0.04976-0.59739 0.93593 0.78214-0.34863
  -4  -6  -718712.03  567.90   1 0.74602-0.95316-0.57156 0.25368-0.34170-0.16469
  -4  -6  -718180.34  540.52   1-0.25378 0.04803 0.65939-0.97811-0.70766 0.20246
   4   6   719980.50 2080.44   1 0.14424 0.06209-0.65017 0.96873 0.74596-0.24020
  -4  -6  -840625.92 1419.91   1 0.74600-0.93276-0.57072 0.27284-0.34315-0.23559
  -4  -6  -838215.06 3523.88   1-0.31436 0.12926 0.69005-0.98880-0.65191 0.07454
   4   6   842723.01 4051.65   1 0.11757 0.06821-0.68972 0.98829 0.71446-0.13644
  -4  -6  -9  475.00  110.44   1 0.74572-0.91211-0.56289 0.28501-0.35643-0.29465
  -4  -6  -9  230.42   39.71   1-0.34567 0.18120 0.70422-0.98300-0.62014-0.02940
  -4  -6 -10 7226.28 1467.47   1 0.74495-0.89097-0.55075 0.29285-0.37644-0.34698
  -4  -6 -10 7683.12  737.62   1-0.36028 0.21646 0.71041-0.96923-0.60456-0.11715
   4   6  10 7918.13  891.82   1 0.30159-0.15534 0.95319-0.69527 0.02135 0.70175
  -4  -6 -11 1976.24  214.22   1 0.74346-0.86910-0.53546 0.29756-0.40066-0.39510
  -4  -6 -11 1462.75  194.33   1-0.36435 0.24117 0.71208-0.95094-0.60014-0.19374
   4   6  11 1818.45  178.06   1 0.33725-0.21151 0.93489-0.69709 0.11061 0.68507
  -4  -6 -1222844.27 2895.93   1 0.74103-0.84630-0.51760 0.29970-0.42772-0.44039
  -4  -6 -1220167.03 2762.28   1-0.36113 0.25860 0.71076-0.92965-0.60364-0.26241
   4   6  1223222.20 2021.65   1 0.36821-0.26284 0.90906-0.69130 0.19496 0.67306
  -4  -7   619837.16 2055.28   1 0.51741-0.99405-0.75718 0.10292 0.39868 0.03555
   4   7  -619604.99 2256.36   1 0.66616-0.18971-0.29502 0.94920-0.68497 0.25102
   4   7  -618587.02 2253.98   1 0.46817 0.00827 0.67871-0.02398 0.56583-0.99967
  -4  -7   616191.73 3230.86   1 0.32668-0.80428-0.28685-0.36758 0.90055-0.46690
  -4  -7   520643.14 1571.91   1 0.53590-0.99212-0.75933 0.12507 0.36908-0.00722
   4   7  -520131.51 2093.71   1 0.66218-0.20610-0.28678 0.92096-0.69229 0.33067
   4   7  -519245.74 1878.33   1 0.47834-0.02227 0.60371 0.03096 0.63773-0.99927
  -4  -7   518550.93 2969.26   1 0.31986-0.77697-0.30421-0.33030 0.89729-0.53592
  -4  -7   411660.24  849.93   1 0.55205-0.98786-0.76047 0.14621 0.34192-0.05243
   4   7  -410622.39 1049.05   1 0.65218-0.21665-0.26686 0.88116-0.70953 0.42024
   4   7  -410953.42 1535.83   1 0.48339-0.04770 0.51889 0.09573 0.70503-0.99426
  -4  -7   410586.14 1322.42   1 0.30920-0.74581-0.33058-0.28399 0.89168-0.60258
  -4  -7   3152297.313085.76   1 0.56541-0.98080-0.76084 0.16658 0.31845-0.10133
   4   7  -3150152.012875.56   1 0.63291-0.21775-0.23024 0.82453-0.73919 0.52222
   4   7  -3146969.8 4231.09   1 0.48235-0.06664 0.42439 0.17046 0.76630-0.98310
  -4  -7   3121669.4 3769.31   1 0.29413-0.71023-0.36638-0.22827 0.88274-0.66592
  -4  -7   223654.72 2759.80   1 0.57496-0.96993-0.76076 0.18651 0.30108-0.15633
   4   7  -224964.34  681.78   1 0.59645-0.20165-0.16671 0.74101-0.78514 0.64049
   4   7  -224285.89 1997.31   1 0.47509-0.07979 0.32080 0.25400 0.81937-0.96390
  -4  -7   224366.63 2333.34   1 0.27400-0.66960-0.41169-0.16303 0.86915-0.72460
  -4  -7   1 3574.11  622.33   1 0.57825-0.95280-0.76066 0.20641 0.29496-0.22258
   4   7  -1 3851.68  445.28   1 0.52513-0.15110-0.05687 0.61132-0.84911 0.77681
   4   7  -1 4477.48  779.26   1 0.46070-0.08574 0.20973 0.34504 0.86241-0.93466
  -4  -7   1 4722.46  558.32   1 0.24818-0.62350-0.46638-0.08848 0.84905-0.77679
  -4  -7   0 2987.64  508.16   1 0.56777-0.92190-0.76085 0.22660 0.31421-0.31421
   4   7   0 2733.53  582.56   1 0.37442-0.02093 0.13651 0.39798-0.91715 0.91715
   4   7   0 4006.48  360.58   1 0.43943-0.08488 0.09356 0.44119 0.89338-0.89338
  -4  -7   0 4164.72  488.06   1 0.21617-0.57094-0.52847-0.00640 0.82096-0.82096
   4   7   153277.61 1156.21   1 0.00472 0.32876 0.48972 0.02477-0.87186 0.94408
   4   7   144833.63 3817.29   1 0.41157-0.07726-0.02400 0.53889 0.91105-0.83882
  -4  -7  -142310.82 1411.79   1 0.17780-0.51202-0.59625 0.08136 0.78285-0.85511
   4   7   2 8171.17  738.20   1 0.37830-0.06442-0.13899 0.63391 0.91518-0.77071
  -4  -7  -2 7840.55  796.16   1 0.13338-0.44705-0.66662 0.17171 0.73336-0.87786
   4   7   3131747.0 3100.32   1 0.34167-0.04859-0.24717 0.72226 0.90673-0.68990
   4   7   458290.92 1754.25   1 0.30329-0.03072-0.34483 0.79999 0.88831-0.59921
  -4  -7  -5 6360.30  176.73   1 0.74197-0.99435-0.52388 0.08970-0.41835 0.05663
   4   7   5 7007.22  698.19   1 0.26564-0.01356-0.42975 0.86498 0.86298-0.50161
  -4  -7  -6 4516.56  224.06   1 0.74602-0.97803-0.58608 0.17189-0.31614-0.11791
  -4  -7  -6 4435.86  209.38   1 0.13372-0.36512 0.38185-0.79708-0.91449 0.48097
   4   7   6 4822.10  463.73   1 0.23049 0.00097-0.50135 0.91631 0.83397-0.40046
  -4  -7  -717394.52  532.74   1 0.74566-0.95730-0.59550 0.20131-0.29891-0.20748
  -4  -7  -717982.21  514.91   1-0.04997-0.16087 0.53107-0.92645-0.84584 0.34028
   4   7   718730.50 1745.98   1 0.19924 0.01168-0.55922 0.95419 0.80471-0.29895
  -4  -7  -8 7760.82 1491.95   1 0.74584-0.93710-0.59177 0.21758-0.30580-0.27294
   4   7   8 9135.10  647.75   1 0.17269 0.01768-0.60476 0.97975 0.77745-0.19943
  -4  -7  -922361.92  762.10   1 0.74608-0.91697-0.58195 0.22775-0.32353-0.32755
  -4  -7  -920800.77 2523.76   1-0.21855 0.04960 0.63974-0.99494-0.73685 0.08730
   4   7   922690.85 2295.88   1 0.15115 0.01866-0.63945 0.99444 0.75382-0.10355
  -4  -7 -10  759.73  154.12   1 0.74593-0.89644-0.56836 0.23416-0.34718-0.37624
  -4  -7 -10  810.65  171.10   1-0.25331 0.10500 0.65914-0.99437-0.70806-0.01365
   4   7  10  797.67  130.80   1 0.27269-0.12194 0.96097-0.62669-0.04655 0.76966
   4   7  10  907.70  149.70   1 0.13459 0.01467-0.66480 0.99981 0.73478-0.01226
  -4  -7 -1129788.37 3556.26   1 0.74505-0.87518-0.55198 0.23777-0.37444-0.42132
  -4  -7 -1126165.95 3974.34   1-0.27190 0.14423 0.66899-0.98425-0.69175-0.10214
   4   7  1129128.17 2886.15   1 0.31104-0.18067 0.94935-0.63510 0.04441 0.75099
   4   7  1128877.43 4397.94   1 0.12278 0.00593-0.68221 0.99723 0.72076 0.07400
  -4  -7 -12 4864.48 1128.33   1-0.27949 0.17247 0.67290-0.96820-0.68489-0.18117
   4   7  12 6248.34  595.87   1 0.34542-0.23531 0.92908-0.63535 0.13219 0.73549
   4   7  12 6009.67 1182.62   1 0.11540-0.00722-0.69282 0.98785 0.71181 0.15521
  -4  -8   5 3565.35  480.16   1 0.53811-0.99879-0.75953 0.04894 0.36543-0.00356
   4   8  -5 2704.46  828.54   1 0.61040-0.15008-0.19025 0.90088-0.76890 0.40728
   4   8  -5 3715.59  501.55   1 0.47782-0.01729 0.60899 0.10203 0.63309-0.99463
  -4  -8   5 3675.73  676.51   1 0.30410-0.76576-0.34289-0.36802 0.88878-0.52741
  -4  -8   438370.19 4555.14   1 0.55625-0.99651-0.76064 0.07006 0.33464-0.04515
   4   8  -439007.71 1769.50   1 0.59381-0.15385-0.16234 0.85297-0.78805 0.49876
   4   8  -435802.08 3465.31   1 0.48306-0.04290 0.53017 0.16081 0.69682-0.98605
  -4  -8   429250.30 2470.43   1 0.29455-0.73570-0.36541-0.32558 0.88301-0.59391
  -4  -8   3 4452.41  346.84   1 0.57206-0.99190-0.76082 0.09024 0.30641-0.08929
   4   8  -3 3947.95  699.48   1 0.56474-0.14515-0.11601 0.78664-0.81707 0.60010
   4   8  -3 4473.87  652.44   1 0.48299-0.06279 0.44362 0.22762 0.75492-0.97172
  -4  -8   3 4542.46  497.84   1 0.28105-0.70169-0.39614-0.27492 0.87411-0.65729
  -4  -8   245116.01 1316.22   1 0.58496-0.98439-0.76034 0.10977 0.28228-0.13753
   4   8  -243296.46 1216.22   1 0.51467-0.11593-0.04203 0.69279-0.85635 0.71175
   4   8  -241473.12 3552.29   1 0.47774-0.07795 0.34990 0.30129 0.80580-0.95033
  -4  -8   239971.80 4318.01   1 0.26311-0.66326-0.43510-0.21603 0.86107-0.71652
  -4  -8   113378.56  701.93   1 0.59364-0.97264-0.75968 0.12911 0.26545-0.19308
   4   8  -113819.41  462.87   1 0.42683-0.04843 0.07369 0.55711-0.90132 0.82902
   4   8  -114234.00 1141.71   1 0.46662-0.08714 0.25035 0.38082 0.84828-0.92053
  -4  -8   114262.62 1311.98   1 0.24026-0.62016-0.48225-0.14902 0.84243-0.77018
  -4  -8   0 6093.15  993.74   1 0.59430-0.95289-0.75962 0.14905 0.26415-0.26415
   4   8   0 7407.45  286.96   1 0.26705 0.09076 0.25379 0.35705-0.92966 0.92966
   4   8   0 7231.40  541.80   1 0.44994-0.09089 0.14670 0.46445 0.88092-0.88092
  -4  -8   0 8036.82  807.47   1 0.21211-0.57147-0.53596-0.07532 0.81715-0.81715
  -4  -8  -1  530.10  164.38   1 0.56970-0.90787-0.76084 0.17028 0.31072-0.38309
   4   8   1  927.74  161.93   1 0.42788-0.08903 0.04164 0.54965 0.90287-0.83063
  -4  -8  -1 1041.15  141.27   1 0.17846-0.51727-0.59513 0.00382 0.78355-0.85581
   4   8   232929.89 3092.42   1 0.40123-0.08281-0.06204 0.63337 0.91387-0.76939
  -4  -8  -230876.01 3706.67   1 0.13942-0.45768-0.65752 0.08620 0.74041-0.88492
   4   8   3 1127.64  125.81   1 0.37116-0.07317-0.16123 0.71259 0.91445-0.69774
   4   8   486466.28 2810.98   1 0.33950-0.06238-0.25305 0.78462 0.90592-0.61682
  -4  -8  -516480.72  194.23   1 0.74074-0.99761-0.51573 0.00524-0.43047 0.06876
   4   8   526518.23 2539.59   1 0.30725-0.05063-0.33533 0.84697 0.89058-0.52921
  -4  -8  -6  421.83  161.52   1 0.74503-0.98148-0.60508 0.11462-0.28068-0.15342
  -4  -8  -6  411.53  147.92   1 0.37564-0.61135 0.13509-0.62665-0.91686 0.48326
   4   8   6  722.21   70.88   1 0.27623-0.04012-0.40680 0.89851 0.87074-0.43710
  -4  -8  -7  215.80   80.51   1 0.74428-0.96034-0.61238 0.14191-0.26649-0.23997
  -4  -8  -7  176.86   59.49   1 0.16128-0.37665 0.35678-0.82850-0.92015 0.41437
   4   8   7  187.53   69.66   1 0.24765-0.03214-0.46745 0.93883 0.84861-0.34285
  -4  -8  -8   93.51   41.77   1 0.74487-0.94054-0.60685 0.15637-0.27728-0.30153
  -4  -8  -8   61.12   39.94   1 0.02067-0.21546 0.47717-0.92903-0.87856 0.30078
   4   8   8   89.06   58.87   1 0.22240-0.02744-0.51679 0.96819 0.82671-0.24869
  -4  -8  -9 3034.36  760.98   1 0.74565-0.92102-0.59578 0.16528-0.29839-0.35269
   4   8   9 3397.16  415.77   1 0.20108-0.02667-0.55594 0.98735 0.80652-0.15625
  -4  -8 -1030146.39 1298.02   1 0.74609-0.90109-0.58123 0.17072-0.32482-0.39860
   4   8  1027259.81 4435.65   1 0.18392-0.03005-0.58589 0.99731 0.78923-0.06671
  -4  -8 -1112642.26 2795.14   1 0.74577-0.88039-0.56408 0.17357-0.35443-0.44133
   4   8  1114331.85 1581.97   1 0.28676-0.15189 0.95789-0.56729-0.01397 0.80938
   4   8  1114170.50 2038.79   1 0.17093-0.03762-0.60767 0.99910 0.77557 0.01920
  -4  -9   3 9443.97 1219.72   1 0.57151-0.99581-0.76083 0.01393 0.30741-0.09029
   4   9  -311601.97  566.53   1 0.48767-0.06422-0.00484 0.75191-0.87301 0.65611
   4   9  -310556.14  902.91   1 0.48344-0.05874 0.46611 0.28152 0.74095-0.95775
  -4  -9   3 9580.42 1076.84   1 0.26678-0.69198-0.42730-0.32017 0.86384-0.64702
  -4  -9   2  205.48   39.43   1 0.58643-0.99032-0.76025 0.03336 0.27946-0.13471
   4   9  -2  152.62   63.79   1 0.42669-0.02357 0.07387 0.65324-0.90137 0.75677
   4   9  -2  284.65   80.58   1 0.48004-0.07574 0.38072 0.34686 0.79031-0.93485
  -4  -9   2  278.12   74.24   1 0.25062-0.65566-0.46141-0.26626 0.85104-0.70654
  -4  -9   126468.65  875.40   1 0.59797-0.98144-0.75924 0.05235 0.25685-0.18448
   4   9  -125480.81  806.93   1 0.32848 0.05402 0.18841 0.51867-0.92552 0.85326
   4   9  -126606.58 2864.41   1 0.47185-0.08796 0.29061 0.41693 0.83240-0.90467
  -4  -9   123905.52 2241.88   1 0.23019-0.61468-0.50193-0.20576 0.83371-0.76145
  -4  -9   014880.88  466.19   1 0.60381-0.96685-0.75852 0.07163 0.24505-0.24505
   4   9   014822.16  429.39   1 0.16831 0.19394 0.35028 0.33677-0.92139 0.92139
   4   9   015268.26 1312.43   1 0.45873-0.09516 0.19732 0.49022 0.86638-0.86638
  -4  -9   014289.62 1310.03   1 0.20512-0.56906-0.54870-0.13899 0.81046-0.81046
  -4  -9  -1  684.52  241.67   1 0.59488-0.93751-0.75956 0.09268 0.26301-0.33538
   4   9   1 1205.28  116.14   1 0.44130-0.09814 0.10252 0.56499 0.89148-0.81923
  -4  -9  -1 1159.18  133.30   1 0.17520-0.51860-0.60058-0.06712 0.78012-0.85237
   4   9   212456.33  966.64   1 0.41994-0.09698 0.00869 0.63904 0.90750-0.76303
  -4  -9  -211214.90 1124.21   1 0.14048-0.46333-0.65591 0.00818 0.74164-0.88614
   4   9   313341.35 1388.34   1 0.39549-0.09295-0.08219 0.70996 0.91478-0.69807
   4   9   414395.49 1318.68   1 0.36901-0.08690-0.16780 0.77561 0.91414-0.62519
   4   9   538944.10 3508.51   1 0.34205-0.08088-0.24614 0.83420 0.90686-0.54549
  -4  -9  -639341.55 1137.80   1 0.74447-0.98543-0.61069 0.04392-0.26980-0.16430
  -4  -9  -639091.86 1118.87   1 0.56255-0.80331-0.11265-0.45429-0.81904 0.38511
   4   9   641923.46 3997.24   1 0.31514-0.07447-0.31602 0.88414 0.89488-0.46123
  -4  -9  -728518.17  809.39   1 0.74319-0.96375-0.62058 0.07380-0.25008-0.25638
  -4  -9  -728594.81  782.70   1 0.35900-0.57868 0.15423-0.70227-0.92050 0.41464
   4   9   729219.64 2673.73   1 0.28969-0.06952-0.37662 0.92482 0.87990-0.37398
  -4  -9  -818302.56  672.03   1 0.74396-0.94413-0.61500 0.08822-0.26129-0.31752
  -4  -9  -818519.56  650.47   1 0.20075-0.40008 0.31963-0.84783-0.92602 0.34799
   4   9   818619.75 1365.65   1 0.26656-0.06690-0.42777 0.95604 0.86368-0.28549
  -4  -9  -926714.07 1118.32   1 0.74516-0.92494-0.60357 0.09678-0.28359-0.36757
  -4  -9  -928056.89 1138.67   1 0.08814-0.26711 0.42175-0.93009-0.90241 0.25212
   4   9   926534.05 2966.12   1 0.24627-0.06728-0.47022 0.97804 0.84748-0.19721
  -4  -9 -10 1669.78  576.17   1 0.74595-0.90544-0.58872 0.10190-0.31137-0.41205
  -4  -9 -10 1924.02  528.02   1 0.01023-0.16851 0.48541-0.97391-0.87422 0.15199
   4   9  10 2438.28  434.28   1 0.22937-0.07092-0.50351 0.99134 0.83298-0.11046
   4  10  -2 6327.16  665.31   1 0.48185-0.07305 0.41284 0.39112 0.77289-0.91743
  -4 -10   2 6271.77  663.67   1 0.23677-0.64640-0.48912-0.31496 0.83945-0.69495
   4  10  -112142.43 1016.03   1 0.47605-0.08766 0.33076 0.45316 0.81484-0.88710
  -4 -10   111249.15 1277.90   1 0.21834-0.60742-0.52442-0.25968 0.82298-0.75073
   4  10   0  214.66   56.81   1 0.46604-0.09796 0.24609 0.51784 0.84984-0.84984
  -4 -10   0  188.69   96.74   1 0.19577-0.56430-0.56535-0.19876 0.80127-0.80127
   4  10   1 1332.86  184.29   1 0.45238-0.10472 0.16008 0.58383 0.87733-0.80508
  -4 -10  -1 1087.37  116.48   1 0.16890-0.51688-0.61101-0.13311 0.77339-0.84564
   4  10   2 5236.05  435.49   1 0.43533-0.10809 0.07445 0.64944 0.89718-0.75269
  -4 -10  -2 4958.58  462.96   1 0.13770-0.46513-0.66013-0.06400 0.73841-0.88292
   4  10   3 3749.02  302.97   1 0.41554-0.10847-0.00872 0.71290 0.90953-0.69281
   4  10   468406.78 1597.55   1 0.39374-0.10709-0.08819 0.77241 0.91497-0.62602
   4  10   560706.96 5242.57   1 0.37085-0.10463-0.16218 0.82643 0.91441-0.55323
   4  10   6 1312.28  227.12   1 0.34819-0.10297-0.22923 0.87376 0.90896-0.47531
   4  10   7 2885.86  311.14   1 0.32593-0.10121-0.28878 0.91339 0.90020-0.39428
   4  10   8 1343.29  180.37   1 0.30520-0.10098-0.34027 0.94495 0.88941-0.31122
   4  10   9 1692.79  261.81   1 0.28663-0.10292-0.38358 0.96834 0.87789-0.22742
   4  11   0 8743.41  867.20   1 0.47217-0.09968 0.29338 0.54688 0.83125-0.83125
  -4 -11   0 8511.09 1181.27   1 0.18446-0.55758-0.58496-0.25556 0.78980-0.78980
   4  11   1  761.73   97.13   1 0.46151-0.10934 0.21499 0.60531 0.86068-0.78843
  -4 -11  -1  738.05   96.47   1 0.16012-0.51268-0.62525-0.19528 0.76381-0.83607
   4  11   2  285.41   63.08   1 0.44806-0.11631 0.13669 0.66359 0.88348-0.73899
  -4 -11  -2  151.00   85.03   1 0.13185-0.46386-0.66890-0.13165 0.73156-0.87606
   4  11   319886.06 1973.70   1 0.43212-0.12078 0.05997 0.72028 0.89981-0.68307
   4  11   432654.33 2795.76   1 0.41434-0.12315-0.01339 0.77401 0.91002-0.62107
   4  11   5   70.04   62.44   1 0.39532-0.12457-0.08275 0.82340 0.91480-0.55361
   4  11   631369.06 3319.55   1 0.37586-0.12553-0.14669 0.86737 0.91499-0.48156
   4  11   727325.72 1199.94   1 0.35667-0.12676-0.20435 0.90506 0.91160-0.40594
   4  11   8  402.77   87.15   1 0.33886-0.13010-0.25476 0.93585 0.90568-0.32749
   5 -11  -4  179.43  114.17   1 0.45361-0.01665 0.03994-0.79941-0.89030 0.60055
  -5  11   4   13.38   36.49   1 0.47980-0.91590 0.58736 0.17232 0.65175-0.36252
  -5  11   331735.79 2798.58   1-0.20320-0.21348 0.63079 0.14984-0.74887 0.96538
  -5  11   336371.12  964.57   1 0.47775-0.89348 0.60961 0.17011 0.63254-0.41562
   5 -11  -337562.05 1081.28   1 0.13598 0.27855-0.66273-0.11783 0.73640-0.95316
  -5  11   2 9648.72  898.74   1-0.13361-0.26332 0.58911 0.21088-0.79692 0.94137
  -5  11   2 7626.34 1630.40   1 0.47480-0.87016 0.63525 0.16452 0.60910-0.46449
   5 -11  -2 9438.95 1540.68   1 0.20044 0.19354-0.55708-0.24346 0.80589-0.95040
  -5  11   1  704.41   92.69   1-0.06627-0.31023 0.54287 0.27697-0.83719 0.90941
  -5  11   1  613.78  116.88   1 0.47084-0.84582 0.66287 0.15695 0.58215-0.50985
   5 -11  -1  925.41  127.23   1 0.25190 0.12153-0.45881-0.36172 0.85207-0.92432
   5 -11   0 3531.25  466.63   1 0.63157-0.27646-0.22778-0.61182-0.74110 0.74110
  -5  11   0 3608.36  393.93   1-0.00161-0.35445 0.49465 0.34504-0.86908 0.86908
  -5  11   0 3590.87  420.77   1 0.46579-0.82039 0.69145 0.14840 0.55219-0.55219
   5 -11   0 3850.09  395.08   1 0.29176 0.06159-0.37187-0.46863 0.88123-0.88123
   5 -10  -612402.37 1657.51   1 0.31052 0.17229 0.20797-0.85225-0.92753 0.49393
  -5  10   612117.78 1069.73   1-0.39958-0.08351 0.72564-0.08131-0.56015 0.99318
   5 -10  -513555.29 1520.19   1 0.35601 0.10644 0.15763-0.82179-0.92108 0.55975
  -5  10   513120.17  941.42   1-0.33575-0.12670 0.69986-0.03557-0.63044 0.99130
   5 -10  -415424.88 1920.11   1 0.40501 0.03646 0.10033-0.78407-0.90878 0.61959
  -5  10   415133.90 1043.60   1-0.26734-0.17447 0.66661 0.01764-0.69581 0.98450
  -5  10   415916.45  563.37   1 0.48077-0.92134 0.57448 0.10885 0.66243-0.37320
   5 -10  -3 3291.79  501.35   1 0.45667-0.03553 0.03600-0.73968-0.88890 0.67200
  -5  10   3 2861.85  278.56   1-0.19568-0.22549 0.62631 0.07790-0.75460 0.97112
  -5  10   3 2510.85  575.51   1 0.47882-0.89901 0.59865 0.10472 0.64213-0.42521
   5 -10  -3 2845.54  611.18   1 0.14131 0.27780-0.65465-0.04950 0.74260-0.95936
   5 -10  -217659.30 1591.54   1 0.50867-0.10786-0.03362-0.69002-0.86030 0.71570
  -5  10   216928.57 1494.36   1-0.12125-0.28006 0.58093 0.14272-0.80486 0.94931
  -5  10   214818.71 2292.53   1 0.47592-0.87573 0.62623 0.09719 0.61751-0.47290
   5 -10  -218995.94  921.54   1 0.21446 0.18410-0.53164-0.19250 0.81936-0.96387
   5 -10  -116112.87 1510.59   1 0.55865-0.17875-0.10667-0.63660-0.82251 0.75018
  -5  10   116095.75 1348.86   1-0.04867-0.33221 0.53011 0.21339-0.84652 0.91874
  -5  10   115099.88 1271.88   1 0.47196-0.85140 0.65563 0.08783 0.58940-0.51709
   5 -10  -115772.65 1666.09   1 0.27101 0.10739-0.41819-0.32597 0.86698-0.93925
   5 -10   0  116.71   67.00   1 0.60513-0.24560-0.18127-0.58200-0.77520 0.77520
  -5  10   0  202.85   89.66   1 0.02117-0.38161 0.47677 0.28658-0.87877 0.87877
   5 -10   0  186.98   38.40   1 0.31402 0.04388-0.31878-0.44532 0.89429-0.89429
   5 -10   116763.67 1624.73   1 0.64611-0.30694-0.25505-0.52822-0.71936 0.79168
  -5  10  -117011.86 1287.99   1 0.08639-0.42674 0.42325 0.36000-0.90188 0.82962
  -5  10  -116099.25 2009.29   1 0.46076-0.79955 0.71599 0.06763 0.52445-0.59677
   5 -10   117714.40 1516.61   1 0.34600-0.00859-0.23532-0.54870 0.90824-0.83596
   5 -10   2 7276.79  742.00   1 0.68049-0.36199-0.32606-0.47705-0.65620 0.80085
  -5  10  -2 6926.01  676.90   1 0.14547-0.46546 0.37125 0.43185-0.91706 0.77255
  -5  10  -2 6438.53  847.32   1 0.45329-0.77171 0.74548 0.05818 0.48865-0.63330
   5 -10   2 6920.09 1119.20   1 0.36905-0.05161-0.16768-0.63633 0.91415-0.76967
   5 -10   3  997.06  175.91   1 0.70749-0.40937-0.39276-0.43035-0.58751 0.80449
  -5  10  -3  936.92  131.58   1 0.19756-0.49718 0.32269 0.50027-0.92565 0.70889
  -5  10  -3  910.38  131.90   1 0.44460-0.74265 0.77398 0.04972 0.45085-0.66782
   5 -10   3  926.60  169.53   1 0.38600-0.08900-0.11413-0.70986 0.91540-0.69869
   5  -9  -7 1246.75  176.88   1 0.46705 0.03911-0.74739 0.20040 0.47250-0.97893
   5  -9  -7 1266.39  175.86   1 0.21160 0.29600 0.30915-0.85721-0.92717 0.42139
   5  -9  -6 9101.91  716.64   1 0.40713 0.07864-0.72960 0.16264 0.54946-0.98354
   5  -9  -610355.45 1081.42   1 0.25292 0.23422 0.26823-0.83615-0.92955 0.49596
   5  -9  -5  188.91   76.77   1 0.30035 0.16644 0.21889-0.80669-0.92837 0.56704
  -5   9   5  201.78   92.94   1-0.34140-0.12554 0.70236-0.11448-0.62460 0.98546
   5  -9  -4 9205.03  590.77   1 0.35293 0.09350 0.16112-0.76880-0.92166 0.63260
  -5   9   4 8642.17  557.13   1-0.26965-0.17664 0.66782-0.05997-0.69375 0.98244
  -5   9   4 9285.33  388.89   1 0.48099-0.92602 0.57132 0.03566 0.66500-0.37577
   5  -9  -3 2898.61  259.34   1 0.40889 0.01661 0.09565-0.72298-0.90755 0.69066
  -5   9   3 2783.96  252.33   1-0.19359-0.23206 0.62506 0.00274-0.75618 0.97269
  -5   9   3 2156.55  456.11   1 0.47902-0.90367 0.59644 0.03058 0.64404-0.42711
   5  -9  -3 2322.46  463.94   1 0.14078 0.28293-0.65547 0.02772 0.74198-0.95873
   5  -9  -2 7006.16  491.06   1 0.46668-0.06150 0.02301-0.67030-0.88412 0.73953
  -5   9   2 6812.24  491.38   1-0.11400-0.29168 0.57607 0.07124-0.80940 0.95385
  -5   9   2 6189.25  739.42   1 0.47604-0.88032 0.62519 0.02188 0.61848-0.47386
   5  -9  -2 6131.58  859.94   1 0.22602 0.17713-0.50993-0.13779 0.82998-0.97449
   5  -9  -119712.41 1373.93   1 0.52345-0.13861-0.05447-0.61276-0.85030 0.77801
  -5   9   119445.13 1565.30   1-0.03564-0.34961 0.52049 0.14667-0.85311 0.92534
  -5   9   118400.79 1479.09   1 0.47196-0.85586 0.65565 0.01145 0.58937-0.51706
   5  -9  -118802.19 1794.77   1 0.28964 0.09331-0.37672-0.29103 0.87987-0.95214
   5  -9   086626.02 6089.16   1 0.57652-0.21256-0.13443-0.55251-0.80594 0.80594
  -5   9   080306.14 6614.76   1 0.04007-0.40512 0.46180 0.22525-0.88607 0.88607
  -5   9   093504.31 2284.61   1 0.46671-0.83024 0.68664 0.00051 0.55739-0.55739
   5  -9   088790.18 2227.42   1 0.33608 0.02638-0.26223-0.42546 0.90459-0.90459
   5  -9   1  134.21   69.92   1 0.62407-0.28047-0.21422-0.49272-0.75142 0.82374
  -5   9  -1  116.87   59.92   1 0.11068-0.45537 0.40226 0.30465-0.90880 0.83655
  -5   9  -1   90.78   47.83   1 0.46041-0.80365 0.71751-0.01024 0.52268-0.59500
   5  -9   1   27.23   58.47   1 0.36875-0.02634-0.16861-0.53903 0.91410-0.84187
   5  -9   2  139.30   53.38   1 0.66438-0.34142-0.29131-0.43549-0.68828 0.83293
  -5   9  -2  -51.64   98.06   1 0.17445-0.49877 0.34456 0.38221-0.92241 0.77790
  -5   9  -2  175.73   50.71   1 0.45275-0.77563 0.74739-0.02008 0.48621-0.63086
   5  -9   2  143.18   37.88   1 0.39197-0.06999-0.09423-0.63338 0.91513-0.77066
   5  -9   3 9487.53 1393.11   1 0.69643-0.39385-0.36377-0.38303-0.61858 0.83556
  -5   9  -310187.19  902.57   1 0.23029-0.53427 0.29092 0.45592-0.92861 0.71181
  -5   9  -3 9855.73  824.07   1 0.44389-0.74640 0.77610-0.02874 0.44790-0.66487
   5  -9   3 9501.82 1001.22   1 0.40812-0.10657-0.03697-0.71061 0.91217-0.69546
   5  -9   411724.16 1022.25   1 0.72013-0.43792-0.43024-0.33656-0.54433 0.83363
  -5   9  -411109.68 1388.19   1 0.27780-0.56143 0.24265 0.52407-0.92948 0.64042
  -5   9  -410780.84  968.35   1 0.43381-0.71595 0.80336-0.03596 0.40792-0.69721
   5  -9   410736.42 1163.47   1 0.41918-0.13806 0.00565-0.77321 0.90788-0.61893
   5  -9   530371.69 3554.49   1 0.73600-0.47477-0.49018-0.29658-0.46691 0.82862
  -5   9  -530494.71 2923.40   1 0.31718-0.58046 0.20076 0.58585-0.92686 0.56553
  -5   9  -528894.46 2920.96   1 0.42252-0.68429 0.82898-0.04153 0.36639-0.72801
   5  -9   528775.68 3337.73   1 0.42654-0.16585 0.03595-0.82347 0.90374-0.54256
   5  -8  -8 3402.33  393.44   1 0.53399-0.00263-0.75915 0.30860 0.37220-0.95118
   5  -8  -8 4108.41  516.46   1 0.11842 0.41388 0.39546-0.84732-0.91081 0.33278
   5  -8  -7 5676.17  415.41   1 0.48090 0.02972-0.75060 0.27993 0.45313-0.95955
   5  -8  -7 5983.80  615.73   1 0.15220 0.35973 0.36512-0.83684-0.91843 0.41265
   5  -8  -6  112.65   68.98   1 0.42039 0.06984-0.73405 0.24340 0.53332-0.96740
   5  -8  -6  137.13   81.78   1 0.19345 0.29811 0.32661-0.81819-0.92514 0.49162
   5  -8  -5 1479.21  204.25   1 0.24210 0.22902 0.27915-0.79059-0.92922 0.56789
  -5   8   5 1606.09  326.12   1-0.35282-0.11860 0.70728-0.19581-0.61258 0.97344
  -5   8   5  739.92  298.71   1 0.48100-0.95087 0.57115-0.06056 0.66514-0.30360
   5  -8  -431194.94 2253.89   1 0.29742 0.15334 0.22200-0.75333-0.92857 0.63951
  -5   8   428404.32 2735.28   1-0.27808-0.17271 0.67218-0.14075-0.68617 0.97486
  -5   8   431196.18 1004.45   1 0.48002-0.92951 0.58463-0.05400 0.65404-0.36481
   5  -8  -340005.15 2796.59   1 0.35799 0.07242 0.15538-0.70659-0.92070 0.70390
  -5   8   335707.65 2811.02   1-0.19766-0.23248 0.62750-0.07610-0.75310 0.96961
  -5   8   339269.44 1181.91   1 0.47793-0.90704 0.60792-0.05724 0.63404-0.41711
   5  -8  -341895.54 1283.37   1 0.13107 0.29722-0.67006 0.11873 0.73063-0.94739
   5  -8  -2  638.85   75.83   1 0.42140-0.01185 0.08039-0.65132-0.90330 0.75870
  -5   8   2  636.27  102.62   1-0.11260-0.29746 0.57512-0.00414-0.81027 0.95472
  -5   8   2  504.94   62.82   1 0.47473-0.88347 0.63584-0.06512 0.60854-0.46393
   5  -8  -2  509.05   81.99   1 0.23428 0.17346-0.49400-0.07730 0.83729-0.98180
   5  -8  -124687.72 1977.85   1 0.48517-0.09595-0.00148-0.58940-0.87441 0.80211
  -5   8   122757.49 2228.91   1-0.02786-0.36176 0.51467 0.07616-0.85693 0.92915
  -5   8   119966.28 2254.36   1 0.47037-0.85874 0.66579-0.07502 0.57919-0.50688
   5  -8  -123890.17 1518.58   1 0.30767 0.07984-0.33432-0.25703 0.89082-0.96309
  -5   8   016670.16 1709.50   1 0.05447-0.42386 0.45001 0.16069-0.89135 0.89135
  -5   8   016821.60 1326.69   1 0.46482-0.83282 0.69630-0.08549 0.54689-0.54689
   5  -8   014386.56 2430.70   1 0.35784 0.00953-0.20096-0.41030 0.91190-0.91190
  -5   8  -1  503.17   80.02   1 0.13133-0.48036 0.38399 0.24658-0.91394 0.84169
  -5   8  -1  554.85   81.56   1 0.45823-0.80592 0.72662-0.09571 0.51189-0.58422
   5  -8   1  447.33   91.71   1 0.39172-0.04478-0.09506-0.53617 0.91515-0.84292
   5  -8   2 5833.11  632.42   1 0.64732-0.31965-0.25739-0.39322-0.71743 0.86208
  -5   8  -2 5537.18  682.68   1 0.20049-0.52915 0.31988 0.33055-0.92600 0.78149
  -5   8  -2 5404.57  462.09   1 0.45030-0.77763 0.75588-0.10493 0.47525-0.61989
   5  -8   2 5234.28  494.23   1 0.41421-0.08769-0.01389-0.63731 0.91007-0.76559
   5  -8   3 3040.76  357.81   1 0.68493-0.37790-0.33618-0.33431-0.64640 0.86338
  -5   8  -3 2964.41  387.69   1 0.26060-0.56890 0.26041 0.41008-0.92966 0.71286
  -5   8  -3 3186.37  354.28   1 0.44119-0.74815 0.78389-0.11289 0.43687-0.65384
   5  -8   3 2984.85  435.46   1 0.42907-0.12267 0.04660-0.71782 0.90206-0.68532
   5  -8   4 1158.81  292.50   1 0.71295-0.42629-0.40823-0.28225-0.57012 0.85942
  -5   8  -4  861.38  223.91   1 0.31121-0.59917 0.20723 0.48314-0.92746 0.63840
  -5   8  -4  948.92  246.79   1 0.43091-0.71750 0.81039-0.11934 0.39695-0.68624
   5  -8   4 1021.34  267.67   1 0.43870-0.15273 0.09010-0.78134 0.89410-0.60511
   5  -8   530914.99 2542.74   1 0.73209-0.46637-0.47284-0.23761-0.49036 0.85207
  -5   8  -529055.01 2970.73   1 0.35267-0.62027 0.16142 0.54883-0.92171 0.56038
  -5   8  -527818.47 2969.99   1 0.41946-0.68569 0.83521-0.12412 0.35561-0.71723
   5  -8   529590.53 3319.07   1 0.44480-0.17925 0.11989-0.83116 0.88756-0.52633
   5  -8   610428.16 1656.86   1 0.74273-0.49738-0.52948-0.20097-0.40986 0.84392
  -5   8  -611000.43 1262.44   1 0.38572-0.63297 0.12331 0.60682-0.91433 0.48074
  -5   8  -611225.25 1156.10   1 0.40696-0.65270 0.85818-0.12707 0.31286-0.74688
   5  -8   610579.60 1802.56   1 0.44841-0.20327 0.13852-0.86981 0.88302-0.44954
   5  -7  -842228.78 5010.85   1 0.55125-0.01544-0.76043 0.38621 0.34329-0.92228
   5  -7  -846809.75 4937.37   1 0.06027 0.47636 0.44522-0.82074-0.89338 0.31535
   5  -7  -754835.48 5226.67   1 0.49924 0.01583-0.75426 0.35991 0.42642-0.93284
   5  -7  -6  748.69  123.34   1 0.43902 0.05567-0.73982 0.32549 0.50982-0.94390
   5  -7  -6  674.81  109.71   1 0.13261 0.36329 0.38284-0.79807-0.91424 0.48071
   5  -7  -5 3267.75  316.78   1 0.18158 0.29396 0.33787-0.77296-0.92350 0.56223
  -5   7   5 3026.30  289.23   1-0.37042-0.10550 0.71454-0.27948-0.59347 0.95433
  -5   7   5 3417.94  233.95   1 0.27574-0.74993 0.96041-0.52603-0.03956 0.40111
  -5   7   5 3139.38  219.02   1 0.47369-0.94802 0.64359-0.20935 0.60115-0.23962
   5  -7  -420913.38 1502.63   1 0.23891 0.21618 0.28234-0.73731-0.92908 0.64002
  -5   7   419984.12 1610.90   1-0.29328-0.16200 0.67985-0.22483-0.67214 0.96083
  -5   7   418961.16  405.01   1 0.47541-0.92937 0.63039-0.17611 0.61365-0.32443
   5  -7  -320787.40 1510.23   1 0.30341 0.13132 0.21561-0.69046-0.92814 0.71134
  -5   7   320123.19 1936.69   1-0.20876-0.22587 0.63406-0.15907-0.74456 0.96107
   5  -7  -298320.59 2414.91   1 0.37285 0.04153 0.13832-0.63305-0.91751 0.77298
  -5   7   298249.27 2380.59   1-0.11802-0.29641 0.57877-0.08412-0.80690 0.95134
  -5   7   2101028.4 1968.72   1 0.47057-0.88378 0.66453-0.17016 0.58047-0.43585
   5  -7  -2104949.0 2067.65   1 0.23748 0.17485-0.48774-0.00716 0.84006-0.98456
   5  -7  -155860.10 3946.31   1 0.44387-0.05028 0.05235-0.56688-0.89455 0.82225
  -5   7   148379.36 4137.09   1-0.02625-0.36774 0.51347 0.00103-0.85770 0.92992
  -5   7   154536.95 1275.55   1 0.46600-0.85883 0.69035-0.17594 0.55339-0.48108
   5  -7  -160090.55 1394.99   1 0.32528 0.06677-0.29043-0.22450 0.89990-0.97218
   5  -7   0   58.51   73.38   1 0.51283-0.13957-0.03944-0.49504-0.85758 0.85758
  -5   7   0  -48.37  108.66   1 0.06367-0.43739 0.44240 0.09197-0.89455 0.89455
  -5   7   0   32.14   51.76   1 0.46032-0.83284 0.71788-0.18338 0.52224-0.52224
   5  -7   0   58.04   39.45   1 0.38043-0.00852-0.13219-0.40266 0.91530-0.91530
   5  -7   1 1738.63  140.13   1 0.57569-0.22323-0.13312-0.42117-0.80675 0.87907
  -5   7  -1 1073.11  129.24   1 0.14784-0.50119 0.36910 0.18512-0.91755 0.84529
  -5   7  -1 1312.84   83.36   1 0.45331-0.80546 0.74540-0.19085 0.48874-0.56106
   5  -7   1 1068.38  108.04   1 0.41461-0.06313-0.01232-0.54250 0.90991-0.83767
   5  -7   2 2012.26  219.34   1 0.62977-0.29767-0.22450-0.34979-0.74362 0.88827
  -5   7  -2 1925.25  242.72   1 0.22335-0.55634 0.29777 0.27648-0.92813 0.78360
  -5   7  -2 1988.23  213.76   1 0.44513-0.77692 0.77238-0.19778 0.45307-0.59772
   5  -7   2 1960.81  198.62   1 0.43556-0.10424 0.07549-0.65029 0.89698-0.75249
   5  -7   326266.86 1661.92   1 0.67337-0.36189-0.31036-0.28381-0.67099 0.88796
  -5   7  -323553.33 2452.45   1 0.28836-0.60100 0.23159 0.36254-0.92908 0.71229
  -5   7  -324339.51 1722.35   1 0.43581-0.74723 0.79833-0.20369 0.41560-0.63257
   5  -7   325275.61 2593.07   1 0.44830-0.13740 0.13796-0.73279 0.88316-0.66642
   5  -7   494234.73 2902.82   1 0.70595-0.41483-0.38853-0.22564-0.59217 0.88147
  -5   7  -491334.10 2844.09   1 0.34247-0.63475 0.17289 0.44112-0.92348 0.63441
  -5   7  -495564.51 2804.80   1 0.42536-0.71641 0.82295-0.20827 0.37656-0.66586
   5  -7   498065.57 2867.69   1 0.45604-0.16555 0.18103-0.79589 0.87135-0.58236
   5  -7   519968.98 1601.13   1 0.72834-0.45813-0.45810-0.17604-0.50955 0.87127
  -5   7  -518242.69 1798.80   1 0.38616-0.65809 0.12280 0.51110-0.91422 0.55289
  -5   7  -518401.37 1274.57   1 0.41379-0.68447 0.84604-0.21131 0.33611-0.69773
   5  -7   519961.46 1707.19   1 0.46060-0.19054 0.20910-0.84397 0.86262-0.50139
   5  -7   6  225.08  100.22   1 0.74118-0.49135-0.51857-0.13557-0.42628 0.86034
  -5   7  -6  267.19   57.23   1 0.42049-0.67174 0.08150 0.57272-0.90362 0.46983
  -5   7  -6 1221.37  265.78   1 0.40122-0.65143 0.86741-0.21266 0.29427-0.72829
   5  -7   6  301.54   59.11   1 0.46308-0.21343 0.22539-0.88029 0.85717-0.42369
   5  -7   725406.27 2370.04   1 0.74599-0.51653-0.57048-0.10366-0.34356 0.84996
  -5   7  -725306.24 3196.63   1 0.44659-0.67750 0.04890 0.62527-0.89339 0.38731
  -5   7  -727373.55 2293.23   1 0.38740-0.61724 0.88700-0.21222 0.25126-0.75761
   5  -7   722754.52 3503.36   1 0.46408-0.23485 0.23226-0.90718 0.85479-0.34907
   5  -6  -945354.25 4475.29   1 0.61352-0.05283-0.75699 0.47909 0.22481-0.87617
   5  -6  -947972.59 5812.31   1-0.01812 0.58000 0.50732-0.78665-0.86156 0.21155
   5  -6  -822382.86 2115.67   1 0.57182-0.03155-0.76082 0.46292 0.30685-0.88583
   5  -6  -824030.46 2404.16   1 0.00323 0.53821 0.49088-0.79008-0.87121 0.29343
   5  -6  -7 6473.06  596.22   1 0.52202-0.00217-0.75780 0.43989 0.39143-0.89804
   5  -6  -7 7417.09  708.89   1 0.03248 0.48812 0.46793-0.78696-0.88316 0.37738
   5  -6  -653412.58 4441.77   1 0.46302 0.03612-0.74639 0.40838 0.47801-0.91209
   5  -6  -656981.78 4833.91   1 0.07097 0.42926 0.43629-0.77519-0.89699 0.46347
   5  -6  -5 5676.56  521.11   1 0.11926 0.36061 0.39472-0.75347-0.91102 0.54975
  -5   6   5 5504.03  423.17   1-0.39450-0.08591 0.72379-0.36515-0.56611 0.92697
   5  -6  -476982.79 2051.23   1 0.17760 0.28190 0.34160-0.72021-0.92290 0.63389
  -5   6   473345.11 5366.31   1-0.31593-0.14384 0.69079-0.31217-0.65038 0.93907
   5  -6  -3139683.3 3572.59   1 0.24538 0.19369 0.27585-0.67435-0.92934 0.71255
  -5   6   3137936.5 3463.43   1-0.22790-0.21122 0.64509-0.24651-0.72932 0.94584
  -5   6   3137287.8 2912.97   1 0.45905-0.89713 0.72325-0.32524 0.51592-0.29895
   5  -6  -281885.23 2294.18   1 0.32050 0.09822 0.19715-0.61552-0.92650 0.78197
  -5   6   276189.92 5957.07   1-0.13151-0.28729 0.58773-0.16941-0.79829 0.94274
   5  -6  -284610.61 1940.80   1 0.23142 0.18549-0.49957 0.08107 0.83478-0.97929
   5  -6  -115061.98 1146.88   1 0.39933-0.00137 0.10714-0.54532-0.91052 0.83822
  -5   6   112403.46 1366.94   1-0.03209-0.36626 0.51785-0.07968-0.85486 0.92709
  -5   6   113157.96 1304.06   1 0.45584-0.85318 0.73602-0.29792 0.50047-0.42815
   5  -6  -112575.53 1477.85   1 0.34283 0.05378-0.24401-0.19451 0.90714-0.97942
   5  -6   0100706.6 2572.91   1 0.47744-0.09981 0.00884-0.46697-0.87861 0.87861
  -5   6   099973.70 2546.36   1 0.06657-0.44462 0.43998 0.01805-0.89553 0.89553
  -5   6   0101161.0 2286.01   1 0.45059-0.82756 0.75492-0.29677 0.47651-0.47651
   5  -6   0101618.8 2282.97   1 0.40401-0.02756-0.05203-0.40642 0.91326-0.91326
   5  -6   160527.55 1810.51   1 0.54957-0.19269-0.09296-0.38500-0.83025 0.90257
  -5   6  -159657.80 1784.86   1 0.15941-0.51710 0.35851 0.11937-0.91981 0.84755
  -5   6  -162545.22 4500.28   1 0.44384-0.80045 0.77624-0.29804 0.44771-0.52003
   5  -6   159076.28 3898.27   1 0.43731-0.08107 0.08359-0.56198 0.89541-0.82316
   5  -6   231089.81 1968.98   1 0.61195-0.27543-0.19293-0.30503-0.76699 0.91164
  -5   6  -228896.15 2683.92   1 0.24250-0.57982 0.27874 0.21915-0.92924 0.78471
  -5   6  -230985.40 1754.73   1 0.43581-0.77205 0.79833-0.30010 0.41559-0.56024
   5  -6   231300.40 2450.28   1 0.45526-0.11943 0.17646-0.67487 0.87269-0.72820
   5  -6   345618.37 3802.77   1 0.66219-0.34625-0.28681-0.23105-0.69226 0.90924
  -5   6  -345928.05 4769.32   1 0.31338-0.63034 0.20488 0.31289-0.92726 0.71046
  -5   6  -346054.49 3576.14   1 0.42658-0.74245 0.82029-0.30200 0.38098-0.59795
   5  -6   349541.41 4048.96   1 0.46502-0.14961 0.23883-0.75727 0.85247-0.63573
   5  -6   427309.75 2144.26   1 0.69957-0.40400-0.37173-0.16613-0.61024 0.89954
  -5   6  -426045.81 2594.50   1 0.37152-0.66814 0.13986 0.39780-0.91782 0.62876
  -5   6  -425945.35 1974.73   1 0.41621-0.71171 0.84153-0.30320 0.34436-0.63365
   5  -6   424731.54 2198.71   1 0.47034-0.17535 0.27935-0.81781 0.83709-0.54811
   5  -6   5 2129.13  205.11   1 0.72495-0.44975-0.44642-0.11144-0.52455 0.88617
  -5   6  -5 2029.80  250.08   1 0.41777-0.69372 0.08484 0.47306-0.90458 0.54309
  -5   6  -5 2033.19  197.51   1 0.40485-0.67989 0.86167-0.30332 0.30595-0.66763
   5  -6   5 2104.79  209.77   1 0.47334-0.19865 0.30391-0.86248 0.82679-0.46546
   5  -6   634688.06 2952.62   1 0.73994-0.48562-0.51091-0.06692-0.43754 0.87160
  -5   6  -633108.10 4155.02   1 0.45328-0.70890 0.04036 0.53750-0.89045 0.45666
  -5   6  -636084.27 2895.00   1 0.39226-0.64693 0.88051-0.30212 0.26612-0.70013
   5  -6   634445.06 3955.17   1 0.47465-0.22037 0.31641-0.89504 0.82133-0.38773
   5  -6   7 1445.84  199.79   1 0.74583-0.51188-0.56550-0.03233-0.35204 0.85844
  -5   6  -7 1560.74  250.15   1 0.47987-0.71516 0.00560 0.59222-0.87731 0.37123
  -5   6  -7 1562.83  217.88   1 0.37857-0.61287 0.89783-0.29940 0.22490-0.73125
   5  -6   7 1569.31  285.11   1 0.47497-0.24110 0.31961-0.91828 0.81990-0.31404
   5  -6   8  256.42   98.41   1 0.74440-0.53099-0.61135-0.00640-0.26852 0.84734
  -5   6  -8  422.81  107.51   1 0.49908-0.71403-0.02037 0.63815-0.86631 0.28792
  -5   6  -8  387.73   65.36   1 0.36376-0.57770 0.91345-0.29500 0.18238-0.76107
   5  -6   8  305.34  100.45   1 0.47454-0.26107 0.31533-0.93405 0.82181-0.24368
   5  -5  -917874.93 1791.08   1 0.63351-0.06865-0.75236 0.55079 0.18056-0.83181
   5  -5  -917070.57 2516.00   1-0.07026 0.63652 0.54573-0.74873-0.83500 0.18499
   5  -5  -760958.93 5836.44   1 0.54850-0.02419-0.76028 0.51870 0.34800-0.85461
   5  -5  -764086.83 5967.02   1-0.02619 0.55157 0.51342-0.75613-0.85773 0.35217
   5  -5  -613421.06  958.76   1 0.49217 0.01144-0.75293 0.49124 0.43686-0.87094
   5  -5  -614421.79 1110.33   1 0.00944 0.49549 0.48603-0.74859-0.87388 0.44054
   5  -5  -5 1375.77  192.30   1 0.42514 0.05808-0.73557 0.45390 0.52742-0.88915
   5  -5  -5 1653.39  174.08   1 0.05573 0.42848 0.44898-0.73139-0.89179 0.53052
   5  -5  -4  163.03   45.35   1 0.11393 0.34991 0.39941-0.70168-0.90966 0.62064
  -5   5   4   46.73   77.71   1-0.34660-0.11766 0.70462-0.40242-0.61917 0.90786
   5  -5  -319428.84 1582.75   1 0.18394 0.25953 0.33564-0.65777-0.92385 0.70709
  -5   5   320199.06 1521.79   1-0.25619-0.18742 0.66069-0.33852-0.70558 0.92210
   5  -5  -293149.39 2476.67   1 0.26431 0.15873 0.25661-0.59863-0.92967 0.78513
  -5   5   295150.16 2506.31   1-0.15461-0.26856 0.60267-0.26069-0.78286 0.92731
   5  -5  -298909.35 2142.14   1 0.20291 0.21858-0.55267 0.21058 0.80831-0.95282
   5  -5  -1168328.0 3973.41   1 0.35138 0.05131 0.16288-0.52478-0.92195 0.84968
  -5   5   1165919.6 3939.03   1-0.04710-0.35563 0.52896-0.16713-0.84733 0.91955
   5  -5  -1172214.2 3667.61   1 0.36053 0.04088-0.19310-0.16896 0.91253-0.98477
   5  -5   017492.09 1503.41   1 0.43955-0.05755 0.05781-0.43958-0.89635 0.89635
   5  -5   147478.94 3803.12   1 0.52242-0.16075-0.05300-0.34872-0.85103 0.92333
  -5   5  -146200.70 1112.87   1 0.16489-0.52692 0.35345 0.04810-0.92080 0.84854
  -5   5  -145741.18  886.39   1 0.42626-0.78732 0.82100-0.41917 0.37980-0.45212
   5  -5   146247.78  818.88   1 0.45886-0.09810 0.19808-0.60008 0.86614-0.79389
   5  -5   2 3218.52  270.31   1 0.59427-0.25331-0.16310-0.25853-0.78755 0.93219
  -5   5  -2 2764.34  325.46   1 0.25729-0.59894 0.26378 0.15775-0.92963 0.78509
  -5   5  -2 2985.83  122.11   1 0.41977-0.76046 0.83459-0.41271 0.35670-0.50134
   5  -5   2 3213.20  357.98   1 0.47207-0.13166 0.29251-0.71455 0.83161-0.68708
   5  -5   3 2522.80  188.29   1 0.65182-0.33123-0.26617-0.17546-0.71012 0.92708
  -5   5  -3 2633.37  293.40   1 0.33532-0.65661 0.18085 0.26057-0.92458 0.70778
  -5   5  -3 2566.35  186.72   1 0.41159-0.73191 0.85003-0.40810 0.32868-0.54565
   5  -5   3 2623.92  386.65   1 0.47782-0.15782 0.35080-0.79289 0.80537-0.58857
   5  -5   468452.47 5730.27   1 0.69436-0.39433-0.35864-0.10291-0.62388 0.91318
  -5   5  -464875.62 1941.28   1 0.39826-0.69921 0.10845 0.35285-0.91083 0.62177
  -5   5  -472733.72 2010.53   1 0.40211-0.70199 0.86604-0.40409 0.29710-0.58644
   5  -5   469943.45 1897.75   1 0.48035-0.18076 0.38557-0.84771 0.78777-0.49870
   5  -5   5115594.6 2687.09   1 0.72276-0.44310-0.43890-0.04264-0.53383 0.89545
  -5   5  -5108558.7 2945.78   1 0.44729-0.72762 0.04801 0.43354-0.89309 0.53160
  -5   5  -5120139.1 2684.22   1 0.39123-0.67074 0.88192-0.39993 0.26294-0.62462
   5  -5   5113482.2 2514.48   1 0.48142-0.20224 0.40423-0.88641 0.77770-0.41637
   5  -5   6  131.98   98.32   1 0.73930-0.48048-0.50719 0.00566-0.44292 0.87698
  -5   5  -6   77.15   75.57   1 0.48413-0.74412-0.00008 0.50160-0.87499 0.44120
  -5   5  -6   51.19   43.44   1 0.37915-0.63830 0.89715-0.39512 0.22662-0.66064
   5  -5   6   65.11   79.00   1 0.48178-0.22300 0.41130-0.91354 0.77376-0.34016
   5  -5   714683.02  983.78   1 0.74577-0.50733-0.56417 0.04264-0.35429 0.86069
  -5   5  -713364.91 1591.32   1 0.51113-0.75079-0.03706 0.55854-0.85869 0.35261
  -5   5  -715262.58  965.96   1 0.36592-0.60470 0.91135-0.38929 0.18847-0.69482
   5  -5   713596.54 1651.52   1 0.48170-0.24332 0.40966-0.93194 0.77468-0.26882
   5  -5   8 5455.39  440.75   1 0.74440-0.52649-0.61137 0.06992-0.26847 0.84729
  -5   5  -8 5115.97  538.83   1 0.53024-0.74957-0.06424 0.60567-0.84540 0.26702
  -5   5  -8 5504.10  429.82   1 0.35155-0.56996 0.92428-0.38218 0.14869-0.72737
   5  -5   8 5659.83  746.93   1 0.48126-0.26330 0.40115-0.94348 0.77939-0.20126
   5  -5   9  198.72   80.08   1 0.73666-0.53914-0.65007 0.08862-0.18636 0.83753
  -5   5  -9  -41.25  105.26   1 0.33602-0.53406 0.93570-0.37357 0.10740-0.75842
   5  -5   9  152.43   39.66   1 0.48044-0.28288 0.38699-0.94937 0.78702-0.13662
   5  -4  -9 5887.86  546.66   1 0.65467-0.08532-0.74481 0.61955 0.12905-0.78029
   5  -4  -9 5702.31  542.89   1-0.11966 0.69029 0.57987-0.70653-0.80587 0.15586
   5  -4  -844521.84 4166.65   1 0.62044-0.07126-0.75563 0.61037 0.20992-0.78890
   5  -4  -844419.46 1665.16   1-0.10556 0.65575 0.57035-0.71687-0.81458 0.23680
   5  -4  -7  598.71   77.80   1 0.57807-0.04930-0.76067 0.59541 0.29529-0.80190
   5  -4  -7  703.26   79.23   1-0.08334 0.61309 0.55498-0.72135-0.82767 0.32211
   5  -4  -622138.48 2079.11   1 0.52600-0.01765-0.75829 0.57302 0.38511-0.81934
   5  -4  -622976.02 1911.97   1-0.05141 0.56073 0.53212-0.71835-0.84510 0.41176
   5  -4  -5   52.84   43.62   1 0.46230 0.02538-0.74621 0.54085 0.47900-0.84073
   5  -4  -5  121.03   65.48   1-0.00801 0.49688 0.49959-0.70567-0.86622 0.50510
   5  -4  -475754.81 2092.21   1 0.04845 0.41972 0.45496-0.68089-0.88918 0.60017
  -5   4   476955.24 2099.62   1-0.38560-0.08315 0.72047-0.49468-0.57639 0.86508
   5  -4  -3 3848.58  301.79   1 0.11940 0.32841 0.39459-0.64038-0.91106 0.69430
  -5   4   3 3237.51  512.44   1-0.29466-0.15344 0.68053-0.43478-0.67084 0.88736
   5  -4  -2145993.1 3506.60   1 0.20412 0.22332 0.31638-0.58203-0.92640 0.78189
  -5   4   2145904.6 3482.62   1-0.18984-0.23762 0.62280-0.35708-0.75899 0.90333
   5  -4  -1 4617.17  370.82   1 0.29947 0.10755 0.21983-0.50537-0.92843 0.85616
  -5   4   1 4462.12  437.84   1-0.07353-0.33357 0.54806-0.26257-0.83319 0.90542
  -5   4   1 4386.27  436.68   1 0.36441-0.77060 0.91283-0.62741 0.18420-0.11187
   5  -4  -1 4377.78  482.97   1 0.38097 0.02498-0.13048-0.15518 0.91533-0.98756
   5  -4   0125077.5 2627.22   1 0.39896-0.01258 0.10760-0.41302-0.91063 0.91063
  -5   4   0128164.3 2604.93   1 0.04655-0.43327 0.45652-0.15116-0.88849 0.88849
  -5   4   0128439.4 2282.13   1 0.38790-0.77372 0.88636-0.58090 0.25277-0.25277
   5  -4   0133719.9 2297.79   1 0.45569-0.07000 0.17896-0.48454 0.87196-0.87196
   5  -4   156270.47 1431.84   1 0.49424-0.12820-0.01374-0.31163-0.86921 0.94151
  -5   4  -155065.39 1415.97   1 0.16255-0.52891 0.35562-0.03040-0.92038 0.84813
  -5   4  -156478.42 1250.30   1 0.39382-0.75927 0.87834-0.55285 0.27094-0.34328
   5  -4   157216.51 1186.14   1 0.47682-0.11150 0.33920-0.66480 0.81091-0.73864
   5  -4   211723.54 1001.83   1 0.57725-0.23187-0.13559-0.20971-0.80522 0.94987
  -5   4  -210288.32 1229.27   1 0.26663-0.61261 0.25422 0.09096-0.92966 0.78513
  -5   4  -210616.88  838.42   1 0.39279-0.73788 0.87978-0.53426 0.26775-0.41242
   5  -4   210904.42 1373.03   1 0.48242-0.13751 0.42624-0.77189 0.76523-0.62070
   5  -4   336746.28 2876.14   1 0.64316-0.31814-0.24942-0.11589-0.72396 0.94093
  -5   4  -332287.26 3514.46   1 0.35365-0.67927 0.16031 0.20475-0.92153 0.70473
  -5   4  -336803.71 2124.52   1 0.38798-0.71270 0.88625-0.52069 0.25302-0.47002
   5  -4   333914.36 2515.88   1 0.48352-0.15902 0.47416-0.83986 0.73578-0.51898
   5  -4   410313.37  668.83   1 0.69094-0.38646-0.35033-0.03491-0.63234 0.92164
  -5   4  -4 9210.44 1277.01   1 0.42266-0.72769 0.07884 0.30640-0.90285 0.61365
  -5   4  -410080.28  760.10   1 0.38067-0.68502 0.89536-0.50976 0.23111-0.52045
   5  -4   4 9341.95  914.91   1 0.48348-0.17939 0.49902-0.88477 0.71917-0.43011
   5  -4   5 6354.95  424.12   1 0.72202-0.43791-0.43643 0.03118-0.53685 0.89847
  -5   4  -5 6959.14  901.35   1 0.47477-0.75947 0.01237 0.39283-0.88001 0.51852
  -5   4  -5 6793.51  504.86   1 0.37147-0.65545 0.90569-0.50006 0.20428-0.56595
   5  -4   5 6881.22  754.78   1 0.48334-0.19965 0.50910-0.91490 0.71217-0.35083
   5  -4   6111255.3 7930.65   1 0.73949-0.47618-0.50828 0.08306-0.44135 0.87541
  -5   4  -6108497.9 2555.18   1 0.51305-0.77741-0.03974 0.46491-0.85743 0.42364
  -5   4  -6116658.2 7599.85   1 0.36070-0.62431 0.91634-0.49067 0.17382-0.60783
   5  -4   6111391.2 2495.22   1 0.48334-0.22006 0.50899-0.93483 0.71225-0.27865
   5  -4   7  164.96   40.39   1 0.74589-0.50296-0.56714 0.12192-0.34926 0.85566
  -5   4  -7  172.49   87.61   1 0.54038-0.78441-0.07902 0.52414-0.83769 0.33161
  -5   4  -7  135.02   57.67   1 0.34852-0.59177 0.92670-0.48100 0.14051-0.64686
   5  -4   7   71.39   72.92   1 0.48345-0.24058 0.50136-0.94725 0.71756-0.21170
   5  -4   813831.54  898.60   1 0.74395-0.52155-0.61509 0.14994-0.26111 0.83994
  -5   4  -812798.77 1888.26   1 0.55935-0.78255-0.10774 0.57306-0.82189 0.24331
  -5   4  -814426.91  902.96   1 0.33504-0.55792 0.93634-0.47061 0.10486-0.68354
   5  -4   813644.17 1650.45   1 0.48355-0.26108 0.48786-0.95380 0.72674-0.14861
   5  -4   914248.62 1043.68   1 0.73549-0.53348-0.65382 0.16867-0.17764 0.82882
  -5   4  -914270.47 1635.99   1 0.57165-0.77449-0.12676 0.61207-0.81064 0.15974
  -5   4  -915228.18 1385.41   1 0.32027-0.52270 0.94492-0.45930 0.06741-0.71820
   5  -4   913745.01 1780.85   1 0.48348-0.28142 0.46951-0.95550 0.73878-0.08838
   5  -4  10  489.33  106.10   1 0.72196-0.54033-0.68488 0.17974-0.09849 0.82202
  -5   4 -10  551.69  105.36   1 0.57881-0.76129-0.13807 0.64339-0.80368 0.08045
  -5   4 -10  655.82   93.55   1 0.30431-0.48636 0.95216-0.44652 0.02794-0.75104
   5  -4  10  632.35  139.54   1 0.48308-0.30142 0.44696-0.95300 0.75289-0.03023
   5  -3  -996270.89 9733.25   1 0.67603-0.10221-0.73348 0.68454 0.07052-0.72177
   5  -3  -8 7760.03  706.71   1 0.64665-0.09324-0.74804 0.67909 0.14921-0.72810
   5  -3  -8 7786.24  791.96   1-0.15575 0.71032 0.60339-0.67357-0.78208 0.20429
   5  -3  -7 3028.24  431.19   1 0.60965-0.07643-0.75765 0.66871 0.23297-0.73958
   5  -3  -7 1632.57  225.26   1-0.13793 0.67206 0.59193-0.68196-0.79409 0.28853
   5  -3  -6  133.45   96.29   1 0.56320-0.05039-0.76082 0.65187 0.32241-0.75664
   5  -3  -6  122.67   39.03   1-0.11051 0.62420 0.57371-0.68360-0.81156 0.37822
   5  -3  -5 3075.70  319.47   1 0.50499-0.01284-0.75526 0.62622 0.41780-0.77953
   5  -3  -5 3447.34  315.56   1-0.07129 0.56453 0.54646-0.67621-0.83443 0.47332
   5  -3  -4 3888.62  502.04   1 0.43273 0.03901-0.73793 0.58891 0.51786-0.80725
   5  -3  -4 4704.05  435.77   1-0.01777 0.49057 0.50705-0.65665-0.86173 0.57283
   5  -3  -324862.01 2327.43   1 0.05220 0.39994 0.45188-0.62133-0.89054 0.67378
  -5   3   325859.26 2051.29   1-0.34403-0.10856 0.70351-0.53417-0.62186 0.83837
   5  -3  -219192.61 1720.10   1 0.13998 0.29179 0.37622-0.56552-0.91589 0.77138
  -5   3   220431.01 1761.89   1-0.23755-0.19440 0.65050-0.46120-0.72139 0.86573
   5  -3  -131224.52 3004.37   1 0.24330 0.16805 0.27794-0.48713-0.92927 0.85700
  -5   3   128041.41 2808.04   1-0.11433-0.29714 0.57629-0.36714-0.80920 0.88142
   5  -3  -127759.05  447.68   1 0.40989 0.00060-0.03034-0.17891 0.91162-0.98386
   5  -3   0  894.85   91.22   1 0.35537 0.03562 0.15835-0.38742-0.92121 0.92121
  -5   3   0  712.51   93.30   1 0.01807-0.40912 0.47923-0.25022-0.87750 0.87750
  -5   3   0 1008.26  147.98   1 0.29785-0.68815 0.95453-0.72546 0.01234-0.01234
   5  -3   0  897.43  146.24   1 0.47925-0.08903 0.36925-0.59842 0.79621-0.79621
   5  -3   150016.41 1165.68   1 0.46532-0.09491 0.02478-0.27380-0.88479 0.95708
  -5   3  -150145.48 1175.28   1 0.14967-0.52036 0.36743-0.11856-0.91792 0.84567
  -5   3  -149895.67  960.10   1 0.33458-0.70451 0.93664-0.68752 0.10366-0.17599
   5  -3   150260.76 1086.06   1 0.48326-0.11344 0.51331-0.76252 0.70920-0.63693
   5  -3   280337.46 1676.36   1 0.56166-0.21184-0.11127-0.15770-0.81984 0.96449
  -5   3  -281751.07 1701.47   1 0.26881-0.61911 0.25197 0.01685-0.92964 0.78511
  -5   3  -280007.47 1531.44   1 0.34798-0.69754 0.92712-0.65796 0.13906-0.28374
   5  -3   283834.25 1523.68   1 0.48052-0.13095 0.57804-0.84718 0.65951-0.51490
   5  -3   3 1492.67  121.96   1 0.63706-0.30761-0.23792-0.05106-0.73317 0.95014
  -5   3  -3 1438.76  220.56   1 0.36754-0.69749 0.14445 0.14425-0.91871 0.70192
  -5   3  -3 1671.43  106.76   1 0.35134-0.68053 0.92445-0.63526 0.14812-0.36512
   5  -3   3 1503.09  123.85   1 0.47802-0.14883 0.60702-0.89621 0.63483-0.41791
   5  -3   4  494.02   69.46   1 0.69010-0.38117-0.34832 0.03939-0.63436 0.92366
  -5   3  -4  371.68   65.83   1 0.44404-0.75345 0.05213 0.25675-0.89448 0.60529
  -5   3  -4  405.76   44.30   1 0.34921-0.65803 0.92616-0.61693 0.14237-0.43171
   5  -3   4  410.55   63.62   1 0.47693-0.16811 0.61736-0.92659 0.62561-0.33638
   5  -3   536032.86 2478.85   1 0.72318-0.43462-0.44033 0.11140-0.53207 0.89369
  -5   3  -534413.81  979.50   1 0.50012-0.78920-0.02180 0.35065-0.86567 0.50418
  -5   3  -536039.71 3403.08   1 0.34358-0.63203 0.93045-0.60119 0.12729-0.48897
   5  -3   534782.66  897.27   1 0.47704-0.18860 0.61635-0.94562 0.62652-0.26499
   5  -3   6  164.59   57.78   1 0.74066-0.47285-0.51521 0.16630-0.43124 0.86530
  -5   3  -6   50.89   48.85   1 0.53999-0.80873-0.07845 0.42726-0.83800 0.40421
  -5   3  -6  198.76   55.57   1 0.33542-0.60350 0.93610-0.58680 0.10583-0.53984
   5  -3   6   96.08   28.78   1 0.47796-0.20989 0.60763-0.95695 0.63429-0.20045
   5  -3   771211.67 5357.41   1 0.74608-0.49865-0.57515 0.20624-0.33550 0.84190
  -5   3  -769429.35 2392.31   1 0.56770-0.81570-0.12060 0.48959-0.81434 0.30808
  -5   3  -772347.34 2424.10   1 0.32520-0.57287 0.94226-0.57304 0.07985-0.58603
   5  -3   772701.24 2407.77   1 0.47930-0.23161 0.59322-0.96258 0.64679-0.14064
   5  -3   875694.58 4769.64   1 0.74282-0.51591-0.62297 0.23411-0.24520 0.82402
  -5   3  -871548.18 2409.22   1 0.58616-0.81380-0.14986 0.53885-0.79620 0.21762
  -5   3  -879462.89 6458.82   1 0.31335-0.54064 0.94831-0.55907 0.05011-0.62859
   5  -3   877850.87 2415.96   1 0.48079-0.25347 0.57427-0.96367 0.66260-0.08415
   5  -3   930152.05 1885.92   1 0.73304-0.52653-0.66090 0.25206-0.16075 0.81192
  -5   3  -926851.08 3688.22   1 0.59786-0.80514-0.16906 0.57805-0.78356 0.13265
  -5   3  -930201.80 2271.64   1 0.29997-0.50690 0.95378-0.54452 0.01744-0.66824
   5  -3   927617.43 3504.96   1 0.48216-0.27521 0.55146-0.96091 0.68073-0.02997
   5  -3  10 3838.68  367.03   1 0.71837-0.53225-0.69086 0.26203-0.08148 0.80501
  -5   3 -10 3190.50  529.96   1 0.60443-0.79135-0.18008 0.60907-0.77602 0.05280
  -5   3 -10 3783.80  545.76   1 0.28517-0.47172 0.95831-0.52902-0.01769-0.70541
   5  -3  10 3550.76  525.00   1 0.48322-0.29664 0.52522-0.95472 0.70045 0.02261
   5  -2  -9  435.82  100.78   1 0.69652-0.11822-0.71751 0.74488 0.00538-0.65663
   5  -2  -9  400.01   91.10   1-0.20812 0.78907 0.63369-0.60682-0.74506 0.09551
   5  -2  -834485.70 2755.79   1 0.67258-0.11469-0.73562 0.74299 0.08051-0.65939
   5  -2  -834501.97 4114.31   1-0.20240 0.76270 0.63031-0.62342-0.74948 0.17211
   5  -2  -716183.12 1413.22   1 0.64177-0.10429-0.74978 0.73715 0.16110-0.66763
   5  -2  -716409.95 2105.73   1-0.18934 0.72900 0.62250-0.63557-0.75936 0.25416
   5  -2  -6 1196.54  151.92   1 0.60233-0.08506-0.75872 0.72609 0.24807-0.68231
   5  -2  -6 1590.52  189.60   1-0.16708 0.68610 0.60880-0.64183-0.77552 0.34249
   5  -2  -5 6252.36  702.06   1 0.55179-0.05494-0.76046 0.70783 0.34237-0.70423
   5  -2  -5 7173.74  682.25   1-0.13282 0.63044 0.58859-0.64199-0.79744 0.43632
   5  -2  -421999.87 1705.03   1 0.48691-0.01069-0.75188 0.67917 0.44451-0.73389
   5  -2  -423506.85 2531.03   1-0.08394 0.56112 0.55541-0.62867-0.82732 0.53843
   5  -2  -3   90.87   21.91   1 0.40417 0.05165-0.72858 0.63589 0.55300-0.77004
   5  -2  -230277.38 2750.06   1 0.07206 0.36405 0.43538-0.54834-0.89735 0.75284
  -5   2   229657.76  869.12   1-0.30012-0.13632 0.68322-0.57032-0.66568 0.81002
   5  -2  -175144.53 1570.48   1 0.18251 0.23324 0.33699-0.46981-0.92364 0.85139
  -5   2   173623.82 1545.00   1-0.17342-0.24237 0.61275-0.47989-0.77100 0.84317
   5  -2  -173587.55 1035.46   1 0.47057-0.05545 0.28121-0.41397 0.83635-0.90859
   5  -2  -172456.21 1036.06   1 0.18700 0.22771-0.58062 0.44778 0.79240-0.86465
   5  -2   065505.42 1328.13   1 0.30839 0.08694 0.21027-0.36299-0.92772 0.92772
  -5   2   065246.06 1330.39   1-0.02832-0.36709 0.51502-0.36235-0.85670 0.85670
   5  -2   067563.10  993.22   1 0.47426-0.07948 0.63943-0.79213 0.60514-0.60514
   5  -2   120849.02 2238.18   1 0.43601-0.06122 0.06226-0.23492-0.89778 0.97008
  -5   2  -118218.43  615.83   1 0.12198-0.49700 0.39231-0.21978-0.91170 0.83945
   5  -2   118924.74  510.12   1 0.46135-0.08692 0.71341-0.88618 0.52743-0.45511
   5  -2   266556.93 1387.67   1 0.54860-0.19436-0.09151-0.10114-0.83105 0.97570
  -5   2  -268027.10 1364.70   1 0.26100-0.61563 0.26000-0.06752-0.92966 0.78513
  -5   2  -269543.17 1323.01   1 0.27783-0.63187 0.96000-0.76724-0.03475-0.10986
   5  -2   268595.52  920.21   1 0.45576-0.10170 0.73634-0.92915 0.50007-0.35542
   5  -2   310761.65 1042.40   1 0.63482-0.30094-0.23377 0.02111-0.73643 0.95340
  -5   2  -310156.21 1298.46   1 0.37560-0.70988 0.13514 0.07721-0.91687 0.70007
  -5   2  -310785.02 1305.76   1 0.29699-0.63066 0.95482-0.74204 0.01029-0.22722
   5  -2   3 9961.43 1073.52   1 0.45483-0.12114 0.73982-0.95268 0.49576-0.27878
   5  -2   419988.93 1621.29   1 0.69278-0.37939-0.35478 0.12216-0.62783 0.91713
  -5   2  -418234.38 2100.76   1 0.46208-0.77586 0.02900 0.20352-0.88636 0.59717
  -5   2  -418968.57 1718.05   1 0.30452-0.61782 0.95207-0.71927 0.02846-0.31770
   5  -2   419094.31 1789.77   1 0.45656-0.14324 0.73324-0.96614 0.50388-0.21459
   5  -2   5 1827.72  145.64   1 0.72663-0.43361-0.45239 0.19978-0.51705 0.87867
  -5   2  -5 1737.43  227.03   1 0.52317-0.81662-0.05408 0.30657-0.85050 0.48901
  -5   2  -5 1645.50  114.95   1 0.30530-0.59822 0.95176-0.69894 0.03036-0.39191
   5  -2   5 1809.67  195.34   1 0.45974-0.16679 0.72034-0.97329 0.51935-0.15773
   5  -2   637853.33 2820.49   1 0.74270-0.47040-0.52923 0.25663-0.41024 0.84430
  -5   2  -636564.46 1213.55   1 0.56505-0.83784-0.11649 0.38915-0.81679 0.38285
  -5   2  -636615.81 3290.14   1 0.30168-0.57423 0.95316-0.68031 0.02157-0.45543
   5  -2   637883.60 3612.44   1 0.46346-0.19093 0.70293-0.97589 0.53952-0.10568
   5  -2   736500.25 2808.00   1 0.74594-0.49403-0.58894 0.29634-0.31098 0.81738
  -5   2  -739733.67 4289.42   1 0.59281-0.84524-0.16070 0.45336-0.78914 0.28288
  -5   2  -738910.89 3300.51   1 0.29491-0.54707 0.95551-0.66264 0.00530-0.51147
   5  -2   738305.85 3908.15   1 0.46759-0.21543 0.68188-0.97489 0.56248-0.05633
   5  -2   8  228.13   72.04   1 0.74046-0.50906-0.63539 0.32284-0.21906 0.79788
  -5   2  -8  410.72   88.20   1 0.61077-0.84284-0.19089 0.50355-0.76844 0.18986
  -5   2  -8  194.86   69.74   1 0.28568-0.51747 0.95818-0.64529-0.01651-0.56197
   5  -2   8  286.91   61.08   1 0.47164-0.23986 0.65771-0.97076 0.58733-0.00887
   5  -2   934954.49 3073.88   1 0.72874-0.51773-0.67147 0.33893-0.13436 0.78554
  -5   2  -933273.96 4425.27   1 0.62176-0.83346-0.21010 0.54276-0.75449 0.10359
  -5   2  -933669.12 2599.11   1 0.27441-0.48583 0.96066-0.62775-0.04261-0.60818
   5  -2   931697.62 3494.92   1 0.47537-0.26396 0.63070-0.96380 0.61336 0.03739
   5  -2  10  572.03  110.86   1 0.71249-0.52188-0.69945 0.34691-0.05575 0.77928
  -5   2 -10  559.19  105.78   1 0.62765-0.81899-0.22066 0.57332-0.74656 0.02333
   5  -2  10  411.59   86.14   1 0.47860-0.28756 0.60101-0.95415 0.64009 0.08298
   5  -2  11 2261.84  292.50   1 0.69285-0.52277-0.72085 0.34824 0.01787 0.77809
  -5   2 -11 1748.86  262.24   1 0.62964-0.80062-0.22426 0.59692-0.74380-0.05174
   5  -2  11 1971.63  377.89   1 0.48117-0.31050 0.56869-0.94188 0.66712 0.12824
   5  -1  -9 9278.72  894.01   1 0.71483-0.13228-0.69619 0.79983-0.06570-0.58546
   5  -1  -9 8673.96 1573.35   1-0.24596 0.83140 0.65515-0.55187-0.71433 0.06478
   5  -1  -8 5063.33  506.75   1 0.69676-0.13439-0.71728 0.80096 0.00454-0.58343
   5  -1  -8 4731.52  843.84   1-0.24443 0.80922 0.65430-0.57099-0.71563 0.13825
   5  -1  -726230.65 3259.98   1 0.67272-0.13077-0.73554 0.79922 0.08011-0.58663
   5  -1  -726265.07 4083.01   1-0.23617 0.78032 0.64973-0.58639-0.72253 0.21733
   5  -1  -6121561.6 3802.35   1 0.64126-0.11971-0.74995 0.79363 0.16233-0.59649
   5  -1  -6121632.5 3785.45   1-0.21937 0.74287 0.64021-0.59684-0.73620 0.30317
  -5   1   6125877.3 3452.79   1 0.32957-0.85146-0.27935 0.23619 0.90185-0.46820
   5  -1  -535331.14 2662.02   1 0.60006-0.09876-0.75900 0.78269 0.25265-0.61451
   5  -1  -538102.10 1084.68   1-0.19140 0.69427 0.62375-0.60033-0.75782 0.39696
  -5   1   539651.98  478.98   1 0.25575-0.75725-0.45088 0.42735 0.85515-0.49389
   5  -1  -4 2646.57  202.57   1 0.54574-0.06485-0.76011 0.76380 0.35268-0.64218
   5  -1  -4 2917.84  334.28   1-0.14853 0.63008 0.59878-0.59570-0.78701 0.49812
   5  -1  -3  487.45   63.23   1 0.47353-0.01324-0.74894 0.73257 0.46351-0.68055
   5  -1  -3  475.35   73.04   1-0.08613 0.54724 0.55694-0.57371-0.82607 0.60940
   5  -1  -217600.25 1876.57   1 0.00118 0.43948 0.49248-0.52911-0.87032 0.72587
  -5   1   218311.45 1674.20   1-0.37781-0.06311 0.71747-0.68099-0.58522 0.72956
   5  -1  -166235.79 1327.90   1 0.11682 0.30326 0.39686-0.45335-0.91041 0.83815
  -5   1   166388.43 1320.11   1-0.25321-0.16707 0.65909-0.60264-0.70815 0.78032
   5  -1  -165763.21  888.67   1 0.37941 0.04019 0.89685-0.95318 0.22737-0.29970
   5  -1  -167838.99  914.23   1 0.34345 0.07591-0.24232 0.18583 0.90736-0.97964
   5  -1   0259120.7 4588.05   1 0.25748 0.14217 0.26359-0.33995-0.92963 0.92963
  -5   1   0256349.1 4552.94   1-0.09911-0.30066 0.56594-0.48960-0.81846 0.81846
   5  -1   0241870.1 4033.28   1 0.37863 0.02059 0.89775-0.97411 0.22509-0.22509
   5  -1   116557.16  505.36   1 0.40681-0.02766 0.09816-0.19447-0.90821 0.98051
  -5   1  -116145.91 1833.24   1 0.07249-0.45185 0.43502-0.33882-0.89749 0.82524
   5  -1   116864.68  416.90   1 0.38683-0.00796 0.88774-0.98414 0.24953-0.17720
   5  -1   273571.00 1581.32   1 0.53980-0.18098-0.07817-0.03809-0.83815 0.98274
  -5   1  -275308.76 1617.90   1 0.23826-0.59722 0.28299-0.16687-0.92905 0.78452
   5  -1   276885.29 1548.78   1 0.39728-0.03878 0.87336-0.98979 0.28177-0.13710
   5  -1   3 4479.79  428.55   1 0.63834-0.30003-0.24031 0.10398-0.73127 0.94824
  -5   1  -3 4573.33  594.23   1 0.37541-0.71402 0.13535 0.00064-0.91691 0.70012
   5  -1   3 4779.18  601.66   1 0.40824-0.07011 0.85604-0.99250 0.31706-0.10005
   5  -1   4 1109.00  123.43   1 0.70001-0.38216-0.37285 0.21654-0.60906 0.89836
  -5   1  -4 1168.11  182.81   1 0.47588-0.79404 0.01089 0.14528-0.87943 0.59024
   5  -1   4  956.81  134.43   1 0.41895-0.10117 0.83623-0.99277 0.35383-0.06453
   5  -1   5137656.9 2711.99   1 0.73260-0.43544-0.47501 0.29871-0.48749 0.84920
  -5   1  -5135110.4 2759.90   1 0.54366-0.84148-0.08386 0.25999-0.83510 0.47361
   5  -1   5135934.1 2788.14   1 0.42926-0.13185 0.81425-0.99083 0.39080-0.02918
   5  -1   6155058.5 3669.83   1 0.74503-0.46824-0.55169 0.35540-0.37490 0.80896
  -5   1  -6146563.7 3485.46   1 0.58781-0.86503-0.15254 0.34887-0.79448 0.36054
   5  -1   6155555.0 3639.15   1 0.43892-0.16188 0.79015-0.98679 0.42778 0.00615
   5  -1   7  868.69   90.38   1 0.74463-0.48834-0.60922 0.39297-0.27268 0.77915
  -5   1  -7 1057.90  148.43   1 0.61578-0.87264-0.19957 0.41590-0.76222 0.25596
   5  -1   7  909.90  110.57   1 0.44783-0.19115 0.76398-0.98067 0.46450 0.04176
   5  -1   851964.50 3824.68   1 0.73589-0.49999-0.65257 0.41632-0.18056 0.75938
  -5   1  -848815.33 1799.41   1 0.63312-0.86962-0.23063 0.46696-0.73889 0.16030
   5  -1   851435.22 1831.29   1 0.45591-0.21960 0.73575-0.97248 0.50080 0.07778
   5  -1   914241.59  983.51   1 0.72163-0.50612-0.68546 0.42922-0.09689 0.74806
  -5   1  -915305.35 1742.54   1 0.64330-0.85944-0.24968 0.50601-0.72374 0.07284
   5  -1   913514.29 1847.35   1 0.46291-0.24703 0.70551-0.96225 0.53662 0.11414
   5  -1  10  207.41   78.14   1 0.70357-0.50860-0.71034 0.43404-0.01997 0.74359
  -5   1 -10  259.54   85.12   1 0.64845-0.84423-0.25959 0.53592-0.71561-0.00760
   5  -1  10  180.33   57.04   1 0.46915-0.27365 0.67305-0.94984 0.57173 0.15133
   5  -1  11  283.26  128.34   1 0.68247-0.50791-0.72911 0.43282 0.05119 0.74477
  -5   1 -11  169.97   57.72   1 0.64988-0.82528-0.26235 0.55869-0.71331-0.08223
   5  -1  11  234.51   60.96   1 0.47440-0.29927 0.63838-0.93521 0.60614 0.18923
   5   0  -9 8279.52 1218.70   1 0.72999-0.14294-0.66859 0.84853-0.14170-0.50946
   5   0  -9 7653.09 1802.69   1-0.27930 0.86923 0.67281-0.49312-0.68506 0.03551
   5   0  -813938.03 1319.67   1 0.71753-0.15088-0.69217 0.85211-0.07768-0.50113
   5   0  -811947.54 2223.78   1-0.28178 0.85107 0.67407-0.51435-0.68279 0.10542
   5   0  -813553.08  456.58   1 0.26575 0.30102 0.96202-0.80185-0.06232-0.51615
  -5   0   815071.90  534.43   1 0.37437-0.94148-0.15133-0.00842 0.91484-0.33694
   5   0  -7149658.912929.38   1 0.70053-0.15410-0.71356 0.85355-0.00882-0.49769
   5   0  -7144419.2 4337.56   1-0.27824 0.82688 0.67226-0.53250-0.68603 0.18082
   5   0  -7142708.6 3869.20   1 0.30210 0.24429 0.95300-0.81285 0.02258-0.52875
  -5   0   7152211.213004.58   1 0.36553-0.91221-0.17831 0.03853 0.91355-0.40789
   5   0  -611100.50 1120.75   1 0.67753-0.15150-0.73251 0.85250 0.06610-0.50027
   5   0  -611734.56 1524.36   1-0.26696 0.79496 0.66641-0.54662-0.69614 0.26311
   5   0  -611665.42  359.97   1 0.34018 0.18573 0.93288-0.81267 0.11830-0.55232
  -5   0   612246.50  406.60   1 0.34614-0.87258-0.23491 0.11534 0.90829-0.47464
   5   0  -561476.00 5785.31   1 0.64672-0.14111-0.74801 0.84800 0.14904-0.51084
   5   0  -565747.42 1915.31   1-0.24542 0.75277 0.65485-0.55502-0.71479 0.35393
   5   0  -565201.03 1504.41   1 0.38117 0.12437 0.89476-0.79459 0.23259-0.59426
  -5   0   570257.04 1653.98   1 0.31009-0.81602-0.32843 0.22879 0.89217-0.53080
   5   0  -455955.61 4668.02   1 0.60515-0.11980-0.75833 0.83835 0.24230-0.53180
   5   0  -455679.54 1585.48   1-0.20977 0.69648 0.63465-0.55479-0.74377 0.45508
  -5   0   457526.64 1286.78   1 0.24656-0.73210-0.46964 0.38969 0.84772-0.55871
   5   0  -3 5392.25  713.87   1 0.54804-0.08311-0.76025 0.82026 0.34879-0.56590
   5   0  -3 6672.30  741.72   1-0.15455 0.62003 0.60263-0.54307-0.78290 0.56623
   5   0  -3 5961.03  511.89   1 0.47010-0.00528 0.66740-0.60727 0.57755-0.79447
  -5   0   3 5944.10  207.76   1 0.14493-0.60991-0.64910 0.58914 0.74675-0.53000
   5   0  -2227165.9 3655.29   1 0.46814-0.02379-0.74766 0.78763 0.47099-0.61568
   5   0  -2221341.4 3561.15   1-0.07179 0.51683 0.54682-0.50712-0.83416 0.68971
   5   0  -2208477.2 2928.31   1 0.47781-0.03327 0.35068-0.31058 0.80543-0.94996
   5   0  -1463720.8 6680.25   1 0.04621 0.37820 0.45679-0.43693-0.88837 0.81611
  -5   0   1485545.7 6976.62   1-0.35582-0.06895 0.70855-0.72852-0.60937 0.68154
   5   0  -1465557.4 6340.58   1 0.38075 0.04336-0.13117 0.15114 0.91532-0.98756
   5   0   017400.99 1874.61   1 0.20203 0.20203 0.31840-0.31840-0.92617 0.92617
  -5   0   016611.55 1987.90   1-0.20207-0.20207 0.63012-0.63012-0.74974 0.74974
   5   0   018106.16  382.69   1 0.20166 0.20166-0.55490 0.55490 0.80709-0.80709
   5   0   1111991.9 2143.19   1 0.37854 0.00509 0.13172-0.15160-0.91616 0.98842
  -5   0  -1110226.2 2125.71   1-0.01039-0.37332 0.50141-0.48156-0.86514 0.79291
   5   0   2248277.2 4325.59   1 0.53835-0.17516-0.07604 0.03612-0.83928 0.98387
  -5   0  -2250730.9 4376.97   1 0.19120-0.55453 0.32876-0.28904-0.92485 0.78034
   5   0   2249280.9 4291.93   1 0.30536 0.05766 0.95174-0.99179 0.03049 0.11412
   5   0   3 8595.71  789.86   1 0.65032-0.30758-0.26321 0.20321-0.71260 0.92956
  -5   0  -3 7926.76 1061.26   1 0.36244-0.70537 0.15030-0.09066-0.91980 0.70300
   5   0   3 8624.11  745.29   1 0.33797 0.00463 0.93440-0.99451 0.11249 0.10450
   5   0   4219021.7 3441.94   1 0.71260-0.39030-0.40723 0.32724-0.57126 0.86056
  -5   0  -4221724.2 3480.28   1 0.48392-0.80644 0.00019 0.07963-0.87511 0.58591
   5   0   4223715.2 3509.84   1 0.36393-0.04169 0.91330-0.99343 0.18285 0.10648
   5   0   5122908.6 2408.86   1 0.73992-0.43827-0.51074 0.41076-0.43777 0.79949
  -5   0  -5119238.7 2341.73   1 0.56130-0.86331-0.11072 0.21073-0.82016 0.45855
   5   0   5124278.9 2439.16   1 0.38544-0.08357 0.88951-0.98968 0.24534 0.11632
   5   0   610074.05  739.36   1 0.74606-0.46479-0.58388 0.46389-0.32010 0.75416
  -5   0  -610669.27 1374.19   1 0.60831-0.88996-0.18668 0.30668-0.77142 0.33749
   5   0   6 9690.64 1150.53   1 0.40371-0.12221 0.86351-0.98372 0.30226 0.13174
   5   0   778158.50 2060.24   1 0.74027-0.47949-0.63622 0.49627-0.21727 0.72373
  -5   0  -774208.17 1961.13   1 0.63652-0.89781-0.23692 0.37693-0.73396 0.22770
   5   0   775919.42 1985.80   1 0.41934-0.15821 0.83545-0.97577 0.35519 0.15107
   5   0   834581.40 2656.32   1 0.72744-0.48704-0.67431 0.51436-0.12701 0.70584
  -5   0  -833931.60 3703.08   1 0.65316-0.89408-0.26880 0.42881-0.70789 0.12931
   5   0   832088.58 3490.59   1 0.43296-0.19220 0.80545-0.96582 0.40469 0.17389
   5   0   9 4323.43  285.47   1 0.71033-0.49047-0.70233 0.52235-0.04630 0.69755
  -5   0  -9 4253.84  633.14   1 0.66257-0.88301-0.28759 0.46758-0.69158 0.04066
   5   0   9 3980.56  499.87   1 0.44477-0.22438 0.77347-0.95389 0.45156 0.19935
   5   0  10 4534.95  321.12   1 0.69015-0.49070-0.72316 0.52318 0.02683 0.69677
  -5   0 -10 4657.71  628.89   1 0.66695-0.86702-0.29669 0.49667-0.68347-0.03976
   5   0  10 4388.45  536.22   1 0.45493-0.25490 0.73947-0.93993 0.49620 0.22703
   5   0  1174119.64 5897.41   1 0.66771-0.48867-0.73842 0.51844 0.09425 0.70171
  -5   0 -1173320.03 2832.62   1 0.66781-0.84750-0.29848 0.51846-0.68186-0.11370
   5   0  1173420.53 2741.84   1 0.46334-0.28375 0.70347-0.92396 0.53891 0.25646
   5   0  12 1400.74  201.11   1 0.64338-0.48475-0.74922 0.50924 0.15722 0.71111
  -5   0 -12 1498.25  220.45   1 0.66591-0.82523-0.29451 0.53449-0.68542-0.18246
   5   0  12 1540.31  215.72   1 0.47047-0.31125 0.66515-0.90568 0.57984 0.28784
   5   1  -9 1338.42  199.95   1 0.74069-0.14915-0.63430 0.89054-0.22141-0.42975
   5   1  -9 1214.20  266.38   1-0.30794 0.90235 0.68699-0.43090-0.65818 0.00863
   5   1  -8 5366.17  590.33   1 0.73362-0.16247-0.65931 0.89555-0.16460-0.41421
   5   1  -8 5071.10  851.76   1-0.31417 0.88794 0.68996-0.45382-0.65210 0.07473
   5   1  -8 4210.42  823.92   1 0.32918 0.24193 0.93999-0.70335 0.08972-0.66840
  -5  -1   8 3472.13 1205.18   1 0.36793-0.93958-0.17109-0.06507 0.91397-0.33607
   5   1  -7  176.84   48.77   1 0.72309-0.17232-0.68286 0.89911-0.10410-0.40236
   5   1  -7   84.85   63.76   1-0.31508 0.86821 0.69039-0.47422-0.65121 0.14601
   5   1  -7  148.63   36.44   1 0.36610 0.18465 0.91118-0.69458 0.18896-0.69531
  -5  -1   7  146.30   41.89   1 0.36175-0.91297-0.18953-0.02665 0.91280-0.40714
   5   1  -6113504.5 7431.00   1 0.70841-0.17791-0.70473 0.90104-0.03860-0.39556
   5   1  -6118979.2 2028.15   1-0.30916 0.84165 0.68758-0.49138-0.65699 0.22396
   5   1  -6120046.8 1320.55   1 0.40245 0.12792 0.86549-0.66892 0.29822-0.73223
   5   1  -5107683.0 2463.84   1 0.68810-0.17801-0.72483 0.90114 0.03348-0.39529
   5   1  -5110347.3 2501.46   1-0.29409 0.80594 0.68025-0.50401-0.67138 0.31052
   5   1  -5107522.7 2048.93   1 0.43723 0.07275 0.79464-0.61806 0.42113-0.78275
   5   1  -4 3035.58  284.89   1 0.66013-0.17045-0.74232 0.89862 0.11480-0.40424
   5   1  -4 3274.20  333.17   1-0.26614 0.75735 0.66598-0.50971-0.69687 0.40818
   5   1  -4 3270.72  272.11   1 0.46713 0.02252 0.68442-0.52789 0.55978-0.84901
  -5  -1   4 2343.03  594.44   1 0.28543-0.77541-0.38629 0.23017 0.87709-0.58800
   5   1  -3 2381.20  247.84   1 0.62084-0.15146-0.75554 0.89187 0.20904-0.42616
   5   1  -3 2726.20  297.17   1-0.21936 0.68992 0.64021-0.50390-0.73620 0.51969
   5   1  -3 2701.11  318.26   1 0.48327-0.01383 0.51265-0.37611 0.70966-0.92646
  -5  -1   3 2109.78  453.73   1 0.22653-0.69610-0.50895 0.37258 0.83044-0.61369
   5   1  -2 4225.90  406.88   1 0.56368-0.11472-0.76082 0.87715 0.32155-0.46630
   5   1  -2 4329.46  461.81   1-0.14485 0.59426 0.59641-0.48037-0.78949 0.64504
   5   1  -2 4655.73  526.01   1 0.46773-0.01867 0.25869-0.14225 0.84516-0.98965
  -5  -1   2 4338.72  622.29   1 0.14570-0.59472-0.64792 0.53154 0.74763-0.60313
   5   1  -149012.21 1029.15   1 0.47710-0.04867-0.74976 0.84606 0.45850-0.53085
   5   1  -148697.32 1017.41   1-0.02837 0.45735 0.51506-0.41887-0.85667 0.78445
   5   1  -149381.86  858.75   1 0.40012 0.02853-0.06597 0.16235 0.91408-0.98631
   5   1   0181286.2 2806.92   1 0.14121 0.26718 0.37511-0.29877-0.91615 0.91615
  -5  -1   0183630.2 2843.85   1-0.34292-0.06570 0.70302-0.77943-0.62302 0.62302
   5   1   0183593.7 2767.22   1 0.28406 0.12389-0.38938 0.46579 0.87617-0.87617
   5   1   1228862.3 3946.41   1 0.35306 0.03490 0.16098-0.10450-0.92164 0.99391
  -5  -1  -1233720.5 4032.55   1-0.14472-0.24336 0.59633-0.65281-0.78958 0.71735
   5   1   1236601.5 4113.13   1 0.15527 0.23210-0.63297 0.68940 0.75843-0.68618
   5   1   228441.06  565.90   1 0.54990-0.18237-0.09345 0.12978-0.82998 0.97462
  -5  -1  -224448.07  510.18   1 0.10124-0.46890 0.41048-0.44711-0.90622 0.76172
   5   1   320112.10 1691.04   1 0.67447-0.32734-0.31275 0.32907-0.66877 0.88575
  -5  -1  -321216.66  498.79   1 0.32707-0.67433 0.18995-0.20667-0.92570 0.70891
   5   1   431089.83  743.55   1 0.73011-0.40359-0.46488 0.46120-0.50081 0.79018
  -5  -1  -431929.03  755.00   1 0.48316-0.81006 0.00120 0.00226-0.87552 0.58633
   5   1   433412.08 1917.67   1 0.29578 0.03099 0.95522-0.95895 0.00738 0.28185
   5   1   541624.51  964.89   1 0.74571-0.43956-0.56268 0.53901-0.35678 0.71849
  -5  -1  -540549.07  999.69   1 0.57504-0.88148-0.13209 0.15577-0.80738 0.44577
   5   1   541925.95 1014.03   1 0.33054-0.02420 0.93917-0.96298 0.09321 0.26846
   5   1   6222685.0 3982.89   1 0.74224-0.45657-0.62636 0.58271-0.23818 0.67229
  -5  -1  -6208607.4 3742.53   1 0.62633-0.91242-0.21828 0.26196-0.74836 0.31442
   5   1   6225424.6 4059.29   1 0.35914-0.07317 0.91775-0.96160 0.16950 0.26450
   5   1   776408.16 1983.76   1 0.72964-0.46435-0.66942 0.60578-0.13959 0.64606
  -5  -1  -774228.72 1917.84   1 0.65495-0.92066-0.27235 0.33603-0.70488 0.19862
   5   1   775752.03 1961.24   1 0.38314-0.11754 0.89237-0.95625 0.23846 0.26788
   5   1   816475.99 1215.93   1 0.71237-0.46748-0.69962 0.61598-0.05523 0.63405
  -5  -1  -816013.53 1885.31   1 0.67092-0.91618-0.30508 0.38876-0.67585 0.09726
   5   1   814867.14 1673.41   1 0.40352-0.15828 0.86381-0.94773 0.30164 0.27703
   5   1   928146.77 1560.13   1 0.69247-0.46813-0.72118 0.61751 0.01917 0.63207
  -5  -1  -927759.66 3358.35   1 0.67929-0.90419-0.32338 0.42705-0.65877 0.00785
   5   1   926976.94 3260.84   1 0.42081-0.19596 0.83251-0.93656 0.36033 0.29057
   5   1  10 2226.27  272.89   1 0.67058-0.46666-0.73680 0.61313 0.08619 0.63741
  -5  -1 -10 2126.03  260.26   1 0.68291-0.88743-0.33154 0.45521-0.65092-0.07231
   5   1  10 2057.59  269.23   1 0.43567-0.23119 0.79870-0.92280 0.41504 0.30818
   5   1  11 2854.14  251.97   1 0.64718-0.46367-0.74784 0.60417 0.14791 0.64806
  -5  -1 -11 2550.39  417.84   1 0.68323-0.86738-0.33227 0.47594-0.65022-0.14534
   5   1  11 2875.41  394.52   1 0.44830-0.26419 0.76246-0.90661 0.46654 0.32901
   5   1  12 7105.20  696.97   1 0.62236-0.45923-0.75521 0.59149 0.20572 0.66274
  -5  -1 -12 6357.75 1007.29   1 0.68102-0.84480-0.32726 0.49092-0.65506-0.21283
   5   1  12 6943.73  796.56   1 0.45892-0.29517 0.72379-0.88799 0.51527 0.35261
   5   2  -8  229.81   62.51   1 0.74351-0.16785-0.61839 0.93094-0.25451-0.32430
   5   2  -8  217.40   49.46   1-0.34141 0.91967 0.70236-0.38982-0.62459 0.04721
   5   2  -8  242.20   53.15   1 0.36935 0.20623 0.90790-0.59489 0.19820-0.77689
  -5  -2   8  132.34   34.04   1 0.35916-0.93535-0.19710-0.11546 0.91222-0.33432
   5   2  -736372.19 4612.84   1 0.73875-0.18349-0.64256 0.93512-0.20335-0.30311
   5   2  -741317.77 1489.80   1-0.34640 0.90402 0.70453-0.41195-0.61938 0.11417
   5   2  -738067.81 3124.05   1 0.40295 0.15226 0.86471-0.57173 0.29983-0.80618
  -5  -2   742463.96 1296.59   1 0.35466-0.91070-0.21097-0.08134 0.91087-0.40495
   5   2  -617211.78 1702.15   1 0.73122-0.19635-0.66563 0.93820-0.14912-0.28499
   5   2  -617925.75 2349.81   1-0.34546 0.88243 0.70413-0.43151-0.62036 0.18733
   5   2  -617140.04 1559.09   1 0.43375 0.10106 0.80353-0.53054 0.40767-0.84161
  -5  -2   616568.71 2528.42   1 0.34436-0.87990-0.23983-0.03255 0.90768-0.47404
   5   2  -5  121.59   27.07   1 0.72032-0.20584-0.68769 0.94026-0.09059-0.27116
   5   2  -5  117.11   45.42   1-0.33657 0.85290 0.70022-0.44757-0.62960 0.26874
   5   2  -5  102.99   25.02   1 0.46025 0.05418 0.71816-0.46522 0.52191-0.88353
  -5  -2   5   87.33   42.11   1 0.32648-0.84152-0.28735 0.03488 0.90046-0.53909
   5   2  -413445.58 1357.91   1 0.70509-0.21094-0.70864 0.94125-0.02573-0.26370
   5   2  -415240.54 1636.44   1-0.31636 0.81205 0.69099-0.45831-0.64995 0.36126
   5   2  -414715.44 1280.78   1 0.47866 0.01545 0.60033-0.36745 0.64068-0.92991
  -5  -2   412112.64  502.93   1 0.29859-0.79313-0.35596 0.12342 0.88551-0.59641
   5   2  -316524.20 1199.25   1 0.68339-0.20965-0.72844 0.94106 0.04833-0.26542
   5   2  -317779.65 1817.60   1-0.27906 0.75411 0.67268-0.45996-0.68528 0.46876
   5   2  -317128.94  750.53   1 0.48289-0.00895 0.44020-0.22727 0.75698-0.97378
  -5  -2   316997.07  518.85   1 0.25775-0.73191-0.44672 0.23394 0.85673-0.63997
   5   2  -2 2429.47  280.64   1 0.65150-0.19816-0.74615 0.93876 0.13713-0.28185
   5   2  -2 2921.85  324.82   1-0.21445 0.66886 0.63738-0.44462-0.74010 0.59575
   5   2  -2 2912.85  302.71   1 0.46414-0.01056 0.23265-0.03981 0.85465-0.99915
  -5  -2   2 2884.10  414.53   1 0.20201-0.65562-0.55427 0.36148 0.80744-0.66293
   5   2  -161462.87 1206.12   1-0.10585 0.53919 0.57055-0.39802-0.81441 0.74218
   5   2  -163630.72 1110.43   1 0.41427 0.01892-0.01364 0.18643 0.91004-0.98228
  -5  -2   164842.99 1207.00   1 0.13191-0.56497-0.66880 0.49599 0.73163-0.65938
   5   2   049809.67  933.08   1 0.51450-0.10192-0.75677 0.90941 0.40320-0.40320
   5   2   050522.67  926.90   1 0.07421 0.33851 0.43357-0.28089-0.89805 0.89805
   5   2   050230.27  971.42   1 0.33387 0.07864-0.26807 0.42089 0.90369-0.90369
   5   2   120596.08  480.30   1 0.33386 0.05842 0.18246-0.04963-0.92479 0.99705
  -5  -2  -121369.08  505.35   1-0.35178-0.04068 0.70684-0.83970-0.61368 0.54151
   5   2   121779.94  601.99   1 0.23644 0.15551-0.48977 0.62261 0.83917-0.76691
   5   2   257743.12  924.93   1 0.58617-0.21421-0.14988 0.26253-0.79619 0.94084
  -5  -2  -255186.67  905.04   1-0.07456-0.29746 0.54879-0.66175-0.83262 0.68818
   5   2   260571.14 1194.57   1 0.14112 0.23028-0.65495 0.76779 0.74237-0.59787
   5   2   342827.72  777.32   1 0.71355-0.36197-0.41000 0.50263-0.56809 0.78506
   5   2   4  259.56   59.27   1 0.74524-0.41423-0.55462 0.62725-0.37014 0.65951
  -5  -2  -4  256.80   46.80   1 0.46685-0.79812 0.02279-0.09568-0.88404 0.59484
   5   2   5 5504.58  657.08   1 0.74117-0.43060-0.63202 0.68466-0.22629 0.58805
  -5  -2  -5 6260.98  298.25   1 0.58365-0.89453-0.14582 0.09316-0.79879 0.43718
   5   2   5 7180.89  764.86   1 0.26965 0.04124 0.96147-0.90886-0.05348 0.41504
   5   2   6 3574.21  255.27   1 0.72597-0.43580-0.67733 0.70998-0.11905 0.55317
  -5  -2  -6 3676.23  638.55   1 0.64156-0.93207-0.24638 0.21373-0.72641 0.29248
   5   2   6 3443.39  433.51   1 0.30827-0.01775 0.95055-0.91797 0.03761 0.39624
   5   2   720176.11 1949.94   1 0.70715-0.43751-0.70626 0.71889-0.03362 0.54015
  -5  -2  -717587.92 2400.50   1 0.67100-0.94109-0.30525 0.29262-0.67570 0.16942
   5   2   715398.32 1877.93   1 0.34100-0.07093 0.93230-0.91982 0.12048 0.38586
   5   2   849490.87 3524.49   1 0.68659-0.43737-0.72602 0.71866 0.03830 0.54058
   5   2   853645.38 1612.78   1 0.36860-0.11889 0.90867-0.91622 0.19606 0.38261
   5   2   9  389.24   66.47   1 0.66502-0.43621-0.73987 0.71250 0.10165 0.54959
  -5  -2  -9  371.75   75.67   1 0.69359-0.92294-0.35675 0.38411-0.62582-0.02509
   5   2   9  362.68   70.87   1 0.39211-0.16278 0.88071-0.90830 0.26567 0.38534
   5   2  1027313.59 1815.89   1 0.64254-0.43414-0.74951 0.70215 0.15925 0.56435
  -5  -2 -1026033.38 3644.60   1 0.69648-0.90546-0.36391 0.41127-0.61843-0.10480
   5   2  1025803.47 3468.25   1 0.41209-0.20316 0.84913-0.89687 0.33038 0.39285
   5   2  11 -164.61  116.92   1 0.61907-0.43107-0.75592 0.68853 0.21291 0.58318
  -5  -2 -11   39.38   55.76   1 0.69633-0.88493-0.36352 0.43088-0.61884-0.17671
   5   2  11  175.96   84.68   1 0.42922-0.24065 0.81433-0.88212 0.39067 0.40488
   5   2  12  323.14  109.39   1 0.59456-0.42698-0.75959 0.67220 0.26363 0.60483
  -5  -2 -12  271.30   71.72   1 0.69387-0.86210-0.35743 0.44479-0.62512-0.24276
   5   2  12  316.86   58.94   1 0.44374-0.27554 0.77655-0.86438 0.44728 0.42060
   5   3  -854834.02 1620.40   1 0.74596-0.16595-0.56928 0.95818-0.34563-0.23311
   5   3  -853578.08 1582.87   1-0.36343 0.94618 0.71171-0.32275-0.60115 0.02377
   5   3  -855515.35 1213.44   1 0.39504 0.18501 0.87660-0.48724 0.27476-0.85344
  -5  -3   854324.39 1352.80   1 0.34873-0.92982-0.22773-0.16092 0.90913-0.33093
   5   3  -758379.32 2317.10   1 0.74580-0.18617-0.59259 0.96150-0.30429-0.20210
   5   3  -758331.63 2313.40   1-0.37205 0.93416 0.71519-0.34620-0.59166 0.08645
   5   3  -753409.78 3997.96   1 0.42460 0.13503 0.82460-0.45520 0.37382-0.88008
  -5  -3   759608.19 2210.55   1 0.34544-0.90603-0.23686-0.13186 0.90805-0.40213
   5   3  -6   70.75   35.84   1 0.74400-0.20463-0.61470 0.96356-0.26190-0.17221
   5   3  -6  139.71   37.74   1-0.37557 0.91703 0.71659-0.36756-0.58774 0.15471
   5   3  -6  128.82   30.58   1 0.45033 0.08893 0.75576-0.40641 0.47540-0.90934
  -5  -3   6  148.65   33.41   1 0.33725-0.87734-0.25910-0.08969 0.90505-0.47141
   5   3  -5 1722.02  246.22   1 0.74039-0.22141-0.63570 0.96458-0.21838-0.14337
   5   3  -5 1717.06  215.71   1-0.37230 0.89312 0.71529-0.38623-0.59138 0.23052
   5   3  -5 1623.14  150.10   1 0.47029 0.04866 0.66626-0.33699 0.57871-0.94024
  -5  -3   5 2197.34  485.99   1 0.32305-0.84264-0.29614-0.03272 0.89885-0.53748
   5   3  -4  690.17   82.46   1 0.73484-0.23625-0.65580 0.96468-0.17297-0.11643
   5   3  -4  902.51  121.16   1-0.35937 0.85956 0.71003-0.40094-0.60555 0.31686
   5   3  -4  866.00   79.37   1 0.48217 0.01640 0.55124-0.24201 0.68090-0.97013
  -5  -3   4  739.17  124.31   1 0.30134-0.80042-0.34948 0.04054 0.88715-0.59806
   5   3  -3 4459.89  452.30   1 0.72699-0.24880-0.67524 0.96412-0.12458-0.09247
   5   3  -3 4903.63  632.08   1-0.33160 0.81114 0.69800-0.40887-0.63468 0.41817
   5   3  -3 4847.88  487.09   1 0.48156-0.00311 0.40682-0.11751 0.77626-0.99306
  -5  -3   3 4141.50  652.85   1 0.27033-0.74891-0.41967 0.13065 0.86648-0.64966
   5   3  -2 3342.93  480.95   1 0.71608-0.25828-0.69437 0.96326-0.07118-0.07352
   5   3  -2 3870.87  494.93   1-0.27903 0.73792 0.67267-0.40350-0.68531 0.54097
   5   3  -2 3441.93  368.77   1 0.46408-0.00599 0.23223 0.03699 0.85480-0.99929
  -5  -3   2 3759.78  472.38   1 0.22840-0.68659-0.50538 0.23617 0.83211-0.68761
   5   3  -116885.26 1671.75   1 0.70036-0.26296-0.71374 0.96267-0.00820-0.06415
   5   3  -114300.14  475.27   1-0.18129 0.61955 0.61760-0.36840-0.76530 0.69313
   5   3  -115356.66 1501.67   1 0.42594 0.01179 0.03340 0.21578 0.90413-0.97636
  -5  -3   115553.71 2041.57   1 0.17512-0.61276-0.60072 0.35150 0.78003-0.70778
   5   3   0 4108.74  470.41   1 0.67454-0.25755-0.73442 0.96335 0.07486-0.07486
   5   3   0 3097.15  467.97   1 0.00120 0.41607 0.49246-0.26345-0.87032 0.87032
   5   3   0 3627.88  448.41   1 0.36705 0.05026-0.17374 0.40297 0.91382-0.91382
  -5  -3   0 3780.68  434.88   1 0.11193-0.52902-0.69773 0.46850 0.70755-0.70755
   5   3   153042.23  836.99   1 0.61947-0.22285-0.75583 0.96479 0.21203-0.13966
   5   3   152279.63  824.85   1 0.33037 0.06624 0.18632 0.02286-0.92527 0.99754
   5   3   152343.55 1111.87   1 0.29347 0.10308-0.36791 0.57721 0.88233-0.81005
   5   3   229679.15  493.90   1 0.43888-0.06271-0.73978 0.92877 0.50999-0.36530
   5   3   228452.14  464.47   1 0.67871-0.30230-0.32209 0.51103-0.65999 0.80464
   5   3   228638.18  782.62   1 0.21517 0.16081-0.53031 0.71958 0.82003-0.67553
   5   3   340876.53  656.15   1 0.74535-0.38950-0.60122 0.77015-0.28805 0.50511
  -5  -3  -336944.85  600.72   1 0.02786-0.38382 0.47143-0.64088-0.88145 0.66478
   5   3   342102.37 1030.34   1 0.14202 0.21342-0.65357 0.82284 0.74341-0.52666
   5   3   478344.43 1314.07   1 0.72482-0.38936-0.67961 0.82855-0.11294 0.40235
  -5  -3  -481159.41 1331.03   1 0.41552-0.75116 0.08759-0.23683-0.90535 0.61616
   5   3   5 9720.76  864.53   1 0.70290-0.38796-0.71107 0.84001-0.01748 0.37928
  -5  -3  -5 9869.69  337.85   1 0.58413-0.89943-0.14658 0.01760-0.79831 0.43669
   5   3   620616.70 1700.78   1 0.68272-0.38820-0.72893 0.83787 0.05041 0.38375
  -5  -3  -622766.88  596.54   1 0.65347-0.94841-0.26941 0.16043-0.70738 0.27344
   5   3   718953.26 1930.26   1 0.66328-0.38917-0.74076 0.82971 0.10637 0.40015
  -5  -3  -718904.36  621.84   1 0.68436-0.95891-0.33487 0.24592-0.64768 0.14141
   5   3   719011.53 2220.81   1 0.29569-0.02104 0.95525-0.86634 0.00716 0.49900
   5   3   821751.34 1417.46   1 0.64379-0.39009-0.74908 0.81802 0.15620 0.42268
  -5  -3  -820722.85 2612.81   1 0.69886-0.95304-0.36991 0.30096-0.61216 0.03357
   5   3   819843.52 2144.01   1 0.33026-0.07608 0.93934-0.87053 0.09249 0.48619
   5   3   981187.71 5200.64   1 0.62377-0.39049-0.75488 0.80382 0.20259 0.44875
  -5  -3  -982520.28 1562.73   1 0.70548-0.93928-0.38726 0.33831-0.59356-0.05734
   5   3  1058062.83 3630.99   1 0.60299-0.39012-0.75863 0.78756 0.24671 0.47701
   5   3  11 9133.24  660.63   1 0.58122-0.38877-0.76054 0.76947 0.28938 0.50671
  -5  -3 -11 9239.02 1001.28   1 0.70718-0.90024-0.39191 0.38296-0.58846-0.20710
   5   3  11 9756.22 1064.78   1 0.40705-0.21398 0.85804-0.84933 0.31315 0.48253
   5   3  12  967.34  138.65   1 0.55831-0.38627-0.76071 0.74964 0.33105 0.53742
  -5  -3 -12 1086.96  184.00   1 0.70455-0.87724-0.38477 0.39581-0.59627-0.27161
   5   3  12 1104.67  201.58   1 0.42559-0.25294 0.82245-0.83393 0.37740 0.49048
   5   4  -7 6119.85 1138.33   1 0.74320-0.17908-0.53327 0.97849-0.40404-0.10235
   5   4  -7 7034.32 1074.43   1-0.39201 0.95861 0.72287-0.27747-0.56901 0.06380
   5   4  -7 7388.87  535.10   1 0.43764 0.12645 0.79358-0.34782 0.42272-0.92899
  -5  -4   7 5736.39 1109.64   1 0.33459-0.89973-0.26619-0.17894 0.90398-0.39806
   5   4  -640167.61 1426.50   1 0.74508-0.20133-0.55243 0.97766-0.37370-0.06035
   5   4  -636052.98 4281.68   1-0.39940 0.94535 0.72557-0.30013-0.56037 0.12733
   5   4  -638646.44 3030.46   1 0.45935 0.08436 0.72198-0.29627 0.51742-0.95136
  -5  -4   637196.65 1295.57   1 0.32794-0.87258-0.28359-0.14162 0.90112-0.46748
   5   4  -5  207.21   44.36   1 0.74597-0.22259-0.56954 0.97477-0.34517-0.01654
   5   4  -5  164.09   41.60   1-0.40103 0.92634 0.72616-0.32068-0.55844 0.19758
   5   4  -5  193.17   35.54   1 0.47506 0.04835 0.63322-0.22759 0.61101-0.97255
  -5  -4   5  197.98   46.53   1 0.31626-0.84039-0.31323-0.09204 0.89546-0.53409
   5   4  -417714.09 1536.42   1 0.74605-0.24306-0.58432 0.96954-0.31931 0.02994
   5   4  -419065.33 1757.43   1-0.39456 0.89923 0.72381-0.33830-0.56604 0.27735
   5   4  -419912.59 1574.07   1 0.48323 0.01980 0.52467-0.13909 0.70085-0.99008
  -5  -4   416265.19 2418.94   1 0.29853-0.80217-0.35610-0.02924 0.88547-0.59637
   5   4  -3   73.06   22.21   1 0.74563-0.26300-0.59618 0.96141-0.29764 0.08061
   5   4  -3  132.02   30.17   1-0.37560 0.85963 0.71660-0.35106-0.58770 0.37118
   5   4  -3  103.37   39.37   1 0.48092 0.00202 0.39494-0.02924 0.78277-0.99957
  -5  -4   3   85.44   39.98   1 0.27359-0.75672-0.41259 0.04717 0.86885-0.65203
   5   4  -277276.10 1845.26   1 0.74513-0.28283-0.60397 0.94917-0.28282 0.13812
   5   4  -282382.04 1936.03   1-0.33527 0.79866 0.69965-0.35407-0.63093 0.48658
   5   4  -280437.72 1903.59   1 0.46583-0.00324 0.24461 0.10100 0.85038-0.99488
  -5  -4   278697.03 1980.21   1 0.24023-0.70301-0.48230 0.13668 0.84241-0.69791
   5   4  -1  927.15  155.45   1-0.25315 0.69590 0.65906-0.33344-0.70820 0.63602
   5   4  -1  287.01   54.40   1 0.43606 0.00611 0.07779 0.24780 0.89654-0.96879
  -5  -4   1  261.90   45.18   1 0.19789-0.64012-0.56161 0.23598 0.80338-0.73113
   5   4   0137284.1 2323.00   1-0.07758 0.49923 0.55093-0.24558-0.83093 0.83093
   5   4   0140360.4 2626.89   1 0.39137 0.03047-0.09624 0.40188 0.91518-0.91518
  -5  -4   0134135.1 2625.66   1 0.14679-0.56847-0.64623 0.34058 0.74888-0.74888
   5   4   1   63.09    8.60   1 0.73090-0.32978-0.46801 0.75325-0.49673 0.56907
   5   4   1   35.56    7.68   1 0.38532 0.01562 0.12378 0.16176-0.91443 0.98670
   5   4   1   62.80   43.79   1 0.33491 0.06620-0.26533 0.55104 0.90411-0.83184
   5   4   2140873.5 2700.59   1 0.27184 0.10876-0.41640 0.68219 0.86758-0.72303
   5   4   343810.67 1158.76   1 0.20883 0.15119-0.54196 0.78765 0.81403-0.59728
   5   4   4 5633.77  147.00   1 0.48427-0.14441-0.75132 0.97667 0.44831-0.15892
  -5  -4  -4 5493.51  138.93   1 0.22348-0.56342 0.29753-0.52346-0.92818 0.63916
   5   4   4 5687.18  697.87   1 0.15115 0.18832-0.63944 0.86514 0.75382-0.46481
   5   4   549156.66  670.57   1 0.57171-0.25229-0.76082 0.96609 0.30706 0.05480
  -5  -4  -551066.62 1210.61   1 0.56816-0.88789-0.12132-0.08398-0.81392 0.45230
   5   4   621659.80 1830.32   1 0.58587-0.28687-0.76029 0.94555 0.28054 0.15369
  -5  -4  -619051.64  504.63   1 0.66102-0.96039-0.28459 0.09928-0.69430 0.26036
   5   4   7 9206.50  748.91   1 0.58426-0.30568-0.76038 0.92565 0.28362 0.22298
  -5  -4  -7 9070.87  407.02   1 0.69493-0.97394-0.36005 0.19479-0.62243 0.11616
   5   4   8108955.0 2350.72   1 0.57590-0.31774-0.76074 0.90600 0.29934 0.27964
   5   4   8111392.3 2471.26   1 0.29061-0.03184 0.95682-0.81157-0.00489 0.58337
   5   4   9 3110.67  261.58   1 0.56360-0.32585-0.76082 0.88608 0.32170 0.32965
  -5  -4  -9 3107.66  385.88   1 0.71501-0.95327-0.41433 0.28907-0.56310-0.08781
   5   4   9 3089.57  363.50   1 0.32548-0.08709 0.94210-0.81687 0.08059 0.57019
   5   4  1024386.69 1509.85   1 0.54850-0.33117-0.76028 0.86553 0.34801 0.37571
  -5  -4 -1024863.82 2953.09   1 0.71674-0.93463-0.41960 0.31433-0.55696-0.16628
   5   4  1022361.68 2618.89   1 0.35610-0.13819 0.92045-0.81534 0.16111 0.56223
   5   4  1116995.08 1792.55   1 0.53113-0.33422-0.75886 0.84411 0.37685 0.41924
  -5  -4 -1118712.90 2026.64   1 0.71592-0.91343-0.41708 0.33181-0.55991-0.23565
   5   4  1118362.91 1836.49   1 0.38247-0.18493 0.89319-0.80812 0.23646 0.55922
   5   4  12 3812.66  494.97   1 0.51176-0.33526-0.75636 0.82161 0.40744 0.46102
  -5  -4 -12 4010.80  496.57   1 0.71320-0.89034-0.40896 0.34369-0.56929-0.29860
   5   4  12 4195.10  445.06   1 0.40526-0.22809 0.86100-0.79596 0.30730 0.56072
  -5  -5   724721.39 2724.49   1 0.40851-0.97712-0.73008 0.20860 0.54781-0.04138
   5   5  -725628.43 2951.88   1 0.73022-0.16160-0.46530 0.98683-0.50026-0.00613
  -5  -5   6 3369.91  436.54   1 0.41922-0.96744-0.73367 0.23217 0.53476-0.10068
   5   5  -6 3446.67  321.94   1 0.73377-0.18553-0.47999 0.98152-0.48081 0.04675
   5   5  -6 3695.42  363.14   1 0.46406 0.08419 0.70006-0.19804 0.54272-0.97656
  -5  -5   6 2705.29  743.03   1 0.31696-0.86615-0.31148-0.19014 0.89582-0.46218
  -5  -5   569048.39 5096.16   1 0.42504-0.95287-0.73554 0.25403 0.52755-0.16581
   5   5  -565447.65 5535.03   1 0.73617-0.20830-0.49097 0.97250-0.46582 0.10411
   5   5  -569929.39 1339.71   1 0.47727 0.05061 0.61429-0.13231 0.62837-0.98991
  -5  -5   570232.66 1590.21   1 0.30715-0.83584-0.33556-0.14612 0.89053-0.52916
  -5  -5   422685.57 1307.68   1 0.42411-0.93155-0.73525 0.27372 0.52870-0.23932
   5   5  -420426.32 2121.88   1 0.73741-0.22992-0.49707 0.95860-0.45732 0.16795
   5   5  -421369.00 1923.46   1 0.48326 0.02458 0.51313-0.05099 0.70933-0.99839
  -5  -5   422288.78  854.81   1 0.29225-0.80044-0.37073-0.09103 0.88155-0.59246
  -5  -5   3 4913.12  382.10   1 0.41293-0.89998-0.73158 0.29004 0.54246-0.32542
   5   5  -3 4591.75  694.40   1 0.73719-0.25008-0.49600 0.93754-0.45881 0.24178
   5   5  -3 4799.77  448.09   1 0.48098 0.00645 0.39614 0.04594 0.78212-0.99892
  -5  -5   3 4208.28  639.98   1 0.27144-0.75912-0.41726-0.02457 0.86729-0.65047
   5   5  -2 9431.12 1591.07   1 0.73442-0.26768-0.48286 0.90440-0.47693 0.33224
   5   5  -210229.58 1559.46   1-0.38115 0.84903 0.71876-0.29677-0.58145 0.43710
   5   5  -210932.18 1006.65   1 0.46847-0.00136 0.26435 0.15766 0.84299-0.98749
  -5  -5   210118.85 1008.04   1 0.24385-0.71122-0.47509 0.05306 0.84546-0.70096
   5   5  -120749.46 1364.56   1 0.72449-0.27805-0.44483 0.84639-0.52652 0.45419
   5   5  -121697.84  522.11   1-0.31573 0.76296 0.69069-0.28867-0.65057 0.57840
   5   5  -122021.08 1951.79   1 0.44496 0.00172 0.12070 0.28128 0.88737-0.95962
  -5  -5   121551.83 2454.95   1 0.20897-0.65578-0.54172 0.13968 0.81416-0.74191
   5   5   0  104.38   23.50   1 0.68491-0.25884-0.33613 0.71770-0.64645 0.64645
   5   5   0  106.63   54.82   1 0.41027 0.01612-0.02893 0.41097 0.91150-0.91150
  -5  -5   0   52.15   68.80   1 0.16663-0.59289-0.61473 0.23267 0.77093-0.77093
   5   5   1171740.2 3910.90   1 0.36602 0.03994-0.17684 0.53891 0.91364-0.84141
  -5  -5  -1170767.4 3973.60   1 0.11752-0.52323-0.68980 0.32773 0.71439-0.78664
   5   5   296359.50 2433.47   1 0.31558 0.06957-0.31492 0.65712 0.89511-0.75056
   5   5   3 5043.47  508.16   1 0.26270 0.10195-0.43598 0.75825 0.86075-0.64393
   5   5   449831.76 1509.39   1 0.21157 0.13249-0.53696 0.83907 0.81664-0.52763
  -5  -5  -518893.95  335.75   1 0.49634-0.82040-0.01661-0.26537-0.86796 0.50647
  -5  -5  -516782.30  358.70   1-0.20889-0.11448 0.63413-0.91637-0.74446 0.38360
   5   5   518943.04 1927.46   1 0.16526 0.15825-0.61695 0.89907 0.76945-0.40819
  -5  -5  -6 4321.57  310.62   1 0.66175-0.96555-0.28609 0.02446-0.69298 0.25905
  -5  -5  -6 3635.86  620.78   1-0.39708 0.09434 0.72473-0.98700-0.56310 0.13006
   5   5   6 4993.04  550.13   1 0.12560 0.17736-0.67811 0.94025 0.72413-0.29062
   5   5   7109095.9 2585.29   1 0.45272-0.16957-0.74369 0.98540 0.49188 0.01454
   5   5   853762.96 1775.17   1 0.47360-0.21085-0.74896 0.97068 0.46341 0.11535
   5   5   924158.35 1916.95   1 0.47878-0.23642-0.75013 0.95188 0.45612 0.19499
  -5  -5  -925056.11  816.74   1 0.72227-0.96498-0.43726 0.23569-0.53583-0.11508
   5   5   922524.24 2782.10   1 0.29136-0.04848 0.95660-0.75502-0.00311 0.65390
   5   5  1011098.63  955.51   1 0.47529-0.25332-0.74935 0.93111 0.46105 0.26241
  -5  -5 -1011359.26 1587.21   1 0.72365-0.94599-0.44193 0.26035-0.53010-0.19313
   5   5  1010786.20 1181.55   1 0.32596-0.10344 0.94183-0.76027 0.08179 0.64131
   5   5  11 3335.43  467.15   1 0.46619-0.26461-0.74718 0.90896 0.47368 0.32213
  -5  -5 -11 3872.60  501.33   1 0.72266-0.92463-0.43859 0.27701-0.53421-0.26135
   5   5  11 3926.49  422.80   1 0.35666-0.15465 0.91996-0.75852 0.16266 0.63302
   5   5  12  702.14   91.30   1 0.45301-0.27182-0.74377 0.88557 0.49149 0.37666
  -5  -5 -12  584.36  159.64   1 0.71994-0.90154-0.42965 0.28807-0.54504-0.32284
   5   5  12  831.39  116.77   1 0.38332-0.20168 0.89215-0.75075 0.23898 0.62903
  -5  -6   632469.38 4901.44   1 0.43073-0.98341-0.73732 0.15950 0.52040-0.08632
   5   6  -630847.09 3853.82   1 0.46654 0.08617 0.68754-0.10916 0.55643-0.99028
  -5  -6   636824.42 1298.94   1 0.30459-0.85833-0.34172-0.23631 0.88907-0.45542
  -5  -6   532239.41 2535.44   1 0.43991-0.97221-0.74008 0.18225 0.50867-0.14693
   5   6  -527828.98 3944.11   1 0.71087-0.17848-0.40222 0.96008-0.57695 0.21533
   5   6  -531085.09 3202.76   1 0.47813 0.05420 0.60585-0.04753 0.63586-0.99739
  -5  -6   525155.91 1166.14   1 0.29627-0.82950-0.36141-0.19668 0.88408-0.52271
  -5  -6   4 9402.25  860.07   1 0.44337-0.95527-0.74108 0.20324 0.50418-0.21480
   5   6  -4 8221.01 1595.35   1 0.70929-0.19728-0.39777 0.93564-0.58195 0.29265
   5   6  -410029.51  672.90   1 0.48329 0.02906 0.51196 0.02656 0.71015-0.99922
  -5  -6   4 8266.75 1303.50   1 0.28351-0.79624-0.39063-0.14754 0.87579-0.58670
  -5  -6   354107.33 1812.69   1 0.43830-0.92982-0.73961 0.22174 0.51074-0.29370
   5   6  -353590.59 1749.92   1 0.70324-0.21160-0.38127 0.89914-0.60006 0.38309
   5   6  -350862.80 4480.61   1 0.48151 0.01043 0.40588 0.11258 0.77678-0.99358
  -5  -6   350271.03 1835.00   1 0.26573-0.75796-0.42955-0.08869 0.86305-0.64623
  -5  -6   213548.01 1526.63   1 0.41873-0.88986-0.73351 0.23563 0.53536-0.39067
   5   6  -213183.09 1362.17   1 0.68831-0.21705-0.34408 0.84195-0.63861 0.49396
   5   6  -216207.11 1596.33   1 0.47145 0.00015 0.28874 0.20967 0.83327-0.97777
  -5  -6   214096.80 1457.16   1 0.24226-0.71421-0.47826-0.02017 0.84413-0.69963
   5   6  -129548.16  605.80   1 0.65103-0.20026-0.26462 0.74259-0.71142 0.63909
   5   6  -130655.78  629.75   1-0.36535 0.81707 0.71249-0.23406-0.59905 0.52688
   5   6  -128899.68 2916.01   1 0.45285-0.00165 0.16269 0.31569 0.87661-0.94886
  -5  -6   128543.86 2954.07   1 0.21273-0.66413-0.53483 0.05638 0.81773-0.74548
   5   6   0166049.7 3467.40   1-0.22496 0.65604 0.64342-0.18494-0.73171 0.73171
   5   6   0158352.7 3685.73   1 0.42555 0.00538 0.03175 0.42670 0.90437-0.90437
  -5  -6   0151188.7 3654.19   1 0.17683-0.60768-0.59786 0.13939 0.78184-0.78184
   5   6   193960.05 2394.27   1 0.39054 0.01996-0.09905 0.53753 0.91523-0.84300
  -5  -6  -194972.07 2507.84   1 0.13483-0.54513-0.66445 0.22596 0.73506-0.80731
   5   6   214409.75 1346.31   1 0.34998 0.03972-0.22422 0.64283 0.90952-0.76497
   5   6   3109664.0 2683.56   1 0.30607 0.06313-0.33817 0.73685 0.88991-0.67309
   5   6   459262.83 1703.77   1 0.26197 0.08673-0.43753 0.81628 0.86019-0.57109
   5   6   541752.53 4151.74   1 0.22016 0.10793-0.52101 0.87955 0.82466-0.46340
  -5  -6  -632837.33  494.06   1 0.64739-0.95562-0.25753-0.08042-0.71732 0.28338
   5   6   632396.33 3278.93   1 0.18257 0.12497-0.58818 0.92672 0.78784-0.35433
  -5  -6  -729450.13  618.74   1-0.25570-0.03087 0.66042-0.97914-0.70600 0.20080
   5   6   731363.54 3658.55   1 0.15033 0.13667-0.64073 0.95929 0.75289-0.24713
  -5  -6  -8 3018.55  970.71   1 0.72196-0.98951-0.43625 0.13836-0.53707-0.04152
  -5  -6  -8 3496.61  551.59   1-0.33038 0.06444 0.69745-0.99620-0.63593 0.05855
   5   6   8 4923.26  435.22   1 0.12385 0.14260-0.68067 0.97924 0.72204-0.14402
  -5  -6  -932113.94 1186.18   1-0.36569 0.12040 0.71263-0.99142-0.59867-0.05087
  -5  -6 -10 4768.00 1072.31   1 0.72871-0.95543-0.45949 0.20159-0.50778-0.21564
  -5  -6 -10 4581.55  672.09   1-0.38126 0.15661 0.71881-0.97763-0.58133-0.14038
   5   6  10 5574.83  462.23   1 0.29664-0.06963 0.95494-0.69702 0.00944 0.71365
  -5  -6 -11  759.52  191.77   1 0.72759-0.93401-0.45591 0.21802-0.51258-0.28297
  -5  -6 -11  623.90  158.95   1-0.38523 0.18122 0.72033-0.95918-0.57681-0.21707
   5   6  11  787.16  102.55   1 0.33073-0.12425 0.93906-0.70126 0.09369 0.70199
  -5  -6 -12 8751.63 1636.84   1 0.72494-0.91099-0.44640 0.22850-0.52457-0.34331
  -5  -6 -12 7360.33 1432.08   1-0.38153 0.19817 0.71891-0.93780-0.58102-0.28504
   5   6  12 9960.97 1040.46   1 0.36078-0.17466 0.91626-0.69850 0.17405 0.69396
  -5  -7   522969.51 4082.93   1 0.44796-0.98471-0.74238 0.10823 0.49818-0.13645
   5   7  -523535.83 3874.07   1 0.67126-0.13442-0.30582 0.94000-0.67518 0.31356
   5   7  -523221.81 3450.57   1 0.47818 0.05861 0.60534 0.02933 0.63631-0.99784
  -5  -7   521543.79 4432.86   1 0.28390-0.82169-0.38975-0.24476 0.87606-0.51469
  -5  -7   463619.85 1980.86   1 0.45481-0.97118-0.74426 0.13009 0.48909-0.19971
   5   7  -464438.69 1922.72   1 0.66399-0.14752-0.29051 0.90469-0.68899 0.39969
   5   7  -461284.59 1876.05   1 0.48315 0.03370 0.51824 0.09666 0.70568-0.99474
  -5  -7   456676.67 1974.71   1 0.27286-0.79014-0.41418-0.20039 0.86832-0.57923
  -5  -7   326685.35 3643.07   1 0.45438-0.95035-0.74414 0.14996 0.48967-0.27263
   5   7  -332438.80  879.23   1 0.64793-0.15201-0.25858 0.85287-0.71645 0.49948
   5   7  -329937.80 2656.78   1 0.48223 0.01421 0.42152 0.17333 0.76796-0.98476
  -5  -7   332464.43 2944.95   1 0.25734-0.75442-0.44759-0.14725 0.85640-0.63965
  -5  -7   2  409.49   87.63   1 0.44179-0.91737-0.74063 0.16643 0.50623-0.36154
   5   7  -2  283.95  101.02   1 0.61582-0.14026-0.19964 0.77394-0.76216 0.61752
   5   7  -2  462.01   73.60   1 0.47462 0.00141 0.31617 0.25863 0.82144-0.96597
  -5  -7   2  550.19   73.53   1 0.23707-0.71360-0.48854-0.08630 0.83971-0.69520
   5   7  -1  572.60  112.73   1 0.54693-0.09212-0.08871 0.64316-0.83246 0.76016
   5   7  -1  966.03  104.25   1 0.45982-0.00411 0.20409 0.35068 0.86423-0.93648
  -5  -7   1  680.14  111.63   1 0.21154-0.66753-0.53701-0.01785 0.81661-0.74436
   5   7   041990.67 1221.40   1 0.36580 0.06848 0.14645 0.38803-0.91909 0.91909
   5   7   042660.72 3771.19   1 0.43822-0.00293 0.08782 0.44692 0.89456-0.89456
  -5  -7   042431.93 4075.32   1 0.18053-0.61597-0.59165 0.05676 0.78572-0.78572
   5   7   154053.93 1858.26   1 0.41030 0.00474-0.02882 0.54371 0.91149-0.83925
  -5  -7  -157680.03 5195.78   1 0.14408-0.55897-0.65041 0.13552 0.74578-0.81803
   5   7   2126377.0 2735.43   1 0.37731 0.01730-0.14211 0.63703 0.91511-0.77063
   5   7   326429.54 2747.69   1 0.34129 0.03246-0.24821 0.72330 0.90659-0.68976
   5   7   4 2568.07  242.64   1 0.30377 0.04947-0.34368 0.79884 0.88859-0.59949
   5   7   5  -37.87   96.18   1 0.26704 0.06570-0.42674 0.86197 0.86404-0.50267
   5   7   6   17.40   69.38   1 0.23272 0.07941-0.49704 0.91200 0.83593-0.40242
  -5  -7  -781574.70  953.31   1 0.70309-0.99546-0.38088-0.01331-0.60049 0.09422
  -5  -7  -781021.27  906.77   1 0.01642-0.30811 0.48053-0.87592-0.87682 0.37125
   5   7   781733.50 1758.94   1 0.20205 0.08953-0.55421 0.94918 0.80747-0.30171
  -5  -7  -888410.56 2383.06   1 0.72425-0.99625-0.44400 0.06980-0.52755-0.05104
   5   7   891020.59 2854.56   1 0.17579 0.09524-0.59960 0.97459 0.78074-0.20272
  -5  -7  -914425.83  576.51   1 0.73043-0.98202-0.46616 0.11196-0.49914-0.15194
  -5  -7  -910853.10 2103.89   1-0.22012-0.02965 0.64065-0.99584-0.73560 0.08605
   5   7   915782.54 1316.04   1 0.15425 0.09624-0.63459 0.98958 0.75729-0.10702
  -5  -7 -1010581.31  549.21   1 0.73182-0.96303-0.47174 0.13754-0.49181-0.23161
  -5  -7 -10 7808.73 1614.67   1-0.26236 0.03322 0.66398-0.99921-0.70020-0.02151
   5   7  1010098.09 1136.56   1 0.26908-0.03758 0.96155-0.62728-0.05478 0.77788
   5   7  1010444.38 1292.82   1 0.13741 0.09253-0.66057 0.99558 0.73807-0.01555
  -5  -7 -11 5654.61 1681.45   1 0.73091-0.94174-0.46804 0.15383-0.49669-0.29907
  -5  -7 -11 5703.26 1309.56   1-0.28435 0.07585 0.67537-0.99064-0.68044-0.11344
   5   7  11 7500.75  786.95   1 0.30545-0.09432 0.95170-0.63745 0.03072 0.76469
   5   7  11 7556.30 1064.01   1 0.12508 0.08430-0.67886 0.99388 0.72352 0.07124
  -5  -8   410319.33 1711.50   1 0.45849-0.97931-0.74523 0.05474 0.48416-0.19477
   5   8  -413717.92  648.98   1 0.60338-0.08267-0.17831 0.86894-0.77725 0.48796
   5   8  -413011.89 1186.65   1 0.48307 0.03782 0.52994 0.16104 0.69699-0.98622
  -5  -8   4 9872.47 2297.25   1 0.26061-0.78245-0.44038-0.25061 0.85915-0.57005
  -5  -8   3 5052.57 1145.91   1 0.46132-0.96176-0.74596 0.07546 0.48032-0.26328
   5   8  -3 4563.87 1140.55   1 0.57599-0.07563-0.13359 0.80422-0.80646 0.58949
   5   8  -3 6675.48  574.76   1 0.48293 0.01801 0.44141 0.22983 0.75626-0.97306
  -5  -8   3 7023.76  714.45   1 0.24697-0.74864-0.46882-0.20243 0.84806-0.63130
  -5  -8   2  415.56  120.80   1 0.45344-0.93349-0.74389 0.09337 0.49092-0.34623
   5   8  -2  399.86  102.96   1 0.52586-0.04635-0.05792 0.70868-0.84859 0.70399
   5   8  -2  547.17   79.81   1 0.47741 0.00312 0.34591 0.30528 0.80772-0.95225
  -5  -8   2  489.25   89.73   1 0.22917-0.71029-0.50389-0.14736 0.83280-0.68830
  -5  -8   1  523.25  184.33   1 0.42371-0.88336-0.73512 0.10458 0.52920-0.45685
   5   8  -1  416.65  182.91   1 0.42869 0.03048 0.07138 0.55941-0.90062 0.82832
   5   8  -1 1177.87  159.16   1 0.46590-0.00568 0.24511 0.38606 0.85020-0.92245
  -5  -8   1  788.82  112.47   1 0.20677-0.66735-0.54570-0.08557 0.81206-0.73980
   5   8   022919.71  389.42   1 0.20445 0.23427 0.31606 0.29464-0.92644 0.92644
   5   8   024632.32 2999.83   1 0.44884-0.00904 0.14081 0.47033 0.88244-0.88244
  -5  -8   025147.17 3277.17   1 0.17957-0.61959-0.59327-0.01801 0.78471-0.78471
   5   8   148611.73 4368.08   1 0.42652-0.00694 0.03585 0.55544 0.90376-0.83152
  -5  -8  -144572.94 1658.44   1 0.14752-0.56699-0.64511 0.05380 0.74970-0.82196
   5   8   2 6052.70  581.23   1 0.39980-0.00064-0.06711 0.63844 0.91413-0.76966
  -5  -8  -2 5585.68  691.88   1 0.11086-0.50978-0.69924 0.12792 0.70623-0.85073
   5   8   327570.16 2124.00   1 0.36990 0.00882-0.16509 0.71646 0.91428-0.69756
   5   8   413978.57  838.65   1 0.33857 0.01923-0.25557 0.78714 0.90556-0.61647
   5   8   5 2155.55  234.08   1 0.30678 0.03051-0.33645 0.84810 0.89032-0.52895
   5   8   6 3841.97  390.92   1 0.27625 0.04055-0.40677 0.89849 0.87075-0.43711
  -5  -8  -715219.34  316.05   1 0.68273-0.97955-0.33112-0.13938-0.65133 0.14506
   5   8   717231.98 1426.28   1 0.24804 0.04812-0.46665 0.93803 0.84894-0.34317
  -5  -8  -8  993.70  534.96   1 0.72251-0.99896-0.43806-0.01244-0.53485-0.04373
  -5  -8  -8  889.35  480.65   1 0.08971-0.36553 0.42041-0.87227-0.90288 0.32485
   5   8   8 2194.71  407.09   1 0.22303 0.05259-0.51561 0.96700 0.82728-0.24926
  -5  -8  -913249.38  520.84   1 0.73106-0.98714-0.46866 0.03815-0.49587-0.15520
  -5  -8  -912028.99  899.65   1-0.03984-0.21533 0.52361-0.95562-0.85102 0.20101
   5   8   913926.64 1841.84   1 0.20174 0.05333-0.55476 0.98617 0.80717-0.15690
  -5  -8 -1024028.42  937.91   1 0.73310-0.96880-0.47709 0.06658-0.48470-0.23872
   5   8  1024939.39 3584.71   1 0.18441 0.05011-0.58505 0.99647 0.78974-0.06722
  -5  -8 -11 3348.43 1572.02   1 0.73248-0.94781-0.47448 0.08396-0.48819-0.30757
   5   8  11 5798.31  694.13   1 0.28220-0.06658 0.95903-0.56842-0.02462 0.82003
   5   8  11 5719.38  817.88   1 0.17106 0.04291-0.60746 0.99889 0.77570 0.01906
   5   9  -2 4162.78  409.91   1 0.47981 0.00522 0.37730 0.35028 0.79209-0.93662
  -5  -9   2 4301.91  548.29   1 0.21912-0.70483-0.52297-0.20470 0.82370-0.67919
   5   9  -1 2369.66  289.48   1 0.47112-0.00639 0.28586 0.42171 0.83446-0.90670
  -5  -9   1 2189.34  283.20   1 0.19925-0.66440-0.55921-0.14847 0.80472-0.73247
   5   9   0 4428.07  333.53   1 0.45778-0.01347 0.19150 0.49604 0.86819-0.86819
  -5  -9   0 3842.10  549.26   1 0.17509-0.61970-0.60077-0.08692 0.78000-0.78000
   5   9   1  795.23  202.64   1 0.43999-0.01609 0.09622 0.57129 0.89283-0.82058
  -5  -9  -1  594.53  206.10   1 0.14659-0.57066-0.64654-0.02117 0.74866-0.82091
   5   9   2 5967.08  526.64   1 0.41837-0.01468 0.00244 0.64529 0.90826-0.76379
  -5  -9  -2 5614.98  628.72   1 0.11387-0.51738-0.69499 0.04726 0.70994-0.85444
   5   9   3 3939.85  450.30   1 0.39380-0.01053-0.08799 0.71576 0.91497-0.69826
   5   9   446956.07 4975.33   1 0.36734-0.00450-0.17286 0.78066 0.91387-0.62492
   5   9   552287.44 5076.57   1 0.34047 0.00138-0.25043 0.83848 0.90628-0.54491
   5   9   6 3686.01  922.31   1 0.31373 0.00761-0.31950 0.88762 0.89414-0.46049
   5   9   7  395.36  116.64   1 0.28844 0.01240-0.37948 0.92768 0.87908-0.37316
   5   9   820287.53 1921.97   1 0.26540 0.01494-0.43025 0.95852 0.86280-0.28461
   5   9   9 1865.99  244.42   1 0.24508 0.01457-0.47263 0.98045 0.84649-0.19622
   5   9  1054859.91 1894.13   1 0.22802 0.01109-0.50611 0.99395 0.83177-0.10925
   5  10  -1 7730.09  612.90   1 0.47563-0.00649 0.32633 0.45759 0.81687-0.88913
  -5 -10   1 7182.70  792.30   1 0.18947-0.65922-0.57635-0.20775 0.79493-0.72268
   5  10   029878.96 2673.58   1 0.46525-0.01643 0.24046 0.52347 0.85188-0.85188
  -5 -10   028348.12 2758.27   1 0.16784-0.61703-0.61275-0.15135 0.77224-0.77224
   5  10   1 9738.41  919.93   1 0.45121-0.02281 0.15360 0.59031 0.87909-0.80684
  -5 -10  -1 8860.65  924.20   1 0.14227-0.57091-0.65319-0.09093 0.74370-0.81595
   5  10   210578.28  870.50   1 0.43380-0.02582 0.06750 0.65638 0.89847-0.75398
  -5 -10  -2 9808.54  998.38   1 0.11282-0.52092-0.69647-0.02766 0.70865-0.85315
   5  10   3 7371.64  709.14   1 0.41372-0.02591-0.01576 0.71994 0.91026-0.69355
   5  10   418403.81 2355.94   1 0.39172-0.02434-0.09506 0.77927 0.91515-0.62620
   5  10   5  337.03   62.84   1 0.36871-0.02176-0.16871 0.83295 0.91410-0.55291
   5  10   617847.64 1596.56   1 0.34595-0.02005-0.23544 0.87998 0.90822-0.47458
   5  10   7 6670.60  684.00   1 0.32363-0.01823-0.29466 0.91926 0.89912-0.39321
   5  10   8 5983.90  607.03   1 0.30283-0.01793-0.34593 0.95061 0.88804-0.30984
   5  10   912998.83 1760.04   1 0.28413-0.01974-0.38923 0.97398 0.87622-0.22575
   5  11   2 2062.39  251.56   1 0.44667-0.03417 0.12942 0.67086 0.88528-0.74079
  -5 -11  -2 1982.74  233.26   1 0.10849-0.52117-0.70256-0.09798 0.70330-0.84780
   5  11   328150.41 3126.95   1 0.43035-0.03827 0.05217 0.72808 0.90115-0.68441
   5  11   4 1266.43  149.18   1 0.41224-0.04031-0.02146 0.78208 0.91082-0.62187
   5  11   5 4548.60  628.76   1 0.39294-0.04144-0.09092 0.83157 0.91505-0.55386
   5  11   6 5088.42  605.53   1 0.37323-0.04216-0.15486 0.87554 0.91471-0.48129
   5  11   7  583.13   87.00   1 0.35420-0.04425-0.21230 0.91331 0.91075-0.40483
   6 -10  -421286.38 2551.01   1 0.40995 0.11229 0.09436-0.77810-0.90721 0.61801
  -6  10   418996.41 2176.14   1-0.28262-0.24001 0.67450 0.00975-0.68203 0.97071
   6 -10  -3  460.17  151.59   1 0.45697 0.04493 0.03561-0.73930-0.88876 0.67187
  -6  10   3  310.59   70.61   1-0.21550-0.28649 0.63799 0.06623-0.73927 0.95578
  -6  10   2  301.75   72.40   1-0.14591-0.33624 0.59709 0.12656-0.78878 0.93323
  -6  10   2  306.05   58.87   1 0.45510-0.93573 0.73882-0.01533 0.49701-0.35236
   6 -10  -2  249.35   88.17   1 0.19574 0.28350-0.56541-0.15872 0.80124-0.94574
  -6  10   1 2531.38  242.29   1-0.07774-0.38396 0.55104 0.19246-0.83084 0.90306
  -6  10   1 2236.25  383.11   1 0.45186-0.91212 0.75055-0.00702 0.48217-0.40985
   6 -10  -1 2360.06  457.63   1 0.26094 0.19815-0.43969-0.30448 0.85940-0.93167
   6 -10   0 2541.89  317.63   1 0.59549-0.15519-0.16512-0.59815-0.78620 0.78620
  -6  10   0 2486.89  241.71   1-0.01172-0.42954 0.50244 0.26092-0.86453 0.86453
  -6  10   0 2441.10  241.81   1 0.44716-0.88706 0.76611-0.00253 0.46164-0.46164
   6 -10   0 2517.73  366.55   1 0.30928 0.12930-0.33039-0.43370 0.89172-0.89172
   6 -10   1 3825.03  455.64   1 0.63539-0.21545-0.23481-0.54845-0.73561 0.80794
  -6  10  -1 3678.87  434.30   1 0.05052-0.47169 0.45326 0.32998-0.88994 0.81768
  -6  10  -1 3382.34  570.24   1 0.44117-0.86070 0.78395-0.00033 0.43678-0.50911
   6 -10   1 3673.56  419.41   1 0.34450 0.07358-0.23943-0.54459 0.90773-0.83546
   6 -10   2 7220.71  828.31   1 0.66989-0.27064-0.30289-0.50022-0.67786 0.82251
  -6  10  -2 7102.99  789.11   1 0.10765-0.50845 0.40491 0.39819-0.90799 0.76348
  -6  10  -2 6895.02  918.72   1 0.43395-0.83311 0.80302 0.00064 0.40845-0.55309
   6 -10   2 5865.29 1446.80   1 0.36950 0.02867-0.16632-0.63770 0.91422-0.76974
   6  -9  -619855.19 1769.49   1 0.41461 0.15187-0.73214 0.16517 0.54041-0.97449
   6  -9  -620662.59 2919.56   1 0.27220 0.29574 0.24847-0.81640-0.92960 0.49600
   6  -9  -532050.96 3975.67   1 0.31490 0.23269 0.20324-0.79104-0.92710 0.56577
  -6   9   531437.71 1687.08   1-0.35276-0.19501 0.70726-0.11938-0.61264 0.97350
   6  -9  -4  284.71   57.41   1 0.36224 0.16499 0.15053-0.75821-0.91984 0.63078
  -6   9   4  301.48   93.64   1-0.28559-0.24154 0.67600-0.06815-0.67930 0.96799
   6  -9  -321698.60 2082.77   1 0.41274 0.09354 0.09098-0.71831-0.90629 0.68939
  -6   9   320250.01 2065.58   1-0.21469-0.29179 0.63752-0.00970-0.73991 0.95643
  -6   9   321596.10  872.45   1 0.45126-0.95671 0.75260-0.12552 0.47951-0.26254
   6  -9  -2  158.63   90.00   1 0.46532 0.02062 0.02478-0.67207-0.88479 0.74019
  -6   9   2   88.80   75.25   1-0.14065-0.34587 0.59369 0.05362-0.79230 0.93674
  -6   9   2  127.27   30.93   1 0.45126-0.93634 0.75262-0.10549 0.47949-0.33484
   6  -9  -2   53.65   35.98   1 0.20545 0.27836-0.54809-0.09963 0.81078-0.95529
   6  -9  -1 1823.17  250.13   1 0.51763-0.05202-0.04620-0.62103-0.85435 0.78205
  -6   9   1 1750.46  245.93   1-0.06746-0.39862 0.54372 0.12344-0.83654 0.90876
  -6   9   1 1611.90  255.73   1 0.44871-0.91343 0.76114-0.09396 0.46831-0.39598
   6  -9  -1 1397.64  288.87   1 0.27975 0.18388-0.39902-0.26874 0.87322-0.94549
   6  -9   0 5950.32  584.95   1 0.56738-0.12265-0.12011-0.56684-0.81464 0.81464
  -6   9   0 5795.98  498.39   1 0.00375-0.44939 0.49048 0.19654-0.87144 0.87144
  -6   9   0 5174.91  781.93   1 0.44439-0.88874 0.77460-0.08739 0.44999-0.44999
   6  -9   0 5303.98  700.82   1 0.33216 0.11097-0.27258-0.41511 0.90297-0.90297
   6  -9   115751.66 1384.47   1 0.61306-0.18870-0.19485-0.51209-0.76562 0.83794
  -6   9  -114836.66 1610.01   1 0.07101-0.49651 0.43626 0.27064-0.89701 0.82475
  -6   9  -114957.08 1709.05   1 0.43862-0.86260 0.79097-0.08370 0.42658-0.49890
   6  -9   112661.23 2673.68   1 0.36808 0.05505-0.17061-0.53703 0.91400-0.84176
   6  -9   2 2040.65  222.22   1 0.65287-0.24887-0.26824-0.45870-0.70837 0.85302
  -6   9  -2 1928.87  211.75   1 0.13263-0.53777 0.38282 0.34394-0.91424 0.76974
  -6   9  -2 1841.14  237.40   1 0.43153-0.83515 0.80891-0.08160 0.39928-0.54393
   6  -9   2 1606.14  287.23   1 0.39312 0.00959-0.09032-0.63728 0.91503-0.77056
   6  -9   3 2987.61  296.56   1 0.68589-0.30255-0.33840-0.40840-0.64422 0.86120
  -6   9  -3 2735.68  398.35   1 0.18756-0.57233 0.33222 0.41440-0.92436 0.70760
  -6   9  -3 2650.10  383.98   1 0.42321-0.80646 0.82754-0.08019 0.36884-0.58582
   6  -9   3 3212.16  404.28   1 0.41027-0.02798-0.02891-0.71866 0.91150-0.69479
   6  -9   4  587.28  130.49   1 0.71149-0.34853-0.40400-0.36279-0.57493 0.86423
  -6   9  -4  414.44   75.30   1 0.23520-0.59962 0.28604 0.48068-0.92890 0.63983
  -6   9  -4  437.79   90.38   1 0.41369-0.77657 0.84623-0.07882 0.33577-0.62507
   6  -9   4  461.94   80.62   1 0.42191-0.06005 0.01669-0.78424 0.90648-0.61753
   6  -8  -7 1776.32  182.82   1 0.48489 0.10644-0.75146 0.28079 0.44742-0.95384
   6  -8  -7 2273.24  257.30   1 0.18112 0.41162 0.33829-0.81001-0.92344 0.41766
   6  -8  -6 1959.30  255.16   1 0.42740 0.14354-0.73629 0.24564 0.52459-0.95867
   6  -8  -6 2027.45  491.16   1 0.21848 0.35389 0.30244-0.79401-0.92778 0.49426
   6  -8  -534247.69 3092.92   1 0.26229 0.28963 0.25868-0.77013-0.92966 0.56833
  -6   8   532271.93 3018.26   1-0.36396-0.18830 0.71192-0.20045-0.60057 0.96143
   6  -8  -431919.23 4221.58   1 0.31195 0.21961 0.20643-0.73776-0.92739 0.63833
  -6   8   432862.99 1220.23   1-0.29424-0.23738 0.68032-0.14889-0.67124 0.95993
   6  -8  -3 1289.18  203.23   1 0.36630 0.14491 0.14587-0.69708-0.91898 0.70218
  -6   8   3 1149.17  154.33   1-0.21967-0.29131 0.64039-0.08899-0.73596 0.95248
  -6   8   3  915.46  192.39   1 0.43801-0.94792 0.79259-0.24186 0.42419-0.20722
   6  -8  -222924.28 1753.04   1 0.42342 0.06689 0.07790-0.64883-0.90257 0.75797
  -6   8   221227.82 2124.62   1-0.14100-0.34988 0.59392-0.02294-0.79206 0.93651
  -6   8   220031.08 1755.71   1 0.44215-0.93169 0.78117-0.21040 0.44075-0.29610
   6  -8  -223095.96  760.32   1 0.21040 0.27800-0.53910-0.03221 0.81553-0.96003
   6  -8  -110891.91  835.83   1 0.48150-0.01151 0.00343-0.59432-0.87643 0.80414
  -6   8   110609.15 1018.95   1-0.06236-0.40809 0.54007 0.05076-0.83930 0.91152
  -6   8   110425.53  671.79   1 0.44148-0.91065 0.78308-0.19226 0.43803-0.36570
   6  -8  -111317.92  484.36   1 0.29780 0.17038-0.35781-0.23353 0.88502-0.95730
   6  -8   013132.69  869.47   1 0.53771-0.08805-0.07510-0.53574-0.83977 0.83977
  -6   8   012207.77  931.72   1 0.01464-0.46466 0.48194 0.12874-0.87607 0.87607
  -6   8   011918.37 1295.38   1 0.43815-0.88696 0.79221-0.18135 0.42474-0.42474
   6  -8   014117.85 1066.55   1 0.35520 0.09248-0.20943-0.40184 0.91102-0.91102
   6  -8   1  138.04   63.35   1 0.58951-0.16072-0.15530-0.47531-0.79268 0.86500
  -6   8  -1   18.53   53.51   1 0.08757-0.51741 0.42224 0.20833-0.90224 0.82998
  -6   8  -1   63.81   70.24   1 0.43296-0.86139 0.80547-0.17456 0.40466-0.47698
   6  -8   1   89.39   27.04   1 0.39193 0.03574-0.09436-0.53687 0.91514-0.84290
   6  -8   223714.00 1971.00   1 0.63519-0.22676-0.23444-0.41617-0.73590 0.88055
  -6   8  -223758.16 2990.16   1 0.15433-0.56380 0.36317 0.28725-0.91884 0.77434
  -6   8  -221434.96 1874.92   1 0.42624-0.83431 0.82104-0.17008 0.37974-0.52439
   6  -8   222162.02 1525.04   1 0.41596-0.00870-0.00709-0.64411 0.90935-0.76487
   6  -8   3  889.81  243.16   1 0.67332-0.28553-0.31024-0.36025-0.67110 0.88808
  -6   8  -3  520.27  160.38   1 0.21358-0.60269 0.30722 0.36306-0.92735 0.71059
  -6   8  -3  640.57  172.87   1 0.41817-0.80588 0.83775-0.16675 0.35113-0.56811
   6  -8   3  665.47  178.21   1 0.43152-0.04439 0.05734-0.72856 0.90027-0.68353
   6  -8   432688.05 4463.61   1 0.70313-0.33571-0.38099-0.30949-0.60036 0.88966
  -6   8  -432052.75 3198.45   1 0.26463-0.63338 0.25628 0.43409-0.92967 0.64060
  -6   8  -435897.42 3832.80   1 0.40885-0.77618 0.85481-0.16377 0.31956-0.60885
   6  -8   432462.09 3915.18   1 0.44150-0.07478 0.10352-0.79477 0.89126-0.60228
   6  -8   511491.55 1146.11   1 0.72470-0.37766-0.44556-0.26492-0.52561 0.88723
  -6   8  -510684.16 1172.57   1 0.30744-0.65584 0.21129 0.49896-0.92781 0.56648
  -6   8  -511085.75 1087.35   1 0.39844-0.74529 0.87164-0.16056 0.28543-0.64711
   6  -8   511309.24 1665.24   1 0.44778-0.10148 0.13522-0.84650 0.88385-0.52262
   6  -8   6 9590.51 1167.11   1 0.73864-0.41259-0.50355-0.22690-0.44814 0.88220
  -6   8  -6 9166.19  969.29   1 0.34242-0.67047 0.17294 0.55719-0.92349 0.48989
  -6   8  -610051.33 1547.86   1 0.38672-0.71319 0.88788-0.15677 0.24919-0.68320
   6  -8   6 9084.45 1786.78   1 0.45152-0.12564 0.15529-0.88659 0.87864-0.44516
   6  -7  -7 1970.41  266.96   1 0.50243 0.09336-0.75482 0.36048 0.42165-0.92808
   6  -7  -7 2105.44  388.70   1 0.12709 0.46998 0.38777-0.78314-0.91294 0.40717
   6  -7  -6  319.12   57.54   1 0.44518 0.13022-0.74160 0.32727 0.50183-0.93591
   6  -7  -6   81.41   81.97   1 0.16389 0.41282 0.35438-0.76961-0.92062 0.48710
   6  -7  -515264.71 1241.39   1 0.20815 0.34820 0.31250-0.74759-0.92683 0.56555
  -6   7   514135.03  968.15   1-0.38084-0.17591 0.71864-0.28359-0.58181 0.94267
   6  -7  -434982.37 2275.41   1 0.25957 0.27632 0.26146-0.71643-0.92965 0.64059
  -6   7   433639.96 2909.51   1-0.30912-0.22699 0.68756-0.23254-0.65703 0.94572
   6  -7  -3157903.5 2587.95   1 0.31718 0.19835 0.20076-0.67561-0.92686 0.71007
  -6   7   3145682.7 4364.96   1-0.23115-0.28431 0.64692-0.17193-0.72667 0.94318
  -6   7   3151386.4 3654.32   1 0.40255-0.91681 0.86534-0.39091 0.29852-0.08152
   6  -7  -266779.78 5854.37   1 0.37925 0.11594 0.13089-0.62562-0.91598 0.77145
  -6   7   263989.32 4656.71   1-0.14781-0.34745 0.59832-0.10367-0.78750 0.93194
  -6   7   263564.53  887.47   1 0.42196-0.91596 0.83015-0.33573 0.36440-0.21976
   6  -7  -270052.00  953.27   1 0.20721 0.28578-0.54491 0.05000 0.81248-0.95698
   6  -7  -124746.98 1722.89   1 0.44314 0.03121 0.05327-0.56781-0.89486 0.82256
  -6   7   123165.28 2112.16   1-0.06330-0.41152 0.54074-0.02624-0.83879 0.91102
  -6   7   123068.38 1518.95   1 0.42688-0.90051 0.81962-0.30516 0.38208-0.30975
   6  -7  -125053.42  648.59   1 0.31525 0.15749-0.31573-0.19921 0.89494-0.96721
   6  -7   0 6453.48  517.27   1 0.50615-0.05212-0.03012-0.50436-0.86191 0.86191
  -6   7   0 6436.39  630.36   1 0.02019-0.47458 0.47754 0.05680-0.87837 0.87837
  -6   7   0 5555.29  725.67   1 0.42629-0.87955 0.82093-0.28642 0.37992-0.37992
   6  -7   0 4867.30 1222.66   1 0.37838 0.07426-0.13874-0.39611 0.91519-0.91519
   6  -7   1 3022.62  253.12   1 0.56489-0.13166-0.11624-0.43804-0.81693 0.88925
  -6   7  -1 2871.66  327.67   1 0.09965-0.53381 0.41186 0.14237-0.90578 0.83352
  -6   7  -1 2790.46  247.49   1 0.42265-0.85554 0.82872-0.27417 0.36684-0.43916
   6  -7   1 2927.79  215.73   1 0.41566 0.01655-0.00825-0.54658 0.90948-0.83724
   6  -7   231635.84 1990.54   1 0.61703-0.20417-0.20176-0.37253-0.76063 0.90527
  -6   7  -229553.85 2712.20   1 0.17236-0.58617 0.34651 0.22758-0.92207 0.77756
  -6   7  -230708.58 2293.27   1 0.41691-0.82943 0.84020-0.26560 0.34676-0.49141
   6  -7   232053.21 2298.22   1 0.43773-0.02566 0.08552-0.66033 0.89502-0.75053
   6  -7   3192272.216579.48   1 0.66062-0.26812-0.28379-0.31050-0.69500 0.91197
  -6   7  -3194981.316775.49   1 0.23664-0.63007 0.28461 0.30952-0.92897 0.71217
  -6   7  -3148667.112786.50   1 0.40951-0.80167 0.85368-0.25904 0.32175-0.53872
   6  -7   3204092.717475.45   1 0.45083-0.05919 0.15152-0.74635 0.87965-0.66291
   6  -7   431770.92 2543.42   1 0.69497-0.32310-0.36015-0.25403-0.62233 0.91163
  -6   7  -427799.73 2827.19   1 0.29155-0.66463 0.22823 0.38578-0.92892 0.63986
  -6   7  -429826.16 2276.89   1 0.40081-0.77249 0.86806-0.25338 0.29294-0.58228
   6  -7   431181.85 3318.52   1 0.45865-0.08742 0.19679-0.81165 0.86655-0.57756
   6  -7   5  129.84   75.36   1 0.71989-0.36839-0.42949-0.20468-0.54523 0.90685
  -6   7  -5  117.05  112.91   1 0.33715-0.68988 0.17881 0.45508-0.92430 0.56298
  -6   7  -5  211.79   61.39   1 0.39066-0.74197 0.88269-0.24798 0.26119-0.62287
   6  -7   5  184.75   49.66   1 0.46322-0.11241 0.22635-0.86123 0.85684-0.49561
   6  -7   615783.93 1680.18   1 0.73624-0.40570-0.49133-0.16281-0.46532 0.89938
  -6   7  -614311.94 1534.24   1 0.37401-0.70639 0.13698 0.51680-0.91724 0.48365
  -6   7  -616068.10 1492.54   1 0.37927-0.71021 0.89701-0.24226 0.22696-0.66098
   6  -7   614816.48 1606.49   1 0.46572-0.13532 0.24377-0.89867 0.85069-0.41721
   6  -7   7 4970.68  788.08   1 0.74449-0.43433-0.54536-0.12878-0.38509 0.89149
  -6   7  -7 5169.78  499.58   1 0.40300-0.71469 0.10274 0.57143-0.90941 0.40332
  -6   7  -7 5680.07  549.72   1 0.36667-0.67724 0.91061-0.23583 0.19058-0.69693
   6  -7   7 5526.25  659.12   1 0.46678-0.15681 0.25155-0.92648 0.84783-0.34211
   6  -6  -819256.26 1973.90   1 0.57225 0.04875-0.76081 0.46291 0.30607-0.88505
   6  -6  -819551.91 2954.26   1 0.04579 0.57599 0.45714-0.75632-0.88821 0.31017
   6  -6  -727247.12 2670.81   1 0.52416 0.07642-0.75806 0.44016 0.38804-0.89465
   6  -6  -728780.63 3453.62   1 0.07336 0.52805 0.43428-0.75332-0.89778 0.39200
   6  -6  -6  544.95  147.66   1 0.46793 0.11193-0.74761 0.40959 0.47129-0.90537
   6  -6  -6  388.46  116.60   1 0.10890 0.47215 0.40382-0.74271-0.90833 0.47480
   6  -6  -517671.44 1521.65   1 0.15287 0.40781 0.36451-0.72326-0.91856 0.55729
   6  -6  -488093.35 2772.02   1 0.20536 0.33496 0.31519-0.69380-0.92654 0.63752
  -6   6   480818.48 6303.61   1-0.33076-0.20983 0.69762-0.31901-0.63554 0.92422
   6  -6  -3  371.44   73.62   1 0.26574 0.25412 0.25513-0.65363-0.92966 0.71287
  -6   6   3  740.47  152.03   1-0.24997-0.26998 0.65733-0.25876-0.71092 0.92744
   6  -6  -263981.63 4249.29   1 0.33241 0.16711 0.18407-0.60245-0.92499 0.78046
  -6   6   262036.38 5769.15   1-0.16210-0.33753 0.60740-0.18909-0.77767 0.92212
  -6   6   262175.46 1783.01   1 0.37345-0.87181 0.90356-0.48545 0.20999-0.06532
   6  -6  -1155324.2 3341.03   1 0.40254 0.07618 0.10330-0.54148-0.90955 0.83725
  -6   6   1158066.1 3397.69   1-0.07138-0.40781 0.54653-0.10836-0.83438 0.90661
   6  -6  -1165650.2 2949.06   1 0.33237 0.14493-0.27205-0.16648 0.90306-0.97533
   6  -6   018973.81 1301.50   1 0.47293-0.01453 0.01480-0.47294-0.88097 0.88097
  -6   6   016576.33 1628.01   1 0.01939-0.47815 0.47818-0.02016-0.87804 0.87804
  -6   6   017822.63 1707.00   1 0.40473-0.86235 0.86186-0.40368 0.30557-0.30557
   6  -6   017994.28  513.04   1 0.40315 0.05403-0.05514-0.40330 0.91346-0.91346
   6  -6   113614.93 1001.15   1 0.53947-0.10140-0.07768-0.40040-0.83841 0.91070
  -6   6  -114077.27 1415.26   1 0.10640-0.54491 0.40599 0.07190-0.90765 0.83540
  -6   6  -114019.88 1017.17   1 0.40509-0.84235 0.86127-0.38306 0.30674-0.37908
   6  -6   113090.16 1294.41   1 0.43906-0.00207 0.09180-0.57019 0.89375-0.82150
   6  -6   232699.68 2483.24   1 0.59870-0.18141-0.17045-0.32751-0.78262 0.92726
  -6   6  -230081.23 2605.08   1 0.18615-0.60429 0.33355 0.16419-0.92416 0.77965
  -6   6  -235348.70 2815.68   1 0.40174-0.81863 0.86661-0.36836 0.29594-0.44061
   6  -6   233598.83 2405.17   1 0.45754-0.04096 0.19000-0.68841 0.86865-0.72415
   6  -6   319386.32 1720.21   1 0.64838-0.25145-0.25945-0.25851-0.71573 0.93270
  -6   6  -318891.21 1851.09   1 0.25634-0.65411 0.26475 0.25302-0.92961 0.71282
  -6   6  -318825.98 1185.35   1 0.39592-0.79244 0.87535-0.35706 0.27749-0.49450
   6  -6   317592.52 1104.34   1 0.46725-0.07110 0.25506-0.77350 0.84652-0.62978
   6  -6   477652.39 2495.86   1 0.68743-0.31110-0.34200-0.19586-0.64067 0.92997
  -6   6  -477822.53 2507.39   1 0.31579-0.69320 0.20227 0.33538-0.92701 0.63795
  -6   6  -476849.75 6064.66   1 0.38820-0.76436 0.88596-0.34764 0.25370-0.54304
   6  -6   478712.59 2336.85   1 0.47259-0.09676 0.29717-0.83570 0.82966-0.54059
   6  -6   5111111.2 8278.05   1 0.71571-0.35975-0.41645-0.14141-0.56064 0.92226
  -6   6  -5112487.6 3573.33   1 0.36458-0.72164 0.14786 0.40968-0.91935 0.55802
  -6   6  -5118050.6 3579.64   1 0.37891-0.73469 0.89743-0.33908 0.22589-0.58757
   6  -6   5116170.2 3490.59   1 0.47527-0.11984 0.32268-0.88125 0.81852-0.45719
   6  -6   617760.07 1295.51   1 0.73427-0.39924-0.48223-0.09560-0.47778 0.91184
  -6   6  -617602.86  910.68   1 0.40357-0.73997 0.10206 0.47580-0.90923 0.47544
  -6   6  -617634.11 1525.39   1 0.36820-0.70361 0.90908-0.33069 0.19492-0.62893
   6  -6   616743.79 2502.01   1 0.47653-0.14150 0.33595-0.91458 0.81243-0.37883
   6  -6   7 1023.41  162.07   1 0.74388-0.42922-0.53916-0.05866-0.39488 0.90129
  -6   6  -7  852.14  129.62   1 0.43368-0.74974 0.06516 0.53266-0.89870 0.39261
  -6   6  -7  957.50  109.21   1 0.35618-0.67122 0.92038-0.32196 0.16132-0.66767
   6  -6   7  876.44  106.86   1 0.47688-0.16226 0.33983-0.93850 0.81061-0.30474
   6  -6   8 8187.00  945.53   1 0.74597-0.45169-0.58787-0.02996-0.31292 0.89166
  -6   6  -8 8402.43 1169.16   1 0.45630-0.75203 0.03647 0.58130-0.88907 0.31069
  -6   6  -8 9196.11  844.14   1 0.34289-0.63757 0.93095-0.31249 0.12547-0.70416
   6  -6   8 8493.01 1234.80   1 0.47655-0.18234 0.33621-0.95493 0.81231-0.23418
   6  -5  -813703.77 1789.19   1 0.59468 0.03077-0.75958 0.53800 0.26339-0.84237
   6  -5  -814071.97 1850.58   1-0.00426 0.63091 0.49670-0.71956-0.86790 0.29012
   6  -5  -7  251.85   62.21   1 0.54938 0.05565-0.76033 0.51875 0.34650-0.85311
   6  -5  -7  163.64  103.16   1 0.02078 0.58543 0.47708-0.71979-0.87861 0.37304
   6  -5  -6  298.97   64.82   1 0.49545 0.08887-0.75356 0.49187 0.43203-0.86611
   6  -5  -6  234.70   58.85   1 0.05407 0.53131 0.45034-0.71290-0.89121 0.45768
   6  -5  -5  830.74  120.81   1 0.43232 0.13161-0.73781 0.45613 0.51838-0.88012
   6  -5  -5 1547.96  189.67   1 0.09695 0.46807 0.41419-0.69660-0.90501 0.54373
   6  -5  -4 2295.37  265.68   1 0.14970 0.39495 0.36741-0.66968-0.91793 0.62891
  -6   5   4 1541.73  198.88   1-0.35962-0.18546 0.71014-0.40794-0.60528 0.89397
   6  -5  -349623.91 4260.76   1 0.21217 0.31212 0.30860-0.63072-0.92722 0.71046
  -6   5   354290.88 4509.52   1-0.27699-0.24745 0.67162-0.34945-0.68716 0.90368
   6  -5  -2104433.9 2852.12   1 0.28311 0.22073 0.23711-0.57913-0.92931 0.78478
  -6   5   2107532.3 2834.86   1-0.18579-0.31801 0.62035-0.27822-0.76199 0.90634
   6  -5  -1 4248.97  321.92   1 0.35980 0.12369 0.15332-0.51522-0.92034 0.84807
  -6   5   1 4042.10  405.12   1-0.08803-0.39553 0.55827-0.19644-0.82497 0.89719
  -6   5   1 3897.85  503.45   1 0.33551-0.81797 0.93604-0.57426 0.10607-0.03373
   6  -5  -1 3707.77  182.50   1 0.34969 0.13215-0.22505-0.13706 0.90943-0.98170
   6  -5   018542.72 1280.47   1 0.43808 0.02468 0.05966-0.44143-0.89695 0.89695
  -6   5   016796.72 1545.56   1 0.01082-0.47395 0.48495-0.10327-0.87447 0.87447
  -6   5   017943.52  489.74   1 0.36499-0.82709 0.91227-0.53045 0.18584-0.18584
   6  -5   017023.86  439.75   1 0.42970 0.03221 0.04936-0.43133 0.90161-0.90161
   6  -5   1 4779.85  348.66   1 0.51325-0.07081-0.04003-0.36170-0.85730 0.92960
  -6   5  -1 5616.90  567.93   1 0.10667-0.54951 0.40576-0.00420-0.90773 0.83547
  -6   5  -1 4909.69  466.32   1 0.37530-0.81703 0.90153-0.49968 0.21536-0.28770
   6  -5   1 4223.12  632.56   1 0.46093-0.01943 0.21120-0.61320 0.86193-0.78968
   6  -5   2 2599.06  164.68   1 0.58059-0.15887-0.14091-0.28072-0.80190 0.94654
  -6   5  -2 2237.66  285.31   1 0.19485-0.61732 0.32528 0.09612-0.92532 0.78081
  -6   5  -2 2452.97  200.02   1 0.37744-0.79880 0.89912-0.47724 0.22159-0.36626
   6  -5   2 2415.26  295.18   1 0.47392-0.05276 0.30936-0.73140 0.82443-0.67990
   6  -5   391786.01 2235.12   1 0.63700-0.23564-0.23781-0.20382-0.73325 0.95022
  -6   5  -390463.17 2215.00   1 0.27220-0.67429 0.24847 0.19295-0.92960 0.71280
  -6   5  -393571.35 2108.90   1 0.37503-0.77602 0.90183-0.45991 0.21457-0.43157
   6  -5   458187.76 4700.99   1 0.68102-0.30024-0.32725-0.13430-0.65506 0.94436
  -6   5  -459341.47 2119.45   1 0.33707-0.71881 0.17890 0.28240-0.92432 0.63525
  -6   5  -462496.39 2100.91   1 0.36963-0.75026 0.90761-0.44565 0.19902-0.48836
   6  -5   462542.12 2046.41   1 0.48144-0.10110 0.40458-0.86671 0.77751-0.48844
   6  -5   5 5218.39  465.26   1 0.71258-0.35217-0.40716-0.07439-0.57135 0.93297
  -6   5  -5 4529.41  490.60   1 0.38959-0.75098 0.11875 0.36243-0.91329 0.55196
  -6   5  -5 5148.50  347.69   1 0.36202-0.72227 0.91511-0.43312 0.17750-0.53918
   6  -5   5 5377.65  572.97   1 0.48232-0.12239 0.42374-0.90593 0.76668-0.40535
   6  -5   634183.08 3306.18   1 0.73306-0.39353-0.47693-0.02459-0.48492 0.91897
  -6   5  -633797.03 4203.85   1 0.43090-0.77166 0.06864 0.43287-0.89978 0.46599
  -6   5  -635353.57 3122.74   1 0.35260-0.69249 0.92341-0.42139 0.15155-0.58556
   6  -5   634950.97 3607.05   1 0.48260-0.14308 0.43130-0.93354 0.76227-0.32867
   6  -5   7 9997.80  986.59   1 0.74359-0.42444-0.53658 0.01505-0.39892 0.90532
  -6   5  -7 9777.32 1256.40   1 0.46229-0.78273 0.02872 0.49274-0.88625 0.38017
  -6   5  -710818.06  810.69   1 0.34162-0.66113 0.93187-0.40981 0.12210-0.62844
   6  -5   7 9351.83 1053.08   1 0.48256-0.16345 0.43018-0.95247 0.76293-0.25706
   6  -5   8 1936.70  179.99   1 0.74600-0.44722-0.58699 0.04546-0.31451 0.89326
  -6   5  -8 1475.07  218.27   1 0.48552-0.78562-0.00195 0.54339-0.87421 0.29583
  -6   5  -8 1836.79  211.07   1 0.32921-0.62836 0.93997-0.39788 0.08978-0.66846
   6  -5   8 1572.77  202.67   1 0.48226-0.18355 0.42225-0.96458 0.76754-0.18941
   6  -5   9 5499.43  547.32   1 0.74173-0.46351-0.62917 0.06772-0.23232 0.88349
  -6   5  -9 5166.63  683.91   1 0.50199-0.78176-0.02437 0.58576-0.86452 0.21384
  -6   5  -9 5727.18  642.50   1 0.31542-0.59411 0.94733-0.38536 0.05526-0.70606
   6  -5   9 5171.41  846.84   1 0.48165-0.20335 0.40873-0.97111 0.77520-0.12480
   6  -4  -830061.47 2560.05   1 0.61910 0.01081-0.75591 0.61065 0.21284-0.79182
   6  -4  -7  138.87   77.49   1 0.57761 0.03189-0.76069 0.59542 0.29616-0.80277
   6  -4  -7   -3.66  107.07   1-0.03046 0.64104 0.51662-0.68300-0.85566 0.35010
   6  -4  -623924.58 2209.57   1 0.52741 0.06167-0.75845 0.57318 0.38286-0.81710
   6  -4  -624620.78 2856.83   1 0.00035 0.58978 0.49312-0.67935-0.86995 0.43661
   6  -4  -5  172.42   50.58   1 0.46706 0.10133-0.74739 0.54204 0.47248-0.83422
   6  -4  -5   97.11   54.54   1 0.04100 0.52835 0.46104-0.66711-0.88642 0.52515
   6  -4  -412128.32  979.78   1 0.09305 0.45594 0.41754-0.64347-0.90387 0.61485
  -6   4   411720.19 1062.40   1-0.39592-0.15365 0.72431-0.49852-0.56445 0.85314
   6  -4  -3144859.8 3608.99   1 0.15676 0.37186 0.36095-0.60674-0.91931 0.70255
  -6   4   3147630.4 3632.40   1-0.31298-0.21595 0.68939-0.44364-0.65327 0.86979
   6  -4  -226676.41 2294.44   1 0.23144 0.27673 0.28978-0.55544-0.92868 0.78415
  -6   4   227626.89 2383.67   1-0.21878-0.28950 0.63988-0.37416-0.73666 0.88101
   6  -4  -1 1367.50  117.76   1 0.31463 0.17319 0.20353-0.48908-0.92713 0.85486
  -6   4   1 1225.38  132.27   1-0.11506-0.37287 0.57678-0.29129-0.80874 0.88097
   6  -4  -1  945.81  197.83   1 0.36812 0.11857-0.17051-0.11515 0.91400-0.98624
   6  -4   0 1024.42  100.91   1 0.40165 0.06548 0.10437-0.40979-0.90982 0.90982
  -6   4   0  830.17  101.20   1-0.00744-0.46005 0.49915-0.19381-0.86647 0.86647
  -6   4   0  827.59   99.32   1 0.29271-0.75927 0.95620-0.65077 0.00007-0.00007
   6  -4   0  737.68  140.80   1 0.45745 0.00897 0.18949-0.49507 0.86880-0.86880
   6  -4   1  790.27   73.70   1 0.48660-0.03979-0.00340-0.32197-0.87361 0.94591
  -6   4  -1  605.58   68.85   1 0.09874-0.54591 0.41264-0.08743-0.90552 0.83326
  -6   4  -1  590.35   70.05   1 0.32602-0.77220 0.94180-0.61635 0.08196-0.15427
   6  -4   1  500.66   88.47   1 0.47832-0.03226 0.35700-0.68260 0.80234-0.73007
   6  -4   2  203.67   37.42   1 0.56321-0.13706-0.11367-0.23164-0.81845 0.96309
  -6   4  -2  150.83   34.82   1 0.19720-0.62401 0.32303 0.02203-0.92561 0.78110
  -6   4  -2  214.36   29.49   1 0.33973-0.76556 0.93319-0.58767 0.11713-0.26180
   6  -4   2  115.12   32.43   1 0.48303-0.05737 0.44502-0.79066 0.75408-0.60954
   6  -4   333651.25 2633.45   1 0.62712-0.22133-0.21969-0.14561-0.74729 0.96426
  -6   4  -333871.53  991.99   1 0.28342-0.68984 0.23679 0.12827-0.92930 0.71250
  -6   4  -335402.91 3020.72   1 0.34409-0.74955 0.93007-0.56452 0.12865-0.34566
   6  -4   335547.30 2002.05   1 0.48353-0.07828 0.49297-0.85867 0.72330-0.50650
   6  -4   4 5164.68  339.32   1 0.67635-0.29111-0.31685-0.06838-0.66494 0.95424
  -6   4  -4 4731.10  608.15   1 0.35498-0.74104 0.15880 0.22614-0.92128 0.63222
  -6   4  -4 5191.24  377.09   1 0.34308-0.72817 0.93081-0.54522 0.12597-0.41531
   6  -4   4 4748.91  500.65   1 0.48340-0.09831 0.51836-0.90394 0.70541-0.41618
   6  -4   542449.39 3273.91   1 0.71099-0.34612-0.40257-0.00267-0.57656 0.93818
  -6   4  -545201.76 4677.06   1 0.41214-0.77762 0.09170 0.31349-0.90648 0.54499
  -6   4  -545770.48 4045.62   1 0.33852-0.70325 0.93403-0.52840 0.11395-0.47563
   6  -4   545455.47 1296.32   1 0.48311-0.11839 0.52860-0.93423 0.69797-0.33644
   6  -4   6 6618.81  443.07   1 0.73290-0.38889-0.47627 0.05105-0.48580 0.91986
  -6   4  -6 6364.71  740.19   1 0.45599-0.80113 0.03687 0.38828-0.88921 0.45542
  -6   4  -6 6465.63  478.04   1 0.33137-0.67572 0.93867-0.51300 0.09533-0.52935
   6  -4   6 5792.14  793.26   1 0.48310-0.13876 0.52882-0.95449 0.69781-0.26397
   6  -4   737397.48 2816.84   1 0.74378-0.42014-0.53828 0.09306-0.39627 0.90267
  -6   4  -734193.41 4401.27   1 0.48881-0.81362-0.00639 0.45150-0.87236 0.36627
  -6   4  -737855.91 2884.65   1 0.32209-0.64602 0.94396-0.49839 0.07197-0.57815
   6  -4   737112.73 1458.74   1 0.48332-0.15934 0.52167-0.96739 0.70302-0.19687
   6  -4   8  682.77  184.90   1 0.74591-0.44265-0.58989 0.12468-0.30923 0.88798
  -6   4  -8  824.30  225.64   1 0.51265-0.81712-0.03919 0.50426-0.85769 0.27931
  -6   4  -8  824.17  213.69   1 0.31110-0.61466 0.94932-0.48373 0.04456-0.62305
   6  -4   8  726.83  207.64   1 0.48335-0.18014 0.50845-0.97440 0.71262-0.13449
   6  -4   9 1242.27  144.06   1 0.74107-0.45835-0.63249 0.14734-0.22529 0.87646
  -6   4  -9 1396.90  160.93   1 0.52927-0.81341-0.06283 0.54787-0.84611 0.19543
  -6   4  -9 1321.26  153.96   1 0.29854-0.58172 0.95429-0.46867 0.01399-0.66478
   6  -4   9 1391.51  147.21   1 0.48354-0.20074 0.49082-0.97681 0.72475-0.07436
  -6   4 -10  624.63  104.85   1 0.28450-0.54731 0.95848-0.45283-0.01926-0.70383
   6  -4  10  556.11  104.41   1 0.48347-0.22108 0.46907-0.97511 0.73906-0.01640
   6  -3  -816796.27 1342.05   1 0.64455-0.01043-0.74881 0.67986 0.15437-0.73326
   6  -3  -816678.99 2260.28   1-0.09810 0.73349 0.56524-0.63542-0.81907 0.24128
   6  -3  -7 7224.45  583.90   1 0.60789 0.00606-0.75793 0.66899 0.23663-0.74324
   6  -3  -7 7181.22  674.45   1-0.07949 0.69445 0.55228-0.64231-0.82985 0.32429
   6  -3  -6 1735.52  176.22   1 0.56261 0.03092-0.76081 0.65186 0.32346-0.75770
   6  -3  -6 1965.10  229.57   1-0.05199 0.64650 0.53254-0.64243-0.84480 0.41146
   6  -3  -5 6118.37  672.60   1 0.50707 0.06604-0.75562 0.62668 0.41460-0.77647
   6  -3  -5 6752.60  726.06   1-0.01396 0.58803 0.50415-0.63389-0.86350 0.50238
   6  -3  -488510.44 2218.27   1 0.43935 0.11311-0.73992 0.59089 0.50938-0.79877
   6  -3  -484738.73 2140.80   1 0.03606 0.51726 0.46504-0.61463-0.88455 0.59553
   6  -3  -329697.13 2978.46   1 0.09993 0.43302 0.41161-0.58106-0.90586 0.68909
  -6   3   332752.02 2288.11   1-0.35844-0.17497 0.70965-0.54031-0.60655 0.82307
   6  -3  -252857.78 1568.16   1 0.17760 0.33499 0.34161-0.53091-0.92290 0.77839
  -6   3   252891.94 1550.06   1-0.26324-0.24954 0.66444-0.47514-0.69943 0.84378
   6  -3  -128101.42 2580.31   1 0.26716 0.22499 0.25368-0.46287-0.92966 0.85739
  -6   3   129094.45 3040.73   1-0.15467-0.33764 0.60270-0.39354-0.78282 0.85505
   6  -3  -125130.67  278.22   1 0.39654 0.09468-0.07852-0.13072 0.91464-0.98688
   6  -3   054062.91 1572.28   1 0.36375 0.10804 0.14880-0.37787-0.91953 0.91953
   6  -3   054689.80 1246.16   1 0.48057-0.00960 0.38912-0.61828 0.78589-0.78589
   6  -3   1 1844.22  193.30   1 0.45988-0.00870 0.03185-0.28087-0.88740 0.95970
   6  -3   1 1624.39  235.85   1 0.48297-0.03229 0.53278-0.78188 0.69489-0.62258
   6  -3   252542.27 4326.08   1 0.54725-0.11640-0.08920-0.17978-0.83219 0.97679
  -6   3  -256146.04 1617.16   1 0.19131-0.62245 0.32866-0.05992-0.92486 0.78035
   6  -3   257610.81 1451.00   1 0.47913-0.04882 0.59523-0.86438 0.64507-0.50046
   6  -3   3  579.20   67.09   1 0.61957-0.20935-0.20622-0.08275-0.75736 0.97433
  -6   3  -3  535.48   71.46   1 0.28879-0.69954 0.23115 0.05756-0.92906 0.71227
  -6   3  -3  611.70   50.46   1 0.29965-0.70958 0.95390-0.66476 0.01667-0.23360
   6  -3   3  575.56   59.72   1 0.47623-0.06630 0.62360-0.91278 0.61993-0.40301
   6  -3   422471.51 1701.82   1 0.67418-0.28448-0.31211 0.00317-0.66937 0.95867
  -6   3  -420006.57 2650.43   1 0.36885-0.75925 0.14295 0.16564-0.91842 0.62936
  -6   3  -420315.71 1892.24   1 0.30615-0.69571 0.95142-0.64227 0.03243-0.32167
   6  -3   421084.42 1625.52   1 0.47497-0.08541 0.63395-0.94318 0.61032-0.32109
   6  -3   5  356.41   66.41   1 0.71146-0.34214-0.40392 0.07499-0.57502 0.93664
  -6   3  -5  277.24   51.81   1 0.43162-0.80147 0.06773 0.26111-0.89950 0.53801
  -6   3  -5  155.50   27.32   1 0.30669-0.67587 0.95120-0.62203 0.03375-0.39530
   6  -3   5  260.89   43.59   1 0.47505-0.10586 0.63332-0.96260 0.61091-0.24938
   6  -3   682353.58 6102.39   1 0.73406-0.38555-0.48128 0.13237-0.47908 0.91313
  -6   3  -682521.80 2091.71   1 0.47873-0.82824 0.00712 0.34168-0.87793 0.44414
  -6   3  -683017.96 2057.82   1 0.30321-0.65201 0.95258-0.60338 0.02526-0.45912
   6  -3   688280.92 2065.63   1 0.47604-0.12723 0.62522-0.97454 0.61844-0.18460
   6  -3   725107.64 1662.17   1 0.74447-0.41633-0.54506 0.17615-0.38558 0.89198
  -6   3  -721994.17 3065.55   1 0.51318-0.84236-0.03994 0.40870-0.85734 0.35126
  -6   3  -722373.91 1544.10   1 0.29675-0.62517 0.95490-0.58568 0.00969-0.51587
   6  -3   723922.44 3107.58   1 0.47755-0.14912 0.61156-0.98092 0.63081-0.12466
   6  -3   8 2967.68  548.78   1 0.74557-0.43781-0.59714 0.20823-0.29587 0.87461
  -6   3  -8 2789.30  372.87   1 0.53767-0.84651-0.07503 0.46375-0.83980 0.26142
  -6   3  -8 3467.95  835.06   1 0.28793-0.59598 0.95758-0.56834-0.01122-0.56726
   6  -3   8 2929.51  522.69   1 0.47928-0.17122 0.59346-0.98287 0.64659-0.06813
   6  -3   9 2452.32  334.14   1 0.73954-0.45232-0.63939 0.23054-0.21036 0.86153
  -6   3  -9 2402.67  377.54   1 0.55449-0.84253-0.10036 0.50935-0.82611 0.17520
  -6   3  -9 2867.12  347.69   1 0.27713-0.56481 0.96014-0.55087-0.03636-0.61442
   6  -3   9 2656.75  441.11   1 0.48097-0.19328 0.57159-0.98104 0.66478-0.01402
   6  -3  10  162.96  100.90   1 0.72788-0.46105-0.67336 0.24452-0.12948 0.85301
  -6   3 -10  179.78   61.60   1 0.56513-0.83280-0.11662 0.54560-0.81671 0.09348
  -6   3 -10  419.73   75.31   1 0.26457-0.53188 0.96217-0.53288-0.06497-0.65812
   6  -3  10  281.64   98.70   1 0.48241-0.21509 0.54634-0.97583 0.68467 0.03839
   6  -2  -853470.88 5040.68   1 0.66996-0.03136-0.73716 0.74453 0.08796-0.66685
   6  -2  -851608.39 1905.13   1-0.14051 0.78028 0.59360-0.58745-0.79239 0.21460
   6  -2  -7  669.84  178.17   1 0.63894-0.02075-0.75071 0.73808 0.16786-0.67438
   6  -2  -7  889.93  237.01   1-0.12565 0.74498 0.58386-0.59756-0.80206 0.29650
   6  -2  -6  378.68   65.94   1 0.59988-0.00188-0.75902 0.72640 0.25303-0.68726
   6  -2  -6  466.45   89.71   1-0.10199 0.70088 0.56791-0.60146-0.81674 0.38340
   6  -2  -524236.53 2834.87   1 0.55081 0.02676-0.76041 0.70778 0.34405-0.70592
   6  -2  -526148.90 2576.27   1-0.06758 0.64603 0.54381-0.59722-0.83647 0.47536
   6  -2  -4   65.50   61.51   1 0.48933 0.06760-0.75237 0.67966 0.44101-0.73039
   6  -2  -4  124.05   51.04   1-0.02015 0.57816 0.50886-0.58212-0.86061 0.57171
   6  -2  -3205094.8 4540.48   1 0.41312 0.12341-0.73165 0.63896 0.54223-0.75927
   6  -2  -3200046.5 4432.93   1 0.04233 0.49496 0.45996-0.55307-0.88692 0.67016
   6  -2  -278316.91 2111.20   1 0.12189 0.39503 0.39239-0.50535-0.91168 0.76717
  -6   2   278772.36 2105.26   1-0.32020-0.19706 0.69278-0.57989-0.64615 0.79049
   6  -2  -1 7732.18  991.68   1 0.21747 0.27909 0.30342-0.43625-0.92770 0.85544
  -6   2   1 7279.39  855.15   1-0.20966-0.28696 0.63459-0.50173-0.74386 0.81603
   6  -2  -1 8063.62  117.50   1 0.47392 0.02195 0.30937-0.44210 0.82442-0.89669
   6  -2   037981.03 1058.97   1 0.32441 0.15171 0.19287-0.34558-0.92604 0.92604
  -6   2   038809.97 1079.55   1-0.08443-0.39181 0.55575-0.40307-0.82704 0.82704
   6  -2   033763.66  668.63   1 0.47223 0.00327 0.65381-0.80651 0.59119-0.59119
   6  -2   125967.06 2420.92   1 0.43360 0.02194 0.06526-0.23793-0.89873 0.97103
  -6   2  -121276.94 2364.99   1 0.04717-0.50301 0.45601-0.28347-0.88872 0.81646
   6  -2   124014.19  598.25   1 0.45893-0.00377 0.72374-0.89650 0.51533-0.44300
   6  -2   2   19.24   48.74   1 0.53366-0.09844-0.06918-0.12343-0.84286 0.98745
  -6   2  -2   56.45   46.92   1 0.17419-0.60967 0.34480-0.15240-0.92237 0.77786
   6  -2   2   29.34   33.42   1 0.45303-0.01823 0.74641-0.93922 0.48746-0.34281
   6  -2   318434.57 1725.51   1 0.61551-0.20087-0.19911-0.01354-0.76255 0.97952
  -6   2  -316472.85 1915.94   1 0.28639-0.70146 0.23367-0.02131-0.92917 0.71238
   6  -2   316917.44 1382.97   1 0.45183-0.03740 0.75064-0.96350 0.48205-0.26508
   6  -2   456588.78 1619.62   1 0.67545-0.28130-0.31488 0.08226-0.66678 0.95608
  -6   2  -456875.39 1634.25   1 0.37765-0.77238 0.13275 0.09948-0.91637 0.62731
   6  -2   454211.57 3593.73   1 0.45338-0.05932 0.74514-0.97804 0.48908-0.19978
   6  -2   557228.53 4304.16   1 0.71452-0.34075-0.41289 0.16027-0.56476 0.92638
  -6   2  -557730.11 1914.75   1 0.44770-0.82192 0.04749 0.20500-0.89291 0.53142
  -6   2  -562447.54 4981.35   1 0.26519-0.63886 0.96209-0.70927-0.06359-0.29795
   6  -2   563449.84 1687.48   1 0.45651-0.08282 0.73344-0.98639 0.50363-0.14201
   6  -2   641326.25 3202.46   1 0.73664-0.38364-0.49324 0.22064-0.46267 0.89673
  -6   2  -640051.21 1098.61   1 0.49889-0.85277-0.02010 0.29255-0.86642 0.43264
  -6   2  -639842.77 3363.00   1 0.26712-0.62042 0.96184-0.68899-0.05922-0.37464
   6  -2   642153.04 1340.76   1 0.46047-0.10714 0.71725-0.99024 0.52298-0.08903
   6  -2   7 8049.00  547.88   1 0.74544-0.41282-0.55778 0.26518-0.36495 0.87135
  -6   2  -7 7295.25  980.07   1 0.53531-0.86886-0.07159 0.36400-0.84161 0.33552
  -6   2  -7 8746.09  764.72   1 0.26469-0.59762 0.96215-0.66929-0.06470-0.44146
   6  -2   7 7902.18  907.80   1 0.46458-0.13168 0.69749-0.99050 0.54557-0.03942
   6  -2   834676.52 2278.41   1 0.74463-0.43252-0.60928 0.29673-0.27256 0.85139
  -6   2  -831329.62 3902.64   1 0.56063-0.87347-0.10971 0.42237-0.82076 0.24217
   6  -2   831681.39 3637.29   1 0.46889-0.15636 0.67460-0.98766 0.57012 0.00833
   6  -2   9 1487.02  407.48   1 0.73664-0.44492-0.65015 0.31761-0.18618 0.83735
  -6   2  -9 1398.66  366.29   1 0.57742-0.86989-0.13586 0.46852-0.80505 0.15415
   6  -2   9 1192.49  334.19   1 0.47295-0.18080 0.64889-0.98199 0.59602 0.05473
   6  -2  10  274.96  100.46   1 0.72331-0.45199-0.68244 0.32991-0.10524 0.82876
  -6   2 -10  391.13   73.52   1 0.58788-0.85999-0.15265 0.50531-0.79440 0.07118
   6  -2  10  333.95   63.75   1 0.47658-0.20480 0.62050-0.97364 0.62276 0.10030
   6  -2  1116916.45 1804.97   1 0.70595-0.45515-0.70766 0.33506-0.02899 0.82496
  -6   2 -1116506.15 2665.87   1 0.59345-0.84519-0.16175 0.53441-0.78845-0.00709
   6  -2  1117700.85 2360.49   1 0.47962-0.22822 0.58950-0.96268 0.64995 0.14542
   6  -1  -812893.54 1197.01   1 0.69395-0.05088-0.71987 0.80355 0.01416-0.59305
   6  -1  -811818.47 1747.72   1-0.17903 0.82466 0.61622-0.53291-0.76695 0.18957
   6  -1  -716326.04 1590.98   1 0.66924-0.04657-0.73757 0.80125 0.08998-0.59651
   6  -1  -716829.77 2288.29   1-0.16816 0.79314 0.60947-0.54613-0.77476 0.26955
   6  -1  -6 1890.11  168.58   1 0.63737-0.03511-0.75121 0.79489 0.17156-0.60573
   6  -1  -6 2131.26  226.20   1-0.14886 0.75212 0.59900-0.55621-0.78678 0.35344
   6  -1  -5 2392.39  356.88   1 0.59646-0.01442-0.75940 0.78309 0.25986-0.62172
   6  -1  -5 2140.33  276.87   1-0.11873 0.70155 0.57925-0.55632-0.80645 0.44533
   6  -1  -412000.30 1336.51   1 0.54386 0.01776-0.75998 0.76367 0.35586-0.64535
   6  -1  -413486.57 1370.49   1-0.07515 0.63753 0.54921-0.54613-0.83229 0.54340
   6  -1  -3  747.59   93.37   1 0.47611 0.06489-0.74953 0.73316 0.45990-0.67694
   6  -1  -3  754.89  104.43   1-0.01488 0.55682 0.50485-0.52163-0.86307 0.64640
   6  -1  -2108992.2 2704.18   1 0.06486 0.45640 0.44141-0.47803-0.89495 0.75044
  -6   1   2110894.7 2735.03   1-0.38977-0.13199 0.72204-0.68556-0.57160 0.71594
   6  -1  -1269337.3 4710.87   1 0.16576 0.33513 0.35264-0.40913-0.92095 0.84870
  -6   1   1273227.9 4762.48   1-0.28141-0.21970 0.67388-0.61744-0.68313 0.75531
   6  -1  -1256486.5 4021.86   1 0.39777 0.10257 0.87265-0.92897 0.28330-0.35563
   6  -1  -1268129.6 4190.83   1 0.37311 0.12720-0.15524 0.09880 0.91470-0.98694
   6  -1   014366.56 1347.17   1 0.28385 0.19660 0.23633-0.31269-0.92928 0.92928
  -6   1   014605.64 1451.84   1-0.15101-0.32960 0.60037-0.52403-0.78533 0.78533
   6  -1   012731.19  375.17   1 0.38722 0.09275 0.88724-0.96360 0.25070-0.25070
   6  -1   012991.70  374.97   1 0.14150 0.33791-0.65437 0.57796 0.74281-0.74281
   6  -1   178049.92 1675.07   1 0.40853 0.05139 0.09608-0.19240-0.90767 0.97996
  -6   1  -177551.80 1684.54   1-0.00564-0.45453 0.49777-0.40158-0.86729 0.79506
   6  -1   2 1299.39  142.79   1 0.52394-0.08434-0.05517-0.06109-0.84996 0.99456
  -6   1  -2 1502.24  171.48   1 0.14107-0.58088 0.37524-0.25918-0.91612 0.77162
   6  -1   2 1522.20  160.13   1 0.39740 0.04183 0.87318-0.98962 0.28215-0.13748
   6  -1   3  160.07   31.74   1 0.61658-0.19751-0.20098 0.06465-0.76119 0.97816
  -6   1  -3   16.53   46.31   1 0.27303-0.69243 0.24762-0.11161-0.92959 0.71279
   6  -1   4127964.6 2531.13   1 0.68131-0.28271-0.32791 0.17160-0.65443 0.94372
  -6   1  -4128163.7 2544.78   1 0.37969-0.77875 0.13037 0.02550-0.91587 0.62681
   6  -1   4128472.0 2481.01   1 0.41606-0.01755 0.84181-0.99835 0.34385-0.05456
   6  -1   5237812.5 5295.73   1 0.72058-0.34235-0.43171 0.25540-0.54256 0.90419
  -6   1  -5231948.6 5171.64   1 0.45959-0.83818 0.03223 0.14390-0.88754 0.52605
   6  -1   5238475.4 5263.54   1 0.42574-0.04759 0.82214-0.99873 0.37791-0.01629
   6  -1   612559.76  892.76   1 0.74041-0.38292-0.51369 0.31740-0.43348 0.86753
  -6   1  -610138.84 1457.15   1 0.51614-0.87440-0.04410 0.24019-0.85536 0.42157
   6  -1   610787.43 1285.72   1 0.43510-0.07732 0.80014-0.99678 0.41285 0.02109
   6  -1   716912.67 1216.94   1 0.74609-0.40898-0.57734 0.36105-0.33167 0.83807
  -6   1  -716254.84 2006.46   1 0.55518-0.89281-0.10140 0.31774-0.82552 0.31926
   6  -1   714927.86 1546.95   1 0.44395-0.10653 0.77592-0.99260 0.44815 0.05811
   6  -1   831980.20 2054.36   1 0.74219-0.42558-0.62668 0.39043-0.23753 0.81635
  -6   1  -831326.40 3949.68   1 0.58124-0.89850-0.14195 0.37828-0.80124 0.22266
   6  -1   830357.18 3421.32   1 0.45215-0.13510 0.74952-0.98625 0.48348 0.09510
   6  -1   9 3272.71  232.17   1 0.73152-0.43531-0.66487 0.40863-0.15101 0.80219
  -6   1  -9 3181.41  464.70   1 0.59815-0.89505-0.16953 0.42587-0.78324 0.13233
   6  -1   9 3218.34  469.88   1 0.45960-0.16292 0.72095-0.97773 0.51863 0.13227
   6  -1  1011699.83  862.60   1 0.71604-0.44022-0.69442 0.41819-0.07102 0.79455
  -6   1 -10 9904.07 1413.69   1 0.60841-0.88495-0.18685 0.46318-0.77130 0.04807
   6  -1  1011291.86 1092.70   1 0.46601-0.18977 0.69027-0.96706 0.55348 0.16959
   6  -1  1141308.10 3885.42   1 0.69703-0.44175-0.71703 0.42073 0.00361 0.79235
  -6   1 -1139296.36 1532.02   1 0.61370-0.86988-0.19596 0.49230-0.76482-0.03072
   6  -1  1140842.12 1474.51   1 0.47171-0.21584 0.65726-0.95410 0.58777 0.20760
   6   0  -8  888.05  135.20   1 0.71495-0.06759-0.69602 0.85596-0.06623-0.51259
   6   0  -8  711.65  122.77   1-0.21341 0.86352 0.63677-0.47705-0.74092 0.16355
   6   0  -7 4145.20  296.95   1 0.69695-0.06981-0.71710 0.85709 0.00388-0.51040
   6   0  -7 4032.62  513.14   1-0.20649 0.83596 0.63273-0.49297-0.74633 0.24112
   6   0  -653786.08 4414.18   1 0.67292-0.06619-0.73542 0.85541 0.07953-0.51370
   6   0  -659882.46 5577.80   1-0.19150 0.80032 0.62380-0.50401-0.75775 0.32472
   6   0  -655520.71 1581.29   1 0.30729 0.29949 0.95096-0.83083 0.03519-0.46905
  -6   0   658111.12 1670.56   1 0.22180-0.82910-0.51794 0.39801 0.82616-0.39264
   6   0  -5 8319.99  646.72   1 0.64131-0.05498-0.74993 0.84993 0.16221-0.52401
   6   0  -5 7508.71  758.89   1-0.16616 0.75434 0.60822-0.50840-0.77617 0.41531
   6   0  -5 7133.58  230.51   1 0.35695 0.22933 0.91970-0.81953 0.16346-0.52513
  -6   0   5 7713.86  267.29   1 0.16603-0.75278-0.61571 0.51577 0.77028-0.40902
   6   0  -4 6372.47  554.83   1 0.59964-0.03356-0.75905 0.83906 0.25350-0.54299
   6   0  -4 7140.02  737.84   1-0.12762 0.69437 0.58516-0.50575-0.80080 0.51191
   6   0  -4 5131.74  587.81   1 0.41305 0.15285 0.84739-0.76721 0.33361-0.62291
   6   0  -379268.34 4716.45   1 0.54424 0.00141-0.76001 0.82002 0.35521-0.57233
   6   0  -381093.30 2090.15   1-0.07116 0.61748 0.54637-0.48681-0.83450 0.61783
   6   0  -382362.84 1672.19   1 0.46753 0.07802 0.68221-0.62207 0.56213-0.77905
   6   0  -264813.66 3781.23   1 0.47001 0.05505-0.74811 0.78808 0.46841-0.61310
   6   0  -266116.89 1793.97   1 0.00763 0.51823 0.48744-0.44774-0.87311 0.72867
   6   0  -266502.06 1450.35   1 0.47811 0.04716 0.35441-0.31431 0.80361-0.94814
   6   0  -158530.90 1386.21   1 0.11239 0.39284 0.40076-0.38091-0.90925 0.83700
  -6   0   158206.44 1380.13   1-0.37117-0.13443 0.71484-0.73481-0.59264 0.66481
   6   0  -161125.64 1124.83   1 0.39257 0.11228-0.09218 0.11215 0.91508-0.98732
   6   0   0145573.5 2700.35   1 0.24239 0.24239 0.27885-0.27885-0.92923 0.92923
  -6   0   0143466.4 2696.72   1-0.24248-0.24248 0.65323-0.65323-0.71727 0.71727
   6   0   0146898.7 2510.36   1 0.24200 0.24200-0.47879 0.47879 0.84391-0.84391
   6   0   1293783.7 4425.05   1 0.38580 0.07863 0.12321-0.14309-0.91431 0.98657
  -6   0  -1285439.0 4322.91   1-0.08608-0.37847 0.55690-0.53705-0.82610 0.75388
   6   0   1286165.4 4145.79   1 0.28303 0.18112 0.95884-0.97886-0.02268 0.09499
   6   0   216321.80 1498.94   1 0.52043-0.07647-0.05018 0.01026-0.85242 0.99701
  -6   0  -215641.88 2058.33   1 0.08387-0.52801 0.42540-0.38568-0.90111 0.75660
   6   0   213909.66 1372.15   1 0.31505 0.12873 0.94751-0.98756 0.05433 0.09028
   6   0   3  195.64   31.28   1 0.62516-0.20166-0.21617 0.15617-0.74995 0.96692
  -6   0  -3  204.32   29.27   1 0.24307-0.66680 0.27817-0.21853-0.92926 0.71246
   6   0   3  155.28   25.44   1 0.34147 0.08186 0.93197-0.99207 0.12172 0.09528
   6   0   465494.16 1468.55   1 0.69300-0.28994-0.35532 0.27532-0.62728 0.91658
  -6   0  -465531.10 1479.13   1 0.37200-0.77538 0.13931-0.05979-0.91771 0.62865
   6   0   466508.12 1482.63   1 0.36384 0.03912 0.91337-0.99351 0.18262 0.10671
   6   0   5 6993.57  513.38   1 0.72973-0.34738-0.46342 0.36343-0.50271 0.86442
  -6   0  -5 5949.79  826.01   1 0.46600-0.84896 0.02390 0.07587-0.88446 0.52297
   6   0   5 6559.43  725.80   1 0.38325-0.00064 0.89224-0.99241 0.23877 0.12289
   6   0   6132223.0 3040.98   1 0.74440-0.38242-0.54435 0.42436-0.38671 0.82077
  -6   0  -6129512.2 2986.81   1 0.52995-0.89258-0.06381 0.18354-0.84562 0.41183
   6   0   6133369.8 3073.16   1 0.40031-0.03807 0.86883-0.98903 0.29134 0.14266
   6   0   7222510.2 2471.57   1 0.74508-0.40359-0.60454 0.46459-0.28173 0.78820
  -6   0  -7216208.7 4941.56   1 0.57228-0.91434-0.12775 0.26776-0.81004 0.30378
   6   0   7217353.3 4946.11   1 0.41531-0.07344 0.84323-0.98355 0.34127 0.16498
   6   0   8 2145.37  247.72   1 0.73683-0.41573-0.64950 0.48956-0.18765 0.76647
  -6   0  -8 1883.73  280.49   1 0.59952-0.92121-0.17182 0.33182-0.78169 0.20311
   6   0   8 4912.64  788.00   1 0.42868-0.10718 0.81556-0.97593 0.38868 0.18990
   6   0   9  241.79   71.03   1 0.72281-0.42210-0.68335 0.50342-0.10274 0.75391
  -6   0  -9  210.20   63.42   1 0.61662-0.91795-0.20105 0.38105-0.76115 0.11024
   6   0   9  219.79   48.91   1 0.44051-0.13937 0.78580-0.96621 0.43412 0.21678
   6   0  10 5007.21  396.55   1 0.70494-0.42478-0.70881 0.50883-0.02515 0.74876
  -6   0 -10 4918.59  763.09   1 0.62670-0.90767-0.21894 0.41895-0.74786 0.02463
   6   0  10 5069.25  593.73   1 0.45088-0.17011 0.75391-0.95437 0.47782 0.24541
   6   0  11  934.27  105.86   1 0.68403-0.42428-0.72797 0.50799 0.04635 0.74961
  -6   0 -11 1071.22  181.69   1 0.63172-0.89232-0.22806 0.44806-0.74088-0.05466
   6   0  11 1154.57  143.02   1 0.45986-0.19946 0.71983-0.94034 0.51995 0.27560
   6   1  -8 4872.79  631.61   1 0.73167-0.07980-0.66451 0.90076-0.15190-0.42691
   6   1  -8 4539.06 1080.37   1-0.24332 0.89792 0.65369-0.41756-0.71657 0.13919
   6   1  -712592.92 1505.90   1 0.72002-0.08855-0.68819 0.90444-0.08917-0.41729
   6   1  -711478.08 2153.36   1-0.24026 0.87422 0.65201-0.43584-0.71913 0.21392
  -6  -1   713242.32  507.81   1 0.27971-0.91189-0.39911 0.18320 0.87319-0.36727
   6   1  -614659.38 1556.28   1 0.70399-0.09278-0.70987 0.90617-0.02157-0.41259
   6   1  -615333.41 1396.61   1-0.22969 0.84300 0.64610-0.44989-0.72787 0.29483
   6   1  -613860.53 1241.98   1 0.38928 0.22183 0.88453-0.68796 0.25699-0.69100
  -6  -1   615043.73  510.00   1 0.25915-0.87104-0.44381 0.24748 0.85782-0.42431
   6   1  -5 2584.47  299.72   1 0.68213-0.09133-0.72936 0.90566 0.05223-0.41404
   6   1  -5 2873.48  374.59   1-0.20932 0.80199 0.63439-0.45815-0.74413 0.38327
   6   1  -5 2270.22  447.63   1 0.42976 0.16096 0.81308-0.63649 0.39267-0.75429
  -6  -1   5 1460.70  639.83   1 0.22680-0.81813-0.50845 0.33210 0.83068-0.46942
   6   1  -4 2635.00  224.34   1 0.65258-0.08219-0.74570 0.90200 0.13438-0.42382
   6   1  -4 2597.31  271.90   1-0.17583 0.74786 0.61424-0.45797-0.76927 0.48058
   6   1  -4 2652.97  198.22   1 0.46437 0.10601 0.69853-0.54200 0.54443-0.83366
  -6  -1   4 1774.44  559.55   1 0.17989-0.75068-0.59273 0.43637 0.78505-0.49604
   6   1  -3 1786.74  205.06   1 0.61224-0.06213-0.75722 0.89355 0.22752-0.44464
   6   1  -3 1832.29  183.10   1-0.12498 0.67567 0.58341-0.44752-0.80249 0.58582
   6   1  -3 1668.49  293.82   1 0.48336 0.06665 0.52012-0.38364 0.70415-0.92107
  -6  -1   3 1424.66  349.54   1 0.11769-0.66793-0.68955 0.55318 0.71460-0.49784
   6   1  -212194.94 1211.11   1 0.55600-0.02630-0.76064 0.87696 0.33508-0.47982
   6   1  -212947.47 1282.99   1-0.04913 0.57938 0.53046-0.41441-0.84628 0.70183
   6   1  -212061.06  328.70   1 0.46868 0.06112 0.26598-0.14953 0.84237-0.98686
   6   1  -1315322.5 6733.73   1 0.47596 0.03317-0.74950 0.84580 0.46011-0.53245
   6   1  -1306451.1 6533.63   1 0.05802 0.45155 0.44709-0.35089-0.89260 0.82034
   6   1  -1307713.9 6360.39   1 0.40649 0.10290-0.04299 0.13937 0.91264-0.98487
   6   1   0122511.4 2293.87   1 0.20066 0.28853 0.31971-0.24337-0.92601 0.92602
  -6  -1   0125826.5 2372.67   1-0.36169-0.12776 0.71099-0.78740-0.60304 0.60304
   6   1   0128107.6 2288.63   1 0.30397 0.18468-0.34322 0.41963 0.88870-0.88870
   6   1   1 6559.30  720.99   1 0.36758 0.10117 0.14441-0.08793-0.91870 0.99097
  -6  -1  -1 6861.77  735.77   1-0.20421-0.26459 0.63139-0.68783-0.74809 0.67591
   6   1   1 6991.55  743.48   1 0.18968 0.27835-0.57598 0.63241 0.79514-0.72289
   6   1   258353.55 1089.21   1 0.52720-0.07886-0.05985 0.09629-0.84762 0.99222
  -6  -1  -257656.35 1095.56   1-0.01155-0.43693 0.50230-0.53893-0.86461 0.72016
   6   1   3 7024.06  583.97   1 0.64473-0.21679-0.25241 0.26873-0.72152 0.93849
  -6  -1  -3 8584.48 1171.61   1 0.18553-0.61364 0.33414-0.35091-0.92408 0.70731
   6   1   3 7229.24  592.39   1 0.26503 0.16287 0.96211-0.94582-0.06393 0.28086
   6   1   431197.46 2380.13   1 0.71133-0.30382-0.40355 0.39987-0.57545 0.86475
  -6  -1  -430939.20  821.11   1 0.34892-0.75662 0.16565-0.16248-0.92239 0.63333
   6   1   430068.29 2687.36   1 0.30100 0.10652 0.95341-0.95714 0.01993 0.26930
   6   1   5339026.8 2499.96   1 0.74007-0.35322-0.51163 0.48796-0.43648 0.79820
  -6  -1  -5338492.8 7172.75   1 0.46458-0.85192 0.02575-0.00232-0.88515 0.52366
   6   1   5338769.2 2686.42   1 0.33152 0.05555 0.93857-0.96238 0.09573 0.26594
   6   1   6104094.6 2447.41   1 0.74600-0.37953-0.58675 0.54307-0.31495 0.74901
  -6  -1  -6100800.8 2381.78   1 0.53942-0.90642-0.07761 0.12099-0.83844 0.40466
   6   1   6104523.4 2500.30   1 0.35749 0.00921 0.91923-0.96307 0.16494 0.26906
   6   1   7  567.63   73.39   1 0.73951-0.39352-0.63949 0.57584-0.21014 0.71661
  -6  -1  -7  641.62  101.89   1 0.58641-0.93290-0.15027 0.21394-0.79594 0.28968
   6   1   7  762.43  126.34   1 0.37991-0.03357 0.89626-0.96014 0.22886 0.27748
   6   1   837107.05 2972.87   1 0.72601-0.40041-0.67726 0.59362-0.11922 0.69805
  -6  -1  -839358.58 1484.67   1 0.61530-0.94143-0.19875 0.28242-0.76281 0.18423
   6   1   838225.58 4091.41   1 0.39939-0.07342 0.87021-0.95413 0.28844 0.29023
   6   1   917447.01 1102.59   1 0.70844-0.40339-0.70470 0.60103-0.03870 0.68995
  -6  -1  -917777.30 1757.10   1 0.63277-0.93853-0.22998 0.33366-0.73939 0.08849
   6   1   915441.44 1719.50   1 0.41627-0.11069 0.84141-0.94546 0.34458 0.30632
   6   1  10 4063.19  297.29   1 0.68799-0.40336-0.72492 0.60125 0.03382 0.68978
  -6  -1 -10 4121.43  477.11   1 0.64272-0.92812-0.24858 0.37226-0.72463 0.00141
   6   1  10 3945.69  444.76   1 0.43106-0.14584 0.81004-0.93414 0.39751 0.32572
   6   1  1142849.83 3740.26   1 0.66548-0.40125-0.73962 0.59595 0.10039 0.69557
  -6  -1 -1143846.20 1658.07   1 0.64750-0.91253-0.25773 0.40141-0.71715-0.07839
   6   1  1145341.80 1651.33   1 0.44386-0.17901 0.77618-0.92033 0.44779 0.34776
   6   1  1224221.67 2854.27   1 0.64122-0.39741-0.74996 0.58629 0.16241 0.70591
  -6  -1 -1224940.66 4164.04   1 0.64845-0.89312-0.25958 0.42326-0.71562-0.15224
   6   1  1224678.08 2746.34   1 0.45483-0.21035 0.73983-0.90402 0.49575 0.37213
   6   2  -737689.60 5060.31   1 0.73676-0.10080-0.64972 0.94227-0.18716-0.31929
   6   2  -738951.48 1521.24   1-0.26911 0.90756 0.66753-0.37495-0.69423 0.18903
   6   2  -738447.10 1185.44   1 0.39177 0.24419 0.88119-0.58822 0.26460-0.77094
  -6  -2   740248.02 1309.18   1 0.28700-0.92372-0.38275 0.09043 0.87813-0.37222
   6   2  -6  213.81   85.87   1 0.72790-0.11233-0.67330 0.94587-0.12963-0.30448
   6   2  -6   77.84   76.37   1-0.26280 0.88060 0.66421-0.39160-0.69982 0.26678
   6   2  -6  111.02   36.19   1 0.42679 0.18876 0.81983-0.54684 0.38173-0.81567
  -6  -2   6   34.42   47.06   1 0.27312-0.88934-0.41361 0.14122 0.86851-0.43487
   6   2  -5 2950.45  309.62   1 0.71525-0.12006-0.69559 0.94816-0.06753-0.29422
   6   2  -5 2803.83  448.93   1-0.24739 0.84455 0.65592-0.40327-0.71313 0.35227
   6   2  -5 2807.29  296.16   1 0.45680 0.13838 0.73231-0.47937 0.50501-0.86663
  -6  -2   5 2377.23  535.94   1 0.25058-0.84650-0.46150 0.20874 0.85101-0.48974
   6   2  -428169.55 1615.08   1 0.69775-0.12289-0.71633 0.94894 0.00106-0.29051
   6   2  -430498.32 3154.89   1-0.21952 0.79604 0.64030-0.40762-0.73608 0.44739
   6   2  -429094.81  984.67   1 0.47763 0.09722 0.61080-0.37793 0.63148-0.92071
  -6  -2   429373.17 1062.11   1 0.21822-0.79359-0.52465 0.29188 0.82286-0.53386
   6   2  -3  286.65   53.17   1 0.67323-0.11877-0.73523 0.94785 0.07866-0.29574
   6   2  -3   50.04   35.33   1-0.17396 0.72984 0.61309-0.40037-0.77061 0.55410
   6   2  -3  147.08   25.71   1 0.48308 0.07160 0.44726-0.23434 0.75271-0.96951
  -6  -2   3   68.15   30.15   1 0.17467-0.72950-0.60147 0.38869 0.77956-0.56280
   6   2  -2218133.1 4604.97   1 0.63819-0.10414-0.75095 0.94357 0.16963-0.31436
   6   2  -2210343.5 4453.89   1-0.10374 0.63836 0.56911-0.37673-0.81568 0.67124
   6   2  -2224052.3 4484.80   1 0.46521 0.06910 0.24016-0.04733 0.85199-0.99648
  -6  -2   2221575.1 4543.19   1 0.12017-0.65444-0.68599 0.49319 0.71761-0.57310
   6   2  -153847.98 1438.18   1 0.58597-0.07223-0.76028 0.93293 0.28036-0.35273
   6   2  -153690.09 1424.60   1 0.00421 0.50996 0.49012-0.31759-0.87164 0.79941
   6   2  -154927.29 1369.85   1 0.41819 0.09574 0.00170 0.17108 0.90835-0.98059
   6   2   0 8901.82  999.71   1 0.50390-0.01069-0.75508 0.90771 0.41944-0.41944
   6   2   0 8314.60  921.19   1 0.15950 0.33403 0.35843-0.20575-0.91982 0.91982
   6   2   0 8727.03  862.07   1 0.34448 0.14871-0.23949 0.39231 0.90772-0.90772
   6   2   167287.00 1328.48   1 0.35761 0.11547 0.15581-0.02298-0.92077 0.99304
  -6  -2  -167935.14 1351.46   1-0.37106-0.10224 0.71480-0.84765-0.59276 0.52059
   6   2   166376.83 1424.14   1 0.25619 0.21643-0.44998 0.58281 0.85550-0.78324
   6   2   210425.99  951.12   1 0.55215-0.09942-0.09683 0.20949-0.82809 0.97274
  -6  -2  -210017.37  351.40   1-0.16850-0.28416 0.60968-0.72258-0.77452 0.63017
   6   2   2 9438.91 1159.23   1 0.16869 0.28338-0.61136 0.72421 0.77315-0.62865
   6   2   3  595.26   57.10   1 0.68000-0.24766-0.32497 0.41760-0.65725 0.87422
  -6  -2  -3  589.98   95.73   1 0.07727-0.50972 0.43099-0.52410-0.89904 0.68227
   6   2   431643.62  770.97   1 0.73440-0.32269-0.48279 0.55543-0.47702 0.76639
  -6  -2  -433290.66  799.15   1 0.29819-0.71023 0.22118-0.29437-0.92852 0.63945
  -6  -2  -520429.02  557.00   1 0.45069-0.84240 0.04368-0.09661-0.89161 0.53012
   6   2   643647.57 3431.81   1 0.73911-0.36823-0.64114 0.67378-0.20651 0.64063
  -6  -2  -642706.67 1192.92   1 0.54296-0.91433-0.08282 0.04985-0.83566 0.40187
   6   2   643853.39 3926.06   1 0.30956 0.06171 0.95000-0.91742 0.04076 0.39309
   6   2   781249.79 5757.47   1 0.72414-0.37365-0.68091 0.69356-0.10944 0.61591
  -6  -2  -782335.85 2120.52   1 0.59700-0.94791-0.16762 0.15497-0.78453 0.27827
   6   2   785087.97 2259.16   1 0.33953 0.01127 0.93333-0.92085 0.11660 0.38974
   6   2   8 5053.10  474.51   1 0.70560-0.37566-0.70806 0.70070-0.02765 0.60653
  -6  -2  -8 5424.31  819.06   1 0.62837-0.95892-0.22195 0.22930-0.74557 0.16699
   6   2   8 5234.33  673.86   1 0.36539-0.03495 0.91187-0.91942 0.18698 0.39169
   6   2   922156.69 1517.51   1 0.68489-0.37536-0.72733 0.69996 0.04367 0.60757
  -6  -2  -921593.92 2243.20   1 0.64648-0.95667-0.25578 0.28313-0.71876 0.06786
   6   2   921279.53 2092.70   1 0.38789-0.07781 0.88637-0.91396 0.25274 0.39827
   6   2  10  806.05  124.90   1 0.66275-0.37363-0.74103 0.69367 0.10781 0.61580
  -6  -2 -10  688.25  105.80   1 0.65644-0.94627-0.27534 0.32269-0.70232-0.02090
   6   2  10  644.00  115.74   1 0.40746-0.11775 0.85735-0.90497 0.31450 0.40884
   6   2  11  642.14  129.12   1 0.63937-0.37067-0.75057 0.68321 0.16683 0.62914
  -6  -2 -11  784.43  105.46   1 0.66104-0.93050-0.28464 0.35199-0.69426-0.10128
   6   2  11  922.62  107.36   1 0.42435-0.15504 0.82514-0.89293 0.37291 0.42264
   6   2  1218742.93 2096.06   1 0.61475-0.36643-0.75677 0.66937 0.22221 0.64626
  -6  -2 -1220464.67 3070.58   1 0.66191-0.91090-0.28624 0.37360-0.69276-0.17512
   6   2  1220342.55 2364.92   1 0.43900-0.19006 0.78992-0.87776 0.42811 0.43976
   6   3  -7 5178.27  684.54   1 0.74534-0.10487-0.60131 0.97016-0.28790-0.21856
   6   3  -7 4154.15  955.82   1-0.29273 0.93567 0.67958-0.31059-0.67265 0.16745
   6   3  -7 4287.86  568.73   1 0.41711 0.22326 0.83980-0.47041 0.34747-0.85373
  -6  -3   7 2046.09 1287.01   1 0.28680-0.92808-0.38319 0.01446 0.87800-0.37209
   6   3  -618794.53 1773.16   1 0.74252-0.12245-0.62474 0.97361-0.24154-0.19257
   6   3  -615722.18 3324.30   1-0.29040 0.91270 0.67842-0.32939-0.67483 0.24180
   6   3  -617937.16 1482.06   1 0.44594 0.17406 0.76991-0.42056 0.45646-0.89040
  -6  -3   618705.65  909.05   1 0.27667-0.89744-0.40583 0.05703 0.87105-0.43741
   6   3  -5 3538.68  852.47   1 0.73752-0.13784-0.64711 0.97599-0.19311-0.16864
   6   3  -5 3059.25  618.70   1-0.27972 0.88137 0.67302-0.34396-0.68468 0.32382
   6   3  -5 3600.31  869.34   1 0.46825 0.13143 0.67822-0.34895 0.56633-0.92787
  -6  -3   5 2659.63  549.82   1 0.25977-0.86028-0.44251 0.11333 0.85831-0.49705
   6   3  -4 2574.45  371.78   1 0.72999-0.15070-0.66860 0.97748-0.14169-0.14771
   6   3  -4 2438.08  419.64   1-0.25744 0.83845 0.66136-0.35226-0.70449 0.41580
   6   3  -4 2572.48  253.63   1 0.48168 0.09763 0.56034-0.25111 0.67379-0.96302
  -6  -3   4 2176.13  391.58   1 0.23547-0.81543-0.49167 0.18249 0.83833-0.54932
   6   3  -329437.56 2449.71   1 0.71929-0.16039-0.68939 0.97828-0.08574-0.13130
   6   3  -333439.20 3276.86   1-0.21819 0.77856 0.63954-0.35041-0.73713 0.52062
   6   3  -333034.67 2659.99   1 0.48189 0.07729 0.41370-0.12439 0.77241-0.98921
  -6  -3   332088.20 1179.37   1 0.20262-0.76203-0.55319 0.26399 0.80803-0.59127
   6   3  -299716.83 2436.57   1 0.70421-0.16569-0.70963 0.97856-0.02239-0.12232
   6   3  -2101547.4 2457.22   1-0.15440 0.69339 0.60253-0.33382-0.78301 0.63856
   6   3  -2100547.0 2343.46   1 0.46508 0.07374 0.23922 0.03000 0.85233-0.99682
  -6  -3   299752.68 2429.50   1 0.16080-0.69966-0.62415 0.35495 0.76456-0.62006
   6   3  -1 2352.37  265.18   1 0.68184-0.16373-0.72956 0.97849 0.05310-0.12546
   6   3  -1 2015.17  272.35   1-0.04815 0.56670 0.52974-0.28087-0.84679 0.77456
   6   3  -1 2513.56  399.41   1 0.42853 0.08994 0.04442 0.20476 0.90243-0.97466
  -6  -3   1 2253.54  259.00   1 0.11066-0.62897-0.69952 0.45030 0.70598-0.63373
   6   3   090753.50 2072.08   1 0.12057 0.37729 0.39356-0.16454-0.91135 0.91135
   6   3   091363.84 2189.07   1 0.37316 0.12489-0.15510 0.38432 0.91471-0.91471
   6   3   1  125.40   19.08   1 0.57812-0.10075-0.76067 0.96963 0.29521-0.22284
   6   3   1  164.19   28.26   1 0.36420 0.11321 0.14829 0.06089-0.91943 0.99170
   6   3   1  249.32   42.61   1 0.30488 0.17235-0.34102 0.55032 0.88923-0.81696
   6   3   249567.98  609.62   1 0.43050 0.02638-0.73725 0.92624 0.52068-0.37599
   6   3   246297.86  855.80   1 0.61343-0.15628-0.19549 0.38448-0.76516 0.90980
   6   3   246822.15 1164.80   1 0.23232 0.22433-0.49782 0.68708 0.83558-0.69107
  -6  -3  -344178.37  835.00   1-0.14459-0.29218 0.59625-0.76570-0.78966 0.57299
   6   3   345606.07 1187.15   1 0.16367 0.27244-0.61953 0.78881 0.76771-0.55095
   6   3   433478.29  553.56   1 0.74481-0.32866-0.60742 0.75636-0.27618 0.56559
  -6  -3  -433644.61  543.23   1 0.18628-0.60270 0.33343-0.48302-0.92418 0.63516
   6   3   5 8236.26  324.38   1 0.72956-0.33379-0.66961 0.79856-0.13911 0.50087
  -6  -3  -5 8312.61  316.03   1 0.41340-0.80948 0.09018-0.21946-0.90607 0.54458
   6   3   639203.53 1087.66   1 0.70980-0.33457-0.70300 0.81195-0.04416 0.47832
   6   3   732876.72 2678.62   1 0.68930-0.33448-0.72386 0.81280 0.02959 0.47693
  -6  -3  -735984.41  843.26   1 0.60301-0.95836-0.17768 0.08870-0.77768 0.27142
   6   3   735444.05 3699.67   1 0.29670 0.05869 0.95492-0.86600 0.00959 0.49657
   6   3   849096.99 3667.82   1 0.66859-0.33418-0.73793 0.80688 0.09179 0.48709
   6   3   854989.83 1928.23   1 0.32864 0.00627 0.94031-0.87150 0.08833 0.49035
   6   3   9 5955.59  416.65   1 0.64748-0.33348-0.74773 0.79667 0.14717 0.50407
  -6  -3  -9 5858.88  783.34   1 0.65762-0.97223-0.27769 0.22872-0.70029 0.04939
   6   3   9 5770.12  594.35   1 0.35647-0.04193 0.92012-0.87134 0.16214 0.48887
   6   3  1010327.79  749.77   1 0.62570-0.33209-0.75443 0.78336 0.19832 0.52540
  -6  -3 -1011123.34 1338.13   1 0.66787-0.96206-0.29861 0.26965-0.68174-0.04149
   6   3  1010201.27 1128.61   1 0.38084-0.08666 0.89516-0.86641 0.23161 0.49174
   6   3  11  176.12   60.17   1 0.60308-0.32989-0.75862 0.76755 0.24653 0.54957
  -6  -3 -11   67.99   37.13   1 0.67241-0.94623-0.30828 0.29933-0.67291-0.12265
   6   3  11   67.81   60.25   1 0.40212-0.12831 0.86602-0.85731 0.29714 0.49854
   6   3  12   57.46   57.49   1 0.57944-0.32666-0.76062 0.74955 0.29274 0.57572
  -6  -3 -12   55.80   66.49   1 0.67311-0.92655-0.30979 0.32083-0.67152-0.19636
   6   4  -635634.97 3738.62   1 0.74577-0.12132-0.56418 0.98940-0.35427-0.07978
   6   4  -639262.28 1872.54   1-0.31218 0.93897 0.68902-0.26358-0.65405 0.22101
   6   4  -636360.01 2927.29   1 0.45619 0.16827 0.73468-0.30897 0.50212-0.93606
  -6  -4   639555.50 1821.63   1 0.27455-0.89987-0.41050-0.01470 0.86954-0.43590
   6   4  -5 1097.16  148.17   1 0.74606-0.14198-0.58377 0.98900-0.32029-0.04142
   6   4  -5  937.51  192.99   1-0.30583 0.91197 0.68598-0.28051-0.66021 0.29935
   6   4  -5 1080.43  162.49   1 0.47365 0.13050 0.64391-0.23829 0.60084-0.96238
  -6  -4   5  622.31  220.37   1 0.26146-0.86628-0.43859 0.03331 0.85980-0.49843
   6   4  -416271.20 1706.47   1 0.74531-0.16152-0.60168 0.98686-0.28719-0.00221
   6   4  -416432.13 1626.44   1-0.28880 0.87430 0.67761-0.29211-0.67633 0.38764
   6   4  -417156.20 1202.42   1 0.48296 0.10082 0.53306-0.14748 0.69468-0.98391
  -6  -4   415456.34 1818.66   1 0.24209-0.82664-0.47860 0.09300 0.84399-0.55498
   6   4  -3 5259.91  421.08   1 0.74361-0.18021-0.61766 0.98285-0.25597 0.03892
   6   4  -3 4496.20  827.50   1-0.25581 0.82066 0.66048-0.29494-0.70591 0.48939
   6   4  -3 5453.19  427.44   1 0.48128 0.08240 0.40159-0.03589 0.77915-0.99595
  -6  -4   3 4095.40  761.20   1 0.21605-0.78004-0.52870 0.16309 0.82084-0.60409
   6   4  -220435.10 1063.70   1 0.74129-0.19828-0.63144 0.97663-0.22752 0.08282
   6   4  -219471.39 2407.28   1-0.19715 0.74136 0.62720-0.28162-0.75349 0.60914
   6   4  -221887.21 1984.62   1 0.46670 0.07663 0.25095 0.09467 0.84806-0.99255
  -6  -4   219646.46  694.32   1 0.18266-0.72610-0.58804 0.24242 0.78793-0.64342
   6   4  -1128733.1 2906.03   1 0.73884-0.21623-0.64219 0.96740-0.20417 0.13182
   6   4  -1134167.5 3000.46   1-0.09653 0.61945 0.56416-0.23896-0.81999 0.74777
   6   4  -1132454.3 3061.79   1 0.43785 0.08507 0.08609 0.23950 0.89491-0.96716
  -6  -4   1133432.1 3191.99   1 0.14195-0.66485-0.65367 0.32804 0.74333-0.67108
   6   4   1 1557.80  283.76   1 0.74015-0.25832-0.63678 0.92200-0.21606 0.28841
   6   4   1 1443.57  276.22   1 0.41346 0.06832 0.09010 0.19536-0.90605 0.97834
   6   4   1 1359.86  198.87   1 0.34164 0.14015-0.24725 0.53296 0.90672-0.83444
   6   4   2 2070.45  241.05   1 0.28231 0.17898-0.39332 0.65911 0.87498-0.73043
   6   4   3  113.75   65.18   1 0.22289 0.21780-0.51587 0.76155 0.82715-0.61040
   6   4   4  971.45  151.34   1 0.59098-0.17042-0.75991 0.98519 0.27065 0.01883
  -6  -4  -4  952.74  138.63   1-0.15211-0.26823 0.59932-0.82511-0.78592 0.49723
   6   4   4 1121.45  142.36   1 0.16792 0.25222-0.61262 0.83832 0.77233-0.48332
   6   4   517502.56  429.65   1 0.62758-0.22743-0.75396 0.95923 0.19410 0.16776
  -6  -4  -518537.03  380.28   1 0.31682-0.71716 0.20115-0.40717-0.92690 0.56557
   6   4   519961.23 1932.70   1 0.12026 0.27933-0.68586 0.89157 0.71772-0.35646
   6   4   619771.52 1254.62   1 0.62644-0.24671-0.75424 0.93951 0.19665 0.23758
  -6  -4  -620301.76  498.50   1 0.51485-0.89497-0.04227-0.14340-0.85623 0.42244
   6   4   741496.04 2578.52   1 0.61742-0.25811-0.75625 0.92151 0.21647 0.29013
  -6  -4  -743146.27 1088.38   1 0.60242-0.96219-0.17668 0.01137-0.77837 0.27211
   6   4   8 4696.92  463.12   1 0.60470-0.26581-0.75840 0.90366 0.24321 0.33576
  -6  -4  -8 4351.07  847.62   1 0.64450-0.98391-0.25196 0.10666-0.72189 0.14331
   6   4   8 5498.80  712.85   1 0.29103 0.04849 0.95670-0.81145-0.00391 0.58239
   6   4   940512.15 3425.53   1 0.58953-0.27105-0.76003 0.88529 0.27348 0.37787
   6   4   940600.65 4321.51   1 0.32350-0.00435 0.94320-0.81797 0.07555 0.57523
   6   4  10 6620.60  607.05   1 0.57239-0.27433-0.76081 0.86607 0.30580 0.41792
  -6  -4 -10 6441.61 1114.12   1 0.67673-0.97538-0.31770 0.21244-0.66414-0.05910
   6   4  10 7118.62  806.36   1 0.35249-0.05383 0.92351-0.81840 0.15124 0.57211
   6   4  11 1318.83  339.22   1 0.55349-0.27585-0.76053 0.84579 0.33943 0.45666
  -6  -4 -11 1574.15  253.39   1 0.68142-0.95969-0.32815 0.24289-0.65419-0.14137
   6   4  11 1649.26  197.72   1 0.37786-0.09957 0.89864-0.81357 0.22282 0.57286
   6   4  12  914.39  233.09   1 0.53291-0.27568-0.75904 0.82429 0.37396 0.49450
  -6  -4 -12  311.41   64.00   1 0.68214-0.94004-0.32979 0.26452-0.65262-0.21527
   6   4  12  468.22   80.21   1 0.40012-0.14221 0.86911-0.80407 0.29075 0.57726
   6   5  -615277.60 2910.42   1-0.32788 0.95915 0.69631-0.19446-0.63846 0.20543
   6   5  -618785.32 1566.54   1 0.46153 0.16745 0.71179-0.20977 0.52945-0.96330
  -6  -5   613538.25 3045.16   1 0.26873-0.89861-0.42311-0.07850 0.86530-0.43166
   6   5  -5 5016.87  911.36   1 0.73917-0.13060-0.50648 0.98801-0.44394 0.08223
   6   5  -5 5027.91  748.07   1-0.32532 0.93595 0.69515-0.21326-0.64103 0.28017
   6   5  -5 5241.37  555.48   1 0.47616 0.13245 0.62419-0.14221 0.61939-0.98093
  -6  -5   5 4922.76  785.16   1 0.25806-0.86774-0.44609-0.03590 0.85697-0.49571
   6   5  -4   67.79   33.93   1 0.74091-0.15272-0.51683 0.97837-0.42885 0.13948
   6   5  -4  205.37   66.00   1-0.31296 0.90294 0.68938-0.22746-0.65329 0.36460
   6   5  -4  146.91   90.22   1 0.48334 0.10490 0.52103-0.05910 0.70349-0.99272
  -6  -5   4   74.07   41.71   1 0.24240-0.83153-0.47799 0.01598 0.84425-0.55524
   6   5  -3  289.81   51.25   1 0.74166-0.17384-0.52176 0.96330-0.42153 0.20450
   6   5  -3  233.98   64.78   1-0.28571 0.85505 0.67606-0.23410-0.67919 0.46267
   6   5  -3  506.75   87.83   1 0.48133 0.08685 0.40253 0.03954 0.77863-0.99543
  -6  -5   3  192.01   54.52   1 0.22103-0.78961-0.51938 0.07736 0.82545-0.60870
   6   5  -2  555.55  179.18   1 0.74109-0.19365-0.51797 0.93952-0.42717 0.28248
   6   5  -2  658.36  107.85   1-0.23361 0.78231 0.64830-0.22631-0.72465 0.58030
   6   5  -2 1301.14  134.07   1 0.46920 0.07864 0.27010 0.15191 0.84076-0.98525
  -6  -5   2  544.81  114.34   1 0.19352-0.74156-0.56929 0.14726 0.79902-0.65452
   6   5  -1  459.50  101.75   1 0.73741-0.21035-0.49711 0.89865-0.45726 0.38492
   6   5  -1  512.72  118.37   1 0.44624 0.08119 0.12720 0.27478 0.88582-0.95807
  -6  -5   1  512.07   72.34   1 0.15971-0.68719-0.62590 0.22385 0.76337-0.69111
   6   5   099028.08 1779.12   1 0.71955-0.21272-0.42838 0.80994-0.54656 0.54656
   6   5   093260.55 1692.05   1 0.06379 0.44274 0.44229-0.06059-0.89459 0.89459
   6   5   095906.23 2069.68   1 0.41260 0.09452-0.02008 0.40212 0.91068-0.91068
  -6  -5   095921.16 2200.83   1 0.11988-0.62681-0.68641 0.30435 0.71726-0.71726
   6   5   148662.96 1433.61   1 0.37009 0.11661-0.16453 0.52660 0.91430-0.84207
   6   5   2  822.77  101.86   1 0.32193 0.14391-0.29900 0.64119 0.89830-0.75376
   6   5   321975.69 2178.23   1 0.27154 0.17379-0.41704 0.73931 0.86737-0.65055
   6   5   4  290.53   63.10   1 0.22267 0.20206-0.51629 0.81840 0.82695-0.53794
   6   5   521644.51 2243.29   1 0.17801 0.22617-0.59589 0.87801 0.78308-0.42182
   6   5   679772.03 1508.52   1 0.41471-0.03045-0.73218 0.99387 0.54030-0.10621
   6   5   683458.28 2121.30   1 0.13927 0.24436-0.65775 0.91989 0.74023-0.30672
   6   5   733770.35 1131.38   1 0.47939-0.11553-0.75027 0.99198 0.45526 0.05116
  -6  -5  -733490.76 1107.13   1 0.59042-0.95462-0.15679-0.08484-0.79171 0.28545
   6   5   730151.23 1336.37   1 0.10710 0.25598-0.70449 0.94664 0.70158-0.19581
   6   5   8 8321.54 1074.64   1 0.49921-0.15574-0.75425 0.97598 0.42647 0.15230
  -6  -5  -8 9708.72  434.57   1 0.64554-0.98938-0.25396 0.03233-0.72025 0.14167
   6   5   941835.44 1478.99   1 0.50254-0.17946-0.75484 0.95659 0.42149 0.22962
  -6  -5  -941717.21 1466.92   1 0.67085-0.99432-0.30494 0.10336-0.67599 0.02507
   6   5   937364.97 4385.53   1 0.29100 0.03263 0.95671-0.75512-0.00397 0.65476
   6   5  10  658.27  171.20   1 0.49737-0.19468-0.75392 0.93568 0.42920 0.29426
  -6  -5 -10  568.39  206.91   1 0.68293-0.98603-0.33158 0.15000-0.65088-0.07235
   6   5  10 1120.61  295.31   1 0.32346-0.02019 0.94322-0.76166 0.07544 0.64765
   6   5  11 3599.73  573.62   1 0.48688-0.20458-0.75187 0.91365 0.44455 0.35126
  -6  -5 -11 3650.77  838.16   1 0.68807-0.97079-0.34349 0.18191-0.63919-0.15637
   6   5  11 4071.44  393.71   1 0.35269-0.06993 0.92334-0.76191 0.15179 0.64389
   6   5  12 3120.52  594.12   1 0.47255-0.21064-0.74871 0.89050 0.46488 0.40327
  -6  -5 -12 3205.69  785.36   1 0.68898-0.95134-0.34566 0.20408-0.63703-0.23085
   6   5  12 3685.13  410.35   1 0.37843-0.11605 0.89798-0.75658 0.22451 0.64351
   6   6  -513712.35 2790.55   1 0.71583-0.10269-0.41681 0.97468-0.56021 0.19859
   6   6  -513210.59 3018.05   1-0.33786 0.95298 0.70080-0.14250-0.62827 0.26740
   6   6  -515653.59 1900.41   1 0.47717 0.13591 0.61521-0.05688 0.62755-0.98908
  -6  -6   515608.54 1920.88   1 0.25153-0.86580-0.45955-0.09884 0.85178-0.49052
   6   6  -428557.82 1096.49   1 0.71584-0.12307-0.41683 0.95470-0.56019 0.27089
   6   6  -429462.62 1122.62   1-0.32940 0.92387 0.69700-0.15867-0.63692 0.34823
   6   6  -429291.00 2589.61   1 0.48338 0.10933 0.51950 0.01878 0.70459-0.99382
  -6  -6   425616.15 2486.80   1 0.23850-0.83222-0.48572-0.05269 0.84094-0.55193
   6   6  -3   21.90   44.15   1 0.71230-0.13990-0.40634 0.92422-0.57227 0.35530
   6   6  -3   68.48   42.74   1-0.30697 0.88080 0.68653-0.16816-0.65911 0.44260
   6   6  -3   71.49   62.60   1 0.48181 0.09087 0.41203 0.10644 0.77335-0.99015
  -6  -6   3   -7.08   82.77   1 0.22056-0.79372-0.52027 0.00184 0.82502-0.60826
   6   6  -210014.46  431.89   1 0.70187-0.14985-0.37769 0.87556-0.60391 0.45926
   6   6  -210152.41  433.10   1-0.26051 0.81370 0.66300-0.16460-0.70182 0.55747
   6   6  -2 9959.93  850.97   1 0.47222 0.08005 0.29387 0.20454 0.83104-0.97557
  -6  -6   2 8637.90 1175.47   1 0.19736-0.74997-0.56256 0.06411 0.80285-0.65834
   6   6  -161542.36 1666.04   1 0.67351-0.14186-0.31067 0.78854-0.67071 0.59838
   6   6  -165469.59 1757.74   1-0.16498 0.69753 0.60748-0.12905-0.77700 0.70483
   6   6  -163993.56 1937.73   1 0.45378 0.07815 0.16797 0.31041 0.87513-0.94738
  -6  -6   159093.65 1945.41   1 0.16869-0.70075-0.61136 0.13290 0.77315-0.70090
   6   6   013489.42  268.90   1 0.56490-0.05373-0.11627 0.57423-0.81692 0.81692
   6   6   013145.46  271.51   1 0.06547 0.44540 0.44090 0.01713-0.89516 0.89516
   6   6   015654.91 1409.20   1 0.42706 0.08461 0.03812 0.42032 0.90341-0.90341
  -6  -6   013576.42 1130.56   1 0.13461-0.64613-0.66478 0.20631 0.73480-0.73481
   6   6   185900.91 2001.24   1 0.39301 0.09822-0.09068 0.52916 0.91504-0.84281
   6   6   2109508.0 2436.30   1 0.35379 0.11660-0.21346 0.63206 0.91063-0.76609
   6   6   342458.46 4238.67   1 0.31149 0.13839-0.32500 0.72367 0.89294-0.67611
   6   6   4 8422.72  797.45   1 0.26901 0.16037-0.42251 0.80126 0.86551-0.57641
   6   6   529160.71 3116.22   1 0.22861 0.18015-0.50498 0.86351 0.83230-0.47104
   6   6   618009.85 2113.50   1 0.19200 0.19621-0.57195 0.91050 0.79749-0.36398
  -6  -6  -747430.19  666.76   1 0.55163-0.92026-0.09604-0.22191-0.82853 0.32227
   6   6   746537.87 5400.17   1 0.16027 0.20739-0.62500 0.94356 0.76399-0.25822
  -6  -6  -8144602.6 3654.62   1 0.63830-0.98657-0.24024-0.05771-0.73132 0.15274
  -6  -6  -8133160.7 3386.02   1-0.33553-0.01122 0.69976-0.99851-0.63066 0.05329
   6   6   8148249.2 4242.80   1 0.13386 0.21325-0.66590 0.96447 0.73392-0.15591
  -6  -6  -927199.94  915.65   1 0.67138-0.99931-0.30607 0.02818-0.67495 0.02403
  -6  -6  -925184.70  859.55   1-0.37846 0.05234 0.71772-0.99650-0.58449-0.06504
   6   6   927593.70 2790.61   1 0.11277 0.21379-0.69655 0.97513 0.70858-0.05831
  -6  -6 -10   21.38   38.20   1 0.68601-0.99357-0.33868 0.08079-0.64395-0.07929
   6   6  10  261.13   71.63   1 0.29543 0.01233 0.95534-0.69742 0.00654 0.71655
  -6  -6 -11 5165.05 1797.98   1 0.69214-0.97933-0.35323 0.11534-0.62941-0.16615
  -6  -6 -11 5139.42 1308.52   1-0.40090 0.11606 0.72611-0.96496-0.55860-0.23529
   6   6  11 7465.56  956.70   1 0.32763-0.04041 0.94090-0.70310 0.08575 0.70993
   6   7  -4  642.90  131.24   1 0.67095-0.07373-0.30515 0.91933-0.67579 0.38649
   6   7  -4  481.46  199.57   1-0.33756 0.93652 0.70066-0.08592-0.62858 0.33989
   6   7  -4  786.14  156.42   1 0.48321 0.11396 0.52550 0.08913 0.70024-0.98947
  -6  -7   4  737.24  139.85   1 0.23155-0.82985-0.49931-0.11551 0.83490-0.54589
   6   7  -3 5731.96 1216.39   1 0.65735-0.08066-0.27715 0.87145-0.70076 0.48379
   6   7  -3 5186.63 1783.47   1-0.31870 0.89702 0.69208-0.09730-0.64764 0.43112
   6   7  -3 8155.51  885.06   1 0.48246 0.09472 0.42745 0.16740 0.76452-0.98132
  -6  -7   3 7606.55 1285.22   1 0.21624-0.79399-0.52834-0.06649 0.82103-0.60427
   6   7  -2 1395.39  413.39   1 0.62813-0.07180-0.22152 0.79582-0.74590 0.60125
   6   7  -2 1189.66  592.69   1-0.27609 0.83377 0.67115-0.09634-0.68798 0.54363
   6   7  -2 2598.68  319.81   1 0.47511 0.08167 0.32102 0.25378 0.81927-0.96380
  -6  -7   2 2144.23  362.29   1 0.19633-0.75353-0.56437-0.01047 0.80182-0.65732
   6   7  -1  182.74   40.07   1 0.55840-0.02244-0.10630 0.66059-0.82272 0.75040
   6   7  -1  170.69   50.49   1 0.46051 0.07593 0.20851 0.34626 0.86281-0.93505
  -6  -7   1  147.41   46.49   1 0.17161-0.70827-0.60655 0.05168 0.77629-0.70404
   6   7   096726.81 2943.78   1 0.43921 0.07682 0.09252 0.44223 0.89360-0.89360
  -6  -7   091704.76 2956.84   1 0.14206-0.65816-0.65351 0.11863 0.74346-0.74346
   6   7   1152146.6 2104.52   1 0.41180 0.08397-0.02312 0.53801 0.91097-0.83874
  -6  -7  -1131855.0 3728.04   1 0.10788-0.60344-0.70340 0.18851 0.70255-0.77480
   6   7   216574.59 1725.03   1 0.37958 0.09577-0.13492 0.62984 0.91526-0.77079
   6   7   363163.04 1420.70   1 0.34450 0.10993-0.23944 0.71452 0.90773-0.69091
   6   7   4    4.57   65.42   1 0.30805 0.12588-0.33339 0.78855 0.89103-0.60194
   6   7   5  550.88   84.08   1 0.27233 0.14110-0.41534 0.85057 0.86794-0.50657
   6   7   7195634.216831.44   1 0.20870 0.16355-0.54220 0.93717 0.81391-0.30814
  -6  -7  -8 6866.72  278.36   1 0.61320-0.96590-0.19508-0.17920-0.76545 0.18687
   6   7   8 7396.73  825.38   1 0.18268 0.16902-0.58800 0.96299 0.78795-0.20993
  -6  -7  -9 4837.15  299.91   1 0.66507-0.99745-0.29276-0.06143-0.68699 0.03607
   6   7   9 5025.72  532.87   1 0.16106 0.17009-0.62374 0.97874 0.76485-0.11458
  -6  -7 -1012453.71  554.25   1 0.68501-0.99702-0.33637 0.00216-0.64622-0.07701
  -6  -7 -1012035.43  534.67   1-0.26120-0.04876 0.66336-0.99860-0.70122-0.02049
   6   7  1012008.71 1613.04   1 0.26920 0.04305 0.96153-0.62726-0.05451 0.77761
   6   7  1013484.53 1386.12   1 0.14388 0.16672-0.65072 0.98573 0.74555-0.02303
  -6  -7 -11 3521.53 1890.09   1 0.69316-0.98479-0.35569 0.04149-0.62690-0.16866
  -6  -7 -11 4121.58 1270.22   1-0.28909-0.00022 0.67776-0.99303-0.67605-0.11783
   6   7  11 6755.97  625.61   1 0.30338-0.01149 0.95252-0.63826 0.02568 0.76972
   6   7  11 7434.90 1014.73   1 0.13100 0.15905-0.67015 0.98517 0.73056 0.06420
   6   8  -3  389.68   83.22   1 0.48308 0.09860 0.44717 0.22407 0.75277-0.96957
  -6  -8   3  464.90   84.39   1 0.20901-0.79135-0.54163-0.12961 0.81421-0.59745
   6   8  -2 5839.06  523.75   1 0.47779 0.08348 0.35049 0.30070 0.80552-0.95005
  -6  -8   2 4968.54  688.88   1 0.19171-0.75350-0.57246-0.07880 0.79720-0.65269
   6   8  -127456.07 2556.25   1 0.46643 0.07453 0.24893 0.38223 0.84880-0.92105
  -6  -8   127039.51 3063.82   1 0.17013-0.71137-0.60899-0.02228 0.77471-0.70245
   6   8   052407.45 4821.74   1 0.44951 0.07102 0.14438 0.46676 0.88152-0.88152
  -6  -8   050177.82 5042.41   1 0.14420-0.66489-0.65023 0.03894 0.74592-0.74592
   6   8   1 2538.37  365.35   1 0.42743 0.07288 0.03972 0.55157 0.90317-0.83093
  -6  -8  -1 2558.40  341.12   1 0.11401-0.61416-0.69479 0.10348 0.71011-0.78236
   6   8   232171.85 3373.98   1 0.40109 0.07879-0.06252 0.63385 0.91389-0.76942
   6   8   322431.44 2137.31   1 0.37172 0.08774-0.15951 0.71087 0.91453-0.69782
   6   8   4 3292.74  357.71   1 0.34099 0.09749-0.24902 0.78059 0.90648-0.61738
   6   8   5  134.33   77.37   1 0.30985 0.10812-0.32900 0.84065 0.89204-0.53067
   6   8   622894.86 2644.46   1 0.27989 0.11758-0.39871 0.89042 0.87331-0.43967
   6   8   7  -37.51  138.79   1 0.25213 0.12471-0.45834 0.92972 0.85226-0.34649
   6   8   842004.73 5202.88   1 0.22735 0.12894-0.50739 0.95879 0.83117-0.25316
   6   8   927819.56 4036.47   1 0.20608 0.12966-0.54697 0.97838 0.81138-0.16111
   6   8  10  934.30  151.42   1 0.18855 0.12664-0.57794 0.98936 0.79399-0.07146
   6   9  -129934.36 1154.27   1 0.47152 0.07395 0.28928 0.41828 0.83305-0.90530
  -6  -9   125533.04 3194.51   1 0.16527-0.71110-0.61693-0.09075 0.76946-0.69720
   6   9   011311.12  988.28   1 0.45824 0.06680 0.19430 0.49323 0.86732-0.86732
  -6  -9   011574.90 1226.17   1 0.14230-0.66757-0.65315-0.03455 0.74373-0.74373
   6   9   1 8395.07  717.50   1 0.44053 0.06410 0.09881 0.56871 0.89228-0.82003
  -6  -9  -1 8521.03  749.29   1 0.11542-0.62014-0.69280 0.02508 0.71183-0.78408
   6   9   220131.01 1605.24   1 0.41907 0.06536 0.00520 0.64253 0.90793-0.76346
   6   9   3  100.95   88.11   1 0.39473 0.06927-0.08480 0.71258 0.91487-0.69816
   6   9   4  801.30  210.90   1 0.36858 0.07499-0.16910 0.77690 0.91408-0.62513
   6   9   519748.98 1878.04   1 0.34203 0.08049-0.24618 0.83424 0.90686-0.54549
   6   9   6 8007.82  791.97   1 0.31563 0.08640-0.31480 0.88292 0.89513-0.46149
   6   9   714656.77 1365.52   1 0.29060 0.09092-0.37452 0.92272 0.88049-0.37457
   6   9   8 2647.54  271.91   1 0.26772 0.09330-0.42530 0.95356 0.86454-0.28635
   6   9   9 4002.13  505.16   1 0.24741 0.09291-0.46793 0.97575 0.84842-0.19815
   6  10   130605.63 3100.49   1 0.45153 0.05761 0.15533 0.58858 0.87862-0.80638
  -6 -10  -128963.79 3096.51   1 0.11308-0.62240-0.69611-0.04801 0.70897-0.78122
   6  10   2  860.11  122.97   1 0.43413 0.05460 0.06896 0.65493 0.89820-0.75371
   6  10   3 1624.11  211.52   1 0.41410 0.05444-0.01430 0.71848 0.91011-0.69340
   6  10   4 2119.29  368.47   1 0.39219 0.05592-0.09346 0.77767 0.91512-0.62617
   6  10   5 4855.40  585.66   1 0.36931 0.05837-0.16688 0.83112 0.91419-0.55300
   6  10   6 3209.56  425.87   1 0.34665 0.05992-0.23350 0.87804 0.90846-0.47481
   6  10   7 6401.46  737.04   1 0.32444 0.06164-0.29260 0.91721 0.89950-0.39359
   6  10   8  306.75  102.43   1 0.30367 0.06190-0.34392 0.94860 0.88853-0.31034
   7 -10  -1 4988.41 1239.46   1 0.54877-0.00734-0.09175-0.65151-0.83091 0.75859
  -7  10   1 3678.41  701.67   1 0.41625-0.95725 0.84146-0.09793 0.34448-0.27216
   7  -9  -447464.64 4913.89   1 0.37558 0.23245 0.13515-0.74284-0.91687 0.62781
  -7   9   443664.19 3885.97   1-0.30490-0.30305 0.68553-0.07769-0.66111 0.94979
   7  -9  -3  357.89   96.43   1 0.42119 0.16585 0.08064-0.70797-0.90337 0.68648
  -7   9   3  410.28  101.29   1-0.23868-0.34863 0.65113-0.02332-0.72045 0.93696
   7  -9  -2 9188.14 1106.49   1 0.46899 0.09772 0.01998-0.66727-0.88297 0.73837
   7  -9  -128857.73 2663.40   1 0.51698 0.02940-0.04528-0.62195-0.85479 0.78249
  -7   9   130954.84 3924.05   1-0.10107-0.44584 0.56728 0.09989-0.81729 0.88951
  -7   9   127746.04  970.95   1 0.40655-0.95187 0.85887-0.19164 0.31151-0.23917
   7  -9  -129375.16 1023.29   1 0.26075 0.28357-0.44009-0.22767 0.85925-0.93153
   7  -9   010259.30  932.37   1 0.56319-0.03770-0.11363-0.57331-0.81847 0.81847
  -7   9   0 9528.64  916.30   1 0.40812-0.93321 0.85605-0.16883 0.31716-0.31716
   7  -9   011142.24  549.28   1 0.32242 0.20140-0.29775-0.38993 0.89854-0.89854
   7  -9   111099.77 1049.49   1 0.60643-0.10130-0.18347-0.52347-0.77367 0.84599
  -7   9  -110894.98 1085.23   1 0.40642-0.91101 0.85909-0.15178 0.31109-0.38342
   7  -9   111728.54  711.37   1 0.36328 0.14059-0.18501-0.52262 0.91312-0.84088
   7  -9   218329.01 2219.57   1 0.64498-0.16021-0.25288-0.47406-0.72114 0.86578
  -7   9  -219329.07 2637.77   1 0.08953-0.57548 0.42056 0.30620-0.90283 0.75832
  -7   9  -218421.83 1805.32   1 0.40211-0.88633 0.86603-0.13869 0.29711-0.44178
   7  -9   219574.28  835.30   1 0.39109 0.09235-0.09718-0.63043 0.91520-0.77072
   7  -9   3 1848.76  215.11   1 0.67785-0.21375-0.32016-0.42664-0.66182 0.87879
  -7   9  -3 1746.77  241.32   1 0.14332-0.60890 0.37320 0.37342-0.91661 0.69984
  -7   9  -3 1892.24  271.44   1 0.39589-0.85974 0.87539-0.12801 0.27741-0.49441
   7  -9   3 1914.36  257.51   1 0.40986 0.05316-0.03047-0.71711 0.91163-0.69492
   7  -8  -534439.25 5013.67   1 0.28535 0.34736 0.23476-0.74621-0.92922 0.56789
  -7   8   533130.09 2486.08   1-0.37889-0.25419 0.71789-0.20642-0.58400 0.94486
   7  -8  -412197.12 1396.84   1 0.33007 0.28229 0.18665-0.71797-0.92531 0.63625
  -7   8   412212.67  768.23   1-0.31382-0.29862 0.68979-0.15836-0.65245 0.94113
   7  -8  -3   90.44   86.55   1 0.37899 0.21301 0.13119-0.68239-0.91605 0.69925
  -7   8   3  142.53   65.12   1-0.24451-0.34729 0.65435-0.10295-0.71556 0.93208
   7  -8  -2 5876.23  581.00   1 0.43050 0.14059 0.06913-0.64007-0.89993 0.75534
   7  -8  -1 5112.34  446.03   1 0.48329 0.06746 0.00103-0.59193-0.87545 0.80316
  -7   8   1 4735.00  631.83   1 0.38829-0.93808 0.88585-0.29498 0.25395-0.18161
   7  -8  -1 3685.86 1241.50   1 0.27767 0.27120-0.40363-0.18771 0.87176-0.94403
   7  -8   012630.56 1008.72   1 0.53500-0.00458-0.07114-0.53969-0.84184 0.84184
  -7   8   011556.26 1064.44   1-0.02611-0.50473 0.51336 0.09732-0.85777 0.85777
  -7   8   012530.46  671.56   1 0.39478-0.92420 0.87698-0.26607 0.27393-0.27393
   7  -8   013054.10  533.98   1 0.34620 0.18216-0.23474-0.37653 0.90831-0.90831
   7  -8   132989.74 2587.21   1 0.58346-0.07390-0.14550-0.48511-0.79899 0.87132
  -7   8  -129722.23 2927.16   1 0.04304-0.55368 0.45938 0.17118-0.88719 0.81493
  -7   8  -129240.98 3073.94   1 0.39558-0.90464 0.87583-0.24489 0.27644-0.34877
   7  -8   131606.52 1032.88   1 0.38812 0.12029-0.10714-0.52409 0.91535-0.84312
   7  -8   2  131.84   99.61   1 0.62719-0.13800-0.21983-0.43079-0.74719 0.89183
  -7   8  -2  305.38   51.78   1 0.10729-0.59758 0.40522 0.24521-0.90790 0.76339
  -7   8  -2  584.61   76.91   1 0.39294-0.88162 0.87957-0.22860 0.26821-0.41288
   7  -8   2  124.48   58.21   1 0.41474 0.07324-0.01181-0.63939 0.90985-0.76538
   7  -8   319722.30 1683.33   1 0.66473-0.19618-0.29205-0.37843-0.68762 0.90459
  -7   8  -318600.94 1977.98   1 0.16534-0.63526 0.35303 0.31725-0.92088 0.70412
  -7   8  -321459.45 2021.34   1 0.38785-0.85617 0.88642-0.21541 0.25263-0.46963
   7  -8   318702.77 2620.04   1 0.43165 0.03622 0.05787-0.72910 0.90018-0.68344
   7  -8   4  270.47   70.26   1 0.69516-0.24698-0.36062-0.32986-0.62184 0.91114
  -7   8  -4  -45.26  118.35   1 0.21638-0.66593 0.30449 0.38565-0.92760 0.63859
  -7   8  -4  234.59   72.34   1 0.38085-0.82880 0.89514-0.20410 0.23163-0.52098
   7  -8   4  243.67   63.30   1 0.44236 0.00510 0.10771-0.79896 0.89034-0.60135
   7  -8   5  226.89  113.80   1 0.71825-0.29044-0.42427-0.28622-0.55145 0.91308
  -7   8  -5  192.71   54.95   1 0.26008-0.68928 0.26094 0.44931-0.92965 0.56832
  -7   8  -5  145.65   74.86   1 0.37222-0.79980 0.90489-0.19381 0.20643-0.56810
   7  -8   5  180.29   46.86   1 0.44908-0.02203 0.14206-0.85333 0.88212-0.52089
   7  -7  -6 1553.32  174.83   1 0.45542 0.20070-0.74442 0.33009 0.48828-0.92236
   7  -7  -6 1820.04  232.02   1 0.19679 0.46073 0.32342-0.73866-0.92556 0.49203
   7  -7  -5 1536.44  152.17   1 0.23688 0.40016 0.28437-0.71946-0.92898 0.56765
  -7   7   5 1438.13  162.36   1-0.39521-0.24236 0.72405-0.28900-0.56528 0.92614
   7  -7  -441749.19 3698.84   1 0.28319 0.33350 0.23702-0.69199-0.92930 0.64024
  -7   7   440303.71 3422.31   1-0.32850-0.28843 0.69660-0.24157-0.63783 0.92652
   7  -7  -3  664.73  189.59   1 0.33488 0.26146 0.18134-0.65619-0.92464 0.70784
  -7   7   3  948.64  253.23   1-0.25639-0.33989 0.66080-0.18581-0.70540 0.92192
   7  -7  -2 7745.23  555.13   1 0.39053 0.18545 0.11764-0.61237-0.91303 0.76850
  -7   7   2 7196.41  239.77   1 0.30954-0.88411 0.95001-0.45556 0.04072 0.10389
   7  -7  -2 7147.67  260.32   1 0.14217 0.43149-0.65334 0.15844 0.74358-0.88809
   7  -7  -137801.66 3540.60   1 0.44805 0.10707 0.04704-0.56157-0.89276 0.82046
  -7   7   135539.14 3536.93   1-0.10143-0.45422 0.56752-0.05302-0.81708 0.88930
  -7   7   136626.94 1164.52   1 0.35520-0.90946 0.92122-0.40671 0.15864-0.08631
   7  -7  -145448.39 1410.85   1 0.29313 0.26029-0.36870-0.14623 0.88211-0.95438
  -7   7   0 2516.22  258.57   1-0.02366-0.51155 0.51151 0.02283-0.85894 0.85894
  -7   7   0 2681.79  199.12   1 0.37184-0.90574 0.90529-0.37074 0.20535-0.20535
   7  -7   0 1676.81  648.89   1 0.37019 0.16319-0.16421-0.37064 0.91432-0.91432
   7  -7   113936.81 1002.71   1 0.55973-0.04574-0.10833-0.44596-0.82155 0.89388
  -7   7  -113249.41 1167.81   1 0.05126-0.56624 0.45266 0.10157-0.89020 0.81795
  -7   7  -112889.76 1396.82   1 0.37783-0.89136 0.89868-0.34410 0.22273-0.29507
   7  -7   112215.95 1646.82   1 0.41289 0.10006-0.01894-0.53588 0.91057-0.83834
   7  -7   238772.17 2655.88   1 0.60910-0.11547-0.18802-0.38627-0.77048 0.91512
  -7   7  -236536.98 3036.28   1 0.12103-0.61565 0.39315 0.18093-0.91147 0.76696
  -7   7  -239332.96 2914.64   1 0.37826-0.87142 0.89818-0.32357 0.22400-0.36867
   7  -7   237168.91 3256.87   1 0.43722 0.05558 0.08314-0.65794 0.89550-0.75100
   7  -7   312917.40  894.38   1 0.65158-0.17832-0.26570-0.32859-0.71051 0.92748
  -7   7  -312102.50 1343.52   1 0.18398-0.65823 0.33560 0.25834-0.92385 0.70709
  -7   7  -313272.65 1146.49   1 0.37519-0.84798 0.90165-0.30700 0.21503-0.43204
   7  -7   313145.13 1188.92   1 0.45132 0.02106 0.15420-0.74903 0.87893-0.66219
   7  -7   4 7471.59  794.87   1 0.68627-0.23364-0.33929-0.27489-0.64335 0.93265
  -7   7  -4 7542.87  654.33   1 0.23910-0.69298 0.28215 0.33186-0.92909 0.64003
  -7   7  -4 7835.84  893.93   1 0.36961-0.82203 0.90763-0.29295 0.19895-0.48829
   7  -7   4 7953.58  996.32   1 0.45961-0.00764 0.20279-0.81764 0.86465-0.57567
   7  -7   522520.53 1676.67   1 0.71266-0.28040-0.40739-0.22678-0.57108 0.93270
  -7   7  -521131.90 2443.32   1 0.28597-0.71950 0.23410 0.39979-0.92919 0.56786
  -7   7  -522141.11 2273.61   1 0.36204-0.79410 0.91508-0.28037 0.17757-0.53925
   7  -7   519155.94 3186.31   1 0.46443-0.03288 0.23469-0.86957 0.85394-0.49270
   7  -7   621681.46 1917.37   1 0.73120-0.31995-0.46921-0.18493-0.49515 0.92920
  -7   7  -621413.66 2782.62   1 0.32484-0.73802 0.19240 0.46137-0.92598 0.49239
  -7   7  -622184.17 2401.29   1 0.35278-0.76447 0.92326-0.26851 0.15205-0.58606
   7  -7   619953.73 2758.02   1 0.46710-0.05596 0.25388-0.90878 0.84697-0.41349
   7  -6  -7 5037.08  487.77   1 0.53032 0.15099-0.75877 0.44087 0.37816-0.88477
   7  -6  -7 5392.61  912.66   1 0.11496 0.56726 0.39850-0.71754-0.90993 0.40415
   7  -6  -6 3168.24  280.39   1 0.47707 0.18351-0.74975 0.41174 0.45855-0.89263
   7  -6  -6 3415.50  545.43   1 0.14773 0.51413 0.36920-0.70809-0.91753 0.48400
   7  -6  -5 4106.83  373.97   1 0.41659 0.22360-0.73280 0.37481 0.53799-0.89973
   7  -6  -5 4163.30  412.24   1 0.18784 0.45365 0.33195-0.69070-0.92440 0.56313
   7  -6  -4  202.23   69.68   1 0.23521 0.38581 0.28603-0.66464-0.92890 0.63983
  -7   6   4  321.66   66.96   1-0.34936-0.27206 0.70581-0.32720-0.61625 0.90494
   7  -6  -3 9720.55  769.58   1 0.28931 0.31136 0.23060-0.62909-0.92904 0.71224
  -7   6   3 9720.07  885.80   1-0.27501-0.32577 0.67060-0.27202-0.68895 0.90546
   7  -6  -229427.27 2391.84   1 0.34878 0.23154 0.16581-0.58419-0.92241 0.77788
  -7   6   226964.87 2246.18   1-0.19520-0.38494 0.62603-0.20749-0.75497 0.89931
   7  -6  -113702.43 1184.67   1 0.41138 0.14812 0.09263-0.53081-0.90674 0.83444
  -7   6   113134.20 1185.77   1-0.11135-0.44867 0.57428-0.13612-0.81104 0.88326
  -7   6   112367.88  467.14   1 0.29411-0.85281 0.95576-0.51764 0.00341 0.06889
   7  -6  -113827.58  390.65   1 0.30668 0.25130-0.33671-0.10182 0.89026-0.96253
   7  -6   0  260.38   76.31   1 0.47475 0.06441 0.01239-0.47053-0.88002 0.88002
  -7   6   0  290.69   58.01   1-0.02752-0.51206 0.51442-0.05640-0.85709 0.85709
  -7   6   0  187.22   43.95   1 0.33355-0.87191 0.93730-0.47912 0.10097-0.10097
   7  -6   0  126.41   57.04   1 0.39611 0.14181-0.08003-0.37842 0.91470-0.91470
   7  -6   1 5909.90  381.82   1 0.53560-0.01676-0.07202-0.40606-0.84139 0.91368
  -7   6  -1 5223.62  540.99   1 0.05394-0.57326 0.45045 0.02743-0.89116 0.81891
  -7   6  -1 5786.47  546.87   1 0.34975-0.86775 0.92573-0.44751 0.14383-0.21617
   7  -6   1 5133.72  692.48   1 0.43734 0.08038 0.08373-0.56212 0.89538-0.82313
   7  -6   2 1262.86  148.28   1 0.59100-0.09295-0.15774-0.34022-0.79109 0.93573
  -7   6  -2 2206.71  311.49   1 0.13010-0.62905 0.38509 0.11266-0.91366 0.76915
  -7   6  -2 1278.01  134.69   1 0.35586-0.85349 0.92065-0.42240 0.16047-0.30514
   7  -6   2 1262.11  126.10   1 0.45755 0.03975 0.19010-0.68852 0.86861-0.72412
   7  -6   3103021.6 6938.54   1 0.63892-0.16123-0.24140-0.27656-0.73040 0.94737
  -7   6  -3104290.7 3156.36   1 0.19877-0.67736 0.32153 0.19607-0.92579 0.70903
   7  -6   3108845.4 2980.17   1 0.46786 0.00903 0.25968-0.77812 0.84478-0.62804
   7  -6   491497.64 6159.13   1 0.67802-0.22093-0.32053-0.21732-0.66146 0.95076
  -7   6  -493425.15 2594.95   1 0.25865-0.71686 0.26240 0.27525-0.92964 0.64058
  -7   6  -498916.55 2499.26   1 0.35320-0.81009 0.92292-0.38460 0.15318-0.44252
   7  -6   499037.32 2418.27   1 0.47341-0.01683 0.30462-0.84314 0.82648-0.53742
   7  -6   5  800.57  210.68   1 0.70773-0.27102-0.39341-0.16445-0.58680 0.94842
  -7   6  -5  754.11  196.84   1 0.30919-0.74704 0.20941 0.34812-0.92765 0.56632
  -7   6  -5 1029.45  257.15   1 0.34738-0.78391 0.92759-0.36923 0.13746-0.49914
   7  -6   5  801.54  209.54   1 0.47617-0.04000 0.33209-0.89066 0.81423-0.45289
   7  -6   6  554.62   77.57   1 0.72861-0.31287-0.45909-0.11874-0.50828 0.94234
  -7   6  -6  708.30  132.80   1 0.35071-0.76822 0.16363 0.41379-0.92207 0.48847
  -7   6  -6  607.62   84.79   1 0.33947-0.75563 0.93337-0.35499 0.11644-0.55045
   7  -6   6  707.65   97.77   1 0.47749-0.06172 0.34688-0.92550 0.80726-0.37366
   7  -6   7  471.94  129.39   1 0.74095-0.34559-0.51707-0.08075-0.42850 0.93490
  -7   6  -7  445.40   98.26   1 0.38392-0.78108 0.12542 0.47188-0.91480 0.40894
  -7   6  -7  699.71  109.64   1 0.32978-0.72557 0.93963-0.34121 0.09124-0.59759
   7  -6   7  593.40  116.75   1 0.47792-0.08256 0.35203-0.95070 0.80477-0.29891
   7  -5  -7   83.57   68.90   1 0.55432 0.13145-0.76057 0.51899 0.33800-0.84461
   7  -5  -7  137.58   81.27   1 0.06768 0.61888 0.43905-0.68175-0.89590 0.39012
   7  -5  -610925.65 1175.29   1 0.50313 0.16191-0.75494 0.49325 0.42060-0.85468
   7  -5  -612075.77 1266.33   1 0.09908 0.56712 0.41235-0.67490-0.90561 0.47209
   7  -5  -5 1710.23  424.83   1 0.44395 0.20069-0.74125 0.45957 0.50342-0.86516
   7  -5  -5 1618.75  446.63   1 0.13860 0.50723 0.37746-0.65988-0.91559 0.55431
   7  -5  -437966.69 3239.78   1 0.18651 0.43895 0.33321-0.63548-0.92421 0.63520
  -7   5   437687.15 3287.62   1-0.37675-0.24916 0.71705-0.41485-0.58641 0.87510
   7  -5  -352345.98 4608.23   1 0.24252 0.36247 0.27872-0.60086-0.92924 0.71244
  -7   5   352819.71 4074.40   1-0.30103-0.30424 0.68366-0.36149-0.66482 0.88133
   7  -5  -2 6533.67  551.90   1 0.30559 0.27905 0.21328-0.55530-0.92796 0.78343
  -7   5   2 6183.08  592.88   1-0.21805-0.36658 0.63946-0.29733-0.73725 0.88159
   7  -5  -1 7328.21  585.98   1 0.37354 0.19075 0.13752-0.49943-0.91735 0.84509
   7  -5  -1 7414.87  233.17   1 0.31684 0.24568-0.31178-0.05034 0.89576-0.96804
   7  -5   012717.00  879.92   1 0.44321 0.10033 0.05319-0.43497-0.89483 0.89483
  -7   5   012745.26  387.91   1 0.27047-0.81329 0.96134-0.57956-0.05161 0.05161
   7  -5   012414.08  369.34   1 0.42422 0.11824 0.02621-0.40825 0.90517-0.90517
   7  -5   1  142.44   55.48   1 0.51108 0.01212-0.03699-0.36473-0.85873 0.93103
  -7   5  -1  156.42   70.47   1 0.04994-0.57359 0.45374-0.05219-0.88973 0.81747
  -7   5  -1  131.69   29.08   1 0.30636-0.82881 0.95134-0.54954 0.03294-0.10525
   7  -5   1  185.90   35.28   1 0.46016 0.06207 0.20629-0.60828 0.86353-0.79128
   7  -5   290355.57 6786.57   1 0.57330-0.07082-0.12936-0.29227-0.80906 0.95370
  -7   5  -291741.71 2995.54   1 0.13359-0.63687 0.38197 0.03943-0.91446 0.76995
  -7   5  -291067.80 2741.10   1 0.32264-0.82471 0.94367-0.52184 0.07337-0.21799
   7  -5   292707.11 2728.93   1 0.47416 0.02773 0.31167-0.73371 0.82342-0.67889
   7  -5   359030.62 5312.93   1 0.62715-0.14502-0.21974-0.22189-0.74725 0.96422
  -7   5  -363768.16 2255.19   1 0.20907-0.69199 0.31160 0.12966-0.92692 0.71016
  -7   5  -353977.87 1829.96   1 0.32928-0.81101 0.93993-0.49801 0.08997-0.30697
   7  -5   365315.14 2066.54   1 0.47966 0.00182 0.37502-0.81711 0.79327-0.57647
   7  -5   4 2852.00  199.29   1 0.67088-0.20934-0.30500-0.15655-0.67593 0.96522
  -7   5  -4 2648.96  324.25   1 0.27461-0.73715 0.24597 0.21533-0.92955 0.64049
  -7   5  -4 2625.16  262.58   1 0.33013-0.79150 0.93942-0.47746 0.09216-0.38150
   7  -5   4 3312.66  366.46   1 0.48184-0.02076 0.41274-0.87488 0.77295-0.48389
   7  -5   515121.75  998.15   1 0.70389-0.26272-0.38300-0.09855-0.59820 0.95982
  -7   5  -515036.05 1777.94   1 0.32947-0.77166 0.18731 0.29387-0.92539 0.56406
  -7   5  -514290.68 1074.10   1 0.32715-0.76814 0.94118-0.45919 0.08451-0.44619
   7  -5   515293.00 1488.08   1 0.48268-0.04200 0.43352-0.91571 0.76096-0.39963
   7  -5   6 7549.31  601.34   1 0.72667-0.30587-0.45254-0.04900-0.51686 0.95080
  -7   5  -6 6965.22  825.99   1 0.37408-0.79591 0.13690 0.36416-0.91723 0.48363
  -7   5  -6 8052.60  535.19   1 0.32129-0.74186 0.94439-0.44247 0.06997-0.50383
   7  -5   6 7564.19 1160.08   1 0.48295-0.06269 0.44240-0.94463 0.75566-0.32206
   7  -5   7 4890.09  513.77   1 0.74037-0.34052-0.51347-0.00805-0.43380 0.94020
  -7   5  -7 4972.64  510.46   1 0.40941-0.81061 0.09502 0.42644-0.90738 0.40130
  -7   5  -7 5660.13  451.02   1 0.31324-0.71343 0.94836-0.42643 0.04985-0.55602
   7  -5   7 4820.32  776.15   1 0.48296-0.08309 0.44244-0.96473 0.75563-0.24977
   7  -5   833990.52 3518.96   1 0.74584-0.36636-0.56588 0.02435-0.35140 0.93015
  -7   5  -830847.90 4041.94   1 0.43643-0.81730 0.06173 0.47969-0.89761 0.31923
  -7   5  -834437.31 3590.82   1 0.30329-0.68311 0.95255-0.41060 0.02547-0.60395
   7  -5   832539.00 3842.40   1 0.48275-0.10329 0.43559-0.97793 0.75973-0.18160
   7  -4  -7 4482.63  295.95   1 0.58118 0.10905-0.76054 0.59528 0.28946-0.79607
   7  -4  -7 4665.61  542.16   1 0.02221 0.66919 0.47594-0.64231-0.87919 0.37363
   7  -4  -6  623.04  112.16   1 0.53333 0.13648-0.75908 0.57381 0.37329-0.80752
   7  -4  -6  581.80   99.51   1 0.05137 0.61916 0.45257-0.63878-0.89024 0.45672
   7  -4  -551099.82 4745.06   1 0.47658 0.17252-0.74964 0.54428 0.45923-0.82096
   7  -4  -552321.96 1778.10   1 0.08968 0.56048 0.42043-0.62651-0.90287 0.54160
   7  -4  -435794.37 3122.64   1 0.41048 0.21824-0.73075 0.50541 0.54543-0.83481
   7  -4  -436727.05 3398.27   1 0.13746 0.49233 0.37849-0.60441-0.91533 0.62632
   7  -4  -324385.64 2322.21   1 0.19489 0.41455 0.32525-0.57103-0.92532 0.70856
  -7   4   323804.49 2095.10   1-0.33503-0.27473 0.69954-0.45378-0.63118 0.84770
   7  -4  -2 5978.57  512.20   1 0.26119 0.32778 0.25981-0.52547-0.92966 0.78513
  -7   4   2 6048.40  536.04   1-0.24990-0.33921 0.65729-0.39158-0.71098 0.85533
   7  -4  -110698.69  898.03   1 0.33440 0.23421 0.18186-0.46741-0.92471 0.85244
  -7   4   110906.03  925.83   1-0.15668-0.41209 0.60398-0.31849-0.78144 0.85366
   7  -4   0 3205.05  257.56   1 0.41098 0.13692 0.09311-0.39853-0.90687 0.90687
  -7   4   0 3255.29  374.28   1-0.05956-0.48876 0.53805-0.23270-0.84080 0.84080
   7  -4   0 2244.32  637.32   1 0.45427 0.09289 0.17075-0.47633 0.87434-0.87434
   7  -4   152593.14 4152.38   1 0.48665 0.04093-0.00347-0.32190-0.87358 0.94588
  -7   4  -153362.42 4823.64   1 0.03768-0.56566 0.46373-0.13852-0.88517 0.81291
   7  -4   289580.93 2423.12   1 0.55650-0.04958-0.10340-0.24190-0.82438 0.96903
  -7   4  -288603.12 2424.99   1 0.13017-0.63779 0.38502-0.03995-0.91367 0.76916
  -7   4  -292356.72 2249.91   1 0.27507-0.78164 0.96054-0.61507-0.04109-0.10352
   7  -4   287532.48 2083.53   1 0.48311 0.02328 0.44828-0.79393 0.75209-0.60755
   7  -4   3 3914.99  311.32   1 0.61684-0.13029-0.20143-0.16387-0.76087 0.97783
  -7   4  -3 3287.49  329.08   1 0.21391-0.70117 0.30690 0.05802-0.92738 0.71062
  -7   4  -3 3879.52  312.04   1 0.29149-0.77767 0.95656-0.59108-0.00282-0.21410
   7  -4   3 3594.03  267.02   1 0.48348 0.00250 0.49889-0.86459 0.71926-0.50246
   7  -4   443305.28 3426.05   1 0.66544-0.19944-0.29353-0.09171-0.68630 0.97560
  -7   4  -443647.88 4563.62   1 0.28637-0.75324 0.23369 0.15125-0.92918 0.64011
  -7   4  -442943.93 2215.77   1 0.29865-0.76446 0.95425-0.56874 0.01426-0.30350
   7  -4   442565.28 4120.36   1 0.48319-0.01736 0.52606-0.91164 0.69984-0.41061
   7  -4   5  409.97   54.24   1 0.70161-0.25599-0.37701-0.02823-0.60464 0.96626
  -7   4  -5  341.32   53.68   1 0.34647-0.79299 0.16840 0.23642-0.92281 0.56148
  -7   4  -5  302.79   62.89   1 0.30002-0.74546 0.95377-0.54823 0.01755-0.37910
   7  -4   5  524.52   76.74   1 0.48278-0.03732 0.53773-0.94335 0.69120-0.32966
   7  -4   632694.35 2413.43   1 0.72611-0.30086-0.45054 0.02530-0.51938 0.95333
  -7   4  -631716.24 1337.79   1 0.39474-0.82090 0.11265 0.31205-0.91185 0.47826
  -7   4  -631465.95 3126.44   1 0.29738-0.72244 0.95469-0.52913 0.01120-0.44506
   7  -4   631323.79 4008.75   1 0.48272-0.05763 0.53922-0.96489 0.69008-0.25623
   7  -4   7  -30.82  107.94   1 0.74047-0.33613-0.51409 0.06887-0.43289 0.93929
  -7   4  -7  189.23   83.55   1 0.43244-0.83802 0.06671 0.37839-0.89918 0.39310
  -7   4  -7  144.68   52.37   1 0.29173-0.69642 0.95649-0.51091-0.00223-0.50393
   7  -4   7   96.16   62.84   1 0.48295-0.07824 0.53325-0.97897 0.69454-0.18839
   7  -4   817344.02 1406.77   1 0.74592-0.36195-0.56802 0.10281-0.34776 0.92650
  -7   4  -815984.33 1861.22   1 0.46090-0.84615 0.03052 0.43454-0.88692 0.30853
  -7   4  -817402.78 1694.69   1 0.28369-0.66801 0.95868-0.49308-0.02114-0.55733
   7  -4   817287.96 1660.05   1 0.48332-0.09898 0.52148-0.98724 0.70316-0.12471
   7  -4   9  756.71  121.68   1 0.74417-0.38074-0.61335 0.12821-0.26457 0.91574
  -7   4  -9  752.14  113.70   1 0.48175-0.84666 0.00309 0.48193-0.87630 0.22561
  -7   4  -9  838.31  124.67   1 0.27363-0.63757 0.96080-0.47518-0.04441-0.60638
   7  -4   9  885.83  113.28   1 0.48341-0.11986 0.50467-0.99066 0.71527-0.06487
   7  -3  -830855.09 2920.53   1 0.64570 0.06913-0.74839 0.67945 0.15156-0.73045
   7  -3  -831267.57 3736.52   1-0.04036 0.75659 0.52400-0.59418-0.85076 0.27297
   7  -3  -742577.56 3181.73   1 0.61005 0.08463-0.75759 0.66864 0.23213-0.73874
   7  -3  -742172.08 4178.04   1-0.02149 0.71728 0.50987-0.59991-0.85997 0.35441
   7  -3  -658932.98 4691.63   1 0.56657 0.10769-0.76085 0.65190 0.31637-0.75061
   7  -3  -658287.81 1948.84   1 0.00555 0.66979 0.48907-0.59896-0.87222 0.43888
   7  -3  -536040.46 2943.90   1 0.51406 0.13979-0.75670 0.62776 0.40388-0.76575
   7  -3  -535656.26 3542.90   1 0.04167 0.61283 0.46050-0.59023-0.88667 0.52540
   7  -3  -4  100.18   74.80   1 0.45111 0.18207-0.74326 0.59423 0.49402-0.78341
   7  -3  -4  150.07   59.03   1 0.08861 0.54552 0.42135-0.57094-0.90255 0.61354
   7  -3  -368777.88 5858.63   1 0.14675 0.46701 0.37008-0.53953-0.91733 0.70056
  -7   3   367156.38 6298.48   1-0.37735-0.23690 0.71729-0.54795-0.58574 0.80226
   7  -3  -292824.92 2345.07   1 0.21590 0.37751 0.30496-0.49427-0.92756 0.78305
  -7   3   298687.02 6438.00   1-0.29176-0.30185 0.67909-0.48979-0.67357 0.81791
   7  -3  -1 6019.46  569.59   1 0.29433 0.27862 0.22529-0.43448-0.92876 0.85650
  -7   3   1 6038.71  455.87   1-0.19557-0.37739 0.62625-0.41698-0.75468 0.82685
   7  -3   064824.25 1815.61   1 0.37843 0.17416 0.13184-0.36091-0.91618 0.91618
  -7   3   065921.27 1843.41   1-0.09148-0.46121 0.56067-0.33166-0.82296 0.82296
   7  -3   062999.23 1341.32   1 0.47974 0.07196 0.37628-0.60545 0.79262-0.79262
   7  -3   1119235.9 2856.39   1 0.46276 0.06919 0.02812-0.27714-0.88603 0.95833
  -7   3  -1121941.8 2934.89   1 0.01491-0.54718 0.48173-0.23287-0.87619 0.80396
   7  -3   1122441.3 2552.47   1 0.48304 0.04837 0.53075-0.77985 0.69639-0.62408
   7  -3   2  856.71   96.15   1 0.54127-0.02965-0.08033-0.18864-0.83700 0.98159
  -7   3  -2  797.24   85.76   1 0.11795-0.62991 0.39587-0.12713-0.91069 0.76618
   7  -3   2  745.74  130.25   1 0.47899 0.03205 0.59679-0.86593 0.64374-0.49912
   7  -3   355738.51 4840.75   1 0.60878-0.11779-0.18747-0.10150-0.77086 0.98783
  -7   3  -355834.26 1683.75   1 0.21188-0.70346 0.30888-0.02029-0.92719 0.71043
   7  -3   357341.89 1522.39   1 0.47577 0.01489 0.62742-0.91661 0.61641-0.39949
   7  -3   4108585.4 2466.40   1 0.66241-0.19196-0.28727-0.02166-0.69186 0.98116
  -7   3  -4109782.1 2491.59   1 0.29298-0.76418 0.22671 0.08187-0.92884 0.63978
   7  -3   4109248.4 6320.57   1 0.47423-0.00394 0.63960-0.94883 0.60498-0.31575
   7  -3   5 5839.98  584.83   1 0.70145-0.25137-0.37659 0.04766-0.60509 0.96671
  -7   3  -5 4726.26  805.11   1 0.35962-0.81046 0.15352 0.17494-0.92037 0.55905
  -7   3  -5 5597.31  530.10   1 0.26489-0.71483 0.96213-0.63295-0.06425-0.29729
   7  -3   5 5735.45  775.46   1 0.47410-0.02418 0.64056-0.96984 0.60406-0.24252
   7  -3   6  121.57   69.44   1 0.72707-0.29736-0.45400 0.10507-0.51501 0.94896
  -7   3  -6  310.17   66.92   1 0.41252-0.84281 0.09124 0.25756-0.90636 0.47257
  -7   3  -6  131.19   52.64   1 0.26676-0.69632 0.96188-0.61269-0.06004-0.37382
   7  -3   6   88.48   26.62   1 0.47497-0.04542 0.63393-0.98325 0.61035-0.17650
   7  -3   715746.43 1008.13   1 0.74136-0.33252-0.51974 0.15083-0.42455 0.93095
  -7   3  -715773.14 2018.59   1 0.45294-0.86289 0.04080 0.32796-0.89060 0.38451
  -7   3  -716489.33 1095.39   1 0.26451-0.67369 0.96218-0.59296-0.06511-0.44105
   7  -3   715381.49 1254.74   1 0.47645-0.06727 0.62165-0.99101 0.62171-0.11556
   7  -3   8 3109.76  263.54   1 0.74607-0.35761-0.57459 0.18568-0.33647 0.91522
  -7   3  -8 3171.81  354.96   1 0.48308-0.87269 0.00132 0.38739-0.87557 0.29719
   7  -3   8 3196.21  357.98   1 0.47823-0.08943 0.60488-0.99428 0.63671-0.05826
   7  -3   9 8572.13  840.01   1 0.74328-0.37536-0.61996 0.21111-0.25133 0.90251
  -7   3  -9 8494.93 1029.74   1 0.50483-0.87411-0.02829 0.43697-0.86275 0.21206
   7  -3   9 9448.11 1308.92   1 0.48004-0.11161 0.58429-0.99374 0.65433-0.00356
   7  -3  10 4411.79  479.36   1 0.73440-0.38687-0.65710 0.22826-0.16990 0.89343
  -7   3 -10 3913.88  613.49   1 0.51980-0.86875-0.04928 0.47791-0.85286 0.12988
   7  -3  10 4056.11  547.57   1 0.48168-0.13362 0.56031-0.98980 0.67381 0.04925
   7  -2  -7 1972.53  198.56   1 0.63977 0.05912-0.75044 0.73781 0.16588-0.67240
   7  -2  -7 1808.63  245.41   1-0.06262 0.76278 0.54025-0.55395-0.83916 0.33360
   7  -2  -6  163.76   77.15   1 0.60188 0.07685-0.75877 0.72615 0.24898-0.68322
   7  -2  -6  153.27  104.22   1-0.03839 0.71811 0.52254-0.55609-0.85174 0.41840
   7  -2  -5 6703.78  702.06   1 0.55503 0.10328-0.76060 0.70797 0.33677-0.69864
   7  -2  -5 6386.16  554.10   1-0.00440 0.66368 0.49681-0.55022-0.86784 0.50672
   7  -2  -457508.63 4408.89   1 0.49742 0.14022-0.75393 0.68122 0.42912-0.71851
   7  -2  -457749.73 5406.38   1 0.04059 0.59787 0.46137-0.53462-0.88627 0.59725
   7  -2  -356676.94 4113.72   1 0.42756 0.18969-0.73634 0.64365 0.52439-0.74143
   7  -2  -354510.19 5334.36   1 0.09869 0.51941 0.41269-0.50579-0.90550 0.68874
   7  -2  -217950.39 1684.09   1 0.17007 0.42766 0.34864-0.46160-0.92169 0.77718
  -7   2   217634.71 1454.60   1-0.34431-0.25378 0.70363-0.59074-0.62156 0.76591
   7  -2  -1 1573.12  165.85   1 0.25363 0.32364 0.26751-0.40034-0.92957 0.85730
  -7   2   1 1372.35  157.58   1-0.24686-0.33059 0.65563-0.52278-0.71357 0.78575
   7  -2   013837.56 1227.00   1 0.34579 0.21113 0.16917-0.32188-0.92293 0.92293
  -7   2   013453.77 1172.71   1-0.13734-0.41973 0.59154-0.43887-0.79448 0.79448
   7  -2   012613.75  289.33   1 0.47437 0.08187 0.63854-0.79124 0.60599-0.60599
   7  -2   1 4765.03  428.68   1 0.44004 0.09628 0.05719-0.22985-0.89615 0.96844
   7  -2   1 4929.20  500.09   1 0.46074 0.07515 0.71605-0.88881 0.52437-0.45205
   7  -2   2100660.7 2439.99   1 0.52846-0.01247-0.06166-0.13096-0.84671 0.99130
  -7   2  -296867.92 2382.22   1 0.09412-0.61041 0.41663-0.22423-0.90419 0.75968
   7  -2   327656.35 2387.04   1 0.60398-0.10857-0.17931-0.03333-0.77656 0.99352
  -7   2  -327198.54 2710.80   1 0.20079-0.69671 0.31959-0.10734-0.92603 0.70927
   7  -2   325728.58 1780.67   1 0.45194 0.04322 0.75026-0.96312 0.48253-0.26556
   7  -2   4 4786.33  373.01   1 0.66269-0.18779-0.28784 0.05522-0.69135 0.98065
  -7   2  -4 4767.04  497.35   1 0.29301-0.76853 0.22669 0.00554-0.92884 0.63978
   7  -2   4 4686.46  351.57   1 0.45280 0.02199 0.74722-0.98012 0.48643-0.19713
   7  -2   561094.31 4428.74   1 0.70399-0.24945-0.38327 0.13065-0.59790 0.95953
  -7   2  -558447.75 1590.13   1 0.36807-0.82324 0.14385 0.10826-0.91860 0.55727
   7  -2   561174.38 1539.02   1 0.45541-0.00098 0.73764-0.99059 0.49847-0.13685
   7  -2   6 9503.83  588.22   1 0.72995-0.29625-0.46426 0.19166-0.50162 0.93568
  -7   2  -6 8958.32 1176.06   1 0.42669-0.86135 0.07386 0.19858-0.90137 0.46758
   7  -2   6 9165.37 1112.42   1 0.45903-0.02496 0.72333-0.99632 0.51582-0.08187
   7  -2   711049.83  696.50   1 0.74297-0.32964-0.53134 0.23875-0.40701 0.91341
  -7   2  -710975.19 1196.53   1 0.47065-0.88497 0.01781 0.27459-0.88213 0.37605
   7  -2   710184.00 1121.56   1 0.46296-0.04932 0.70530-0.99831 0.53686-0.03071
   7  -2   8 9842.95  707.29   1 0.74602-0.35306-0.58619 0.27360-0.31595 0.89469
  -7   2  -8 9349.32 1206.74   1 0.50281-0.89680-0.02550 0.33786-0.86401 0.28563
   7  -2   810075.21 1158.07   1 0.46720-0.07393 0.68404-0.99709 0.56018 0.01826
   7  -2   911955.04  804.35   1 0.74144-0.36902-0.63068 0.29814-0.22912 0.88030
  -7   2  -911447.91 1635.20   1 0.52563-0.89929-0.05760 0.38992-0.84875 0.19807
   7  -2   912221.16 1269.43   1 0.47131-0.09842 0.65988-0.99298 0.58516 0.06559
   7  -2  10 4699.26  484.50   1 0.73088-0.37885-0.66646 0.31393-0.14705 0.87058
  -7   2 -10 4676.12  621.66   1 0.54111-0.89443-0.08010 0.43237-0.83712 0.11414
   7  -2  10 5290.21  667.06   1 0.47509-0.12257 0.63299-0.98613 0.61123 0.11184
   7  -1  -7  120.79   87.47   1 0.66901 0.03436-0.73770 0.80138 0.09063-0.59716
   7  -1  -6 1453.34  227.77   1 0.63761 0.04534-0.75113 0.79481 0.17098-0.60515
   7  -1  -6 1364.65  207.29   1-0.07956 0.76365 0.55232-0.50954-0.82982 0.39648
   7  -1  -5 1893.96  155.47   1 0.59797 0.06479-0.75924 0.78293 0.25685-0.61871
   7  -1  -5 1828.95  195.63   1-0.04851 0.71216 0.53000-0.50707-0.84660 0.48549
   7  -1  -4 5070.10  393.11   1 0.54800 0.09434-0.76025 0.76394 0.34885-0.63834
   7  -1  -4 4778.86  500.34   1-0.00546 0.64867 0.49762-0.49455-0.86737 0.57847
   7  -1  -340681.82 3453.79   1 0.48520 0.13651-0.75152 0.73515 0.44696-0.66400
   7  -1  -344800.92 4310.37   1 0.05136 0.57108 0.45258-0.46935-0.89024 0.67347
   7  -1  -284769.35 4631.41   1 0.40724 0.19408-0.72964 0.69329 0.54933-0.69402
   7  -1  -283834.67 2253.58   1 0.12427 0.47780 0.39028-0.42690-0.91226 0.76776
   7  -1  -1 3083.79  265.84   1 0.21281 0.36890 0.30797-0.36445-0.92728 0.85503
  -7   1   1 2793.66  268.19   1-0.31242-0.26952 0.68913-0.63269-0.65381 0.72598
   7  -1  -1 2421.06  316.76   1 0.42408 0.15700 0.82570-0.88201 0.37196-0.44428
   7  -1  -1 2558.88  178.95   1 0.40730 0.17374-0.03999-0.01644 0.91241-0.98465
   7  -1   039511.09 3240.98   1 0.31365 0.24760 0.20459-0.28094-0.92723 0.92723
  -7   1   037730.50 1166.55   1-0.20022-0.36108 0.62902-0.55261-0.75115 0.75115
   7  -1   037212.64  887.05   1 0.40325 0.15746 0.86423-0.94059 0.30079-0.30079
   7  -1   038165.58  920.45   1 0.21213 0.34794-0.53593 0.45951 0.81717-0.81717
   7  -1   1  305.20   51.74   1 0.41939 0.12130 0.08285-0.17916-0.90401 0.97631
  -7   1  -1  387.62   49.45   1-0.07512-0.46588 0.54918-0.45299-0.83231 0.76009
   7  -1   1  404.63   51.19   1 0.39989 0.14045 0.86945-0.96585 0.29003-0.21770
   7  -1   2 1137.63  103.39   1 0.51942 0.00093-0.04874-0.06751-0.85312 0.99771
  -7   1  -2  970.88  147.09   1 0.05443-0.57505 0.45005-0.33400-0.89133 0.74683
   7  -1   2 1179.53  134.69   1 0.40313 0.11684 0.86443-0.98086 0.30040-0.15572
   7  -1   364532.87 1745.96   1 0.60387-0.10403-0.17914 0.04281-0.77668 0.99365
  -7   1  -365398.00 1781.50   1 0.17722-0.67748 0.34196-0.20605-0.92284 0.70608
   7  -1   484599.99 2113.98   1 0.66739-0.18803-0.29761 0.14130-0.68264 0.97194
  -7   1  -483246.77 2125.87   1 0.28415-0.76400 0.23602-0.08013-0.92927 0.64020
   7  -1   483822.71 2032.32   1 0.41710 0.06215 0.83982-0.99637 0.34743-0.05813
   7  -1   5   90.81   41.99   1 0.70978-0.25079-0.39914 0.22283-0.58042 0.94204
  -7   1  -5  -31.58   74.92   1 0.37046-0.82996 0.14109 0.03467-0.91806 0.55673
   7  -1   5   60.99   52.60   1 0.42546 0.03342 0.82273-0.99932 0.37693-0.01531
   7  -1   618188.89 1218.36   1 0.73439-0.29619-0.48274 0.28645-0.47710 0.91115
  -7   1  -616199.87 1956.59   1 0.43665-0.87568 0.06145 0.13463-0.89752 0.46374
   7  -1   615534.29 1950.47   1 0.43395 0.00456 0.80302-0.99966 0.40844 0.02549
   7  -1   716517.20 1029.71   1 0.74489-0.32707-0.54995 0.33366-0.37772 0.88413
  -7   1  -716881.73 1794.37   1 0.48519-0.90388-0.00150 0.21755-0.87440 0.36832
   7  -1   714609.19 1838.60   1 0.44224-0.02409 0.78090-0.99758 0.44114 0.06512
   7  -1   815996.64  992.19   1 0.74517-0.34786-0.60345 0.36721-0.28381 0.86263
  -7   1  -815412.57 2110.88   1 0.51991-0.91827-0.04943 0.28544-0.85278 0.27440
   7  -1   816596.08 1657.85   1 0.45013-0.05234 0.75646-0.99318 0.47449 0.10409
   7  -1   928970.00 2251.91   1 0.73789-0.36098-0.64578 0.38954-0.19614 0.84731
  -7   1  -929573.24 4109.99   1 0.54405-0.92207-0.08443 0.34040-0.83479 0.18410
   7  -1   928370.25 2733.88   1 0.45745-0.08003 0.72974-0.98651 0.50814 0.14277
   7  -1  1037210.73 2729.63   1 0.72506-0.36854-0.67913 0.40290-0.11423 0.83776
  -7   1 -1034829.50 1453.41   1 0.56023-0.91753-0.10908 0.38542-0.82112 0.09789
   7  -1  1034785.76 3550.46   1 0.46390-0.10692 0.70082-0.97761 0.54188 0.18119
   7  -1  11 7805.43  859.71   1 0.70809-0.37211-0.70513 0.40883-0.03732 0.83329
  -7   1 -11 7212.47 1462.94   1 0.57011-0.90705-0.12435 0.42069-0.81209 0.01654
   7  -1  11 8051.16  891.02   1 0.46975-0.13314 0.66953-0.96636 0.57537 0.22000
   7   0  -7 4900.19  355.17   1 0.69603 0.01181-0.71796 0.85795 0.00705-0.51358
   7   0  -7 4507.84  453.79   1-0.13501 0.84391 0.59002-0.45104-0.79601 0.29045
   7   0  -6 2477.72  345.49   1 0.67188 0.01555-0.73604 0.85603 0.08251-0.51668
   7   0  -6 2358.96  355.70   1-0.11731 0.80577 0.57829-0.45917-0.80734 0.37400
   7   0  -548455.42 4567.84   1 0.64055 0.02647-0.75018 0.85018 0.16401-0.52582
   7   0  -549401.37 4391.83   1-0.08959 0.75762 0.55935-0.46009-0.82406 0.46295
   7   0  -531280.70 1342.00   1 0.28352 0.38364 0.95872-0.85861-0.02155-0.33999
   7   0  -410559.52  856.80   1 0.60008 0.04672-0.75900 0.83901 0.25261-0.54210
   7   0  -410439.42 1115.88   1-0.04944 0.69702 0.53068-0.45127-0.84612 0.55723
   7   0  -410061.48  200.94   1 0.36973 0.27692 0.90751-0.82737 0.19929-0.48863
   7   0  -318438.75 1671.83   1 0.54765 0.07873-0.76023 0.82024 0.34944-0.56656
   7   0  -320017.97 2283.31   1 0.00600 0.62113 0.48872-0.42916-0.87241 0.65574
   7   0  -319430.53  292.10   1 0.45536 0.17091 0.73785-0.67771 0.49821-0.71518
   7   0  -2 2806.70  201.98   1 0.47965 0.12613-0.75033 0.79029 0.45490-0.59959
   7   0  -2 3077.15  389.89   1 0.07921 0.52719 0.42934-0.38963-0.89965 0.75514
   7   0  -2 3043.08  128.81   1 0.48118 0.12483 0.39974-0.35964 0.78016-0.92470
   7   0  -136312.33 3242.03   1 0.17239 0.41365 0.34648-0.32663-0.92207 0.84982
  -7   0   135248.11 2824.01   1-0.39256-0.19387 0.72308-0.74304-0.56836 0.64054
   7   0   014857.73 1401.37   1 0.28279 0.28279 0.23745-0.23745-0.92932 0.92932
  -7   0   014140.66 1743.38   1-0.28289-0.28289 0.67464-0.67464-0.68178 0.68178
   7   0   014190.00 1321.57   1 0.28264 0.28264 0.95893-0.95893-0.02359 0.02359
   7   0   013838.04  382.90   1 0.28239 0.28239-0.39315 0.39315 0.87503-0.87503
   7   0   118485.14 1543.83   1 0.40215 0.14291 0.10377-0.12373-0.90967 0.98196
  -7   0  -117139.39 1777.05   1-0.15205-0.39333 0.60103-0.58118-0.78462 0.71240
   7   0   118078.10  460.84   1 0.30774 0.23717 0.95077-0.97079 0.03630 0.03600
   7   0   117917.52  495.48   1 0.15342 0.39069-0.63588 0.61589 0.75637-0.68412
   7   0   212446.52 1001.69   1 0.51615 0.00858-0.04411 0.00420-0.85535 0.99995
  -7   0  -211148.70 1281.71   1-0.00768-0.51726 0.49933-0.45963-0.86637 0.72192
   7   0   211043.95 1141.00   1 0.33009 0.19435 0.93944-0.97951 0.09205 0.05261
   7   0   326364.33 1978.50   1 0.61050-0.10622-0.19042 0.13042-0.76878 0.98575
  -7   0  -326667.69  729.86   1 0.13554-0.64013 0.38021-0.32064-0.91490 0.69814
   7   0   325965.45 1636.14   1 0.35021 0.15386 0.92536-0.98546 0.14507 0.07192
   7   0   4100279.8 2352.39   1 0.67783-0.19402-0.32013 0.24013-0.66185 0.95115
  -7   0  -4100026.0 2359.61   1 0.26256-0.74674 0.25840-0.17888-0.92967 0.64060
   7   0   4101008.4 2353.18   1 0.36849 0.11522 0.90878-0.98892 0.19576 0.09357
   7   0   5221960.1 4697.16   1 0.71914-0.25569-0.42707 0.32708-0.54812 0.90974
  -7   0  -5221755.9 4705.76   1 0.36457-0.82840 0.14786-0.04845-0.91935 0.55802
   7   0   5223238.9 4739.09   1 0.38517 0.07817 0.88985-0.99003 0.24452 0.11715
   7   0   626571.20 1845.62   1 0.74003-0.29735-0.51144 0.39146-0.43676 0.87082
  -7   0  -627156.63 2984.55   1 0.44122-0.88462 0.05570 0.06403-0.89566 0.46187
   7   0   627193.30 2524.06   1 0.40040 0.04257 0.86868-0.98889 0.29164 0.14236
   7   0   7  321.74   60.78   1 0.74609-0.32378-0.57661 0.43663-0.33294 0.83935
  -7   0  -7  358.82   47.72   1 0.49595-0.91902-0.01608 0.15578-0.86819 0.36211
   7   0   7  486.13   67.63   1 0.41420 0.00840 0.84529-0.98562 0.33750 0.16876
   7   0   810143.98  717.55   1 0.74218-0.34037-0.62673 0.46679-0.23741 0.81623
  -7   0  -810209.98 1149.24   1 0.53405-0.93679-0.06976 0.22941-0.84256 0.26418
   7   0   8 9619.56  799.57   1 0.42681-0.02457 0.81977-0.98014 0.38183 0.19675
   7   0   9 3772.16  939.22   1 0.73137-0.34996-0.66525 0.48532-0.15006 0.80124
  -7   0  -9 3916.33 1098.47   1 0.56001-0.94211-0.10876 0.28876-0.82131 0.17040
   7   0   9 4105.26  451.65   1 0.43820-0.05633 0.79208-0.97250 0.42493 0.22597
   7   0  1023845.77 1840.07   1 0.71574-0.35472-0.69487 0.49494-0.06969 0.79322
  -7   0 -1021923.94 4000.50   1 0.57687-0.93860-0.13499 0.33500-0.80559 0.08237
   7   0  1023755.02 2905.57   1 0.44838-0.08688 0.76221-0.96267 0.46688 0.25634
   7   0  1184307.43 7933.00   1 0.69664-0.35618-0.71739 0.49741 0.00495 0.79101
  -7   0 -1187451.89 2482.68   1 0.58710-0.92847-0.15138 0.37139-0.79522-0.00032
   7   0  1191989.92 1984.71   1 0.45736-0.11623 0.73009-0.95059 0.50772 0.28784
   7   1  -7   27.96   72.61   1 0.71889-0.00671-0.69004 0.90629-0.08387-0.42259
   7   1  -7   -8.88   99.02   1-0.16444 0.87923 0.60714-0.39098-0.77738 0.27218
   7   1  -6 2537.64  210.11   1 0.70231-0.01039-0.71169 0.90800-0.01532-0.41884
   7   1  -6 3000.41  356.11   1-0.15105 0.84388 0.60039-0.40493-0.78530 0.35196
   7   1  -5 3233.42  477.63   1 0.67996-0.00845-0.73088 0.90718 0.05883-0.42064
   7   1  -5 2947.78  378.21   1-0.12692 0.79932 0.58470-0.40909-0.80125 0.44014
   7   1  -5 2357.97  348.08   1 0.41299 0.25848 0.84751-0.67093 0.33339-0.69500
   7   1  -4 9343.22  537.07   1 0.65025 0.00084-0.74665 0.90295 0.14028-0.42972
   7   1  -410363.74 1076.58   1-0.09014 0.74210 0.55974-0.40399-0.82374 0.53485
   7   1  -4 7822.38 1011.84   1 0.45672 0.19437 0.73260-0.57606 0.50465-0.79395
   7   1  -3 3126.06  362.94   1 0.61066 0.02018-0.75749 0.89382 0.23085-0.44797
   7   1  -3 3519.86  380.85   1-0.03714 0.66865 0.52161-0.38571-0.85237 0.63570
   7   1  -3 2396.23  590.74   1 0.48215 0.14860 0.55161-0.41512 0.68062-0.89754
   7   1  -2108250.0 2466.53   1 0.55732 0.05310-0.76068 0.87701 0.33277-0.47752
   7   1  -112780.15 1274.87   1 0.48480 0.10505-0.75144 0.84774 0.44755-0.51989
   7   1  -113581.52 1587.18   1 0.13325 0.45712 0.38227-0.28607-0.91438 0.84213
   7   1  -113968.77  384.17   1 0.41823 0.17189 0.00188 0.09449 0.90833-0.98057
   7   1   056539.57 1463.18   1 0.25432 0.31559 0.26681-0.19045-0.92958 0.92958
  -7  -1   053999.46 1420.28   1-0.38686-0.18342 0.72094-0.79736-0.57495 0.57495
   7   1   055477.44 1329.67   1 0.32787 0.24145-0.28376 0.36017 0.90109-0.90109
   7   1   113753.74 1517.35   1 0.39039 0.15916 0.11780-0.06133-0.91307 0.98534
  -7  -1  -113992.45  487.08   1-0.25796-0.29168 0.66164-0.71808-0.70405 0.63187
   7   1   113871.13  461.19   1 0.22536 0.32334-0.51119 0.56761 0.82939-0.75714
   7   1   2 6755.38  652.15   1 0.52184 0.00726-0.05218 0.08862-0.85144 0.99603
  -7  -1  -2 6169.30  890.99   1-0.10206-0.42724 0.56796-0.60459-0.81669 0.67225
   7   1   2 6940.67  782.34   1 0.13132 0.39683-0.66969 0.70613 0.73093-0.58643
   7   1   3 7216.09 1216.69   1 0.62682-0.11812-0.21915 0.23548-0.74770 0.96467
  -7  -1  -3 7643.62 1203.64   1 0.06592-0.57484 0.44052-0.45729-0.89531 0.67855
   7   1   3 7239.07  793.22   1 0.28141 0.22725 0.95922-0.94293-0.02646 0.24339
   7   1   4175435.5 3700.42   1 0.69532-0.20705-0.36102 0.35734-0.62143 0.91073
  -7  -1  -4153802.1 3303.96   1 0.22109-0.70965 0.29988-0.29679-0.92800 0.63898
   7   1   4181267.2 3862.68   1 0.31093 0.17735 0.94940-0.95313 0.04414 0.24509
   7   1   5 6353.78  514.94   1 0.73165-0.26409-0.47104 0.44736-0.49275 0.85446
  -7  -1  -5 5480.28  819.01   1 0.34645-0.81461 0.16843-0.14538-0.92282 0.56149
   7   1   5 6026.17  652.74   1 0.33697 0.13085 0.93508-0.95889 0.10987 0.25180
   7   1   6 7932.59  884.33   1 0.74509-0.29791-0.55248 0.50881-0.37362 0.80768
  -7  -1  -6 7114.58 1001.19   1 0.43842-0.88620 0.05922-0.01584-0.89681 0.46302
   7   1   6 7872.38  808.71   1 0.35986 0.08758 0.91710-0.96094 0.17151 0.26250
   7   1   724642.15 2411.08   1 0.74432-0.31762-0.61211 0.54846-0.26702 0.77349
  -7  -1  -727741.03 3462.66   1 0.50198-0.92942-0.02435 0.08769-0.86453 0.35844
   7   1   725730.89 2201.74   1 0.38018 0.04689 0.89593-0.95981 0.22967 0.27667
   7   1   826329.95 2470.14   1 0.73477-0.32847-0.65600 0.57236-0.17251 0.75133
  -7  -1  -827995.14 2894.78   1 0.54476-0.95187-0.08549 0.16879-0.83421 0.25583
   7   1   826655.83 2526.00   1 0.39826 0.00844 0.87191-0.95582 0.28487 0.29381
   7   1   926415.84 1851.42   1 0.71976-0.33385-0.68861 0.58498-0.08796 0.73914
  -7  -1  -926627.22 1079.31   1 0.57305-0.95957-0.12896 0.23263-0.80930 0.15840
   7   1   923749.59 2392.22   1 0.41425-0.02792 0.84520-0.94926 0.33767 0.31324
   7   1  1053707.49 3644.70   1 0.70120-0.33586-0.71286 0.58919-0.01126 0.73488
  -7  -1 -1055457.14 1786.98   1 0.59101-0.95717-0.15775 0.28143-0.79108 0.06785
   7   1  1056153.68 5938.21   1 0.42851-0.06255 0.81596-0.94006 0.38804 0.33519
   7   1  11 4484.78  443.66   1 0.67986-0.33492-0.73095 0.58727 0.05913 0.73683
  -7  -1 -11 4361.12 1077.17   1 0.60174-0.94753-0.17553 0.31921-0.77916-0.01638
   7   1  11 4841.69  568.14   1 0.44107-0.09548 0.78422-0.92837 0.43639 0.35916
   7   2  -6   95.66   70.25   1 0.72632-0.03003-0.67664 0.94920-0.12089-0.31322
   7   2  -6  235.09   50.21   1-0.17911 0.87774 0.61626-0.34365-0.76689 0.33386
   7   2  -5 1436.73  209.72   1 0.71276-0.03687-0.69909 0.95166-0.05685-0.30490
   7   2  -5 1328.14  231.67   1-0.15977 0.83654 0.60593-0.35399-0.77929 0.41818
   7   2  -5  967.92  189.22   1 0.44910 0.22682 0.75988-0.50693 0.46998-0.83160
  -7  -2   5  604.37  331.35   1 0.15947-0.83605-0.62629 0.37353 0.76309-0.40183
   7   2  -4 3956.36  246.15   1 0.69420-0.03862-0.71965 0.95227 0.01335-0.30279
   7   2  -4 3826.41  334.37   1-0.12667 0.78300 0.58453-0.35245-0.80141 0.51252
   7   2  -4 3328.36  528.74   1 0.47456 0.18103 0.63715-0.40427 0.60731-0.89654
  -7  -2   4 2953.58  686.05   1 0.12664-0.78268-0.67658 0.44381 0.72538-0.43637
   7   2  -357260.57 4158.54   1 0.66862-0.03345-0.73792 0.95053 0.09171-0.30879
   7   2  -358460.28 4916.71   1-0.07669 0.71258 0.55030-0.33806-0.83143 0.61476
   7   2  -242963.63 1222.12   1 0.63309-0.01834-0.75248 0.94510 0.18153-0.32625
   7   2  -240623.69 3664.53   1-0.00421 0.61966 0.49666-0.30428-0.86793 0.72348
   7   2  -242671.75  995.33   1 0.46881 0.14625 0.26701-0.07418 0.84196-0.98646
   7   2  -112069.70 1953.89   1 0.58250 0.01196-0.76048 0.93312 0.28696-0.35934
   7   2  -112116.33 1766.21   1 0.09657 0.49813 0.41451-0.24197-0.90490 0.83264
   7   2  -112947.67 1268.69   1 0.42638 0.16829 0.03524 0.13754 0.90385-0.97609
   7   2   0 3181.28  554.02   1 0.50829 0.06576-0.75582 0.90846 0.41275-0.41274
   7   2   0 2823.50  350.16   1 0.22997 0.34426 0.29123-0.13852-0.92859 0.92859
   7   2   0 3026.90  377.40   1 0.35958 0.21466-0.19588 0.34870 0.91231-0.91231
   7   2   111453.17 1557.41   1 0.38782 0.16606 0.12083 0.01199-0.91377 0.98604
  -7  -2  -112981.61 1121.57   1-0.39844-0.15569 0.72523-0.85809-0.56150 0.48932
   7   2   112397.99 1339.69   1 0.27938 0.27400-0.39986 0.53275 0.87295-0.80068
   7   2   2 9202.04 1015.31   1 0.54219-0.00871-0.08169 0.19449-0.83626 0.98086
  -7  -2  -2 8811.95  390.26   1-0.24232-0.29116 0.65314-0.76604-0.71740 0.57306
   7   2   210435.76 1015.77   1 0.19855 0.33419-0.56045 0.67330 0.80403-0.65952
   7   2   361307.52 1442.73   1 0.65720-0.14407-0.27686 0.36951-0.70101 0.91798
  -7  -2  -356704.46 1437.30   1-0.05012-0.46312 0.53118-0.62429-0.84577 0.62910
   7   2   366603.78 1744.62   1 0.12632 0.38587-0.67706 0.76993 0.72499-0.50824
   7   2   432144.02  674.85   1 0.71996-0.22723-0.42970 0.50233-0.54498 0.83427
  -7  -2  -431863.65  678.51   1 0.14609-0.63899 0.37069-0.44394-0.91719 0.62817
   7   2   514141.62 1366.42   1 0.74354-0.27150-0.53613 0.58877-0.39962 0.76133
  -7  -2  -514325.35  488.92   1 0.30833-0.78082 0.21033-0.26364-0.92773 0.56640
   7   2   513164.34 1748.76   1 0.28486 0.18754 0.95839-0.90578-0.01841 0.37996
   7   2   682069.38 2064.45   1 0.74480-0.29322-0.60756 0.64021-0.27591 0.71003
  -7  -2  -683833.67 2102.11   1 0.42458-0.87672 0.07647-0.10945-0.90215 0.46836
   7   2   685068.92 2240.31   1 0.31502 0.13701 0.94753-0.91495 0.05426 0.37959
   7   2   7 6098.17  642.64   1 0.73473-0.30353-0.65614 0.66879-0.17218 0.67865
  -7  -2  -7 5244.76 1057.85   1 0.50157-0.93339-0.02379 0.01078-0.86478 0.35869
   7   2   7 5318.47  705.69   1 0.34190 0.08964 0.93166-0.91918 0.12285 0.38348
   7   2   8 5131.10  305.05   1 0.71885-0.30805-0.69010 0.68276-0.08369 0.66251
  -7  -2  -8 4403.41 1001.60   1 0.55138-0.96270-0.09568 0.10303-0.82874 0.25016
   7   2   8 4873.58  535.83   1 0.36561 0.04557 0.91166-0.91922 0.18758 0.39109
   7   2   9 4012.19  289.91   1 0.69981-0.30958-0.71429 0.68693-0.00623 0.65748
  -7  -2  -9 3384.48  795.38   1 0.58287-0.97382-0.14455 0.17190-0.79960 0.14869
   7   2   9 3829.72  453.79   1 0.38663 0.00418 0.88800-0.91558 0.24892 0.40209
   7   2  1012890.51 1144.43   1 0.67851-0.30869-0.73186 0.68450 0.06317 0.66043
  -7  -2 -1013880.99  719.34   1 0.60242-0.97301-0.17669 0.22404-0.77837 0.05514
   7   2  1013628.84 1426.05   1 0.40524-0.03479 0.86102-0.90865 0.30724 0.41610
   7   2  11 7839.74 1034.38   1 0.65556-0.30615-0.74442 0.67706 0.12674 0.66922
  -7  -2 -11 6752.04 1961.29   1 0.61389-0.96412-0.19629 0.26364-0.76459-0.03095
   7   2  11 8337.49  999.56   1 0.42156-0.07151 0.83097-0.89876 0.36299 0.43256
   7   3  -627899.64 3442.48   1 0.74166-0.04088-0.62954 0.97841-0.23153-0.20258
   7   3  -627861.99 4332.42   1-0.20285 0.90598 0.63058-0.28156-0.74913 0.31610
  -7  -3   631571.24 1057.97   1 0.20276-0.90449-0.55294 0.20378 0.80817-0.37465
   7   3  -568616.67 6022.24   1 0.73579-0.05541-0.65288 0.98175-0.17985-0.18190
   7   3  -575856.75 2778.81   1-0.18601 0.86849 0.62048-0.29142-0.76183 0.40097
   7   3  -572713.84 2439.98   1 0.46370 0.21672 0.70175-0.37248 0.54084-0.90237
  -7  -3   567527.64 2375.32   1 0.18537-0.86655-0.58341 0.25423 0.79073-0.42947
   7   3  -429522.42 2464.92   1 0.72702-0.06702-0.67518 0.98406-0.12472-0.16468
   7   3  -430005.46 3319.07   1-0.15812 0.81882 0.60489-0.29647-0.78044 0.49155
   7   3  -431855.12  942.28   1 0.48017 0.17988 0.58266-0.27343 0.65569-0.94491
  -7  -3   430352.71 1005.35   1 0.16073-0.82136-0.62426 0.31508 0.76449-0.47548
   7   3  -325865.47 2519.58   1 0.71457-0.07496-0.69657 0.98545-0.06458-0.15247
   7   3  -330020.07 2857.78   1-0.11149 0.75175 0.57437-0.28580-0.81096 0.59429
   7   3  -328309.46  681.10   1 0.48274 0.15719 0.43529-0.14598 0.75991-0.97671
  -7  -3   327552.20  787.90   1 0.12872-0.76880-0.67353 0.38433 0.72786-0.51110
   7   3  -225988.39 2233.78   1 0.69709-0.07786-0.71697 0.98590 0.00339-0.14811
   7   3  -223740.38 2707.90   1-0.04047 0.66029 0.52408-0.25536-0.85070 0.70625
   7   3  -226233.96 2180.78   1 0.46815 0.15142 0.26187 0.00735 0.84394-0.98844
   7   3  -1103307.5 2134.14   1 0.67162-0.07280-0.73619 0.98512 0.08326-0.15562
   7   3  -1102813.3 2095.38   1 0.06398 0.53506 0.44214-0.19326-0.89466 0.82240
   7   3  -1105543.1 2106.99   1 0.43455 0.16460 0.07086 0.17834 0.89785-0.97010
   7   3   1 9882.03  950.36   1 0.56674-0.00865-0.76085 0.96981 0.31606-0.24369
   7   3   1 9994.59  351.44   1 0.40171 0.15648 0.10430 0.10480-0.90980 0.98210
   7   3   111436.90 1185.90   1 0.32032 0.23760-0.30305 0.51235 0.89752-0.82524
   7   3   357565.41 1291.32   1 0.70665-0.18910-0.39045 0.55940-0.59006 0.80703
   7   3   356749.46 1978.43   1 0.18820 0.32857-0.57855 0.74782 0.79363-0.57687
   7   3   436085.91  911.86   1 0.74426-0.24735-0.54294 0.69189-0.38893 0.67830
  -7  -3  -435566.83  605.42   1 0.00375-0.50093 0.49048-0.64008-0.87144 0.58254
   7   3   439643.23 3977.11   1 0.13093 0.36529-0.67026 0.81955 0.73047-0.44147
   7   3   582359.87 1941.19   1 0.74206-0.26559-0.62736 0.75630-0.23611 0.59787
  -7  -3  -581628.06 1912.42   1 0.23227-0.70908 0.28895-0.41862-0.92873 0.56740
   7   3   670415.38 1546.52   1 0.72685-0.27076-0.67555 0.78450-0.12377 0.55788
   7   3   672050.02 1840.01   1 0.26938 0.18714 0.96151-0.85257-0.05408 0.48795
   7   3   7 1072.20  120.95   1 0.70788-0.27234-0.70538 0.79433-0.03648 0.54301
  -7  -3  -7  356.72  100.88   1 0.49155-0.92774-0.01010-0.07926-0.87078 0.36469
   7   3   7  393.01   77.71   1 0.30163 0.13452 0.95318-0.86426 0.02145 0.48471
   7   3   8 7150.06  674.79   1 0.68735-0.27223-0.72543 0.79437 0.03588 0.54300
  -7  -3  -8 3637.50 1066.22   1 0.55223-0.96798-0.09695 0.02797-0.82802 0.24944
   7   3   8 4536.52  516.63   1 0.33066 0.08498 0.93910-0.87028 0.09353 0.48515
   7   3   911528.44  769.49   1 0.66599-0.27128-0.73935 0.78830 0.09899 0.55225
  -7  -3  -912086.23  599.63   1 0.58880-0.98418-0.15414 0.10516-0.79344 0.14253
   7   3   911781.73 1335.34   1 0.35642 0.03886 0.92017-0.87139 0.16198 0.48903
   7   3  10  467.00   89.55   1 0.64383-0.26953-0.74906 0.77801 0.15612 0.56748
  -7  -3 -10  450.95  128.60   1 0.61075-0.98577-0.19085 0.16188-0.76847 0.04524
   7   3  10  481.78   88.13   1 0.37933-0.00441 0.89694-0.86819 0.22715 0.49619
   7   3  1112732.73 1742.38   1 0.62073-0.26681-0.75556 0.76449 0.20928 0.58681
  -7  -3 -1114476.24  917.40   1 0.62336-0.97802-0.21295 0.20397-0.75237-0.04317
   7   3  1115026.93 1706.88   1 0.39966-0.04510 0.86982-0.86111 0.28928 0.50640
   7   4  -5 2918.94  343.98   1 0.74586-0.06107-0.59138 0.99660-0.30652-0.05518
   7   4  -5 2740.05  478.37   1-0.20751 0.89448 0.63333-0.22785-0.74553 0.38467
   7   4  -5 2991.51  267.05   1 0.47053 0.21436 0.66480-0.25917 0.58020-0.94174
  -7  -4   5 1567.17  735.86   1 0.19757-0.88333-0.56218 0.15659 0.80306-0.44180
   7   4  -4  878.59  140.63   1 0.74440-0.07990-0.61139 0.99658-0.26843-0.02097
   7   4  -4  811.93  145.70   1-0.18168 0.84801 0.61784-0.23233-0.76502 0.47633
   7   4  -4  808.35  127.73   1 0.48209 0.18243 0.55285-0.16727 0.67965-0.96888
  -7  -4   4  634.92  252.90   1 0.17832-0.84354-0.59536 0.20977 0.78341-0.49440
   7   4  -357880.23 1491.90   1 0.48220 0.16223 0.42073-0.05503 0.76841-0.98521
  -7  -4   355882.76 1589.05   1 0.15281-0.79748-0.63684 0.27123 0.75569-0.53893
   7   4  -255582.14 4014.30   1 0.73752-0.11381-0.64712 0.99232-0.19310 0.04839
   7   4  -255194.24 1667.48   1-0.07090 0.69509 0.54618-0.20113-0.83465 0.69021
   7   4  -259229.26 4469.87   1 0.46926 0.15482 0.27055 0.07507 0.84059-0.98508
  -7  -4   255155.87 1748.94   1 0.12108-0.74519-0.68468 0.33906 0.71871-0.57420
   7   4  -123828.20 2245.53   1 0.73228-0.12896-0.66292 0.98812-0.15583 0.08347
   7   4  -125680.99  642.70   1 0.03774 0.56564 0.46369-0.13847-0.88519 0.81293
   7   4  -126020.75 1959.76   1 0.44237 0.16129 0.10779 0.21780 0.89032-0.96257
   7   4   0  556.08   71.95   1 0.72599-0.14306-0.67730 0.98251-0.11913 0.11913
   7   4   0  701.26  155.02   1 0.20744 0.37557 0.31318-0.00782-0.92675 0.92675
   7   4   0  606.02   82.53   1 0.40228 0.18104-0.05830 0.36393 0.91365-0.91365
   7   4   1 3622.21  455.11   1 0.71888-0.15634-0.69005 0.97527-0.08384 0.15619
   7   4   1 3770.57  170.10   1 0.45089 0.11166 0.04342 0.24204-0.89151 0.96381
   7   4   1 3915.09  366.07   1 0.35221 0.21027-0.21796 0.50367 0.91018-0.83791
   7   4   2  288.75  123.58   1 0.71218-0.17003-0.69988 0.96510-0.05443 0.19914
   7   4   2  100.47   31.24   1 0.70023-0.15785-0.37343 0.63869-0.60844 0.75309
   7   4   2  107.24   54.35   1 0.29653 0.24544-0.36079 0.62658 0.88424-0.73969
   7   4   381645.35 2176.57   1 0.24042 0.28093-0.48192 0.72761 0.84257-0.62582
   7   4   488984.27 1868.68   1 0.68153-0.18029-0.72978 0.95503 0.05405 0.23539
  -7  -4  -486771.77 1815.90   1-0.34056-0.16062 0.70199-0.92777-0.62547 0.33679
   7   4   492920.18 2462.50   1 0.18786 0.31295-0.57913 0.80483 0.79328-0.50427
   7   4   5 2128.97  240.87   1 0.67125-0.19042-0.73641 0.94166 0.08430 0.27749
  -7  -4  -5 1284.82  416.52   1 0.05884-0.54004 0.44640-0.65248-0.89289 0.53162
   7   4   5 1876.07  252.83   1 0.14153 0.33873-0.65431 0.86002 0.74285-0.38159
   7   4   650332.75 1130.17   1 0.65822-0.19780-0.74322 0.92847 0.11982 0.31434
   7   4   7 1075.20   95.57   1 0.64362-0.20361-0.74914 0.91439 0.15663 0.34988
  -7  -4  -7  853.40  304.07   1 0.46496-0.90552 0.02525-0.19098-0.88496 0.37888
   7   4   7  906.93  135.52   1 0.26209 0.17855 0.96245-0.79718-0.07055 0.57672
   7   4   835048.94 2491.12   1 0.62759-0.20796-0.75396 0.89922 0.19407 0.38490
   7   4   837878.98 3535.87   1 0.29513 0.12514 0.95543-0.81018 0.00582 0.57265
   7   4   9 1209.77  141.84   1 0.61025-0.21104-0.75755 0.88281 0.23171 0.41963
  -7  -4  -9  949.87  368.38   1 0.58964-0.98945-0.15551 0.03020-0.79255 0.14164
   7   4   9 1259.74  174.21   1 0.32497 0.07493 0.94239-0.81716 0.07928 0.57151
   7   4  1019828.89 2937.12   1 0.59156-0.21276-0.75987 0.86512 0.26953 0.45419
  -7  -4 -1023497.97  961.01   1 0.61537-0.99482-0.19887 0.09356-0.76273 0.03950
   7   4  1022299.18 2110.80   1 0.35200 0.02738 0.92390-0.81880 0.14993 0.57341
   7   4  11  131.84   42.68   1 0.57147-0.21309-0.76083 0.84608 0.30749 0.48860
  -7  -4 -11   63.23   49.94   1 0.62980-0.98889-0.22455 0.13925-0.74358-0.05196
   7   4  11  304.33   85.69   1 0.37601-0.01699 0.90074-0.81567 0.21742 0.57826
   7   5  -5  916.84  293.21   1 0.74057-0.05129-0.51467 0.99620-0.43204 0.07033
   7   5  -5 1168.15  289.35   1-0.22252 0.91398 0.64202-0.16014-0.73368 0.37282
   7   5  -5 1221.95  196.60   1 0.47375 0.21560 0.64319-0.16122 0.60154-0.96307
  -7  -5   5  861.61  390.32   1 0.20176-0.89210-0.55474 0.07274 0.80718-0.44592
   7   5  -4 4265.95 1524.39   1 0.74256-0.07366-0.52819 0.98973-0.41182 0.12245
   7   5  -4 5708.68 1214.61   1-0.19980 0.87062 0.62878-0.16685-0.75147 0.46278
   7   5  -4 6207.28  669.69   1 0.48273 0.18625 0.53900-0.07707 0.69024-0.97947
  -7  -5   4 3858.20 1385.85   1 0.18632-0.85612-0.58178 0.11977 0.79171-0.50270
   7   5  -322038.60  855.52   1 0.74368-0.09516-0.53739 0.97893-0.39766 0.18063
   7   5  -321454.61 1764.22   1 0.48216 0.16677 0.41981 0.02227 0.76894-0.98574
  -7  -5   320012.97 2228.59   1 0.16548-0.81473-0.61659 0.17457 0.76968-0.55293
   7   5  -2 2524.25  873.41   1 0.74397-0.11582-0.54005 0.96160-0.39349 0.24880
   7   5  -2 4543.55  556.55   1 0.47130 0.15729 0.28738 0.13463 0.83383-0.97833
  -7  -5   2 3431.46  714.34   1 0.13916-0.76785-0.65793 0.23589 0.74010-0.59560
   7   5  -152723.37 1513.39   1 0.74288-0.13511-0.53068 0.93223-0.40803 0.33568
   7   5  -151274.41 1597.71   1 0.44972 0.15845 0.14552 0.25646 0.88122-0.95347
   7   5   041451.17  623.98   1 0.73600-0.14860-0.49015 0.87170-0.46696 0.46696
   7   5   036470.59  562.54   1 0.22550 0.36173 0.29566 0.08612-0.92829 0.92829
   7   5   041609.83  988.18   1 0.41785 0.17001 0.00034 0.38169 0.90851-0.90851
   7   5   125005.38 2695.40   1 0.37754 0.18989-0.14138 0.50345 0.91513-0.84289
   7   5   2 4462.29  468.32   1 0.33187 0.21465-0.27335 0.61554 0.90284-0.75830
   7   5   327625.16 2515.67   1 0.28397 0.24205-0.38959 0.71186 0.87611-0.65929
   7   5   416513.32 2036.43   1 0.23722 0.26817-0.48824 0.79035 0.83984-0.55083
   7   5   5115645.6 3603.08   1 0.19406 0.29079-0.56836 0.85048 0.79956-0.43830
   7   5   619878.35  346.56   1 0.40937 0.05559-0.73037 0.99207 0.54677-0.11269
   7   5   628783.09 2972.29   1 0.15611 0.30818-0.63163 0.89377 0.75938-0.32586
   7   5   7  282.26   68.17   1 0.49732-0.05274-0.75391 0.99562 0.42928 0.07714
  -7  -5  -7  115.47   47.53   1 0.40206-0.84699 0.10387-0.34596-0.90969 0.40361
   7   5   7  162.13   45.92   1 0.12410 0.31964-0.68030 0.92245 0.72234-0.21658
   7   5   8 9342.18 1084.87   1 0.51819-0.09410-0.75729 0.97887 0.39747 0.18151
  -7  -5  -811102.68  434.42   1 0.52262-0.94722-0.05330-0.16882-0.85089 0.27250
   7   5   9   12.87   36.05   1 0.52050-0.11683-0.75760 0.95918 0.39383 0.25752
  -7  -5  -9    1.83   43.86   1 0.58302-0.98727-0.14480-0.05682-0.79944 0.14853
   7   5   9   55.02   50.17   1 0.29413 0.11027 0.95575-0.75417 0.00344 0.64734
   7   5  10 8789.62 1700.64   1 0.51420-0.13095-0.75672 0.93830 0.40367 0.32005
  -7  -5 -1011711.40  575.47   1 0.61518-0.99906-0.19853 0.01690-0.76297 0.03974
   7   5  1011309.07 1342.73   1 0.32423 0.05979 0.94280-0.76124 0.07739 0.64570
   7   5  1130856.42 1163.94   1 0.50266-0.13965-0.75486 0.91664 0.42130 0.37450
  -7  -5 -1129510.81 1108.35   1 0.63259-0.99611-0.22966 0.06803-0.73964-0.05590
   7   5  1127079.98 2994.69   1 0.35169 0.01179 0.92416-0.76273 0.14908 0.64660
   7   6  -4 5258.77 1577.13   1 0.71909-0.04556-0.42693 0.96480-0.54829 0.25899
   7   6  -4 5792.72 1888.33   1-0.20998 0.88529 0.63477-0.09644-0.74361 0.45492
   7   6  -4 8128.58 1007.59   1 0.48285 0.19060 0.53608 0.00219 0.69243-0.98166
  -7  -6   4 5881.10 1801.00   1 0.18808-0.86246-0.57875 0.04034 0.79351-0.50450
   7   6  -3 2016.38  650.07   1 0.71718-0.06402-0.42094 0.93881-0.55538 0.33841
   7   6  -3 2298.14  627.88   1-0.17127 0.82593 0.61141-0.09304-0.77255 0.55603
   7   6  -3 3203.98  344.71   1 0.48248 0.17095 0.42784 0.09062 0.76430-0.98110
  -7  -6   3 2634.60  707.30   1 0.17074-0.82458-0.60798 0.08955 0.77536-0.55861
   7   6  -2 1700.70  632.48   1 0.70959-0.07681-0.39860 0.89648-0.58101 0.43637
   7   6  -2 2996.44  423.82   1 0.47391 0.15911 0.30932 0.18909 0.82444-0.96898
  -7  -6   2 2308.22  519.00   1 0.14854-0.78183-0.64351 0.14507 0.75087-0.60637
   7   6  -1  562.80  147.05   1 0.68680-0.07439-0.34052 0.81839-0.64214 0.56981
   7   6  -1  528.48  150.02   1 0.02151 0.59097 0.47650 0.00137-0.87891 0.80668
   7   6  -1  882.04  144.95   1 0.45650 0.15618 0.18379 0.29459 0.87052-0.94277
  -7  -6   1  779.93  108.52   1 0.12152-0.73425-0.68404 0.20559 0.71924-0.64698
   7   6   0 9207.20  186.38   1 0.57375 0.01818-0.13005 0.58802-0.80863 0.80863
   7   6   0 9835.55  193.29   1 0.32046 0.27108 0.19718 0.26094-0.92650 0.92650
   7   6   011087.64 1198.14   1 0.43098 0.16128 0.05493 0.40342 0.90068-0.90068
   7   6   119229.25 1798.71   1 0.39839 0.17358-0.07207 0.51055 0.91437-0.84213
   7   6   2 7177.19  716.27   1 0.36067 0.19088-0.19271 0.61122 0.91256-0.76809
   7   6   3 1656.43  180.20   1 0.32032 0.21025-0.30306 0.70174 0.89752-0.68069
   7   6   4 3547.22  385.31   1 0.27949 0.23058-0.39961 0.77836 0.87303-0.58394
   7   6   5  174.36   66.22   1 0.24044 0.24899-0.48189 0.84042 0.84259-0.48133
   7   6   6104069.5 3115.61   1 0.20474 0.26414-0.54937 0.88792 0.81009-0.37658
   7   6   799917.32 3249.16   1 0.17346 0.27487-0.60349 0.92205 0.77827-0.27250
  -7  -6  -8 7078.39  287.91   1 0.46817-0.89714 0.02106-0.31954-0.88338 0.30500
   7   6   8 6927.19 1095.43   1 0.14706 0.28073-0.64582 0.94440 0.74918-0.17116
  -7  -6  -9 4463.21  286.15   1 0.56353-0.97221-0.11416-0.16379-0.81816 0.16725
  -7  -6  -9 2429.46  849.64   1-0.38068-0.02626 0.71858-0.99736-0.58199-0.06755
   7   6   9 4134.38  445.71   1 0.26493 0.14395 0.96212-0.68418-0.06416 0.71495
   7   6   9 4534.42  572.98   1 0.12562 0.28162-0.67809 0.95667 0.72416-0.07389
  -7  -6 -10 1408.82 1030.27   1 0.60790-0.99621-0.18598-0.07197-0.77191 0.04869
   7   6  10 3587.51  432.07   1 0.29752 0.09099 0.95464-0.69672 0.01155 0.71154
   7   6  10 3976.61  595.95   1 0.10897 0.27771-0.70188 0.96048 0.70390 0.01861
   7   6  11  373.41  115.69   1 0.40809-0.04061-0.72994 0.96803 0.54831 0.24750
  -7  -6 -11  287.50  129.37   1 0.63057-0.99852-0.22595-0.01200-0.74250-0.05304
   7   6  11  310.37   81.46   1 0.32763 0.04033 0.94090-0.70310 0.08575 0.70993
   7   7  -3 2738.25  415.58   1 0.48295 0.17498 0.44209 0.15276 0.75584-0.97264
  -7  -7   3 2545.79  446.93   1 0.17083-0.82925-0.60783 0.01299 0.77546-0.55871
   7   7  -2 1390.28  220.01   1 0.47645 0.16107 0.33507 0.23974 0.81284-0.95738
  -7  -7   2 1414.36  166.62   1 0.15188-0.78975-0.63831 0.06346 0.75464-0.61013
   7   7  -110876.92  894.91   1 0.46264 0.15455 0.22246 0.33231 0.85817-0.93042
  -7  -7   111305.36  930.19   1 0.12854-0.74586-0.67380 0.11893 0.72764-0.65539
   7   7   023508.42 2433.61   1 0.44219 0.15458 0.10689 0.42786 0.89052-0.89052
   7   7   1   79.14   47.18   1 0.41576 0.16075-0.00784 0.52273 0.90943-0.83719
   7   7   241492.31 1553.31   1 0.38468 0.17141-0.11848 0.61340 0.91541-0.77093
   7   7   323794.74 2089.57   1 0.35080 0.18432-0.22193 0.69702 0.90977-0.69294
   7   7   4 6498.38  607.85   1 0.31555 0.19906-0.31499 0.77015 0.89510-0.60600
   7   7   529895.72 3235.47   1 0.28090 0.21321-0.39647 0.83170 0.87401-0.51264
   7   7   636473.81 3800.33   1 0.24824 0.22523-0.46626 0.88122 0.84910-0.41558
   7   7   7  193.51   79.00   1 0.21863 0.23429-0.52389 0.91886 0.82324-0.31748
   7   7   824734.07 2779.45   1 0.19279 0.23957-0.57057 0.94555 0.79829-0.22027
   7   7   922684.01 2791.65   1 0.17107 0.24075-0.60744 0.96244 0.77571-0.12544
   7   7  1029360.77 3512.36   1 0.27259 0.12042 0.96099-0.62671-0.04678 0.76988
   7   7  1031577.63 4388.56   1 0.15353 0.23774-0.63572 0.97073 0.75649-0.03397
   7   8  -143204.42 4230.35   1 0.46809 0.15360 0.26145 0.36972 0.84411-0.91635
  -7  -8   147140.23 4403.64   1 0.13040-0.75231-0.67104 0.03976 0.72985-0.65760
   7   8   0 2924.81  370.39   1 0.45180 0.14948 0.15685 0.45429 0.87821-0.87821
  -7  -8   0 1583.88  283.19   1 0.10613-0.70749-0.70584 0.09455 0.70036-0.70036
   7   8   1  956.58  103.93   1 0.43038 0.15048 0.05232 0.53880 0.90112-0.82888
   7   8   2 7108.41  971.75   1 0.40481 0.15581-0.04912 0.62046 0.91307-0.76860
   7   8   3 7501.84  964.28   1 0.37627 0.16393-0.14540 0.69676 0.91502-0.69831
   7   8   4 6251.16  750.23   1 0.34635 0.17282-0.23435 0.76592 0.90836-0.61926
   7   8   525257.82 2576.17   1 0.31599 0.18267-0.31389 0.82554 0.89532-0.53395
   7   8   728220.75 3089.92   1 0.25943 0.19822-0.44286 0.91464 0.85823-0.35231
   7   8   8 7928.33  798.98   1 0.23485 0.20210-0.49288 0.94428 0.83779-0.25977
   7   8   9 1227.18  190.69   1 0.21359 0.20281-0.53324 0.96464 0.81855-0.16828
   7   8  10 2233.66  498.99   1 0.19586 0.19999-0.56519 0.97661 0.80136-0.07884
   7   9   043549.62 1290.40   1 0.46001 0.14578 0.20533 0.48220 0.86384-0.86384
  -7  -9   030649.04 3928.97   1 0.10680-0.71275-0.70491 0.01720 0.70120-0.70120
   7   9   133160.67 3420.89   1 0.44277 0.14261 0.10974 0.55777 0.88989-0.81764
   7   9   2  323.98   71.65   1 0.42181 0.14335 0.01630 0.63143 0.90653-0.76205
   7   9   310010.44 1357.23   1 0.39801 0.14673-0.07340 0.70117 0.91443-0.69772
   7   9   417987.96 2738.14   1 0.37243 0.15188-0.15735 0.76515 0.91462-0.62567
   7   9   5 1156.91  107.66   1 0.34638 0.15683-0.23425 0.82230 0.90837-0.54700
   7   9   636740.86 3619.69   1 0.32044 0.16227-0.30275 0.87087 0.89758-0.46393
   7   9   7 9031.38 1267.59   1 0.29577 0.16644-0.36258 0.91078 0.88377-0.37785
   7   9   8  139.48   90.56   1 0.27309 0.16862-0.41369 0.94196 0.86849-0.29029
   7  10   3  522.38   95.60   1 0.41649 0.13279-0.00499 0.70917 0.90912-0.69241
   7  10   4 7225.40 1176.44   1 0.39493 0.13392-0.08410 0.76831 0.91485-0.62590
   7  10   532818.99 5087.73   1 0.37239 0.13603-0.15746 0.82171 0.91461-0.55343
   7  10   631539.92 3580.45   1 0.34999 0.13727-0.22419 0.86873 0.90952-0.47588
   8  -9  -1  113.16   91.38   1 0.52068 0.10647-0.05053-0.61671-0.85225 0.77995
   8  -9   016086.49 1786.25   1 0.56332 0.04293-0.11384-0.57311-0.81835 0.81835
  -8   9   015560.90 1829.85   1-0.07282-0.53448 0.54755 0.13947-0.83359 0.83359
   8  -9   176451.92 2057.26   1 0.60380-0.01790-0.17901-0.52793-0.77677 0.84909
  -8   9  -174363.78 2038.37   1-0.01188-0.57498 0.50255 0.20432-0.86446 0.79223
  -8   9  -176054.89 1481.36   1 0.36095-0.94628 0.91610-0.20879 0.17454-0.24687
   8  -9   174153.60 1440.93   1 0.35377 0.23022-0.21351-0.49411 0.91063-0.83835
   8  -8  -4 2748.49  369.07   1 0.35109 0.34207 0.16320-0.69452-0.92200 0.63294
  -8   8   4 2753.30  273.48   1-0.33616-0.35711 0.70004-0.16861-0.63002 0.91871
   8  -8  -3 2239.21  383.97   1 0.39519 0.27761 0.11211-0.66332-0.91172 0.69493
  -8   8   3 2008.68  212.00   1-0.27162-0.40101 0.66884-0.11744-0.69199 0.90851
   8  -8  -2  182.17   85.23   1 0.44166 0.21020 0.05515-0.62608-0.89548 0.75088
  -8   8   2   91.25   85.22   1-0.20446-0.44752 0.63153-0.06017-0.74789 0.89224
   8  -8  -1 7660.02  992.20   1 0.48957 0.14195-0.00741-0.58347-0.87192 0.79963
  -8   8   1 7397.45  705.93   1-0.13546-0.49665 0.59031 0.00052-0.79572 0.86794
   8  -8   016071.98 1736.39   1 0.53693 0.07426-0.07395-0.53688-0.84037 0.84037
  -8   8   015919.87 1587.56   1-0.06768-0.54399 0.54388 0.06680-0.83642 0.83642
  -8   8   017072.11  677.98   1 0.32983-0.94000 0.93960-0.32869 0.09139-0.09139
   8  -8   1  906.59  108.91   1 0.58184 0.00847-0.14291-0.48770-0.80064 0.87296
  -8   8  -1  735.13  115.07   1-0.00214-0.58909 0.49506 0.13547-0.86885 0.79662
  -8   8  -1  676.05  152.38   1 0.34327-0.93307 0.93067-0.29973 0.12648-0.19882
   8  -8   1  433.42  217.69   1 0.37925 0.20990-0.13598-0.49525 0.91524-0.84300
   8  -8   225137.43 2150.49   1 0.62311-0.05315-0.21251-0.43811-0.75270 0.89734
  -8   8  -223845.14 2284.47   1 0.05954-0.63063 0.44583 0.20459-0.89313 0.74862
  -8   8  -226123.52 1271.61   1 0.34852-0.91795 0.92670-0.27572 0.14051-0.28518
   8  -8   225453.80 1216.60   1 0.41009 0.15863-0.02958-0.62162 0.91156-0.76708
   8  -8   3 1554.69  273.85   1 0.65924-0.10964-0.28098-0.38963-0.69745 0.91441
  -8   8  -3 1415.41  189.46   1 0.11611-0.66684 0.39749 0.27279-0.91022 0.69346
  -8   8  -3 1247.76  203.03   1 0.34886-0.89792 0.92643-0.25542 0.14143-0.35844
   8  -8   3 1305.36  218.13   1 0.42922 0.11940 0.04725-0.71847 0.90196-0.68522
   8  -8   4  301.21   90.81   1 0.68944-0.16051-0.34675-0.34374-0.63594 0.92524
  -8   8  -4  109.54   60.10   1 0.16672-0.69709 0.35175 0.33838-0.92112 0.63210
  -8   8  -4   44.04   64.01   1 0.34585-0.87454 0.92876-0.23772 0.13334-0.42268
   8  -8   4   37.48   46.27   1 0.44119 0.08701 0.10203-0.79328 0.89159-0.60260
   8  -7  -5 9226.66  924.68   1 0.41219 0.30426-0.73133 0.29702 0.54336-0.90509
   8  -7  -5 9607.30 1025.78   1 0.26738 0.45046 0.25345-0.68853-0.92965 0.56832
   8  -7  -4   94.78   97.74   1 0.30918 0.38830 0.20942-0.66439-0.92765 0.63859
  -8   7   4  125.38   67.22   1-0.35070-0.34706 0.70638-0.25136-0.61483 0.90352
   8  -7  -3  283.47   63.46   1 0.35567 0.32147 0.15802-0.63287-0.92115 0.70435
  -8   7   3  270.29   97.37   1-0.28389-0.39323 0.67514-0.20015-0.68087 0.89738
   8  -7  -2 3124.04  343.04   1 0.40544 0.25080 0.09982-0.59440-0.90865 0.76405
  -8   7   2 2907.35  288.22   1-0.21347-0.44301 0.63681-0.14185-0.74087 0.88522
   8  -7  -1  305.44   71.62   1 0.45749 0.17841 0.03495-0.54948-0.88852 0.81622
  -8   7   1  311.66   67.55   1-0.14042-0.49607 0.59354-0.07904-0.79245 0.86467
   8  -7   0 3042.16  398.67   1 0.50955 0.10601-0.03486-0.49962-0.85972 0.85972
  -8   7   0 2610.62  357.98   1-0.06788-0.54816 0.54403-0.00967-0.83631 0.83631
  -8   7   0 1812.26  745.99   1 0.29205-0.90663 0.95640-0.42190-0.00148 0.00148
   8  -7   0 1855.01  639.41   1 0.35375 0.25985-0.21357-0.32129 0.91062-0.91062
   8  -7   118415.56 1498.99   1 0.55944 0.03530-0.10789-0.44640-0.82181 0.89413
  -8   7  -117586.01 1951.97   1 0.00272-0.59833 0.49128 0.06292-0.87099 0.79877
  -8   7  -118937.19  715.09   1 0.31637-0.91058 0.94688-0.39236 0.05763-0.12994
   8  -7   120148.94 1290.87   1 0.40536 0.18833-0.04714-0.50768 0.91293-0.84070
   8  -7   2 1336.33  130.88   1 0.60558-0.03119-0.18203-0.39226-0.77467 0.91932
  -8   7  -2 1121.57  151.23   1 0.06945-0.64488 0.43757 0.13652-0.89649 0.75198
  -8   7  -2 1190.01  175.50   1 0.32762-0.90152 0.94091-0.36629 0.08572-0.23039
   8  -7   2 1046.23  186.80   1 0.43367 0.13988 0.06689-0.64170 0.89858-0.75409
   8  -7   3 5091.49  483.71   1 0.64618-0.09215-0.25518-0.33910-0.71925 0.93622
  -8   7  -3 4931.64  577.97   1 0.13071-0.68577 0.38455 0.20939-0.91380 0.69703
  -8   7  -3 5327.35  700.31   1 0.33172-0.88525 0.93845-0.34380 0.09624-0.31324
   8  -7   3 5190.05  595.43   1 0.44966 0.10346 0.14518-0.74002 0.88131-0.66457
   8  -7   4 4203.53  405.29   1 0.68022-0.14683-0.32545-0.28872-0.65678 0.94608
  -8   7  -4 3776.93  525.54   1 0.18541-0.72011 0.33425 0.27955-0.92406 0.63504
  -8   7  -4 4170.78  537.25   1 0.33125-0.86442 0.93873-0.32405 0.09505-0.38439
   8  -7   4 4005.80  876.07   1 0.45893 0.07378 0.19853-0.81339 0.86600-0.57701
   8  -7   5   -3.21  124.79   1 0.70704-0.19403-0.39152-0.24265-0.58888 0.95051
  -8   7  -5 -118.48  110.92   1 0.23300-0.74733 0.28822 0.34567-0.92877 0.56744
  -8   7  -5  126.15   63.58   1 0.32756-0.84035 0.94094-0.30623 0.08556-0.44723
   8  -7   5   -2.61   97.48   1 0.46431 0.04798 0.23381-0.86869 0.85425-0.49301
   8  -6  -511037.92  895.21   1 0.43316 0.28775-0.73806 0.38007 0.51732-0.87905
   8  -6  -510948.64 1293.01   1 0.22385 0.49832 0.29728-0.65601-0.92817 0.56684
   8  -6  -4  602.32  124.09   1 0.26674 0.43507 0.25411-0.63272-0.92966 0.64059
  -8   6   4  542.23   98.79   1-0.37092-0.33133 0.71474-0.33613-0.59291 0.88160
   8  -6  -3 1414.54  214.31   1 0.31536 0.36611 0.20274-0.60123-0.92706 0.71026
  -8   6   3  976.44  132.91   1-0.30235-0.37925 0.68430-0.28573-0.66355 0.88006
   8  -6  -2 6511.25  507.87   1 0.36859 0.29252 0.14324-0.56162-0.91848 0.77395
  -8   6   2 8278.84  753.78   1-0.22897-0.43199 0.64569-0.22715-0.72845 0.87279
   8  -6  -111888.81  801.25   1 0.42460 0.21567 0.07644-0.51462-0.90214 0.82984
  -8   6   1 9959.32  716.66   1-0.15187-0.48899 0.60092-0.16275-0.78474 0.85697
   8  -6   0  223.80   63.62   1 0.48164 0.13829 0.00324-0.46137-0.87635 0.87635
  -8   6   0  143.59   81.66   1-0.07428-0.54614 0.54859-0.09057-0.83278 0.83278
   8  -6   0   79.95   55.55   1 0.37985 0.23880-0.13405-0.32439 0.91527-0.91527
   8  -6   1  797.02  106.59   1 0.53701 0.06259-0.07408-0.40401-0.84031 0.91261
  -8   6  -1  633.74  110.30   1 0.00194-0.60192 0.49189-0.01402-0.87065 0.79842
  -8   6  -1  544.02  113.18   1 0.27673-0.87543 0.96022-0.48206-0.03729-0.03501
   8  -6   1  456.65  144.56   1 0.43136 0.16711 0.05662-0.53501 0.90039-0.82815
   8  -6   226172.92 1149.22   1 0.58825-0.00943-0.15325-0.34470-0.79401 0.93866
  -8   6  -224794.51 2608.44   1 0.07440-0.65416 0.43341 0.06433-0.89811 0.75360
  -8   6  -227030.07  923.42   1 0.29758-0.87591 0.95462-0.45644 0.01169-0.15631
   8  -6   226694.58  870.19   1 0.45510 0.12295 0.17553-0.67395 0.87296-0.72847
   8  -6   317069.77 2245.91   1 0.63362-0.07516-0.23154-0.28642-0.73818 0.95515
  -8   6  -317654.31 2193.12   1 0.14105-0.70044 0.37526 0.14235-0.91612 0.69936
  -8   6  -317189.60 2491.59   1 0.30748-0.86543 0.95088-0.43268 0.03566-0.25259
   8  -6   317118.65 2322.52   1 0.46686 0.09078 0.25210-0.77053 0.84763-0.63089
   8  -6   4  293.44   94.38   1 0.67168-0.13383-0.30670-0.23115-0.67436 0.96366
  -8   6  -4  357.16   74.37   1 0.20049-0.73953 0.31988 0.21758-0.92600 0.63698
  -8   6  -4  410.04   78.35   1 0.31086-0.84844 0.94943-0.41121 0.04398-0.33322
   8  -6   4  290.33   61.69   1 0.47307 0.06425 0.30147-0.83999 0.82783-0.53877
   8  -6   5 5208.08  510.46   1 0.70166-0.18419-0.37713-0.18073-0.60450 0.96613
  -8   6  -5 4868.04  527.40   1 0.25203-0.77068 0.26913 0.28840-0.92953 0.56821
  -8   6  -5 5280.01  615.71   1 0.30990-0.82710 0.94985-0.39161 0.04160-0.40315
   8  -6   5 5602.00  518.46   1 0.47617 0.04074 0.33204-0.89061 0.81425-0.45291
   8  -6   6 4079.66  435.64   1 0.72356-0.22646-0.44161-0.13624-0.53049 0.96444
  -8   6  -6 4074.57  416.87   1 0.29544-0.79375 0.22411 0.35331-0.92870 0.49510
  -8   6  -6 4164.48  544.53   1 0.30574-0.80257 0.95159-0.37332 0.03143-0.46529
   8  -6   6 4671.71  641.87   1 0.47768 0.01882 0.34919-0.92782 0.80614-0.37254
   8  -6   7 9975.98 1418.15   1 0.73791-0.26184-0.49964-0.09819-0.45370 0.96010
  -8   6  -7 9762.72 1237.20   1 0.33111-0.80906 0.18550 0.41180-0.92517 0.41931
  -8   6  -710632.26 1176.91   1 0.29908-0.77554 0.95410-0.35581 0.01529-0.52147
   8  -6   7 9591.40 1408.30   1 0.47826-0.00215 0.35625-0.95492 0.80271-0.29684
   8  -5  -621104.75 1712.40   1 0.51456 0.23153-0.75678 0.49519 0.40312-0.83736
   8  -5  -619996.66 3948.27   1 0.14425 0.60275 0.37236-0.63491-0.91680 0.48328
   8  -5  -5  726.68  144.32   1 0.45913 0.26623-0.74539 0.46372 0.48329-0.84503
   8  -5  -5  833.80  116.55   1 0.18060 0.54604 0.33878-0.62120-0.92336 0.56209
   8  -5  -418237.16 1918.05   1 0.22411 0.48204 0.29702-0.59928-0.92819 0.63913
  -8   5   417739.52 1798.40   1-0.39707-0.30967 0.72473-0.42253-0.56311 0.85180
   8  -5  -3 6017.06  565.03   1 0.27454 0.41125 0.24604-0.56818-0.92956 0.71276
  -8   5   3 6072.11  433.14   1-0.32755-0.35855 0.69616-0.37400-0.63879 0.85531
   8  -5  -2 8922.48  755.50   1 0.33085 0.33459 0.18579-0.52781-0.92521 0.78067
  -8   5   2 8313.57  713.71   1-0.25176-0.41370 0.65830-0.31617-0.70940 0.85374
   8  -5  -1  603.84   93.24   1 0.39132 0.25377 0.11670-0.47860-0.91282 0.84055
  -8   5   1  605.79  119.32   1-0.17125-0.47356 0.61140-0.24931-0.77256 0.84473
   8  -5   0 1139.29  144.42   1 0.45344 0.17087 0.04015-0.42193-0.89037 0.89037
  -8   5   0  940.58  114.00   1-0.08796-0.53682 0.55822-0.17653-0.82501 0.82501
   8  -5   0  528.45  249.70   1 0.40973 0.21347-0.03094-0.35110 0.91167-0.91167
   8  -5   1 3201.15  327.99   1 0.51457 0.08940-0.04189-0.35984-0.85642 0.92871
  -8   5  -1 2821.91  339.49   1-0.00555-0.59879 0.49770-0.09616-0.86732 0.79510
   8  -5   1 2461.68  587.81   1 0.45601 0.14697 0.18090-0.58289 0.87139-0.79914
   8  -5   229929.63 2027.35   1 0.57153 0.01172-0.12657-0.29506-0.81075 0.95540
  -8   5  -228277.60 2723.35   1 0.07345-0.65755 0.43421-0.01280-0.89780 0.75330
   8  -5   230012.57  714.23   1 0.47276 0.10987 0.29863-0.72067 0.82904-0.68450
   8  -5   3 3812.32  270.79   1 0.62201-0.05912-0.21055-0.23109-0.75416 0.97113
  -8   5  -3 3809.80  449.75   1 0.14640-0.71013 0.37041 0.07085-0.91725 0.70049
  -8   5  -3 3803.20  318.69   1 0.27445-0.83690 0.96065-0.51881-0.04251-0.17441
   8  -5   3 4081.28  596.56   1 0.47919 0.08304 0.36838-0.81047 0.79666-0.57986
   8  -5   414434.04 1213.02   1 0.66426-0.12196-0.29108-0.17046-0.68848 0.97778
  -8   5  -414612.25 1484.73   1 0.21143-0.75480 0.30931 0.15181-0.92715 0.63813
  -8   5  -415254.31 1395.98   1 0.28347-0.82554 0.95873-0.49686-0.02167-0.26757
   8  -5   415444.15 1408.73   1 0.48172 0.06010 0.41010-0.87223 0.77444-0.48537
   8  -5   5 6640.96  495.65   1 0.69739-0.17546-0.36618-0.11537-0.61608 0.97770
  -8   5  -5 6232.67  674.52   1 0.26760-0.79059 0.25322 0.22796-0.92965 0.56832
  -8   5  -5 6619.83  838.77   1 0.28642-0.80812 0.95798-0.47609-0.01476-0.34678
   8  -5   5 6928.97  591.86   1 0.48269 0.03872 0.43372-0.91590 0.76085-0.39951
   8  -5   6  190.81   59.28   1 0.72142-0.21986-0.43443-0.06711-0.53927 0.97321
  -8   5  -6  -54.08   91.94   1 0.31461-0.81725 0.20355 0.29752-0.92713 0.49354
  -8   5  -6  267.71   42.86   1 0.28515-0.78647 0.95831-0.45640-0.01775-0.41611
   8  -5   6  171.42   34.23   1 0.48302 0.01798 0.44480-0.94703 0.75421-0.32061
   8  -5   710588.36 1022.91   1 0.73706-0.25650-0.49531-0.02621-0.45978 0.96618
  -8   5  -710204.08 1089.11   1 0.35295-0.83523 0.16110 0.35984-0.92166 0.41580
  -8   5  -710889.85 1324.21   1 0.28069-0.76164 0.95938-0.43745-0.02812-0.47804
   8  -5   711047.25 1048.28   1 0.48307-0.00246 0.44667-0.96895 0.75307-0.24720
   8  -5   814842.26 1728.93   1 0.74478-0.28460-0.54862 0.00710-0.37987 0.95861
  -8   5  -813926.32 1771.51   1 0.38337-0.84529 0.12607 0.41475-0.91494 0.33682
  -8   5  -815840.71 1977.29   1 0.27370-0.73427 0.96079-0.41884-0.04424-0.53423
   8  -5   814772.05 2201.51   1 0.48293-0.02273 0.44141-0.98374 0.75626-0.17813
   8  -4  -627572.27 2562.86   1 0.54295 0.20760-0.75991 0.57465 0.35738-0.79162
   8  -4  -627978.33 3573.86   1 0.10227 0.64907 0.40958-0.59580-0.90651 0.47299
   8  -4  -559002.32 5037.42   1 0.48989 0.23993-0.75248 0.54712 0.44019-0.80192
   8  -4  -563621.58 2564.12   1 0.13795 0.59303 0.37805-0.58412-0.91544 0.55417
   8  -4  -425920.87 2040.00   1 0.42879 0.28064-0.73672 0.51138 0.52284-0.81223
   8  -4  -426847.01 3041.40   1 0.18175 0.52886 0.33770-0.56363-0.92353 0.63451
   8  -4  -3 4354.69  394.49   1 0.23356 0.45656 0.28768-0.53346-0.92881 0.71201
  -8   4   3 4136.00  384.40   1-0.35989-0.33069 0.71025-0.46450-0.60499 0.82150
   8  -4  -239059.30 3268.94   1 0.29275 0.37702 0.22696-0.49262-0.92886 0.78432
  -8   4   238162.77 3275.87   1-0.28263-0.38731 0.67451-0.40879-0.68201 0.82636
   8  -4  -1   56.93   58.30   1 0.35757 0.29184 0.15586-0.44140-0.92078 0.84851
  -8   4   1  -13.09  266.00   1-0.19875-0.45055 0.62815-0.34247-0.75227 0.82444
   8  -4   036484.70 2817.90   1 0.42527 0.20341 0.07562-0.38104-0.90190 0.90189
   8  -4   1114712.2 1979.35   1 0.49268 0.11567-0.01162-0.31375-0.87013 0.94243
  -8   4  -1115336.8 2135.41   1-0.02119-0.58753 0.50965-0.18445-0.86012 0.78789
   8  -4   232859.00 2421.79   1 0.55590 0.03178-0.10249-0.24281-0.82490 0.96955
  -8   4  -234219.16 3281.67   1 0.06531-0.65374 0.44103-0.09595-0.89511 0.75060
   8  -4   321521.89 1292.52   1 0.61192-0.04460-0.19287-0.17243-0.76704 0.98400
  -8   4  -322535.09 2234.95   1 0.14570-0.71377 0.37104-0.00611-0.91711 0.70034
   8  -4   319980.83 1969.96   1 0.48353 0.08319 0.49220-0.85790 0.72382-0.50702
   8  -4   440891.84 3706.05   1 0.65847-0.11151-0.27941-0.10589-0.69881 0.98810
  -8   4  -438694.08 1505.25   1 0.21745-0.76515 0.30345 0.08133-0.92770 0.63868
   8  -4   441764.92 1378.00   1 0.48328 0.06328 0.52302-0.90860 0.70205-0.41282
   8  -4   519065.78 1246.31   1 0.69469-0.16831-0.35945-0.04578-0.62304 0.98467
  -8   4  -517201.92  829.08   1 0.27920-0.80651 0.24120 0.16363-0.92944 0.56811
   8  -4   518464.18 1733.63   1 0.48280 0.04340 0.53738-0.94300 0.69146-0.32992
   8  -4   6 4815.10  423.18   1 0.72053-0.21452-0.43156 0.00631-0.54275 0.97669
  -8   4  -6 4650.75  553.24   1 0.33051-0.83747 0.18616 0.23854-0.92525 0.49166
   8  -4   6 5294.67  500.59   1 0.48265 0.02317 0.54102-0.96669 0.68872-0.25487
   8  -4   728621.99 2455.51   1 0.73702-0.25197-0.49513 0.04991-0.46004 0.96644
  -8   4  -727017.69 3182.00   1 0.37198-0.85859 0.13933 0.30526-0.91772 0.41185
   8  -4   728801.96 2811.33   1 0.48281 0.00263 0.53689-0.98260 0.69183-0.18568
   8  -4   8  243.87   99.72   1 0.74491-0.28023-0.55014 0.08493-0.37742 0.95616
  -8   4  -8  201.12   54.58   1 0.40464-0.87065 0.10078 0.36429-0.90890 0.33051
   8  -4   8  214.42  101.20   1 0.48317-0.01809 0.52674-0.99250 0.69934-0.12088
   8  -3  -616594.95 1372.61   1 0.57431 0.18069-0.76078 0.65183 0.30227-0.73651
   8  -3  -615610.38 2159.63   1 0.06188 0.69380 0.44389-0.55376-0.89394 0.46041
   8  -3  -5 7299.98  545.10   1 0.52508 0.20950-0.75818 0.62923 0.38658-0.74844
   8  -3  -5 6743.71 1187.07   1 0.09643 0.63888 0.41463-0.54437-0.90486 0.54359
   8  -3  -483043.86 5855.64   1 0.46681 0.24708-0.74733 0.59831 0.47282-0.76221
   8  -3  -492031.07 1985.55   1 0.14000 0.57494 0.37620-0.52579-0.91589 0.62688
   8  -3  -3108983.5 3423.00   1 0.19290 0.50168 0.32714-0.49659-0.92507 0.70831
  -8   3   3104888.1 8459.23   1-0.39959-0.29549 0.72564-0.55630-0.56014 0.77666
   8  -3  -210387.97  807.14   1 0.25465 0.41945 0.26647-0.45578-0.92959 0.78505
  -8   3   210033.51  756.11   1-0.32233-0.35210 0.69377-0.50446-0.64402 0.78837
   8  -3  -1 4978.53  507.75   1 0.32387 0.32988 0.19346-0.40265-0.92610 0.85384
  -8   3   1 4874.65  765.95   1-0.23616-0.41763 0.64973-0.44046-0.72254 0.79471
   8  -3   015336.17 1773.69   1 0.39762 0.23577 0.10922-0.33829-0.91102 0.91102
  -8   3   014893.35 1157.93   1-0.14300-0.49053 0.59522-0.36621-0.79073 0.79073
   8  -3   014469.85  303.15   1 0.47550 0.15695 0.32498-0.55415 0.81748-0.81748
   8  -3   116289.27 1116.46   1 0.47184 0.14088 0.01623-0.26526-0.88153 0.95382
  -8   3  -116672.63 1443.05   1-0.04684-0.56625 0.52877-0.27991-0.84746 0.77524
   8  -3   115319.54  406.49   1 0.48337 0.12867 0.50734-0.75655 0.71340-0.64114
   8  -3   288926.81 6585.25   1 0.54205 0.05033-0.08149-0.18748-0.83638 0.98097
  -8   3  -287483.17 2836.47   1 0.04819-0.64096 0.45518-0.18644-0.88909 0.74458
   8  -3   397151.12 3083.22   1 0.60404-0.03229-0.17942-0.10955-0.77648 0.99345
  -8   3  -398781.03 3157.19   1 0.13746-0.70986 0.37849-0.08990-0.91533 0.69857
   8  -3   3100764.5 2961.36   1 0.47671 0.09469 0.61937-0.90856 0.62378-0.40686
   8  -3   433244.71 2376.92   1 0.65508-0.10370-0.27262-0.03635-0.70465 0.99394
  -8   3  -433030.00 1064.44   1 0.21741-0.76945 0.30348 0.00496-0.92769 0.63868
   8  -3   436685.57 2448.08   1 0.47482 0.07621 0.63511-0.94434 0.60923-0.32000
   8  -3   5 3830.51  381.64   1 0.69410-0.16326-0.35801 0.02908-0.62453 0.98615
  -8   3  -5 3905.66  482.73   1 0.28604-0.81768 0.23404 0.09443-0.92919 0.56786
   8  -3   5 3750.89  397.94   1 0.47434 0.05632 0.63881-0.96808 0.60573-0.24419
   8  -3   6 2242.64  196.30   1 0.72126-0.21080-0.43393 0.08501-0.53987 0.97382
  -8   3  -6 2116.03  271.95   1 0.34263-0.85392 0.17271 0.17564-0.92345 0.48986
   8  -3   6 2118.10  264.64   1 0.47491 0.03537 0.63442-0.98374 0.60988-0.17604
   8  -3   7 1531.15  393.09   1 0.73795-0.24841-0.49988 0.13097-0.45335 0.95975
  -8   3  -7 1480.64  401.42   1 0.38790-0.87884 0.12074 0.24749-0.91375 0.40789
   8  -3   7 1671.43  428.13   1 0.47617 0.01374 0.62410-0.99346 0.61948-0.11333
   8  -3   843178.05 3529.63   1 0.74534-0.27617-0.55610 0.16720-0.36770 0.94645
  -8   3  -837581.55 4872.77   1 0.42316-0.89355 0.07822 0.31049-0.90267 0.32428
   8  -3   840583.96 3545.52   1 0.47781-0.00827 0.60906-0.99847 0.63302-0.05457
   8  -3   916373.44 1462.94   1 0.74517-0.29654-0.60346 0.19462-0.28380 0.93497
  -8   3  -917339.58 2700.18   1 0.44965-0.89970 0.04500 0.36366-0.89206 0.24138
   8  -3   915994.92 1782.71   1 0.47957-0.03040 0.59008-0.99953 0.64946 0.00130
   8  -2  -612252.79 1031.49   1 0.60763 0.15183-0.75797 0.72535 0.23718-0.67142
   8  -2  -611469.20 2135.87   1 0.02404 0.73650 0.47449-0.50804-0.87993 0.44659
   8  -2  -546717.76 3336.97   1 0.56345 0.17559-0.76082 0.70819 0.32196-0.68382
   8  -2  -546432.40 1974.66   1 0.05660 0.68304 0.44826-0.50165-0.89210 0.53083
   8  -2  -438672.93 2711.51   1 0.51006 0.20857-0.75610 0.68347 0.41005-0.69954
   8  -2  -439709.21 1452.87   1 0.09946 0.61982 0.41202-0.48527-0.90572 0.61671
   8  -2  -3  160.37   52.21   1 0.44606 0.25191-0.74185 0.64916 0.50068-0.71772
   8  -2  -3  135.85   70.38   1 0.15294 0.54598 0.36445-0.45756-0.91857 0.70181
   8  -2  -2 5361.79  527.57   1 0.21708 0.46147 0.30381-0.41677-0.92767 0.78316
  -8   2   2 5068.61  452.44   1-0.37129-0.30763 0.71489-0.60200-0.59250 0.73685
   8  -2  -110982.35  944.03   1 0.29066 0.36742 0.22917-0.36201-0.92897 0.85670
  -8   2   110626.79  931.39   1-0.28472-0.37356 0.67556-0.54270-0.68010 0.75227
   8  -2   0 8791.90  759.61   1 0.37083 0.26689 0.14066-0.29337-0.91798 0.91798
  -8   2   0 7742.59  783.14   1-0.18811-0.44952 0.62176-0.46894-0.76027 0.76027
   8  -2   0 7563.32  543.17   1 0.47922 0.15776 0.59413-0.74684 0.64601-0.64601
   8  -2   0 8565.69  266.54   1 0.20424 0.43191-0.55028 0.39745 0.80961-0.80961
   8  -2   1117597.8 2574.04   1 0.45277 0.16433 0.04102-0.21369-0.89068 0.96298
  -8   2  -1120205.3 2643.76   1-0.08497-0.53249 0.55613-0.38360-0.82673 0.75451
   8  -2   235199.80 3187.37   1 0.53076 0.06600-0.06498-0.12764-0.84502 0.98962
  -8   2  -234505.00 3126.82   1 0.01951-0.61654 0.47809-0.28571-0.87809 0.73364
   8  -2   236786.09  735.59   1 0.45806 0.13821 0.72732-0.92012 0.51106-0.36641
   8  -2   3 3100.83  288.86   1 0.59932-0.02315-0.17149-0.04115-0.78191 0.99888
  -8   2  -3 3102.45  349.90   1 0.11946-0.69620 0.39454-0.18228-0.91107 0.69431
   8  -2   3 2914.42  267.77   1 0.45483 0.12107 0.73984-0.95269 0.49574-0.27877
   8  -2   422795.65 1726.36   1 0.65488-0.09906-0.27221 0.03955-0.70500 0.99429
  -8   2  -420665.90 2329.86   1 0.20963-0.76600 0.31106-0.07895-0.92698 0.63796
   8  -2   421387.68 1267.50   1 0.45465 0.10089 0.74052-0.97342 0.49489-0.20559
   8  -2   523792.89 2189.11   1 0.69622-0.16093-0.36325 0.11064-0.61912 0.98074
  -8   2  -522432.85 2607.10   1 0.28696-0.82292 0.23307 0.01904-0.92915 0.56782
   8  -2   521949.73 1749.16   1 0.45641 0.07876 0.73385-0.98679 0.50314-0.14152
   8  -2   6 4899.36  436.06   1 0.72390-0.20898-0.44279 0.17017-0.52905 0.96299
  -8   2  -6 5064.87  560.02   1 0.35022-0.86583 0.16419 0.10781-0.92216 0.48856
   8  -2   6 4833.57  661.17   1 0.45936 0.05544 0.72197-0.99496 0.51743-0.08349
   8  -2   727937.66 2065.40   1 0.73988-0.24585-0.51053 0.21793-0.43808 0.94448
  -8   2  -727124.05 3270.08   1 0.40039-0.89548 0.10588 0.18652-0.91020 0.40411
   8  -2   726282.42 2526.96   1 0.46280 0.03157 0.70604-0.99905 0.53601-0.02986
   8  -2   8 1019.60  141.06   1 0.74589-0.27223-0.56718 0.25459-0.34919 0.92793
  -8   2  -8 1006.29  193.72   1 0.43870-0.91346 0.05887 0.25348-0.89669 0.31831
   8  -2   8 1075.63  178.47   1 0.46670 0.00730 0.68669-0.99975 0.55734 0.02111
   8  -2   9 1872.27  163.44   1 0.74408-0.29096-0.61404 0.28150-0.26320 0.91438
  -8   2  -9 1751.59  266.97   1 0.46725-0.92168 0.02226 0.31005-0.88384 0.23315
   8  -2   9 1898.22  170.12   1 0.47061-0.01698 0.66430-0.99739 0.58071 0.07005
   8  -2  1010904.64 1312.24   1 0.73595-0.30321-0.65239 0.29986-0.18098 0.90451
  -8   2 -1010967.78 1866.76   1 0.48778-0.92187-0.00500 0.35727-0.87294 0.14996
   8  -2  1011419.53 1629.79   1 0.47430-0.04104 0.63907-0.99221 0.60548 0.11758
   8  -1  -611181.95  680.19   1 0.64144 0.12223-0.74989 0.79357 0.16190-0.59606
   8  -1  -610741.16 1210.06   1-0.01151 0.77643 0.50227-0.45949-0.86462 0.43128
   8  -1  -533545.16 2954.18   1 0.60372 0.13978-0.75853 0.78223 0.24523-0.60710
   8  -1  -531793.13 2985.24   1 0.01952 0.72495 0.47808-0.45515-0.87809 0.51698
   8  -1  -4 1102.65  144.15   1 0.55690 0.16618-0.76067 0.76436 0.33351-0.62300
   8  -1  -4  725.64  139.30   1 0.06074 0.66287 0.44483-0.44174-0.89355 0.60453
   8  -1  -340538.24 3854.01   1 0.49916 0.20327-0.75424 0.73788 0.42655-0.64359
   8  -1  -343224.97 1578.71   1 0.11433 0.58892 0.39906-0.41582-0.90976 0.69300
   8  -1  -2 1563.97  179.56   1 0.42894 0.25309-0.73677 0.70042 0.52265-0.66734
   8  -1  -2 1779.54  167.55   1 0.18050 0.50239 0.33889-0.37551-0.92334 0.77884
   8  -1  -1 2794.71  308.86   1 0.25851 0.40389 0.26254-0.31901-0.92964 0.85737
  -8   1   1 2507.77  302.35   1-0.34532-0.31745 0.70407-0.64762-0.62050 0.69268
   8  -1  -1 2535.36  186.78   1 0.45428 0.20755 0.74189-0.79820 0.49317-0.56550
   8  -1  -1 2382.64  177.48   1 0.44418 0.21768 0.11674-0.17311 0.88829-0.96054
   8  -1   0 1682.12  164.41   1 0.34570 0.29635 0.16927-0.24563-0.92294 0.92294
  -8   1   0 1586.80  179.70   1-0.24755-0.39458 0.65601-0.57960-0.71299 0.71299
   8  -1   0 1354.59  156.35   1 0.42367 0.21779 0.82658-0.90294 0.37047-0.37047
   8  -1   0 1236.23  190.06   1 0.27661 0.36430-0.40598 0.32957 0.87101-0.87101
   8  -1   1  752.19   86.81   1 0.43640 0.18507 0.06177-0.15808-0.89762 0.96992
  -8   1  -1  739.87   80.61   1-0.13874-0.48310 0.59245-0.49626-0.79356 0.72134
   8  -1   1  749.66   61.17   1 0.41416 0.20693 0.84536-0.94176 0.33737-0.26505
   8  -1   1  590.73  146.63   1 0.13268 0.48751-0.66766 0.57126 0.73254-0.66029
   8  -1   216210.70 1226.75   1 0.52327 0.07786-0.05422-0.06204-0.85043 0.99503
  -8   1  -215482.99 1503.02   1-0.02422-0.57718 0.51194-0.39589-0.85867 0.71423
   8  -1   215903.36 1736.81   1 0.41303 0.18770 0.84744-0.96389 0.33353-0.18888
   8  -1   354211.52 4299.91   1 0.59902-0.01841-0.17098 0.03465-0.78226 0.99922
  -8   1  -350744.08 1401.11   1 0.08840-0.66947 0.42153-0.28562-0.90249 0.68573
   8  -1   4 1824.10  347.47   1 0.65888-0.09864-0.28025 0.12392-0.69808 0.98737
  -8   1  -4 1619.03  246.80   1 0.19151-0.75221 0.32846-0.17269-0.92489 0.63587
   8  -1   4 1486.12  127.09   1 0.42150 0.13848 0.83109-0.98763 0.36279-0.07349
   8  -1   5 7092.79  521.67   1 0.70165-0.16190-0.37711 0.20080-0.60453 0.96615
  -8   1  -5 7796.96 1209.72   1 0.28014-0.82044 0.24022-0.06445-0.92941 0.56808
   8  -1   5 6506.15  508.54   1 0.42811 0.11151 0.81686-0.99344 0.38659-0.02497
   8  -1   6 1753.31  157.20   1 0.72876-0.20986-0.45969 0.26340-0.50752 0.94158
  -8   1  -6 1905.70  235.16   1 0.35212-0.87207 0.16204 0.03360-0.92181 0.48822
   8  -1   6 1853.80  228.10   1 0.43530 0.08395 0.79962-0.99626 0.41364 0.02029
   8  -1   7  136.99   55.82   1 0.74256-0.24403-0.52819 0.31190-0.41183 0.91823
  -8   1  -7  176.53   30.39   1 0.40846-0.90793 0.09617 0.11987-0.90769 0.40160
   8  -1   7  141.54   27.17   1 0.44265 0.05623 0.77971-0.99639 0.44282 0.06344
   8  -1   820356.39 1216.03   1 0.74606-0.26791-0.58409 0.34780-0.31972 0.89847
  -8   1  -823251.86 2210.32   1 0.45084-0.92998 0.04348 0.19252-0.89154 0.31315
   8  -1   818705.08 1655.29   1 0.44987 0.02864 0.75731-0.99403 0.47338 0.10520
   8  -1   936991.72 2477.59   1 0.74171-0.28408-0.62929 0.37305-0.23207 0.88324
  -8   1  -936792.90 4806.29   1 0.48197-0.94077 0.00279 0.25316-0.87617 0.22549
   8  -1   935495.99 3307.39   1 0.45675 0.00140 0.73249-0.98926 0.50480 0.14611
   8  -1  10   91.68   92.24   1 0.73126-0.29403-0.66553 0.38929-0.14939 0.87291
  -8   1 -10  -12.56  106.18   1 0.50409-0.94255-0.02726 0.30318-0.86322 0.14023
   8  -1  10  311.35   92.37   1 0.46294-0.02522 0.70537-0.98216 0.53677 0.18629
   8   0  -624926.55 1784.96   1 0.67404 0.09410-0.73473 0.85472 0.07630-0.51047
   8   0  -621485.13 3327.39   1-0.04385 0.81314 0.52657-0.40745-0.84899 0.41565
   8   0  -513408.65 1045.19   1 0.64381 0.10392-0.74907 0.84906 0.15615-0.51796
   8   0  -512180.27 1338.50   1-0.01502 0.76388 0.50496-0.40569-0.86301 0.50189
   8   0  -4 4591.49  332.02   1 0.60538 0.12216-0.75830 0.83831 0.24182-0.53131
   8   0  -4 3857.12  819.31   1 0.02503 0.70337 0.47369-0.39428-0.88033 0.59143
   8   0  -3 8028.53  713.18   1 0.55657 0.15055-0.76066 0.82066 0.33409-0.55121
   8   0  -3 7563.73 1006.78   1 0.07779 0.62979 0.43055-0.37098-0.89920 0.68244
   8   0  -2  452.48   64.74   1 0.49479 0.19170-0.75344 0.79340 0.43301-0.57771
   8   0  -2  386.48   60.62   1 0.14566 0.54156 0.37108-0.33137-0.91710 0.77259
   8   0  -2  266.90   80.99   1 0.31715 0.36964 0.94650-0.90645 0.05957-0.20419
   8   0  -2  272.13   91.61   1 0.48354 0.20322 0.49128-0.45118 0.72445-0.86898
   8   0  -1  716.09   91.00   1 0.41758 0.24853-0.73313 0.75311 0.53678-0.60913
   8   0  -1  728.68  115.72   1 0.22821 0.43852 0.29298-0.27310-0.92848 0.85621
   8   0  -1  633.63   90.34   1 0.31479 0.35163 0.94764-0.92761 0.05369-0.12600
   8   0  -1  527.57  161.82   1 0.43297 0.23340 0.06375-0.04372 0.89915-0.97139
   8   0   026123.96 2564.56   1 0.32319 0.32319 0.19421-0.19421-0.92618 0.92618
  -8   0   027705.02 2781.38   1-0.32331-0.32331 0.69422-0.69422-0.64305 0.64305
   8   0   027203.81  532.72   1 0.32302 0.32302 0.94346-0.94346 0.07434-0.07434
   8   0   028822.30  584.33   1 0.32273 0.32273-0.29696 0.29696 0.89869-0.89869
   8   0   110929.13 1073.80   1 0.42411 0.20173 0.07705-0.09701-0.90232 0.97462
  -8   0  -110167.58 1033.79   1-0.21160-0.41437 0.63572-0.61576-0.74234 0.67017
   8   0   110975.70  836.84   1 0.33512 0.29044 0.93629-0.95633 0.10505-0.03272
   8   0   111217.93  410.99   1 0.20558 0.41919-0.54786 0.52787 0.81091-0.73866
   8   0   2  595.70   72.73   1 0.52134 0.08416-0.05147 0.01156-0.85178 0.99638
  -8   0  -2  519.35   85.14   1-0.08811-0.51766 0.55832-0.51861-0.82493 0.68048
   8   0   2  502.76   66.06   1 0.34879 0.25640 0.92649-0.96656 0.14124 0.00342
   8   0   2  369.35   68.42   1 0.10646 0.49777-0.70538 0.66541 0.70077-0.55627
   8   0   3  143.16   42.63   1 0.60488-0.01984-0.18084 0.12084-0.77550 0.99247
  -8   0  -3  126.24   28.20   1 0.03917-0.62457 0.46252-0.40295-0.88573 0.66897
   8   0   4104157.7 2242.52   1 0.66841-0.10383-0.29975 0.21975-0.68071 0.97001
  -8   0  -498015.25 2149.28   1 0.15888-0.72391 0.35900-0.27957-0.91971 0.63069
   8   0   4104485.9 2212.97   1 0.37695 0.18750 0.89968-0.97982 0.22016 0.06917
   8   0   5 7410.34  547.84   1 0.71088-0.16668-0.40225 0.30226-0.57691 0.93853
  -8   0  -5 7999.86 1018.18   1 0.26268-0.80730 0.25828-0.15887-0.92967 0.56834
   8   0   5 7144.74  592.14   1 0.39057 0.15351 0.88282-0.98299 0.26091 0.10075
   8   0   622394.25 1408.08   1 0.73523-0.21184-0.48657 0.36659-0.47188 0.90594
  -8   0  -621174.13 2268.33   1 0.34650-0.87077 0.16837-0.04908-0.92281 0.48921
   8   0   619716.41 1735.34   1 0.40358 0.12013 0.86371-0.98392 0.30185 0.13215
   8   0   714031.52 2191.90   1 0.74520-0.24219-0.55409 0.41411-0.37101 0.87741
  -8   0  -715848.58 1524.24   1 0.41116-0.91500 0.09290 0.04678-0.90681 0.40073
   8   0   714633.11 1119.51   1 0.41578 0.08756 0.84234-0.98267 0.34289 0.16337
   8   0   8 9033.85  584.68   1 0.74481-0.26230-0.60745 0.44751-0.27611 0.85494
  -8   0  -8 9101.02  871.35   1 0.45894-0.94244 0.03307 0.12657-0.88784 0.30946
   8   0   8 8439.68  999.53   1 0.42725 0.05573 0.81881-0.97918 0.38340 0.19518
   8   0   915201.96 1349.49   1 0.73687-0.27475-0.64938 0.46944-0.18795 0.83912
  -8   0  -914503.31 1737.76   1 0.49342-0.95659-0.01263 0.19224-0.86969 0.21901
   8   0   914719.11 1484.44   1 0.43783 0.02477 0.79306-0.97348 0.42349 0.22742
   8   0  1057182.97 5513.64   1 0.72345-0.28173-0.68218 0.48225-0.10596 0.82949
  -8   0 -1065118.50 2878.34   1 0.51756-0.96040-0.04610 0.24567-0.85440 0.13142
   8   0  1058591.38 6160.79   1 0.44749-0.00524 0.76507-0.96554 0.46303 0.26019
   8   1  -6  220.05   53.68   1 0.70324 0.06938-0.71069 0.90699-0.01878-0.41538
   8   1  -6  399.11  123.09   1-0.07240 0.84607 0.54726-0.35180-0.83382 0.40048
   8   1  -528844.95 2503.51   1 0.68126 0.07095-0.72997 0.90627 0.05488-0.41668
   8   1  -527692.93 3784.09   1-0.04598 0.79921 0.52815-0.35254-0.84790 0.48678
   8   1  -440437.01 2961.44   1 0.65243 0.07937-0.74576 0.90207 0.13478-0.42422
   8   1  -436638.98 4157.89   1-0.00779 0.74058 0.49942-0.34367-0.86632 0.57742
   8   1  -313133.06  917.81   1 0.61475 0.09682-0.75676 0.89309 0.22219-0.43931
   8   1  -310737.49 1719.49   1 0.04415 0.66777 0.45848-0.32256-0.88760 0.67084
   8   1  -311672.61  314.59   1 0.47774 0.23376 0.60978-0.47329 0.63239-0.84931
   8   1  -212751.51 1185.71   1 0.56531 0.12585-0.76084 0.87717 0.31864-0.46338
   8   1  -211033.60 1769.16   1 0.11346 0.57809 0.39982-0.28377-0.90954 0.76503
   8   1  -212485.46  344.66   1 0.47828 0.21298 0.35652-0.24004 0.80257-0.94710
   8   1  -1  404.58   75.23   1 0.50029 0.17028-0.75445 0.85075 0.42486-0.49721
   8   1  -1  483.84   67.94   1 0.20090 0.47029 0.31949-0.22329-0.92604 0.85379
   8   1  -1  336.39   94.41   1 0.43352 0.23736 0.06622 0.03019 0.89870-0.97095
   8   1   0  998.77  122.34   1 0.41554 0.23463-0.73246 0.80877 0.53927-0.53927
   8   1   0  994.07  118.28   1 0.30469 0.34601 0.21424-0.13788-0.92804 0.92804
   8   1   0  688.19   87.70   1 0.35439 0.29562-0.21176 0.28817 0.91080-0.91080
   8   1   1 1986.73  196.82   1 0.41797 0.21224 0.08460-0.02820-0.90451 0.97680
  -8  -1  -1 1961.78  262.16   1-0.30807-0.32239 0.68706-0.74351-0.65804 0.58587
   8   1   1 1798.72  339.42   1 0.26194 0.36756-0.43758 0.49407 0.86017-0.78790
   8   1   2  307.61   41.23   1 0.52767 0.08221-0.06052 0.09696-0.84729 0.99188
  -8  -1  -2  325.29   54.58   1-0.17825-0.43157 0.61573-0.65222-0.76752 0.62317
   8   1   2  349.14   40.95   1 0.27546 0.33432 0.96046-0.92415-0.04019 0.18482
   8   1   2  305.90   45.51   1 0.17389 0.43492-0.60277 0.63921 0.77873-0.63422
   8   1   325679.38 2587.84   1 0.61942-0.02996-0.20597 0.22230-0.75754 0.97451
  -8  -1  -327239.68  728.20   1-0.03640-0.55329 0.52106-0.53784-0.85273 0.63606
   8   1   326696.17 1929.25   1 0.30109 0.28832 0.95338-0.93709 0.02013 0.19679
   8   1   427640.40 2559.96   1 0.68474-0.11571-0.33575 0.33206-0.64683 0.93613
  -8  -1  -426368.47  734.69   1 0.10465-0.67402 0.40752-0.40443-0.90717 0.61816
   8   1   425167.83 2019.16   1 0.32451 0.24453 0.94264-0.94637 0.07812 0.21111
   8   1   514589.90 1150.73   1 0.72382-0.17517-0.44252 0.41884-0.52937 0.89100
  -8  -1  -514418.45 2039.97   1 0.22956-0.77852 0.29164-0.26859-0.92857 0.56724
   8   1   513999.71 1111.88   1 0.34605 0.20250 0.92861-0.95242 0.13389 0.22778
   8   1   6 7434.49  420.88   1 0.74224-0.21436-0.52585 0.48218-0.41537 0.84943
  -8  -1  -6 6389.87 1379.87   1 0.33025-0.85885 0.18645-0.14352-0.92529 0.49169
   8   1   6 6668.56  789.94   1 0.36565 0.16253 0.91162-0.95546 0.18771 0.24629
   8   1   7 1614.37  148.09   1 0.74593-0.23842-0.58939 0.52572-0.31015 0.81655
  -8  -1  -7 1382.11  181.87   1 0.40668-0.91489 0.09832-0.03498-0.90826 0.40217
   8   1   7 1419.61  149.42   1 0.38356 0.12426 0.89186-0.95574 0.23969 0.26665
   8   1   8 3668.17  253.58   1 0.73997-0.25296-0.63755 0.55391-0.21439 0.79321
  -8  -1  -8 3523.25  393.87   1 0.46195-0.94983 0.02917 0.05412-0.88642 0.30803
   8   1   8 3241.32  455.20   1 0.39987 0.08757 0.86948-0.95340 0.28997 0.28870
   8   1   937860.48 2755.29   1 0.72754-0.26092-0.67408 0.57045-0.12760 0.77877
  -8  -1  -929158.49 1160.47   1 0.50099-0.96853-0.02299 0.12624-0.86514 0.21446
   8   1   935901.55 3275.74   1 0.41460 0.05246 0.84455-0.94861 0.33886 0.31205
   8   1  10 9819.61  955.73   1 0.71081-0.26475-0.70172 0.57804-0.04824 0.77185
  -8  -1 -1010542.63 1429.96   1 0.52784-0.97505-0.06077 0.18398-0.84716 0.12418
   8   1  1010728.43 1031.19   1 0.42798 0.01871 0.81716-0.94126 0.38609 0.33714
   8   1  11 9013.49 1682.71   1 0.69072-0.26508-0.72268 0.57901 0.02494 0.77102
   8   1  1110018.04 1092.69   1 0.43997-0.01363 0.78730-0.93145 0.43195 0.36360
   8   2  -5 4615.47  654.05   1 0.71286 0.04372-0.69895 0.95152-0.05730-0.30445
   8   2  -5 4425.17  721.95   1-0.07267 0.83027 0.54745-0.29551-0.83367 0.47255
   8   2  -430427.99 2925.75   1 0.69427 0.04201-0.71959 0.95220 0.01310-0.30254
   8   2  -430315.44 3717.00   1-0.03652 0.77368 0.52115-0.28906-0.85268 0.56378
   8   2  -333419.74 3381.82   1 0.66901 0.04686-0.73770 0.95032 0.09063-0.30771
   8   2  -334536.33 3873.91   1 0.01501 0.70170 0.48165-0.26941-0.87623 0.65956
   8   2  -2   61.13   38.58   1 0.63473 0.06073-0.75201 0.94462 0.17774-0.32247
   8   2  -2   60.49   40.25   1 0.08500 0.61088 0.42443-0.23203-0.90146 0.75695
   8   2  -2   24.69   24.73   1 0.47418 0.22158 0.31192-0.11905 0.82331-0.96784
   8   2  -1 5735.83  815.55   1 0.58763 0.08757-0.76017 0.93281 0.27716-0.34953
   8   2  -1 6249.07  633.22   1 0.17772 0.49780 0.34149-0.16896-0.92292 0.85067
   8   2  -1 5902.22  798.10   1 0.43764 0.23775 0.08510 0.08770 0.89511-0.96735
   8   2   0 1523.56  320.76   1 0.52183 0.13295-0.75777 0.91041 0.39173-0.39173
   8   2   0 1608.42  204.88   1 0.29229 0.36274 0.22745-0.07473-0.92888 0.92888
   8   2   0 1602.40  200.07   1 0.37798 0.27700-0.14000 0.29282 0.91516-0.91516
   8   2   111339.22 1166.45   1 0.42977 0.20447-0.73703 0.86968 0.52161-0.44926
   8   2   111844.88 1285.97   1 0.42139 0.21320 0.08041 0.05234-0.90330 0.97560
   8   2   112942.69 1253.35   1 0.30508 0.32898-0.34056 0.47345 0.88934-0.81707
   8   2   252079.02 1213.70   1 0.54674 0.06751-0.08843 0.20123-0.83261 0.97721
  -8  -2  -252671.07 1234.34   1-0.30523-0.30908 0.68570-0.79859-0.66079 0.51644
   8   2   252394.96 1331.74   1 0.23010 0.38331-0.50212 0.61496 0.83362-0.68911
   8   2   341841.10 1031.65   1 0.64634-0.05244-0.25549 0.34815-0.71900 0.93597
  -8  -2  -340785.81 1017.82   1-0.15179-0.44228 0.60087-0.69398-0.78479 0.56812
   8   2   343516.20 1234.11   1 0.16125 0.43160-0.62342 0.71629 0.76507-0.54831
   8   2   4 5735.71  702.90   1 0.70883-0.13534-0.39646 0.46909-0.58341 0.87271
  -8  -2  -4 5069.44 1172.73   1 0.01575-0.58939 0.48106-0.55432-0.87654 0.58765
   8   2   4 6967.09  703.69   1 0.26959 0.30394 0.96147-0.88885-0.05361 0.34286
   8   2   534391.01 2490.77   1 0.73861-0.18585-0.50335 0.55599-0.44842 0.81014
  -8  -2  -533504.03  782.00   1 0.17115-0.72449 0.34764-0.40103-0.92187 0.56060
   8   2   536852.30 3058.19   1 0.29807 0.25509 0.95445-0.90185 0.01286 0.34868
   8   2   6 6987.84  518.24   1 0.74610-0.21372-0.58015 0.61279-0.32673 0.76079
  -8  -2  -6 6501.71 1167.56   1 0.29767-0.83060 0.22174-0.25517-0.92855 0.49496
   8   2   6 6355.47  873.55   1 0.32394 0.20884 0.94296-0.91038 0.07667 0.35719
   8   2   7 7552.18  872.36   1 0.74061-0.22871-0.63467 0.64733-0.22061 0.72708
  -8  -2  -7 7070.08 1163.52   1 0.39162-0.90419 0.11635-0.12990-0.91273 0.40687
   8   2   7 7265.90  544.41   1 0.34757 0.16472 0.92744-0.91496 0.13796 0.36838
   8   2   8 8497.63  508.51   1 0.72767-0.23616-0.67381 0.66648-0.12830 0.70712
  -8  -2  -8 7867.59 1316.96   1 0.45815-0.95040 0.03409-0.02716-0.88822 0.30983
   8   2   8 8349.94  863.61   1 0.36885 0.12307 0.90841-0.91597 0.19677 0.38190
   8   2   9  723.42  189.75   1 0.71045-0.23951-0.70218 0.67481-0.04678 0.69803
  -8  -2  -9  694.03  195.56   1 0.50371-0.97562-0.02673 0.05363-0.86345 0.21277
   8   2   9  684.36  176.32   1 0.38808 0.08347 0.88612-0.91371 0.25332 0.39769
   8   2  10 6504.48  644.59   1 0.69025-0.23971-0.72308 0.67572 0.02651 0.69709
  -8  -2 -10 6847.08 1049.70   1 0.53434-0.98592-0.07018 0.11703-0.84234 0.11936
   8   2  10 7383.67  632.15   1 0.40540 0.04578 0.86077-0.90839 0.30775 0.41559
   8   2  1113572.78 1915.40   1 0.66793-0.23781-0.73830 0.67094 0.09363 0.70233
  -8  -2 -1116231.03  840.78   1 0.55439-0.98538-0.10020 0.16755-0.82620 0.03065
   8   2  1115449.04 1832.99   1 0.42082 0.00996 0.83249-0.90028 0.36037 0.43519
   8   3  -510839.02 1427.42   1 0.73552 0.02556-0.65373 0.98261-0.17785-0.18391
   8   3  -4 3209.46  453.49   1 0.72629 0.01440-0.67669 0.98557-0.12076-0.16864
   8   3  -4 3228.89  450.47   1-0.06024 0.80177 0.53853-0.23011-0.84044 0.55155
   8   3  -4 2480.28  508.55   1 0.47676 0.26403 0.61890-0.30967 0.62421-0.91344
   8   3  -338501.37 1085.72   1 0.71321 0.00709-0.69847 0.98736-0.05876-0.15829
   8   3  -338157.46 1064.04   1-0.00964 0.73074 0.50084-0.21227-0.86548 0.64881
   8   3  -337850.80  797.07   1 0.48350 0.23717 0.47166-0.18235 0.73739-0.95419
   8   3  -2149157.134333.37   1 0.69500 0.00493-0.71892 0.98785 0.01059-0.15531
   8   3  -2147561.9 3258.82   1 0.06170 0.63852 0.44403-0.17529-0.89388 0.74937
   8   3  -137092.95 3468.18   1 0.66907 0.01045-0.73767 0.98660 0.09045-0.16282
   8   3  -135898.15 1195.64   1 0.16075 0.51911 0.35728-0.10840-0.92005 0.84780
   8   3  -137345.00 1182.26   1 0.44312 0.23678 0.11146 0.13773 0.88950-0.96175
   8   3   0 9272.80  921.57   1 0.63089 0.02823-0.75309 0.98202 0.18660-0.18660
   8   3   0 8104.38 1258.41   1 0.28939 0.36997 0.23051-0.00144-0.92903 0.92903
   8   3   0 7618.17 1227.93   1 0.39670 0.26282-0.07798 0.30721 0.91462-0.91462
   8   3   1 6772.18  813.25   1 0.57178 0.06704-0.76082 0.96978 0.30693-0.23455
   8   3   1 5815.87 1282.44   1 0.44071 0.19824 0.05634 0.15276-0.89587 0.96817
   8   3   1 8445.18  827.53   1 0.33877 0.29983-0.25500 0.46431 0.90564-0.83337
   8   3   2 3638.54  419.81   1 0.47666 0.14165-0.74966 0.93865 0.45912-0.31442
   8   3   2 3436.69  474.31   1 0.58733 0.03135-0.15175 0.34074-0.79498 0.93963
   8   3   2 3838.44  401.96   1 0.27609 0.34201-0.40711 0.59649 0.87064-0.72609
   8   3   385476.67 2003.83   1 0.21495 0.38249-0.53073 0.70000 0.81982-0.60307
   8   3   486115.87 1686.51   1 0.73752-0.15990-0.49764 0.64658-0.45652 0.74589
  -8  -3  -483898.82 1649.03   1-0.13580-0.44220 0.59054-0.74013-0.79549 0.50660
   8   3   493150.32 2192.11   1 0.15970 0.41719-0.62591 0.77520 0.76336-0.47435
   8   3   578139.28 2304.68   1 0.74582-0.18857-0.59235 0.72130-0.30473 0.66645
   8   3   585699.78 2798.64   1 0.11253 0.44381-0.69689 0.82619 0.70828-0.34702
   8   3   612711.25 1404.10   1 0.73644-0.19965-0.65080 0.75975-0.18468 0.61879
  -8  -3  -613203.08  469.74   1 0.23680-0.77405 0.28445-0.39423-0.92898 0.49538
   8   3   612932.39 1271.69   1 0.28153 0.25575 0.95919-0.85025-0.02619 0.46005
   8   3   7 1975.51  155.07   1 0.71995-0.20356-0.68830 0.77726-0.08886 0.59533
  -8  -3  -7 1545.06  372.92   1 0.36021-0.87712 0.15285-0.24275-0.92026 0.41439
   8   3   7 1808.54  221.08   1 0.30987 0.20704 0.94987-0.86095 0.04153 0.46464
   8   3   8  910.02  110.85   1 0.70065-0.20482-0.71343 0.78238-0.00926 0.58815
  -8  -3  -8  695.67  199.29   1 0.44438-0.94100 0.05170-0.12112-0.89434 0.31595
   8   3   8  949.00  145.22   1 0.33585 0.16054 0.93582-0.86700 0.10696 0.47172
   8   3   923248.98 2583.52   1 0.67964-0.20422-0.73109 0.78004 0.05979 0.59145
  -8  -3  -926992.87 1024.58   1 0.49989-0.97618-0.02147-0.02798-0.86582 0.21513
   8   3   926580.37 2285.94   1 0.35928 0.11674 0.91762-0.86885 0.16990 0.48111
   8   3  1025048.29 3756.31   1 0.65749-0.20247-0.74355 0.77250 0.12175 0.60186
  -8  -3 -1031509.14 1233.97   1 0.53611-0.99206-0.07275 0.04325-0.84100 0.11802
   8   3  1028984.28 2946.22   1 0.38047 0.07519 0.89560-0.86686 0.23050 0.49284
   8   3  11 8036.65 1390.44   1 0.63426-0.19966-0.75214 0.76109 0.17882 0.61714
  -8  -3 -1110585.99  653.11   1 0.55933-0.99476-0.10772 0.09874-0.82190 0.02635
   8   3  1110497.35 1123.34   1 0.39953 0.03576 0.87001-0.86130 0.28886 0.50682
   8   4  -445900.19 1437.17   1 0.74403 0.00116-0.61445 0.99963-0.26240-0.02700
   8   4  -445969.70 1236.80   1 0.48003 0.26522 0.58441-0.19883 0.65423-0.94346
   8   4  -368116.91 2436.14   1-0.02798 0.75344 0.51477-0.14986-0.85687 0.64020
   8   4  -367543.95 2307.10   1 0.48320 0.24197 0.45232-0.08662 0.74960-0.96640
   8   4  -229722.82 3421.74   1 0.73551-0.03109-0.65377 0.99896-0.17777 0.03306
   8   4  -234258.00  885.97   1 0.04541 0.65915 0.45745-0.11238-0.88807 0.74356
   8   4  -231825.32 3369.97   1 0.47320 0.23157 0.30264 0.04300 0.82733-0.97186
   8   4  -1 5066.70  599.21   1 0.72852-0.04450-0.67195 0.99715-0.13313 0.06078
   8   4  -1 3701.57 1048.43   1 0.15298 0.53121 0.36441-0.03919-0.91858 0.84633
   8   4  -1 4735.35  797.78   1 0.44906 0.23535 0.14194 0.18365 0.88215-0.95440
   8   4   037646.85 1152.38   1 0.71916-0.05552-0.68961 0.99482-0.08512 0.08512
   8   4   039058.48 3283.27   1 0.41224 0.25182-0.02145 0.32709 0.91082-0.91082
   8   4   1 5427.60  982.47   1 0.70601-0.06282-0.70759 0.99284-0.02922 0.10158
   8   4   1 6651.89  255.89   1 0.49123 0.15210-0.00965 0.29512-0.87097 0.94327
   8   4   1 6966.09  634.98   1 0.36567 0.27796-0.17787 0.46354 0.91358-0.84134
   8   4   226338.07  431.71   1 0.68391-0.06114-0.72806 0.99330 0.04672 0.09799
   8   4   227923.93  421.11   1 0.67210-0.04896-0.30762 0.57287-0.67352 0.81817
   8   4   228211.50 3103.78   1 0.31369 0.30896-0.31960 0.58539 0.89411-0.74957
   8   4   3156516.9  922.82   1 0.62656-0.02411-0.75421 0.99949 0.19639 0.02072
   8   4   3156867.6  827.74   1 0.74601-0.14353-0.57149 0.81674-0.34183 0.55886
   8   4   3151242.2 4460.83   1 0.26068 0.34147-0.44025 0.68610 0.85919-0.64237
   8   4   442067.33 1208.29   1 0.44106 0.14094-0.74042 0.96576 0.50719-0.21780
   8   4   443011.54 1225.71   1 0.72374-0.14167-0.68166 0.90690-0.10739 0.39680
   8   4   445512.28 1686.24   1 0.21034 0.37113-0.53921 0.76491 0.81547-0.52646
   8   4   511892.12  328.22   1 0.69968-0.13814-0.71442 0.91967-0.00576 0.36757
  -8  -4  -510028.31  278.55   1-0.14881-0.41312 0.59896-0.80504-0.78682 0.42570
   8   4   512030.76 1228.77   1 0.16524 0.39568-0.61698 0.82269 0.76942-0.40816
   8   4   655108.17 1526.81   1 0.68039-0.13925-0.73058 0.91583 0.05753 0.37662
  -8  -4  -653050.89 1448.88   1 0.11496-0.65661 0.39850-0.58472-0.90993 0.47640
   8   4   659366.71 2031.62   1 0.12662 0.41375-0.67661 0.86233 0.72536-0.29185
   8   4   726215.22 3190.43   1 0.66241-0.14169-0.74120 0.90645 0.10871 0.39781
  -8  -4  -728042.73  966.78   1 0.29789-0.81913 0.22150-0.38776-0.92854 0.42268
   8   4   726784.06 2033.80   1 0.27284 0.24856 0.96094-0.79567-0.04620 0.55237
   8   4   8 9436.81  901.28   1 0.64433-0.14402-0.74889 0.89414 0.15490 0.42398
  -8  -4  -810890.49  470.05   1 0.41419-0.91519 0.08921-0.23498-0.90580 0.32742
   8   4   810494.21 1170.60   1 0.30239 0.19864 0.95289-0.80764 0.02328 0.55519
   8   4   940179.19 1280.61   1 0.62552-0.14557-0.75447 0.87973 0.19871 0.45263
  -8  -4  -939450.71 1225.10   1 0.48639-0.96705-0.00312-0.12269-0.87373 0.22305
   8   4   936778.28 3574.25   1 0.32965 0.15084 0.93971-0.81457 0.09091 0.56010
   8   4  10  935.52  218.46   1 0.60575-0.14622-0.75825 0.86350 0.24105 0.48267
  -8  -4 -10  882.34  258.15   1 0.53145-0.99178-0.06599-0.03986-0.84450 0.12152
   8   4  10  972.25  129.96   1 0.35434 0.10579 0.92196-0.81685 0.15629 0.56705
   8   4  11 5499.28 1343.16   1 0.58481-0.14570-0.76035 0.84560 0.28256 0.51353
  -8  -4 -11 7809.76  536.05   1 0.55954-0.99939-0.10803 0.02273-0.82172 0.02617
   8   4  11 7495.15  939.79   1 0.37672 0.06304 0.89994-0.81487 0.21949 0.57619
   8   5  -3 1548.12  775.59   1 0.74433-0.01510-0.54365 0.98519-0.38782 0.17079
   8   5  -3 2368.62  641.92   1-0.03828 0.76812 0.52246-0.08121-0.85180 0.63513
  -8  -5   3  303.39   80.25   1 0.10498-0.83489-0.70743 0.26541 0.69893-0.48217
   8   5  -2 8665.67  500.74   1 0.74493-0.03607-0.55044 0.97198-0.37694 0.23225
   8   5  -2 9529.27  449.22   1 0.03875 0.67014 0.46287-0.04145-0.88557 0.74106
   8   5  -2 9864.61  936.55   1 0.47456 0.23470 0.31560 0.10642 0.82169-0.96622
   8   5  -136160.66  777.85   1 0.74473-0.05625-0.54800 0.94954-0.38087 0.30853
   8   5   0  285.97  110.57   1 0.74190-0.07379-0.52338 0.90492-0.41911 0.41911
   8   5   0  223.05  134.34   1 0.34756 0.32046 0.16718 0.21459-0.92263 0.92263
   8   5   0  755.74  106.31   1 0.42548 0.24312 0.03145 0.35058 0.90442-0.90442
   8   5   1 7401.74  801.58   1 0.38775 0.26042-0.10835 0.47043 0.91536-0.84313
   8   5   2 9666.29  926.03   1 0.34471 0.28249-0.23886 0.58105 0.90780-0.76325
   8   5   3 1382.18  193.67   1 0.29929 0.30741-0.35433 0.67660 0.88593-0.66910
   8   5   415464.76 1551.33   1 0.25458 0.33148-0.45330 0.75541 0.85422-0.56521
   8   5   546673.83 4543.32   1 0.21282 0.35269-0.53467 0.81679 0.81782-0.45655
   8   5   6   60.22   75.00   1 0.17561 0.36936-0.59992 0.86205 0.78054-0.34703
   8   5   7 7030.55  272.83   1 0.50098 0.02430-0.75457 0.99628 0.42382 0.08260
  -8  -5  -7 7517.62  263.16   1 0.15422-0.67984 0.36327-0.60597-0.91882 0.41304
   8   5   7 8305.05  923.10   1 0.14372 0.38069-0.65096 0.89311 0.74537-0.23960
   8   5   8 1517.49  459.04   1 0.52803-0.02320-0.75852 0.98010 0.38186 0.19711
  -8  -5  -8  946.81  657.52   1 0.35045-0.85566 0.16393-0.38666-0.92212 0.34399
   8   5   8 2123.61  338.05   1 0.27033 0.23519 0.96136-0.73975-0.05194 0.63042
   8   5   8 2291.38  320.11   1 0.11737 0.38649-0.69001 0.91217 0.71421-0.13619
   8   5   9   99.39   28.69   1 0.53115-0.04674-0.75886 0.96044 0.37682 0.27452
  -8  -5  -9  107.01   40.88   1 0.45639-0.94142 0.03636-0.23853-0.88903 0.23835
   8   5   9   66.32   60.69   1 0.30028 0.18486 0.95367-0.75209 0.01819 0.63259
   8   5  1023567.13 1174.10   1 0.52470-0.06071-0.75813 0.93971 0.38719 0.33653
  -8  -5 -1024518.95 1180.59   1 0.51710-0.98180-0.04546-0.13675-0.85471 0.13173
   8   5  1026195.71 2798.73   1 0.32809 0.13650 0.94063-0.75916 0.08693 0.63642
   8   6  -2 7427.26  798.93   1 0.47642 0.23735 0.33474 0.16368 0.81300-0.95753
   8   6  -1  966.43  192.05   1 0.46069 0.23273 0.20967 0.26871 0.86243-0.93468
   8   6   0   65.23   47.46   1 0.43692 0.23609 0.08174 0.37661 0.89577-0.89577
   8   6   1 2953.73  390.02   1 0.40621 0.24651-0.04403 0.48251 0.91271-0.84048
   8   6   215266.08 1597.31   1 0.37043 0.26185-0.16347 0.58198 0.91435-0.76988
   8   6   3  278.54   69.01   1 0.33196 0.27929-0.27311 0.67179 0.90288-0.68606
   8   6   4 2075.91  253.75   1 0.29281 0.29794-0.36944 0.74819 0.88191-0.59281
   8   6   512128.69 1259.67   1 0.25510 0.31500-0.45223 0.81077 0.85463-0.49337
   8   6   623536.28 2715.93   1 0.22027 0.32928-0.52081 0.85935 0.82476-0.39124
   8   6   7  493.24  139.32   1 0.18940 0.33960-0.57647 0.89503 0.79485-0.28909
   8   6   8 7762.92  862.21   1 0.16299 0.34546-0.62063 0.91921 0.76696-0.18895
   8   6   9 2101.22  221.10   1 0.27266 0.21698 0.96097-0.68303-0.04661 0.69740
   8   6   9 2352.20  274.61   1 0.14119 0.34671-0.65484 0.93342 0.74245-0.09218
   8   6  10 5804.14  693.99   1 0.30253 0.16674 0.95284-0.69492 0.02362 0.69948
   8   6  10 6216.62  782.45   1 0.12391 0.34344-0.68057 0.93917 0.72212 0.00040
   8   7  -1 8225.54 1094.57   1 0.46597 0.23197 0.24559 0.30918 0.85002-0.92227
   8   7   0 1704.97  257.13   1 0.44686 0.23066 0.13041 0.40434 0.88504-0.88504
   8   7   1   94.16   66.42   1 0.42183 0.23542 0.01635 0.49853 0.90652-0.83428
   8   7   2 5342.80  661.53   1 0.39218 0.24464-0.09350 0.58843 0.91512-0.77064
   8   7   3  240.29   55.52   1 0.35955 0.25685-0.19599 0.67094 0.91231-0.69559
   8   7   4 6492.14  692.10   1 0.32579 0.26951-0.28914 0.74430 0.90014-0.61104
   8   7   510483.20 1060.79   1 0.29225 0.28254-0.37072 0.80596 0.88155-0.52018
   8   7   6 2909.70  717.78   1 0.26047 0.29382-0.44067 0.85598 0.85904-0.42539
   8   7   711398.11 1458.90   1 0.23135 0.30223-0.49969 0.89466 0.83473-0.32896
   8   7   8 1571.06  245.58   1 0.20570 0.30733-0.54764 0.92263 0.81102-0.23300
   8   7   9 1603.18  185.48   1 0.18386 0.30862-0.58598 0.94098 0.78918-0.13891
   8   8   0 2007.99  397.78   1 0.45549 0.22654 0.17782 0.43333 0.87229-0.87229
   8   8   1  298.99   80.18   1 0.43513 0.22648 0.07353 0.51759 0.89735-0.82510
   8   8   2  330.73   67.64   1 0.41064 0.23072-0.02751 0.59885 0.91137-0.76690
   8   8   3  662.63  112.66   1 0.38317 0.23777-0.12339 0.67476 0.91539-0.69868
   8   8   413323.52 1544.76   1 0.35423 0.24562-0.21220 0.74377 0.91076-0.62166
   8   8   5   81.98  118.19   1 0.32478 0.25457-0.29174 0.80338 0.89966-0.53829
   8   8   618015.47 1804.85   1 0.29618 0.26266-0.36160 0.85332 0.88403-0.45038
   8   8   7 9636.91 1171.73   1 0.26943 0.26891-0.42161 0.89339 0.86582-0.35990
   8   8   8 2433.51  322.18   1 0.24513 0.27249-0.47253 0.92392 0.84653-0.26851
   8   9   3 2438.17  441.52   1 0.40338 0.22210-0.05433 0.68210 0.91341-0.69670
   8   9   4 1709.18  216.94   1 0.37855 0.22650-0.13818 0.74599 0.91520-0.62625
   8   9   542400.55 5842.17   1 0.35317 0.23073-0.21522 0.80328 0.91046-0.54909
   8   9   637381.41 1367.94   1 0.32781 0.23559-0.28394 0.85206 0.90106-0.46742
   8   9   7 8963.66 1088.11   1 0.30356 0.23933-0.34420 0.89239 0.88846-0.38254
   9  -7  -3 3138.36  346.72   1 0.37893 0.37900 0.13126-0.60611-0.91606 0.69926
  -9   7   3 2674.91  313.60   1-0.31319-0.44475 0.68950-0.21451-0.65306 0.86958
   9  -7  -231663.24 4565.45   1 0.42366 0.31335 0.07761-0.57219-0.90248 0.75789
  -9   7   231124.92 2764.44   1-0.24792-0.48939 0.65621-0.16126-0.71268 0.85702
   9  -7  -117852.07 2389.22   1 0.47056 0.24611 0.01792-0.53246-0.88218 0.80988
  -9   7   116926.72 1618.95   1-0.18062-0.53604 0.61719-0.10227-0.76579 0.83797
   9  -7   0 6881.55  686.31   1 0.51773 0.17861-0.04634-0.48814-0.85428 0.85428
  -9   7   0 6910.86  631.60   1-0.11241-0.58447 0.57499-0.04064-0.81039 0.81039
   9  -7   116732.44 1824.23   1 0.56329 0.11222-0.11378-0.44050-0.81838 0.89070
  -9   7  -116334.36 1753.13   1-0.04591-0.63053 0.52809 0.02611-0.84794 0.77572
   9  -7   2 4320.37  471.45   1 0.60599 0.04915-0.18273-0.39156-0.77419 0.91883
  -9   7  -2 4284.92  476.07   1 0.01772-0.67372 0.47951 0.09454-0.87735 0.73290
  -9   7  -2 3699.67  599.73   1 0.26387-0.91846 0.96225-0.38772-0.06655-0.07806
   9  -7   2 3053.09  866.18   1 0.42621 0.22779 0.03453-0.60933 0.90396-0.75948
   9  -7   3 4778.36  469.12   1 0.64420-0.00940-0.25139-0.34289-0.72235 0.93932
  -9   7  -3 4643.12  540.94   1 0.07697-0.71284 0.43124 0.16270-0.89894 0.68218
  -9   7  -3 4053.10  854.36   1 0.27840-0.91261 0.95988-0.36532-0.03344-0.18349
   9  -7   3 4331.48  941.66   1 0.44545 0.18842 0.12316-0.71799 0.88679-0.67005
   9  -7   411572.34 1340.57   1 0.67690-0.06275-0.31807-0.29610-0.66379 0.95309
  -9   7  -411540.89 1383.99   1 0.13081-0.74633 0.38445 0.22935-0.91382 0.62481
  -9   7  -410771.09 1975.61   1 0.28513-0.89897 0.95832-0.34374-0.01778-0.27145
   9  -7   412856.46  626.47   1 0.45641 0.15704 0.18323-0.79809 0.87069-0.58171
   9  -6  -4 2719.01  411.12   1 0.29962 0.48299 0.21966-0.59827-0.92842 0.63936
  -9   6   4 2532.85  254.00   1-0.39483-0.38825 0.72391-0.34530-0.56572 0.85441
   9  -6  -339404.78 4793.33   1 0.34337 0.41889 0.17188-0.57037-0.92333 0.70653
  -9   6   337831.62 3225.69   1-0.33153-0.43091 0.69797-0.29939-0.63476 0.85127
   9  -6  -2 2188.91  238.50   1 0.39111 0.35080 0.11695-0.53533-0.91287 0.76834
  -9   6   2 2222.15  193.45   1-0.26390-0.47789 0.66480-0.24626-0.69884 0.84319
   9  -6  -120874.35 2030.83   1 0.44128 0.27976 0.05562-0.49380-0.89563 0.82334
  -9   6   118739.82 1682.23   1-0.19325-0.52790 0.62486-0.18635-0.75643 0.82860
   9  -6   051429.53 6000.86   1 0.49259 0.20811-0.01151-0.44662-0.87018 0.87018
  -9   6   048432.55 4706.41   1-0.12091-0.58033 0.58070-0.12269-0.80508 0.80508
  -9   6  -1  819.74  156.64   1-0.04961-0.63119 0.53081-0.05293-0.84603 0.77381
   9  -6   1  303.41  132.47   1 0.41913 0.25984 0.00545-0.48387 0.90790-0.83567
   9  -6   2 5970.90  552.79   1 0.58979 0.06979-0.15576-0.34220-0.79238 0.93703
  -9   6  -2 6255.63  605.59   1 0.01907-0.67945 0.47844 0.01928-0.87791 0.73346
   9  -6   2 6390.40  353.09   1 0.44946 0.20933 0.14413-0.64254 0.88159-0.73709
   9  -6   3 5050.36  564.06   1 0.63214 0.00708-0.22882-0.28914-0.74029 0.95726
  -9   6  -3 4825.25  537.69   1 0.08331-0.72352 0.42587 0.09173-0.90093 0.68417
   9  -6   3 4401.87  776.26   1 0.46393 0.17445 0.23121-0.74965 0.85516-0.63842
   9  -6   424508.94 2709.23   1 0.66843-0.04983-0.29980-0.23806-0.68067 0.96996
  -9   6  -423327.38 2504.11   1 0.14175-0.76159 0.37462 0.16284-0.91627 0.62725
   9  -6   427189.00 1302.08   1 0.47126 0.14671 0.28704-0.82550 0.83397-0.54499
   9  -6   5  144.13   82.82   1 0.69781-0.09957-0.36723-0.19062-0.61497 0.97659
  -9   6  -5   80.61   62.36   1 0.19348-0.79296 0.32658 0.23073-0.92514 0.56387
  -9   6  -5   69.98   60.53   1 0.26623-0.86419 0.96196-0.40371-0.06124-0.30030
   9  -6   5  174.47   54.90   1 0.47523 0.12243 0.32221-0.88078 0.81873-0.45740
   9  -5  -4 4285.63  410.80   1 0.41929 0.36640-0.73369 0.43203 0.53468-0.82407
   9  -5  -4 4371.63  510.78   1 0.26242 0.52452 0.25854-0.56080-0.92966 0.64060
   9  -5  -3  534.97   92.33   1 0.30786 0.45873 0.21084-0.53298-0.92777 0.71097
  -9   5   3  430.87   94.85   1-0.35600-0.41092 0.70862-0.38646-0.60918 0.82570
   9  -5  -216935.13 1788.61   1 0.35826 0.38798 0.15508-0.49710-0.92065 0.77611
  -9   5   216411.37 1224.87   1-0.28659-0.45969 0.67651-0.33438-0.67837 0.82272
   9  -5  -117984.48 1854.49   1 0.41201 0.31340 0.09186-0.45368-0.90653 0.83423
  -9   5   116722.00 1269.62   1-0.21289-0.51275 0.63647-0.27437-0.74133 0.81350
   9  -5   0 2039.31  277.04   1 0.46766 0.23742 0.02172-0.40350-0.88363 0.88363
  -9   5   0 2089.48  277.61   1-0.13640-0.56922 0.59093-0.20924-0.79510 0.79510
   9  -5   121963.08 1471.57   1 0.52261 0.16213-0.05328-0.34845-0.85089 0.92319
  -9   5  -120574.59 1890.09   1-0.05997-0.62521 0.53834-0.13680-0.84058 0.76836
   9  -5   2 9879.32  785.31   1 0.57440 0.08961-0.13108-0.29055-0.80800 0.95265
  -9   5  -2 9880.04 1050.21   1 0.01436-0.67911 0.48216-0.06077-0.87596 0.73151
   9  -5   210571.12  426.57   1 0.46896 0.19435 0.26818-0.69020 0.84151-0.69702
   9  -5   3   84.82   71.18   1 0.62113 0.02252-0.20898-0.23265-0.75532 0.97229
  -9   5  -3  135.98   67.19   1 0.08430-0.72884 0.42503 0.01623-0.90124 0.68448
   9  -5   3   89.40   26.73   1 0.47762 0.16535 0.34840-0.79048 0.80653-0.58973
   9  -5   4 4563.25  411.47   1 0.66107-0.03778-0.28470-0.17693-0.69420 0.98349
  -9   5  -4 4332.78  426.35   1 0.14807-0.77225 0.36889 0.09223-0.91760 0.62858
   9  -5   4 4680.78  447.56   1 0.48099 0.14157 0.39631-0.85845 0.78203-0.49296
   9  -5   5  232.60  100.66   1 0.69338-0.09069-0.35624-0.12530-0.62634 0.98796
   9  -5   5  247.65   51.28   1 0.48234 0.11982 0.42420-0.90639 0.76641-0.40508
   9  -5   6 6271.54  520.58   1 0.71764-0.13533-0.42238-0.07916-0.55368 0.98763
  -9   5  -6 5230.36  602.34   1 0.25307-0.83650 0.26808 0.23298-0.92956 0.49596
   9  -5   6 6235.34  702.11   1 0.48284 0.09891 0.43849-0.94072 0.75801-0.32441
   9  -5   720041.23 2484.34   1 0.73428-0.17302-0.48227-0.03925-0.47773 0.98413
  -9   5  -719739.42 2429.87   1 0.29371-0.85679 0.22594 0.29500-0.92880 0.42294
   9  -5   723549.84 2219.51   1 0.48297 0.07837 0.44291-0.96520 0.75535-0.24948
   9  -4  -5  237.87  115.16   1 0.50639 0.30448-0.75551 0.55024 0.41564-0.77750
   9  -4  -5  371.06   99.15   1 0.18590 0.62588 0.33378-0.53986-0.92413 0.56286
   9  -4  -4 3588.03  352.36   1 0.44986 0.34028-0.74291 0.51757 0.49567-0.78505
   9  -4  -4 4145.66  457.82   1 0.22586 0.56541 0.29530-0.52120-0.92832 0.63925
   9  -4  -3 8772.06  829.66   1 0.27274 0.49818 0.24791-0.49369-0.92959 0.71279
  -9   4   3 8863.66  798.84   1-0.38691-0.38450 0.72096-0.47521-0.57488 0.79140
   9  -4  -2  169.46   92.61   1 0.32569 0.42487 0.19146-0.45713-0.92588 0.78135
   9  -4  -1 8399.84  683.72   1 0.38330 0.34692 0.12615-0.41170-0.91496 0.84270
  -9   4   1 7678.81  680.30   1-0.24044-0.48969 0.65210-0.36642-0.71898 0.79115
   9  -4   046670.13 3823.03   1 0.44331 0.26614 0.05306-0.35848-0.89479 0.89479
  -9   4   043070.30 4007.82   1-0.16000-0.54999 0.60608-0.30073-0.77914 0.77914
   9  -4   034736.83  771.18   1 0.41427 0.29421-0.01366-0.29196 0.91005-0.91005
   9  -4   034379.80 1083.71   1 0.12928 0.57837-0.67270 0.36705 0.72852-0.72852
   9  -4   1 1965.43  258.61   1 0.50337 0.18575-0.02627-0.29910-0.86366 0.93596
  -9   4  -1 1833.93  254.76   1-0.07821-0.61134 0.55137-0.22617-0.83057 0.75835
   9  -4   1 1099.83  497.82   1 0.47068 0.21755 0.28220-0.60780 0.83594-0.76370
   9  -4   224466.71 2022.18   1 0.56031 0.10813-0.10921-0.23609-0.82104 0.96569
  -9   4  -225092.68 2693.84   1 0.00236-0.67148 0.49156-0.14651-0.87083 0.72639
   9  -4   226168.84  790.83   1 0.48155 0.18632 0.40679-0.75244 0.77628-0.63175
   9  -4   334294.60 2852.46   1 0.61170 0.03638-0.19249-0.17281-0.76731 0.98428
  -9   4  -333208.17 3950.03   1 0.07886-0.72774 0.42964-0.06471-0.89954 0.68278
   9  -4   338294.58 3427.97   1 0.48351 0.16396 0.47257-0.83827 0.73681-0.52001
   9  -4   4 3525.83  288.85   1 0.65545-0.02772-0.27334-0.11196-0.70403 0.99332
  -9   4  -4 3154.53  372.05   1 0.14891-0.77742 0.36813 0.01665-0.91777 0.62875
   9  -4   4 3641.27  353.15   1 0.48335 0.14372 0.50873-0.89448 0.71243-0.42336
   9  -4   5 2759.00  399.88   1 0.69053-0.08339-0.34936-0.05588-0.63332 0.99494
  -9   4  -5 2718.80  401.48   1 0.21090-0.81905 0.30983 0.09481-0.92710 0.56583
   9  -4   5 2917.40  409.52   1 0.48314 0.12379 0.52765-0.93327 0.69867-0.33714
   9  -4   611417.98  872.32   1 0.71657-0.12980-0.41908-0.00616-0.55757 0.99152
  -9   4  -610506.13 1187.13   1 0.26412-0.85188 0.25680 0.16791-0.92967 0.49607
   9  -4   611754.84 1150.16   1 0.48291 0.10365 0.53440-0.96006 0.69369-0.25984
   9  -4   7  168.99   68.62   1 0.73413-0.16837-0.48160 0.03638-0.47864 0.98505
  -9   4  -7  177.21   74.59   1 0.30843-0.87584 0.21022 0.23436-0.92772 0.42186
   9  -4   7  241.28   46.04   1 0.48297 0.08322 0.53277-0.97849 0.69489-0.18874
   9  -4   830018.37 4027.63   1 0.74360-0.19822-0.53666 0.07144-0.39880 0.97754
  -9   4  -829767.61 4234.92   1 0.34438-0.89144 0.17074 0.29372-0.92316 0.34504
   9  -4   832092.26 4283.56   1 0.48323 0.06258 0.52475-0.99051 0.70079-0.12233
   9  -3  -552356.38 5001.35   1 0.53932 0.27600-0.75963 0.63068 0.36343-0.72529
   9  -3  -557908.35 1946.01   1 0.15027 0.66585 0.36689-0.49662-0.91804 0.55677
   9  -3  -451726.99 4636.25   1 0.48559 0.30902-0.75160 0.60258 0.44641-0.73579
   9  -3  -452158.32 6311.83   1 0.19049 0.60527 0.32944-0.47903-0.92475 0.63574
   9  -3  -3 2030.71  263.08   1 0.42382 0.35040-0.73515 0.56614 0.52907-0.74611
   9  -3  -3 2253.38  317.86   1 0.23845 0.53680 0.28280-0.45223-0.92906 0.71226
   9  -3  -2 3876.20  372.79   1 0.29382 0.46107 0.22582-0.41513-0.92879 0.78426
  -9   3   2 4165.33  696.39   1-0.35444-0.40082 0.70797-0.51866-0.61085 0.75519
   9  -3  -1  333.61   71.17   1 0.35515 0.37939 0.15861-0.36780-0.92125 0.84898
  -9   3   1  214.45   47.13   1-0.27687-0.45774 0.67156-0.46229-0.68726 0.75944
   9  -3   0 4955.35  511.40   1 0.42001 0.29381 0.08209-0.31116-0.90379 0.90379
  -9   3   0 4607.40  422.93   1-0.19318-0.52080 0.62482-0.39558-0.75649 0.75649
   9  -3   0 4738.35  156.53   1 0.46060 0.25256 0.20910-0.43829 0.86262-0.86261
   9  -3   0 4666.61  170.95   1 0.23356 0.47867-0.49539 0.26616 0.83667-0.83667
   9  -3   1138346.3 3405.25   1 0.48337 0.20941 0.46143-0.71064 0.74392-0.67165
   9  -3   2115704.9 2964.18   1 0.48198 0.19054 0.55499-0.82413 0.67799-0.53337
   9  -3   313134.87 1359.27   1 0.60451 0.04799-0.18021-0.10876-0.77593 0.99290
  -9   3  -313328.38 1383.96   1 0.06551-0.71872 0.44086-0.15227-0.89517 0.67841
   9  -3   312464.52 1689.96   1 0.47874 0.17340 0.59948-0.88866 0.64142-0.42449
   9  -3   4  408.96   72.86   1 0.65213-0.01997-0.26677-0.04221-0.70961 0.99890
  -9   3  -4  791.49   97.77   1 0.14302-0.77587 0.37347-0.06502-0.91654 0.62753
   9  -3   4  547.66   82.12   1 0.47656 0.15521 0.62070-0.92993 0.62258-0.33335
   9  -3   5  840.57  168.46   1 0.68978-0.07818-0.34755 0.01862-0.63514 0.99676
  -9   3  -5  839.90  154.31   1 0.21175-0.82423 0.30900 0.01929-0.92718 0.56591
   9  -3   5  934.45  126.75   1 0.47566 0.13573 0.62835-0.95762 0.61555-0.25402
   9  -3   616785.55 1063.43   1 0.71715-0.12593-0.42086 0.07193-0.55548 0.98942
  -9   3  -617277.45 2068.79   1 0.27063-0.86272 0.25009 0.09826-0.92962 0.49603
   9  -3   616080.83 1899.62   1 0.47582 0.11520 0.62703-0.97635 0.61678-0.18293
   9  -3   7130638.1 3623.39   1 0.73506-0.16481-0.48577 0.11686-0.47297 0.97937
  -9   3  -7131164.9 3662.53   1 0.31938-0.89112 0.19836 0.16987-0.92662 0.42076
   9  -3   7139432.910868.22   1 0.47673 0.09392 0.61922-0.98858 0.62392-0.11777
   9  -3   870725.68 7636.81   1 0.74419-0.19431-0.54218 0.15328-0.39014 0.96888
  -9   3  -876142.69 2261.00   1 0.35867-0.91005 0.15461 0.23351-0.92056 0.34244
   9  -3   883228.94 2217.74   1 0.47808 0.07219 0.60635-0.99576 0.63542-0.05696
   9  -2  -511382.59  869.19   1 0.57526 0.24452-0.76075 0.70813 0.30052-0.66238
   9  -2  -5 9829.29 2060.76   1 0.11651 0.70395 0.39714-0.45053-0.91032 0.54905
   9  -2  -4  120.56   66.01   1 0.52598 0.27338-0.75828 0.68565 0.38514-0.67463
   9  -2  -4   92.65   52.44   1 0.15659 0.64350 0.36110-0.43435-0.91928 0.63026
   9  -2  -326177.45 2179.72   1 0.46761 0.31107-0.74753 0.65484 0.47173-0.68877
   9  -2  -328028.91 2678.26   1 0.20558 0.57414 0.31498-0.40808-0.92656 0.70980
   9  -2  -2   82.30   59.88   1 0.26315 0.49608 0.25780-0.37075-0.92967 0.78513
  -9   2   2  194.32   50.09   1-0.40036-0.35939 0.72592-0.61302-0.55923 0.70358
   9  -2  -1  108.09   53.26   1 0.32829 0.41058 0.18861-0.32144-0.92555 0.85328
  -9   2   1  149.11   36.77   1-0.32307-0.41604 0.69411-0.56125-0.64329 0.71547
   9  -2   050795.32 4043.87   1 0.39848 0.32004 0.10819-0.26090-0.91076 0.91077
  -9   2   049486.08 4371.66   1-0.23716-0.48130 0.65029-0.49746-0.72171 0.72171
   9  -2   047942.10 1225.37   1 0.48335 0.23434 0.50850-0.66127 0.71259-0.71259
   9  -2   168003.06 2157.42   1 0.47006 0.22781 0.01858-0.19125-0.88243 0.95473
  -9   2  -166019.60 5333.70   1-0.14516-0.55314 0.59661-0.42409-0.78928 0.71706
   9  -2   168239.50 1852.13   1 0.13126 0.56502-0.66978 0.49697 0.73086-0.65861
   9  -2   222902.33 2178.52   1 0.53881 0.13872-0.07670-0.11591-0.83892 0.98352
  -9   2  -222192.85 2606.58   1-0.05059-0.62726 0.53152-0.33914-0.84552 0.70108
   9  -2   223711.15 1415.71   1 0.46427 0.21271 0.69902-0.89181 0.54388-0.39926
   9  -2   390099.78 2673.84   1 0.60043 0.05650-0.17334-0.03931-0.78065 0.99762
  -9   2  -388714.42 2668.01   1 0.04212-0.69967 0.46013-0.24788-0.88684 0.67008
   9  -2   389129.18 2427.34   1 0.45995 0.19669 0.71948-0.93234 0.52036-0.30339
   9  -2   422602.18 1951.78   1 0.65188-0.01530-0.26628 0.03362-0.71002 0.99931
  -9   2  -422490.43 2456.28   1 0.12861-0.76579 0.38642-0.15431-0.91331 0.62429
   9  -2   421217.91 1664.06   1 0.45855 0.17772 0.72530-0.95820 0.51347-0.22418
   9  -2   5  243.03   47.48   1 0.69168-0.07563-0.35212 0.09950-0.63053 0.99215
  -9   2  -5 1000.81  143.10   1 0.20566-0.82247 0.31490-0.06294-0.92657 0.56530
   9  -2   5  251.38   40.47   1 0.45925 0.15666 0.72242-0.97536 0.51690-0.15528
   9  -2   616003.45 1044.78   1 0.71971-0.12403-0.42889 0.15628-0.54594 0.97989
  -9   2  -617021.83 2629.61   1 0.27159-0.86801 0.24910 0.02289-0.92961 0.49601
   9  -2   616226.72 1491.19   1 0.46132 0.13422 0.71355-0.98654 0.52728-0.09333
   9  -2   719851.94 1955.47   1 0.73714-0.16240-0.49574 0.20314-0.45918 0.96558
  -9   2  -719839.04 3134.87   1 0.32586-0.90193 0.19128 0.10059-0.92586 0.42000
   9  -2   721135.63 1308.21   1 0.46404 0.11107 0.70013-0.99314 0.54265-0.03650
   9  -2   8 8072.85 1405.68   1 0.74511-0.19075-0.55284 0.24025-0.37303 0.95178
  -9   2  -8 8644.86 1109.07   1 0.36927-0.92498 0.14246 0.16929-0.91833 0.34020
   9  -2   8 9450.72  858.70   1 0.46739 0.08734 0.68297-0.99603 0.56132 0.01713
   9  -2   945379.30 3514.74   1 0.74537-0.21154-0.60093 0.26838-0.28862 0.93979
  -9   2  -945099.20 1647.45   1 0.40306-0.93826 0.10268 0.22963-0.90939 0.25871
   9  -2   944816.77 4217.64   1 0.47089 0.06347 0.66254-0.99564 0.58248 0.06827
   9  -1  -5  763.05  136.76   1 0.61292 0.21132-0.75710 0.78079 0.22609-0.58796
   9  -1  -5  489.02  134.21   1 0.08516 0.73963 0.42429-0.40135-0.90150 0.54023
   9  -1  -428651.33 2464.43   1 0.56954 0.23427-0.76084 0.76453 0.31100-0.60049
   9  -1  -425082.83 4285.70   1 0.12483 0.67959 0.38978-0.38669-0.91240 0.62338
   9  -1  -3  137.54   54.22   1 0.51690 0.26649-0.75711 0.74080 0.39947-0.61659
   9  -1  -3  201.71   45.46   1 0.17453 0.60953 0.34448-0.36125-0.92242 0.70566
   9  -1  -2  710.98   99.84   1 0.45360 0.30915-0.74393 0.70758 0.49071-0.63541
   9  -1  -2  792.43  121.58   1 0.23427 0.52929 0.28697-0.32356-0.92885 0.78431
   9  -1  -124495.98 3078.15   1 0.30340 0.43980 0.21563-0.27210-0.92814 0.85587
  -9   1   123172.53 1573.16   1-0.37954-0.36406 0.71814-0.66169-0.58327 0.65545
   9  -1   035444.55 3094.63   1 0.37928 0.34357 0.13085-0.20721-0.91598 0.91598
  -9   1   029904.25 3831.62   1-0.29364-0.42931 0.68003-0.60362-0.67180 0.67180
   9  -1   1  185.72   57.72   1 0.45767 0.24456 0.03471-0.13102-0.88844 0.96073
  -9   1  -1  194.35   33.19   1-0.19797-0.50434 0.62769-0.53131-0.75286 0.68069
   9  -1   1   50.51   23.79   1 0.43135 0.27048 0.80933-0.90574 0.39862-0.32629
   9  -1   1  134.70   58.67   1 0.20119 0.49967-0.55575 0.45935 0.80663-0.73438
   9  -1   259981.39 1295.30   1 0.53328 0.14863-0.06863-0.04763-0.84314 0.98774
  -9   1  -259664.71 1322.86   1-0.09670-0.58553 0.56428-0.44823-0.81989 0.67545
   9  -1   257949.05 3737.29   1 0.42600 0.25546 0.82156-0.93801 0.37888-0.23423
   9  -1   3 3634.29  316.55   1 0.60058 0.06078-0.17360 0.03727-0.78048 0.99745
  -9   1  -3 3856.97  378.66   1 0.00567-0.66746 0.48898-0.35309-0.87227 0.65560
   9  -1   3 3586.96  376.03   1 0.42582 0.23528 0.82196-0.95845 0.37822-0.16125
   9  -1   4 2887.24  284.38   1 0.65565-0.01464-0.27376 0.11743-0.70368 0.99297
  -9   1  -4 2847.65  328.90   1 0.10302-0.74453 0.40894-0.25317-0.90672 0.61771
   9  -1   4 2714.56  258.47   1 0.42864 0.21208 0.81565-0.97219 0.38854-0.09924
   9  -1   5   51.39   49.18   1 0.69686-0.07635-0.36484 0.18854-0.61747 0.97909
  -9   1  -5  345.69   61.20   1 0.19053-0.81168 0.32940-0.15377-0.92476 0.56349
   9  -1   5   40.04   62.90   1 0.43325 0.18711 0.80475-0.98134 0.40577-0.04416
   9  -1   611420.29  672.63   1 0.72445-0.12432-0.44468 0.24838-0.52670 0.96065
  -9   1  -611459.14 1100.85   1 0.26547-0.86622 0.25541-0.05977-0.92966 0.49607
   9  -1   611245.17  903.84   1 0.43887 0.16112 0.79027-0.98691 0.42760 0.00633
   9  -1   7 3858.80  359.93   1 0.74024-0.16101-0.51265 0.29636-0.43500 0.94140
  -9   1  -7 4149.59  407.08   1 0.32683-0.90722 0.19022 0.02530-0.92574 0.41987
   9  -1   7 3969.43  388.09   1 0.44501 0.13462 0.77275-0.98944 0.45255 0.05371
   9  -1   816753.14 1132.59   1 0.74596-0.18711-0.56942 0.33314-0.34537 0.92412
  -9   1  -817951.87 2063.64   1 0.37548-0.93552 0.13527 0.10012-0.91690 0.33877
   9  -1   816617.62 1604.32   1 0.45130 0.10796 0.75249-0.98922 0.47966 0.09892
   9  -1   9  891.29  147.30   1 0.74381-0.20548-0.61622 0.35998-0.25887 0.91004
  -9   1  -9 1159.06  201.25   1 0.41299-0.95256 0.09067 0.16528-0.90620 0.25552
   9  -1   9 1005.01  128.72   1 0.45748 0.08141 0.72964-0.98641 0.50826 0.14265
   9   0  -541281.38 3877.37   1 0.65043 0.17801-0.74658 0.84657 0.13981-0.50162
   9   0  -540922.01 1354.03   1 0.05681 0.77231 0.44808-0.34879-0.89218 0.53091
   9   0  -430712.66 2201.62   1 0.61457 0.19370-0.75680 0.83681 0.22258-0.51207
   9   0  -428922.74 1241.40   1 0.09585 0.71291 0.41513-0.33570-0.90469 0.61567
   9   0  -310460.08  612.73   1 0.56971 0.21815-0.76084 0.82085 0.31070-0.52782
   9   0  -3 8522.39 1551.93   1 0.14606 0.64233 0.37071-0.31114-0.91718 0.70042
   9   0  -238550.44 2468.67   1 0.51404 0.25340-0.75670 0.79671 0.40392-0.54866
   9   0  -240533.89 4159.11   1 0.20809 0.55994 0.31255-0.27284-0.92682 0.78231
   9   0  -133517.56 3226.54   1 0.44559 0.30123-0.74172 0.76170 0.50129-0.57363
   9   0  -136315.41 1397.38   1 0.28132 0.46621 0.23898-0.21910-0.92937 0.85711
   9   0  -132412.64  957.42   1 0.37336 0.37367 0.90366-0.88363 0.20972-0.28205
   9   0  -136273.93 1053.72   1 0.45655 0.29056 0.18409-0.16407 0.87043-0.94268
   9   0   023936.66 1734.83   1 0.36359 0.36359 0.14899-0.14899-0.91956 0.91956
  -9   0   021422.00 2068.71   1-0.36372-0.36372 0.71183-0.71183-0.60083 0.60083
   9   0   021519.16  493.41   1 0.36333 0.36333 0.91387-0.91387 0.18118-0.18118
   9   0   184891.49 1502.30   1 0.44981 0.25679 0.04479-0.06475-0.89199 0.96429
  -9   0  -182273.94 1460.97   1-0.26750-0.43930 0.66669-0.64673-0.69566 0.62349
   9   0   183500.50 1150.71   1 0.25633 0.44911-0.44967 0.42968 0.85561-0.78336
   9   0   233677.78 2407.90   1 0.53320 0.15307-0.06852 0.02861-0.84320 0.98780
  -9   0  -230335.19 2608.88   1-0.16076-0.52584 0.60656-0.56685-0.77861 0.63416
   9   0   232074.89 2640.67   1 0.37011 0.31581 0.90711-0.94718 0.20039-0.05572
   9   0   232633.64 3106.72   1 0.16108 0.52382-0.62371 0.58373 0.76487-0.62037
   9   0   3 4814.52  559.13   1 0.60650 0.05929-0.18359 0.12359-0.77359 0.99055
  -9   0  -3 4616.77  746.62   1-0.04820-0.61796 0.52978-0.47021-0.84676 0.63009
   9   0   3 4870.38  468.63   1 0.37859 0.28697 0.89780-0.95790 0.22497-0.00797
   9   0   410476.23  635.73   1 0.66463-0.01929-0.29184 0.21185-0.68781 0.97711
  -9   0  -4 9996.38 1065.45   1 0.06216-0.70801 0.44365-0.36422-0.89403 0.60502
   9   0   410320.91  658.36   1 0.38841 0.25678 0.88569-0.96583 0.25432 0.03501
   9   0   528891.33 1658.11   1 0.70583-0.08087-0.38822 0.28823-0.59251 0.95413
  -9   0  -528078.50 2977.27   1 0.16307-0.78855 0.35514-0.25585-0.92047 0.55920
   9   0   527480.62 1726.04   1 0.39883 0.22599 0.87106-0.97123 0.28666 0.07500
   9   0   6 3797.37  241.69   1 0.73143-0.12733-0.47014 0.35016-0.49393 0.92799
  -9   0  -6 3784.99  392.57   1 0.24990-0.85497 0.27129-0.15200-0.92948 0.49589
   9   0   6 3618.44  579.89   1 0.40933 0.19512 0.85399-0.97427 0.32115 0.11279
   9   0   7  337.57   91.12   1 0.74373-0.16001-0.53782 0.39785-0.39698 0.90338
  -9   0  -7  405.69  107.90   1 0.32067-0.90539 0.19696-0.05779-0.92648 0.42062
   9   0   7  423.66  121.51   1 0.41974 0.16434 0.83465-0.97498 0.35659 0.14967
   9   0   8 5595.03  445.03   1 0.74580-0.18245-0.59268 0.43271-0.30413 0.88287
  -9   0  -8 5302.08  577.35   1 0.37624-0.94060 0.13440 0.02465-0.91672 0.33859
   9   0   8 5216.52  638.15   1 0.42978 0.13393 0.81303-0.97340 0.39274 0.18584
   9   0   9 5693.27  768.12   1 0.74017-0.19734-0.63669 0.45676-0.21624 0.86742
  -9   0  -9 6007.07  785.03   1 0.41860-0.96255 0.08382 0.09578-0.90428 0.25360
   9   0   9 5549.04  508.05   1 0.43929 0.10405 0.78914-0.96955 0.42926 0.22164
   9   0  10 6086.06  687.98   1 0.72863-0.20619-0.67172 0.47179-0.13373 0.85725
   9   0  10 6546.62 1044.69   1 0.44815 0.07483 0.76295-0.96341 0.46589 0.25734
   9   1  -419566.74 1743.18   1 0.65836 0.15415-0.74315 0.89946 0.11946-0.40890
   9   1  -418963.04 1099.65   1 0.07039 0.74271 0.43678-0.28101-0.89680 0.60778
   9   1  -3 4182.82  418.17   1 0.62333 0.16898-0.75498 0.89131 0.20358-0.42070
   9   1  -3 3338.33  856.71   1 0.12102 0.67171 0.39316-0.25725-0.91146 0.69470
   9   1  -2  944.81  241.07   1 0.57823 0.19366-0.76066 0.87699 0.29499-0.43974
   9   1  -2  970.67  243.80   1 0.18529 0.58707 0.33436-0.21831-0.92404 0.77953
   9   1  -2  477.74  183.18   1 0.48296 0.28904 0.44269-0.32620 0.75548-0.90002
   9   1  -1 4076.19  433.28   1 0.52044 0.23104-0.75759 0.85392 0.39393-0.46630
   9   1  -1 4283.53  415.52   1 0.26321 0.48864 0.25773-0.16149-0.92967 0.85740
   9   1  -1 4769.52  234.98   1 0.45070 0.30092 0.15077-0.05435 0.87984-0.95209
   9   1   064625.59 2001.69   1 0.44692 0.28397-0.74209 0.81841 0.49955-0.49955
   9   1   063322.43 1929.52   1 0.35292 0.37859 0.16114-0.08478-0.92167 0.92167
   9   1   065045.93 1786.81   1 0.26924 0.46205 0.96153-0.88517-0.05442 0.05442
   9   1   060372.31 1664.69   1 0.38265 0.34853-0.12506 0.20147 0.91538-0.91538
   9   1   117660.46 1525.45   1 0.44848 0.26250 0.04650 0.00989-0.89258 0.96487
  -9  -1  -116365.74  622.03   1-0.35597-0.35533 0.70861-0.76506-0.60922 0.53705
   9   1   116743.05  524.62   1 0.28686 0.42406 0.95787-0.90153-0.01372 0.08603
   9   1   115221.29 1922.43   1 0.29909 0.41110-0.35479 0.41128 0.88581-0.81353
   9   1   2 9913.71  650.47   1 0.54092 0.14972-0.07982 0.11626-0.83727 0.98186
  -9  -1  -2 7611.74 1562.34   1-0.24687-0.44378 0.65564-0.69212-0.71356 0.56922
   9   1   2 9185.83 1062.14   1 0.30508 0.38547 0.95186-0.91554 0.02980 0.11481
   9   1   2 8225.33 1520.01   1 0.21659 0.47289-0.52768 0.56412 0.82135-0.67685
   9   1   320562.30 2821.03   1 0.62034 0.04989-0.20758 0.22390-0.75636 0.97333
  -9  -1  -323707.58 1513.26   1-0.12599-0.54454 0.58408-0.60086-0.80185 0.58518
   9   1   324298.46 2214.48   1 0.32323 0.34694 0.94335-0.92706 0.07486 0.14206
   9   1   325465.07 2315.63   1 0.14411 0.52482-0.65036 0.66681 0.74582-0.52906
   9   1   4  438.55   70.94   1 0.68004-0.03025-0.32505 0.32137-0.65717 0.94646
  -9  -1  -4  408.42   62.39   1-0.00048-0.64962 0.49377-0.49069-0.86958 0.58069
   9   1   4  405.03   61.81   1 0.34102 0.30864 0.93229-0.93607 0.12051 0.16882
   9   1   5 6818.51  487.12   1 0.71875-0.08934-0.42586 0.40218-0.54956 0.91118
  -9  -1  -5 7221.31  890.52   1 0.11785-0.74767 0.39596-0.37301-0.91067 0.54940
   9   1   5 6880.40 1145.88   1 0.35807 0.27122 0.91871-0.94252 0.16654 0.19512
   9   1   619405.30 1494.21   1 0.73942-0.13083-0.50786 0.46419-0.44196 0.87601
  -9  -1  -620819.37 2358.89   1 0.22076-0.83021 0.30021-0.25740-0.92797 0.49444
   9   1   619614.71 1486.49   1 0.37429 0.23463 0.90264-0.94649 0.21243 0.22157
   9   1   7 1058.13  124.21   1 0.74604-0.15782-0.57270 0.50903-0.33975 0.84615
  -9  -1  -7  947.12  162.38   1 0.30473-0.89378 0.21420-0.15139-0.92803 0.42217
   9   1   7 1074.69  132.71   1 0.38960 0.19896 0.88412-0.94800 0.25794 0.24840
   9   1   8 2837.20  361.14   1 0.74278-0.17506-0.62320 0.53956-0.24471 0.82353
  -9  -1  -8 2692.85  500.81   1 0.36983-0.93853 0.14181-0.05912-0.91820 0.34008
   9   1   8 2742.19  368.28   1 0.40392 0.16427 0.86317-0.94709 0.30294 0.27574
   9   1   9 5824.31  435.73   1 0.73250-0.18518-0.66234 0.55871-0.15724 0.80842
  -9  -1  -9 5607.40  834.28   1 0.41880-0.96712 0.08357 0.01967-0.90421 0.25353
   9   1   9 5886.46  454.71   1 0.41712 0.13068 0.83979-0.94385 0.34749 0.30342
   9   1  10 3194.59  377.11   1 0.71728-0.19034-0.69257 0.56894-0.07651 0.80004
  -9  -1 -10 3531.69  608.43   1 0.45437-0.98235 0.03896 0.08424-0.88995 0.16697
   9   1  10 3797.22  328.97   1 0.42935 0.09808 0.81403-0.93813 0.39115 0.33208
   9   2  -421852.20 3209.81   1 0.69754 0.11945-0.71654 0.94915 0.00182-0.29126
   9   2  -425439.86 1065.13   1 0.04927 0.76815 0.45429-0.22218-0.88948 0.60047
   9   2  -3  264.19   52.13   1 0.67358 0.12300-0.73501 0.94763 0.07763-0.29471
   9   2  -3    7.20   58.99   1 0.10038 0.69668 0.41122-0.19897-0.90598 0.68922
   9   2  -215143.59 1917.08   1 0.64165 0.13452-0.74982 0.94244 0.16139-0.30611
   9   2  -215124.58 1702.29   1 0.16721 0.60949 0.35130-0.15891-0.92120 0.77669
   9   2  -215410.40  511.17   1 0.47974 0.29677 0.37624-0.18336 0.79264-0.93717
   9   2  -1 2362.65  439.25   1 0.59893 0.15701-0.75913 0.93178 0.25493-0.32731
   9   2  -1 2415.44  348.30   1 0.25067 0.50551 0.27051-0.09791-0.92950 0.85724
   9   2  -1 1888.43  590.26   1 0.45077 0.30536 0.15117 0.02163 0.87974-0.95198
   9   2   0   69.90   27.05   1 0.54127 0.19424-0.75979 0.91243 0.36018-0.36018
   9   2   0  102.05   49.55   1 0.34953 0.38631 0.16497-0.01225-0.92228 0.92228
   9   2   0   97.99   24.42   1 0.39857 0.33715-0.07145 0.22426 0.91434-0.91434
   9   2   142104.52 1361.78   1 0.46368 0.25128-0.74656 0.87921 0.47711-0.40476
   9   2   142777.41 1355.43   1 0.45684 0.25852 0.03579 0.09696-0.88882 0.96112
   9   2   141618.78 1320.12   1 0.33255 0.38219-0.27157 0.40446 0.90313-0.83086
   9   2   280822.42 2226.27   1 0.56026 0.13475-0.10914 0.22179-0.82109 0.96573
   9   2   278158.57 2243.72   1 0.26295 0.43128-0.43544 0.54841 0.86095-0.71640
   9   2   3 8238.47  945.01   1 0.64517 0.02948-0.25326 0.34591-0.72083 0.93780
  -9  -2  -3 6780.50 1490.40   1-0.23588-0.43861 0.64957-0.74250-0.72277 0.50626
   9   2   3 9117.26  721.73   1 0.26619 0.40847 0.96196-0.86931-0.06132 0.27825
   9   2   3 9790.01 1075.76   1 0.19727 0.47625-0.56270 0.65557 0.80277-0.58601
   9   2   494112.29 2544.99   1 0.70300-0.04876-0.38066 0.45329-0.60073 0.89002
  -9  -2  -491725.67 2484.39   1-0.09616-0.55831 0.56390-0.63716-0.82022 0.53132
   9   2   495590.21 2688.13   1 0.29084 0.36345 0.95676-0.88413-0.00436 0.29360
   9   2   499766.70 2879.92   1 0.13987 0.51310-0.65684 0.72971 0.74094-0.45193
   9   2   510375.57 1136.13   1 0.73447-0.10101-0.48311 0.53575-0.47659 0.83831
  -9  -2  -5 9370.06 1723.06   1 0.04508-0.67924 0.45771-0.51111-0.88795 0.52668
   9   2   511330.32 1147.26   1 0.31403 0.31989 0.94799-0.89539 0.05181 0.30974
   9   2   6 1318.84  115.46   1 0.74562-0.13254-0.56091 0.59355-0.35974 0.79380
  -9  -2  -6  882.50  188.89   1 0.17123-0.78502 0.34756-0.38110-0.92188 0.48836
   9   2   6 1270.18  106.65   1 0.33584 0.27756 0.93583-0.90331 0.10692 0.32708
   9   2   7 6240.43  541.56   1 0.74350-0.15090-0.61844 0.63110-0.25441 0.76088
  -9  -2  -7 5996.57 1207.50   1 0.27437-0.86775 0.24622-0.25976-0.92956 0.42370
   9   2   7 6776.47  560.52   1 0.35603 0.23700 0.92051-0.90802 0.16092 0.34541
   9   2   821978.77 1807.93   1 0.73304-0.16083-0.66090 0.65356-0.16075 0.73958
  -9  -2  -822523.06  910.09   1 0.35338-0.92640 0.16061-0.15428-0.92158 0.34345
   9   2   821933.91 2024.11   1 0.37473 0.19793 0.90217-0.90972 0.21368 0.36499
   9   2   9 6801.11  810.92   1 0.71739-0.16557-0.69239 0.66506-0.07702 0.72819
  -9  -2  -9 6768.22 1489.80   1 0.41180-0.96449 0.09212-0.06522-0.90660 0.25592
   9   2   9 7843.14  717.27   1 0.39195 0.16034 0.88093-0.90852 0.26517 0.38584
   9   2  1031326.84 4421.30   1 0.69840-0.16716-0.71569 0.66833-0.00122 0.72483
  -9  -2 -1038416.05 1369.11   1 0.45351-0.98587 0.04006 0.00678-0.89034 0.16736
   9   2  1036023.44 3772.42   1 0.40774 0.12419 0.85689-0.90451 0.31540 0.40795
   9   3  -366562.99 2778.92   1 0.08540 0.71600 0.42409-0.13550-0.90158 0.68481
   9   3  -1 5126.06  720.27   1 0.67276 0.08747-0.73551 0.98444 0.07999-0.15235
   9   3  -1 4774.00  813.70   1 0.24605 0.51447 0.27518-0.02623-0.92937 0.85710
   9   3  -1 3666.30 1048.66   1 0.45341 0.30723 0.16585 0.08334 0.87573-0.94797
   9   3   0  388.10   88.80   1 0.63775 0.10208-0.75109 0.98002 0.17067-0.17067
   9   3   0  199.77   52.41   1 0.35714 0.38302 0.15635 0.07271-0.92087 0.92087
   9   3   0  314.10   71.88   1 0.41225 0.32801-0.02141 0.25063 0.91081-0.91081
   9   3   1  174.51   34.74   1 0.58642 0.13313-0.76025 0.96921 0.27948-0.20710
   9   3   1   88.14   22.03   1 0.48062 0.23911 0.00460 0.20450-0.87691 0.94921
   9   3   1   67.59   46.37   1 0.35946 0.36037-0.19625 0.40551 0.91228-0.84005
   9   3   238499.46 3463.98   1 0.30126 0.39752-0.34966 0.53904 0.88711-0.74256
   9   3   450589.55 1438.79   1 0.73210-0.07378-0.47291 0.62186-0.49027 0.77964
   9   3   452522.44 1768.88   1 0.19014 0.46742-0.57519 0.72448 0.79561-0.50660
   9   3   5 1187.13  140.57   1 0.74594-0.10800-0.56881 0.69775-0.34643 0.70814
  -9  -3  -5  691.77  269.90   1-0.07550-0.56290 0.54945-0.67920-0.83210 0.47098
   9   3   5 1379.96  133.12   1 0.27011 0.36830 0.96139-0.83244-0.05244 0.41399
   9   3   5 1254.49  210.17   1 0.14360 0.49341-0.65115 0.78045 0.74523-0.38397
   9   3   6  190.69   39.75   1 0.74110-0.12361-0.63237 0.74132-0.22555 0.65966
  -9  -3  -6  124.56   41.09   1 0.08648-0.70460 0.42317-0.53304-0.90191 0.46838
   9   3   6  169.12   39.46   1 0.29638 0.32166 0.95502-0.84609 0.00881 0.42504
   9   3   6   76.36   55.05   1 0.10465 0.51181-0.70789 0.81720 0.69852-0.26501
   9   3   7  696.49  172.95   1 0.72722-0.13012-0.67477 0.76373-0.12581 0.63228
  -9  -3  -7  435.25  202.49   1 0.22022-0.81798 0.30074-0.39075-0.92793 0.42215
   9   3   7  741.72  195.26   1 0.32088 0.27678 0.94460-0.85569 0.06893 0.43724
   9   3   866243.35 1787.38   1 0.70924-0.13270-0.70371 0.77265-0.04191 0.62079
  -9  -3  -866132.34 1756.56   1 0.32147-0.89883 0.19608-0.26610-0.92639 0.34826
   9   3   863965.67 4516.93   1 0.34375 0.23338 0.93032-0.86151 0.12776 0.45091
   9   3   9126417.2 3289.51   1 0.68883-0.13270-0.72424 0.77319 0.03111 0.62013
   9   3   9132596.2 3621.32   1 0.36473 0.19203 0.91252-0.86374 0.18511 0.46590
   9   3  1030658.58 1159.67   1 0.66689-0.13116-0.73887 0.76782 0.09651 0.62709
  -9  -3 -1029897.15 1122.61   1 0.44528-0.98201 0.05056-0.08006-0.89395 0.17097
   9   3  1027220.95 2625.81   1 0.38398 0.15241 0.89133-0.86259 0.24097 0.48238
   9   4  -3   83.65   51.51   1 0.74103 0.06447-0.63269 0.99788-0.22485 0.00779
   9   4  -3   94.23   55.47   1 0.07774 0.72799 0.43059-0.06566-0.89918 0.68242
   9   4  -3  261.14   59.99   1 0.48350 0.32241 0.49684-0.13115 0.72066-0.93746
   9   4  -2 8486.98 1641.09   1 0.73576 0.04935-0.65297 0.99817-0.17963 0.03493
   9   4  -2 9272.71  934.95   1 0.15246 0.63290 0.36488-0.01981-0.91848 0.77397
   9   4  -2 9866.16 1594.58   1 0.47756 0.30795 0.34770-0.00205 0.80686-0.95139
   9   4  -110583.63 1972.51   1 0.72835 0.03637-0.67234 0.99754-0.13212 0.05977
   9   4  -113476.05  518.85   1 0.25324 0.51160 0.26791 0.05739-0.92956 0.85729
   9   4  -115218.71  579.77   1 0.45724 0.30791 0.18821 0.13738 0.86919-0.94144
   9   4   0 1523.70  493.17   1 0.71816 0.02617-0.69119 0.99640-0.08053 0.08053
   9   4   0 2190.98  333.67   1 0.42427 0.32053 0.02641 0.27922 0.90514-0.90514
   9   4   1 3680.71 1240.85   1 0.70365 0.02024-0.71024 0.99549-0.02030 0.09266
   9   4   1 5718.71  588.80   1 0.38155 0.34282-0.12861 0.41427 0.91535-0.84311
   9   4   242849.35  999.82   1 0.68018 0.02330-0.73072 0.99597 0.05816 0.08655
   9   4   249490.73 4511.44   1 0.33313 0.37021-0.27004 0.53582 0.90338-0.75883
   9   4   3  138.91   44.94   1 0.63157 0.05150-0.75291 0.99815 0.18504 0.03203
   9   4   3  125.80   41.88   1 0.74145-0.05826-0.52036 0.76560-0.42363 0.64066
   9   4   3  265.78   41.35   1 0.28309 0.39975-0.39157 0.63743 0.87551-0.65869
   9   4   456137.38 1971.80   1 0.23489 0.42725-0.49280 0.71850 0.83783-0.54882
   9   4   527476.36  729.20   1 0.71436-0.07198-0.69686 0.90211-0.06368 0.42544
  -9  -4  -528419.28  702.65   1-0.30094-0.34125 0.68362-0.88944-0.66490 0.30404
  -9  -4  -615013.04  411.91   1-0.07403-0.54830 0.54841-0.73464-0.83292 0.39958
   9   4   618520.43 1953.67   1 0.15269 0.46835-0.63703 0.82275 0.75555-0.32204
  -9  -4  -7  676.88  466.27   1 0.12019-0.72228 0.39389-0.56025-0.91126 0.40548
   9   4   7 1835.30  451.41   1 0.28627 0.31589 0.95802-0.79275-0.01512 0.52129
   9   4   7 1871.08  500.10   1 0.12053 0.47996-0.68547 0.85121 0.71804-0.21228
  -9  -4  -819833.61  849.20   1 0.26235-0.84403 0.25862-0.40499-0.92966 0.35154
   9   4   820951.91 2007.22   1 0.31236 0.26943 0.94876-0.80351 0.04766 0.53081
  -9  -4  -9  126.55   37.53   1 0.36011-0.92144 0.15296-0.27946-0.92028 0.26988
   9   4   9  205.21  113.90   1 0.33677 0.22447 0.93521-0.81007 0.10935 0.54165
  -9  -4 -1035742.42 1019.18   1 0.42613-0.96724 0.07455-0.18041-0.90158 0.17860
   9   4  1034992.34 3376.09   1 0.35918 0.18169 0.91772-0.81262 0.16960 0.55374
   9   5  -212432.53 1704.51   1 0.47817 0.31184 0.35516 0.06687 0.80324-0.94777
   9   5  -1 3618.06  425.50   1 0.46155 0.30811 0.21525 0.18673 0.86059-0.93284
   9   5   0 1501.61  189.04   1 0.43494 0.31430 0.07266 0.30930 0.89751-0.89751
   9   5   115619.75 2689.37   1 0.40013 0.32878-0.06594 0.42802 0.91408-0.84184
   9   5   2 1272.03  327.52   1 0.35980 0.34868-0.19525 0.53735 0.91236-0.76789
   9   5   325785.42 3101.55   1 0.31693 0.37045-0.31155 0.63382 0.89581-0.67899
   9   5   425251.78 3378.39   1 0.27422 0.39266-0.41121 0.71355 0.86931-0.58021
   9   5   5 4741.92  582.42   1 0.23383 0.41234-0.49487 0.77699 0.83690-0.47564
   9   5   6 1529.75  411.64   1 0.19734 0.42829-0.56258 0.82472 0.80283-0.36932
   9   5   7 1938.10  300.42   1 0.16559 0.43949-0.61641 0.85856 0.76981-0.26404
   9   5   8 1843.07  237.20   1 0.28220 0.30408 0.95903-0.73743-0.02461 0.60310
   9   5   8 1621.43  260.17   1 0.13890 0.44563-0.65831 0.88047 0.73981-0.16179
   9   5   923224.44 1937.50   1 0.30907 0.25683 0.95021-0.74862 0.03957 0.61121
   9   5   924478.33 3288.79   1 0.11723 0.44675-0.69020 0.89238 0.71404-0.06377
   9   6  -1 5967.80  783.59   1 0.46594 0.30823 0.24541 0.23297 0.85009-0.92234
   9   6   014108.15 1708.60   1 0.44444 0.30931 0.11807 0.34029 0.88799-0.88799
   9   6   114070.81 1540.14   1 0.41598 0.31747-0.00700 0.44548 0.90934-0.83710
   9   6   226731.37 3803.40   1 0.38239 0.33063-0.12589 0.54441 0.91538-0.77090
   9   6   344256.32 4643.76   1 0.34591 0.34602-0.23554 0.63422 0.90821-0.69139
   9   6   4  566.12   98.47   1 0.30849 0.36294-0.33233 0.71108 0.89128-0.60218
   9   6   5 8923.28  990.70   1 0.27212 0.37881-0.41579 0.77462 0.86779-0.50641
   9   6   6 1045.07  116.76   1 0.23816 0.39205-0.48639 0.82494 0.84065-0.40713
   9   6   723295.52 3593.79   1 0.20770 0.40196-0.54402 0.86258 0.81295-0.30718
   9   6   8   87.87   91.75   1 0.18129 0.40783-0.59036 0.88893 0.78651-0.20849
   9   6   9 4842.70  486.83   1 0.28298 0.28742 0.95885-0.68091-0.02281 0.67360
   9   6   9 5094.28  638.98   1 0.15915 0.40942-0.62680 0.90538 0.76275-0.11248
   9   7   121836.08 2702.81   1 0.42960 0.30825 0.04890 0.46583 0.90169-0.82944
   9   7   242287.24 1943.02   1 0.40169 0.31587-0.06040 0.55532 0.91378-0.76930
   9   7   3 8579.60  974.58   1 0.37067 0.32646-0.16274 0.63769 0.91439-0.69767
   9   7   424629.33 2529.02   1 0.33832 0.33766-0.25621 0.71137 0.90547-0.61637
   9   7   5 1990.51  293.96   1 0.30597 0.34951-0.33841 0.77365 0.88986-0.52849
   9   7   6 8409.51 1068.38   1 0.27505 0.35992-0.40939 0.82469 0.86990-0.43626
   9   7   7  174.17   71.23   1 0.24648 0.36777-0.46981 0.86478 0.84765-0.34188
   9   7   817922.28 2682.31   1 0.22103 0.37267-0.51938 0.89436 0.82546-0.24744
   9   8   336194.67 5007.42   1 0.39207 0.30961-0.09389 0.64525 0.91513-0.69841
   9   8   418431.15 2348.31   1 0.36413 0.31712-0.18248 0.71388 0.91329-0.62434
   9   8   516277.51 2194.70   1 0.33583 0.32420-0.26289 0.77453 0.90449-0.54312
   9   8   626157.24 4050.34   1 0.30802 0.33150-0.33345 0.82517 0.89102-0.45738
  10  -6  -142103.58 5405.27   1 0.46073 0.34109 0.03076-0.46894-0.88700 0.81470
  10  -6   2  941.52  184.69   1 0.59498 0.14536-0.16428-0.33368-0.78676 0.93141
  10  -6   3  125.88   70.60   1 0.63407 0.08591-0.23238-0.28558-0.73752 0.95449
  10  -5  -221822.59 2658.76   1 0.38736 0.43968 0.12138-0.46340-0.91390 0.76936
 -10   5   220483.18 1900.96   1-0.32233-0.50478 0.69377-0.35164-0.64403 0.78837
  10  -5  -1 9422.91  951.02   1 0.43532 0.37087 0.06312-0.42494-0.89805 0.82575
 -10   5   1 8622.38  743.85   1-0.25472-0.55175 0.65990-0.29781-0.70685 0.77902
  10  -5   039155.08 4263.55   1 0.48503 0.30082-0.00129-0.38048-0.87449 0.87449
 -10   5   036448.30 4103.10   1-0.18455-0.60127 0.61959-0.23753-0.76291 0.76291
  10  -5   1  857.19  142.82   1 0.53432 0.23120-0.07015-0.33157-0.84236 0.91465
 -10   5  -1  878.84  129.72   1-0.11351-0.65250 0.57574-0.17420-0.80971 0.73748
  10  -5   2  450.66   92.71   1 0.58114 0.16363-0.14179-0.27984-0.80135 0.94599
 -10   5  -2  365.40   84.77   1-0.04378-0.70179 0.52653-0.10514-0.84902 0.70458
  10  -5   2  261.96   55.79   1 0.46182 0.28223 0.21703-0.63904 0.86000-0.71551
  10  -5   317381.01 2666.82   1 0.62395 0.10046-0.21401-0.22762-0.75158 0.96855
 -10   5  -315922.26 2199.66   1 0.02288-0.74802 0.47541-0.03417-0.87946 0.66279
  10  -5   320159.32  964.77   1 0.47433 0.24938 0.31337-0.75545 0.82267-0.60587
  10  -5   420212.96 2214.14   1 0.66117 0.04288-0.28490-0.17673-0.69403 0.98332
 -10   5  -419708.20 2303.04   1 0.08474-0.78973 0.42465 0.03647-0.90137 0.61236
  10  -5   422404.77  831.63   1 0.47934 0.22397 0.37048-0.83262 0.79559-0.50652
  10  -5   5 1417.86  221.19   1 0.69190-0.00846-0.35265-0.12890-0.62999 0.99162
 -10   5  -5 1047.66  166.32   1 0.14067-0.82530 0.37560 0.10538-0.91604 0.55477
  10  -5   5 1562.19  239.78   1 0.48144 0.20146 0.40446-0.88665 0.77757-0.41624
  10  -4  -3  791.24  126.61   1 0.41491 0.43556-0.73225 0.48692 0.54005-0.75709
  10  -4  -3  921.69  137.41   1 0.31232 0.53940 0.20603-0.45181-0.92736 0.71056
  10  -4  -2 2158.35  333.34   1 0.35971 0.47165 0.15342-0.41908-0.92036 0.77582
 -10   4   2 2281.12  253.84   1-0.35153-0.48007 0.70673-0.44102-0.61396 0.75830
  10  -4  -141365.05 4370.45   1 0.41076 0.39979 0.09338-0.37884-0.90694 0.83464
 -10   4   137748.49 4591.38   1-0.28220-0.52875 0.67429-0.38860-0.68241 0.75458
  10  -4   0  265.57   80.59   1 0.46425 0.32597 0.02617-0.33160-0.88531 0.88531
 -10   4   0  309.56   58.56   1-0.20899-0.58132 0.63420-0.32855-0.74438 0.74438
  10  -4   134037.92 3155.40   1 0.51773 0.25216-0.04634-0.27903-0.85428 0.92658
 -10   4  -130665.19 3639.85   1-0.13379-0.63659 0.58922-0.26402-0.79681 0.72459
  10  -4   211038.19  996.44   1 0.56879 0.18041-0.12230-0.22300-0.81333 0.95797
 -10   4  -210419.10 1192.66   1-0.05891-0.69103 0.53757-0.19252-0.84115 0.69670
  10  -4   211022.31  410.47   1 0.47837 0.27025 0.35769-0.70334 0.80200-0.65746
  10  -4   3   -0.16  131.53   1 0.61549 0.11335-0.19907-0.16623-0.76258 0.97954
 -10   4  -3   42.89   59.40   1 0.01340-0.74292 0.48291-0.11801-0.87556 0.65889
  10  -4   3   30.94   38.24   1 0.48284 0.24537 0.43865-0.80435 0.75791-0.54111
  10  -4   411197.19 1043.48   1 0.65596 0.05251-0.27438-0.11092-0.70314 0.99243
 -10   4  -410271.10 1395.91   1 0.08098-0.79030 0.42785-0.04306-0.90021 0.61119
  10  -4   4 9955.57 1677.21   1 0.48355 0.22425 0.48349-0.86924 0.72965-0.44059
  10  -4   531864.94 5079.97   1 0.68916-0.00126-0.34607-0.05916-0.63662 0.99824
 -10   4  -530141.25 4423.16   1 0.14225-0.83121 0.37417 0.03047-0.91638 0.55511
  10  -4   535498.59 1604.67   1 0.48336 0.20404 0.50778-0.91357 0.71310-0.35177
  10  -4   6 2303.61  235.91   1 0.71449-0.04697-0.41280-0.01243-0.56487 0.99881
 -10   4  -6 2302.90  231.82   1 0.19619-0.86479 0.32400 0.10050-0.92548 0.49196
  10  -4   6 2402.05  276.44   1 0.48338 0.18391 0.51917-0.94484 0.70483-0.27098
  10  -3  -3  161.60   91.52   1 0.45046 0.40447-0.74308 0.57407 0.49488-0.71192
  10  -3  -3  187.80   70.49   1 0.28370 0.57234 0.23649-0.40592-0.92929 0.71249
  10  -3  -2  250.85   68.95   1 0.33331 0.50239 0.18308-0.37238-0.92487 0.78033
 -10   3   2  251.83   51.92   1-0.38772-0.44837 0.72127-0.53196-0.57396 0.71830
  10  -3  -1 3886.69  411.18   1 0.38774 0.42760 0.12093-0.33012-0.91379 0.84153
 -10   3   1 3522.11  429.12   1-0.31769-0.49776 0.69161-0.48234-0.64864 0.72081
  10  -3   059775.35 2352.98   1 0.44500 0.34960 0.05092-0.27999-0.89407 0.89407
 -10   3   058730.31 2322.78   1-0.24211-0.55269 0.65303-0.42379-0.71758 0.71758
  10  -3   1 4020.22  494.96   1 0.50296 0.27131-0.02570-0.22332-0.86392 0.93622
 -10   3  -1 4366.27  383.45   1-0.16299-0.61176 0.60796-0.35910-0.77705 0.70482
  10  -3   224885.94 2522.37   1 0.55855 0.19508-0.10653-0.16245-0.82259 0.96723
 -10   3  -226209.63 2766.66   1-0.08274-0.67158 0.55456-0.28584-0.82801 0.68357
  10  -3   225563.74  764.44   1 0.48336 0.26976 0.50799-0.77725 0.71295-0.56842
  10  -3   3 3142.84  523.16   1 0.60932 0.12395-0.18841-0.10057-0.77020 0.98717
 -10   3  -3 3563.86  529.28   1-0.00413-0.72974 0.49660-0.20803-0.86796 0.65129
  10  -3   3 2762.09  644.16   1 0.48129 0.25159 0.56672-0.85591 0.66871-0.45178
  10  -3   4  520.31   68.17   1 0.65304 0.05987-0.26857-0.04041-0.70809 0.99738
 -10   3  -4  384.66   86.95   1 0.07004-0.78370 0.43708-0.12863-0.89669 0.60767
  10  -3   4  437.78   96.16   1 0.47907 0.23344 0.59591-0.90514 0.64449-0.35526
  10  -3   5 3275.86  603.36   1 0.68847 0.00388-0.34444 0.01551-0.63825 0.99987
 -10   3  -5 3983.91  600.84   1 0.13764-0.83094 0.37833-0.05002-0.91537 0.55410
  10  -3   5 3862.34  492.06   1 0.47782 0.21431 0.60897-0.93825 0.63311-0.27157
  10  -3   646138.32 3692.70   1 0.71504-0.04306-0.41444 0.06551-0.56297 0.99692
 -10   3  -647599.29 6062.17   1 0.19724-0.87017 0.32299 0.02516-0.92561 0.49209
  10  -3   647169.32 5043.20   1 0.47754 0.19422 0.61168-0.96099 0.63070-0.19686
  10  -3   740090.85 4813.59   1 0.73317-0.08221-0.47741 0.10850-0.48428 0.99069
 -10   3  -745318.32 1644.39   1 0.24829-0.90082 0.27291 0.09531-0.92944 0.42358
  10  -3   747272.89 1508.24   1 0.47801 0.17337 0.60705-0.97641 0.63481-0.12865
  10  -2  -3 2166.75  171.23   1 0.49149 0.36790-0.75280 0.66011 0.43785-0.65489
  10  -2  -3 1811.91  312.28   1 0.25687 0.60350 0.26421-0.35728-0.92962 0.71282
  10  -2  -2  272.79   63.78   1 0.43037 0.40863-0.73721 0.62454 0.52085-0.66555
  10  -2  -2  235.91   65.74   1 0.30866 0.53136 0.20998-0.32293-0.92770 0.78317
  10  -2  -113944.48 1229.92   1 0.36639 0.45328 0.14578-0.27861-0.91896 0.84670
 -10   2   113642.00  951.80   1-0.36177-0.45817 0.71102-0.57817-0.60295 0.67512
  10  -2   0 4525.64  362.93   1 0.42791 0.37106 0.07235-0.22506-0.90091 0.90091
 -10   2   0 4146.33  563.75   1-0.28506-0.51424 0.67573-0.52291-0.67979 0.67979
  10  -2   1 2230.75  386.64   1 0.49073 0.28791-0.00897-0.16368-0.87126 0.94356
 -10   2  -1 2532.85  244.25   1-0.20250-0.57615 0.63037-0.45758-0.74941 0.67723
  10  -2   235817.11 4095.54   1 0.55122 0.20685-0.09542-0.09722-0.82888 0.97352
 -10   2  -234018.47 2879.46   1-0.11715-0.64154 0.57818-0.38580-0.80744 0.66300
  10  -2   234982.02  741.11   1 0.47185 0.28587 0.65638-0.84918 0.58865-0.44403
  10  -2   3 1874.06  485.30   1 0.60623 0.13147-0.18313-0.02952-0.77391 0.99087
 -10   2  -3 2052.36  303.64   1-0.03169-0.70656 0.51755-0.30531-0.85506 0.63839
  10  -2   3 1960.31  472.75   1 0.46642 0.27092 0.68814-0.90098 0.55578-0.33886
  10  -2   4 5921.50  565.89   1 0.65310 0.06424-0.26869 0.03603-0.70799 0.99728
 -10   2  -4 5728.45  514.65   1 0.05012-0.76811 0.45359-0.22148-0.88979 0.60077
  10  -2   4 5931.40  510.20   1 0.46385 0.25312 0.70104-0.93392 0.54163-0.25240
  10  -2   510150.14 1426.67   1 0.69038 0.00642-0.34898 0.09636-0.63370 0.99532
 -10   2  -512426.28 1149.07   1 0.12532-0.82294 0.38935-0.13738-0.91252 0.55125
  10  -2   511638.59  733.73   1 0.46342 0.23318 0.70312-0.95604 0.53931-0.17777
  10  -2   6 5276.16  357.48   1 0.71757-0.04113-0.42216 0.14954-0.55395 0.98789
 -10   2  -6 5545.95  525.02   1 0.19183-0.86910 0.32816-0.05633-0.92493 0.49141
  10  -2   6 5091.46  356.95   1 0.46448 0.21175 0.69801-0.97098 0.54500-0.11116
  10  -2   728983.40 2388.61   1 0.73533-0.07988-0.48703 0.19443-0.47125 0.97765
 -10   2  -730233.01 3458.98   1 0.24878-0.90564 0.27242 0.01945-0.92945 0.42359
  10  -2   729334.32 2359.31   1 0.46652 0.18932 0.68761-0.98062 0.55635-0.05020
  10  -2   854613.69 6587.69   1 0.74432-0.10925-0.54348 0.23089-0.38808 0.96682
 -10   2  -861104.56 1704.66   1 0.29588-0.93239 0.22365 0.08811-0.92867 0.35054
  10  -2   860286.39 6328.47   1 0.46917 0.16631 0.67299-0.98605 0.57180 0.00665
  10  -1  -3 7598.82  693.37   1 0.53731 0.32682-0.75946 0.74314 0.36675-0.58387
  10  -1  -3 7837.40 1050.28   1 0.23242 0.63228 0.28880-0.30552-0.92874 0.71194
  10  -1  -239928.96 3062.88   1 0.48043 0.36304-0.75050 0.71415 0.45379-0.59849
  10  -1  -242341.50 4370.76   1 0.28641 0.55794 0.23364-0.27024-0.92917 0.78464
  10  -1  -137035.01 2442.95   1 0.41410 0.40897-0.73197 0.67564 0.54103-0.61338
  10  -1  -137314.70 3378.88   1 0.34764 0.47636 0.16709-0.22356-0.92261 0.85035
  10  -1   011261.11  834.19   1 0.41382 0.38952 0.08966-0.16602-0.90592 0.90592
 -10   1   010401.37  835.65   1-0.33886-0.46492 0.70124-0.62483-0.62723 0.62723
  10  -1   155014.73 1343.96   1 0.48200 0.30101 0.00275-0.09907-0.87616 0.94846
 -10   1  -154770.54 1350.17   1-0.25447-0.52867 0.65977-0.56339-0.70706 0.63489
  10  -1   150681.03  789.74   1 0.45000 0.33257 0.75688-0.85328 0.47394-0.40162
  10  -1   151761.04  855.60   1 0.26785 0.51392-0.42500 0.32866 0.86465-0.79237
  10  -1   214909.28 1423.16   1 0.54785 0.21482-0.09009-0.02616-0.83170 0.97630
 -10   1  -214456.83 1237.60   1-0.16453-0.59853 0.60893-0.49288-0.77596 0.63152
  10  -1   212904.73 1073.86   1 0.44091 0.32129 0.78467-0.90112 0.43574-0.29109
  10  -1   214871.83  541.92   1 0.16253 0.59845-0.62137 0.50498 0.76646-0.62196
  10  -1   3 1133.32  304.06   1 0.60725 0.13488-0.18486 0.04853-0.77270 0.98967
 -10   1  -3 1249.43  350.54   1-0.07191-0.67071 0.54691-0.41101-0.83409 0.61742
  10  -1   3 1443.08  346.35   1 0.43762 0.30422 0.79363-0.93013 0.42264-0.20567
  10  -1   420493.91 1367.47   1 0.65701 0.06476-0.27647 0.12014-0.70135 0.99064
 -10   1  -419608.74 1741.00   1 0.01870-0.74088 0.47873-0.32298-0.87775 0.58886
  10  -1   418862.81 1418.96   1 0.43788 0.28359 0.79293-0.94948 0.42367-0.13438
  10  -1   516285.76 2345.33   1 0.69546 0.00580-0.36135 0.18505-0.62108 0.98271
 -10   1  -520705.00 1770.25   1 0.10304-0.80501 0.40891-0.23329-0.90673 0.54546
  10  -1   518676.77 1223.90   1 0.44039 0.26071 0.78613-0.96272 0.43364-0.07202
  10  -1   6 5332.45  406.36   1 0.72231-0.04142-0.43740 0.24109-0.53567 0.96961
 -10   1  -6 5186.15  414.69   1 0.17818-0.85978 0.34107-0.14558-0.92299 0.48947
  10  -1   6 5304.18  345.02   1 0.44430 0.23643 0.77488-0.97152 0.44960-0.01566
  10  -1   739038.26 4048.19   1 0.73863-0.07869-0.50349 0.28720-0.44822 0.95462
 -10   1  -742596.97 4320.20   1 0.24255-0.90374 0.27869-0.06317-0.92924 0.42338
  10  -1   740200.48 2486.97   1 0.44904 0.21132 0.76005-0.97673 0.46975 0.03650
  10  -1   8 9738.05  960.18   1 0.74556-0.10600-0.55986 0.32357-0.36149 0.94024
 -10   1  -810452.24 1258.03   1 0.29563-0.93646 0.22391 0.01149-0.92868 0.35056
  10  -1   8 9953.22  847.83   1 0.45421 0.18578 0.74211-0.97884 0.49289 0.08569
  10   0  -3 2730.60  277.16   1 0.58606 0.28253-0.76027 0.82028 0.28017-0.49729
  10   0  -3 2844.48  317.42   1 0.21125 0.65795 0.30948-0.24991-0.92713 0.71037
  10   0  -217485.41 1642.53   1 0.53612 0.31205-0.75935 0.79935 0.36871-0.51346
  10   0  -218480.48 1660.21   1 0.26738 0.58130 0.25345-0.21368-0.92965 0.78512
  10   0  -1 8324.98  909.61   1 0.47554 0.35199-0.74940 0.76939 0.46069-0.53304
  10   0  -1 8989.84  650.51   1 0.33244 0.49589 0.18404-0.16416-0.92499 0.85272
  10   0   093694.00 2421.45   1 0.40386 0.40386 0.10172-0.10172-0.90914 0.90914
  10   0   158882.37 1335.07   1 0.47811 0.30928 0.00795-0.02790-0.87826 0.95056
 -10   0  -156788.52 1310.24   1-0.32064-0.46699 0.69299-0.67302-0.64571 0.57354
  10   0   156183.79  932.62   1 0.39437 0.39266 0.87755-0.89759 0.27267-0.20034
  10   0   2 1263.88  159.22   1 0.54982 0.21710-0.09333 0.05333-0.83004 0.97469
 -10   0  -2 1086.72  144.07   1-0.22719-0.53980 0.64468-0.60475-0.72990 0.58556
  10   0   2 1022.85  118.96   1 0.39321 0.37346 0.87919-0.91926 0.26906-0.12439
  10   0   2  815.51  225.67   1 0.21500 0.55056-0.53063 0.49066 0.81987-0.67536
  10   0   3  227.28   46.43   1 0.61373 0.13283-0.19601 0.13601-0.76479 0.98176
 -10   0  -3  314.39   68.51   1-0.12847-0.61852 0.58572-0.52616-0.80026 0.58359
  10   0   3  320.15   59.31   1 0.39642 0.34988 0.87462-0.93473 0.27905-0.06204
  10   0   3  293.31   50.98   1 0.13835 0.60667-0.65915 0.59919 0.73916-0.52241
  10   0   4 7946.71  520.70   1 0.66582 0.06026-0.29432 0.21432-0.68560 0.97490
 -10   0  -4 7738.77  794.24   1-0.02809-0.69846 0.51485-0.43544-0.85681 0.56792
  10   0   4 7978.20  605.37   1 0.40216 0.32377 0.86596-0.94610 0.29727-0.00793
  10   0   5 5318.52  403.09   1 0.70422 0.00149-0.38390 0.28390-0.59722 0.95885
 -10   0  -5 5542.77  573.95   1 0.06744-0.77373 0.43925-0.33997-0.89582 0.53455
  10   0   5 5366.75  876.85   1 0.40931 0.29624 0.85402-0.95425 0.32110 0.04051
  10   0   658022.66 5884.74   1 0.72936-0.04455-0.46197 0.34199-0.50458 0.93864
 -10   0  -663009.67 1854.32   1 0.15353-0.83946 0.36391-0.24477-0.91869 0.48516
  10   0   663998.36 4553.68   1 0.41734 0.26785 0.83936-0.95964 0.34826 0.08568
  10   0   7 1942.56  179.94   1 0.74256-0.07813-0.52818 0.38820-0.41185 0.91825
 -10   0  -7 2126.57  299.91   1 0.22754-0.89306 0.29363-0.15446-0.92843 0.42257
  10   0   7 2948.38  343.54   1 0.42573 0.23909 0.82215-0.96247 0.37790 0.12835
  10   0   8 6937.94  680.33   1 0.74607-0.10202-0.58305 0.42307-0.32158 0.90033
 -10   0  -8 5881.70 1707.60   1 0.28841-0.93357 0.23154-0.07249-0.92908 0.35095
  10   0   8 7444.58  589.43   1 0.43416 0.21029 0.80249-0.96286 0.40926 0.16932
  10   0   9 1536.91  230.90   1 0.74197-0.11844-0.62789 0.44796-0.23499 0.88617
 -10   0  -9 1694.62  215.48   1 0.33692-0.96174 0.17906-0.00013-0.92434 0.27395
  10   0   9 1505.79  191.12   1 0.44240 0.18168 0.78044-0.96086 0.44179 0.20912
  10   1  -3 5392.31  451.33   1 0.63532 0.23749-0.75183 0.88814 0.17636-0.39344
  10   1  -3 5054.04  721.89   1 0.19391 0.67963 0.32618-0.19027-0.92520 0.70844
  10   1  -230532.70 3645.08   1 0.59483 0.25780-0.75957 0.87589 0.26310-0.40784
  10   1  -226190.36 3000.84   1 0.25259 0.60041 0.26856-0.15244-0.92955 0.78501
  10   1  -185811.61 3030.04   1 0.54375 0.28846-0.75997 0.85630 0.35603-0.42841
  10   1  -189480.48 1689.56   1 0.32204 0.51062 0.19547-0.09923-0.92632 0.85405
  10   1   0 7767.91 1241.20   1 0.47995 0.33165-0.75039 0.82671 0.45447-0.45447
  10   1   0 8496.29  940.49   1 0.39959 0.41250 0.10684-0.03048-0.91044 0.91044
  10   1   0 8706.38  353.85   1 0.32079 0.49126 0.94465-0.86829 0.06871-0.06871
  10   1   0 9166.94  361.39   1 0.41175 0.40017-0.02332 0.09973 0.91099-0.91099
  10   1   151198.08 1167.41   1 0.48095 0.31081 0.00416 0.05223-0.87673 0.94903
  10   1   236342.72 2913.77   1 0.55929 0.21206-0.10766 0.14398-0.82194 0.96659
 -10  -1  -236768.35  968.00   1-0.30983-0.46164 0.68790-0.72438-0.65634 0.51200
  10   1   234682.67 3129.66   1 0.33587 0.43527 0.93580-0.89951 0.10702 0.03764
  10   1   238436.67  925.53   1 0.25946 0.51069-0.44316 0.47960 0.85806-0.71356
  10   1   312529.44 1555.54   1 0.62754 0.12345-0.22045 0.23678-0.74671 0.96368
 -10  -1  -310819.59 2009.76   1-0.20522-0.54561 0.63198-0.64850-0.74731 0.53079
  10   1   312884.55 1616.98   1 0.34722 0.40355 0.92771-0.91145 0.13703 0.07997
  10   1   313999.98  608.64   1 0.18920 0.56040-0.57682 0.59327 0.79465-0.57789
  10   1   4 5073.45  515.06   1 0.68064 0.04989-0.32640 0.32272-0.65587 0.94517
 -10  -1  -4 3812.67 1089.70   1-0.09595-0.63497 0.56376-0.56068-0.82034 0.53144
  10   1   4 5668.98  444.13   1 0.35960 0.37080 0.91733-0.92111 0.17079 0.11854
  10   1   4 5583.86  616.33   1 0.12961 0.59944-0.67222 0.66868 0.72891-0.43990
  10   1   560839.37 1271.16   1 0.71688-0.00671-0.42004 0.39636-0.55644 0.91807
 -10  -1  -558592.82 1257.29   1 0.01316-0.72366 0.48310-0.46017-0.87546 0.51434
  10   1   560961.52 3453.80   1 0.37242 0.33761 0.90467-0.92848 0.20701 0.15466
  10   1   6 4258.16  474.42   1 0.73771-0.04841-0.49862 0.45495-0.45513 0.88919
 -10  -1  -6 4464.61  672.34   1 0.11343-0.80369 0.39985-0.35704-0.90953 0.47600
  10   1   6 5324.69  918.66   1 0.38527 0.30439 0.88972-0.93357 0.24484 0.18917
  10   1   722935.96 2327.25   1 0.74571-0.07679-0.56269 0.49902-0.35677 0.86317
 -10  -1  -722762.17 3418.70   1 0.20024-0.87014 0.32012-0.25746-0.92597 0.42019
  10   1   724038.95 1413.73   1 0.39789 0.27141 0.87247-0.93635 0.28368 0.22266
  10   1   820352.54 2239.25   1 0.74411-0.09569-0.61382 0.53018-0.26363 0.84246
 -10  -1  -823073.30 1218.30   1 0.27183-0.92133 0.24885-0.16616-0.92961 0.35148
  10   1   822378.59 1901.15   1 0.40998 0.23893 0.85286-0.93687 0.32331 0.25527
  10   1   9 2828.31  347.64   1 0.73535-0.10733-0.65424 0.55061-0.17665 0.82783
 -10  -1  -9 2747.13  511.53   1 0.32841-0.95755 0.18848-0.08590-0.92553 0.27514
  10   1   9 2952.18  305.35   1 0.42157 0.20697 0.83096-0.93502 0.36300 0.28790
  10   2  -2 4872.88  824.17   1 0.65261 0.20426-0.74568 0.93830 0.13430-0.27902
  10   2  -2 4654.32  803.16   1 0.24343 0.61391 0.27781-0.08534-0.92927 0.78474
  10   2  -1   34.10   41.80   1 0.61467 0.22200-0.75678 0.92942 0.22237-0.29474
  10   2  -1   83.70   53.85   1 0.31822 0.51876 0.19962-0.02703-0.92675 0.85449
  10   2   015402.49  653.82   1 0.56468 0.25158-0.76084 0.91348 0.31977-0.31977
  10   2   012864.78 2362.90   1 0.40338 0.41308 0.10229 0.05041-0.90929 0.90929
  10   2   015838.01  703.39   1 0.42049 0.39597 0.01091 0.14190 0.90723-0.90723
  10   2   114933.99  612.79   1 0.49915 0.29653-0.75424 0.88690 0.42656-0.35422
  10   2   115170.09  638.92   1 0.49352 0.30261-0.01276 0.14552-0.86963 0.94193
  10   2   2  611.09  210.11   1 0.41497 0.36031-0.73227 0.84494 0.53997-0.39527
  10   2   2  626.99  167.27   1 0.57948 0.19630-0.13914 0.25179-0.80301 0.94766
  10   2   2  576.13  171.85   1 0.27696 0.49883 0.96017-0.84750-0.03674 0.18136
  10   2   2  399.99  138.45   1 0.29674 0.47818-0.36031 0.47328 0.88437-0.73982
  10   2   313568.51 2016.64   1 0.65128 0.10414-0.26510 0.35775-0.71102 0.92798
 -10  -2  -316047.22  577.94   1-0.31145-0.44388 0.68867-0.78160-0.65477 0.43825
  10   2   318430.39 1639.01   1 0.29547 0.45995 0.95532-0.86268 0.00664 0.21028
  10   2   316990.26 2184.39   1 0.23419 0.52000-0.49418 0.58704 0.83721-0.62046
  10   2   4 3278.42  538.07   1 0.70251 0.03249-0.37935 0.45198-0.60213 0.89143
 -10  -2  -4 2695.72  781.23   1-0.19209-0.54259 0.62416-0.69712-0.75730 0.46861
  10   2   4 4143.92  277.83   1 0.31400 0.42105 0.94801-0.87538 0.05173 0.23751
  10   2   4 4121.38  484.41   1 0.17805 0.55559-0.59583 0.66870 0.78312-0.49411
  10   2   5  860.88  246.55   1 0.73259-0.01842-0.47493 0.52756-0.48759 0.84931
 -10  -2  -5  562.76  254.06   1-0.06927-0.64559 0.54502-0.59843-0.83555 0.47443
  10   2   5 1045.86  262.84   1 0.33228 0.38223 0.93810-0.88555 0.09768 0.26398
  10   2   5 1118.09  300.01   1 0.13019 0.58290-0.67136 0.72425 0.72959-0.36833
  10   2   613074.51 2068.50   1 0.74495-0.05116-0.55066 0.58330-0.37658 0.81064
 -10  -2  -616541.22  698.97   1 0.05002-0.74462 0.45367-0.48721-0.88976 0.45623
  10   2   616908.73 1203.24   1 0.34993 0.34421 0.92559-0.89307 0.14430 0.28970
  10   2   710461.22 1298.44   1 0.74470-0.07139-0.60862 0.62127-0.27386 0.78033
 -10  -2  -7 9846.21 1598.85   1 0.15506-0.82930 0.36251-0.37618-0.91898 0.41320
  10   2   712414.90  898.41   1 0.36683 0.30694 0.91046-0.89797 0.19103 0.31530
  10   2   822411.49 2959.12   1 0.73591-0.08299-0.65252 0.64518-0.18067 0.75950
 -10  -2  -826587.40 1300.51   1 0.24180-0.89562 0.27945-0.27311-0.92921 0.35108
  10   2   825622.68 2501.86   1 0.38286 0.27054 0.89271-0.90026 0.23762 0.34105
  10   2   932067.23 2553.83   1 0.72149-0.08897-0.68569 0.65836-0.09624 0.74742
 -10  -2  -934948.61 1092.04   1 0.30985-0.94332 0.20870-0.18248-0.92759 0.27720
  10   2   932884.51 2406.67   1 0.39795 0.23508 0.87238-0.89996 0.28387 0.36714
  10   3   0  196.83   42.20   1 0.65049 0.17004-0.74655 0.97548 0.13966-0.13966
  10   3   0  190.37   49.93   1 0.41919 0.40165 0.08311 0.14595-0.90408 0.90408
  10   3   0  234.56   46.43   1 0.42925 0.39172 0.04737 0.18180 0.90194-0.90194
  10   3   130975.88 1244.63   1 0.38175 0.41882-0.12798 0.33723 0.91536-0.84312
  10   3   231320.00 1074.54   1 0.32794 0.45153-0.28360 0.47297 0.90112-0.75657
  10   3   3  290.12   87.54   1 0.45578 0.30357-0.74451 0.91352 0.48779-0.27075
  10   3   3  527.86   96.77   1 0.27340 0.48556-0.41300 0.58245 0.86872-0.65189
 -10  -3  -427111.08  813.92   1-0.33675-0.40242 0.70030-0.84968-0.62941 0.34072
  10   3   429078.65 1961.77   1 0.26907 0.47047 0.96155-0.81257-0.05480 0.34404
  10   3   428697.71 1136.13   1 0.22196 0.51626-0.51763 0.66691 0.82631-0.53730
 -10  -3  -5   21.40   28.47   1-0.19505-0.52347 0.62594-0.75535-0.75508 0.39422
  10   3   5  105.75   68.15   1 0.29169 0.42748 0.95650-0.82754-0.00234 0.36389
  10   3   5  -15.52   68.72   1 0.17614 0.54153-0.59902 0.72832 0.78111-0.41985
 -10  -3  -6  778.88  445.69   1-0.05247-0.64631 0.53290-0.64279-0.84454 0.41120
  10   3   6 1957.39  129.04   1 0.31346 0.38533 0.94826-0.83932 0.05039 0.38346
 -10  -3  -713299.21  534.62   1 0.08020-0.75877 0.42851-0.51853-0.89996 0.39418
  10   3   713875.30 1119.74   1 0.33433 0.34391 0.93680-0.84796 0.10300 0.40333
 -10  -3  -863185.37 2572.21   1 0.19030-0.84851 0.32961-0.39977-0.92473 0.34670
  10   3   860641.39 6040.29   1 0.35397 0.30390 0.92226-0.85345 0.15529 0.42338
 -10  -3  -911305.82  573.59   1 0.27618-0.91398 0.24434-0.29448-0.92952 0.27913
  10   3   911604.07  802.53   1 0.37242 0.26509 0.90468-0.85590 0.20700 0.44401
  10   4  -1  950.92  195.55   1 0.46617 0.37973 0.24702 0.07857 0.84950-0.92175
  10   4   0  983.13  194.44   1 0.43769 0.38778 0.08537 0.22020 0.89505-0.89505
  10   4   127907.64 1028.52   1 0.39912 0.40599-0.06953 0.35520 0.91425-0.84202
  10   4   2  167.47   35.62   1 0.35432 0.42970-0.21195 0.47774 0.91078-0.76623
  10   4   354603.35 2094.98   1 0.30722 0.45629-0.33539 0.58124 0.89057-0.67375
  10   4   415527.33  747.34   1 0.26119 0.48183-0.43918 0.66510 0.85959-0.57049
  10   4   5  215.46   47.52   1 0.21842 0.50384-0.52428 0.72999 0.82305-0.46179
  10   4   6 7884.15  524.95   1 0.27807 0.42522 0.95995-0.77465-0.03420 0.46806
  10   4   730756.52 2453.51   1 0.30194 0.38097 0.95306-0.78779 0.02219 0.48397
  10   4   8 1465.53  194.24   1 0.32463 0.33791 0.94258-0.79733 0.07841 0.50006
  10   4   985608.67 7106.05   1 0.34617 0.29580 0.92851-0.80337 0.13421 0.51680
  10   5   021443.70 2458.29   1 0.44567 0.38431 0.12431 0.25765 0.88651-0.88651
  10   5   1 4527.27  537.50   1 0.41414 0.39551-0.01415 0.37623 0.91010-0.83786
  10   5   249180.25 2148.61   1 0.37679 0.41243-0.14376 0.48587 0.91507-0.77059
  10   5   322550.84 2682.31   1 0.33645 0.43162-0.26123 0.58349 0.90474-0.68791
  10   5   4 5203.57 1436.26   1 0.29573 0.45183-0.36266 0.66500 0.88374-0.59465
  10   5   5  209.61   49.89   1 0.25674 0.47010-0.44883 0.73095 0.85593-0.49467
  10   5   616741.39 2497.10   1 0.22099 0.48530-0.51945 0.78158 0.82542-0.39191
  10   5   7 2741.05  288.39   1 0.27129 0.41612 0.96120-0.71958-0.04974 0.55591
  10   5   7 2890.29  396.60   1 0.18943 0.49632-0.57643 0.81857 0.79488-0.28912
  10   5   819083.06 2754.37   1 0.29633 0.37070 0.95504-0.73343 0.00870 0.56977
  10   5   819429.31 3150.94   1 0.16245 0.50274-0.62149 0.84365 0.76638-0.18836
  10   6   262755.25 1467.79   1 0.39610 0.39766-0.08008 0.49859 0.91470-0.77023
  10   6   3 9381.35 1168.13   1 0.36169 0.41164-0.18969 0.58823 0.91279-0.69608
  10   6   4  144.04   52.16   1 0.32611 0.42600-0.28830 0.66705 0.90029-0.61119
  10   6   5  173.98   85.71   1 0.29110 0.44051-0.37338 0.73220 0.88081-0.51944
  10   6   6  218.04   69.95   1 0.25807 0.45281-0.44607 0.78462 0.85698-0.42346
  10   6   727261.91 4329.53   1 0.22805 0.46228-0.50605 0.82461 0.83180-0.32603
  11  -4   0 8027.75 1559.76   1 0.48745 0.38355-0.00455-0.30086-0.87313 0.87313
  11  -4   1 1796.09  247.04   1 0.53498 0.31568-0.07111-0.25426-0.84186 0.91416
  11  -4   2 5041.60  840.56   1 0.58057 0.24940-0.14087-0.20443-0.80192 0.94657
 -11   4  -2 5362.70  724.24   1-0.11879-0.71198 0.57929-0.23423-0.80641 0.66197
  11  -4   3  340.27   75.09   1 0.62265 0.18695-0.21169-0.15361-0.75331 0.97028
 -11   4  -3  414.74   94.75   1-0.05082-0.75951 0.53169-0.16678-0.84540 0.62873
  11  -3  -1 3469.25  415.24   1 0.42111 0.47459 0.08074-0.28985-0.90340 0.83110
  11  -3   0 2054.67  407.44   1 0.47189 0.40348 0.01617-0.24524-0.88150 0.88150
 -11   3   0 2238.41  273.65   1-0.29024-0.58539 0.67833-0.44910-0.67499 0.67499
  11  -3   1 8403.91 1251.84   1 0.52306 0.33198-0.05391-0.19510-0.85058 0.92288
 -11   3  -1 9942.86 1011.09   1-0.21823-0.63676 0.63956-0.39036-0.73711 0.66493
  11  -3   2  119.68   83.25   1 0.57231 0.26209-0.12780-0.14118-0.81001 0.95465
 -11   3  -2  247.65   76.50   1-0.14485-0.69030 0.59641-0.32769-0.78949 0.64505
  11  -3   3 2289.84  444.71   1 0.61769 0.19634-0.20292-0.08605-0.75978 0.97675
 -11   3  -3 2530.46  342.44   1-0.07175-0.74296 0.54679-0.25822-0.83418 0.61751
  11  -3   3 1668.17  282.20   1 0.48315 0.33031 0.51796-0.80727 0.70588-0.48908
  11  -3   4  110.96   38.70   1 0.65730 0.13638-0.27705-0.03192-0.70085 0.99014
 -11   3  -4   67.89   64.97   1-0.00140-0.79287 0.49449-0.18607-0.86918 0.58028
  11  -3   4   28.31   27.18   1 0.48173 0.31151 0.55937-0.86860 0.67455-0.38532
  11  -3   5 7826.55 1427.58   1 0.68995 0.08315-0.34796 0.01903-0.63473 0.99635
 -11   3  -5 9605.21 1152.21   1 0.06406-0.83816 0.44207-0.11377-0.89468 0.53341
  11  -3   5 7991.57 1509.87   1 0.48038 0.29249 0.57987-0.90914 0.65800-0.29646
  11  -2  -114454.02 1789.84   1 0.40460 0.49548 0.10083-0.23358-0.90891 0.83661
 -11   2   113043.85 1299.14   1-0.40075-0.50001 0.72606-0.59320-0.55877 0.63094
  11  -2   0  382.04   62.14   1 0.45888 0.42086 0.03315-0.18586-0.88787 0.88787
 -11   2   0  435.09   88.85   1-0.33209-0.54803 0.69822-0.54540-0.63418 0.63418
  11  -2   112183.22 1579.44   1 0.51394 0.34547-0.04099-0.13167-0.85684 0.92914
 -11   2  -110048.22 1945.57   1-0.25800-0.60148 0.66166-0.48887-0.70401 0.63183
  11  -2   2 3711.62  462.94   1 0.56706 0.27177-0.11961-0.07304-0.81494 0.95958
 -11   2  -2 3583.98  454.72   1-0.18039-0.65845 0.61705-0.42429-0.76596 0.62162
  11  -2   3 2311.13  497.31   1 0.61580 0.20267-0.19961-0.01304-0.76219 0.97916
 -11   2  -3 2803.79  330.62   1-0.10248-0.71660 0.56825-0.35601-0.81644 0.59977
  11  -2   3 1704.13  578.95   1 0.47366 0.34443 0.64385-0.85669 0.60090-0.38398
  11  -2   414943.88 1563.68   1 0.65791 0.14019-0.27829 0.04564-0.69978 0.98907
 -11   2  -414467.61 1450.02   1-0.02584-0.77280 0.51316-0.28107-0.85790 0.56900
  11  -2   414228.98 1089.66   1 0.47023 0.32748 0.66666-0.89954 0.57830-0.28907
  11  -2   5  637.16   93.33   1 0.69205 0.08551-0.35300 0.10038-0.62964 0.99126
 -11   2  -5  645.12   87.95   1 0.04630-0.82474 0.45672-0.20475-0.88840 0.52713
  11  -2   5  541.00   95.15   1 0.46877 0.30857 0.67528-0.92820 0.56942-0.20788
  11  -2   611842.31 1290.87   1 0.71755 0.03963-0.42210 0.14948-0.55402 0.98796
 -11   2  -613173.78 1338.06   1 0.11201-0.87009 0.40109-0.12927-0.90916 0.47563
  11  -2   612766.15  960.29   1 0.46883 0.28813 0.67492-0.94788 0.56979-0.13595
  11  -1  -1 6286.96  648.69   1 0.44991 0.45388-0.74293 0.68659 0.49561-0.56795
  11  -1  -1 6432.68  872.90   1 0.39142 0.51338 0.11659-0.17306-0.91279 0.84052
  11  -1   015901.48 1923.75   1 0.44928 0.43483 0.04547-0.12183-0.89222 0.89222
 -11   1   012702.27 1432.56   1-0.38344-0.50117 0.71964-0.64323-0.57885 0.57885
  11  -1   1 5552.02  611.10   1 0.50856 0.35522-0.03348-0.06283-0.86036 0.93266
 -11   1  -1 4330.03 1025.48   1-0.30878-0.55519 0.68740-0.59102-0.65736 0.58519
  11  -1   210019.16  978.29   1 0.56581 0.27745-0.11767 0.00134-0.81609 0.96073
  11  -1   314687.48 2611.81   1 0.61791 0.20498-0.20331 0.06698-0.75950 0.97646
  11  -1   316073.88 1627.34   1 0.45067 0.37191 0.75464-0.89114 0.47687-0.25990
  11  -1   318550.30  787.90   1 0.14552 0.67558-0.64820 0.51183 0.74743-0.53067
  11  -1   411517.32 1259.44   1 0.66224 0.14015-0.28691 0.13060-0.69218 0.98147
 -11   1  -4 9300.65 2079.41   1-0.06185-0.74116 0.53970-0.38395-0.83957 0.55068
  11  -1   411807.01  962.87   1 0.44855 0.35366 0.76167-0.91821 0.46759-0.17830
  11  -1   5 6415.34 1241.26   1 0.69718 0.08483-0.36567 0.18936-0.61661 0.97823
 -11   1  -5 8026.49  834.33   1 0.01814-0.80072 0.47917-0.30357-0.87752 0.51641
  11  -1   5 8006.72  549.47   1 0.44900 0.33284 0.76019-0.93678 0.46957-0.10795
  11  -1   631575.39 3535.82   1 0.72228 0.03936-0.43731 0.24100-0.53577 0.96972
 -11   1  -636592.70 3183.22   1 0.09158-0.85399 0.41881-0.22333-0.90344 0.46991
  11  -1   633181.10 2049.02   1 0.45117 0.31030 0.75292-0.94956 0.47910-0.04516
  11  -1   710781.54 1486.38   1 0.73809 0.00254-0.50061 0.28432-0.45232 0.95872
  11   0  -152955.44 4738.18   1 0.50702 0.40147-0.75562 0.77562 0.41468-0.48705
  11   0  -156250.32 1476.68   1 0.38211 0.52702 0.12755-0.10767-0.91527 0.84300
  11   0   031582.73 4540.34   1 0.44393 0.44393-0.74124 0.74124 0.50345-0.50345
  11   0   032856.87 4444.22   1 0.44424 0.44424 0.05188-0.05188-0.89439 0.89439
  11   0   1    3.89   59.89   1 0.50823 0.35993-0.03300 0.01305-0.86058 0.93288
 -11   0  -1   90.62   56.30   1-0.37183-0.49663 0.71510-0.69514-0.59191 0.51973
  11   0   2 6170.69  687.21   1 0.56988 0.27780-0.12400 0.08400-0.81231 0.95695
 -11   0  -2 4209.03 1259.10   1-0.29027-0.55754 0.67835-0.63842-0.67495 0.53061
  11   0   2 4547.50  775.53   1 0.41729 0.43011 0.83946-0.87955 0.34808-0.20344
  11   0   2 4305.94 1118.09   1 0.26885 0.57765-0.42286 0.38301 0.86538-0.72084
 -11   0  -316749.13 2770.90   1-0.20225-0.62492 0.63022-0.57033-0.74960 0.53308
  11   0   317320.73 1681.71   1 0.41562 0.41141 0.84264-0.90278 0.34234-0.12537
  11   0   321617.99  877.20   1 0.19251 0.63317-0.57107 0.51111 0.79800-0.58124
 -11   0  -442049.37 1477.81   1-0.11282-0.69456 0.57527-0.49586-0.81013 0.52124
  11   0   438492.65 3807.67   1 0.41750 0.38916 0.83905-0.91924 0.34881-0.05951
  11   0   5105271.2 1902.03   1 0.70582 0.08065-0.38820 0.28820-0.59254 0.95416
 -11   0  -5102581.0 1869.60   1-0.02395-0.76300 0.51173-0.41246-0.85881 0.49769
  11   0   595947.24 6558.66   1 0.42160 0.36470 0.83089-0.93112 0.36313-0.00151
  11   0   611213.73 1524.09   1 0.72926 0.03624-0.46158 0.34160-0.50508 0.93914
 -11   0  -611139.51 1790.36   1 0.05904-0.82578 0.44624-0.32710-0.89296 0.45943
  11   0   612723.82  977.96   1 0.42708 0.33884 0.81917-0.93945 0.38281 0.05112
  11   0   7 7862.59 1922.07   1 0.74215 0.00298-0.52515 0.38518-0.41643 0.92283
 -11   0  -710017.01 1690.63   1 0.13331-0.87970 0.38221-0.24321-0.91440 0.40862
  11   0   710293.34 1125.98   1 0.43338 0.31218 0.80442-0.94474 0.40629 0.09997
  11   1  -1   85.14   40.35   1 0.56938 0.34357-0.76084 0.85717 0.31130-0.38367
  11   1  -1   74.98   33.30   1 0.37826 0.53520 0.13204-0.03581-0.91623 0.84396
  11   1   013516.14 2855.82   1 0.51424 0.37829-0.75673 0.83305 0.40361-0.40361
  11   1   014686.30 2673.52   1 0.44538 0.44748 0.05044 0.02591-0.89391 0.89391
  11   1   111756.49 2495.90   1 0.44734 0.42459-0.74221 0.79855 0.49900-0.42665
  11   1   113424.69 2078.36   1 0.51476 0.35777-0.04215 0.09855-0.85629 0.92859
  11   1   211861.50 1558.49   1 0.58118 0.27094-0.14184 0.17817-0.80131 0.94596
 -11  -1  -2 9179.57 2247.12   1-0.36893-0.48338 0.71394-0.75042-0.59512 0.45077
  11   1   210698.88 1579.76   1 0.36748 0.48440 0.90980-0.87351 0.19288-0.04821
  11   1   321952.73 3404.45   1 0.63943 0.19233-0.24235 0.25867-0.72965 0.94662
 -11  -1  -326503.09 1023.80   1-0.27915-0.55251 0.67273-0.68925-0.68519 0.46868
  11   1   326964.59  983.51   1 0.37248 0.45904 0.90461-0.88836 0.20717 0.00983
  11   1   326807.02 1020.27   1 0.23468 0.59559-0.49322 0.50967 0.83764-0.62089
  11   1   415869.53 2296.72   1 0.68563 0.12566-0.33780 0.33412-0.64481 0.93411
 -11  -1  -418002.62  806.52   1-0.18205-0.62897 0.61807-0.61462-0.76474 0.47606
  11   1   416891.19 2531.91   1 0.37982 0.43133 0.89637-0.90014 0.22859 0.06075
  11   1   417781.99 2689.88   1 0.17533 0.63439-0.60038 0.59684 0.78025-0.49124
  11   1   5 1504.24  282.35   1 0.71813 0.07280-0.42389 0.40021-0.55190 0.91352
 -11  -1  -5 1054.31  445.55   1-0.08500-0.70631 0.55615-0.53322-0.82672 0.46560
  11   1   5 1972.98  231.22   1 0.38857 0.40220 0.88547-0.90929 0.25482 0.10685
  11   1   636279.15 1675.72   1 0.73755 0.03244-0.49781 0.45414-0.45627 0.89033
 -11  -1  -633503.69 1572.14   1 0.00987-0.78075 0.48569-0.44291-0.87407 0.44073
  11   1   633749.30 2705.68   1 0.39812 0.37229 0.87213-0.91597 0.28440 0.14960
  11   1   729450.92 4501.70   1 0.74555 0.00407-0.55958 0.49591-0.36195 0.86835
 -11  -1  -735440.24 1085.51   1 0.09581-0.84652 0.41517-0.35251-0.90468 0.39890
  11   1   734369.61 2284.44   1 0.40803 0.34201 0.85640-0.92028 0.31635 0.18999
  11   2   1  212.14   63.89   1 0.53570 0.34087-0.75931 0.89195 0.36940-0.29702
  11   2   1  229.75   41.26   1 0.53103 0.34587-0.06537 0.19813-0.84482 0.91712
  11   2   1  193.73   51.69   1 0.30501 0.57192 0.95188-0.81919 0.02964 0.04266
  11   2   2 3914.73 1074.10   1 0.31434 0.54221 0.94785-0.83518 0.05258 0.09203
 -11  -2  -3   70.42   23.64   1-0.38031-0.45584 0.71844-0.81137-0.58241 0.36589
  11   2   3   53.08   30.42   1 0.32585 0.51033 0.94189-0.84925 0.08152 0.13540
  11   2   3  -64.47   71.24   1 0.27196 0.56314-0.41613 0.50917 0.86767-0.65085
 -11  -2  -4  257.54  137.90   1-0.28009-0.53542 0.67321-0.74617-0.68434 0.39565
  11   2   4  454.62   83.73   1 0.33868 0.47694 0.93392-0.86133 0.11435 0.17498
  11   2   4  378.89  107.02   1 0.21714 0.59716-0.52666 0.59954 0.82186-0.53286
 -11  -2  -519663.64 1240.87   1-0.17109-0.62378 0.61130-0.66430-0.77268 0.41181
  11   2   521213.14 1918.72   1 0.35217 0.44308 0.92377-0.87122 0.15037 0.21129
 -11  -2  -611412.36  545.03   1-0.06436-0.71089 0.54150-0.57505-0.83822 0.40488
  11   2   612820.79 1201.66   1 0.36590 0.40898 0.91138-0.87886 0.18840 0.24560
 -11  -2  -716118.75  672.72   1 0.03742-0.79247 0.46394-0.47762-0.88507 0.37929
  11   2   716521.05 1376.36   1 0.37955 0.37496 0.89668-0.88420 0.22780 0.27854
  11   3   1 3127.02 1368.67   1 0.40507 0.47624-0.04820 0.25746 0.91301-0.84077
  11   3   2  735.66  160.24   1 0.26349 0.59756 0.96230-0.77327-0.06741 0.21203
  11   3   2  775.05  165.13   1 0.35573 0.50443-0.20792 0.39730 0.91116-0.76661
  11   3   3 6363.19  912.91   1 0.28006 0.56062 0.95952-0.79052-0.02960 0.24653
  11   3   3 7144.18  872.52   1 0.30441 0.53524-0.34215 0.51160 0.88896-0.67214
  11   3   4 2741.56  290.40   1 0.29735 0.52295 0.95470-0.80572 0.01114 0.27809
  11   3   4 3068.28  382.78   1 0.25496 0.56393-0.45251 0.60180 0.85453-0.56552
  11   3   5 2400.80  232.01   1 0.31490 0.48502 0.94758-0.81862 0.05397 0.30757
  11   3   5 2511.09  436.60   1 0.20997 0.58837-0.53989 0.66919 0.81512-0.45385
  11   3   6 2849.48  294.04   1 0.33244 0.44691 0.93800-0.82912 0.09811 0.33589
  11   3   711485.58  953.07   1 0.34957 0.40941 0.92587-0.83702 0.14335 0.36299
  11   4   3 4240.10  591.18   1 0.33272 0.51148-0.27111 0.51696 0.90321-0.68638
  11   4   411680.54 1327.26   1 0.28880 0.53489-0.37864 0.60457 0.87932-0.59023
  11   4   5 2663.85  264.86   1 0.27905 0.52537 0.95974-0.75442-0.03192 0.39347
  11   4   5 2834.47  422.08   1 0.24732 0.55560-0.46811 0.67382 0.84834-0.48708
  11   4   6 1122.00  150.95   1 0.29949 0.48455 0.95395-0.76866 0.01629 0.41756
;
_shelx_hkl_checksum              59263
#END Tags that were not found in dictionaries
loop_
_space_group_symop_operation_xyz
'x, y, z'
'-x, -y, -z'
loop_
_atom_site_label
_atom_site_type_symbol
_atom_site_fract_x
_atom_site_fract_y
_atom_site_fract_z
_atom_site_U_iso_or_equiv
_atom_site_adp_type
_atom_site_occupancy
_atom_site_site_symmetry_order
_atom_site_calc_flag
_atom_site_refinement_flags_posn
_atom_site_refinement_flags_adp
C1 C 0.49820(18) 0.26928(17) -0.06855(18) 0.0193(3) Uani 1 1 d . .
C2 C 0.42316(18) 0.32996(17) 0.19863(17) 0.0187(3) Uani 1 1 d . .
C3 C 0.42751(18) 0.06592(17) 0.19631(18) 0.0195(3) Uani 1 1 d . .
C4 C 0.67254(19) 0.28211(17) 0.38122(17) 0.0199(3) Uani 1 1 d . .
C5 C 0.68767(18) 0.01734(17) 0.37962(17) 0.0187(3) Uani 1 1 d . .
C6 C 0.94851(19) 0.18982(16) 0.23544(17) 0.0186(3) Uani 1 1 d . .
C7 C 0.89367(17) 0.40587(15) -0.09353(16) 0.0156(3) Uani 1 1 d . .
H7A H 0.8967 0.5041 -0.1587 0.019 Uiso 1 1 calc R U
H7B H 0.9903 0.3960 -0.0644 0.019 Uiso 1 1 calc R U
C8 C 0.89739(17) 0.14569(15) -0.09372(16) 0.0152(3) Uani 1 1 d . .
H8A H 0.9946 0.1391 -0.0656 0.018 Uiso 1 1 calc R U
H8B H 0.9013 0.0823 -0.1588 0.018 Uiso 1 1 calc R U
C9 C 0.88797(17) 0.29969(15) -0.18143(15) 0.0139(3) Uani 1 1 d . .
H9 H 0.7877 0.3065 -0.2059 0.017 Uiso 1 1 calc R U
C10 C 1.01426(18) 0.34214(16) -0.32759(16) 0.0168(3) Uani 1 1 d . .
H10 H 1.0006 0.4444 -0.3772 0.020 Uiso 1 1 calc R U
C11 C 1.17495(18) 0.33628(18) -0.30792(18) 0.0217(3) Uani 1 1 d . .
H11A H 1.1938 0.2370 -0.2614 0.033 Uiso 1 1 calc R U
H11B H 1.1859 0.3979 -0.2460 0.033 Uiso 1 1 calc R U
H11C H 1.2485 0.3701 -0.4037 0.033 Uiso 1 1 calc R U
C12 C 0.9957(2) 0.25241(19) -0.42976(17) 0.0237(3) Uani 1 1 d . .
H12A H 1.0692 0.2890 -0.5251 0.036 Uiso 1 1 calc R U
H12B H 0.8923 0.2590 -0.4423 0.036 Uiso 1 1 calc R U
H12C H 1.0135 0.1517 -0.3873 0.036 Uiso 1 1 calc R U
O1 O 0.46348(14) 0.29745(15) -0.17513(14) 0.0286(3) Uani 1 1 d . .
O2 O 0.34332(14) 0.39620(13) 0.26215(14) 0.0265(3) Uani 1 1 d . .
O3 O 0.34919(15) -0.03438(13) 0.25901(14) 0.0285(3) Uani 1 1 d . .
O4 O 0.62141(16) 0.33949(14) 0.46744(14) 0.0308(3) Uani 1 1 d . .
O5 O 0.64779(15) -0.08893(13) 0.46666(13) 0.0280(3) Uani 1 1 d . .
O6 O 1.07661(14) 0.19178(14) 0.22239(15) 0.0297(3) Uani 1 1 d . .
S1 S 0.74374(4) 0.07470(4) 0.07196(4) 0.01342(8) Uani 1 1 d . .
S2 S 0.73853(4) 0.39029(4) 0.07105(4) 0.01384(8) Uani 1 1 d . .
Fe1 Fe 0.55222(2) 0.22350(2) 0.10274(2) 0.01333(6) Uani 1 1 d . .
Fe2 Fe 0.74905(2) 0.18655(2) 0.24476(2) 0.01340(7) Uani 1 1 d . .
loop_
_atom_site_aniso_label
_atom_site_aniso_U_11
_atom_site_aniso_U_22
_atom_site_aniso_U_33
_atom_site_aniso_U_23
_atom_site_aniso_U_13
_atom_site_aniso_U_12
C1 0.0151(7) 0.0193(7) 0.0242(8) -0.0075(6) -0.0046(6) 0.0014(6)
C2 0.0142(7) 0.0189(7) 0.0214(7) -0.0021(6) -0.0053(6) -0.0024(6)
C3 0.0153(7) 0.0234(8) 0.0217(7) -0.0095(6) -0.0048(6) 0.0032(6)
C4 0.0194(8) 0.0207(7) 0.0185(7) -0.0028(6) -0.0056(6) -0.0015(6)
C5 0.0169(7) 0.0231(8) 0.0168(7) -0.0082(6) -0.0030(6) 0.0052(6)
C6 0.0209(8) 0.0189(7) 0.0178(7) -0.0068(6) -0.0061(6) 0.0011(6)
C7 0.0147(7) 0.0137(6) 0.0167(7) -0.0040(5) -0.0013(6) -0.0013(5)
C8 0.0138(7) 0.0148(6) 0.0147(7) -0.0040(5) 0.0000(5) 0.0023(5)
C9 0.0124(7) 0.0151(7) 0.0135(7) -0.0032(5) -0.0029(5) 0.0003(5)
C10 0.0179(7) 0.0169(7) 0.0133(7) -0.0026(5) -0.0014(6) -0.0004(6)
C11 0.0165(8) 0.0265(8) 0.0221(8) -0.0097(6) -0.0014(6) -0.0038(6)
C12 0.0234(8) 0.0331(9) 0.0156(7) -0.0090(6) -0.0041(6) -0.0020(7)
O1 0.0270(7) 0.0383(7) 0.0255(6) -0.0090(5) -0.0153(5) 0.0051(6)
O2 0.0218(6) 0.0267(6) 0.0297(6) -0.0109(5) -0.0012(5) 0.0065(5)
O3 0.0245(6) 0.0232(6) 0.0339(7) -0.0053(5) -0.0029(5) -0.0074(5)
O4 0.0399(8) 0.0300(6) 0.0235(6) -0.0145(5) -0.0027(6) 0.0031(6)
O5 0.0329(7) 0.0205(6) 0.0214(6) 0.0002(5) 0.0025(5) 0.0034(5)
O6 0.0182(6) 0.0349(7) 0.0409(8) -0.0157(6) -0.0110(5) 0.0026(5)
S1 0.01390(17) 0.01180(16) 0.01405(17) -0.00338(12) -0.00285(13) 0.00021(13)
S2 0.01358(17) 0.01251(16) 0.01556(17) -0.00483(13) -0.00301(13) 0.00048(13)
Fe1 0.01086(11) 0.01420(11) 0.01520(11) -0.00432(8) -0.00353(8) 0.00041(8)
Fe2 0.01334(12) 0.01483(11) 0.01227(11) -0.00393(8) -0.00351(8) 0.00062(8)
loop_
_atom_type_symbol
_atom_type_description
_atom_type_scat_dispersion_real
_atom_type_scat_dispersion_imag
_atom_type_scat_source
C C 0.0033 0.0016 'International Tables Vol C Tables 4.2.6.8 and 6.1.1.4'
H H 0.0000 0.0000 'International Tables Vol C Tables 4.2.6.8 and 6.1.1.4'
O O 0.0106 0.0060 'International Tables Vol C Tables 4.2.6.8 and 6.1.1.4'
S S 0.1246 0.1234 'International Tables Vol C Tables 4.2.6.8 and 6.1.1.4'
Fe Fe 0.3463 0.8444 'International Tables Vol C Tables 4.2.6.8 and 6.1.1.4'
loop_
_geom_angle_atom_site_label_1
_geom_angle_atom_site_label_2
_geom_angle_atom_site_label_3
_geom_angle
O1 C1 Fe1 179.53(16)
O2 C2 Fe1 178.22(15)
O3 C3 Fe1 178.27(15)
O4 C4 Fe2 178.20(16)
O5 C5 Fe2 178.99(15)
O6 C6 Fe2 176.57(15)
C9 C7 S2 117.10(11)
C9 C7 H7A 108.0
S2 C7 H7A 108.0
C9 C7 H7B 108.0
S2 C7 H7B 108.0
H7A C7 H7B 107.3
C9 C8 S1 116.87(10)
C9 C8 H8A 108.1
S1 C8 H8A 108.1
C9 C8 H8B 108.1
S1 C8 H8B 108.1
H8A C8 H8B 107.3
C7 C9 C8 111.69(12)
C7 C9 C10 109.98(12)
C8 C9 C10 112.12(12)
C7 C9 H9 107.6
C8 C9 H9 107.6
C10 C9 H9 107.6
C11 C10 C12 110.79(13)
C11 C10 C9 113.76(13)
C12 C10 C9 111.30(13)
C11 C10 H10 106.9
C12 C10 H10 106.9
C9 C10 H10 106.9
C10 C11 H11A 109.5
C10 C11 H11B 109.5
H11A C11 H11B 109.5
C10 C11 H11C 109.5
H11A C11 H11C 109.5
H11B C11 H11C 109.5
C10 C12 H12A 109.5
C10 C12 H12B 109.5
H12A C12 H12B 109.5
C10 C12 H12C 109.5
H12A C12 H12C 109.5
H12B C12 H12C 109.5
C8 S1 Fe2 111.36(5)
C8 S1 Fe1 113.84(5)
Fe2 S1 Fe1 67.654(12)
C7 S2 Fe2 110.86(5)
C7 S2 Fe1 113.70(5)
Fe2 S2 Fe1 67.481(13)
C3 Fe1 C2 90.61(7)
C3 Fe1 C1 98.69(7)
C2 Fe1 C1 99.28(7)
C3 Fe1 S1 87.44(5)
C2 Fe1 S1 155.46(5)
C1 Fe1 S1 105.20(5)
C3 Fe1 S2 156.38(5)
C2 Fe1 S2 87.39(5)
C1 Fe1 S2 104.86(5)
S1 Fe1 S2 84.738(15)
C3 Fe1 Fe2 101.31(5)
C2 Fe1 Fe2 100.52(5)
C1 Fe1 Fe2 151.55(5)
S1 Fe1 Fe2 56.096(11)
S2 Fe1 Fe2 56.127(11)
C6 Fe2 C5 99.83(7)
C6 Fe2 C4 102.49(7)
C5 Fe2 C4 90.34(7)
C6 Fe2 S1 101.06(5)
C5 Fe2 S1 88.07(5)
C4 Fe2 S1 156.33(5)
C6 Fe2 S2 100.81(5)
C5 Fe2 S2 159.13(5)
C4 Fe2 S2 88.22(5)
S1 Fe2 S2 84.995(14)
C6 Fe2 Fe1 146.13(5)
C5 Fe2 Fe1 103.67(5)
C4 Fe2 Fe1 101.43(5)
S1 Fe2 Fe1 56.250(11)
S2 Fe2 Fe1 56.392(12)
loop_
_geom_bond_atom_site_label_1
_geom_bond_atom_site_label_2
_geom_bond_distance
C1 O1 1.135(2)
C1 Fe1 1.8154(17)
C2 O2 1.137(2)
C2 Fe1 1.7996(17)
C3 O3 1.142(2)
C3 Fe1 1.7958(17)
C4 O4 1.132(2)
C4 Fe2 1.8151(17)
C5 O5 1.141(2)
C5 Fe2 1.7986(16)
C6 O6 1.142(2)
C6 Fe2 1.7974(17)
C7 C9 1.515(2)
C7 S2 1.8276(15)
C7 H7A 0.9900
C7 H7B 0.9900
C8 C9 1.5216(19)
C8 S1 1.8293(15)
C8 H8A 0.9900
C8 H8B 0.9900
C9 C10 1.552(2)
C9 H9 1.0000
C10 C11 1.524(2)
C10 C12 1.531(2)
C10 H10 1.0000
C11 H11A 0.9800
C11 H11B 0.9800
C11 H11C 0.9800
C12 H12A 0.9800
C12 H12B 0.9800
C12 H12C 0.9800
S1 Fe2 2.2521(4)
S1 Fe1 2.2561(4)
S2 Fe2 2.2557(4)
S2 Fe1 2.2627(4)
Fe1 Fe2 2.5097(3)
loop_
_geom_torsion_atom_site_label_1
_geom_torsion_atom_site_label_2
_geom_torsion_atom_site_label_3
_geom_torsion_atom_site_label_4
_geom_torsion
S2 C7 C9 C8 -63.00(15)
S2 C7 C9 C10 171.85(10)
S1 C8 C9 C7 62.28(16)
S1 C8 C9 C10 -173.76(11)
C7 C9 C10 C11 63.29(16)
C8 C9 C10 C11 -61.61(17)
C7 C9 C10 C12 -170.70(13)
C8 C9 C10 C12 64.40(17)
C9 C8 S1 Fe2 -67.74(12)
C9 C8 S1 Fe1 6.38(13)
C9 C7 S2 Fe2 68.65(12)
C9 C7 S2 Fe1 -5.07(13)
