#------------------------------------------------------------------------------
#$Date: 2016-02-16 22:30:59 +0200 (Tue, 16 Feb 2016) $
#$Revision: 176467 $
#$URL: svn://www.crystallography.net/cod/cif/4/12/24/4122419.cif $
#------------------------------------------------------------------------------
#
# This file is available in the Crystallography Open Database (COD),
# http://www.crystallography.net/
#
# All data on this site have been placed in the public domain by the
# contributors.
#
data_4122419
loop_
_publ_author_name
'Vo, Thao T.'
'Parrish, Damon A.'
'Shreeve, Jean'ne M.'
_publ_section_title
;
 Tetranitroacetimidic Acid: A High Oxygen Oxidizer and Potential
 Replacement for Ammonium Perchlorate.
;
_journal_issue                   34
_journal_name_full               'Journal of the American Chemical Society'
_journal_page_first              11934
_journal_paper_doi               10.1021/ja5074036
_journal_volume                  136
_journal_year                    2014
_chemical_formula_moiety         'C2 H4 N5 O6, 2(C F3 O3 S), H3 O'
_chemical_formula_sum            'C3 H4 F0.5 N6 O13 S'
_chemical_formula_weight         373.68
_chemical_name_systematic
;
 ?
;
_space_group_crystal_system      triclinic
_space_group_IT_number           2
_space_group_name_Hall           '-P 1'
_space_group_name_H-M_alt        'P -1'
_symmetry_space_group_name_Hall  '-P 1'
_symmetry_space_group_name_H-M   'P -1'
_atom_sites_solution_hydrogens   difmap
_atom_sites_solution_primary     direct
_audit_creation_date             2013-12-20
_audit_creation_method
;
Olex2 1.2
(compiled 2013.12.10 svn.r2850 for OlexSys, GUI svn.r4736)
;
_cell_angle_alpha                99.062(3)
_cell_angle_beta                 90.651(3)
_cell_angle_gamma                97.731(3)
_cell_formula_units_Z            2
_cell_length_a                   5.8369(3)
_cell_length_b                   10.0255(6)
_cell_length_c                   14.6488(10)
_cell_measurement_temperature    150(2)
_cell_volume                     838.36(9)
_computing_molecular_graphics    'Olex2 (Dolomanov et al., 2009)'
_computing_publication_material  'Olex2 (Dolomanov et al., 2009)'
_computing_structure_refinement  'ShelXL-2013 (Sheldrick, 2008)'
_computing_structure_solution    'ShelXS (Sheldrick, 2008)'
_diffrn_ambient_temperature      150.02
_diffrn_measured_fraction_theta_full 0.991
_diffrn_measured_fraction_theta_max 0.986
_diffrn_radiation_type           MoK\a
_diffrn_radiation_wavelength     0.71073
_diffrn_reflns_av_R_equivalents  0.0322
_diffrn_reflns_av_unetI/netI     0.0458
_diffrn_reflns_Laue_measured_fraction_full 0.991
_diffrn_reflns_Laue_measured_fraction_max 0.986
_diffrn_reflns_limit_h_max       7
_diffrn_reflns_limit_h_min       -7
_diffrn_reflns_limit_k_max       12
_diffrn_reflns_limit_k_min       -12
_diffrn_reflns_limit_l_max       18
_diffrn_reflns_limit_l_min       -18
_diffrn_reflns_number            8126
_diffrn_reflns_point_group_measured_fraction_full 0.991
_diffrn_reflns_point_group_measured_fraction_max 0.986
_diffrn_reflns_theta_full        25.242
_diffrn_reflns_theta_max         27.139
_diffrn_reflns_theta_min         2.315
_exptl_absorpt_coefficient_mu    0.271
_exptl_crystal_density_diffrn    1.480
_exptl_crystal_F_000             377
_exptl_crystal_size_max          0.884
_exptl_crystal_size_mid          0.238
_exptl_crystal_size_min          0.192
_refine_diff_density_max         0.662
_refine_diff_density_min         -0.504
_refine_diff_density_rms         0.083
_refine_ls_extinction_method     none
_refine_ls_goodness_of_fit_ref   1.052
_refine_ls_hydrogen_treatment    constr
_refine_ls_matrix_type           full
_refine_ls_number_parameters     299
_refine_ls_number_reflns         3655
_refine_ls_number_restraints     0
_refine_ls_restrained_S_all      1.052
_refine_ls_R_factor_all          0.0683
_refine_ls_R_factor_gt           0.0488
_refine_ls_shift/su_max          0.000
_refine_ls_shift/su_mean         0.000
_refine_ls_structure_factor_coef Fsqd
_refine_ls_weighting_details
'w=1/[\s^2^(Fo^2^)+(0.0579P)^2^+0.7939P] where P=(Fo^2^+2Fc^2^)/3'
_refine_ls_weighting_scheme      calc
_refine_ls_wR_factor_gt          0.1127
_refine_ls_wR_factor_ref         0.1220
_reflns_Friedel_coverage         0.000
_reflns_number_gt                2838
_reflns_number_total             3655
_reflns_threshold_expression     'I > 2\s(I)'
_cod_data_source_file            ja5074036_si_005.cif
_cod_data_source_block           tvo1805
_cod_depositor_comments
'Adding full bibliography for 4122416--4122419.cif.'
_cod_original_formula_sum        'C3 H4 F0.50 N6 O13 S'
_cod_database_code               4122419
#BEGIN Tags that were not found in dictionaries:
_shelxl_version_number           2013-3
_shelx_space_group_comment
;
The symmetry employed for this shelxl refinement is uniquely defined
by the following loop, which should always be used as a source of
symmetry information in preference to the above space-group names.
They are only intended as comments.
;
_shelx_estimated_absorpt_t_max   0.950
_shelx_estimated_absorpt_t_min   0.796
_olex2_refinement_description
;
;
_shelx_res_file
;
TITL tvo1805_cryo_0m in P-1
CELL 0.71073 5.8369 10.0255 14.6488 99.062 90.651 97.731
ZERR 2 0.0003 0.0006 0.001 0.003 0.003 0.0029
LATT 1
 
SFAC C H N O S F
UNIT 6 8 12 26 2 1
 
L.S. 10
PLAN  9
SIZE 0.192 0.238 0.884
TEMP -123.13
BOND $H
MORE -1
fmap 2
acta
CONF
OMIT 0 0 1
OMIT 0 1 0
REM <HKL>E:/tvo1805/tvo1805.hkl</HKL>
 
WGHT    0.057900    0.793900
FVAR       0.76302
O1    4    0.349463    0.556978    0.452079    11.00000    0.03472    0.05331 =
         0.03228    0.02028   -0.00079    0.01452
O2    4    0.030249    0.615135    0.403544    11.00000    0.01837    0.03854 =
         0.03196    0.00433    0.00712    0.00525
O3    4    0.681729    0.789029    0.296223    11.00000    0.02049    0.03125 =
         0.06423    0.00198    0.01473   -0.00244
O4    4    0.474443    0.835293    0.416903    11.00000    0.03321    0.03829 =
         0.03537   -0.00767   -0.00362    0.00246
O5    4    0.037361    0.583741    0.208957    11.00000    0.01334    0.02968 =
         0.02930    0.00460   -0.00204   -0.00005
O6    4    0.172608    0.799309    0.251723    11.00000    0.02724    0.02258 =
         0.03684    0.00677    0.00122    0.01072
N1    3    0.489454    0.514683    0.170098    11.00000    0.02125    0.02575 =
         0.02946    0.00253    0.00130    0.01098
H1A   2    0.433290    0.566030    0.137408    11.00000    0.03883
H1B   2    0.563696    0.462410    0.142815    11.00000    0.04783
N2    3    0.607037    0.462396    0.307928    11.00000    0.01547    0.02485 =
         0.04004    0.00994    0.00020    0.00644
H2A   2    0.594437    0.464519    0.370180    11.00000    0.02849
H2B   2    0.679150    0.403943    0.281427    11.00000    0.05533
N3    3    0.230186    0.597520    0.396213    11.00000    0.01945    0.02919 =
         0.02574    0.00528    0.00178    0.00199
N4    3    0.521840    0.767111    0.346290    11.00000    0.01590    0.02375 =
         0.03380    0.00291   -0.00329    0.00227
N5    3    0.170030    0.678141    0.250489    11.00000    0.01123    0.02600 =
         0.02234    0.00574    0.00289    0.00597
C1    1    0.354369    0.636550    0.311251    11.00000    0.01160    0.02473 =
         0.02408    0.00606    0.00030    0.00506
C2    1    0.487078    0.528004    0.258772    11.00000    0.00894    0.01870 =
         0.03166    0.00652    0.00004    0.00087
S2    5    0.925438   -0.192201   -0.282451    11.00000    0.01490    0.02491 =
         0.02589    0.00268   -0.00050    0.00605
F4    6    0.888581   -0.019115   -0.395427    11.00000    0.13965    0.04715 =
         0.04024    0.01351    0.00003    0.04681
F5    6    1.157681   -0.143368   -0.425843    11.00000    0.08567    0.08008 =
         0.06431    0.02420    0.04922    0.02030
F6    6    0.802403   -0.230488   -0.455834    11.00000    0.09810    0.06211 =
         0.03427   -0.00923   -0.01970    0.03705
O10   4    0.683463   -0.190269   -0.262368    11.00000    0.01233    0.03925 =
         0.05092   -0.00978    0.00322    0.00143
O11   4    1.075441   -0.088225   -0.224223    11.00000    0.02148    0.03175 =
         0.04097    0.00425   -0.00666    0.00057
O12   4    0.990215   -0.327062   -0.297567    11.00000    0.03458    0.02521 =
         0.03932    0.00454   -0.00312    0.01389
C4    1    0.944728   -0.142415   -0.396377    11.00000    0.06597    0.03664 =
         0.02955    0.00569    0.00496    0.02349
S1    5    0.769896    0.244490    0.008159    11.00000    0.00975    0.01794 =
         0.02457    0.00399    0.00163    0.00187
F1    6    1.169890    0.390316   -0.004428    11.00000    0.01845    0.02332 =
         0.05831    0.01038    0.00004   -0.00509
F2    6    1.187225    0.213187    0.059467    11.00000    0.01774    0.04497 =
         0.04049    0.01518   -0.00074    0.00939
F3    6    1.130554    0.192018   -0.087488    11.00000    0.01838    0.04343 =
         0.03418   -0.00021    0.00732    0.00802
O7    4    0.747605    0.310457    0.101462    11.00000    0.01777    0.02964 =
         0.02908    0.00064    0.00154    0.00709
O8    4    0.683204    0.310811   -0.062422    11.00000    0.01572    0.02911 =
         0.03206    0.00904    0.00119    0.00531
O9    4    0.699674    0.098178   -0.005950    11.00000    0.01594    0.02116 =
         0.03513    0.00348    0.00078   -0.00123
C3    1    1.083412    0.259944   -0.007164    11.00000    0.01189    0.02297 =
         0.02714    0.00557   -0.00004    0.00160
O13   4    0.501574   -0.004847   -0.166163    11.00000    0.01602    0.02494 =
         0.03366    0.00066    0.00065   -0.00065
H13A  2    0.545237    0.024495   -0.108128    11.00000    0.06679
H13B  2    0.574407   -0.071793   -0.200641    11.00000    0.06399
H13C  2    0.362035   -0.037502   -0.174641    11.00000    0.04796
HKLF 4
 
REM  tvo1805_cryo_0m in P-1
REM R1 =  0.0488 for    2838 Fo > 4sig(Fo)  and  0.0683 for all    3655 data
REM    299 parameters refined using      0 restraints
 
END  
     
WGHT      0.0579      0.7907 

REM Highest difference peak  0.662,  deepest hole -0.504,  1-sigma level  0.083
Q1    1   0.9400 -0.1697 -0.3386  11.00000  0.05    0.66
Q2    1   0.7681  0.2419 -0.0609  11.00000  0.05    0.53
Q3    1   0.7305  0.2607  0.0660  11.00000  0.05    0.42
Q4    1   0.6679  0.1618 -0.0240  11.00000  0.05    0.40
Q5    1   0.9546 -0.1922 -0.4572  11.00000  0.05    0.39
Q6    1   1.0071 -0.2589 -0.2595  11.00000  0.05    0.39
Q7    1   0.6923  0.1376  0.0416  11.00000  0.05    0.37
Q8    1   1.0506 -0.0797 -0.1769  11.00000  0.05    0.37
Q9    1   0.9927 -0.1099 -0.2431  11.00000  0.05    0.33

REM The information below was added by Olex2.
REM
REM R1 = 0.0488 for 2838 Fo > 4sig(Fo) and 0.0683 for all 8129 data
REM n/a parameters refined using n/a restraints
REM Highest difference peak 0.66, deepest hole -0.50
REM Mean Shift 0, Max Shift 0.

REM +++ Tabular Listing of Refinement Information +++
REM R1_all = 0.0683
REM R1_gt = 0.0488
REM wR_ref = 0.1220
REM GOOF = 1.052
REM Shift_max = 0
REM Shift_mean = 0
REM Reflections_all = 8129
REM Reflections_gt = 2838
REM Parameters = n/a
REM Hole = -0.50
REM Peak = 0.66
REM Flack = n/a

;
#END Tags that were not found in dictionaries
loop_
_space_group_symop_operation_xyz
'x, y, z'
'-x, -y, -z'
loop_
_atom_site_label
_atom_site_type_symbol
_atom_site_fract_x
_atom_site_fract_y
_atom_site_fract_z
_atom_site_U_iso_or_equiv
_atom_site_adp_type
_atom_site_occupancy
_atom_site_site_symmetry_order
_atom_site_calc_flag
O1 O 0.3495(4) 0.5570(3) 0.45208(17) 0.0379(6) Uani 1 1 d
O2 O 0.0302(4) 0.6151(2) 0.40354(16) 0.0296(5) Uani 1 1 d
O3 O 0.6817(4) 0.7890(3) 0.2962(2) 0.0397(6) Uani 1 1 d
O4 O 0.4744(4) 0.8353(3) 0.41690(17) 0.0374(6) Uani 1 1 d
O5 O 0.0374(3) 0.5837(2) 0.20896(15) 0.0244(5) Uani 1 1 d
O6 O 0.1726(4) 0.7993(2) 0.25172(16) 0.0280(5) Uani 1 1 d
N1 N 0.4895(5) 0.5147(3) 0.1701(2) 0.0250(6) Uani 1 1 d
H1A H 0.433(7) 0.566(4) 0.137(3) 0.039(11) Uiso 1 1 d
H1B H 0.564(8) 0.462(5) 0.143(3) 0.048(13) Uiso 1 1 d
N2 N 0.6070(4) 0.4624(3) 0.3079(2) 0.0259(6) Uani 1 1 d
H2A H 0.594(6) 0.465(4) 0.370(3) 0.028(10) Uiso 1 1 d
H2B H 0.679(8) 0.404(5) 0.281(3) 0.055(14) Uiso 1 1 d
N3 N 0.2302(4) 0.5975(3) 0.39621(18) 0.0248(6) Uani 1 1 d
N4 N 0.5218(4) 0.7671(3) 0.34629(19) 0.0247(6) Uani 1 1 d
N5 N 0.1700(4) 0.6781(3) 0.25049(17) 0.0193(5) Uani 1 1 d
C1 C 0.3544(5) 0.6366(3) 0.3113(2) 0.0197(6) Uani 1 1 d
C2 C 0.4871(5) 0.5280(3) 0.2588(2) 0.0196(6) Uani 1 1 d
S2 S 0.92544(12) -0.19220(8) -0.28245(5) 0.02176(19) Uani 1 1 d
F4 F 0.8886(6) -0.0191(3) -0.39543(17) 0.0719(9) Uani 1 1 d
F5 F 1.1577(6) -0.1434(3) -0.4258(2) 0.0741(9) Uani 1 1 d
F6 F 0.8024(5) -0.2305(3) -0.45583(16) 0.0644(8) Uani 1 1 d
O10 O 0.6835(4) -0.1903(3) -0.26237(18) 0.0362(6) Uani 1 1 d
O11 O 1.0754(4) -0.0882(2) -0.22422(17) 0.0319(5) Uani 1 1 d
O12 O 0.9902(4) -0.3271(2) -0.29757(17) 0.0322(5) Uani 1 1 d
C4 C 0.9447(8) -0.1424(4) -0.3964(3) 0.0425(10) Uani 1 1 d
S1 S 0.76990(11) 0.24449(7) 0.00816(5) 0.01735(18) Uani 1 1 d
F1 F 1.1699(3) 0.39032(19) -0.00443(15) 0.0337(5) Uani 1 1 d
F2 F 1.1872(3) 0.2132(2) 0.05947(14) 0.0330(5) Uani 1 1 d
F3 F 1.1306(3) 0.1920(2) -0.08749(13) 0.0323(5) Uani 1 1 d
O7 O 0.7476(4) 0.3105(2) 0.10146(15) 0.0256(5) Uani 1 1 d
O8 O 0.6832(3) 0.3108(2) -0.06242(15) 0.0250(5) Uani 1 1 d
O9 O 0.6997(4) 0.0982(2) -0.00595(15) 0.0245(5) Uani 1 1 d
C3 C 1.0834(5) 0.2599(3) -0.0072(2) 0.0206(6) Uani 1 1 d
O13 O 0.5016(4) -0.0048(2) -0.16616(18) 0.0256(5) Uani 1 1 d
H13A H 0.545(9) 0.024(5) -0.108(4) 0.067(16) Uiso 1 1 d
H13B H 0.574(9) -0.072(5) -0.201(3) 0.064(15) Uiso 1 1 d
H13C H 0.362(9) -0.038(5) -0.175(3) 0.048(13) Uiso 1 1 d
loop_
_atom_site_aniso_label
_atom_site_aniso_U_11
_atom_site_aniso_U_22
_atom_site_aniso_U_33
_atom_site_aniso_U_23
_atom_site_aniso_U_13
_atom_site_aniso_U_12
O1 0.0347(14) 0.0533(17) 0.0323(13) 0.0203(12) -0.0008(11) 0.0145(12)
O2 0.0184(11) 0.0385(14) 0.0320(12) 0.0043(10) 0.0071(9) 0.0052(10)
O3 0.0205(12) 0.0312(14) 0.0642(18) 0.0020(12) 0.0147(12) -0.0024(10)
O4 0.0332(13) 0.0383(15) 0.0354(13) -0.0077(11) -0.0036(11) 0.0025(11)
O5 0.0133(10) 0.0297(12) 0.0293(11) 0.0046(10) -0.0020(9) 0.0000(9)
O6 0.0272(12) 0.0226(12) 0.0368(13) 0.0068(10) 0.0012(10) 0.0107(9)
N1 0.0212(13) 0.0258(15) 0.0295(15) 0.0025(12) 0.0013(11) 0.0110(11)
N2 0.0155(12) 0.0249(15) 0.0400(17) 0.0099(13) 0.0002(12) 0.0064(11)
N3 0.0195(13) 0.0292(15) 0.0257(13) 0.0053(11) 0.0018(11) 0.0020(11)
N4 0.0159(12) 0.0238(14) 0.0338(15) 0.0029(12) -0.0033(11) 0.0023(10)
N5 0.0112(11) 0.0260(14) 0.0223(12) 0.0057(10) 0.0029(9) 0.0060(10)
C1 0.0116(13) 0.0247(16) 0.0241(15) 0.0061(12) 0.0003(11) 0.0051(11)
C2 0.0089(12) 0.0187(15) 0.0317(16) 0.0065(12) 0.0000(11) 0.0009(10)
S2 0.0149(3) 0.0249(4) 0.0259(4) 0.0027(3) -0.0005(3) 0.0060(3)
F4 0.140(3) 0.0472(15) 0.0402(14) 0.0135(12) 0.0000(15) 0.0468(17)
F5 0.086(2) 0.080(2) 0.0643(17) 0.0242(16) 0.0492(16) 0.0203(17)
F6 0.098(2) 0.0621(17) 0.0343(13) -0.0092(12) -0.0197(13) 0.0371(16)
O10 0.0123(10) 0.0393(15) 0.0509(15) -0.0098(12) 0.0032(10) 0.0014(10)
O11 0.0215(11) 0.0318(13) 0.0410(13) 0.0043(11) -0.0067(10) 0.0006(10)
O12 0.0346(13) 0.0252(13) 0.0393(13) 0.0045(10) -0.0031(11) 0.0139(10)
C4 0.066(3) 0.037(2) 0.0295(19) 0.0057(16) 0.0050(18) 0.023(2)
S1 0.0097(3) 0.0179(4) 0.0246(4) 0.0040(3) 0.0016(3) 0.0019(3)
F1 0.0185(9) 0.0233(10) 0.0583(13) 0.0104(9) 0.0000(9) -0.0051(7)
F2 0.0177(9) 0.0450(12) 0.0405(11) 0.0152(9) -0.0007(8) 0.0094(8)
F3 0.0184(9) 0.0434(12) 0.0342(10) -0.0002(9) 0.0073(8) 0.0080(8)
O7 0.0178(10) 0.0296(12) 0.0291(12) 0.0006(9) 0.0015(9) 0.0071(9)
O8 0.0157(10) 0.0291(12) 0.0321(12) 0.0090(10) 0.0012(9) 0.0053(9)
O9 0.0159(10) 0.0212(11) 0.0351(12) 0.0035(9) 0.0008(9) -0.0012(8)
C3 0.0119(13) 0.0230(16) 0.0271(15) 0.0056(12) 0.0000(11) 0.0016(11)
O13 0.0160(11) 0.0249(12) 0.0337(14) 0.0007(10) 0.0006(10) -0.0007(9)
loop_
_atom_type_symbol
_atom_type_description
_atom_type_scat_dispersion_real
_atom_type_scat_dispersion_imag
_atom_type_scat_source
C C 0.0033 0.0016 'International Tables Vol C Tables 4.2.6.8 and 6.1.1.4'
H H 0.0000 0.0000 'International Tables Vol C Tables 4.2.6.8 and 6.1.1.4'
N N 0.0061 0.0033 'International Tables Vol C Tables 4.2.6.8 and 6.1.1.4'
O O 0.0106 0.0060 'International Tables Vol C Tables 4.2.6.8 and 6.1.1.4'
S S 0.1246 0.1234 'International Tables Vol C Tables 4.2.6.8 and 6.1.1.4'
F F 0.0171 0.0103 'International Tables Vol C Tables 4.2.6.8 and 6.1.1.4'
loop_
_geom_angle_atom_site_label_1
_geom_angle_atom_site_label_2
_geom_angle_atom_site_label_3
_geom_angle
H1A N1 H1B 115(4)
C2 N1 H1A 125(3)
C2 N1 H1B 119(3)
H2A N2 H2B 116(4)
C2 N2 H2A 124(2)
C2 N2 H2B 119(3)
O1 N3 C1 115.4(2)
O2 N3 O1 126.8(3)
O2 N3 C1 117.7(2)
O3 N4 C1 114.3(2)
O4 N4 O3 128.8(3)
O4 N4 C1 116.8(3)
O5 N5 C1 114.8(2)
O6 N5 O5 129.0(2)
O6 N5 C1 116.3(2)
N3 C1 N4 105.8(2)
N3 C1 N5 105.8(2)
N3 C1 C2 115.6(2)
N5 C1 N4 106.4(2)
N5 C1 C2 112.8(2)
C2 C1 N4 109.9(2)
N1 C2 N2 123.8(3)
N1 C2 C1 118.6(3)
N2 C2 C1 117.3(3)
O10 S2 C4 102.99(18)
O11 S2 O10 113.06(14)
O11 S2 O12 117.41(14)
O11 S2 C4 104.67(18)
O12 S2 O10 113.35(15)
O12 S2 C4 103.25(16)
F4 C4 S2 111.5(3)
F4 C4 F5 108.4(4)
F4 C4 F6 108.7(3)
F5 C4 S2 110.2(3)
F5 C4 F6 108.4(3)
F6 C4 S2 109.6(3)
O7 S1 O9 113.92(14)
O7 S1 C3 104.07(13)
O8 S1 O7 115.24(13)
O8 S1 O9 113.81(13)
O8 S1 C3 104.84(13)
O9 S1 C3 103.14(13)
F1 C3 S1 109.9(2)
F2 C3 S1 110.8(2)
F2 C3 F1 108.1(2)
F3 C3 S1 110.72(19)
F3 C3 F1 108.2(2)
F3 C3 F2 109.0(2)
H13A O13 H13B 120(4)
H13A O13 H13C 115(4)
H13B O13 H13C 102(4)
loop_
_geom_bond_atom_site_label_1
_geom_bond_atom_site_label_2
_geom_bond_distance
O1 N3 1.220(3)
O2 N3 1.207(3)
O3 N4 1.212(4)
O4 N4 1.204(4)
O5 N5 1.215(3)
O6 N5 1.210(3)
N1 H1A 0.85(4)
N1 H1B 0.79(5)
N1 C2 1.285(4)
N2 H2A 0.91(4)
N2 H2B 0.82(5)
N2 C2 1.305(4)
N3 C1 1.525(4)
N4 C1 1.538(4)
N5 C1 1.530(4)
C1 C2 1.534(4)
S2 O10 1.448(2)
S2 O11 1.428(2)
S2 O12 1.437(2)
S2 C4 1.816(4)
F4 C4 1.319(4)
F5 C4 1.321(5)
F6 C4 1.331(5)
S1 O7 1.437(2)
S1 O8 1.436(2)
S1 O9 1.450(2)
S1 C3 1.835(3)
F1 C3 1.331(4)
F2 C3 1.322(3)
F3 C3 1.315(3)
O13 H13A 0.88(5)
O13 H13B 0.93(5)
O13 H13C 0.84(5)
loop_
_geom_torsion_atom_site_label_1
_geom_torsion_atom_site_label_2
_geom_torsion_atom_site_label_3
_geom_torsion_atom_site_label_4
_geom_torsion
O1 N3 C1 N4 -69.6(3)
O1 N3 C1 N5 177.8(3)
O1 N3 C1 C2 52.3(4)
O2 N3 C1 N4 107.2(3)
O2 N3 C1 N5 -5.4(4)
O2 N3 C1 C2 -130.9(3)
O3 N4 C1 N3 158.3(3)
O3 N4 C1 N5 -89.5(3)
O3 N4 C1 C2 32.9(3)
O4 N4 C1 N3 -24.0(3)
O4 N4 C1 N5 88.2(3)
O4 N4 C1 C2 -149.4(3)
O5 N5 C1 N3 -75.4(3)
O5 N5 C1 N4 172.4(2)
O5 N5 C1 C2 51.8(3)
O6 N5 C1 N3 103.0(3)
O6 N5 C1 N4 -9.1(3)
O6 N5 C1 C2 -129.7(3)
N3 C1 C2 N1 143.4(3)
N3 C1 C2 N2 -42.1(4)
N4 C1 C2 N1 -96.9(3)
N4 C1 C2 N2 77.5(3)
N5 C1 C2 N1 21.5(4)
N5 C1 C2 N2 -164.0(3)
O10 S2 C4 F4 61.4(4)
O10 S2 C4 F5 -178.2(3)
O10 S2 C4 F6 -59.0(3)
O11 S2 C4 F4 -57.0(4)
O11 S2 C4 F5 63.4(3)
O11 S2 C4 F6 -177.4(2)
O12 S2 C4 F4 179.6(3)
O12 S2 C4 F5 -60.0(3)
O12 S2 C4 F6 59.2(3)
O7 S1 C3 F1 -66.5(2)
O7 S1 C3 F2 52.9(2)
O7 S1 C3 F3 174.0(2)
O8 S1 C3 F1 55.0(2)
O8 S1 C3 F2 174.3(2)
O8 S1 C3 F3 -64.6(2)
O9 S1 C3 F1 174.3(2)
O9 S1 C3 F2 -66.3(2)
O9 S1 C3 F3 54.8(2)
loop_
_refln_index_h
_refln_index_k
_refln_index_l
_refln_F_squared_meas
_refln_F_squared_sigma
-1 0 0 1812.92 48.3
-1 0 0 1808.52 44.5
1 0 0 1777.42 48.3
-2 0 0 40 5.4
2 0 0 60.29 4.7
-3 0 0 390.16 14.1
-3 0 0 401.36 14.4
3 0 0 390.06 12.5
-4 0 0 274.47 12.8
4 0 0 274.57 10.9
-5 0 0 94.89 10.8
5 0 0 105.99 9.2
-6 0 0 71.99 11
6 0 0 50.09 7.8
-7 0 0 314.87 17.9
7 0 0 309.07 16.2
7 -1 0 11.7 7.9
-7 1 0 7.3 8.1
6 -1 0 226.88 13
-6 1 0 226.48 14.7
5 -1 0 681.13 21.6
-5 1 0 660.03 24.3
4 -1 0 55.19 6.7
-4 1 0 40.9 6.3
-4 1 0 45.8 5.5
3 -1 0 216.78 8.9
3 -1 0 216.78 10.6
-3 1 0 235.98 10.6
-3 1 0 205.68 9
2 -1 0 645.44 17.2
2 -1 0 612.94 19.1
-2 1 0 643.54 19.2
-2 1 0 620.44 17.5
1 -1 0 0.2 2.1
1 -1 0 3.5 2.3
1 -1 0 -5.5 2.4
-1 1 0 -7.1 2.4
0 1 0 19.2 1.5
-1 -1 0 1538.85 38.5
1 1 0 1501.15 38.6
1 1 0 1609.34 38.3
2 1 0 686.23 19.2
2 1 0 726.03 18.9
3 1 0 1975.2 49.9
4 1 0 296.37 11.3
5 1 0 75.89 8.7
6 1 0 10.5 6.2
7 1 0 19.3 7.6
7 -2 0 40.5 9.1
-7 2 0 44.1 9.7
6 -2 0 239.08 13.7
-6 2 0 251.27 15.3
5 -2 0 5.7 5.5
-5 2 0 6.9 6.6
-5 2 0 5 5.8
4 -2 0 309.47 12.1
-4 2 0 295.87 12.2
3 -2 0 395.76 12.9
3 -2 0 387.46 14.6
-3 2 0 400.16 13.5
2 -2 0 2180.38 53.79
2 -2 0 2086.29 59.09
-2 2 0 2160.68 54.69
-2 2 0 2210.48 59.29
1 -2 0 67.39 3.9
1 -2 0 77.39 4.3
1 -2 0 52.89 4.8
-1 2 0 69.69 4.6
-1 2 0 53.99 4.8
0 -2 0 4737.13 111.49
0 -2 0 4530.85 112.89
0 2 0 4532.85 112.99
-1 -2 0 6403.36 155.98
-1 -2 0 6476.95 155.08
1 2 0 6367.86 155.98
2 2 0 3602.34 89.29
2 2 0 3628.24 88.59
3 2 0 6.1 4.3
3 2 0 16.4 3.6
4 2 0 419.46 14.2
5 2 0 40.3 6.6
6 2 0 -3.2 6
7 2 0 11.2 7.6
7 -3 0 11.7 7.9
-7 3 0 3.7 8.5
-7 3 0 -1.6 7.3
6 -3 0 24.8 7.4
-6 3 0 27.6 7.3
-6 3 0 29.2 8.3
5 -3 0 107.19 9.9
-5 3 0 98.49 9.9
-5 3 0 87.99 11.5
4 -3 0 200.38 10
4 -3 0 185.48 11.6
-4 3 0 201.08 10.4
3 -3 0 233.68 9.7
3 -3 0 234.88 11
-3 3 0 250.67 10.3
2 -3 0 -3.4 3.6
2 -3 0 -2.9 3.3
-2 3 0 -1.7 3.7
-2 3 0 3.1 3.6
1 -3 0 529.65 15
1 -3 0 539.35 14.7
-1 3 0 520.05 15.2
0 -3 0 1577.44 40.7
0 -3 0 1619.24 40.3
0 3 0 1638.34 40.8
-1 -3 0 1697.23 41.6
1 3 0 1632.04 42.1
-2 -3 0 109.19 6.7
2 3 0 102.89 7.4
3 3 0 1758.42 45.2
3 3 0 1764.72 45.8
4 3 0 1192.68 33
4 3 0 1129.39 31.9
5 3 0 180.78 11.3
5 3 0 194.78 13.3
6 3 0 5.4 8.2
6 3 0 9.4 7
7 -4 0 203.28 14.7
-7 4 0 208.38 14.5
-7 4 0 225.38 17
6 -4 0 6.1 6.9
-6 4 0 13.6 8.1
-6 4 0 4.6 7.3
5 -4 0 -2.4 6.1
-5 4 0 14.3 6.7
4 -4 0 82.89 9.8
4 -4 0 80.69 8.3
-4 4 0 77.89 8.9
3 -4 0 619.64 18.8
3 -4 0 644.94 21
-3 4 0 647.34 19.5
2 -4 0 433.76 15.1
2 -4 0 422.86 13.4
-2 4 0 444.56 15.1
-2 4 0 433.96 14.2
1 -4 0 4761.92 114.79
-1 4 0 4630.54 116.39
0 -4 0 410.96 12.4
0 4 0 388.86 12.5
-1 -4 0 22.9 3.8
1 4 0 25.8 4.2
1 4 0 3.6 4
-2 -4 0 119.39 6.7
2 4 0 97.29 7.9
-3 -4 0 513.95 16.3
3 4 0 499.05 16.8
-4 -4 0 821.42 25.1
4 4 0 852.21 26.2
5 4 0 76.39 9.8
-6 -4 0 139.09 13
6 4 0 140.19 14.2
7 -5 0 -6 7.6
-7 5 0 11.8 9.5
-7 5 0 -6.7 8.8
6 -5 0 53.49 8.9
-6 5 0 46.6 9.6
-6 5 0 50.49 9.2
5 -5 0 62.19 9.7
-5 5 0 79.19 10.9
4 -5 0 145.49 11.6
4 -5 0 139.89 10.1
-4 5 0 173.68 11.4
3 -5 0 291.97 12.8
3 -5 0 278.47 11.6
-3 5 0 285.27 12.3
2 -5 0 65.29 6.2
2 -5 0 67.59 7.1
-2 5 0 48.3 7.6
-2 5 0 80.19 7.5
1 -5 0 486.35 15.2
-1 5 0 507.75 15.9
0 -5 0 2343.47 59.39
0 5 0 2392.76 60.19
-1 -5 0 574.04 16.9
1 5 0 565.54 17.3
1 5 0 569.84 16.9
-2 -5 0 6.1 4.1
2 5 0 11.3 4.8
-3 -5 0 265.37 11.4
3 5 0 234.38 12.2
-4 -5 0 12.7 6.5
4 5 0 5.8 7.4
-5 -5 0 99.79 11.7
5 5 0 105.49 13.1
-6 -5 0 100.59 13
6 5 0 94.99 11.7
7 -6 0 55.29 10.2
-7 6 0 45.3 11
6 -6 0 11.4 7.7
-6 6 0 26.4 9.1
-6 6 0 11.3 8.7
5 -6 0 265.17 14.1
-5 6 0 284.77 15.5
4 -6 0 19.4 6.6
4 -6 0 16.2 6.9
-4 6 0 8.1 7.2
3 -6 0 8.6 5.3
3 -6 0 13.5 5.4
-3 6 0 11.3 6.4
2 -6 0 760.32 22.2
-2 6 0 777.92 23
1 -6 0 886.51 25
-1 6 0 902.11 25.5
0 -6 0 39.9 5.2
0 6 0 31.9 5.3
-1 -6 0 1680.73 44.5
1 6 0 1744.43 44.9
1 6 0 1731.43 44.9
-2 -6 0 264.17 11.5
2 6 0 264.47 12.5
-3 -6 0 112.79 10.1
3 6 0 119.89 11.2
-4 -6 0 108.49 11.6
4 6 0 127.79 13.1
-5 -6 0 48.6 8.9
5 6 0 55.59 10.3
-6 -6 0 202.38 15.5
6 -7 0 24.9 8.5
-6 7 0 23.8 10.5
-6 7 0 25.2 9.5
5 -7 0 201.78 13.3
-5 7 0 200.48 15.3
4 -7 0 397.76 16.4
4 -7 0 405.26 18.1
-4 7 0 404.66 18.3
3 -7 0 31.9 6.6
-3 7 0 25.3 7.6
2 -7 0 501.45 17.1
-2 7 0 500.85 18
1 -7 0 30.1 5.6
-1 7 0 15.4 5.9
0 -7 0 218.48 10.5
0 7 0 229.88 11
-1 -7 0 152.28 9.5
1 7 0 145.99 10.3
-2 -7 0 29.2 7.1
2 7 0 11.7 6.8
-3 -7 0 16.1 7.4
3 7 0 35.4 8.4
-4 -7 0 113.19 12.5
4 7 0 121.69 14.4
-5 -7 0 90.99 13.1
6 -8 0 19 8.9
-6 8 0 9.3 9.5
-6 8 0 5.6 10.5
5 -8 0 12.3 8.1
-5 8 0 2.6 9.7
4 -8 0 203.88 13
4 -8 0 186.58 14
-4 8 0 176.68 15
3 -8 0 117.79 10.7
-3 8 0 98.49 12.5
2 -8 0 3.7 6.4
-2 8 0 0 7.1
1 -8 0 30 6.6
-1 8 0 30.5 7
0 -8 0 26 6.5
0 8 0 24.2 6.8
-1 -8 0 169.38 11.3
1 8 0 180.28 12.1
1 8 0 151.88 11.1
-2 -8 0 17.3 7.4
2 8 0 17.8 8.3
-3 -8 0 139.59 12.9
3 8 0 130.09 14.5
-4 -8 0 175.48 14.8
4 8 0 169.38 16.6
-5 -8 0 62.59 11.6
-5 9 0 16.4 11.1
4 -9 0 26 8.9
-4 9 0 39.4 11
3 -9 0 -2.5 7
-3 9 0 -6.3 8.5
2 -9 0 64.99 10.1
-2 9 0 38.4 8.9
1 -9 0 67.49 8.5
-1 9 0 73.09 10.9
0 -9 0 121.69 10.6
0 9 0 131.39 11.2
-1 -9 0 4.5 6.8
1 9 0 -2 7
-2 -9 0 26.9 8.5
2 9 0 27.7 9.5
-3 -9 0 19.5 9.2
-4 -9 0 15.2 10.9
5 -10 0 101.09 14.3
-5 10 0 100.79 15.3
4 -10 0 39.9 9.8
4 -10 0 42 10
-4 10 0 43.7 12
3 -10 0 6.7 8.2
-3 10 0 6.6 10
2 -10 0 11.6 7.6
-2 10 0 4.5 8.7
-1 10 0 32.9 8.8
0 -10 0 132.79 11.4
0 10 0 140.79 12.4
-1 -10 0 114.79 11.8
1 10 0 128.79 11.9
-2 -10 0 70.69 10.9
-3 -10 0 -5.4 9.5
4 -11 0 157.18 15.2
-4 11 0 116.29 18.2
3 -11 0 12 8.6
-3 11 0 19.1 11.3
2 -11 0 192.98 13.9
-2 11 0 193.78 15.8
1 -11 0 52.99 9
-1 11 0 56.09 9.8
0 -11 0 7.2 7.2
0 11 0 18.6 8.4
-1 -11 0 83.19 12
1 11 0 87.39 11.5
-2 -11 0 2.8 9.1
3 -12 0 2.1 9
-3 12 0 -1.5 11.8
2 -12 0 83.59 12.3
-2 12 0 53.19 11.9
1 -12 0 52.89 9.5
-1 12 0 39.7 10
0 12 0 45.4 9.4
-1 -12 0 18.8 9.2
1 12 0 17.4 8.6
1 12 -1 15.1 8.5
-1 -12 1 12.3 8.7
0 12 -1 190.98 15
0 -12 1 197.58 14.1
-1 12 -1 24 9.7
1 -12 1 28.6 8.8
-2 12 -1 31.1 11.4
2 -12 1 34.6 8.6
-3 12 -1 9.7 11.6
3 -12 1 5.8 8.8
-2 -11 1 -4.5 9
1 11 -1 20.5 8
-1 -11 1 10.7 8.3
0 11 -1 13.8 8.3
0 -11 1 21.9 7.5
-1 11 -1 74.29 10.3
1 -11 1 79.79 10.7
-2 11 -1 130.09 14.9
2 -11 1 135.59 12.8
-3 11 -1 67.09 12.4
3 -11 1 74.19 10.6
-4 11 -1 250.27 20.6
4 -11 1 274.37 17.7
-3 -10 1 7.6 9.5
2 10 -1 160.68 16.3
-2 -10 1 140.39 13.2
1 10 -1 32.4 9.2
1 10 -1 30.3 8
-1 -10 1 22.7 7.8
0 10 -1 24.6 7.9
0 -10 1 35.3 7.4
-1 10 -1 452.25 18.7
1 -10 1 422.76 17.5
-2 10 -1 15.8 9.1
2 -10 1 10.9 7.4
-3 10 -1 74.39 12
3 -10 1 64.49 9.4
-4 10 -1 -13.1 10.5
4 -10 1 10.2 8.9
-5 10 -1 90.79 15.1
5 -10 1 76.89 12.2
-4 -9 1 56.99 11.6
3 9 -1 102.29 15.3
-3 -9 1 86.19 13
-2 -9 1 6.5 7.6
1 9 -1 -10.7 7.9
1 9 -1 -8.6 6.8
-1 -9 1 11.8 7
0 9 -1 4 7
0 -9 1 8.1 6.6
-1 9 -1 27 8
1 -9 1 32.3 7.2
-2 9 -1 604.04 22.1
2 -9 1 590.34 20.8
-3 9 -1 36.5 9.5
3 -9 1 51.99 8.3
-4 9 -1 361.76 19.9
4 -9 1 344.07 16.7
-5 9 -1 168.98 16.6
-5 9 -1 140.79 17.4
5 -9 1 165.78 14.5
6 -9 1 8.7 9.6
-5 -8 1 75.79 11.9
4 8 -1 9.6 9.9
-4 -8 1 12.3 9
3 8 -1 160.28 14.8
-3 -8 1 160.48 13.1
2 8 -1 230.98 12.8
2 8 -1 252.77 14.5
-2 -8 1 236.38 13.1
1 8 -1 683.23 22.3
1 8 -1 681.63 22.7
-1 -8 1 707.23 21.9
0 8 -1 56.99 9
0 -8 1 56.99 8.4
-1 8 -1 9.7 6.3
1 -8 1 11.1 5.9
-2 8 -1 -1.2 6.9
2 -8 1 2.1 6
-3 8 -1 144.19 13.4
3 -8 1 159.78 11.1
-4 8 -1 94.89 13.5
4 -8 1 103.39 11
-5 8 -1 22.5 9
-5 8 -1 -0.2 9.4
5 -8 1 4.4 7.9
-6 8 -1 2.2 9.7
-6 8 -1 1.4 10.6
6 -8 1 14.8 8.4
5 7 -1 49 10.7
-5 -7 1 40.1 9.6
4 7 -1 78.69 10.9
-4 -7 1 98.09 12
3 7 -1 615.64 22.9
-3 -7 1 621.54 21
2 7 -1 184.68 12.5
-2 -7 1 195.68 11.3
1 7 -1 11.1 5.9
1 7 -1 2.6 5.5
-1 -7 1 7.2 5
0 7 -1 21.2 5.7
0 -7 1 20.5 5
-1 7 -1 199.18 10.8
1 -7 1 209.28 10.2
-2 7 -1 118.59 10.2
2 -7 1 136.09 9.1
-3 7 -1 205.08 13
3 -7 1 203.48 11.5
-4 7 -1 61.29 9.7
4 -7 1 108.59 10.5
-5 7 -1 14.8 8.4
-5 7 -1 6.4 8.7
5 -7 1 13.6 7.4
-6 7 -1 17 10.1
-6 7 -1 32.1 10
6 -7 1 25.9 8.4
-6 -6 1 14 9
5 6 -1 47 10.2
-5 -6 1 62.69 9.4
4 6 -1 12.7 8.1
-4 -6 1 26.3 7.4
3 6 -1 141.79 11.7
-3 -6 1 143.99 10.4
2 6 -1 114.99 10.1
-2 -6 1 118.89 8.5
1 6 -1 161.88 8.9
-1 -6 1 161.78 8.4
0 6 -1 408.66 14
0 -6 1 410.56 13.4
-1 6 -1 233.08 10.6
1 -6 1 230.58 9.9
-2 6 -1 111.49 8.9
2 -6 1 100.79 7.6
-3 6 -1 412.66 15.8
3 -6 1 403.76 16.1
3 -6 1 399.86 14.8
-4 6 -1 61.09 8.7
4 -6 1 57.89 7.9
-5 6 -1 316.17 17.5
-5 6 -1 329.67 16.7
5 -6 1 314.87 15.1
-6 6 -1 35 9.8
-6 6 -1 22.3 9.3
6 -6 1 37.3 8.5
-7 6 -1 -15.2 9.4
7 -6 1 8.7 8.2
-6 -5 1 161.18 13.9
5 5 -1 943.41 30.8
-5 -5 1 901.01 28.4
4 5 -1 202.78 13.1
-4 -5 1 182.78 11.4
3 5 -1 365.66 14.8
-3 -5 1 364.66 13.7
2 5 -1 359.26 13.3
-2 -5 1 358.66 12.3
1 5 -1 1414.36 37.3
1 5 -1 1480.85 37.5
-1 -5 1 1385.76 36.8
0 5 -1 533.35 16.2
0 -5 1 522.15 15.6
-1 5 -1 1249.18 33.8
1 -5 1 1276.07 33.1
-2 5 -1 1860.71 51.29
-2 5 -1 1829.52 47.7
2 -5 1 1782.72 46.7
-3 5 -1 706.23 21.8
3 -5 1 698.63 22.9
3 -5 1 694.03 20.8
-4 5 -1 285.07 13.4
4 -5 1 275.37 12.6
-5 5 -1 13.7 7.3
-5 5 -1 6.2 7.5
5 -5 1 8.4 6.4
-6 5 -1 96.89 12.5
-6 5 -1 104.69 14
6 -5 1 114.79 11.7
-7 5 -1 31.4 9.5
-7 5 -1 41.1 10.5
7 -5 1 45.8 9.3
6 4 -1 71.19 10.4
-6 -4 1 77.69 10.4
5 4 -1 11.4 7.8
-5 -4 1 12.3 7.5
4 4 -1 460.95 17.3
-4 -4 1 451.15 16.3
3 4 -1 227.68 11
-3 -4 1 214.38 9.9
2 4 -1 703.53 20.7
-2 -4 1 716.13 19.8
1 4 -1 1396.56 36.2
1 4 -1 1384.56 36.3
-1 -4 1 1419.56 35.7
0 4 -1 1626.84 42
0 -4 1 1637.64 41.2
-1 4 -1 702.93 20.1
1 -4 1 709.23 19.4
-2 4 -1 4.5 4.3
-2 4 -1 -6.5 3.9
2 -4 1 -8 3.4
2 -4 1 -7.6 3.7
-3 4 -1 48.5 7.4
3 -4 1 42.8 6.4
3 -4 1 50.59 7.4
-4 4 -1 1534.45 41.5
4 -4 1 1514.95 41
-5 4 -1 273.47 15.7
-5 4 -1 286.37 13.7
5 -4 1 278.67 13.5
-6 4 -1 74.19 10.7
-6 4 -1 56.59 10.2
6 -4 1 73.09 10.4
-7 4 -1 39.5 11.2
7 -4 1 43 9.3
6 3 -1 36.2 7.6
5 3 -1 612.74 20.8
5 3 -1 684.43 22.7
4 3 -1 4 6.2
4 3 -1 8.5 4.8
3 3 -1 39.8 5.7
3 3 -1 43.4 5.6
2 3 -1 84.69 7.4
-2 -3 1 83.49 6
1 3 -1 3767.22 94.49
1 3 -1 3885.01 95.19
-1 -3 1 3854.21 93.69
-1 -3 1 3881.01 95.09
0 3 -1 361.36 11.1
0 -3 1 357.76 10.8
0 -3 1 372.46 10.6
1 -3 1 8.8 2.8
1 -3 1 -2 2.4
-2 3 -1 11.8 4
-2 3 -1 9.8 4.2
2 -3 1 9.7 3.8
2 -3 1 22.3 3.9
-3 3 -1 844.52 24
3 -3 1 858.01 26.3
3 -3 1 846.22 23.7
-4 3 -1 156.18 11.4
-4 3 -1 161.38 9.7
4 -3 1 173.78 9.7
-5 3 -1 119.79 12.1
-5 3 -1 128.49 10.2
5 -3 1 106.29 10.3
-6 3 -1 119.29 13.2
6 -3 1 123.79 11.5
-7 3 -1 -15.4 7.7
7 -3 1 6.1 7.8
7 2 -1 -0.1 7.1
6 2 -1 28.3 6.7
5 2 -1 103.89 8.9
4 2 -1 0.5 4
3 2 -1 7.9 3.4
3 2 -1 4.1 4.6
2 2 -1 849.12 23.9
2 2 -1 893.91 22.9
-2 -2 1 873.81 23.1
1 2 -1 27.1 4
1 2 -1 24.4 4.1
-1 -2 1 38.4 2.9
-1 -2 1 28.6 4.6
-1 -2 1 29.6 3.8
0 2 -1 381.06 11
0 -2 1 378.76 10.5
0 -2 1 398.66 10.9
-1 2 -1 22.5 3.1
-1 2 -1 30 4.2
1 -2 1 24.8 4.2
1 -2 1 27.2 2.8
1 -2 1 25.7 3.4
-2 2 -1 4064.29 101.39
-2 2 -1 4226.98 109.89
2 -2 1 4105.89 100.19
2 -2 1 3965.8 109.69
-3 2 -1 144.89 7.9
-3 2 -1 153.08 9.6
3 -2 1 159.48 8
-4 2 -1 41.6 5.5
-4 2 -1 31.4 6.2
4 -2 1 30.1 5.7
-5 2 -1 407.06 15.4
-5 2 -1 436.76 18.4
5 -2 1 404.26 16
-6 2 -1 75.79 12
6 -2 1 89.09 10.9
-7 2 -1 44.5 10.3
7 -2 1 53.39 9.4
7 1 -1 234.88 14.3
6 1 -1 165.28 11.2
5 1 -1 157.78 9.8
4 1 -1 89.59 6.9
3 1 -1 19.9 3.7
2 1 -1 761.12 19.9
2 1 -1 757.42 20.5
2 1 -1 743.73 20.3
-2 -1 1 755.22 20.1
1 1 -1 914.61 23.9
1 1 -1 942.81 24
-1 -1 1 951.1 23.9
-1 -1 1 941.31 23.9
0 1 -1 -4.7 0.9
0 -1 1 -3.4 0.8
0 -1 1 -2.8 1
-1 1 -1 30.3 4.4
-2 1 -1 1190.38 33
-2 1 -1 1139.89 33.2
2 -1 1 1172.38 30
-3 1 -1 4396.46 118.39
3 -1 1 4368.56 107.89
-4 1 -1 29.4 6
4 -1 1 23.2 5.1
-5 1 -1 310.77 15.6
5 -1 1 282.77 13.2
-6 1 -1 278.57 16.2
6 -1 1 297.27 14.5
-7 1 -1 8.6 8.4
7 -1 1 6 7.5
7 0 -1 116.69 12
6 0 -1 28.2 7
-6 0 1 22.8 7.2
5 0 -1 24.7 5.9
-5 0 1 16.1 6.7
4 0 -1 286.57 11.1
3 0 -1 25.8 4
3 0 -1 25.8 5.1
-3 0 1 33.5 4.8
2 0 -1 415.86 12.6
2 0 -1 443.36 12.2
2 0 -1 416.76 13.9
-2 0 1 440.36 12.5
-2 0 1 409.06 13.8
1 0 -1 1307.17 34.5
1 0 -1 1378.46 37.2
-1 0 1 1375.66 37.2
-1 0 1 1382.26 34.5
0 0 -1 0 0.4
0 0 1 -0.7 0.5
-1 0 -1 1399.86 38.2
1 0 1 1371.06 38.1
1 0 1 1459.55 35
-2 0 -1 5047.29 132.89
-2 0 -1 4885.01 132.89
2 0 1 5017.4 121.39
-3 0 -1 917.61 27.2
-3 0 -1 924.61 27.4
3 0 1 888.11 24.7
-4 0 -1 -5.1 4.7
4 0 1 -5.1 4
-5 0 -1 53.19 7.8
5 0 1 50.69 6.9
-6 0 -1 140.19 12.6
6 0 1 121.69 11.1
-7 0 -1 146.69 14.5
7 0 1 162.28 13.3
7 -1 -1 0 7.5
-7 1 1 18.6 8.4
6 -1 -1 136.69 11.2
-6 1 1 114.09 10.2
-6 1 1 126.89 12.4
5 -1 -1 212.58 11.2
-5 1 1 200.48 13.3
-5 1 1 197.28 11
4 -1 -1 267.57 13.1
4 -1 -1 265.97 10.8
-4 1 1 259.37 11
3 -1 -1 1023.8 27.5
3 -1 -1 1005.8 30.6
-3 1 1 1067.79 31.2
2 -1 -1 53.89 6
2 -1 -1 56.99 4.8
-2 1 1 45 4.7
-2 1 1 53.69 5.8
1 -1 -1 5988.2 158.18
-1 1 1 6039.1 158.18
-1 1 1 5900.91 146.59
0 -1 -1 0.6 1.1
0 1 1 0.2 1.2
-1 -1 -1 779.92 19.9
1 1 1 781.62 19.7
1 1 1 749.73 19.8
2 1 1 658.13 18.4
2 1 1 689.73 18.3
-3 -1 -1 459.95 15
3 1 1 428.96 13.6
4 1 1 228.18 9.9
-5 -1 -1 498.75 18.9
5 1 1 455.05 16.9
6 1 1 331.17 15
7 1 1 15.6 7.8
7 -2 -1 151.18 13
-7 2 1 159.88 12.2
-7 2 1 159.78 14.6
6 -2 -1 -1.3 6.5
-6 2 1 -4.9 6.8
-6 2 1 2.3 6.3
5 -2 -1 3.1 5.5
-5 2 1 7.9 6.1
4 -2 -1 29.5 6.2
4 -2 -1 28.3 5.3
-4 2 1 30.6 5.8
3 -2 -1 556.84 18.8
3 -2 -1 574.84 16.7
-3 2 1 552.94 17.3
2 -2 -1 543.65 15.2
2 -2 -1 525.15 17.1
-2 2 1 535.65 17.1
-2 2 1 545.05 16.1
1 -2 -1 7078.19 171.18
1 -2 -1 6970.8 168.58
1 -2 -1 6971.3 184.68
-1 2 1 6991.2 184.68
-1 2 1 6861.71 171.18
0 -2 -1 6221.68 141.19
0 -2 -1 5758.22 142.79
0 2 1 5856.21 142.79
0 2 1 5492.45 141.39
-1 -2 -1 461.35 12.4
1 2 1 428.16 12.7
2 2 1 1242.98 32.4
2 2 1 1252.37 32.1
3 2 1 0.7 4.1
3 2 1 3.5 3.6
4 2 1 217.18 10.2
4 2 1 220.78 11.1
5 2 1 35.7 6.7
6 2 1 452.95 17.7
7 2 1 164.28 13.4
7 -3 -1 106.09 12.4
-7 3 1 112.09 14.1
-7 3 1 99.39 11.8
6 -3 -1 73.29 10.4
-6 3 1 76.59 10.4
-6 3 1 63.89 10
5 -3 -1 64.99 9.2
5 -3 -1 65.99 11.1
-5 3 1 67.29 8.2
4 -3 -1 12.3 5.9
4 -3 -1 15.6 5.2
-4 3 1 18.2 5.8
3 -3 -1 62.79 6.1
3 -3 -1 48.7 6.1
-3 3 1 46.7 7.1
2 -3 -1 113.19 6.3
2 -3 -1 90.89 7.4
-2 3 1 113.49 7.4
-2 3 1 114.19 7.7
1 -3 -1 647.84 19.4
1 -3 -1 678.03 17.8
-1 3 1 636.64 18.2
0 -3 -1 734.43 19
0 -3 -1 677.43 18.8
0 3 1 713.13 19
-1 -3 -1 1856.91 45.6
1 3 1 1793.72 45.9
-2 -3 -1 96.79 6.5
2 3 1 93.89 7
3 3 1 592.64 18.2
3 3 1 590.04 17.6
4 3 1 703.43 21.8
4 3 1 726.93 22.5
5 3 1 1 6.1
5 3 1 9.8 7.4
6 3 1 98.79 11.6
7 -4 -1 285.37 16.1
-7 4 1 261.87 16.2
-7 4 1 276.87 18.5
6 -4 -1 207.68 13.1
-6 4 1 203.78 13.7
-6 4 1 194.48 15
5 -4 -1 82.59 11.5
5 -4 -1 78.99 9.7
-5 4 1 86.39 10.4
4 -4 -1 0 5.7
4 -4 -1 5.3 4.9
-4 4 1 4.7 5.4
3 -4 -1 14.9 4.5
3 -4 -1 6.5 4.7
-3 4 1 6.5 4.9
2 -4 -1 78.79 7.1
2 -4 -1 79.19 6
-2 4 1 93.39 7.2
1 -4 -1 1300.27 33
-1 4 1 1242.08 33.4
-1 -4 -1 1373.06 35.2
1 4 1 1367.46 35.6
-2 -4 -1 459.55 14.2
2 4 1 457.25 14.9
-3 -4 -1 13.7 5.3
3 4 1 19.3 5.4
-4 -4 -1 -2.3 6.5
4 4 1 16.8 6.6
5 4 1 3.3 7.7
6 4 1 165.68 14.8
7 -5 -1 10.3 8.4
-7 5 1 -10.6 8.4
-7 5 1 13.5 9.6
6 -5 -1 189.78 12.7
-6 5 1 158.38 13.6
5 -5 -1 53.19 7.9
5 -5 -1 57.09 9.3
-5 5 1 62.39 8.7
4 -5 -1 804.32 27
4 -5 -1 794.12 24.1
-4 5 1 786.52 25.1
3 -5 -1 61.29 7
3 -5 -1 60.29 8.4
-3 5 1 54.59 8.1
2 -5 -1 459.35 15.9
2 -5 -1 442.76 14.4
-2 5 1 459.75 15.2
1 -5 -1 242.18 9.6
-1 5 1 244.78 9.9
0 -5 -1 185.98 8.6
0 5 1 188.48 8.8
-1 -5 -1 94.49 6.8
1 5 1 62.59 7
-2 -5 -1 24.7 4.7
2 5 1 14.7 4.9
-3 -5 -1 1222.38 33.7
3 5 1 1230.18 34.4
-4 -5 -1 361.36 15.4
4 5 1 376.86 16.5
-5 -5 -1 9.7 7.7
5 5 1 -4.8 8.1
-6 -5 -1 13.7 8.9
6 5 1 -5.1 8.6
6 -6 -1 44.2 8.8
-6 6 1 36.8 10
5 -6 -1 43.8 8.9
5 -6 -1 39.7 7.8
-5 6 1 51.49 9.4
4 -6 -1 13.1 6.5
4 -6 -1 6.1 6.6
-4 6 1 14.1 7.4
3 -6 -1 150.48 11
3 -6 -1 154.38 9.4
-3 6 1 147.49 10.8
2 -6 -1 59.19 7.3
-2 6 1 57.79 8
1 -6 -1 11.8 4.4
-1 6 1 7.8 4.9
0 -6 -1 175.78 8.8
0 6 1 165.58 8.9
-1 -6 -1 838.92 24.1
1 6 1 858.61 24.3
-2 -6 -1 94.59 8.7
2 6 1 85.79 9.4
-3 -6 -1 16.7 6.4
3 6 1 9.7 7
-4 -6 -1 58.99 8.9
4 6 1 62.69 9.4
-5 -6 -1 41 9
5 6 1 37.4 9.9
6 -7 -1 42.8 9.2
-6 7 1 33.9 10.6
5 -7 -1 2.8 7.2
5 -7 -1 0.8 7.7
-5 7 1 7 8.7
4 -7 -1 14.8 7.4
-4 7 1 18.6 8.3
3 -7 -1 231.88 12.2
3 -7 -1 236.48 13.5
-3 7 1 252.17 13.7
2 -7 -1 156.18 10
-2 7 1 160.58 10.7
1 -7 -1 185.58 10.2
-1 7 1 193.18 10.8
0 -7 -1 358.36 13.7
0 7 1 384.96 14.1
-1 -7 -1 164.18 10.2
1 7 1 161.38 10.9
-2 -7 -1 49.9 7.8
2 7 1 36.6 7.7
-3 -7 -1 11.6 7.5
3 7 1 4.2 7.7
-4 -7 -1 11.5 8.3
4 7 1 11.2 9
-5 -7 -1 65.29 10.5
6 -8 -1 217.08 15.9
-6 8 1 223.98 18.4
5 -8 -1 128.19 13.2
5 -8 -1 149.09 14.7
-5 8 1 111.89 14.8
4 -8 -1 0.7 7.2
4 -8 -1 14.4 7.5
-4 8 1 5.6 8.5
3 -8 -1 26.4 7.6
-3 8 1 28 8.5
2 -8 -1 26.4 7.1
-2 8 1 26.5 7.9
1 -8 -1 83.79 9.3
-1 8 1 73.29 10.3
0 -8 -1 46.6 7.4
0 8 1 38.2 7.4
-1 -8 -1 63.69 9.7
-2 -8 -1 24.1 7.8
2 8 1 31.3 8.4
-3 -8 -1 71.39 10
3 8 1 65.59 10.7
-4 -8 -1 77.09 11.2
4 8 1 56.09 11.6
-5 -8 -1 34.2 11.1
5 -9 -1 301.37 17.5
5 -9 -1 312.87 20
-5 9 1 310.67 19.6
4 -9 -1 348.37 17.2
4 -9 -1 321.17 18.4
-4 9 1 353.56 19.3
3 -9 -1 76.89 11.3
-3 9 1 70.59 11
2 -9 -1 19.1 7.5
-2 9 1 22.3 8.5
1 -9 -1 63.79 8.4
-1 9 1 62.99 9
0 -9 -1 53.19 8.1
0 9 1 45 8.2
-1 -9 -1 9.5 7.2
-2 -9 -1 42.3 9
-3 -9 -1 12 9.4
-4 -9 -1 7 10.5
5 -10 -1 27.6 10.3
5 -10 -1 28.1 10.7
-5 10 1 13.1 13.2
4 -10 -1 83.79 14.1
4 -10 -1 94.09 13.4
-4 10 1 74.79 13.5
3 -10 -1 49.7 9.7
-3 10 1 42.9 10.8
2 -10 -1 12.8 7.6
-2 10 1 24 9.3
1 -10 -1 21.9 7.5
-1 10 1 25.6 8.5
0 -10 -1 39.9 8
0 10 1 32.7 8.1
-1 -10 -1 -2.5 7.6
-2 -10 -1 -2.9 8.7
-3 -10 -1 -0.4 10
4 -11 -1 20.6 9.8
-4 11 1 17.5 12.7
3 -11 -1 93.79 13.1
-3 11 1 99.69 13.8
2 -11 -1 36.2 8.8
-2 11 1 25.1 10.1
1 -11 -1 33.4 8.5
-1 11 1 35.3 9.5
0 -11 -1 6.1 7.5
0 11 1 11 8
-1 -11 -1 59.49 9.7
-2 -11 -1 -2.7 9.1
3 -12 -1 7.1 9.3
-3 12 1 4.7 11.7
2 -12 -1 167.18 14.4
-2 12 1 172.18 16.8
1 -12 -1 14.2 8.4
-1 12 1 8.1 9.3
0 -12 -1 2.7 8
0 12 1 7.2 8.4
-1 -12 -1 13 9.1
1 12 -2 36.6 9.3
-1 -12 2 31 9
0 12 -2 56.59 10.1
0 -12 2 47.1 9.4
-1 12 -2 41.5 10.2
1 -12 2 39.5 9
-2 12 -2 81.19 12.3
2 -12 2 73.59 10.8
-3 12 -2 14.5 11.9
3 -12 2 21 9.1
-2 -11 2 7.9 8.8
1 11 -2 54.09 9.2
-1 -11 2 45 8.8
0 11 -2 79.99 12.4
0 -11 2 72.89 11
-1 11 -2 85.69 12.6
1 -11 2 92.59 11.1
-2 11 -2 39.6 10.6
2 -11 2 25.6 8.2
-3 11 -2 23.1 10.9
3 -11 2 14.8 8.4
-4 11 -2 70.59 13.9
4 -11 2 91.29 14
-3 -10 2 27.6 10
2 10 -2 117.39 12.6
-2 -10 2 143.09 12.6
1 10 -2 115.59 11.9
-1 -10 2 118.59 11.2
0 10 -2 168.08 12.9
0 -10 2 166.78 11.5
-1 10 -2 249.18 14.8
1 -10 2 255.67 13.2
-2 10 -2 62.89 10.4
2 -10 2 69.99 10.5
-3 10 -2 19.9 10
3 -10 2 30.6 8.1
-4 10 -2 2.2 10.9
4 -10 2 19.6 8.6
-5 10 -2 2.3 12.5
5 -10 2 18.3 9.6
-4 -9 2 135.89 14.8
-3 -9 2 15.2 8.8
2 9 -2 30.1 9.3
-2 -9 2 41.5 8.5
1 9 -2 16.5 7.4
-1 -9 2 12.4 6.7
0 9 -2 32.2 7.7
0 -9 2 28.9 6.8
-1 9 -2 56.89 8.7
1 -9 2 62.89 8.1
-2 9 -2 167.18 13.2
2 -9 2 176.18 11.7
-3 9 -2 318.07 17.1
-3 9 -2 365.76 17.8
3 -9 2 293.87 15.1
-4 9 -2 340.17 18.8
-4 9 -2 322.27 19.2
4 -9 2 305.37 16.5
-5 9 -2 58.99 13
5 -9 2 71.69 10.6
6 -9 2 37.6 9.8
-5 -8 2 27 10.3
-4 -8 2 13.1 8.9
3 8 -2 15.6 8.8
-3 -8 2 26 8.2
2 8 -2 4.2 7.5
2 8 -2 18.8 6.9
-2 -8 2 17.6 7
1 8 -2 283.87 13.5
-1 -8 2 273.67 12.5
0 8 -2 630.84 20.4
0 -8 2 591.74 19.4
-1 8 -2 338.37 15.1
1 -8 2 347.87 13.8
-2 8 -2 120.09 11.5
2 -8 2 128.89 9.9
-3 8 -2 62.09 9.5
-3 8 -2 61.99 9.4
3 -8 2 73.59 10
-4 8 -2 422.66 20.4
-4 8 -2 407.26 20.2
4 -8 2 446.36 18
-5 8 -2 59.99 11.8
5 -8 2 58.29 9.6
-6 8 -2 58.39 12.6
-6 8 -2 60.79 12.2
6 -8 2 73.29 10.5
-5 -7 2 132.59 13.8
4 7 -2 184.78 15.1
-4 -7 2 190.28 13.3
3 7 -2 552.84 20.5
-3 -7 2 516.05 18.8
2 7 -2 70.19 9.4
2 7 -2 63.19 8.2
-2 -7 2 72.29 9
1 7 -2 145.29 10.4
1 7 -2 167.68 10.1
-1 -7 2 173.28 9.3
0 7 -2 11.8 5.2
0 -7 2 18.1 4.8
-1 7 -2 33 6.1
1 -7 2 45.3 7
-2 7 -2 100.09 9.8
2 -7 2 112.29 8.6
-3 7 -2 285.77 14.8
3 -7 2 293.77 13.3
-4 7 -2 842.22 27.2
-4 7 -2 834.32 28.9
4 -7 2 759.42 25.5
-5 7 -2 38.6 9.7
-5 7 -2 32.8 9.7
5 -7 2 33.4 8.1
-6 7 -2 10.6 9.3
-6 7 -2 -7.4 9
6 -7 2 2.3 7.5
6 6 -2 96.29 14.8
-6 -6 2 78.59 11.4
5 6 -2 98.89 13.9
-5 -6 2 92.39 12.1
4 6 -2 23 8.2
-4 -6 2 40 7.4
3 6 -2 147.39 11.6
-3 -6 2 145.59 10.1
2 6 -2 86.89 9.3
2 6 -2 91.29 8.4
-2 -6 2 78.19 8
1 6 -2 381.66 13.7
1 6 -2 374.26 13.4
-1 -6 2 370.66 12.7
0 6 -2 540.15 16.7
0 -6 2 520.85 16
-1 6 -2 15.2 4.7
1 -6 2 9.9 4
-2 6 -2 973.6 28.5
2 -6 2 1022.3 27.7
-3 6 -2 109.79 10.1
3 -6 2 137.59 9.2
-4 6 -2 184.88 13.7
-4 6 -2 202.58 12.9
4 -6 2 181.78 11.4
-5 6 -2 106.39 12.5
-5 6 -2 123.69 13.5
5 -6 2 113.79 11.2
-6 6 -2 14.2 9.2
-6 6 -2 28 9.5
6 -6 2 22.4 7.7
-7 6 -2 119.59 15.1
7 -6 2 112.19 13.1
6 5 -2 56.49 10.3
-6 -5 2 74.59 10.1
5 5 -2 175.28 14.1
-5 -5 2 151.58 12
4 5 -2 128.79 11.8
-4 -5 2 112.79 10
3 5 -2 2467.95 63.59
-3 -5 2 2446.96 62.39
2 5 -2 131.59 9.1
2 5 -2 134.59 7.9
-2 -5 2 137.59 7.4
1 5 -2 70.39 7.4
1 5 -2 84.29 6.8
-1 -5 2 81.09 6.2
0 5 -2 6.9 4.5
0 -5 2 6.7 3.6
-1 5 -2 448.26 15
1 -5 2 477.75 14.2
-2 5 -2 372.56 13.4
2 -5 2 357.26 12.2
-3 5 -2 17.5 5.6
-3 5 -2 12.9 5.8
3 -5 2 18.9 4.8
-4 5 -2 213.48 13.5
-4 5 -2 208.48 12.3
4 -5 2 215.58 11.5
-5 5 -2 211.58 15.1
-5 5 -2 231.58 13.5
5 -5 2 211.88 12.8
-6 5 -2 3.1 7.6
-6 5 -2 0 8.2
6 -5 2 6.5 7
-7 5 -2 5.5 9.2
-7 5 -2 14.3 9.8
7 -5 2 32.1 8.6
6 4 -2 357.66 18.2
-6 -4 2 376.46 17.2
5 4 -2 50.09 8.9
-5 -4 2 53.59 8.4
4 4 -2 341.57 14.7
-4 -4 2 297.77 13.2
3 4 -2 28.5 5.8
-3 -4 2 15.3 4.6
2 4 -2 402.76 13.9
2 4 -2 397.56 12.9
-2 -4 2 398.56 12.2
1 4 -2 1520.15 40.5
1 4 -2 1598.64 40.6
-1 -4 2 1594.44 39.7
0 4 -2 -0.1 3.6
0 -4 2 -3.9 3.1
-1 4 -2 1579.14 40.5
1 -4 2 1539.65 39.5
-2 4 -2 5.6 4.2
-2 4 -2 -2.3 3.7
2 -4 2 -7.1 3.3
-3 4 -2 106.09 8.3
-3 4 -2 97.39 9.1
3 -4 2 105.19 7.6
-4 4 -2 220.78 13.2
-4 4 -2 202.78 11.1
4 -4 2 211.18 10.9
-5 4 -2 95.19 11.9
-5 4 -2 84.49 10.3
5 -4 2 86.29 10.2
-6 4 -2 520.85 23.2
-6 4 -2 523.55 19.9
6 -4 2 488.85 19.5
-7 4 -2 193.18 17.2
7 -4 2 189.28 14.2
6 3 -2 330.37 17.1
6 3 -2 330.37 15.2
5 3 -2 586.24 20
5 3 -2 648.34 21.9
4 3 -2 30.9 5.4
4 3 -2 24.8 6.7
3 3 -2 476.05 14.9
3 3 -2 484.25 15.9
3 3 -2 469.25 14.4
2 3 -2 2.4 4.4
2 3 -2 6.5 3.4
-2 -3 2 9.6 3.1
1 3 -2 262.97 11
1 3 -2 314.17 10
-1 -3 2 324.07 9.2
0 3 -2 181.68 7.3
0 -3 2 196.38 6.5
0 -3 2 186.48 6.9
-1 3 -2 1036.8 26.8
1 -3 2 998.7 26.1
-2 3 -2 8.9 4
-2 3 -2 -3 4.1
-2 3 -2 -3.3 3.6
2 -3 2 -0.4 3.3
-3 3 -2 240.08 10.4
-3 3 -2 265.07 12.1
3 -3 2 266.27 10.3
-4 3 -2 51.19 7.5
-4 3 -2 62.69 7.5
4 -3 2 51.69 7.8
-5 3 -2 1.5 6.8
5 -3 2 2.8 5.8
-6 3 -2 22 8.1
6 -3 2 15.7 7.1
-7 3 -2 83.89 14.4
7 -3 2 114.59 12.6
7 2 -2 77.49 11.4
6 2 -2 126.39 10.3
5 2 -2 11.9 5.3
4 2 -2 86.59 7.1
3 2 -2 1039.7 28.1
3 2 -2 1033.2 27.5
3 2 -2 1057.59 28.5
2 2 -2 237.18 10.5
2 2 -2 289.07 8.6
2 2 -2 258.27 9.4
1 2 -2 28.8 3.9
1 2 -2 27.3 3.8
-1 -2 2 24.5 2.9
-1 -2 2 29 3.9
0 2 -2 2610.74 64.99
0 -2 2 2636.64 64.99
-1 2 -2 1519.85 37
-1 2 -2 1454.65 40
1 -2 2 1437.96 36.8
1 -2 2 1433.16 36.5
-2 2 -2 313.47 9.9
-2 2 -2 278.97 11.4
-2 2 -2 299.07 11.1
2 -2 2 272.47 9.3
2 -2 2 291.77 10.1
-3 2 -2 279.77 12.2
3 -2 2 283.17 10.5
-4 2 -2 377.26 15.9
4 -2 2 359.56 13.7
-5 2 -2 227.88 14.3
5 -2 2 225.58 12.2
-6 2 -2 153.88 13.9
6 -2 2 152.08 12.2
-7 2 -2 92.39 14.2
7 -2 2 112.89 12.4
7 1 -2 11.9 7
6 1 -2 51.39 7.5
5 1 -2 541.95 17.8
4 1 -2 1865.81 47.9
3 1 -2 1452.35 37
3 1 -2 1431.06 37.7
2 1 -2 1764.12 43.4
2 1 -2 1737.23 44.1
2 1 -2 1738.63 44.4
1 1 -2 884.21 22.9
-1 -1 2 881.41 22.7
-1 -1 2 859.51 22.5
-1 -1 2 914.11 22.9
0 1 -2 104.29 3.9
0 1 -2 88.69 4
0 -1 2 107.89 3.9
0 -1 2 98.99 3.9
-1 1 -2 4565.04 120.29
1 -1 2 4484.15 120.19
1 -1 2 4544.35 109.89
-2 1 -2 3079.09 84.09
2 -1 2 3151.38 76.79
-3 1 -2 637.94 20.6
3 -1 2 614.34 18.2
-4 1 -2 3.4 5.1
4 -1 2 -2.8 4.3
-5 1 -2 96.19 11.5
5 -1 2 107.19 9.8
-6 1 -2 16.3 7.9
6 -1 2 15.4 6.7
-7 1 -2 19.8 9.1
7 -1 2 13.4 7.9
7 0 -2 76.69 9.7
6 0 -2 80.39 9.7
-6 0 2 68.89 9.2
5 0 -2 18.7 5.8
4 0 -2 47.9 6.7
4 0 -2 29.1 5
3 0 -2 898.61 26.9
3 0 -2 886.81 23.8
-3 0 2 869.71 26.4
2 0 -2 9999 238.38
2 0 -2 9734.33 242.18
2 0 -2 9889.21 261.27
-2 0 2 9872.51 261.17
1 0 -2 602.14 17
1 0 -2 572.84 15.8
-1 0 2 577.44 15.9
-1 0 2 600.24 16.9
0 0 -2 14.6 1.9
0 0 -2 18.7 2.6
0 0 2 12.2 2
0 0 2 18 2.4
-1 0 -2 1152.98 32.1
-1 0 -2 1196.88 29.3
1 0 2 1153.98 32.1
1 0 2 1183.58 29.4
-2 0 -2 1509.45 41.8
2 0 2 1476.85 41.7
2 0 2 1534.95 38.3
-3 0 -2 135.19 8.6
3 0 2 142.09 7.3
-4 0 -2 267.27 12.8
4 0 2 271.57 11.2
-5 0 -2 509.35 20.2
5 0 2 519.35 18.1
-6 0 -2 -1.3 6.7
6 0 2 6.4 6.4
-7 0 -2 -9.4 7.8
7 0 2 5.9 7.6
7 -1 -2 110.49 12.2
-7 1 2 110.99 13.1
-7 1 2 114.19 11.1
6 -1 -2 18.9 6.7
-6 1 2 27.5 7.6
-6 1 2 25.2 6.6
5 -1 -2 475.85 16.8
5 -1 -2 492.85 20
-5 1 2 457.15 16.9
4 -1 -2 1663.03 47.7
4 -1 -2 1616.74 42.8
3 -1 -2 8.3 4.5
3 -1 -2 8.3 3.6
2 -1 -2 2561.24 70.09
2 -1 -2 2595.34 63.59
-2 1 2 2586.54 70.09
1 -1 -2 300.77 10.2
-1 1 2 312.37 9.3
-1 1 2 305.67 10.1
0 -1 -2 32.7 2.8
0 -1 -2 24.1 3
0 1 2 23.8 3.9
0 1 2 21.3 3.2
-1 -1 -2 1280.77 34.4
-1 -1 -2 1298.97 31.7
1 1 2 1230.08 31.5
1 1 2 1223.08 31.7
-2 -1 -2 151.08 7.5
2 1 2 157.98 6.8
2 1 2 145.09 7.1
2 1 2 163.88 7.1
-3 -1 -2 48.3 6.3
3 1 2 47.9 5.3
4 1 2 361.96 13.2
5 1 2 336.47 14.1
-6 -1 -2 1.5 6.9
6 1 2 -2.1 6.2
7 1 2 5.7 7.6
7 -2 -2 28.1 8.3
-7 2 2 29.8 8.9
-7 2 2 17 7.6
6 -2 -2 17.7 7
-6 2 2 12.5 6.8
-6 2 2 18.6 7.8
5 -2 -2 -6.4 6.3
5 -2 -2 -4.8 5.1
-5 2 2 -2.9 5.9
4 -2 -2 809.52 26.3
4 -2 -2 819.72 23.3
-4 2 2 783.22 23.9
3 -2 -2 707.63 22.8
3 -2 -2 734.63 20.2
-3 2 2 710.33 21.1
2 -2 -2 34.9 5
2 -2 -2 59.29 5.1
-2 2 2 42.5 6.6
-2 2 2 43.2 6.3
1 -2 -2 294.17 10.3
1 -2 -2 307.87 8.9
-1 2 2 283.17 10.2
-1 2 2 281.87 9.7
0 -2 -2 -0.1 2.4
0 -2 -2 -2.8 2.3
0 2 2 -5.7 2.5
-1 -2 -2 3308.87 80.89
1 2 2 3303.37 81.19
2 2 2 371.66 11.8
2 2 2 364.56 12
3 2 2 467.65 14.9
3 2 2 470.55 14.6
4 2 2 260.37 11.5
4 2 2 271.57 12.2
5 2 2 128.49 10.4
6 2 2 8 6.6
7 2 2 218.28 14.7
7 -3 -2 37.3 9
-7 3 2 38.8 9
-7 3 2 25.2 9.4
6 -3 -2 8.3 6.7
-6 3 2 2.2 7
5 -3 -2 5.9 6.7
5 -3 -2 -1.7 5.6
-5 3 2 4.2 6.4
4 -3 -2 268.07 11.4
4 -3 -2 259.97 13.5
-4 3 2 271.67 12.5
3 -3 -2 170.78 8.2
3 -3 -2 177.68 9.9
-3 3 2 173.48 9.5
2 -3 -2 10.1 4
2 -3 -2 5.6 3.4
-2 3 2 17.6 4.8
-2 3 2 19.1 4.3
1 -3 -2 288.87 9.3
1 -3 -2 274.77 10.5
-1 3 2 258.17 9.7
-1 3 2 279.87 10.5
0 -3 -2 196.78 7.3
0 3 2 176.58 7.6
-1 -3 -2 173.68 7.2
1 3 2 171.88 7.9
-2 -3 -2 -4.7 3.8
2 3 2 -2.8 3.9
3 3 2 83.79 7.7
3 3 2 94.99 7.2
4 3 2 76.19 9.6
4 3 2 83.99 9
5 3 2 408.26 16.8
5 3 2 446.96 17.7
6 3 2 37.6 8.1
7 -4 -2 8.3 8.1
-7 4 2 14.4 8.5
-7 4 2 16.3 9.1
6 -4 -2 7.5 6.8
-6 4 2 7.7 7.4
5 -4 -2 560.74 22.3
5 -4 -2 560.74 19.2
-5 4 2 545.85 20.4
4 -4 -2 767.82 23.2
4 -4 -2 792.82 26.6
-4 4 2 791.12 24.5
3 -4 -2 709.43 20.5
3 -4 -2 706.93 23.1
-3 4 2 701.63 21.5
2 -4 -2 939.51 28.4
2 -4 -2 928.31 25.5
-2 4 2 992.3 26.7
1 -4 -2 143.09 7.6
-1 4 2 158.38 7.9
0 -4 -2 1.8 3.6
0 4 2 10.1 4
-1 -4 -2 20.2 3.9
1 4 2 16.9 4.4
-2 -4 -2 28.7 4.5
2 4 2 25.5 5.2
-3 -4 -2 50.99 7.9
3 4 2 48.3 6.3
-4 -4 -2 32.9 7.7
4 4 2 36 7.3
5 4 2 19.8 7.9
-6 -4 -2 65.49 10.2
7 -5 -2 59.09 10.3
-7 5 2 57.79 10.7
6 -5 -2 -4.1 6.6
6 -5 -2 -5.7 8
-6 5 2 7.5 8.3
5 -5 -2 480.15 20.7
5 -5 -2 472.35 18.1
-5 5 2 485.65 19.5
4 -5 -2 40.8 7.9
4 -5 -2 32.9 6.6
-4 5 2 34.2 7.5
3 -5 -2 338.97 12.7
3 -5 -2 359.16 14.8
-3 5 2 339.47 13.6
2 -5 -2 19.6 4.8
2 -5 -2 22.3 4.5
-2 5 2 18.3 5.2
1 -5 -2 296.07 11
-1 5 2 301.77 11.2
0 -5 -2 93.49 6.9
-1 -5 -2 229.98 9.7
1 5 2 231.58 10.2
-2 -5 -2 21.2 4.8
2 5 2 15.2 5.3
-3 -5 -2 824.62 24.6
3 5 2 827.12 25.1
-4 -5 -2 27.3 7.1
4 5 2 -1.1 7
-5 -5 -2 165.78 13.2
5 5 2 204.58 14.7
-6 -5 -2 22.5 9.3
6 5 2 27.2 10
6 -6 -2 26.2 8.2
6 -6 -2 29.7 9.4
-6 6 2 5.5 9.1
5 -6 -2 568.64 20.5
5 -6 -2 593.54 23.9
-5 6 2 585.84 22.2
4 -6 -2 923.41 27.7
4 -6 -2 942.21 31.2
-4 6 2 918.71 29.1
3 -6 -2 360.16 13.8
3 -6 -2 356.46 15.6
-3 6 2 362.06 15.1
2 -6 -2 128.89 8.5
-2 6 2 127.29 9.4
1 -6 -2 151.48 8.9
-1 6 2 164.48 9
0 -6 -2 1624.84 43.2
0 6 2 1679.23 43.2
-1 -6 -2 13.4 5.3
1 6 2 -1.3 5.2
-2 -6 -2 126.59 9.5
2 6 2 101.49 9.8
-3 -6 -2 293.97 13.9
3 6 2 307.57 14.7
-4 -6 -2 -0.3 7.2
4 6 2 6.2 8
-5 -6 -2 49 9.2
5 6 2 43.5 10.1
6 -7 -2 19.5 9.5
6 -7 -2 12.9 8.4
-6 7 2 4.6 9.7
5 -7 -2 152.78 12.3
5 -7 -2 143.49 14
-5 7 2 140.59 14.2
4 -7 -2 571.54 22.6
4 -7 -2 551.54 20.2
-4 7 2 556.84 21.5
3 -7 -2 27.8 7
3 -7 -2 24 7.1
-3 7 2 45.3 8.2
2 -7 -2 121.19 9.8
-2 7 2 129.79 10.5
1 -7 -2 91.69 8.8
-1 7 2 95.49 9.2
0 -7 -2 822.12 24.3
0 7 2 829.22 24.1
-1 -7 -2 39.7 7
1 7 2 26.9 6.8
-2 -7 -2 77.49 10.2
2 7 2 79.39 10.6
-3 -7 -2 292.57 15.1
3 7 2 286.77 15.9
-4 -7 -2 4 8.2
4 7 2 18.6 9.1
-5 -7 -2 67.19 10.9
6 -8 -2 95.39 15.8
6 -8 -2 155.18 14.6
-6 8 2 140.99 16.7
5 -8 -2 78.89 13.5
5 -8 -2 94.79 12.6
-5 8 2 81.79 12
4 -8 -2 56.39 8.9
4 -8 -2 57.69 9.7
-4 8 2 43.8 9.9
3 -8 -2 0 7
-3 8 2 6.1 8.1
2 -8 -2 73.39 9.7
-2 8 2 53.49 8.7
1 -8 -2 753.42 24.1
-1 8 2 816.02 24.7
0 -8 -2 660.13 21.4
0 8 2 659.93 21.4
-1 -8 -2 357.26 15.3
2 8 2 119.89 13.4
-3 -8 -2 8.1 8.5
3 8 2 3.5 8.9
-4 -8 -2 26 10.1
4 8 2 29.9 10.8
5 -9 -2 23.3 9.4
5 -9 -2 5.9 9.1
-5 9 2 -0.4 10.6
4 -9 -2 376.16 19.6
4 -9 -2 362.16 17.8
-4 9 2 336.17 19.3
3 -9 -2 131.09 12.2
-3 9 2 116.89 14.1
2 -9 -2 424.46 17.8
-2 9 2 476.85 19.2
1 -9 -2 -6.7 6.1
-1 9 2 -1 7.6
0 -9 -2 24.9 7.4
0 9 2 15.8 7.4
-1 -9 -2 38.7 8.6
-2 -9 -2 -0.2 8.2
-3 -9 -2 51.09 10.7
-4 -9 -2 62.89 12.4
5 -10 -2 16.1 10.2
5 -10 -2 -9.5 9.1
-5 10 2 1 11.9
4 -10 -2 14.7 9.2
4 -10 -2 14.8 9.3
-4 10 2 -0.4 11
3 -10 -2 62.19 9.9
-3 10 2 56.59 11.5
2 -10 -2 5.3 7.4
-2 10 2 -6.6 8.9
1 -10 -2 37.2 8.2
-1 10 2 16.3 8.3
0 -10 -2 180.08 12.4
0 10 2 176.38 12.6
-1 -10 -2 3.2 7.5
-2 -10 -2 5 8.9
-3 -10 -2 35.8 11.3
4 -11 -2 316.97 18.6
-4 11 2 281.97 21.8
3 -11 -2 179.28 14.9
-3 11 2 174.98 17.6
2 -11 -2 24.2 8.6
-2 11 2 25.1 10.2
1 -11 -2 3.4 7.5
-1 11 2 -4.1 8.5
0 -11 -2 25.2 8.3
-1 -11 -2 57.09 10.3
-2 -11 -2 5.8 9.8
2 -12 -2 89.59 13.2
-2 12 2 96.99 15.4
1 -12 -2 -3.9 8.2
-1 12 2 -1.3 8.8
0 -12 -2 97.49 12.5
0 12 2 97.29 13.1
1 12 -3 15.3 8.9
-1 -12 3 29.2 9
0 12 -3 48.1 9.9
0 -12 3 35.3 9.1
-1 12 -3 21.7 9.8
1 -12 3 7 8
-2 12 -3 56.49 11.8
2 -12 3 32.1 9.3
-3 12 -3 -2.5 11.7
3 -12 3 19.3 9.1
2 11 -3 24.2 9.1
-2 -11 3 15.3 8.7
1 11 -3 165.38 13.8
-1 -11 3 179.88 13
0 11 -3 25.8 8.8
0 -11 3 16.8 7.9
-1 11 -3 61.79 10
1 -11 3 62.59 9.2
-2 11 -3 59.29 10.8
2 -11 3 57.49 9.4
-3 11 -3 26.2 11.5
3 -11 3 23.2 8.6
-4 11 -3 12.6 12.3
4 -11 3 38.8 10.2
-3 -10 3 8 9.1
2 10 -3 17 8.3
2 10 -3 33 10.2
-2 -10 3 8 7.9
1 10 -3 192.38 13.4
-1 -10 3 180.68 12.2
0 10 -3 77.49 9.9
0 -10 3 93.79 10.5
-1 10 -3 229.48 14
1 -10 3 224.88 13.1
-2 10 -3 29.8 9.4
2 -10 3 14.3 7.5
-3 10 -3 94.19 13.8
3 -10 3 118.49 12.1
-4 10 -3 52.99 12.8
4 -10 3 84.59 12.6
-5 10 -3 -4.1 12.1
5 -10 3 13.5 9.7
-4 -9 3 53.59 11
-3 -9 3 31.1 8.7
2 9 -3 12.4 7.6
2 9 -3 0.6 8.4
-2 -9 3 13.5 7.3
1 9 -3 153.28 13.2
1 9 -3 194.68 12.4
-1 -9 3 181.88 11.4
0 9 -3 252.57 13.6
0 -9 3 238.58 12.2
-1 9 -3 117.09 11.8
1 -9 3 129.79 10.4
-2 9 -3 30.8 8.4
2 -9 3 35.2 7.2
-3 9 -3 61.39 10.4
-3 9 -3 62.59 9.7
3 -9 3 99.29 11.2
-4 9 -3 5.1 9.6
4 -9 3 39.5 8.6
-5 9 -3 131.29 17
5 -9 3 148.19 13.9
-5 -8 3 93.69 14.5
-4 -8 3 15.4 8.9
3 8 -3 118.99 14.1
3 8 -3 116.09 11.3
-3 -8 3 129.39 11.8
2 8 -3 69.59 10.5
-2 -8 3 61.99 9.5
1 8 -3 183.98 11.6
1 8 -3 169.38 11.9
-1 -8 3 171.88 10.5
0 8 -3 38.3 7
0 -8 3 35.1 6.1
-1 8 -3 198.48 12
1 -8 3 182.38 10.5
-2 8 -3 510.05 18.9
2 -8 3 484.15 17.7
-3 8 -3 8.8 8
-3 8 -3 -1.7 7.4
3 -8 3 0 6.6
-4 8 -3 103.19 13.6
-4 8 -3 95.09 14.1
4 -8 3 97.89 11.6
-5 8 -3 16.8 10.6
5 -8 3 9.5 7.7
-6 8 -3 82.49 13.3
-6 8 -3 74.39 13.3
6 -8 3 81.69 12.6
-5 -7 3 7.6 8.6
4 7 -3 13.9 8.9
-4 -7 3 11.4 7.7
3 7 -3 41.5 8.5
-3 -7 3 44.5 7.4
2 7 -3 20.6 6.7
2 7 -3 19.8 6.9
-2 -7 3 21.1 6.2
1 7 -3 24 5.7
1 7 -3 26.4 6.3
-1 -7 3 20.3 5.1
0 7 -3 448.26 15.6
0 -7 3 432.76 14.5
-1 7 -3 276.17 12.6
1 -7 3 288.27 11.4
-2 7 -3 11.2 5.9
2 -7 3 9.9 5.1
-3 7 -3 1470.55 41
-3 7 -3 1482.45 44
3 -7 3 1394.66 39.7
-4 7 -3 13.2 8.4
-4 7 -3 22.3 8.3
-5 7 -3 275.07 16.5
-5 7 -3 268.77 17.6
5 -7 3 272.77 15.1
-6 7 -3 47.8 11
-6 7 -3 48.1 11
6 -7 3 46.7 9
-6 -6 3 58.79 10.4
5 6 -3 93.09 13.7
-5 -6 3 111.19 11.9
4 6 -3 396.66 17.5
-4 -6 3 385.76 15.8
3 6 -3 189.38 10.9
3 6 -3 209.48 12.7
-3 -6 3 197.38 10.8
2 6 -3 112.09 8.7
2 6 -3 104.59 9.6
-2 -6 3 91.49 8
1 6 -3 384.96 14.1
1 6 -3 397.96 13.7
-1 -6 3 373.36 12.7
0 6 -3 390.76 13.8
0 -6 3 408.16 13
-1 6 -3 1144.69 31.5
1 -6 3 1137.89 30.5
-2 6 -3 164.58 10.1
2 -6 3 178.68 8.8
-3 6 -3 699.53 23.5
-3 6 -3 676.03 22.2
3 -6 3 671.53 21.2
-4 6 -3 387.36 18.1
-4 6 -3 377.76 16.5
4 -6 3 368.46 15.3
-5 6 -3 87.29 11.5
-5 6 -3 61.89 9.9
5 -6 3 68.39 10.4
-6 6 -3 69.49 11
-6 6 -3 63.69 10.3
6 -6 3 75.89 10
6 5 -3 34.1 9.7
-6 -5 3 41.4 9
5 5 -3 36.8 8.8
-5 -5 3 44.9 8.1
4 5 -3 344.17 15.6
4 5 -3 293.77 13.6
-4 -5 3 313.67 13.4
3 5 -3 1391.26 38.5
3 5 -3 1378.76 37.7
-3 -5 3 1428.56 37
2 5 -3 4.4 4.4
2 5 -3 5.9 4.9
-2 -5 3 7.9 4
1 5 -3 405.56 13.5
1 5 -3 391.56 13.9
-1 -5 3 418.96 12.6
0 5 -3 613.24 18.4
0 -5 3 622.24 17.5
-1 5 -3 -2.7 4.2
1 -5 3 -4 3.2
-2 5 -3 13.8 4.9
2 -5 3 18.6 4.2
-3 5 -3 283.77 12.6
-3 5 -3 300.57 13.8
3 -5 3 293.57 11.9
-4 5 -3 1353.16 40.9
-4 5 -3 1288.07 36.9
4 -5 3 1311.57 36.7
-5 5 -3 182.18 14.3
-5 5 -3 181.88 12.7
5 -5 3 185.48 12.3
-6 5 -3 119.99 12.8
-6 5 -3 132.29 14.5
6 -5 3 128.69 12
7 -5 3 3.3 8
-6 -4 3 464.45 18.8
5 4 -3 143.19 12.8
-5 -4 3 144.49 11.1
4 4 -3 30.5 6.3
4 4 -3 38.3 7.4
-4 -4 3 34.6 6.3
3 4 -3 11.7 4.8
3 4 -3 18.3 5.8
-3 -4 3 2.5 4
2 4 -3 92.19 6.6
2 4 -3 76.39 8.2
-2 -4 3 98.09 5.7
1 4 -3 727.13 21.2
1 4 -3 779.12 21.1
-1 -4 3 751.82 20.1
0 4 -3 139.29 7.5
0 -4 3 131.69 6.3
-1 4 -3 324.17 11.3
1 -4 3 307.87 10.3
-2 4 -3 75.39 7.1
-2 4 -3 51.89 7.4
-2 4 -3 62.49 6.8
2 -4 3 61.09 5.8
-3 4 -3 8.8 4.7
-3 4 -3 1.1 4.8
3 -4 3 1 4.2
-4 4 -3 150.58 9.9
-4 4 -3 123.19 11.4
4 -4 3 114.89 9.6
-5 4 -3 101.89 10.1
-5 4 -3 111.19 12.5
5 -4 3 92.69 10.5
-6 4 -3 546.65 23.8
6 -4 3 530.15 20.4
-7 4 -3 278.47 19.5
7 -4 3 278.27 16.2
6 3 -3 39.9 7.2
5 3 -3 65.09 8.8
4 3 -3 295.37 12.4
4 3 -3 291.47 11.5
4 3 -3 299.37 13.5
3 3 -3 764.12 22.1
3 3 -3 779.32 22.7
2 3 -3 407.86 13
2 3 -3 437.56 14
-2 -3 3 409.06 11.9
1 3 -3 229.08 8.6
1 3 -3 217.18 9.3
-1 -3 3 250.87 7.7
0 3 -3 604.74 17
0 -3 3 606.24 16
-1 3 -3 81.29 6
1 -3 3 57.89 4.9
-2 3 -3 617.04 20.1
-2 3 -3 640.84 19.9
-2 3 -3 656.63 18.4
2 -3 3 619.04 18
-3 3 -3 374.26 14.7
3 -3 3 372.06 13
-4 3 -3 1171.48 36.2
4 -3 3 1158.98 32.6
-5 3 -3 2.8 7
5 -3 3 8.2 6.2
-6 3 -3 433.46 20.7
6 -3 3 399.36 17.6
-7 3 -3 -1.7 9.3
7 -3 3 -5.5 7.1
7 2 -3 162.68 12.9
6 2 -3 45.7 7.1
5 2 -3 385.36 14.1
5 2 -3 371.86 15
4 2 -3 209.28 10.6
4 2 -3 223.48 9.3
3 2 -3 158.28 8
3 2 -3 157.48 8.9
3 2 -3 157.18 6.8
2 2 -3 25.1 3.8
2 2 -3 27.8 4.4
2 2 -3 27.9 5.1
1 2 -3 2154.18 55.69
-1 -2 3 2188.68 55.19
-1 -2 3 2326.87 55.79
0 2 -3 3241.38 78.89
0 2 -3 3246.68 79.99
0 -2 3 3175.68 78.89
0 -2 3 3258.47 79.89
-1 2 -3 174.88 7.1
-1 2 -3 176.88 6.7
1 -2 3 166.28 6.3
1 -2 3 163.98 6.8
1 -2 3 163.38 6.3
-2 2 -3 3485.35 96.09
2 -2 3 3635.74 87.79
-3 2 -3 67.59 7.8
3 -2 3 68.39 6.4
-4 2 -3 305.77 14.4
4 -2 3 307.07 12.6
-5 2 -3 557.14 22.1
5 -2 3 545.25 19.3
-6 2 -3 81.39 12.6
6 -2 3 83.39 10.8
-7 2 -3 448.76 22.4
7 -2 3 428.36 19.2
7 1 -3 -12.2 6.8
6 1 -3 49.2 7.4
5 1 -3 306.17 12.3
4 1 -3 39 5.7
4 1 -3 55.59 7.5
3 1 -3 1325.07 35.7
3 1 -3 1376.66 34.7
2 1 -3 2450.65 60.69
2 1 -3 2417.56 58.99
-2 -1 3 2345.37 59.79
-1 1 -3 140.69 6.4
1 -1 3 149.49 6.3
1 -1 3 142.59 5.7
-2 1 -3 1647.44 45.6
2 -1 3 1596.44 45.4
2 -1 3 1677.73 41.7
-3 1 -3 49.8 7.3
3 -1 3 54.29 5.9
-4 1 -3 470.05 17.8
4 -1 3 446.26 15.8
-5 1 -3 30 7.7
5 -1 3 36 6.8
-6 1 -3 -4.1 7.1
6 -1 3 6 6.5
-7 1 -3 52.49 10.4
7 -1 3 60.79 9.8
7 0 -3 12.1 7.4
-7 0 3 10.7 7.5
-7 0 3 17.3 6.9
6 0 -3 7.2 6.1
5 0 -3 38.6 8.2
5 0 -3 34.8 6
4 0 -3 10.3 4.2
4 0 -3 8.1 5.6
3 0 -3 87.29 7.7
3 0 -3 70.29 6.8
3 0 -3 59.49 5.5
-3 0 3 76.39 7.2
2 0 -3 3624.64 98.89
2 0 -3 3610.14 91.69
2 0 -3 3728.53 89.69
-2 0 3 3772.02 98.89
1 0 -3 358.36 10.6
1 0 -3 389.86 11.3
1 0 -3 400.96 12.2
-1 0 3 409.36 11.3
-1 0 3 381.66 11.9
-1 0 3 354.66 10.7
0 0 -3 5607.24 141.89
0 0 -3 5270.97 129.99
0 0 3 5436.76 141.79
0 0 3 5111.39 129.99
-1 0 -3 616.64 15.8
-1 0 -3 610.44 17.5
1 0 3 580.84 15.9
1 0 3 570.34 15.8
1 0 3 604.34 17.4
-2 0 -3 9 3.6
2 0 3 6.6 3.1
2 0 3 -0.6 3.1
-3 0 -3 238.18 10.8
3 0 3 248.98 9.7
-4 0 -3 20.6 5.5
4 0 3 0.9 4.3
-5 0 -3 30.1 7
5 0 3 17.4 6.3
-6 0 -3 92.99 12.1
6 0 3 98.79 10.9
-7 0 -3 41.7 9.9
7 0 3 49.8 9.3
7 -1 -3 63.99 9.3
-7 1 3 55.79 9.8
-7 1 3 68.59 10.8
6 -1 -3 215.48 12.2
-6 1 3 205.78 12.4
5 -1 -3 495.55 17.1
5 -1 -3 499.05 20.1
4 -1 -3 115.09 7.4
4 -1 -3 108.39 10.2
3 -1 -3 5276.17 142.99
3 -1 -3 5362.36 129.99
2 -1 -3 4181.18 101.79
2 -1 -3 4197.18 112.29
-2 1 3 4162.68 112.09
1 -1 -3 207.68 8.5
-1 1 3 212.78 8.4
-1 1 3 214.58 7.5
0 -1 -3 9.6 2.2
0 -1 -3 10 2
0 -1 -3 12 3
0 1 3 9.9 2.9
0 1 3 7.3 2.4
-1 -1 -3 124.89 5.9
1 1 3 116.19 5
1 1 3 103.99 5.6
1 1 3 114.89 5.7
-2 -1 -3 56.69 6
2 1 3 49.2 5.2
2 1 3 56.29 5.1
2 1 3 44.3 5.9
-3 -1 -3 4.8 3.9
3 1 3 0.9 3.5
-4 -1 -3 65.89 8.5
4 1 3 67.09 7.5
-5 -1 -3 703.83 24.3
5 1 3 675.03 22.1
-6 -1 -3 0.2 6.9
6 1 3 -4.8 6.2
7 1 3 124.39 13.2
7 -2 -3 12.1 7.9
-7 2 3 11.5 8.1
-7 2 3 7.3 7.6
6 -2 -3 -2.9 6.2
6 -2 -3 6.3 8.1
-6 2 3 -5.5 6.5
5 -2 -3 1.8 5.6
5 -2 -3 10.4 7.1
-5 2 3 6.7 6.2
4 -2 -3 55.29 7.2
4 -2 -3 54.19 7.1
-4 2 3 56.49 6.7
3 -2 -3 580.54 19.3
3 -2 -3 573.64 16.6
-3 2 3 561.24 17.8
2 -2 -3 327.67 12.4
2 -2 -3 311.77 9.9
-2 2 3 315.57 11.9
-2 2 3 292.17 11.1
1 -2 -3 521.15 16.4
1 -2 -3 547.95 14.4
-1 2 3 527.15 15.2
-1 2 3 514.15 16.2
0 -2 -3 3864.01 95.49
0 -2 -3 3388.56 87.59
0 -2 -3 3558.04 87.09
0 2 3 3351.96 87.29
0 2 3 3700.13 95.49
-1 -2 -3 608.34 17.3
-1 -2 -3 666.03 18.8
1 2 3 625.24 18.6
1 2 3 641.64 17.6
2 2 3 247.68 9.7
2 2 3 260.07 9.4
3 2 3 452.15 14.5
3 2 3 451.75 14.7
4 2 3 950.5 27.7
4 2 3 992.6 27.9
5 2 3 65.69 9.2
6 2 3 39.6 8
7 -3 -3 -7.1 7.3
-7 3 3 -1.3 7.6
-7 3 3 12.1 8.1
6 -3 -3 140.69 11.2
6 -3 -3 123.79 13.7
-6 3 3 127.19 12.2
5 -3 -3 424.76 18.8
5 -3 -3 417.36 15.9
-5 3 3 420.46 17.4
4 -3 -3 4.1 4.8
4 -3 -3 3 5.7
-4 3 3 13.3 5.9
3 -3 -3 4 3.8
3 -3 -3 -1.3 4.3
-3 3 3 -3.5 4.6
2 -3 -3 293.37 9.8
2 -3 -3 298.07 12.1
-2 3 3 290.17 11.8
-2 3 3 294.47 11.4
1 -3 -3 1126.19 28.3
1 -3 -3 1109.19 31.2
-1 3 3 1062.79 28.8
-1 3 3 1047.8 31
0 -3 -3 274.67 10.3
0 -3 -3 265.77 9.5
-1 -3 -3 43.1 4.5
1 3 3 67.29 6.3
-2 -3 -3 2825.62 69.79
2 3 3 2762.82 69.99
3 3 3 5.6 4.4
3 3 3 15.4 5.1
4 3 3 4.1 5.7
4 3 3 5.4 6.2
5 3 3 143.29 12.3
5 3 3 107.89 11
6 3 3 2.3 7.4
7 -4 -3 86.89 12.2
-7 4 3 85.99 13.9
-7 4 3 82.19 12.6
6 -4 -3 9.3 8.5
6 -4 -3 14 7
-6 4 3 10.1 7.9
5 -4 -3 8.4 6.1
5 -4 -3 21.6 7.7
-5 4 3 10.2 7.4
4 -4 -3 79.69 8.2
4 -4 -3 87.19 10.5
-4 4 3 78.39 9.9
3 -4 -3 21.7 4.7
3 -4 -3 23 5.5
-3 4 3 14.7 4.9
2 -4 -3 2 3.5
2 -4 -3 4.5 4.4
-2 4 3 3.6 4.3
1 -4 -3 169.08 9
1 -4 -3 170.78 8
-1 4 3 173.18 8.2
0 -4 -3 213.78 8.9
-1 -4 -3 363.46 12
1 4 3 352.56 12.3
-2 -4 -3 32 4.9
2 4 3 34.2 5.4
-3 -4 -3 104.99 9
3 4 3 100.89 9.3
-4 -4 -3 372.66 16
4 4 3 407.06 16.1
-5 -4 -3 259.37 14.3
5 4 3 244.48 15
-6 -4 -3 78.99 10.8
6 4 3 94.59 13.8
7 -5 -3 8 8.3
-7 5 3 -1.9 9.4
6 -5 -3 76.59 13.2
6 -5 -3 71.19 10.7
-6 5 3 87.59 12.8
5 -5 -3 19.7 7.9
5 -5 -3 18.9 6.9
-5 5 3 12.4 7.8
4 -5 -3 372.16 17.2
4 -5 -3 379.36 14.9
-4 5 3 390.26 16.3
3 -5 -3 119.39 10.1
3 -5 -3 120.49 8.3
-3 5 3 117.19 9.5
2 -5 -3 627.84 20.8
2 -5 -3 633.64 18.7
-2 5 3 618.64 19.3
1 -5 -3 19 4.6
-1 5 3 28.5 4.9
0 -5 -3 -6.9 3.9
-1 -5 -3 277.77 10.9
1 5 3 282.97 11.3
-2 -5 -3 7.2 4.7
2 5 3 7.9 5.3
-3 -5 -3 7.3 6.1
3 5 3 3.1 5.9
-4 -5 -3 24.6 7.6
4 5 3 22.8 7.6
-5 -5 -3 55.69 9.4
5 5 3 43.2 9.6
-6 -5 -3 0.7 8.5
6 5 3 -8.4 8.9
6 -6 -3 74.79 11.2
6 -6 -3 72.79 9.7
-6 6 3 79.69 11.4
5 -6 -3 21.2 8.3
5 -6 -3 40.8 8.1
-5 6 3 23.2 8.6
4 -6 -3 64.79 9.6
4 -6 -3 52.49 8.7
-4 6 3 46.5 8.4
3 -6 -3 506.85 17.2
3 -6 -3 500.45 19.5
-3 6 3 488.25 18.3
2 -6 -3 199.88 11.2
2 -6 -3 178.88 10.1
-2 6 3 195.98 10.7
1 -6 -3 232.88 10.6
-1 6 3 242.28 10.7
0 -6 -3 48 6.1
-1 -6 -3 983.8 27.7
1 6 3 965.2 27.7
-2 -6 -3 895.21 26.5
2 6 3 902.41 27
-3 -6 -3 111.39 10.7
3 6 3 114.79 11.8
-4 -6 -3 72.19 11.3
4 6 3 58.19 9.9
-5 -6 -3 11.4 8.3
5 6 3 12.5 9.5
6 -7 -3 4.4 8.7
6 -7 -3 18.1 9.1
-6 7 3 -3.4 10.2
5 -7 -3 17 8.7
5 -7 -3 18.3 8.1
-5 7 3 12 9.2
4 -7 -3 1.6 7.3
4 -7 -3 1 6.7
-4 7 3 -1.8 7.9
3 -7 -3 3.9 6.5
3 -7 -3 16.4 7
-3 7 3 0.4 7.4
2 -7 -3 35.6 7.1
-2 7 3 43.8 7.4
1 -7 -3 352.16 14.3
-1 7 3 366.96 14.5
0 -7 -3 114.99 9.5
-1 -7 -3 148.69 10.8
1 7 3 148.19 11.5
-2 -7 -3 13.2 7.2
2 7 3 13.7 7.3
-3 -7 -3 144.49 12.7
3 7 3 137.69 13.1
-4 -7 -3 142.79 13.6
4 7 3 149.59 14.7
-5 -7 -3 72.29 11
5 7 3 81.79 12.3
6 -8 -3 34.1 10.7
6 -8 -3 21.1 9.8
-6 8 3 20.5 11.5
5 -8 -3 151.78 13.6
5 -8 -3 156.18 15.1
-5 8 3 164.18 15.6
4 -8 -3 147.79 12.8
4 -8 -3 161.58 14.4
-4 8 3 146.89 14
3 -8 -3 12.7 7.4
3 -8 -3 29.2 8
-3 8 3 18 8.3
2 -8 -3 -0.2 6.8
-2 8 3 14.9 7.7
1 -8 -3 92.39 10
-1 8 3 76.49 10.6
0 -8 -3 87.69 10
-1 -8 -3 376.26 16.2
1 8 3 389.96 16.9
-2 -8 -3 877.21 28.3
2 8 3 914.01 29.8
-3 -8 -3 137.09 13.7
3 8 3 154.88 15.3
-4 -8 -3 12 9.8
5 -9 -3 0 9.1
5 -9 -3 12.1 8.9
-5 9 3 -20.8 10
4 -9 -3 109.09 14.2
4 -9 -3 84.49 12.6
-4 9 3 98.89 12.3
3 -9 -3 21.5 8.3
-3 9 3 16 9.2
2 -9 -3 86.49 10.9
-2 9 3 74.59 10.2
1 -9 -3 250.87 13.5
-1 9 3 257.87 14.4
0 -9 -3 90.69 10.7
-1 -9 -3 6.5 7.8
-2 -9 -3 3.1 8.4
2 9 3 -19.1 9.2
-3 -9 -3 13 9.7
-4 -9 -3 11 10.6
5 -10 -3 49.3 11.3
4 -10 -3 41.2 10
-4 10 3 51.69 12.5
3 -10 -3 18.2 8.6
-3 10 3 8 10.5
2 -10 -3 90.89 11.7
-2 10 3 95.89 13.5
1 -10 -3 60.39 8.7
-1 10 3 72.39 10
0 -10 -3 221.98 13.4
0 10 3 204.08 13.4
-1 -10 -3 -7 7.5
-2 -10 -3 72.79 11.1
-3 -10 -3 67.29 12.4
4 -11 -3 218.08 16.7
-4 11 3 184.68 20.1
3 -11 -3 12.7 8.8
-3 11 3 -9 10.9
2 -11 -3 21.7 8.7
-2 11 3 12.9 10.1
1 -11 -3 116.59 12.2
-1 11 3 96.99 13.2
0 -11 -3 8.4 8
-1 -11 -3 9.3 8.5
-2 -11 -3 5.9 9.8
2 -12 -3 14.3 9.1
-2 12 3 -13.9 9.9
1 -12 -3 46.6 9.9
-1 12 3 51.69 10.6
0 -12 -3 31.4 9.5
1 12 -4 28.4 9.8
-1 -12 4 35.6 9.3
0 12 -4 42.2 10
0 -12 4 45.4 9.2
-1 12 -4 44.4 10.5
1 -12 4 45.2 9.4
-2 12 -4 5.1 10.2
2 -12 4 22.8 9.1
-3 12 -4 61.89 13.1
3 -12 4 49.4 10.8
2 11 -4 20.1 9.1
-2 -11 4 7.6 8.3
1 11 -4 39.3 9.1
-1 -11 4 35.5 8.1
0 11 -4 14 8.6
0 -11 4 20.3 7.9
-1 11 -4 86.79 12.7
1 -11 4 67.99 9.8
-2 11 -4 23.2 9.9
2 -11 4 15.7 7.9
-3 11 -4 32 11.8
3 -11 4 28.1 9.2
-4 11 -4 37 12.5
4 -11 4 22.9 9.4
3 10 -4 87.99 12.7
-3 -10 4 80.19 10.7
2 10 -4 51.69 9.5
-2 -10 4 69.49 10.6
1 10 -4 243.08 14.6
-1 -10 4 242.58 13.2
0 10 -4 5 7.6
0 -10 4 18.6 7.3
-1 10 -4 33 8.6
1 -10 4 32.4 7.5
-2 10 -4 20 8.9
2 -10 4 12.3 7.3
-3 10 -4 7.1 9.8
3 -10 4 12.3 7.9
-4 10 -4 131.19 16.6
4 -10 4 131.99 13.6
-5 10 -4 -6.8 12.2
5 -10 4 17.9 9.5
-4 -9 4 26.6 9.6
3 9 -4 31.6 9.6
3 9 -4 21.5 7.9
-3 -9 4 27.6 8.5
2 9 -4 23.1 8.2
-2 -9 4 20 7.2
1 9 -4 5.9 7.3
1 9 -4 -2.4 7.3
-1 -9 4 16.3 6.5
0 9 -4 17.5 7.3
0 -9 4 14.4 6.4
-1 9 -4 229.88 13.4
1 -9 4 221.68 12.2
-2 9 -4 209.38 14.4
2 -9 4 215.88 12.3
-3 9 -4 79.99 10.5
-3 9 -4 63.59 10.2
3 -9 4 101.09 11.4
-4 9 -4 7.2 9
-4 9 -4 18.6 10.2
4 -9 4 23.4 8.4
-5 9 -4 69.29 12.6
-5 9 -4 75.89 13
5 -9 4 106.19 12.8
-5 -8 4 21.1 10.1
4 8 -4 68.39 10.6
4 8 -4 65.59 9.2
-4 -8 4 58.89 9.8
3 8 -4 3.5 8.4
3 8 -4 2.8 7.2
-3 -8 4 6.8 7.4
2 8 -4 551.44 20
2 8 -4 533.15 19.7
-2 -8 4 540.45 18.5
1 8 -4 337.67 15
-1 -8 4 340.17 13.4
0 8 -4 30.8 7.1
0 -8 4 32.3 6.2
-1 8 -4 81.59 10.3
-2 8 -4 100.39 11.3
2 -8 4 91.49 9.4
-3 8 -4 26.3 8.1
-3 8 -4 18.5 8.2
3 -8 4 11.4 7
-4 8 -4 80.19 11.2
-4 8 -4 93.99 13.5
4 -8 4 103.09 11.2
-5 8 -4 137.69 15.3
5 -8 4 126.79 13.1
-6 8 -4 52.49 12.2
-6 8 -4 49 12.1
6 -8 4 46.2 9.8
-5 -7 4 186.38 14.2
4 7 -4 231.18 13.6
4 7 -4 231.68 15.6
-4 -7 4 224.78 13.5
3 7 -4 20.6 6.8
3 7 -4 23.5 7.7
-3 -7 4 23.8 6.8
2 7 -4 333.07 15
2 7 -4 344.07 14.7
-2 -7 4 349.87 13.3
1 7 -4 234.48 11.9
1 7 -4 255.87 11.9
-1 -7 4 242.68 10.5
0 7 -4 115.29 9.3
0 -7 4 124.99 8.1
-1 7 -4 13.7 5.8
-2 7 -4 65.19 9.4
2 -7 4 57.89 7.7
-4 7 -4 180.28 14.5
-4 7 -4 162.18 13.8
4 -7 4 198.78 12.6
-5 7 -4 395.46 20.2
-5 7 -4 357.86 18.8
5 -7 4 366.96 17
-6 7 -4 71.29 11.8
-6 7 -4 72.49 12
6 -7 4 81.69 10.7
-6 -6 4 17.3 9.3
5 6 -4 6.5 8.7
-5 -6 4 13.9 7.4
4 6 -4 41.6 8.6
4 6 -4 44.4 7.4
-4 -6 4 34 7
3 6 -4 12.9 6.8
3 6 -4 16.6 6.1
-3 -6 4 12.1 5.9
2 6 -4 106.19 8.9
2 6 -4 109.79 9.6
-2 -6 4 99.79 7.8
1 6 -4 296.37 12.1
1 6 -4 298.47 11.8
-1 -6 4 281.47 10.5
0 6 -4 748.33 22.3
0 -6 4 764.52 21.2
-1 6 -4 84.39 8.2
1 -6 4 81.99 6.5
-2 6 -4 64.79 8.3
2 -6 4 68.39 7
-3 6 -4 105.39 10.3
3 -6 4 113.69 9.2
-4 6 -4 -2.1 7.4
-4 6 -4 -0.3 7.3
4 -6 4 12 6.4
-5 6 -4 5 8
-5 6 -4 -2.4 8
5 -6 4 7 6.8
-6 6 -4 -8.4 8.6
-6 6 -4 7.5 9.3
6 -6 4 11.8 7.6
-6 -5 4 33.5 8.5
-5 -5 4 363.56 15.5
4 5 -4 410.16 16.9
4 5 -4 370.56 15.6
-4 -5 4 393.06 15
3 5 -4 27.9 5.8
-3 -5 4 16.1 4.8
2 5 -4 461.05 15.6
2 5 -4 437.26 15.1
-2 -5 4 450.25 13.9
1 5 -4 60.29 6.5
-1 -5 4 64.49 5.3
0 5 -4 48.7 6.4
0 -5 4 41.7 5.2
-1 5 -4 46.7 7.1
1 -5 4 56.99 5.5
-2 5 -4 799.72 23.2
2 -5 4 786.62 22.5
-3 5 -4 208.98 11.9
-3 5 -4 196.18 10.7
3 -5 4 187.38 10
-4 5 -4 46.1 8.3
-4 5 -4 42.4 7.3
4 -5 4 64.69 9.3
-5 5 -4 7.4 6.9
-5 5 -4 3.8 7.9
5 -5 4 9.1 6.4
-6 5 -4 96.89 14.2
6 -5 4 117.59 12
7 -5 4 -13.1 7.5
-6 -4 4 41.8 9.6
-6 -4 4 30.8 8.5
5 4 -4 134.79 10.5
-5 -4 4 134.09 10.7
4 4 -4 396.96 15.9
4 4 -4 455.95 17.2
-4 -4 4 440.86 15
3 4 -4 16 5.7
3 4 -4 -2.1 4.9
-3 -4 4 -1.1 3.8
2 4 -4 72.39 7.9
2 4 -4 91.09 7
-2 -4 4 89.99 5.4
1 4 -4 133.49 7
-1 -4 4 121.29 7.3
-1 -4 4 103.39 5.8
0 4 -4 516.25 15.7
0 -4 4 518.15 14.4
-1 4 -4 445.96 14.2
1 -4 4 431.06 13
-2 4 -4 856.81 24
-2 4 -4 841.12 25.8
-2 4 -4 890.31 25.9
2 -4 4 826.42 23.5
-3 4 -4 152.58 9.2
-3 4 -4 151.98 10.1
3 -4 4 142.49 8.7
-4 4 -4 24.9 7.1
-4 4 -4 26.1 6.3
4 -4 4 28.2 6.2
-5 4 -4 60.79 9.5
5 -4 4 62.59 9.5
-6 4 -4 79.89 13.7
6 -4 4 101.89 11.6
-7 4 -4 18.3 10.2
7 -4 4 14 8.4
6 3 -4 -5.8 5.8
-6 -3 4 9.2 8
5 3 -4 3.7 5.1
5 3 -4 8.1 6
4 3 -4 487.95 15.6
4 3 -4 496.55 17.1
3 3 -4 395.76 13.7
-3 -3 4 390.76 12.3
2 3 -4 699.43 19.5
-2 -3 4 685.83 19.6
-2 -3 4 664.23 18
1 3 -4 171.18 8
-1 -3 4 188.68 8
0 3 -4 122.29 7
0 -3 4 151.38 5.5
-1 3 -4 132.19 7.2
1 -3 4 122.39 6.3
-2 3 -4 2955.9 71.99
-2 3 -4 2853.11 78.09
2 -3 4 2786.02 71.29
-3 3 -4 455.35 16.5
3 -3 4 426.46 14.6
-4 3 -4 1119.29 34.6
4 -3 4 1072.29 31
-5 3 -4 313.77 16.6
5 -3 4 296.37 14.1
-6 3 -4 451.15 21.8
6 -3 4 460.45 19
-7 3 -4 35.3 10.5
7 -3 4 25.1 8.8
7 2 -4 -9.4 6.8
6 2 -4 -1.1 5.5
5 2 -4 53.59 7.4
5 2 -4 56.99 7.5
4 2 -4 257.17 10.1
4 2 -4 279.67 11.9
-4 -2 4 248.98 12.1
3 2 -4 298.97 11.3
3 2 -4 290.57 9.6
-3 -2 4 298.07 11.5
2 2 -4 655.53 18.5
-2 -2 4 627.54 18.3
1 2 -4 1304.07 33.7
-1 -2 4 1305.07 33.3
0 2 -4 5841.32 145.19
0 -2 4 5999.7 145.19
0 -2 4 5874.61 143.49
-1 2 -4 3964.7 94.59
-1 2 -4 3715.13 102.19
1 -2 4 3815.92 102.19
1 -2 4 3813.82 93.49
-2 2 -4 99.29 7.4
2 -2 4 76.59 6.5
2 -2 4 79.59 6.1
-3 2 -4 452.15 16.5
3 -2 4 456.85 14.8
-4 2 -4 15.9 6
4 -2 4 10.1 5.2
-5 2 -4 275.87 15.8
5 -2 4 273.57 13.7
-6 2 -4 195.88 15.3
6 -2 4 192.98 13.2
-7 2 -4 77.69 11.7
7 -2 4 98.09 12.7
7 1 -4 51.39 8.7
6 1 -4 55.49 7.2
5 1 -4 119.29 8.5
4 1 -4 40.3 5.8
4 1 -4 28.2 4.3
3 1 -4 320.07 10.1
3 1 -4 322.47 11.7
-3 -1 4 305.67 11.2
2 1 -4 192.28 8.7
-2 -1 4 177.48 8.1
1 1 -4 1290.17 33.3
-1 -1 4 1279.97 32.8
-1 -1 4 1311.07 33.3
0 1 -4 18.4 3
0 1 -4 27.9 3.1
0 -1 4 20.5 3.2
0 -1 4 16.5 2.8
1 -1 4 17.4 2.8
1 -1 4 13.7 2.7
-2 1 -4 17.4 4.4
2 -1 4 19 3.8
2 -1 4 11.6 3.6
-3 1 -4 486.25 17.1
3 -1 4 495.85 15.5
-4 1 -4 889.41 28.2
4 -1 4 851.71 25.4
-5 1 -4 5.3 6.6
5 -1 4 6.2 5.9
-6 1 -4 604.74 24.6
6 -1 4 612.94 22
-7 1 -4 10.4 9.4
7 -1 4 14.9 8.3
7 0 -4 41.7 8.3
-7 0 4 31.1 7.7
6 0 -4 -5.8 5.6
5 0 -4 29.3 5.7
4 0 -4 -0.6 4
4 0 -4 8.7 6
3 0 -4 51.49 7.4
3 0 -4 34.8 4.7
3 0 -4 48.9 6.5
2 0 -4 427.06 15
2 0 -4 418.86 13.9
-2 0 4 459.35 14.7
1 0 -4 188.58 7.9
1 0 -4 175.28 7
-1 0 4 184.78 7.1
-1 0 4 173.38 6.7
-1 0 4 171.08 7.5
0 0 -4 2553.84 65.69
0 0 -4 2797.42 71.89
0 0 4 2613.34 65.69
0 0 4 2738.53 71.79
-1 0 -4 1539.25 41.7
1 0 4 1549.14 41.7
1 0 4 1524.25 38
1 0 4 1461.95 38
-2 0 -4 1649.13 46
2 0 4 1609.64 45.9
2 0 4 1712.43 42.2
-3 0 -4 28.6 4.9
3 0 4 29.5 4.5
-4 0 -4 255.07 12.6
4 0 4 226.38 11.1
-5 0 -4 48.3 7.9
5 0 4 41.7 7.1
-6 0 -4 3.6 7.4
6 0 4 11.1 7.1
-7 0 -4 114.99 14.4
7 0 4 76.99 10.4
7 -1 -4 30.2 8.3
-7 1 4 43.9 9.2
-7 1 4 34.3 8.1
6 -1 -4 33.8 7.2
6 -1 -4 27.7 8.7
-6 1 4 24.6 7.5
5 -1 -4 26.7 5.9
5 -1 -4 27.8 7.6
4 -1 -4 72.69 6.7
4 -1 -4 60.19 9.7
3 -1 -4 1018.8 30.8
3 -1 -4 1015.6 26.8
2 -1 -4 1259.17 32.8
2 -1 -4 1352.76 37.3
-2 1 4 1295.07 37.1
1 -1 -4 -3.6 3.3
1 -1 -4 -2.1 2
-1 1 4 -7.6 3.2
-1 1 4 -2.9 3
-1 1 4 -3.8 2.7
0 -1 -4 85.39 4.2
0 -1 -4 101.29 6
0 1 4 96.49 5.7
0 1 4 91.19 4.8
-1 -1 -4 669.13 19.4
1 1 4 653.83 17.7
1 1 4 676.13 19.3
1 1 4 598.14 17.3
-2 -1 -4 743.83 22.7
2 1 4 772.52 20.9
2 1 4 746.63 22.6
2 1 4 772.82 20.9
-3 -1 -4 12.8 4.4
3 1 4 14.9 4.4
3 1 4 13.4 4
-4 -1 -4 787.92 25.7
4 1 4 799.82 23.6
-5 -1 -4 262.77 14.2
5 1 4 250.27 12.8
6 1 4 26.3 7.6
7 1 4 15.6 8.5
7 -2 -4 166.88 12.8
-7 2 4 147.69 14.3
-7 2 4 157.78 13.5
6 -2 -4 3.8 6.6
6 -2 -4 -3.4 7.7
-6 2 4 -0.5 6.6
5 -2 -4 -6.3 6.9
5 -2 -4 -10.6 5
-5 2 4 -11.6 6
4 -2 -4 3.9 5.8
4 -2 -4 7.2 4.6
-4 2 4 8.3 5.5
3 -2 -4 12.7 3.7
3 -2 -4 15.6 4.9
2 -2 -4 120.69 8.4
2 -2 -4 98.29 5.6
-2 2 4 110.59 7.9
1 -2 -4 450.55 12.6
1 -2 -4 463.05 14.9
-1 2 4 430.46 14.5
-1 2 4 413.46 13.3
0 -2 -4 83.79 6.6
0 -2 -4 73.79 5
0 2 4 70.79 5.6
0 2 4 66.49 6.2
-1 -2 -4 921.11 25.8
-1 -2 -4 862.01 23.4
1 2 4 873.41 23.7
1 2 4 889.61 25.6
-2 -2 -4 1004.3 29.5
2 2 4 1019.9 27.5
2 2 4 1049.3 27.5
3 2 4 216.58 9.5
3 2 4 228.18 10
4 2 4 4.6 5.4
4 2 4 19.1 6.5
5 2 4 -0.7 5.9
6 2 4 130.09 12.1
7 -3 -4 -2.2 7.7
-7 3 4 3.8 8.2
6 -3 -4 12.3 6.8
6 -3 -4 4.6 8
-6 3 4 3.3 7.4
5 -3 -4 3.8 7.2
5 -3 -4 -2.3 5.4
-5 3 4 -0.7 6.7
4 -3 -4 1209.88 37.2
4 -3 -4 1185.78 32.5
-4 3 4 1189.58 34
3 -3 -4 1235.78 32.9
3 -3 -4 1276.37 37.5
-3 3 4 1254.27 34.5
2 -3 -4 259.57 11.6
2 -3 -4 258.47 9.2
-2 3 4 271.87 10.8
1 -3 -4 381.36 13.7
1 -3 -4 395.46 12.1
-1 3 4 365.66 13.4
-1 3 4 372.26 12.8
0 -3 -4 1373.26 36.1
0 -3 -4 1297.87 32.9
0 3 4 1246.68 32.9
0 3 4 1182.48 35.8
-1 -3 -4 -5.4 3.3
1 3 4 2.3 3.8
-2 -3 -4 332.87 11.8
2 3 4 323.77 11.9
3 3 4 7.7 4.8
3 3 4 -3.9 4.9
4 3 4 356.16 14.9
4 3 4 329.97 14.3
5 3 4 122.79 11.6
5 3 4 168.88 12.5
6 3 4 9.7 7.7
7 -4 -4 377.46 17.4
-7 4 4 336.37 18.5
6 -4 -4 107.59 11.4
6 -4 -4 126.09 14
-6 4 4 120.39 13
5 -4 -4 71.79 9.2
5 -4 -4 70.59 11.8
-5 4 4 60.69 9.2
4 -4 -4 -4.3 6.5
4 -4 -4 -12.6 4.9
-4 4 4 -6.5 6.6
3 -4 -4 11.9 5.4
3 -4 -4 2.2 4.3
-3 4 4 8.5 5.5
2 -4 -4 13.3 3.9
2 -4 -4 13.3 4.8
-2 4 4 9.4 4.3
1 -4 -4 598.54 19
1 -4 -4 584.94 17.4
-1 4 4 586.24 17.4
0 -4 -4 1070.59 28.3
0 4 4 1047.5 28.2
-1 -4 -4 706.53 20.1
1 4 4 708.63 20.4
-2 -4 -4 28.1 5.1
2 4 4 21 5
-3 -4 -4 148.09 10.1
3 4 4 154.78 10.3
-4 -4 -4 184.58 12.3
4 4 4 228.98 12.8
-5 -4 -4 5.6 8.2
5 4 4 1.4 7.9
-6 -4 -4 178.88 14.6
6 4 4 203.98 15.6
6 -5 -4 38.5 8.3
6 -5 -4 18.4 9.2
-6 5 4 21.2 9.1
5 -5 -4 73.69 12.2
5 -5 -4 104.29 10.2
-5 5 4 86.99 11.9
4 -5 -4 47.4 8.6
4 -5 -4 51.09 7.2
-4 5 4 41.8 8
3 -5 -4 53.49 7.5
3 -5 -4 39.9 7
-3 5 4 39.1 6.6
2 -5 -4 5.4 4.5
2 -5 -4 8.6 5.2
-2 5 4 1.1 4.7
1 -5 -4 221.78 9.8
-1 5 4 227.78 9.9
0 -5 -4 -2.8 4.3
-1 -5 -4 789.42 23.2
1 5 4 835.72 23.5
-2 -5 -4 -4.1 5
2 5 4 1.9 5.3
-3 -5 -4 92.39 9.8
3 5 4 83.79 10.4
-4 -5 -4 6 7
4 5 4 10.6 7.5
-5 -5 -4 18.9 8
5 5 4 23.8 9.2
-6 -5 -4 17.5 9.2
6 5 4 6.3 9.5
6 -6 -4 331.27 19.9
6 -6 -4 351.96 16.6
-6 6 4 342.87 19.1
5 -6 -4 23 9
5 -6 -4 19.9 7.3
-5 6 4 11.6 8.7
4 -6 -4 41.6 7.7
4 -6 -4 52.99 8.7
-4 6 4 48.3 8.5
3 -6 -4 84.29 9.2
3 -6 -4 82.39 11
-3 6 4 89.79 10.2
2 -6 -4 12.1 5.9
2 -6 -4 19.9 5.9
-2 6 4 27.6 6.2
1 -6 -4 12.2 5.3
-1 6 4 14 5.4
0 -6 -4 317.17 12.6
-1 -6 -4 951.1 27.6
1 6 4 974.1 27.7
-2 -6 -4 25 6.8
2 6 4 19.9 6.9
-3 -6 -4 8.8 6.9
3 6 4 -2 7.1
-4 -6 -4 448.26 18.5
4 6 4 449.16 19.6
-5 -6 -4 -10.2 7.7
5 6 4 1.4 9.2
6 -7 -4 3.2 8.7
6 -7 -4 -9.7 8.6
-6 7 4 -16.2 9.5
5 -7 -4 158.88 14.9
5 -7 -4 147.59 12.9
-5 7 4 147.99 14.6
4 -7 -4 10.3 7
4 -7 -4 5.7 7.6
-4 7 4 -7.2 7.9
3 -7 -4 125.39 12
3 -7 -4 119.69 10.7
-3 7 4 112.59 11.7
2 -7 -4 220.98 12.3
-2 7 4 224.08 12.8
1 -7 -4 4.6 6.1
-1 7 4 21.7 6.6
0 -7 -4 772.52 23.9
-1 -7 -4 24.7 7.3
1 7 4 29.1 7.3
-2 -7 -4 57.99 8.7
2 7 4 53.79 8.9
-3 -7 -4 138.19 12.6
3 7 4 139.49 13.6
-4 -7 -4 11.2 8.8
4 7 4 21 9.4
-5 -7 -4 10.3 9.6
5 7 4 5.4 10.4
6 -8 -4 130.89 14.2
-6 8 4 89.79 13.7
5 -8 -4 14.7 9.6
5 -8 -4 17.9 8.7
-5 8 4 -14.9 9.3
4 -8 -4 82.59 11.6
4 -8 -4 37.5 9.5
-4 8 4 32.6 9.8
3 -8 -4 209.98 14.4
3 -8 -4 180.88 13
-3 8 4 207.58 14.6
2 -8 -4 353.26 16
-2 8 4 391.26 16.7
1 -8 -4 19.1 7.2
-1 8 4 24.1 7.4
0 -8 -4 36 7.4
-1 -8 -4 60.09 9.1
1 8 4 57.69 9.3
-2 -8 -4 118.49 12.4
2 8 4 130.39 13.3
-3 -8 -4 19.8 9
3 8 4 3.7 8.9
-4 -8 -4 88.39 12.4
4 8 4 103.99 16
5 -9 -4 33 10
5 -9 -4 22.4 10
-5 9 4 15.4 11.4
4 -9 -4 2.3 8.3
4 -9 -4 -2 8.4
-4 9 4 -2.5 9.7
3 -9 -4 53.39 9.4
-3 9 4 60.79 10.6
2 -9 -4 2.9 7.3
-2 9 4 2.3 8.5
1 -9 -4 2.1 7
-1 9 4 -0.6 7.7
0 -9 -4 132.89 11.8
-1 -9 -4 277.67 15.2
-2 -9 -4 6.3 8.8
2 9 4 -0.3 9.3
-3 -9 -4 7 9.6
4 -10 -4 42.2 10.1
-4 10 4 36.3 11.7
3 -10 -4 4.3 8.1
-3 10 4 -8.7 10.1
2 -10 -4 17.9 8.2
-2 10 4 -3.8 9.4
1 -10 -4 11.9 7.4
-1 10 4 -0.4 8.1
0 -10 -4 13 7.5
-1 -10 -4 4.4 8.2
-2 -10 -4 78.99 11.7
-3 -10 -4 -1.5 10.8
3 -11 -4 4.2 8.9
-3 11 4 3 11.3
2 -11 -4 23.2 8.7
-2 11 4 15.6 10.3
1 -11 -4 58.39 9.7
-1 11 4 54.29 10.1
0 -11 -4 1.5 8.2
-1 -11 -4 113.59 13.6
1 12 -5 19.4 9.9
-1 -12 5 20.4 8.8
0 12 -5 199.68 15.9
0 -12 5 208.38 14.4
-1 12 -5 17 9.9
1 -12 5 18.3 8.6
-2 12 -5 11.6 10.6
2 -12 5 2.6 8.5
-3 12 -5 13.6 11.5
3 -12 5 17.3 9.6
2 11 -5 15.3 9
-2 -11 5 23.2 8.5
1 11 -5 69.49 10.5
-1 -11 5 78.19 11.4
0 11 -5 54.29 9.8
0 -11 5 53.69 8.5
-1 11 -5 29.4 9.2
1 -11 5 17.6 7.6
-2 11 -5 18.9 9.4
2 -11 5 -2.6 7.4
-3 11 -5 18.5 10.8
3 -11 5 20.6 9.3
-4 11 -5 74.59 14.3
4 -11 5 98.99 14.2
3 10 -5 46 9.4
-3 -10 5 48.9 9.3
2 10 -5 39.3 9.3
-2 -10 5 54.09 8.3
1 10 -5 18.4 8.2
-1 -10 5 19.8 6.9
0 10 -5 58.59 9.4
0 -10 5 62.69 8.3
-1 10 -5 295.27 16.2
1 -10 5 314.37 14.6
-2 10 -5 14.2 8.6
2 -10 5 23.9 7.6
-3 10 -5 15.3 10.1
3 -10 5 27.7 8.5
-4 10 -5 21.6 11.1
4 -10 5 44.9 9.7
-5 10 -5 47.4 13.3
5 -10 5 38.9 10.2
4 9 -5 159.58 14.6
-4 -9 5 186.98 14.6
3 9 -5 280.17 15.9
-3 -9 5 308.27 15.1
2 9 -5 145.89 12.8
-2 -9 5 141.69 10.8
1 9 -5 8.9 7.4
-1 -9 5 10.5 6.1
0 9 -5 46.6 8.3
0 -9 5 47.2 7.2
-1 9 -5 84.19 11.2
1 -9 5 90.49 9.5
-2 9 -5 45.4 9.2
2 -9 5 71.09 9.5
-3 9 -5 388.86 18.6
-3 9 -5 354.06 18.5
3 -9 5 376.26 16.8
-4 9 -5 355.66 19.7
-4 9 -5 357.96 20.4
4 -9 5 359.26 17.5
-5 9 -5 -2.3 10.6
-5 9 -5 -0.7 10.4
5 -9 5 17.9 8.9
-5 -8 5 17.5 9.9
4 8 -5 9.8 8
-4 -8 5 8.3 8.3
3 8 -5 -3.7 6.9
-3 -8 5 2.4 6.8
2 8 -5 258.37 14
-2 -8 5 260.17 12
1 8 -5 141.19 11.4
-1 -8 5 123.39 9.3
0 8 -5 866.61 26.7
0 -8 5 869.21 25.1
-1 8 -5 1417.66 40.3
1 -8 5 1461.95 38.9
-2 8 -5 10.8 7.7
2 -8 5 12.7 6.3
-3 8 -5 -0.1 7.3
-3 8 -5 -3.8 7.8
3 -8 5 6.7 6.6
-4 8 -5 156.38 14.5
-4 8 -5 154.48 15.1
4 -8 5 150.38 12.7
-5 8 -5 14.7 10.1
5 -8 5 21.2 7.7
-6 8 -5 33.9 11.7
-6 8 -5 38.1 11.8
6 -8 5 49.6 10
-5 -7 5 202.98 14.2
4 7 -5 13.1 7.1
-4 -7 5 5.3 7.3
3 7 -5 558.64 19.9
-3 -7 5 560.74 18.7
2 7 -5 106.49 10.4
-2 -7 5 87.39 8.3
1 7 -5 19.1 6
-1 -7 5 13.7 4.9
-1 -7 5 10.7 5.7
0 7 -5 11.2 5.9
0 -7 5 12.6 5
-1 7 -5 1340.77 37.3
1 -7 5 1351.46 35.9
-2 7 -5 356.26 15.4
2 -7 5 366.76 14
-3 7 -5 81.99 11.5
-3 7 -5 87.39 11.4
3 -7 5 116.09 10.3
-4 7 -5 362.86 17.5
-4 7 -5 409.06 19.1
4 -7 5 355.16 16.2
-5 7 -5 -0.8 8.8
-5 7 -5 10.3 9.5
5 -7 5 25.7 7.8
-6 7 -5 -3 9.4
-6 7 -5 -6.8 9.5
6 -7 5 8.2 8.2
-5 -6 5 14 9.1
-5 -6 5 21.1 7.6
4 6 -5 36.9 7.7
-4 -6 5 30 7.9
-4 -6 5 26.9 6.7
3 6 -5 3.2 6
-3 -6 5 10.6 5.6
2 6 -5 236.88 11.6
-2 -6 5 237.08 9.9
1 6 -5 99.39 8.3
-1 -6 5 100.89 8.1
-1 -6 5 94.09 6.5
0 6 -5 294.97 12
0 -6 5 297.47 10.5
-1 6 -5 2152.58 56.79
1 -6 5 2221.48 55.49
-2 6 -5 2.9 5.5
2 -6 5 7 4.7
-3 6 -5 129.49 11.6
-3 6 -5 139.79 11
3 -6 5 149.59 10
-4 6 -5 488.85 18.6
-4 6 -5 466.65 20.4
4 -6 5 460.25 17.9
-5 6 -5 356.16 19.1
-5 6 -5 366.66 17.1
5 -6 5 355.26 16.4
-6 6 -5 34.4 9.8
-6 6 -5 28.3 10.1
6 -6 5 57.59 9.5
6 5 -5 90.99 11.5
-6 -5 5 116.19 12.1
5 5 -5 546.85 20.7
-5 -5 5 598.14 22.2
-5 -5 5 616.94 20.2
4 5 -5 344.37 15.2
-4 -5 5 346.57 15.7
-4 -5 5 345.47 13.4
3 5 -5 585.34 19.2
-3 -5 5 582.64 19.3
-3 -5 5 575.94 17.4
2 5 -5 49.99 7.2
-2 -5 5 31.9 5.6
-2 -5 5 41.7 5.7
1 5 -5 451.45 14.6
-1 -5 5 430.86 14.2
-1 -5 5 450.65 13.1
0 5 -5 46.4 6.7
0 -5 5 50.79 5.1
-1 5 -5 234.18 10.1
1 -5 5 223.28 8.8
-2 5 -5 226.88 10.6
2 -5 5 243.88 10
-3 5 -5 17.9 5.9
-3 5 -5 23.4 6.2
3 -5 5 29.8 5.7
-4 5 -5 777.32 24.6
-4 5 -5 794.82 27.7
4 -5 5 781.02 24.5
-5 5 -5 81.19 12.5
5 -5 5 83.09 10.9
-6 5 -5 27.5 9.6
6 -5 5 40.2 8.3
7 -5 5 19 8.7
6 4 -5 57.49 8.5
-6 -4 5 66.69 10.1
-6 -4 5 79.29 10.9
5 4 -5 27.5 6.8
-5 -4 5 31.7 7
-5 -4 5 39.6 8.3
4 4 -5 67.09 9.6
-4 -4 5 59.19 7.9
-4 -4 5 55.79 7.6
3 4 -5 19.7 5.4
-3 -4 5 13.5 5.7
-3 -4 5 13.8 3.9
2 4 -5 1.6 4
-2 -4 5 -4.3 4.1
-2 -4 5 5.1 3.1
1 4 -5 677.83 19.2
-1 -4 5 635.24 18.7
0 4 -5 763.02 21.5
0 -4 5 766.62 20.1
-1 4 -5 4.7 3.8
1 -4 5 5.6 3.1
-2 4 -5 329.87 12.7
-2 4 -5 325.57 11.9
2 -4 5 315.87 11.5
-3 4 -5 4.6 5
3 -4 5 4.7 4.5
-4 4 -5 288.57 15.3
4 -4 5 291.87 13.5
-5 4 -5 222.78 15.2
5 -4 5 218.98 12.9
-6 4 -5 47 10.1
6 -4 5 40.8 8.5
7 -4 5 90.39 12.7
6 3 -5 64.59 9.5
-6 -3 5 76.29 9.9
5 3 -5 29.4 6.8
5 3 -5 20 5.6
-5 -3 5 34.5 7.7
4 3 -5 74.09 9
-4 -3 5 63.19 9.5
3 3 -5 1.8 4.7
-3 -3 5 1.5 4.6
2 3 -5 45.4 6.1
-2 -3 5 42.4 6.3
1 3 -5 -6.3 3.7
-1 -3 5 10.8 3.8
0 3 -5 114.19 6.7
0 -3 5 111.89 6.4
0 -3 5 111.39 5.1
-1 3 -5 2800.42 69.19
1 -3 5 2714.53 68.09
-2 3 -5 39.9 6.8
-2 3 -5 44.2 6.2
2 -3 5 34.6 5
2 -3 5 52.59 5.6
-3 3 -5 9.9 5.1
3 -3 5 9.4 4.4
-4 3 -5 1518.95 45.2
4 -3 5 1483.55 40.8
-5 3 -5 85.99 12.3
5 -3 5 99.09 10.5
-6 3 -5 -6.1 7.8
6 -3 5 6.1 7.1
-7 3 -5 1.4 9.6
7 -3 5 15.2 8.1
6 2 -5 12.7 5.9
5 2 -5 515.95 16.9
5 2 -5 530.95 18.9
4 2 -5 23.7 6
4 2 -5 6.6 3.9
-4 -2 5 9.5 5.6
3 2 -5 159.38 8.7
-3 -2 5 142.99 8.5
2 2 -5 82.39 6.7
-2 -2 5 90.29 6.9
1 2 -5 2043.3 52.19
-1 -2 5 2072.49 51.59
0 2 -5 5640.64 140.39
0 -2 5 5762.82 138.89
-1 2 -5 371.66 12.4
1 -2 5 371.26 12.2
1 -2 5 347.37 10.9
-2 2 -5 574.84 18.1
2 -2 5 540.05 17.6
2 -2 5 561.74 16.5
-3 2 -5 28.7 5.6
3 -2 5 38.7 5.3
-4 2 -5 232.68 13.2
4 -2 5 224.88 11.6
-5 2 -5 75.59 11.8
5 -2 5 72.09 9.8
-6 2 -5 176.88 15.4
6 -2 5 186.08 13.2
-7 2 -5 56.29 11.6
7 -2 5 79.69 11
7 1 -5 30.6 7.9
6 1 -5 2.6 5.7
5 1 -5 111.29 8.3
4 1 -5 55.49 8.3
4 1 -5 39.1 5.6
3 1 -5 42 5.6
-3 -1 5 33.9 5.1
2 1 -5 253.67 10.1
-2 -1 5 257.07 9.5
1 1 -5 192.48 8
-1 -1 5 204.18 7.7
0 1 -5 986.8 26.4
0 1 -5 1048.6 29
0 -1 5 1004.4 26.4
0 -1 5 1035 28.7
0 -1 5 1044 26.4
-1 1 -5 1155.58 30.8
1 -1 5 1029.4 27.8
1 -1 5 1037.5 27.6
1 -1 5 1121.59 30.7
-2 1 -5 402.86 14
2 -1 5 402.36 12.7
2 -1 5 391.16 13.6
-3 1 -5 19.9 5
3 -1 5 19.9 4.4
-4 1 -5 2.5 5.8
4 -1 5 -4.5 5
-5 1 -5 374.26 17.7
5 -1 5 371.16 15.5
-6 1 -5 128.29 13.8
6 -1 5 151.58 12.4
-7 1 -5 63.29 11.5
7 -1 5 58.09 10.1
7 0 -5 39.3 7.9
-7 0 5 37 8.5
6 0 -5 2.9 7.8
6 0 -5 5 6
5 0 -5 23.3 5.7
5 0 -5 31.3 8
4 0 -5 538.65 16.6
4 0 -5 570.94 20.4
3 0 -5 516.85 14.8
3 0 -5 529.65 16.8
3 0 -5 529.05 18.2
2 0 -5 10.8 4.2
2 0 -5 7 4.7
-2 0 5 16.3 3.8
-2 0 5 4.2 4.1
1 0 -5 3448.46 87.79
1 0 -5 3069.19 80.99
-1 0 5 3282.67 87.49
-1 0 5 3213.88 79.99
0 0 -5 985.9 27.7
0 0 5 979.2 27.6
0 0 5 947.61 25.1
-1 0 -5 513.75 15.7
1 0 5 496.05 14.1
1 0 5 506.95 15.6
1 0 5 458.95 13.9
-2 0 -5 113.79 7.4
2 0 5 113.89 6.5
2 0 5 111.79 6.7
2 0 5 102.99 6.8
-3 0 -5 405.36 14.9
3 0 5 390.86 13.4
-4 0 -5 528.05 19.2
4 0 5 499.45 17.2
-5 0 -5 91.29 11.2
5 0 5 93.09 10
-6 0 -5 -0.2 7.6
6 0 5 7.9 7
-7 0 -5 199.78 17
7 0 5 198.38 14.9
7 -1 -5 32.7 8.2
-7 1 5 21.4 8.2
6 -1 -5 -12.2 6
6 -1 -5 -13.5 7.5
-6 1 5 -0.4 6.9
5 -1 -5 185.28 13.7
5 -1 -5 190.18 10.3
4 -1 -5 335.97 15.5
4 -1 -5 333.87 12.1
3 -1 -5 3.7 3.2
3 -1 -5 2.5 4.8
2 -1 -5 292.77 12.1
-2 1 5 293.07 11.5
1 -1 -5 3873.91 98.79
1 -1 -5 4152.78 106.99
-1 1 5 3921.91 106.69
-1 1 5 3963.4 97.49
0 -1 -5 -1.7 3.5
0 1 5 -3.6 3
-1 -1 -5 159.08 8.2
1 1 5 146.49 7.6
1 1 5 139.99 6.6
1 1 5 134.19 7.4
-2 -1 -5 297.07 11.4
2 1 5 278.07 10.3
2 1 5 295.97 10.2
-3 -1 -5 260.37 11.6
3 1 5 253.67 10.5
3 1 5 261.37 10.5
-4 -1 -5 -1.7 5.5
4 1 5 3.8 5.2
-5 -1 -5 75.99 11.1
5 1 5 82.89 9.8
-6 -1 -5 109.59 12.8
6 1 5 114.99 11.9
7 -2 -5 2.3 7.5
-7 2 5 2.6 7.9
6 -2 -5 203.58 15.5
6 -2 -5 223.38 12.6
-6 2 5 204.08 13.7
5 -2 -5 6.9 5.5
5 -2 -5 11.3 7.9
-5 2 5 9.9 6.9
4 -2 -5 -3.6 4.4
4 -2 -5 9.7 6.4
3 -2 -5 0.1 3.4
3 -2 -5 2.5 4.9
2 -2 -5 1.4 4.3
2 -2 -5 5.6 2.8
1 -2 -5 2854.31 75.49
1 -2 -5 2818.72 68.09
-1 2 5 2621.44 75.09
0 -2 -5 106.59 7.5
0 -2 -5 87.39 5.7
0 2 5 93.99 6.4
-1 -2 -5 4229.78 108.19
-1 -2 -5 3886.01 98.69
1 2 5 3963.7 108.19
1 2 5 4034.8 99.19
-2 -2 -5 627.54 20
2 2 5 637.44 18.5
2 2 5 645.94 18.5
-3 -2 -5 38.4 5.4
3 2 5 36.1 5.3
3 2 5 35.1 5.5
-4 -2 -5 0.6 5.7
4 2 5 -9.9 5.2
4 2 5 -5.8 5.9
5 2 5 225.48 12.8
5 2 5 271.07 14.1
6 2 5 5.1 7.4
7 -3 -5 150.78 13
7 -3 -5 157.28 16.7
-7 3 5 146.79 14.3
6 -3 -5 13.2 6.9
6 -3 -5 1.4 8
-6 3 5 10.2 8
5 -3 -5 162.38 10.3
5 -3 -5 131.69 13.2
-5 3 5 165.78 12.4
4 -3 -5 449.56 15.2
4 -3 -5 430.36 18.8
-4 3 5 457.05 17.2
3 -3 -5 214.98 11.8
3 -3 -5 195.08 8.8
-3 3 5 207.08 10.6
2 -3 -5 14.3 5.2
2 -3 -5 19.1 3.7
-2 3 5 16.5 4.8
1 -3 -5 193.58 10
1 -3 -5 207.98 8.6
-1 3 5 199.38 9.1
-1 3 5 194.68 9.6
0 -3 -5 1042.1 30.1
0 -3 -5 1040.1 27.2
0 3 5 1012.3 27.3
-1 -3 -5 7.2 3.5
-1 -3 -5 8.2 3.9
1 3 5 10.5 4.2
1 3 5 0.1 3.7
-2 -3 -5 5.9 4.6
2 3 5 11.7 4.5
3 3 5 9.7 5.2
3 3 5 8.4 5.2
4 3 5 52.49 7.4
4 3 5 63.59 9.8
5 3 5 16 7.3
6 3 5 21.6 9
6 3 5 8 8
7 -4 -5 39.1 8.9
-7 4 5 47.6 10.4
6 -4 -5 31 9.7
6 -4 -5 50.69 8.1
-6 4 5 33.4 9.4
5 -4 -5 -5.6 7.3
5 -4 -5 4.3 6
-5 4 5 4 7.8
4 -4 -5 114.79 9.2
4 -4 -5 106.89 11.8
-4 4 5 125.09 11.5
3 -4 -5 -2.4 5.4
3 -4 -5 0.2 4.2
-3 4 5 -5.2 5.8
2 -4 -5 28.2 5.7
2 -4 -5 30.5 4.7
-2 4 5 29.4 5.6
1 -4 -5 1056.69 28.4
1 -4 -5 1045.6 31.2
-1 4 5 1051.39 28.5
0 -4 -5 6.4 4.4
0 4 5 4.8 4.2
0 4 5 5.2 4.4
-1 -4 -5 1247.78 33.5
1 4 5 1284.27 33.9
-2 -4 -5 832.02 23.8
2 4 5 819.02 24
-3 -4 -5 103.19 9.6
3 4 5 91.49 9.7
-4 -4 -5 6 6.9
4 4 5 7.2 7
-5 -4 -5 37.9 9
5 4 5 46.9 9.1
-6 -4 -5 24.9 9.8
6 4 5 37.1 10
6 -5 -5 0.1 8.9
6 -5 -5 -8.4 7
-6 5 5 -16.7 8.5
5 -5 -5 146.69 11
5 -5 -5 144.29 14.1
-5 5 5 147.09 13.2
4 -5 -5 144.99 12.7
4 -5 -5 146.19 10.3
-4 5 5 128.69 11.9
3 -5 -5 979.7 31.9
3 -5 -5 982.5 28
-3 5 5 1025.1 29.6
2 -5 -5 285.07 13.4
2 -5 -5 291.17 11.7
-2 5 5 283.77 12.1
1 -5 -5 -2.3 4.6
1 -5 -5 7.1 4.6
-1 5 5 5.4 4.6
0 -5 -5 15.5 5
0 5 5 14 4.8
-1 -5 -5 6.2 5
1 5 5 11.1 5.1
-2 -5 -5 42.2 6.4
2 5 5 27.8 6.1
-3 -5 -5 290.47 13.5
3 5 5 293.27 14.1
-4 -5 -5 5.1 7
4 5 5 9.7 7.6
-5 -5 -5 103.69 12.2
5 5 5 95.59 13.2
6 -6 -5 44.4 10.6
6 -6 -5 48.7 9.1
-6 6 5 53.89 11.4
5 -6 -5 79.89 10.4
5 -6 -5 63.99 10.4
-5 6 5 60.99 10.3
4 -6 -5 181.08 14
4 -6 -5 185.28 11.8
-4 6 5 178.88 13.4
3 -6 -5 385.66 15.2
3 -6 -5 398.46 17.7
-3 6 5 398.76 16.5
2 -6 -5 192.68 12.1
2 -6 -5 186.78 10.9
-2 6 5 198.48 11.3
1 -6 -5 483.25 16.7
-1 6 5 494.95 16.6
0 -6 -5 2020.8 52.69
-1 -6 -5 120.29 10.1
1 6 5 121.69 10.2
-2 -6 -5 171.58 11.8
2 6 5 172.48 11.8
-3 -6 -5 44.7 7.8
3 6 5 29.1 8.4
-4 -6 -5 4.9 7.7
4 6 5 5.6 8.2
-5 -6 -5 40.6 9.4
5 6 5 27.2 10.2
6 -7 -5 165.08 14.1
6 -7 -5 133.29 15.9
-6 7 5 128.29 15.9
5 -7 -5 51.29 10.4
5 -7 -5 59.69 9.1
-5 7 5 39.9 10.1
4 -7 -5 5.8 7.5
4 -7 -5 10.8 8.2
-4 7 5 8.1 8.3
3 -7 -5 603.04 21.2
3 -7 -5 637.44 23.8
-3 7 5 637.84 22.6
2 -7 -5 147.99 11.5
-2 7 5 174.48 12.1
1 -7 -5 34.9 7.3
-1 7 5 44.4 7.3
0 -7 -5 687.13 22.2
-1 -7 -5 18 7.3
1 7 5 17.3 7.2
-2 -7 -5 245.78 14
2 7 5 255.77 14.9
-3 -7 -5 76.89 12
3 7 5 63.09 10
-4 -7 -5 7 8.5
4 7 5 -3.6 8.9
5 -8 -5 5.3 9.1
5 -8 -5 -9.7 8.4
-5 8 5 0 10.3
4 -8 -5 103.49 12.2
4 -8 -5 117.49 13.8
-4 8 5 84.49 13.3
3 -8 -5 30.1 8
3 -8 -5 27.9 8.5
-3 8 5 32 9.2
2 -8 -5 8.1 7.5
-2 8 5 8 7.7
1 -8 -5 83.59 10.7
-1 8 5 114.89 11.2
0 -8 -5 1191.28 34.4
-1 -8 -5 245.78 14.1
1 8 5 261.67 15.4
-2 -8 -5 28.8 8.7
2 8 5 15.7 9.2
-3 -8 -5 2.4 8.9
3 8 5 7.7 9.5
-4 -8 -5 43.9 11.1
4 8 5 52.79 12.1
5 -9 -5 160.28 15.1
5 -9 -5 152.98 16.8
-5 9 5 142.19 17.2
4 -9 -5 42.5 9.8
4 -9 -5 47.3 10.2
-4 9 5 22.9 10.7
3 -9 -5 409.46 18.2
-3 9 5 402.96 19.7
2 -9 -5 105.39 12
-2 9 5 82.49 12.9
1 -9 -5 80.69 11
-1 9 5 77.89 11.5
0 -9 -5 67.19 9.3
-1 -9 -5 42.7 9
1 9 5 67.69 10.7
-2 -9 -5 -2.3 8.9
-3 -9 -5 119.19 14.9
4 -10 -5 -3.2 9
4 -10 -5 8.5 9.7
-4 10 5 -17.7 10.3
3 -10 -5 79.09 12.4
-3 10 5 82.69 12.9
2 -10 -5 109.79 12.5
-2 10 5 96.09 14.1
1 -10 -5 1.9 7.3
0 -10 -5 38.1 8.5
-1 -10 -5 25.5 8.9
-2 -10 -5 11.3 9.8
3 -11 -5 50.29 10.6
-3 11 5 17 12
2 -11 -5 17.7 8.7
-2 11 5 -9.4 10
1 -11 -5 2.7 7.7
0 -11 -5 9.5 8.5
-1 -11 -5 43.8 10.3
1 12 -6 7.3 9.7
-1 -12 6 12.9 8.5
0 12 -6 112.19 14.5
0 -12 6 109.19 12.5
-1 12 -6 43 10.8
1 -12 6 33.6 9.3
-2 12 -6 63.69 12.3
2 -12 6 34.1 9.4
-3 12 -6 41.9 12.4
3 -12 6 41.3 10.3
2 11 -6 30.6 9.8
-2 -11 6 50.79 9
1 11 -6 183.58 15.1
-1 -11 6 158.28 12.8
0 11 -6 13.4 8.7
0 -11 6 12.3 7.2
-1 11 -6 70.19 10.7
1 -11 6 74.69 9.6
-2 11 -6 16.4 9.5
2 -11 6 -0.3 7.5
-3 11 -6 24.7 11.1
3 -11 6 16.6 9
-4 11 -6 1.2 12.1
4 -11 6 19.8 9.8
3 10 -6 97.39 13.3
-3 -10 6 99.49 12
2 10 -6 22.6 8.7
-2 -10 6 18.8 7.4
1 10 -6 16.9 8.5
-1 -10 6 13.7 7
0 10 -6 123.19 12.7
0 -10 6 125.29 10.8
-1 10 -6 146.29 13.6
1 -10 6 171.58 11.7
-2 10 -6 60.99 10.1
2 -10 6 66.29 9.1
-3 10 -6 70.79 11.5
3 -10 6 83.19 10.6
-4 10 -6 3.9 10.8
4 -10 6 3 8.5
-5 10 -6 83.99 14
5 -10 6 93.89 14.5
4 9 -6 49.9 9.6
-4 -9 6 43.5 9.3
3 9 -6 16 8.2
-3 -9 6 21 7.4
2 9 -6 -0.4 7.8
-2 -9 6 16.8 6.5
-2 -9 6 27.8 8.3
1 9 -6 131.89 12.6
-1 -9 6 128.29 10
0 9 -6 264.77 14.3
0 -9 6 251.07 12.2
-1 9 -6 60.29 9.1
1 -9 6 109.69 9.9
-2 9 -6 40.4 8.9
2 -9 6 38.2 7.7
-3 9 -6 350.06 18.4
3 -9 6 384.06 16.8
-4 9 -6 291.17 17.9
4 -9 6 319.97 16.6
-5 9 -6 27.6 11.4
-5 9 -6 23.9 10.8
5 -9 6 51.09 9.9
4 8 -6 71.89 10
-4 -8 6 75.69 11.4
3 8 -6 5.3 7.5
-3 -8 6 8.4 6.5
-3 -8 6 16.2 8.2
2 8 -6 6.4 7
-2 -8 6 -2.7 6.7
-2 -8 6 1.6 5.5
1 8 -6 216.58 13.3
-1 -8 6 240.48 12.3
-1 -8 6 238.58 10.9
0 8 -6 681.93 22.5
0 -8 6 669.73 20.5
-1 8 -6 111.09 11
-2 8 -6 225.48 13.9
2 -8 6 233.48 12.3
-3 8 -6 939.91 29.6
3 -8 6 891.91 28.3
-4 8 -6 63.89 10.4
-4 8 -6 45 9.8
4 -8 6 73.59 11.1
-5 8 -6 21.5 10.5
-5 8 -6 21.9 10.2
5 -8 6 28.2 8.3
-6 8 -6 -3.2 10.5
-6 8 -6 -3.2 10.1
6 -8 6 6.4 8.5
5 7 -6 6 8
4 7 -6 68.39 9.4
-4 -7 6 63.19 10
-4 -7 6 66.09 10.3
3 7 -6 215.48 13
-3 -7 6 206.08 11
-3 -7 6 237.78 13.7
2 7 -6 328.87 14.6
-2 -7 6 302.07 12
-2 -7 6 319.37 13.9
1 7 -6 -3.6 5.7
-1 -7 6 0.8 4.4
-1 -7 6 -7.2 5.1
0 7 -6 107.49 9.9
0 -7 6 117.19 7.7
-1 7 -6 17.3 5.9
1 -7 6 14.6 5
-2 7 -6 346.97 15.3
2 -7 6 360.36 14.1
-3 7 -6 1634.44 48.6
-3 7 -6 1629.84 45.3
3 -7 6 1619.24 44.3
-4 7 -6 329.17 16.8
-4 7 -6 347.47 18.1
4 -7 6 345.17 16.1
-5 7 -6 1.5 9.3
-5 7 -6 9.1 8.9
5 -7 6 15.9 7.5
-6 7 -6 24 10.8
-6 7 -6 29.7 10.4
6 -7 6 34.4 9.2
5 6 -6 10.2 7.3
-5 -6 6 0.5 8.5
4 6 -6 18.4 7.5
-4 -6 6 16 6.4
-4 -6 6 30.5 8.1
3 6 -6 19 6.5
-3 -6 6 16 5.5
-3 -6 6 11.3 6.7
2 6 -6 47.7 7.1
-2 -6 6 44.5 6.3
-2 -6 6 39 5.1
1 6 -6 1.5 5
-1 -6 6 -2.5 4.5
-1 -6 6 4.8 3.7
0 6 -6 845.02 24.7
0 -6 6 839.12 23
-1 6 -6 1089.09 31
1 -6 6 1127.49 29.9
-2 6 -6 -1.3 5.5
2 -6 6 -2 4.8
-3 6 -6 166.98 11.3
3 -6 6 164.78 10.9
-4 6 -6 -4.2 7
-4 6 -6 -6.7 7.3
4 -6 6 11.9 6.4
-5 6 -6 120.49 12.8
-5 6 -6 100.89 13.8
5 -6 6 127.79 12
-6 6 -6 131.99 14.5
-6 6 -6 145.49 16
6 -6 6 152.68 12.9
6 5 -6 78.59 11.7
-6 -5 6 78.59 11.4
5 5 -6 26.3 7.4
-5 -5 6 23.5 8.1
-5 -5 6 5.2 6.5
4 5 -6 79.79 10.5
-4 -5 6 78.19 10.6
-4 -5 6 72.79 8.1
3 5 -6 329.87 14.3
-3 -5 6 339.37 14
-3 -5 6 326.77 11.8
2 5 -6 16.8 5.4
-2 -5 6 20.8 5
1 5 -6 56.09 7.1
-1 -5 6 66.69 4.9
-1 -5 6 56.29 6.9
0 5 -6 1.7 4.1
0 -5 6 -0.9 2.9
-1 5 -6 428.26 14.2
1 -5 6 406.06 13.2
-2 5 -6 334.67 12.9
2 -5 6 348.77 12.5
-3 5 -6 232.48 11.6
-3 5 -6 244.18 12.8
3 -5 6 238.08 11.4
-4 5 -6 661.23 24.7
4 -5 6 650.53 21.7
-5 5 -6 17.3 8.4
5 -5 6 18.3 7.4
-6 5 -6 20.2 9.9
6 -5 6 42.5 9
6 4 -6 279.67 15.5
-6 -4 6 321.07 17.3
5 4 -6 73.39 10.5
-5 -4 6 93.59 9.4
-5 -4 6 79.89 11.3
4 4 -6 43.7 7.4
-4 -4 6 39.2 7.3
-4 -4 6 46.3 5.8
3 4 -6 113.89 9.4
-3 -4 6 117.99 9.3
2 4 -6 218.58 9.8
-2 -4 6 219.08 9.9
1 4 -6 1.3 3.9
-1 -4 6 3.8 4.1
0 4 -6 828.32 23.2
-1 4 -6 728.13 21
1 -4 6 734.23 20.3
-2 4 -6 1744.93 45.2
-2 4 -6 1693.83 48.9
2 -4 6 1776.92 45
-3 4 -6 256.97 12.9
3 -4 6 248.68 11.3
-4 4 -6 436.46 18.9
4 -4 6 454.85 17.1
-5 4 -6 21.3 8.3
5 -4 6 20.7 7.1
-6 4 -6 277.67 18.6
6 -4 6 297.77 15.6
7 -4 6 353.76 18.1
6 3 -6 40.8 8
5 3 -6 158.38 11.6
-5 -3 6 161.78 12.2
4 3 -6 36.2 6.9
-4 -3 6 36.5 6.8
3 3 -6 -1 5
-3 -3 6 -1.1 4.7
2 3 -6 20.3 4.5
-2 -3 6 25.5 4.7
1 3 -6 40.5 4.7
-1 -3 6 38.8 4.5
0 3 -6 682.93 19.5
0 -3 6 694.43 19
-1 3 -6 69.59 6.3
1 -3 6 47.9 5.1
1 -3 6 56.59 5.6
-2 3 -6 813.32 24.5
2 -3 6 781.22 22.2
-3 3 -6 611.54 20.7
3 -3 6 592.24 18.7
-4 3 -6 1097.19 34.9
4 -3 6 1085.39 31.4
-5 3 -6 275.27 16.4
5 -3 6 289.37 14.3
-6 3 -6 173.68 15.6
6 -3 6 154.68 12.8
7 -3 6 107.79 13.2
5 2 -6 144.19 11.6
5 2 -6 146.89 8.8
-5 -2 6 153.08 11.8
4 2 -6 88.19 9.7
-4 -2 6 88.19 9.7
3 2 -6 -4.6 4.2
-3 -2 6 1.1 4.5
2 2 -6 747.33 21.4
-2 -2 6 730.83 21
1 2 -6 1394.36 36.9
-1 -2 6 1446.26 36.6
0 2 -6 1943.81 49.7
0 -2 6 1980.3 49.2
-1 2 -6 581.04 17.9
1 -2 6 594.64 17.6
1 -2 6 528.45 15.8
-2 2 -6 546.15 17.8
2 -2 6 529.35 16
-3 2 -6 56.39 8
3 -2 6 45.5 6.6
-4 2 -6 52.69 7.7
4 -2 6 51.89 7.2
-5 2 -6 93.79 12.3
5 -2 6 98.69 10.5
-6 2 -6 51.39 10.4
6 -2 6 74.89 10.9
-7 2 -6 113.19 16.2
7 -2 6 110.99 13.4
6 1 -6 39.5 6.7
5 1 -6 20.8 4.9
4 1 -6 105.29 9.7
3 1 -6 72.79 7.7
-3 -1 6 77.59 7.2
2 1 -6 791.42 22.3
-2 -1 6 775.52 21.6
1 1 -6 1061.29 28.7
1 1 -6 1118.39 31.4
-1 -1 6 1049 28.2
0 1 -6 1467.25 39.2
0 1 -6 1644.34 43
0 -1 6 1510.95 42.5
0 -1 6 1577.84 39.1
0 -1 6 1503.45 39.2
-1 1 -6 1116.59 30.4
1 -1 6 1087.89 30.3
1 -1 6 974.1 27.2
1 -1 6 1038.1 27.3
-2 1 -6 26.5 4.7
2 -1 6 23.3 4
-3 1 -6 213.28 11
3 -1 6 202.38 9.5
-4 1 -6 72.89 10.1
4 -1 6 50.49 6.8
-5 1 -6 112.69 12.1
5 -1 6 105.19 10.5
-6 1 -6 23.1 8.8
6 -1 6 23.4 7.8
-7 1 -6 52.29 11.6
7 -1 6 62.69 10.3
6 0 -6 52.09 7.2
5 0 -6 -11.6 4.8
4 0 -6 61.49 6.4
4 0 -6 73.69 10.5
3 0 -6 49.5 8.4
3 0 -6 54.09 7.3
2 0 -6 3.1 4.1
2 0 -6 3.7 4.5
-2 0 6 -7.6 3.6
-2 0 6 3.3 4.1
1 0 -6 1020 28.2
1 0 -6 1108.69 31
-1 0 6 1042.6 30.5
-1 0 6 1050.79 27.8
0 0 -6 1181.38 33
0 0 6 1114.59 29.7
0 0 6 1159.38 32.8
-1 0 -6 1585.64 42.6
1 0 6 1491.85 38.3
1 0 6 1495.75 42.3
1 0 6 1491.05 38.5
-2 0 -6 79.59 7.1
2 0 6 73.29 5.7
2 0 6 66.39 6.3
-3 0 -6 163.98 9.9
3 0 6 154.28 8.3
-4 0 -6 274.67 14.3
4 0 6 298.47 12.6
-5 0 -6 38.3 8.2
5 0 6 51.59 7.4
-6 0 -6 7.5 8.1
6 0 6 7.3 7.3
-7 1 6 46.9 9.5
6 -1 -6 134.69 10.7
6 -1 -6 128.79 14
5 -1 -6 467.15 16.2
5 -1 -6 484.65 20.6
4 -1 -6 83.19 7
4 -1 -6 84.29 10.9
3 -1 -6 377.66 15.4
2 -1 -6 75.69 8
1 -1 -6 -1.8 3.4
1 -1 -6 4 4.7
-1 1 6 1.7 4.2
-1 1 6 14 4
0 -1 -6 180.08 9.1
0 -1 -6 127.79 6.4
0 1 6 172.18 7.3
0 1 6 169.48 8.6
-1 -1 -6 55.29 6.8
1 1 6 44.8 5
1 1 6 45.9 5.8
1 1 6 41.2 6.1
-2 -1 -6 98.89 7.5
2 1 6 96.39 6.3
2 1 6 82.49 6.9
-3 -1 -6 93.59 8.5
3 1 6 89.79 8.1
3 1 6 81.89 7.4
-4 -1 -6 709.03 24.3
4 1 6 708.03 22.2
-5 -1 -6 12.8 7.2
5 1 6 17.5 6.6
-6 -1 -6 31.2 9
6 1 6 26.4 8
7 -2 -6 16.1 8
7 -2 -6 27.2 10
-7 2 6 26 8.8
6 -2 -6 224.08 16.4
6 -2 -6 235.98 12.9
-6 2 6 224.18 14.7
5 -2 -6 17.2 7.8
5 -2 -6 13.1 5.8
-5 2 6 11.2 7.2
4 -2 -6 716.83 21.1
4 -2 -6 727.03 25.7
3 -2 -6 13.8 5.7
3 -2 -6 21 4
2 -2 -6 6.9 4.9
2 -2 -6 6.4 2.9
1 -2 -6 2058.79 57.19
1 -2 -6 2144.59 51.39
-1 2 6 1971.7 51.49
0 -2 -6 1.9 3.2
0 -2 -6 -6.9 4
0 2 6 -4.5 3.6
0 2 6 -3.5 3.9
-1 -2 -6 11.1 4.6
-1 -2 -6 10.3 3.7
1 2 6 5.5 4
-2 -2 -6 41.4 5.4
2 2 6 48.1 6.2
2 2 6 42.9 5.3
-3 -2 -6 584.44 19.9
3 2 6 585.74 18.5
3 2 6 587.14 18.5
4 2 6 186.48 11.4
4 2 6 178.78 11.1
-5 -2 -6 404.56 18.3
5 2 6 425.66 17.1
-6 -2 -6 0.4 8
6 2 6 1.1 7.6
7 -3 -6 15.8 10.2
7 -3 -6 -1.3 7.8
-7 3 6 -0.6 8.9
6 -3 -6 278.67 13.6
6 -3 -6 225.38 17.3
-6 3 6 232.78 15.4
5 -3 -6 328.67 13.7
5 -3 -6 336.67 17.7
-5 3 6 326.57 16
4 -3 -6 6.3 7
4 -3 -6 1.8 4.8
-4 3 6 8.6 6.7
3 -3 -6 366.96 15.6
3 -3 -6 352.56 12
-3 3 6 353.66 14.1
2 -3 -6 716.53 20.1
2 -3 -6 726.83 24
-2 3 6 757.32 21.8
1 -3 -6 701.13 22.4
1 -3 -6 722.53 19.8
-1 3 6 672.53 20.1
0 -3 -6 182.78 8
0 -3 -6 172.18 9.3
0 3 6 163.68 8.5
-1 -3 -6 395.46 13
-1 -3 -6 408.66 14.6
1 3 6 409.46 13.4
-2 -3 -6 352.96 13.1
2 3 6 371.36 13.4
3 3 6 45.5 6.6
3 3 6 56.49 8.5
4 3 6 -10 6.3
4 3 6 1 6
5 3 6 91.99 10.9
5 3 6 92.49 11.9
6 3 6 -10.1 7.5
6 -4 -6 5.7 9
6 -4 -6 0.7 6.9
-6 4 6 -7 8.6
5 -4 -6 27.1 6.6
5 -4 -6 15.1 8.3
-5 4 6 15.1 8.5
4 -4 -6 850.21 29.5
4 -4 -6 835.72 24.7
-4 4 6 850.71 27.2
3 -4 -6 10.1 6.3
3 -4 -6 7.5 4.5
-3 4 6 -7.7 6
2 -4 -6 8.3 5.5
2 -4 -6 9.2 4.3
-2 4 6 9.4 5.4
1 -4 -6 122.09 8
1 -4 -6 123.49 9.1
-1 4 6 124.29 7.8
0 -4 -6 237.28 11.2
0 -4 -6 219.68 9.9
0 4 6 231.58 10
-1 -4 -6 584.24 19.3
-1 -4 -6 570.14 17.6
1 4 6 574.74 17.9
-2 -4 -6 16.7 5.2
2 4 6 13.5 5.3
-3 -4 -6 100.79 9.7
3 4 6 94.19 10
-4 -4 -6 113.59 11.2
4 4 6 124.49 11.6
-5 -4 -6 84.49 11.8
5 4 6 99.89 12.2
-6 -4 -6 0.7 8.6
6 4 6 8.4 9.4
6 -5 -6 8.9 9.5
6 -5 -6 9.1 7.6
-6 5 6 4.6 9.3
5 -5 -6 13.3 6.7
5 -5 -6 3.8 8.2
-5 5 6 16.6 8.7
4 -5 -6 80.59 12.1
4 -5 -6 119.79 9.7
-4 5 6 91.59 11.7
3 -5 -6 18.1 7
3 -5 -6 5 5.5
-3 5 6 -6.7 6.3
2 -5 -6 -0.6 5.7
2 -5 -6 -1.7 4.9
-2 5 6 -4.6 5.2
1 -5 -6 1210.88 33.1
1 -5 -6 1214.88 36.2
0 -5 -6 361.46 13.6
0 5 6 368.76 13.5
-1 -5 -6 19.8 5.9
1 5 6 14.2 6
-2 -5 -6 7.4 6
2 5 6 -3.1 5.9
-3 -5 -6 203.18 12.1
3 5 6 222.18 12.9
-4 -5 -6 8.4 7.2
4 5 6 21.3 8.4
-5 -5 -6 51.59 9.1
5 5 6 53.19 10.2
6 -6 -6 5.5 7.7
6 -6 -6 2.6 9.4
-6 6 6 -15.6 9.7
5 -6 -6 16.9 7.4
5 -6 -6 16.4 9.2
-5 6 6 -3.4 9
4 -6 -6 84.59 10.1
4 -6 -6 88.49 12.5
-4 6 6 92.09 11.9
3 -6 -6 -2.3 6.7
3 -6 -6 -0.3 5.9
-3 6 6 -5.4 7.1
2 -6 -6 420.96 16
2 -6 -6 421.46 17.8
-2 6 6 429.36 16.3
1 -6 -6 -7.9 5.5
0 -6 -6 585.54 19.5
-1 -6 -6 28.3 7.5
1 6 6 32.8 7.1
-2 -6 -6 576.74 20.3
2 6 6 566.14 20.3
-3 -6 -6 69.39 10.6
3 6 6 65.49 9.2
-4 -6 -6 45.7 9.2
4 6 6 36.1 9.5
-5 -6 -6 -10 8.2
5 6 6 4.1 9.5
6 -7 -6 -3.8 8.2
-6 7 6 -17.5 10.3
5 -7 -6 57.39 9.4
5 -7 -6 45.2 10.1
-5 7 6 48.5 10.7
4 -7 -6 34.2 8.3
4 -7 -6 35.2 9.2
-4 7 6 27.1 8.9
3 -7 -6 49.5 8.2
3 -7 -6 55.49 9.1
-3 7 6 53.19 8.9
2 -7 -6 66.69 8.5
2 -7 -6 63.19 10.6
-2 7 6 47.6 8.4
1 -7 -6 427.46 16.7
-1 7 6 435.86 16.2
0 -7 -6 29.7 7.6
-1 -7 -6 -4.9 6.9
1 7 6 -2.5 7.3
-2 -7 -6 11.2 7.8
2 7 6 -0.4 7.8
-3 -7 -6 110.99 12.9
3 7 6 94.39 13.5
-4 -7 -6 22.9 9.2
4 7 6 23.4 10
5 -8 -6 13.1 8.9
5 -8 -6 6.6 9.2
-5 8 6 -16.2 10.1
4 -8 -6 164.88 13.5
4 -8 -6 173.18 15.3
-4 8 6 149.39 15
3 -8 -6 3.4 7.8
3 -8 -6 -2.3 7.2
-3 8 6 -4.7 8.4
2 -8 -6 64.29 9.2
-2 8 6 77.89 9.4
1 -8 -6 8.2 7.2
-1 8 6 -0.8 7.2
0 -8 -6 752.12 24.5
-1 -8 -6 31 8.6
1 8 6 38.9 8.9
-2 -8 -6 214.18 14.9
2 8 6 268.07 16.3
-3 -8 -6 161.58 14.7
3 8 6 170.78 15.9
-4 -8 -6 1.5 10.3
5 -9 -6 18.9 10
-5 9 6 -9.9 11.1
4 -9 -6 111.19 13.5
4 -9 -6 130.19 15.4
-4 9 6 114.59 15.4
3 -9 -6 55.19 9.9
3 -9 -6 63.29 10.9
-3 9 6 59.99 10.7
2 -9 -6 1.2 7.7
-2 9 6 -1.5 8.4
1 -9 -6 350.26 16.2
-1 9 6 326.57 16.5
0 -9 -6 42.7 8.8
-1 -9 -6 29.7 8.9
-2 -9 -6 28.2 10
-3 -9 -6 105.69 14.9
4 -10 -6 1.5 9.5
4 -10 -6 5.8 9.6
-4 10 6 -9.4 10.7
3 -10 -6 69.19 10.7
-3 10 6 49.2 11.5
2 -10 -6 2.5 8.1
-2 10 6 -17.2 9.3
1 -10 -6 -3.9 7.5
-1 10 6 3.9 8.8
0 -10 -6 106.99 12.6
-1 -10 -6 125.49 13.5
-2 -10 -6 230.18 17.1
2 -11 -6 22 9.3
-2 11 6 1 10.6
1 -11 -6 8.3 8.1
0 -11 -6 18.2 9.2
1 12 -7 3.6 9.8
-1 -12 7 24.9 8.7
0 12 -7 15.4 9.7
0 -12 7 13.9 8.1
-1 12 -7 9.8 9.7
1 -12 7 17.3 8.5
-2 12 -7 0 10.5
2 -12 7 14.6 9
2 11 -7 34.5 10
-2 -11 7 67.69 9.3
1 11 -7 64.49 10.9
-1 -11 7 78.89 10.7
0 11 -7 43.6 9.8
0 -11 7 45.1 8.3
-1 11 -7 28.9 9.4
1 -11 7 17.4 8
-2 11 -7 69.59 11.5
2 -11 7 63.59 9.7
-3 11 -7 1.3 10.3
3 -11 7 4.1 8.5
-4 11 -7 32 12.7
4 -11 7 24 10
3 10 -7 9.2 8.9
-3 -10 7 15.6 7.8
2 10 -7 87.19 13.2
-2 -10 7 94.49 10.4
1 10 -7 43.5 9.3
-1 -10 7 12.9 7
0 10 -7 22.8 8.5
0 -10 7 21.8 7
-1 10 -7 15.9 8.3
1 -10 7 8.2 6.9
-2 10 -7 7.5 8.7
2 -10 7 4.9 7.3
-3 10 -7 0.1 9.3
3 -10 7 0.5 8.1
-4 10 -7 14.1 10.9
4 -10 7 8.6 8.8
4 9 -7 126.39 14.4
3 9 -7 114.29 13
-3 -9 7 114.59 10.6
2 9 -7 11.8 7.7
-2 -9 7 -1.2 5.8
1 9 -7 45.3 8.6
-1 -9 7 47.3 7.1
0 9 -7 10.8 7.3
0 -9 7 5.9 5.8
-1 9 -7 482.95 19.7
1 -9 7 487.05 17.6
-2 9 -7 55.99 9.7
2 -9 7 70.49 10.4
-3 9 -7 141.09 14.5
3 -9 7 161.08 12.7
-4 9 -7 -10.1 9.2
4 -9 7 25.8 8.5
-5 9 -7 126.09 16.6
5 -9 7 120.69 13.7
4 8 -7 99.59 13.3
3 8 -7 17.4 7.7
-3 -8 7 -2.9 7.7
-3 -8 7 7.4 5.9
2 8 -7 159.68 12.7
-2 -8 7 190.28 12.2
-2 -8 7 177.08 9.9
1 8 -7 193.68 12.8
-1 -8 7 206.58 12
-1 -8 7 194.18 10.3
0 8 -7 28.7 7.3
0 -8 7 29.1 5.9
-1 8 -7 7.9 7
1 -8 7 13.7 5.8
-2 8 -7 130.49 12
2 -8 7 135.19 10.5
-3 8 -7 35.1 9.1
-4 8 -7 79.59 11.2
-4 8 -7 95.99 13.3
4 -8 7 87.19 11.7
-5 8 -7 9.8 9.7
-5 8 -7 27.6 10.2
5 -8 7 29.6 8.8
5 7 -7 45.9 9.7
4 7 -7 157.08 13.7
-4 -7 7 201.58 14.6
3 7 -7 139.69 11.8
-3 -7 7 130.49 11.9
-3 -7 7 132.99 9.2
2 7 -7 86.49 10.8
-2 -7 7 104.29 10.3
-2 -7 7 108.89 7.7
1 7 -7 263.47 13.1
-1 -7 7 250.17 12.2
-1 -7 7 267.47 10.7
0 7 -7 32.3 6.7
0 -7 7 38 5.4
-1 7 -7 16.3 6.4
1 -7 7 18.9 5.4
-2 7 -7 263.37 13.5
2 -7 7 272.57 12.6
-3 7 -7 494.35 20.6
-3 7 -7 524.35 19.7
3 -7 7 550.84 19
-4 7 -7 10.6 8
-4 7 -7 -5.4 7.8
4 -7 7 5.9 6.8
-5 7 -7 133.69 15.1
-5 7 -7 161.28 14.5
5 -7 7 155.08 12.9
-6 7 -7 162.48 17.7
-6 7 -7 152.78 15.8
6 -7 7 178.98 14.2
5 6 -7 4.4 7.5
-5 -6 7 7.3 8.9
4 6 -7 24.9 7.7
-4 -6 7 20.6 7.8
3 6 -7 222.98 13
-3 -6 7 231.38 12.6
2 6 -7 346.47 14.6
-2 -6 7 344.87 14
1 6 -7 49.9 6.7
-1 -6 7 48.2 5.6
-1 -6 7 52.29 6.2
0 6 -7 144.59 9.8
0 -6 7 158.58 7.6
-1 6 -7 322.97 13.4
1 -6 7 336.77 12.1
-2 6 -7 782.42 24.2
2 -6 7 819.12 23.7
-3 6 -7 165.88 12.3
-3 6 -7 171.68 11.7
3 -6 7 144.39 11
-4 6 -7 191.88 14.3
-4 6 -7 182.48 12.6
4 -6 7 188.28 12.4
-5 6 -7 49.2 9
-5 6 -7 36.6 10.1
5 -6 7 47.3 8.8
-6 6 -7 -0.4 8.9
-6 6 -7 -3.5 9.9
6 -6 7 14.7 7.9
6 5 -7 17.6 8.1
-6 -5 7 3.4 9.3
5 5 -7 7.8 7.4
-5 -5 7 3.1 7.9
4 5 -7 126.99 11.7
-4 -5 7 124.19 11.8
3 5 -7 9.3 6.1
-3 -5 7 4.1 6
2 5 -7 197.48 10.6
-2 -5 7 201.98 10.5
1 5 -7 24 5.3
-1 -5 7 18.9 5.1
0 5 -7 311.47 12.2
0 -5 7 327.47 10.3
-1 5 -7 -2.7 4.4
1 -5 7 -3.5 3.7
-2 5 -7 52.29 7.5
2 -5 7 44.6 7
-3 5 -7 70.69 10
3 -5 7 65.99 8.4
-4 5 -7 125.29 12.7
4 -5 7 136.39 11.1
-5 5 -7 -1.9 7.2
-5 5 -7 4.5 8.4
5 -5 7 16.7 7.3
-6 5 -7 280.47 15.8
-6 5 -7 268.47 18.7
6 -5 7 269.97 15.8
6 4 -7 28.5 8.2
-6 -4 7 23.7 9.6
5 4 -7 5.4 7
-5 -4 7 3 7.6
4 4 -7 230.48 13.1
-4 -4 7 232.78 13
3 4 -7 202.38 11.6
-3 -4 7 204.28 11.3
2 4 -7 199.38 9.9
-2 -4 7 200.18 10.2
1 4 -7 159.08 8.5
-1 -4 7 139.49 8.1
0 4 -7 119.69 7.7
0 -4 7 138.19 7.2
-1 4 -7 58.29 6.6
1 -4 7 48.2 5.5
-2 4 -7 -4.3 4.1
-2 4 -7 -1.1 4.4
2 -4 7 -2 3.9
-3 4 -7 199.08 11.8
3 -4 7 191.08 10.4
-4 4 -7 42.2 8.2
4 -4 7 38.7 7.2
-5 4 -7 96.89 13
5 -4 7 115.59 11.4
-6 4 -7 105.19 14.7
6 -4 7 111.59 12.8
6 3 -7 13.5 7.8
-6 -3 7 16.1 8.8
5 3 -7 10.2 7
4 3 -7 827.02 25.8
-4 -3 7 824.12 25.4
3 3 -7 32.7 6.4
-3 -3 7 37.9 6.1
2 3 -7 437.06 14.7
-2 -3 7 429.66 14.6
1 3 -7 0.9 3.8
-1 -3 7 3 3.8
0 3 -7 946.11 25.9
0 -3 7 957.7 25.5
-1 3 -7 7.7 4
-1 3 -7 3.9 3.6
1 -3 7 1.5 3.2
1 -3 7 1.7 3.2
-2 3 -7 2537.95 70.39
2 -3 7 2568.34 64.39
-3 3 -7 25.4 6.3
3 -3 7 35 5.7
-4 3 -7 254.47 14.7
4 -3 7 274.57 13.3
-5 3 -7 75.19 12.3
5 -3 7 84.99 10.8
-6 3 -7 122.59 14.8
6 -3 7 116.79 12.4
5 2 -7 66.59 10.6
4 2 -7 366.36 15.5
-4 -2 7 396.36 15.5
3 2 -7 647.74 20.8
-3 -2 7 686.63 20.3
2 2 -7 7.5 4.4
-2 -2 7 14 4.2
1 2 -7 831.72 23.2
-1 -2 7 832.62 22.8
0 2 -7 284.77 10
0 -2 7 284.27 10.1
0 -2 7 262.67 10.3
-1 2 -7 2448.56 66.09
1 -2 7 2424.46 65.89
1 -2 7 2351.86 59.89
1 -2 7 2433.86 60.19
-2 2 -7 38.9 5.3
2 -2 7 28.6 4.6
-3 2 -7 29.4 5.8
3 -2 7 27.8 5.2
-4 2 -7 12.6 6.8
4 -2 7 12.6 6.1
-5 2 -7 11.5 7.7
5 -2 7 12.4 6.6
-6 2 -7 483.65 23
6 -2 7 492.05 19.9
4 1 -7 655.33 21.8
-4 -1 7 659.23 21
3 1 -7 1327.87 36
-3 -1 7 1287.77 34.9
2 1 -7 2.8 3.9
-2 -1 7 4.6 3.9
1 1 -7 312.17 11.2
-1 -1 7 318.47 11.1
0 1 -7 121.09 8
0 -1 7 127.69 6.9
0 -1 7 113.49 7.3
-1 1 -7 185.78 9
1 -1 7 174.28 7.4
1 -1 7 138.59 6.9
-2 1 -7 48.1 7
2 -1 7 37 5.4
-3 1 -7 1 4.8
3 -1 7 4.8 4.3
-4 1 -7 1716.73 50.59
4 -1 7 1701.93 46
-5 1 -7 14.9 7.6
5 -1 7 17.2 6.7
-6 1 -7 5.2 8.5
6 -1 7 4.7 7.4
3 0 -7 12.1 5.2
3 0 -7 32.8 6.6
2 0 -7 200.88 9.6
2 0 -7 209.48 10.7
-2 0 7 211.28 9.2
1 0 -7 27.7 5.6
1 0 -7 27.7 4.4
-1 0 7 28.4 4.5
-1 0 7 30.5 4.8
0 0 -7 3279.87 84.59
0 0 7 3030.2 84.09
0 0 7 3008.7 76.79
-1 0 -7 28.3 5.1
1 0 7 24 3.8
1 0 7 24.9 4.3
-2 0 -7 21.7 4.6
2 0 7 27.2 4.2
2 0 7 25.5 4.4
-3 0 -7 34.4 6
3 0 7 27.2 5.2
-4 0 -7 8.2 6.5
4 0 7 -1.1 5.7
-5 0 -7 4.3 7.2
5 0 7 12.7 6.4
-6 0 -7 17.5 8.7
6 0 7 22.7 8
6 -1 -7 15.9 8.9
5 -1 -7 293.97 12.3
5 -1 -7 288.67 16.5
4 -1 -7 501.85 20.5
3 -1 -7 1732.13 50.39
2 -1 -7 52.39 7.7
2 -1 -7 59.39 6.8
1 -1 -7 617.04 18.3
1 -1 -7 650.03 20.7
-1 1 7 624.64 18
0 -1 -7 74.79 5
0 -1 -7 78.89 7.7
0 1 7 69.49 6
-1 -1 -7 59.99 7.2
1 1 7 46.1 5.3
1 1 7 62.79 6
-2 -1 -7 30.2 5.4
2 1 7 36.7 5
2 1 7 37.1 5.7
-3 -1 -7 92.09 9
3 1 7 86.39 8
3 1 7 86.09 7.9
-4 -1 -7 257.67 14.1
4 1 7 259.17 12.7
4 1 7 250.67 12.4
-5 -1 -7 406.76 18.7
5 1 7 401.26 16.7
-6 -1 -7 10.1 8.9
6 1 7 14.9 7.5
6 -2 -7 301.57 18.8
6 -2 -7 312.97 14.5
-6 2 7 315.67 16.9
5 -2 -7 21.3 6.1
5 -2 -7 24.6 8.5
4 -2 -7 221.38 10.1
4 -2 -7 223.48 14.6
3 -2 -7 36.3 7
3 -2 -7 39 5.5
2 -2 -7 -1.3 4.8
2 -2 -7 2.5 2.9
1 -2 -7 765.82 20.1
1 -2 -7 716.33 23.2
-1 2 7 714.33 20.3
0 -2 -7 65.59 5.6
0 -2 -7 65.69 7.5
0 2 7 55.99 6.3
-1 -2 -7 1.3 4.3
-1 -2 -7 6.9 3.5
1 2 7 1.3 3.8
-2 -2 -7 288.37 12.6
2 2 7 294.17 11.4
2 2 7 301.07 11.4
-3 -2 -7 131.39 10.3
3 2 7 136.89 10
3 2 7 150.28 9.6
-4 -2 -7 159.18 12.1
4 2 7 173.78 11.5
4 2 7 179.68 11.5
-5 -2 -7 25.4 7.9
5 2 7 20.1 7.7
6 2 7 93.09 12.4
6 -3 -7 175.58 16.4
6 -3 -7 193.68 12.2
-6 3 7 178.08 14.6
5 -3 -7 526.05 23
5 -3 -7 535.95 18.3
-5 3 7 543.25 21
4 -3 -7 185.08 14
4 -3 -7 194.78 9.7
-4 3 7 190.38 12.7
3 -3 -7 626.64 22.9
3 -3 -7 615.44 18.3
-3 3 7 654.23 20.7
2 -3 -7 35.3 6.3
2 -3 -7 43.2 5.5
-2 3 7 44.7 6
1 -3 -7 487.75 17.5
1 -3 -7 480.25 15
-1 3 7 477.15 15.3
-1 3 7 487.55 15.1
0 -3 -7 30.2 5.2
0 -3 -7 33.9 4.7
0 3 7 33.3 5.1
-1 -3 -7 123.29 9.1
-1 -3 -7 127.49 7.5
1 3 7 121.39 8.1
-2 -3 -7 53.09 6.5
-2 -3 -7 53.99 8.3
2 3 7 53.69 6.5
-3 -3 -7 2.3 6.4
-3 -3 -7 10 6.2
3 3 7 7.7 6.1
-4 -3 -7 23 7.3
4 3 7 33.9 7.5
4 3 7 34.7 7.5
5 3 7 21.2 8.2
5 3 7 21 7.8
6 3 7 -2.7 8.4
6 -4 -7 267.97 14.2
6 -4 -7 260.07 18.6
-6 4 7 287.57 17.5
5 -4 -7 -1 6.1
5 -4 -7 7.5 8.4
-5 4 7 13.5 8.2
4 -4 -7 40.6 8.6
4 -4 -7 53.09 6.8
-4 4 7 48.5 8.8
3 -4 -7 215.38 13.5
3 -4 -7 219.68 10.1
-3 4 7 202.08 12.9
2 -4 -7 37 7.1
2 -4 -7 40.7 5.5
-2 4 7 36.1 6.6
1 -4 -7 39.5 5.8
1 -4 -7 32 6.2
0 -4 -7 298.67 13.3
0 -4 -7 296.87 11.7
0 4 7 298.37 11.8
-1 -4 -7 13.2 5.6
-1 -4 -7 11.8 5
1 4 7 10 5.2
-2 -4 -7 97.29 8.9
2 4 7 101.49 9.6
-3 -4 -7 12.6 6.5
3 4 7 8.7 6.5
-4 -4 -7 388.86 16.6
4 4 7 386.06 16.9
-5 -4 -7 14.9 8.2
5 4 7 10.2 8.4
6 -5 -7 34.2 8.3
6 -5 -7 48.3 11.5
-6 5 7 28.5 10.4
5 -5 -7 495.55 17.7
5 -5 -7 437.16 21.9
-5 5 7 488.95 20.7
4 -5 -7 46.7 9.1
4 -5 -7 44.8 7.2
-4 5 7 43.3 8.9
3 -5 -7 275.07 15.4
3 -5 -7 288.77 12.5
-3 5 7 301.27 14.5
2 -5 -7 154.28 9.9
2 -5 -7 174.38 12.5
-2 5 7 174.88 10.8
1 -5 -7 201.58 12.1
1 -5 -7 203.98 10.9
0 -5 -7 107.19 9.9
0 -5 -7 105.99 9.2
0 5 7 108.59 9.1
-1 -5 -7 608.84 19.7
1 5 7 593.24 19.6
-2 -5 -7 8.6 6.4
2 5 7 9.5 6.4
-3 -5 -7 89.29 10.4
3 5 7 107.09 11.1
-4 -5 -7 28.2 8
4 5 7 24.6 8.4
-5 -5 -7 -0.4 8.1
5 5 7 9.9 8.5
6 -6 -7 31.8 11.5
6 -6 -7 41.6 9.1
-6 6 7 8.3 10.7
5 -6 -7 21.7 7.6
5 -6 -7 9 8.7
-5 6 7 5.1 9.2
4 -6 -7 -7.9 6.3
4 -6 -7 -7 7.8
-4 6 7 -10.2 7.6
3 -6 -7 24.9 6.8
3 -6 -7 17 7.4
-3 6 7 10.4 7.8
2 -6 -7 755.42 26.7
2 -6 -7 734.63 23.6
-2 6 7 793.72 24.3
1 -6 -7 15.4 6.5
1 -6 -7 5.8 6.5
0 -6 -7 25.7 7.4
0 6 7 22.4 6.5
-1 -6 -7 94.89 10.7
1 6 7 92.19 10.7
-2 -6 -7 754.32 24.7
2 6 7 762.02 24.9
-3 -6 -7 25.1 8
3 6 7 11.4 8.2
-4 -6 -7 72.49 10.3
4 6 7 67.69 10.9
-5 -6 -7 108.89 13.4
5 6 7 116.69 15.3
5 -7 -7 104.09 14.8
5 -7 -7 99.99 12.2
-5 7 7 101.49 12.8
4 -7 -7 141.69 14.7
4 -7 -7 159.38 12.4
-4 7 7 158.38 14.2
3 -7 -7 274.67 16.2
3 -7 -7 273.07 14
-3 7 7 247.68 15
2 -7 -7 127.99 12.5
2 -7 -7 113.69 11.2
-2 7 7 130.49 11.7
1 -7 -7 42.3 7.9
1 -7 -7 60.69 8.8
0 -7 -7 5.7 7.2
0 7 7 0.6 7.4
-1 -7 -7 131.09 12
1 7 7 125.09 12.1
-2 -7 -7 12.9 8.2
2 7 7 1.7 8
-3 -7 -7 35.5 9.5
3 7 7 32.9 9.6
-4 -7 -7 0.1 9
4 7 7 7.6 9.4
5 -8 -7 1.9 9.3
5 -8 -7 18.9 9.3
-5 8 7 -0.8 10.5
4 -8 -7 4.6 8
4 -8 -7 7.3 9
-4 8 7 8.6 9.8
3 -8 -7 150.78 14.3
3 -8 -7 142.39 12.7
-3 8 7 145.79 13.9
2 -8 -7 272.47 15.7
2 -8 -7 251.17 14.5
-2 8 7 261.97 15.1
1 -8 -7 49 8.4
0 -8 -7 83.59 11.2
-1 -8 -7 3 8
1 8 7 -2.6 8.4
-2 -8 -7 86.29 12.7
2 8 7 101.79 14.4
-3 -8 -7 22.2 9.8
3 8 7 24.1 10.6
4 -9 -7 37 10.2
4 -9 -7 42.7 11
-4 9 7 41 11.3
3 -9 -7 2.5 8.7
3 -9 -7 4.9 8.3
-3 9 7 6.2 9.4
2 -9 -7 4.1 8.2
-2 9 7 0.4 8.7
1 -9 -7 35.2 8.8
0 -9 -7 10.2 8
-1 -9 -7 124.29 13.2
1 9 7 120.09 15.4
-2 -9 -7 12.5 9.8
2 9 7 7.1 10.7
-3 -9 -7 26.9 11
3 9 7 20.3 11.2
3 -10 -7 8.3 9.6
3 -10 -7 16.7 9.5
-3 10 7 -11.6 10.1
2 -10 -7 11.8 8.7
-2 10 7 9.6 10.2
1 -10 -7 13.6 8.2
0 -10 -7 6.4 8.4
-1 -10 -7 -1.2 8.7
1 -11 -7 22 9.1
0 12 -8 178.28 16.7
0 -12 8 167.28 13.5
-1 12 -8 38.9 11
1 -12 8 41.9 9.4
-2 12 -8 33.8 11.6
2 -12 8 9.3 9.6
2 11 -8 68.19 11.4
1 11 -8 11.7 9.7
-1 -11 8 20.5 7.4
0 11 -8 4.2 9.3
0 -11 8 13.5 7.4
-1 11 -8 23.3 9.9
1 -11 8 37.1 8.3
-2 11 -8 10.3 9.9
2 -11 8 11.3 8.4
-3 11 -8 69.09 12.5
3 -11 8 72.69 11.3
3 10 -8 6.4 9.3
2 10 -8 142.59 14.5
-2 -10 8 164.98 11.7
1 10 -8 166.58 14.3
-1 -10 8 171.28 11.4
0 10 -8 43.3 9.3
0 -10 8 38.6 7.5
-1 10 -8 306.27 16.7
1 -10 8 324.17 14.8
-2 10 -8 6.3 8.7
2 -10 8 -2.3 7.3
-3 10 -8 12.2 9.6
3 -10 8 0 8.1
-4 10 -8 -2.9 10.5
4 -10 8 4.2 8.7
4 9 -8 22.3 9.8
3 9 -8 86.69 12.8
2 9 -8 121.99 12.9
-2 -9 8 136.99 10.1
-2 -9 8 124.09 13.1
1 9 -8 120.69 12.5
-1 -9 8 121.29 9.5
0 9 -8 18.6 8.1
0 -9 8 25.6 6.5
-1 9 -8 9.4 8.1
1 -9 8 0.4 6
-2 9 -8 69.09 10
2 -9 8 66.49 10.1
-3 9 -8 2.8 8.8
3 -9 8 6.3 7.6
-4 9 -8 53.39 11
4 -9 8 29.3 9.3
-5 9 -8 17.3 11
5 -9 8 18.1 9
4 8 -8 15.6 8.8
-4 -8 8 2 9.1
3 8 -8 41.3 8.8
-3 -8 8 30.2 8.8
2 8 -8 388.46 17.5
-2 -8 8 380.46 14
-2 -8 8 417.36 16.9
1 8 -8 186.38 13
-1 -8 8 200.48 9.8
0 8 -8 147.69 11.9
0 -8 8 158.78 9.5
-1 8 -8 826.52 26.7
1 -8 8 843.72 24.8
-2 8 -8 326.17 16.2
2 -8 8 375.06 15.2
-3 8 -8 11.2 8
3 -8 8 6.3 7.1
-4 8 -8 11.3 9
4 -8 8 0.3 7.4
-5 8 -8 15.1 10
-5 8 -8 18.1 10.3
5 -8 8 41.6 9.5
5 7 -8 67.19 10.4
4 7 -8 253.37 15.6
-4 -7 8 263.77 16
3 7 -8 64.39 8.8
-3 -7 8 56.29 8.5
2 7 -8 101.99 11.3
-2 -7 8 128.59 10.9
1 7 -8 51.49 7.9
-1 -7 8 53.39 7.5
-1 -7 8 51.19 6.3
0 7 -8 91.39 10.1
0 -7 8 99.99 7.5
-1 7 -8 1032.1 30.8
1 -7 8 1058.29 29.2
-2 7 -8 5.2 6.9
2 -7 8 -0.1 5.8
-3 7 -8 37 8.2
3 -7 8 57.39 8.1
-4 7 -8 7.6 8.1
-4 7 -8 -1.9 8
4 -7 8 2.9 7.3
-5 7 -8 27.9 9.2
-5 7 -8 34.1 10.2
5 -7 8 48.5 9.1
-6 7 -8 -9.7 9.8
-6 7 -8 -6.2 9.4
6 -7 8 -1.5 8.4
5 6 -8 -5.4 7.4
-5 -6 8 -0.9 8.8
4 6 -8 19.9 8
-4 -6 8 19.8 8.1
3 6 -8 -9.3 6.4
-3 -6 8 0.7 6.5
2 6 -8 286.07 14
-2 -6 8 312.57 13.8
1 6 -8 495.75 17.7
-1 -6 8 504.55 17.1
0 6 -8 62.09 8.7
0 -6 8 76.79 6.1
-1 6 -8 326.97 13.6
1 -6 8 327.07 12.4
-2 6 -8 0.9 5.8
2 -6 8 -0.1 5.3
-3 6 -8 146.49 11.4
-3 6 -8 124.29 12
3 -6 8 154.78 10.8
-4 6 -8 81.89 12.1
4 -6 8 98.49 10.8
-5 6 -8 191.98 13.7
-5 6 -8 168.98 15.6
5 -6 8 203.48 13.7
-6 6 -8 60.59 11.9
6 -6 8 61.49 10
5 5 -8 161.88 13.2
-5 -5 8 137.49 14.2
4 5 -8 6 7.3
-4 -5 8 1.2 7.1
3 5 -8 2.6 6.4
-3 -5 8 5.5 6.4
2 5 -8 66.89 8.8
-2 -5 8 86.39 9.4
1 5 -8 77.99 8.2
-1 -5 8 75.59 7.9
0 5 -8 9.3 4.9
0 -5 8 14.3 4.5
-1 5 -8 598.54 18.8
1 -5 8 605.24 17.9
-2 5 -8 355.56 13.3
2 -5 8 324.17 12.8
-3 5 -8 -5.6 6.5
-3 5 -8 1.5 5.7
3 -5 8 -6.8 5.4
-4 5 -8 37.8 8.7
4 -5 8 47 8
-5 5 -8 -1.4 8.3
5 -5 8 -2.6 6.7
-6 5 -8 -2 9.5
6 -5 8 5.3 7.8
6 4 -8 20.6 8.1
-6 -4 8 9.9 9.3
5 4 -8 26.5 7.9
-5 -4 8 9.1 8.2
4 4 -8 73.49 10.6
-4 -4 8 74.39 10.9
3 4 -8 20.6 6.7
-3 -4 8 23.2 6.6
2 4 -8 24.7 5.5
-2 -4 8 20 5.4
1 4 -8 366.56 13.2
-1 -4 8 365.96 12.9
0 4 -8 318.17 12.1
0 -4 8 341.57 11.7
-1 4 -8 0.9 4.1
1 -4 8 -3.1 3.3
-2 4 -8 37.8 6.1
2 -4 8 47.6 5.6
-3 4 -8 232.88 13
3 -4 8 222.18 11.3
-4 4 -8 116.69 12.3
4 -4 8 115.69 10.6
-5 4 -8 182.78 14.9
5 -4 8 157.98 12.7
-6 4 -8 72.19 12.4
6 -4 8 81.59 12
6 3 -8 17.6 8.2
-6 -3 8 24.9 9.2
5 3 -8 29.4 7.8
-5 -3 8 24.4 8.3
4 3 -8 4.2 6.6
-4 -3 8 -1.4 6.8
3 3 -8 190.38 11.4
-3 -3 8 182.58 11
2 3 -8 637.74 20
-2 -3 8 645.84 19.5
1 3 -8 389.46 13.2
-1 -3 8 378.56 12.9
0 3 -8 21 4.4
0 -3 8 29 4.5
-1 3 -8 597.34 19.3
1 -3 8 584.54 16.9
-2 3 -8 78.99 8.2
2 -3 8 71.29 6.6
-3 3 -8 -5.3 5.4
3 -3 8 -4.2 4.7
-4 3 -8 396.16 18.3
4 -3 8 413.56 16.3
-5 3 -8 111.79 13.6
5 -3 8 135.09 11.6
-6 3 -8 73.79 12.2
6 -3 8 74.69 10.1
5 2 -8 152.58 12.4
-5 -2 8 137.69 12.6
4 2 -8 49.2 7.9
-4 -2 8 48.9 7.6
3 2 -8 218.68 11.6
-3 -2 8 226.88 11.3
2 2 -8 62.49 7.6
-2 -2 8 59.19 7
1 2 -8 1009.5 27.7
-1 -2 8 1004 27.3
0 2 -8 91.29 7.7
0 2 -8 95.79 6.4
0 -2 8 75.79 6.6
0 -2 8 88.39 6.8
-1 2 -8 10.2 4.5
1 -2 8 9.6 3.6
1 -2 8 -2.4 3
-2 2 -8 0.8 4.3
2 -2 8 2.5 3.8
-3 2 -8 43.7 6.7
3 -2 8 47.6 6.1
-4 2 -8 5.3 6.8
4 -2 8 -7.2 5.6
-5 2 -8 -2.8 7.7
5 -2 8 -2.2 6.2
-6 2 -8 -1.8 9
6 -2 8 1.9 7.5
4 1 -8 177.58 12.1
3 1 -8 213.98 11.2
-3 -1 8 200.08 10.5
2 1 -8 1034.5 28.7
-2 -1 8 1017.3 28.1
1 1 -8 1360.56 36.6
-1 -1 8 1398.16 36.1
0 1 -8 453.75 15.7
0 -1 8 428.86 14
-1 1 -8 211.58 10.1
1 -1 8 203.88 8.4
1 -1 8 186.78 7.6
-2 1 -8 130.49 8.9
2 -1 8 113.89 6.9
2 -1 8 127.89 7.1
-3 1 -8 564.44 20.2
3 -1 8 560.14 18.1
-4 1 -8 9.7 6.7
4 -1 8 9.5 6
-5 1 -8 103.49 12.9
5 -1 8 112.19 11.1
-6 1 -8 93.59 14.4
6 -1 8 109.89 12.6
5 0 -8 173.88 14.2
4 0 -8 438.66 19.2
3 0 -8 39.7 6.2
3 0 -8 40.6 7.2
-3 0 8 41.8 6
2 0 -8 -8.9 4.4
2 0 -8 2.5 5
-2 0 8 2.2 4.4
1 0 -8 720.53 20.9
1 0 -8 741.73 23.6
-1 0 8 716.63 20.5
0 0 -8 5.7 4.7
0 0 8 7.6 3.4
-1 0 -8 4.1 4.4
1 0 8 4.2 3.8
1 0 8 5.2 3.3
-2 0 -8 1136.39 33.7
2 0 8 1117.69 30.3
2 0 8 1137.19 30.4
-3 0 -8 902.41 28.5
3 0 8 886.01 25.7
-4 0 -8 2.5 6.6
4 0 8 5 5.8
-5 0 -8 83.39 12.3
5 0 8 79.39 10.4
-6 0 -8 -5.2 8.4
6 0 8 -4.9 7.1
6 -1 -8 13.1 8.9
5 -1 -8 35.7 8.6
4 -1 -8 591.64 23.2
3 -1 -8 2761.12 77.69
2 -1 -8 278.17 13.3
2 -1 -8 290.87 11.7
-2 1 8 281.47 11.1
1 -1 -8 747.93 24.1
1 -1 -8 740.13 21.3
-1 1 8 756.82 21.1
0 -1 -8 17.3 3.5
0 -1 -8 14.3 4.9
0 1 8 15.1 4
-1 -1 -8 14.5 5
1 1 8 10.9 4.1
-2 -1 -8 0.1 4.8
2 1 8 0.2 4.5
2 1 8 3.4 4.3
-3 -1 -8 134.09 10.7
3 1 8 140.39 9.6
3 1 8 141.09 9.2
-4 -1 -8 431.56 18.6
4 1 8 465.25 17
-5 -1 -8 70.69 12.1
5 1 8 58.69 8.5
-6 -1 -8 30.4 9.9
6 1 8 41.8 8.9
6 -2 -8 125.19 15.2
-6 2 8 99.99 13.6
5 -2 -8 0.8 7.9
5 -2 -8 3.9 5.4
4 -2 -8 228.18 15.1
3 -2 -8 5.6 6.5
2 -2 -8 179.28 11.3
1 -2 -8 421.66 16.1
-1 2 8 433.06 13.8
0 -2 -8 394.86 12.3
0 -2 -8 387.76 15
0 2 8 370.06 12.9
-1 -2 -8 29.5 5.4
-1 -2 -8 37.7 4.8
1 2 8 31.1 5
-2 -2 -8 18.7 5.7
2 2 8 19.9 5.3
-3 -2 -8 335.67 15.2
3 2 8 354.16 14
3 2 8 319.17 13.8
-4 -2 -8 19.2 7.1
4 2 8 29.7 7.4
4 2 8 39.6 7.5
-5 -2 -8 30.7 8.7
5 2 8 37.3 8.2
-6 -2 -8 83.29 13.7
6 2 8 79.09 11
6 -3 -8 37 10.6
-6 3 8 53.09 10.1
5 -3 -8 16.5 8.5
5 -3 -8 8.1 6
-5 3 8 5.8 8
4 -3 -8 332.07 12.6
4 -3 -8 317.17 17.4
-4 3 8 312.17 15.7
3 -3 -8 1429.86 39.4
3 -3 -8 1506.75 46.3
-3 3 8 1664.63 42.6
2 -3 -8 46.4 5.8
2 -3 -8 29.7 6.5
-2 3 8 32.3 5.9
1 -3 -8 1000.1 26.9
1 -3 -8 967 30.5
-1 3 8 991.4 27.1
0 -3 -8 288.17 10.8
0 -3 -8 290.77 12.8
0 3 8 275.47 11.3
-1 -3 -8 120.49 10.1
-1 -3 -8 132.09 8.1
1 3 8 122.59 8.7
-2 -3 -8 -5.9 5.2
-2 -3 -8 -5.1 5.8
2 3 8 -1 5.5
-3 -3 -8 10.3 6.6
-3 -3 -8 13 6.5
3 3 8 0.3 6.3
4 3 8 226.28 13.3
4 3 8 239.48 13.3
5 3 8 7.4 7.7
5 3 8 13.9 8
6 -4 -8 347.67 21.2
-6 4 8 372.86 19.7
5 -4 -8 99.99 14
5 -4 -8 122.49 10.1
-5 4 8 104.69 13
4 -4 -8 79.29 8.4
4 -4 -8 80.19 12.4
-4 4 8 73.49 11.5
3 -4 -8 35.4 5.8
3 -4 -8 16.1 7.4
-3 4 8 12.5 7.6
2 -4 -8 22.2 6.8
2 -4 -8 21.2 5.4
-2 4 8 20.6 6.4
1 -4 -8 153.78 9.6
1 -4 -8 174.38 11.4
0 -4 -8 383.96 16
0 -4 -8 378.66 13.9
0 4 8 372.76 14
-1 -4 -8 542.25 17.7
-1 -4 -8 544.65 19.9
1 4 8 548.25 18
-2 -4 -8 15.6 6.2
2 4 8 7.6 6.4
-3 -4 -8 26.1 7.1
3 4 8 23.5 7.2
-4 -4 -8 9.1 7.4
4 4 8 10.2 7.6
-5 -4 -8 7.5 8.1
5 4 8 -4.8 8.2
6 -5 -8 2.3 7.5
6 -5 -8 -2 10
-6 5 8 -14.3 9.6
5 -5 -8 6.2 8.7
5 -5 -8 7.7 6.7
-5 5 8 18.1 9.4
4 -5 -8 9.5 6.5
4 -5 -8 13 8.1
-4 5 8 1.4 8.5
3 -5 -8 555.34 18.3
3 -5 -8 538.25 22.2
-3 5 8 574.04 20.7
2 -5 -8 57.19 8.8
2 -5 -8 60.89 8.6
-2 5 8 61.29 7.8
1 -5 -8 -2 5.9
1 -5 -8 6.2 6.3
0 -5 -8 9.6 6.4
0 -5 -8 13.1 6.4
0 5 8 22.5 6.2
-1 -5 -8 305.47 13.5
1 5 8 304.27 13.8
-2 -5 -8 67.89 10
2 5 8 55.99 8.3
-3 -5 -8 233.28 13.3
3 5 8 232.78 13.9
-4 -5 -8 128.99 12.3
4 5 8 133.49 13
-5 -5 -8 7.4 8.4
5 5 8 16.8 9.3
5 -6 -8 193.48 17
5 -6 -8 206.78 13.1
-5 6 8 201.98 16
4 -6 -8 -8.9 7.7
4 -6 -8 -1.9 6.4
-4 6 8 1.6 8
3 -6 -8 110.89 10.2
3 -6 -8 107.59 12.4
-3 6 8 85.09 11.7
2 -6 -8 6.8 7.5
2 -6 -8 -6.9 6.3
-2 6 8 0.6 6.9
1 -6 -8 15.3 7
1 -6 -8 20.4 7.4
0 -6 -8 486.95 18.2
-1 -6 -8 33.9 8
1 6 8 18.8 7.8
-2 -6 -8 9.9 7.8
2 6 8 27.6 8.1
-3 -6 -8 17.3 8.3
3 6 8 17 8.5
-4 -6 -8 86.69 12.8
4 6 8 86.29 11.3
5 -7 -8 60.69 9.8
5 -7 -8 42.3 11.3
-5 7 8 47.2 11.5
4 -7 -8 27.8 8
4 -7 -8 26 9.4
-4 7 8 -4.6 9.1
3 -7 -8 408.36 19.8
3 -7 -8 417.36 17.4
-3 7 8 419.06 18.4
2 -7 -8 264.37 15.4
2 -7 -8 226.18 13.6
-2 7 8 260.37 14.4
1 -7 -8 29.9 7.9
0 -7 -8 116.79 11.8
-1 -7 -8 317.17 15.9
1 7 8 342.97 16.6
-2 -7 -8 59.39 9.9
2 7 8 69.29 10.1
-3 -7 -8 94.79 13.3
3 7 8 133.49 14.3
-4 -7 -8 61.09 11.1
4 7 8 41.2 11.3
5 -8 -8 -0.8 9.2
-5 8 8 -20.6 10.1
4 -8 -8 10.9 9.4
4 -8 -8 11 8.4
-4 8 8 -6.6 9.6
3 -8 -8 5.5 8.6
3 -8 -8 11.7 8.3
-3 8 8 -0.2 8.7
2 -8 -8 23 8.3
2 -8 -8 -5.6 8
-2 8 8 0.1 8.3
1 -8 -8 -1.5 7.6
0 -8 -8 40.5 8.8
-1 -8 -8 19.4 8.7
1 8 8 15.2 9
-2 -8 -8 -4.5 8.5
2 8 8 5.7 9.5
-3 -8 -8 4.2 9.6
3 8 8 8.3 10.4
4 -9 -8 -1.8 9.7
4 -9 -8 7.9 9.2
-4 9 8 2.8 10.7
3 -9 -8 41.1 10.4
3 -9 -8 38.5 9.8
-3 9 8 40 11
2 -9 -8 106.19 12.6
-2 9 8 85.09 11
1 -9 -8 2.4 7.8
0 -9 -8 -4.6 8
-1 -9 -8 25.5 9.7
-2 -9 -8 2.8 9.8
2 9 8 19.5 10.9
3 -10 -8 59.49 11.4
3 -10 -8 39.3 10.6
-3 10 8 10.5 11.1
2 -10 -8 2.1 8.8
-2 10 8 -19.4 9.9
1 -10 -8 2.1 8.5
0 -10 -8 35.4 9.8
-1 -10 -8 6.8 9.5
0 12 -9 67.99 12.8
0 -12 9 100.09 12.4
-1 12 -9 20.1 10.8
1 -12 9 9.3 8.4
2 11 -9 29.4 10.4
1 11 -9 9.2 9.8
-1 -11 9 13.8 7.3
0 11 -9 35.7 10.8
0 -11 9 43.5 8.5
-1 11 -9 4 9.5
1 -11 9 10.2 7.7
-2 11 -9 3 9.8
2 -11 9 6.9 8.5
-3 11 -9 24.5 11.3
3 -11 9 14.5 9.1
3 10 -9 20.8 9.7
2 10 -9 15.8 9.5
1 10 -9 14.4 9
-1 -10 9 26.4 7.1
0 10 -9 277.47 16.6
0 -10 9 296.97 14.1
-1 10 -9 116.39 13.6
1 -10 9 128.59 11.4
-2 10 -9 16.5 9.4
2 -10 9 25.5 8.6
-3 10 -9 89.09 12.5
3 -10 9 96.09 12.9
-4 10 -9 37.1 11.3
4 -10 9 12.7 9.3
3 9 -9 52.99 10
2 9 -9 94.89 12.8
-2 -9 9 86.99 10.7
1 9 -9 44.2 9.2
-1 -9 9 48.3 6.8
0 9 -9 1.9 7.8
0 -9 9 6.9 5.9
-1 9 -9 55.09 9.2
1 -9 9 50.29 7.8
-2 9 -9 21.2 8.9
2 -9 9 25.4 8
-3 9 -9 127.79 14.1
3 -9 9 128.09 12.2
-4 9 -9 246.88 17.1
4 -9 9 234.58 15.4
-5 9 -9 132.79 16.4
5 -9 9 107.09 13.9
4 8 -9 17.5 9.2
3 8 -9 2.3 7.9
-3 -8 9 9.2 8.4
2 8 -9 29.3 8.1
1 8 -9 202.58 13.2
-1 -8 9 187.38 9.7
0 8 -9 325.17 15.8
0 -8 9 322.87 12.7
-1 8 -9 671.13 23.4
1 -8 9 695.63 21.6
-2 8 -9 -8.7 7.4
2 -8 9 3.3 6.5
-3 8 -9 62.49 9.6
3 -8 9 62.69 9.1
-4 8 -9 6.4 8.7
-4 8 -9 -9.9 8.5
4 -8 9 6.1 7.8
-5 8 -9 -3.1 9.6
-5 8 -9 -0.1 9.4
5 -8 9 -5.2 8.3
5 7 -9 52.39 10.2
4 7 -9 42.3 9.5
-4 -7 9 22.5 9.2
3 7 -9 145.79 12.8
-3 -7 9 140.09 12.7
2 7 -9 68.49 9
-2 -7 9 67.39 8.7
1 7 -9 7.9 6.8
-1 -7 9 10.1 6.6
0 7 -9 94.69 10.9
0 -7 9 116.39 7.7
-1 7 -9 16.6 7
1 -7 9 20.5 6
-2 7 -9 -1 6.9
2 -7 9 4.3 6
-3 7 -9 83.29 11
3 -7 9 76.79 10.1
-4 7 -9 112.09 12.4
-4 7 -9 76.09 11.1
4 -7 9 109.29 11.7
-5 7 -9 72.19 12
-5 7 -9 112.99 13.4
5 -7 9 98.29 12.2
5 6 -9 100.99 13.1
-5 -6 9 103.89 14.3
4 6 -9 60.39 9.6
-4 -6 9 40 9.2
3 6 -9 47.9 8.5
-3 -6 9 49.5 8.4
2 6 -9 8.8 6.5
-2 -6 9 20.2 6.9
1 6 -9 2.8 5.9
-1 -6 9 -0.3 5.8
0 6 -9 419.96 15.9
-1 6 -9 295.37 13.5
1 -6 9 306.97 11.9
-2 6 -9 406.96 15.8
2 -6 9 376.46 14.7
-3 6 -9 41.5 7.6
-3 6 -9 40.4 8.3
3 -6 9 48.7 7.8
-4 6 -9 35.2 9.2
4 -6 9 41.9 8.1
-5 6 -9 15.4 8
-5 6 -9 14.1 9.6
5 -6 9 30.5 8.8
-6 6 -9 -11.2 10
6 -6 9 -3.6 8.1
5 5 -9 23.1 8.5
-5 -5 9 19.8 9.4
4 5 -9 9.9 7.4
-4 -5 9 1 7.5
3 5 -9 269.27 14.2
-3 -5 9 266.47 14.1
2 5 -9 130.29 10.3
-2 -5 9 133.29 10.4
1 5 -9 133.49 9.9
-1 -5 9 135.99 9.4
0 5 -9 294.17 12.5
-1 5 -9 24.7 5.8
1 -5 9 32.3 4.9
-2 5 -9 33 6.3
2 -5 9 35.9 5.9
-3 5 -9 44.2 8.2
3 -5 9 49 7.3
-4 5 -9 94.29 12.5
4 -5 9 119.49 11
-5 5 -9 379.06 20.4
5 -5 9 384.06 17.8
-6 5 -9 18.7 11.2
6 -5 9 41.5 9.7
6 4 -9 164.28 14.7
-6 -4 9 206.28 16.4
5 4 -9 36.5 8.6
-5 -4 9 41.7 9.5
4 4 -9 11.6 7
-4 -4 9 3.6 7.4
3 4 -9 7.3 6.5
-3 -4 9 2 6.3
2 4 -9 156.68 10.4
-2 -4 9 159.98 10.2
1 4 -9 63.19 7.7
-1 -4 9 62.49 7.6
0 4 -9 222.88 10.3
0 -4 9 228.18 10.1
-1 4 -9 2 4.5
1 -4 9 9.8 3.9
-2 4 -9 28.9 6.2
2 -4 9 39.3 5.8
-3 4 -9 42.2 7.8
3 -4 9 46.9 7
-4 4 -9 112.09 12.4
4 -4 9 99.59 10.6
-5 4 -9 96.09 13.7
5 -4 9 127.89 12.4
-6 4 -9 79.79 12.9
6 -4 9 79.49 12.2
6 3 -9 95.19 13.4
5 3 -9 4.2 7.2
-5 -3 9 -5.5 7.9
4 3 -9 62.49 8.6
-4 -3 9 71.59 8.8
3 3 -9 92.59 10.4
-3 -3 9 79.29 9.9
2 3 -9 48.8 6.5
-2 -3 9 27.8 5.7
1 3 -9 86.99 7.4
-1 -3 9 77.59 7.4
0 3 -9 10.9 4.1
0 -3 9 11.8 4.5
-1 3 -9 1013 30.9
1 -3 9 1022 27.3
1 -3 9 1051.49 27.9
-2 3 -9 353.66 14.6
2 -3 9 340.77 12.6
-3 3 -9 159.08 11.8
3 -3 9 154.38 10
-4 3 -9 71.39 11.6
4 -3 9 68.59 9.9
-5 3 -9 14 8.8
5 -3 9 17.3 7.6
-6 3 -9 5.4 9.6
6 -3 9 4.3 8
5 2 -9 44 8.7
-5 -2 9 50.99 8.7
4 2 -9 110.19 11.4
-4 -2 9 97.79 11.1
3 2 -9 481.95 17.5
-3 -2 9 477.35 17.1
2 2 -9 14.8 5.6
-2 -2 9 12.8 5.1
1 2 -9 236.88 10.3
-1 -2 9 236.58 10.3
0 2 -9 64.99 8
0 2 -9 62.59 6.2
0 -2 9 62.09 6.6
-1 2 -9 88.29 8.3
1 -2 9 75.69 6.4
1 -2 9 67.49 5.4
-2 2 -9 4.9 5
2 -2 9 -0.6 3.9
-3 2 -9 56.79 9.7
3 -2 9 53.29 8
-4 2 -9 581.84 22.7
4 -2 9 604.84 20.4
-5 2 -9 164.38 14.9
5 -2 9 183.88 13.1
-6 2 -9 1 9.5
6 -2 9 10.9 8
4 1 -9 353.76 15.7
-4 -1 9 331.37 14.8
3 1 -9 23.4 6.5
-3 -1 9 33.5 6.4
2 1 -9 34.5 5.5
-2 -1 9 25.3 5.6
1 1 -9 111.39 9.6
1 1 -9 118.09 7.9
-1 -1 9 119.19 8.1
0 1 -9 22.1 5.3
0 -1 9 18.3 4.3
-1 1 -9 1188.58 34.1
1 -1 9 1140.39 29.9
1 -1 9 1105.09 30.2
-2 1 -9 327.57 13.8
2 -1 9 317.57 11.6
2 -1 9 316.37 11.6
-3 1 -9 90.69 10.2
3 -1 9 74.69 8.1
-4 1 -9 15.8 7.5
4 -1 9 6.4 6.1
-5 1 -9 146.19 14.4
5 -1 9 167.48 12.5
-6 1 -9 87.29 14.6
6 -1 9 95.89 12.3
4 0 -9 44.2 9.1
3 0 -9 63.69 8.8
3 0 -9 67.69 9.4
-3 0 9 48.3 7
2 0 -9 430.56 17.8
2 0 -9 448.06 15.7
-2 0 9 453.85 15.2
1 0 -9 179.78 11
1 0 -9 167.48 8.8
-1 0 9 154.38 9
0 0 -9 -0.7 4.9
0 0 9 2.2 3.7
-1 0 -9 127.29 9.1
1 0 9 103.09 6.7
1 0 9 105.39 7.5
-2 0 -9 416.56 16.1
2 0 9 405.46 14
2 0 9 400.56 14
-3 0 -9 7.3 6.2
3 0 9 13.9 5.6
-4 0 -9 39.1 8.2
4 0 9 40.8 7.2
-5 0 -9 460.35 21
5 0 9 453.45 18.6
-6 0 -9 -10.2 9
6 0 9 2.6 8
6 -1 -9 32.1 9.9
5 -1 -9 79.49 13
4 -1 -9 -7.3 7.5
3 -1 -9 70.59 11.5
2 -1 -9 10 6.4
-2 1 9 8.5 5
1 -1 -9 106.19 9.6
1 -1 -9 108.39 7.6
-1 1 9 97.39 7.6
0 -1 -9 113.79 6.1
0 -1 -9 125.09 9.5
0 1 9 101.19 7.5
-1 -1 -9 269.27 10
-1 -1 -9 255.77 12.4
1 1 9 259.37 10.5
-2 -1 -9 43.2 7
2 1 9 43.1 6
2 1 9 41.3 5.9
-3 -1 -9 9.3 6.6
3 1 9 7.8 5.7
3 1 9 9.9 5.8
-4 -1 -9 27.6 7.9
4 1 9 25.9 6.9
4 1 9 31.4 7.5
-5 -1 -9 87.69 13
5 1 9 100.09 11.3
-6 -1 -9 30.5 10.2
6 1 9 25.1 8.9
6 -2 -9 32.4 10.2
-6 2 9 28.6 10
5 -2 -9 36 9.5
4 -2 -9 490.85 21.8
3 -2 -9 437.86 19.3
2 -2 -9 332.87 15.6
1 -2 -9 39.6 6.2
1 -2 -9 35.1 6.5
-1 2 9 34 5.1
0 -2 -9 131.49 10.1
0 -2 -9 139.29 7.6
0 2 9 137.39 8.7
-1 -2 -9 1512.35 39.4
-1 -2 -9 1488.55 44.3
1 2 9 1557.54 40.2
-2 -2 -9 498.95 16.7
-2 -2 -9 491.95 18.6
2 2 9 478.95 16.6
-3 -2 -9 612.84 23
3 2 9 666.23 20.9
3 2 9 635.14 20.7
-4 -2 -9 66.39 9.2
4 2 9 67.49 10.2
4 2 9 75.59 10.4
-5 -2 -9 11.8 8.1
5 2 9 19.9 8.3
5 2 9 38.1 8.4
6 -3 -9 3.9 9.4
-6 3 9 5.4 9.5
5 -3 -9 107.49 14.3
-5 3 9 115.69 13.2
4 -3 -9 207.78 15.5
4 -3 -9 208.38 10.2
-4 3 9 252.87 14.2
3 -3 -9 278.17 10.6
3 -3 -9 269.67 15.8
2 -3 -9 17.2 6.9
2 -3 -9 22.9 4.7
1 -3 -9 31.3 6.7
1 -3 -9 27.1 5.8
-1 3 9 30.3 5.8
0 -3 -9 52.59 7.1
0 -3 -9 55.69 9.1
0 3 9 54.39 7.8
-1 -3 -9 7.7 4.9
-1 -3 -9 0 5.9
1 3 9 3.4 5.4
-2 -3 -9 273.27 14.2
-2 -3 -9 279.17 12.4
2 3 9 265.87 12.6
-3 -3 -9 106.99 10.7
-3 -3 -9 85.79 11.3
3 3 9 125.19 10.8
-4 -3 -9 77.99 11.4
4 3 9 92.29 11.2
-5 -3 -9 129.69 14.1
5 3 9 161.98 13.3
6 -4 -9 13.4 10.4
-6 4 9 1.6 10.1
5 -4 -9 49.6 7.5
5 -4 -9 18.8 9.8
-5 4 9 48.7 9.9
4 -4 -9 579.04 25.1
4 -4 -9 612.04 19.7
-4 4 9 677.73 23.1
3 -4 -9 316.17 12.3
3 -4 -9 313.37 17.1
-3 4 9 325.97 15.6
2 -4 -9 209.88 10.3
2 -4 -9 189.38 13.3
-2 4 9 207.68 11.9
1 -4 -9 236.58 13.6
1 -4 -9 242.98 11.5
-1 4 9 228.28 11.4
0 -4 -9 89.09 10.8
0 -4 -9 81.89 9
0 4 9 92.49 9.5
-1 -4 -9 17.5 7.1
-1 -4 -9 34.6 6.5
1 4 9 22.2 6.4
-2 -4 -9 49.2 8.2
-2 -4 -9 56.89 7.8
2 4 9 59.79 8
-3 -4 -9 84.69 10.4
3 4 9 87.09 10.6
-4 -4 -9 0.6 7.5
4 4 9 -8.2 7.4
-5 -4 -9 83.89 12.2
5 4 9 76.59 10.6
-6 5 9 -16 10
5 -5 -9 70.79 8.5
5 -5 -9 59.09 11.5
-5 5 9 50.79 10.9
4 -5 -9 -0.5 7.9
4 -5 -9 5.8 6.1
-4 5 9 6.2 8.3
3 -5 -9 37.6 6.4
3 -5 -9 26 8.3
-3 5 9 17.2 8.6
2 -5 -9 58.19 8.9
2 -5 -9 64.89 9
-2 5 9 66.29 8.4
1 -5 -9 702.73 22.3
1 -5 -9 706.83 25.6
0 -5 -9 204.78 13.2
0 -5 -9 204.88 12
0 5 9 202.68 12.2
-1 -5 -9 173.58 11.4
1 5 9 149.09 11.6
-2 -5 -9 50.69 8.4
-2 -5 -9 69.49 11.6
2 5 9 56.79 8.6
-3 -5 -9 76.59 11.4
3 5 9 86.69 11.6
-4 -5 -9 34.4 8.8
4 5 9 44 9.5
5 -6 -9 33.7 8.3
5 -6 -9 36.6 10.7
-5 6 9 29.6 10.8
4 -6 -9 237.78 13
4 -6 -9 217.88 16.7
-4 6 9 206.18 15.4
3 -6 -9 119.89 13.5
3 -6 -9 111.99 10.5
-3 6 9 105.09 12.3
2 -6 -9 2.8 7.8
2 -6 -9 0.8 6.5
-2 6 9 -2.7 7.2
1 -6 -9 9.3 7.2
1 -6 -9 -2 7.2
0 -6 -9 1462.45 41.6
0 -6 -9 1500.45 45.6
0 6 9 1556.94 41.6
-1 -6 -9 55.39 8.9
1 6 9 48.9 8.7
-2 -6 -9 15.6 8.3
2 6 9 20.3 8.2
-3 -6 -9 19.5 8.8
3 6 9 20.4 8.8
-4 -6 -9 2.9 8.7
4 6 9 3.4 9.2
5 -7 -9 51.59 9.5
5 -7 -9 56.19 12.1
-5 7 9 48.6 12
4 -7 -9 18.9 8
4 -7 -9 6.4 9.2
-4 7 9 6.9 9.8
3 -7 -9 44.8 8.4
3 -7 -9 45.6 9.6
-3 7 9 37.6 9.5
2 -7 -9 72.69 11
2 -7 -9 77.79 12.8
-2 7 9 65.29 9.5
1 -7 -9 36.3 8.7
1 -7 -9 41.2 8.4
0 -7 -9 81.99 11.5
0 7 9 107.69 12.3
-1 -7 -9 141.09 13.1
1 7 9 159.38 13.8
-2 -7 -9 49.3 9.9
2 7 9 66.29 10.4
-3 -7 -9 92.39 12.2
3 7 9 97.59 14.2
4 -8 -9 2.8 8.7
4 -8 -9 0.8 9.7
-4 8 9 17.4 10.4
3 -8 -9 2.9 7.9
3 -8 -9 5.6 8.5
-3 8 9 -14.6 9.1
2 -8 -9 183.38 13.7
2 -8 -9 208.08 15.6
-2 8 9 161.28 14
1 -8 -9 16.7 8.1
0 -8 -9 21.6 8.6
0 8 9 47.3 9.7
-1 -8 -9 91.89 13.2
1 8 9 83.09 11.4
-2 -8 -9 112.49 14.3
2 8 9 154.98 15.2
-3 -8 -9 8.5 10.2
3 8 9 11.7 10.6
3 -9 -9 132.09 14
3 -9 -9 152.08 15.9
-3 9 9 114.79 15.2
2 -9 -9 29.8 9.5
1 -9 -9 -0.1 8
0 -9 -9 1.5 8.5
-1 -9 -9 38.6 10.2
1 9 9 32.7 10.7
-2 -9 -9 10.2 10.1
2 9 9 1.4 10.5
2 -10 -9 0.4 8.9
-2 10 9 -17.5 9.9
1 -10 -9 18.3 9
0 -10 -9 83.09 11.6
1 11 -10 70.19 11.8
0 11 -10 -0.2 9.7
0 -11 10 14.9 7.6
-1 11 -10 22.6 10.2
1 -11 10 21.2 8.4
-2 11 -10 143.29 15.8
2 -11 10 136.19 14.2
-3 11 -10 22.1 11.3
3 -11 10 7.8 9.3
2 10 -10 16.2 9.5
1 10 -10 18 9.3
0 10 -10 8.5 9
0 -10 10 7.3 6.6
-1 10 -10 19 9.1
1 -10 10 5.3 7.2
-2 10 -10 16 9
2 -10 10 1.8 7.9
-3 10 -10 258.27 17.8
3 -10 10 269.17 15.9
-4 10 -10 39.9 11.9
4 -10 10 22.9 9.5
3 9 -10 6.4 8.8
2 9 -10 0.5 8.2
-2 -9 10 1.3 8.4
1 9 -10 52.09 9.5
0 9 -10 -5.8 8.1
0 -9 10 -5 5.5
-1 9 -10 20.2 8.3
1 -9 10 5.3 6.8
-2 9 -10 -1.9 8.2
2 -9 10 7.8 7.4
-3 9 -10 61.39 10.6
3 -9 10 54.49 9.3
-4 9 -10 99.19 15.1
4 -9 10 87.69 12.8
4 8 -10 38.5 10.3
3 8 -10 40.2 9.6
-3 -8 10 49.3 10.1
2 8 -10 291.37 15.9
1 8 -10 8.1 7.5
-1 -8 10 -6.4 7
0 8 -10 34.3 8.3
0 -8 10 44.1 6.4
-1 8 -10 76.99 11.5
1 -8 10 73.79 9.3
-2 8 -10 274.87 15.1
2 -8 10 273.47 13.9
-3 8 -10 27.3 8.7
3 -8 10 26.1 8.1
-4 8 -10 263.37 16.5
-4 8 -10 231.68 17.7
4 -8 10 271.17 15.5
-5 8 -10 36 10.6
5 -8 10 45.6 10.1
4 7 -10 6.7 8.5
-4 -7 10 -4.3 9
3 7 -10 5 7.8
-3 -7 10 -14.7 7.6
2 7 -10 0.4 7
-2 -7 10 -4.3 7.1
1 7 -10 228.68 13.5
-1 -7 10 229.58 13
0 7 -10 -5 6.8
0 -7 10 0.7 6.3
-1 7 -10 197.88 12.5
1 -7 10 174.68 10.4
-2 7 -10 6.6 7.2
2 -7 10 11.3 6.5
-3 7 -10 227.28 13.8
3 -7 10 231.48 13.2
-4 7 -10 -10.5 8.3
-4 7 -10 -3.6 7.4
4 -7 10 4.2 7.5
-5 7 -10 1.5 9.5
-5 7 -10 2.1 8.4
5 -7 10 0.7 8.4
5 6 -10 25.6 9.2
-5 -6 10 9.5 9.9
4 6 -10 118.29 13.4
-4 -6 10 96.39 13.2
3 6 -10 -8.6 7.2
-3 -6 10 7.9 7.3
2 6 -10 9.4 6.9
-2 -6 10 20.6 7.1
1 6 -10 3.2 6.6
-1 -6 10 7.6 6.1
0 6 -10 581.44 20.2
0 -6 10 611.54 19.4
-1 6 -10 8.9 6.5
1 -6 10 12.7 5.3
-2 6 -10 154.38 11
2 -6 10 106.29 9.3
-3 6 -10 128.59 11
3 -6 10 123.49 10.9
-4 6 -10 3.8 8.2
4 -6 10 12.2 7.4
-5 6 -10 -9.4 9.2
5 -6 10 0.2 7.8
5 5 -10 7.6 8.6
-5 -5 10 12.2 9.2
4 5 -10 36.7 8.8
-4 -5 10 31.5 8.8
3 5 -10 22.5 7.9
-3 -5 10 6.7 7.3
2 5 -10 77.79 9.9
-2 -5 10 63.49 9.9
1 5 -10 92.99 9.7
-1 -5 10 99.99 9.4
0 5 -10 208.78 11.3
0 -5 10 208.98 11
-1 5 -10 8.7 5.6
1 -5 10 6.5 4.7
-2 5 -10 17.7 6
-2 5 -10 18.1 6.9
2 -5 10 14.7 5.7
-3 5 -10 53.69 8.7
3 -5 10 59.09 7.7
-4 5 -10 77.89 12.3
4 -5 10 105.09 11
-5 5 -10 28.6 10.3
5 -5 10 47.4 9.3
6 -5 10 36.7 9.5
5 4 -10 76.99 12.2
-5 -4 10 76.99 10.8
4 4 -10 12 7.6
-4 -4 10 2.8 7.9
3 4 -10 101.49 11.2
-3 -4 10 95.69 11
2 4 -10 3.5 6
-2 -4 10 8 5.8
1 4 -10 37.9 6.1
-1 -4 10 25.6 5.8
0 4 -10 6.8 5.1
0 -4 10 10.2 5.3
-1 4 -10 335.47 12.7
1 -4 10 314.07 11.3
-2 4 -10 17.1 6.7
2 -4 10 21.8 5.4
-3 4 -10 -0.2 6.6
3 -4 10 13.8 6
-4 4 -10 160.68 13.6
4 -4 10 153.38 11.9
-5 4 -10 1 9
5 -4 10 -1.4 7.3
-6 4 -10 81.79 13.8
6 -4 10 112.49 13.5
6 3 -10 20.2 9.5
-6 -3 10 1.9 9.2
5 3 -10 9.1 7.8
-5 -3 10 6.3 8.3
4 3 -10 264.67 15
-4 -3 10 299.97 15
3 3 -10 180.48 12.3
-3 -3 10 188.28 12.1
2 3 -10 107.59 9.7
-2 -3 10 116.59 9.7
1 3 -10 51.69 7.8
-1 -3 10 45.8 6.3
0 3 -10 132.59 8.3
0 -3 10 116.19 8.6
-1 3 -10 65.79 9.2
1 -3 10 95.69 7.8
1 -3 10 77.39 6.1
-2 3 -10 4.1 5.7
2 -3 10 0.7 4.5
-3 3 -10 486.35 19.9
3 -3 10 528.75 17.9
-4 3 -10 293.07 16.3
4 -3 10 280.37 14.3
-5 3 -10 -6.4 8.1
5 -3 10 -11.3 6.6
-6 3 -10 -20.7 9.2
6 -3 10 15.2 8.8
5 2 -10 69.69 10
-5 -2 10 94.49 12.6
4 2 -10 165.98 12.8
-4 -2 10 155.48 12.3
3 2 -10 250.87 13.4
-3 -2 10 241.48 12.9
2 2 -10 16.3 5.9
-2 -2 10 14.9 5.6
1 2 -10 575.24 18.5
-1 -2 10 589.04 18.3
0 2 -10 23 6.1
0 2 -10 31 4.9
0 -2 10 37.6 5.4
-1 2 -10 9.6 5.5
1 -2 10 3.6 3.4
1 -2 10 7.4 4.2
-2 2 -10 21 6.2
2 -2 10 13.1 4.6
2 -2 10 14.6 5.2
-3 2 -10 30 7
3 -2 10 25.5 6.1
-4 2 -10 83.19 12
4 -2 10 89.79 10.5
-5 2 -10 121.79 14.4
5 -2 10 116.79 12.2
-6 2 -10 96.09 15.8
6 -2 10 99.29 13.1
4 1 -10 248.08 14.2
-4 -1 10 245.08 13.9
3 1 -10 770.92 24.8
-3 -1 10 793.82 24.3
2 1 -10 1041.6 29.6
-2 -1 10 1006.8 29
1 1 -10 6 6
1 1 -10 11.3 4.9
-1 -1 10 12.7 5.1
0 1 -10 61.29 9.1
0 -1 10 55.19 7
-1 1 -10 227.58 11.8
1 -1 10 220.38 9.6
1 -1 10 209.78 8.8
-2 1 -10 21.2 6.2
2 -1 10 23.3 4.9
2 -1 10 21.2 5.2
-3 1 -10 388.46 17.2
3 -1 10 407.86 15.1
-4 1 -10 147.99 12.9
4 -1 10 154.98 11.3
-5 1 -10 172.28 15.3
5 -1 10 170.98 12.8
-6 1 -10 -9.4 9.4
6 -1 10 -8.3 8
4 0 -10 21.1 8.3
3 0 -10 149.19 13.5
3 0 -10 124.09 11.1
-3 0 10 125.19 11
2 0 -10 200.78 11
2 0 -10 178.88 13.2
-2 0 10 196.18 11.1
1 0 -10 28.1 5.2
1 0 -10 27.5 6.7
-1 0 10 29.8 5.7
0 0 -10 736.23 24.2
0 0 10 712.33 20.9
-1 0 -10 1899.41 54.49
1 0 10 1870.31 49
1 0 10 1933.91 48.2
-2 0 -10 164.78 11.3
2 0 10 162.78 9.9
2 0 10 183.88 9.3
-3 0 -10 249.18 14.3
3 0 10 263.27 12.4
-4 0 -10 102.69 12
4 0 10 109.09 10.6
-5 0 -10 123.09 14.1
5 0 10 96.49 12
-6 0 -10 86.89 12.5
6 0 10 113.39 13.5
6 -1 -10 119.39 15.7
5 -1 -10 653.33 26.9
4 -1 -10 -5.1 7.4
3 -1 -10 293.67 16.7
2 -1 -10 125.79 12.2
-2 1 10 140.49 10.2
1 -1 -10 176.58 9.5
1 -1 -10 166.78 11.9
-1 1 10 168.58 9.3
0 -1 -10 28.9 6.7
0 -1 -10 26.7 4.5
0 1 10 39.4 5.3
-1 -1 -10 69.99 9.3
-1 -1 -10 72.49 7
1 1 10 77.79 8.1
-2 -1 -10 106.19 10.7
2 1 10 123.39 8.8
2 1 10 112.29 9.4
-3 -1 -10 99.89 11.5
3 1 10 109.09 10.1
3 1 10 96.29 9.6
-4 -1 -10 33.2 8.5
4 1 10 50.89 8.1
4 1 10 53.79 8.1
-5 -1 -10 -10.1 7.9
5 1 10 -8.1 7.3
5 1 10 -5.6 7.2
6 -2 -10 192.78 17.8
-6 2 10 224.48 16.8
5 -2 -10 157.78 15.9
4 -2 -10 38.8 9.2
3 -2 -10 18.9 7.7
2 -2 -10 120.19 12.1
1 -2 -10 17.9 6.6
-1 2 10 12.4 5.1
0 -2 -10 0 4.3
0 -2 -10 3.3 5.7
0 2 10 6.2 5.1
-1 -2 -10 217.88 10
-1 -2 -10 224.58 13
1 2 10 231.48 11.3
-2 -2 -10 170.88 12.7
-2 -2 -10 198.98 11
2 2 10 181.18 10.9
-3 -2 -10 22.9 7.6
3 2 10 27.8 7.1
3 2 10 30.8 7.1
-4 -2 -10 161.88 14.1
4 2 10 162.58 12.1
4 2 10 184.28 12.4
-5 -2 -10 86.59 13.7
5 2 10 107.09 12.1
5 2 10 95.89 12
6 -3 -10 110.09 16.5
-6 3 10 126.09 15.3
5 -3 -10 168.28 16.9
-5 3 10 233.18 15.5
4 -3 -10 4.4 8.2
-4 3 10 10.5 8
3 -3 -10 -1.7 7.5
3 -3 -10 9.5 4.5
2 -3 -10 13.7 4.6
2 -3 -10 3.1 7.1
1 -3 -10 112.99 11.4
1 -3 -10 105.29 8.9
-1 3 10 125.99 10
0 -3 -10 24.5 5.9
0 -3 -10 6 6.5
0 3 10 31.1 6.3
-1 -3 -10 104.39 8.8
-1 -3 -10 123.09 11.8
1 3 10 102.59 10
-2 -3 -10 205.88 11.3
-2 -3 -10 201.88 13.3
2 3 10 199.98 11.6
-3 -3 -10 60.29 8.2
-3 -3 -10 32 8
3 3 10 46.8 7.9
-4 -3 -10 213.08 15.3
-4 -3 -10 238.48 13.9
4 3 10 238.08 13.8
-5 -3 -10 22.2 9.2
5 3 10 10.8 8.2
5 -4 -10 14.6 9.5
-5 4 10 5.5 9.2
4 -4 -10 80.29 8.6
4 -4 -10 66.19 10.7
-4 4 10 84.19 12
3 -4 -10 22.1 8.1
3 -4 -10 27.9 5.6
-3 4 10 14.5 8.1
2 -4 -10 170.58 9.7
2 -4 -10 171.08 13.3
-2 4 10 157.68 11.7
1 -4 -10 143.09 10.3
1 -4 -10 133.69 12.4
-1 4 10 144.89 10.4
0 -4 -10 400.46 18.3
0 -4 -10 416.86 15.7
0 4 10 443.16 16.3
-1 -4 -10 -3 7.2
-1 -4 -10 3.1 6.3
1 4 10 12.3 6.6
-2 -4 -10 148.99 11.5
-2 -4 -10 140.69 13.2
2 4 10 173.98 11.7
-3 -4 -10 -0.8 6.8
-3 -4 -10 -4.1 7.5
3 4 10 2 7.4
-4 -4 -10 5.8 8.1
-4 -4 -10 -8 8.1
4 4 10 -0.6 7.9
-5 -4 -10 72.99 10.7
5 4 10 90.29 13
5 -5 -10 81.59 12.4
-5 5 10 93.39 12.7
4 -5 -10 12.6 6.4
4 -5 -10 11.2 8.7
-4 5 10 -3.4 9
3 -5 -10 14.1 8.5
3 -5 -10 26.3 6.4
-3 5 10 6.5 8.5
2 -5 -10 59.49 7.7
2 -5 -10 59.39 9.2
-2 5 10 74.59 10.2
1 -5 -10 4.4 7.4
1 -5 -10 13.1 6.8
0 -5 -10 4.4 6.9
0 -5 -10 14.4 7.1
0 5 10 1.3 6.7
-1 -5 -10 454.25 17.4
-1 -5 -10 455.55 19.6
1 5 10 468.05 17.8
-2 -5 -10 177.98 14.1
-2 -5 -10 163.78 12.6
2 5 10 167.48 12.9
-3 -5 -10 35.9 8.8
3 5 10 32.8 8.6
-4 -5 -10 57.59 9.7
4 5 10 79.29 10.5
5 -6 -10 28.4 11.1
-5 6 10 39.5 11.1
4 -6 -10 171.48 12
4 -6 -10 146.49 15.7
-4 6 10 157.48 14.6
3 -6 -10 5.9 6.9
3 -6 -10 5 8
-3 6 10 -20.1 7.8
2 -6 -10 254.37 13.5
2 -6 -10 266.77 16.5
-2 6 10 247.18 14.5
1 -6 -10 21.5 7.6
1 -6 -10 17.5 8.3
0 -6 -10 18 7.8
0 -6 -10 25.3 8.2
0 6 10 24.7 7.5
-1 -6 -10 2.4 7.6
1 6 10 4.4 7.8
-2 -6 -10 58.49 9.8
2 6 10 61.79 10
-3 -6 -10 9.7 9.1
3 6 10 11.2 9
-4 -6 -10 5.9 9.1
4 6 10 6.4 9.4
4 -7 -10 33.9 8.5
4 -7 -10 23.5 10.2
-4 7 10 9 10.2
3 -7 -10 28 9.5
3 -7 -10 37.6 8.5
-3 7 10 17.7 9.4
2 -7 -10 118.09 11.9
2 -7 -10 128.59 14.2
1 -7 -10 442.46 19.6
1 -7 -10 386.36 17.2
0 -7 -10 54.09 9.4
0 7 10 45.7 9.3
-1 -7 -10 38.1 9.4
1 7 10 45.1 9.9
-2 -7 -10 34 10
2 7 10 53.09 10.3
-3 -7 -10 21.4 10.8
3 7 10 36.8 10.2
4 -8 -10 90.29 15.5
4 -8 -10 93.29 13.1
-4 8 10 64.79 12.4
3 -8 -10 8.2 8.9
3 -8 -10 20.8 8.7
-3 8 10 3 9.7
2 -8 -10 37 9.1
2 -8 -10 42.2 9.9
1 -8 -10 16.6 8.3
1 -8 -10 15.9 8.8
0 -8 -10 66.09 10.2
0 8 10 97.39 14.3
-1 -8 -10 22 9.8
1 8 10 22.1 10
-2 -8 -10 19.2 10.3
2 8 10 15.5 10.5
3 -9 -10 74.99 12.4
3 -9 -10 50.89 10.8
-3 9 10 48.4 11.5
2 -9 -10 29.2 9.4
2 -9 -10 24.2 9.9
1 -9 -10 81.69 10.7
0 -9 -10 86.59 11.3
-1 -9 -10 11.5 10
1 9 10 24 10.8
1 11 -11 -0.3 9.9
0 11 -11 1.7 9.9
-1 11 -11 34.6 11.3
1 -11 11 58.59 9.6
-2 11 -11 71.59 12.3
2 -11 11 65.09 10.7
2 10 -11 40.3 10.6
1 10 -11 63.09 11
0 10 -11 24.5 9.5
-1 10 -11 41.2 10.4
1 -10 11 56.09 9.1
-2 10 -11 18.2 9.4
2 -10 11 13.3 8.6
-3 10 -11 18.1 10.1
3 -10 11 17.1 9.3
3 9 -11 16.9 9.8
2 9 -11 28.8 9.5
1 9 -11 55.39 10
0 9 -11 18.7 8.8
-1 9 -11 70.89 10.2
1 -9 11 65.99 8.5
-2 9 -11 100.69 12.8
2 -9 11 104.49 11.6
-3 9 -11 31.1 9.8
3 -9 11 41 9.4
-4 9 -11 52.49 11.2
4 -9 11 40.1 10.1
3 8 -11 7.3 8.7
-3 -8 11 -3 9.3
2 8 -11 186.28 14.1
1 8 -11 69.49 9.8
-1 -8 11 61.09 9.2
0 8 -11 78.69 11.8
0 -8 11 97.89 9.4
-1 8 -11 52.79 9.4
1 -8 11 63.29 7.9
-2 8 -11 53.59 9.1
2 -8 11 58.59 8.5
-3 8 -11 81.29 12.3
3 -8 11 104.49 11.6
-4 8 -11 8.8 9.9
-4 8 -11 30.6 9.8
4 -8 11 0.4 8.3
-5 8 -11 143.49 15.3
-5 8 -11 115.89 17.4
5 -8 11 154.08 14.8
4 7 -11 63.19 10.9
3 7 -11 19.6 8.7
-3 -7 11 14 8.6
2 7 -11 111.49 11.8
-2 -7 11 86.39 12
1 7 -11 12.1 7.6
-1 -7 11 9.5 7
0 7 -11 99.89 11.5
0 -7 11 104.39 11
-1 7 -11 4.7 7.1
1 -7 11 1.4 5.6
-2 7 -11 11.9 7.4
2 -7 11 7.8 6.5
-3 7 -11 44.2 8.4
3 -7 11 54.79 8.9
-4 7 -11 -20.4 8.2
4 -7 11 4.6 7.8
-5 7 -11 32.9 9.2
-5 7 -11 13.5 10.6
5 -7 11 35.1 9.6
4 6 -11 87.09 13.2
-4 -6 11 60.89 10.5
3 6 -11 44.6 9.3
-3 -6 11 37.8 8.9
2 6 -11 257.97 14
-2 -6 11 242.78 13.8
1 6 -11 32.2 7.4
-1 -6 11 28.8 7.1
0 6 -11 133.59 11.2
0 -6 11 139.99 11
-1 6 -11 342.87 14.9
1 -6 11 330.17 12.7
-2 6 -11 118.69 10.6
2 -6 11 106.99 9.5
-3 6 -11 -0.9 7.4
3 -6 11 -1.6 6.7
-4 6 -11 -7.4 8.2
4 -6 11 13.6 7.7
-5 6 -11 45.6 11.8
5 -6 11 75.19 10.9
5 5 -11 42.8 10.1
-5 -5 11 26.3 9.9
4 5 -11 9.1 8.2
-4 -5 11 16.7 8.7
3 5 -11 36.5 8.5
-3 -5 11 32.1 8.1
2 5 -11 -2.1 6.6
-2 -5 11 -9.6 6.2
1 5 -11 160.48 11.4
-1 -5 11 178.48 11.3
0 5 -11 85.09 9.6
0 -5 11 79.59 9.5
-1 5 -11 207.98 11.4
1 -5 11 183.68 9.3
-2 5 -11 19.3 7.2
2 -5 11 12.6 5.7
-3 5 -11 84.49 11.8
3 -5 11 107.29 10.4
-4 5 -11 129.59 14
4 -5 11 166.98 12.9
-5 5 -11 77.09 12.1
5 -5 11 108.19 12.9
5 4 -11 22.5 8.8
-5 -4 11 12.8 9.4
4 4 -11 209.38 14.4
-4 -4 11 229.98 14.6
3 4 -11 96.49 11.6
-3 -4 11 130.19 11.8
2 4 -11 -5.8 6.2
-2 -4 11 -0.6 6.1
1 4 -11 3.9 5.8
-1 -4 11 1 6
0 4 -11 705.03 21.6
0 -4 11 688.53 21.5
-1 4 -11 140.09 9.4
1 -4 11 119.19 7.5
-2 4 -11 173.78 12.5
2 -4 11 181.38 10
-3 4 -11 34 8.2
3 -4 11 39.6 7.3
-4 4 -11 97.59 13.2
4 -4 11 119.79 11.2
-5 4 -11 9.8 9.5
5 -4 11 14 8.3
5 3 -11 17.1 8.9
-5 -3 11 2.8 8.7
4 3 -11 0.5 7.8
-4 -3 11 17.9 8.1
3 3 -11 13.4 7
-3 -3 11 15.8 7.2
2 3 -11 128.99 10.8
-2 -3 11 140.99 11.1
1 3 -11 408.66 15.5
-1 -3 11 414.66 15.4
0 3 -11 738.03 21.5
0 3 -11 668.53 24.1
0 -3 11 715.43 21.3
-1 3 -11 74.19 10.2
1 -3 11 54.19 5.7
1 -3 11 55.29 6.5
-2 3 -11 104.49 11
2 -3 11 106.09 8.2
-3 3 -11 102.79 11.8
3 -3 11 111.79 9.8
-4 3 -11 21.9 8.8
4 -3 11 41.8 7.6
-5 3 -11 108.39 14.7
5 -3 11 108.79 12.3
6 -3 11 58.39 10.6
5 2 -11 9.4 8.4
4 2 -11 17.4 7.9
-4 -2 11 14.7 7.8
3 2 -11 306.57 15.1
-3 -2 11 301.37 15
2 2 -11 252.87 12.9
-2 -2 11 255.07 12.9
1 2 -11 47.8 8.3
1 2 -11 60.29 8.4
-1 -2 11 48.3 6.6
0 2 -11 298.57 15
0 -2 11 320.87 12.9
-1 2 -11 682.03 23.6
1 -2 11 698.13 20.5
1 -2 11 699.93 19.7
-2 2 -11 241.88 13.8
2 -2 11 237.08 10.5
-3 2 -11 311.47 16.1
3 -2 11 336.87 14
-4 2 -11 19.5 8.5
4 -2 11 29.6 7.3
-5 2 -11 -2.1 8.8
5 -2 11 4.3 7.5
6 -2 11 -3.6 8.4
4 1 -11 18.8 7.9
-4 -1 11 24.7 8
3 1 -11 171.38 14.9
3 1 -11 185.58 12.7
-3 -1 11 221.18 12.9
2 1 -11 35 6.9
-2 -1 11 36.7 6.8
1 1 -11 41.1 6
1 1 -11 44.1 7.9
-1 -1 11 40.9 6.4
0 1 -11 246.88 13.6
0 -1 11 260.27 11.2
-1 1 -11 8.9 6.4
1 -1 11 11.6 5.2
1 -1 11 18.2 4.7
-2 1 -11 86.59 10.7
2 -1 11 83.69 8.4
2 -1 11 92.69 8.8
-3 1 -11 281.57 15.1
3 -1 11 260.27 12.8
-4 1 -11 172.88 14.3
4 -1 11 197.68 12.5
-5 1 -11 -9.9 8.6
5 -1 11 4.8 7.7
4 0 -11 160.78 14.6
3 0 -11 47.9 8
3 0 -11 48.5 9.3
-3 0 11 48.9 7.8
2 0 -11 3.9 7.5
2 0 -11 -7.1 5.6
-2 0 11 -8.9 5.9
1 0 -11 143.29 9.4
1 0 -11 109.29 11.9
-1 0 11 133.49 9.7
0 0 -11 429.66 17.7
0 0 11 418.26 14.7
-1 0 -11 145.79 11.2
1 0 11 127.99 9.5
-2 0 -11 347.17 16.2
2 0 11 362.56 13.7
2 0 11 370.26 14.2
-3 0 -11 449.26 19.5
3 0 11 458.55 16.8
3 0 11 464.95 16.7
-4 0 -11 34.9 9.1
4 0 11 43 7.9
-5 0 -11 125.09 15
5 0 11 149.29 13
6 -1 -11 35.9 10.6
5 -1 -11 24.4 9.9
4 -1 -11 6.9 8.1
3 -1 -11 1198.68 40.9
-3 1 11 1339.37 35.8
2 -1 -11 37.8 9
-2 1 11 50.89 7.3
1 -1 -11 34.9 7.7
-1 1 11 38 6.1
0 -1 -11 197.18 8.9
0 -1 -11 200.58 12.9
0 1 11 190.48 10.5
-1 -1 -11 90.49 10.9
-1 -1 -11 107.19 7.7
1 1 11 102.09 9.3
-2 -1 -11 150.58 12.4
2 1 11 166.48 10.9
2 1 11 180.38 10.2
-3 -1 -11 66.89 9.3
3 1 11 82.29 9.7
3 1 11 73.99 9.6
-4 -1 -11 133.99 13.8
4 1 11 159.78 12.4
4 1 11 148.79 11.8
-5 -1 -11 9.6 9.6
5 1 11 29.2 9
6 -2 -11 238.88 19.3
-6 2 11 245.68 17.7
5 -2 -11 11.2 9.2
4 -2 -11 12.1 8.4
3 -2 -11 23 8.8
2 -2 -11 28.5 8.3
-2 2 11 22.7 6.4
1 -2 -11 88.69 11.4
-1 2 11 91.59 9.4
0 -2 -11 376.06 17.3
0 -2 -11 418.16 14.1
0 2 11 416.66 15.2
-1 -2 -11 1332.47 35.2
-1 -2 -11 1278.87 40.3
1 2 11 1311.77 36.1
-2 -2 -11 23.7 7.6
-2 -2 -11 38.9 6.9
2 2 11 28.3 7.1
-3 -2 -11 67.19 10.2
-3 -2 -11 66.69 9.4
3 2 11 67.09 9.9
-4 -2 -11 -4 8
4 2 11 -12.6 7.3
4 2 11 11.8 7.5
-5 -2 -11 -1.6 9.3
5 2 11 11.5 8.7
5 2 11 6.5 8.1
5 -3 -11 148.89 16.8
-5 3 11 163.58 15.4
4 -3 -11 5.2 8.8
-4 3 11 18.3 8.5
3 -3 -11 286.77 17.6
2 -3 -11 102.59 12.5
1 -3 -11 -5.6 6.5
1 -3 -11 -8.4 5.8
-1 3 11 -8.2 6.1
0 -3 -11 4.3 5.8
0 -3 -11 1.5 6.8
0 3 11 -2.7 5.9
-1 -3 -11 24.8 7.7
-1 -3 -11 17.4 6.1
1 3 11 17.3 6.7
-2 -3 -11 5.9 7.1
-2 -3 -11 -4.9 6.2
2 3 11 8.7 6.7
-3 -3 -11 -5.2 7.5
-3 -3 -11 5.9 6.9
3 3 11 8.5 7
-4 -3 -11 355.86 19.1
-4 -3 -11 391.36 17.3
4 3 11 363.06 17.1
-5 -3 -11 7.4 9.8
-5 -3 -11 26.7 9.5
5 3 11 4.4 8.4
5 -4 -11 111.09 16
-5 4 11 104.49 14.5
4 -4 -11 14 8.8
-4 4 11 4.7 9.2
3 -4 -11 102.99 8.5
3 -4 -11 79.79 13.3
-3 4 11 109.09 11.9
2 -4 -11 10.6 7.7
2 -4 -11 8.2 5.5
-2 4 11 2.3 7.2
1 -4 -11 372.66 14.9
1 -4 -11 347.87 17.7
-1 4 11 394.96 15.4
0 -4 -11 261.07 12.8
0 -4 -11 238.58 15.1
0 4 11 245.68 13.4
-1 -4 -11 227.08 14.7
-1 -4 -11 218.48 12.4
1 4 11 243.18 13.2
-2 -4 -11 224.08 15.2
-2 -4 -11 228.88 12.7
2 4 11 193.08 12.9
-3 -4 -11 41.9 9.2
-3 -4 -11 61.89 8.9
3 4 11 83.09 11.9
-4 -4 -11 49.7 10.7
-4 -4 -11 63.09 9.6
4 4 11 70.89 10.1
5 -5 -11 1.5 9.6
-5 5 11 8 10.5
4 -5 -11 11.7 9
-4 5 11 16.1 9.7
3 -5 -11 144.09 15.2
3 -5 -11 175.18 10.9
-3 5 11 175.88 13.9
2 -5 -11 112.29 10.1
2 -5 -11 116.29 13.1
1 -5 -11 55.89 8.3
1 -5 -11 82.19 12.6
-1 5 11 74.89 11.1
0 -5 -11 24.5 7.8
0 -5 -11 7 7.3
0 5 11 20.2 7.6
-1 -5 -11 283.97 16.2
-1 -5 -11 272.57 14.3
1 5 11 312.07 15
-2 -5 -11 15.5 8.4
-2 -5 -11 5.8 7.7
2 5 11 8 8
-3 -5 -11 69.39 10.8
-3 -5 -11 65.09 9.9
3 5 11 70.69 10.1
-4 -5 -11 165.08 14.7
4 5 11 183.48 14.9
4 -6 -11 82.19 11
4 -6 -11 86.19 14.7
-4 6 11 87.29 11.9
3 -6 -11 133.49 15.2
3 -6 -11 145.99 11.5
-3 6 11 129.49 13.3
2 -6 -11 196.58 12.8
2 -6 -11 214.58 16
-2 6 11 218.78 14
1 -6 -11 22.8 7.4
1 -6 -11 23 8.7
-1 6 11 16 7.9
0 -6 -11 -0.5 7.6
0 -6 -11 3.8 7.6
0 6 11 -5 7.4
-1 -6 -11 107.29 13.5
-1 -6 -11 83.29 12
1 6 11 106.49 12.2
-2 -6 -11 -5.2 8.1
2 6 11 7.7 8.9
-3 -6 -11 8.8 9
3 6 11 3.2 9
4 -7 -11 2.3 9.8
4 -7 -11 -2.6 8.1
-4 7 11 -16.9 9.7
3 -7 -11 5.9 9.1
3 -7 -11 14.9 8.1
-3 7 11 -10.9 9.1
2 -7 -11 23.6 9.2
2 -7 -11 1.2 7.8
1 -7 -11 -3 7.5
1 -7 -11 12.4 8.6
0 -7 -11 332.67 18.5
0 -7 -11 282.27 16
0 7 11 313.97 16.5
-1 -7 -11 215.48 15.8
-1 -7 -11 203.58 15.1
1 7 11 202.48 16.1
-2 -7 -11 32.7 10.3
2 7 11 24.5 10.1
3 -8 -11 271.97 19.1
3 -8 -11 257.27 15.9
-3 8 11 228.78 16.9
2 -8 -11 37.6 9.2
2 -8 -11 21.7 9.7
1 -8 -11 12.3 8.4
1 -8 -11 2.8 8.6
0 -8 -11 31.6 9.5
-1 -8 -11 41.5 10.2
1 8 11 38.7 10.6
1 -9 -11 59.49 10.3
1 -9 -11 54.49 11.9
-1 11 -12 26.9 11.2
1 10 -12 10.6 9.8
0 10 -12 14.8 10
-1 10 -12 193.08 16.3
-2 10 -12 133.29 15.5
2 -10 12 107.09 13.1
-3 10 -12 13.6 10.5
3 -10 12 7.6 9
2 9 -12 70.69 11.2
-2 -9 12 63.09 10.8
1 9 -12 -1.1 8.7
0 9 -12 57.39 10.1
-1 9 -12 18.2 9.1
1 -9 12 27.2 7.4
-2 9 -12 32.2 9.6
2 -9 12 37.7 8.7
-3 9 -12 5.5 9.2
3 -9 12 -9.2 8
-4 9 -12 33.1 10.9
4 -9 12 25.5 9.8
3 8 -12 29.6 10
-3 -8 12 1.9 9.5
2 8 -12 26.8 8.9
-2 -8 12 15.5 8.9
1 8 -12 147.09 13.3
-1 -8 12 132.79 12.8
0 8 -12 371.96 17.8
-1 8 -12 178.98 14
1 -8 12 189.78 11.8
-2 8 -12 243.58 14.9
2 -8 12 226.38 13.1
-3 8 -12 38.1 9.1
3 -8 12 28.6 8.8
-4 8 -12 99.99 16.1
-4 8 -12 174.08 15
4 -8 12 174.98 14.7
4 7 -12 76.39 11.8
3 7 -12 94.89 13.5
-3 -7 12 75.09 10.9
2 7 -12 51.99 9.2
-2 -7 12 39.9 9.1
1 7 -12 11 7.7
-1 -7 12 2.7 7.2
0 7 -12 13.1 7.6
-1 7 -12 70.49 11.1
1 -7 12 64.99 8.4
-2 7 -12 15.7 7.5
2 -7 12 9.7 6.7
-3 7 -12 11.4 8.6
3 -7 12 17.5 7.9
-4 7 -12 1.7 9.2
4 -7 12 -4.3 8
-5 7 -12 43.2 12.7
5 -7 12 68.39 11.8
4 6 -12 16 9.6
-4 -6 12 -18.7 8.9
3 6 -12 2.6 8.3
-3 -6 12 7.5 8.2
2 6 -12 261.77 14.9
-2 -6 12 261.27 14.6
1 6 -12 -2.2 7.1
-1 -6 12 -3.6 7
0 6 -12 37 7.7
0 -6 12 39.8 7.7
-1 6 -12 188.48 12.1
1 -6 12 161.58 9.6
-2 6 -12 87.49 10.7
2 -6 12 79.59 9.3
-3 6 -12 -16.2 7.3
3 -6 12 9.3 7.1
-4 6 -12 -4.5 8.9
4 -6 12 5 7.9
-5 6 -12 107.89 16.5
5 -6 12 126.79 14.2
5 5 -12 96.49 14.5
-5 -5 12 121.09 15
4 5 -12 73.19 10.4
-4 -5 12 75.59 10.9
3 5 -12 270.17 16
-3 -5 12 322.27 16.3
2 5 -12 73.89 11.4
-2 -5 12 95.29 11.3
1 5 -12 2.8 6.7
-1 -5 12 -8.3 6.6
0 5 -12 155.58 11.2
0 -5 12 153.28 11.3
-1 5 -12 1.1 5.9
1 -5 12 -5.5 6.4
1 -5 12 -1.7 4.7
-2 5 -12 -0.9 7.3
2 -5 12 14.4 6
-3 5 -12 15.9 8.3
3 -5 12 24.7 7.3
-4 5 -12 17.8 9.2
4 -5 12 34.1 8.5
-5 5 -12 21.7 10.9
5 -5 12 31.2 9.5
5 4 -12 60.29 10.4
-5 -4 12 42 10.6
4 4 -12 113.19 13
-4 -4 12 94.99 13
3 4 -12 9.5 7.8
-3 -4 12 26.4 8
2 4 -12 86.49 11.1
-2 -4 12 71.59 10.9
1 4 -12 260.97 13.3
-1 -4 12 264.27 13.3
0 4 -12 22.6 6.3
0 -4 12 28.9 6.7
-1 4 -12 165.28 10.4
-2 4 -12 106.49 11.7
2 -4 12 98.39 8.5
-3 4 -12 43.8 8.9
3 -4 12 49.9 7.7
-4 4 -12 35.8 9.5
4 -4 12 56.09 8.9
-5 4 -12 91.09 12.9
5 -4 12 91.59 12.6
5 3 -12 8.9 8.8
-5 -3 12 12.1 9.5
4 3 -12 87.99 12.9
-4 -3 12 100.99 13
3 3 -12 3.5 7.2
-3 -3 12 2.3 7.5
2 3 -12 14.9 7
-2 -3 12 24.6 7.3
1 3 -12 370.66 15.3
-1 -3 12 378.46 15.2
0 3 -12 60.79 8.9
0 3 -12 55.49 8.6
0 -3 12 58.49 7.3
-1 3 -12 710.23 25.4
1 -3 12 755.02 22.1
-2 3 -12 27.5 7.7
2 -3 12 37.7 5.9
-3 3 -12 0.8 7.1
3 -3 12 -9.8 5.8
-4 3 -12 -6.2 7.9
4 -3 12 -9 6.8
-5 3 -12 33.1 10.6
5 -3 12 45.8 9.2
5 2 -12 47.2 10.3
-5 -2 12 34 10.1
4 2 -12 29 8.8
-4 -2 12 44.8 9.3
3 2 -12 22.9 8
-3 -2 12 16.3 7.8
2 2 -12 158.18 11.7
-2 -2 12 178.48 12
1 2 -12 200.68 11.4
1 2 -12 157.18 13.7
-1 -2 12 198.08 11.3
0 2 -12 147.49 13
0 -2 12 174.18 10.7
-1 2 -12 450.55 18.9
1 -2 12 428.66 14.5
1 -2 12 490.65 16.1
-2 2 -12 316.67 16
2 -2 12 326.07 12.8
2 -2 12 322.57 13.4
-3 2 -12 3.1 7.1
3 -2 12 -10.2 5.8
-4 2 -12 5.7 8.2
4 -2 12 -3.2 6.7
-5 2 -12 122.69 15.2
5 -2 12 108.59 12.5
4 1 -12 25.7 8.6
-4 -1 12 36.2 8.8
3 1 -12 -8.4 8.1
3 1 -12 -1 6.9
-3 -1 12 0.5 7.1
2 1 -12 17.8 8.4
2 1 -12 17.2 6.8
-2 -1 12 19.8 7
1 1 -12 257.47 15.7
1 1 -12 264.47 12.4
-1 -1 12 279.77 13.3
0 1 -12 213.98 13.9
0 -1 12 227.78 11.1
-1 1 -12 416.06 17.8
1 -1 12 413.66 13.9
1 -1 12 419.06 15.1
-2 1 -12 247.28 14.6
2 -1 12 265.57 12.2
2 -1 12 268.87 11.8
-3 1 -12 388.16 18.7
3 -1 12 416.06 16
-4 1 -12 3.6 8.1
4 -1 12 -1.9 6.8
-5 1 -12 78.39 11.6
5 -1 12 79.19 12
5 0 -12 15.9 9.5
4 0 -12 221.28 16.8
-4 0 12 254.17 14.7
3 0 -12 194.78 13
3 0 -12 159.58 15.4
-3 0 12 173.18 12.9
2 0 -12 208.98 15.8
2 0 -12 231.88 12.6
-2 0 12 226.58 13
1 0 -12 495.45 21.8
1 0 -12 583.44 18.5
-1 0 12 565.94 18.8
0 0 -12 226.98 14.4
0 0 12 251.97 12
-1 0 -12 7.9 6.6
-1 0 -12 6.1 4.8
1 0 12 -5.5 5.8
-2 0 -12 6.2 6.9
2 0 12 4.2 6.2
2 0 12 1.4 5.6
-3 0 -12 810.02 29.1
3 0 12 864.61 26
3 0 12 831.12 25.4
-4 0 -12 -4.3 7.9
4 0 12 -7.1 6.4
4 0 12 9.9 7.1
-5 0 -12 -12.7 8.8
5 0 12 8 8.3
5 -1 -12 3.7 9.4
4 -1 -12 4.5 8.7
3 -1 -12 -1 8.4
2 -1 -12 -0.4 7.8
-2 1 12 4.3 6.5
1 -1 -12 240.18 15.3
-1 1 12 275.07 12.6
0 -1 -12 41.4 8
0 -1 -12 29.6 5.5
0 1 12 37.1 6.5
-1 -1 -12 48.8 6.2
-1 -1 -12 36.3 7.9
1 1 12 34 6.7
-2 -1 -12 229.88 11.7
-2 -1 -12 202.18 14.3
2 1 12 232.28 12.3
-3 -1 -12 21.5 8.2
3 1 12 30.8 7.1
3 1 12 25.4 7.4
-4 -1 -12 92.49 13.8
4 1 12 104.19 11.3
4 1 12 130.49 12.1
-5 -1 -12 13.7 10.2
5 1 12 28.5 8.4
5 1 12 33.1 9.5
5 -2 -12 38.3 10.8
4 -2 -12 8.4 8.9
3 -2 -12 8.7 8.5
2 -2 -12 4.1 8.1
-2 2 12 13.8 6.7
1 -2 -12 3.1 7
-1 2 12 4.7 6.3
0 -2 -12 7.9 6.8
0 -2 -12 -0.4 5.4
0 2 12 5.7 6.3
-1 -2 -12 1.9 7.1
-1 -2 -12 5.9 5.5
1 2 12 5.8 6.4
-2 -2 -12 83.49 11.7
-2 -2 -12 108.59 9.6
2 2 12 102.69 10.7
-3 -2 -12 91.29 10.8
-3 -2 -12 78.19 10.3
3 2 12 82.39 10.5
-4 -2 -12 85.09 14
-4 -2 -12 121.29 12.2
4 2 12 115.89 12.3
-5 -2 -12 4.5 10
5 2 12 11.9 9.3
5 -3 -12 19 10.1
-5 3 12 11 10.2
4 -3 -12 149.79 16
-4 3 12 150.28 14.2
3 -3 -12 9.2 9
2 -3 -12 22.3 8.4
-2 3 12 8.4 7
1 -3 -12 56.29 8.9
1 -3 -12 57.59 8.9
-1 3 12 61.89 8.1
0 -3 -12 47.8 7.4
0 -3 -12 49.9 8.7
0 3 12 56.89 7.8
-1 -3 -12 12.1 6.4
-1 -3 -12 4.5 7.5
1 3 12 13.3 6.9
-2 -3 -12 165.28 11.3
-2 -3 -12 168.48 14.1
2 3 12 167.88 11.9
-3 -3 -12 97.99 13.2
-3 -3 -12 103.89 11.2
3 3 12 115.09 11.4
-4 -3 -12 41.5 9.4
-4 -3 -12 31.4 10.1
4 3 12 45 9
5 -4 -12 7.9 10.6
-5 4 12 -4.6 9.8
4 -4 -12 118.09 15.7
-4 4 12 147.59 14.3
3 -4 -12 22.5 9.3
-3 4 12 34.8 9.1
2 -4 -12 82.49 12.7
2 -4 -12 64.39 8.5
-2 4 12 65.29 9.8
1 -4 -12 10.3 8
1 -4 -12 23.1 7
-1 4 12 8.9 6.9
0 -4 -12 47.8 8.1
0 -4 -12 59.09 9.5
0 4 12 53.99 8.6
-1 -4 -12 71.49 9.9
-1 -4 -12 57.69 8.3
1 4 12 76.79 10.9
-2 -4 -12 29.7 9.1
-2 -4 -12 33.7 7.8
2 4 12 27.7 7.8
-3 -4 -12 73.69 10
-3 -4 -12 43.3 10.2
3 4 12 60.79 9.8
-4 -4 -12 11.7 8.7
4 4 12 4.4 8.6
4 -5 -12 28.7 10.3
-4 5 12 32 10.5
3 -5 -12 39.9 10.4
-3 5 12 60.79 10.2
2 -5 -12 4.2 8
2 -5 -12 14.3 6.8
1 -5 -12 104.89 13.6
1 -5 -12 92.29 10.8
-1 5 12 120.79 12.4
0 -5 -12 5.7 7.3
0 -5 -12 8.3 7.9
0 5 12 13.9 7.8
-1 -5 -12 3.5 7.8
-1 -5 -12 1.5 7.4
1 5 12 2.9 7.6
-2 -5 -12 31.2 9.2
-2 -5 -12 26.2 8.7
2 5 12 22.4 8.4
-3 -5 -12 129.69 13.4
-3 -5 -12 128.29 15.4
3 5 12 156.28 14.2
4 -6 -12 68.39 12.3
-4 6 12 57.09 11.5
3 -6 -12 268.47 14.3
3 -6 -12 254.77 18.4
-3 6 12 281.77 16.5
2 -6 -12 8.5 7.1
2 -6 -12 8.8 8.5
1 -6 -12 76.99 11
1 -6 -12 91.79 13.6
0 -6 -12 25 8.7
0 -6 -12 37.3 9
0 6 12 40.7 9
-1 -6 -12 39.9 9.3
-1 -6 -12 79.59 13.6
1 6 12 45.7 9.4
-2 -6 -12 19.5 8.9
-2 -6 -12 -9.5 8.5
2 6 12 17.5 9.6
-3 -6 -12 10.6 10
3 6 12 22.4 10
3 -7 -12 196.88 17.8
3 -7 -12 221.48 14.4
-3 7 12 217.48 15.6
2 -7 -12 60.99 11.6
2 -7 -12 65.59 9.6
1 -7 -12 17.4 8.8
1 -7 -12 -4.8 7.7
0 -7 -12 14.9 9.3
0 -7 -12 -0.7 8.3
0 7 12 6.3 8.9
-1 -7 -12 10.6 9.2
-1 -7 -12 17.9 9.3
1 7 12 7.4 9.5
-2 -7 -12 47.9 11.1
2 7 12 67.39 11.4
2 -8 -12 8.3 10.2
2 -8 -12 2.5 8.6
1 -8 -12 31.2 10.1
1 -8 -12 26.9 9.1
0 -8 -12 46.4 10.3
1 10 -13 -2.6 9.7
0 10 -13 21.9 10.4
-1 10 -13 13.8 9.9
-2 10 -13 94.99 15
2 -10 13 108.79 13.1
2 9 -13 41.4 10.5
1 9 -13 48.8 10.4
0 9 -13 143.69 14.7
-1 9 -13 82.39 11.4
-2 9 -13 7.8 9.4
2 -9 13 3.1 7.6
-3 9 -13 5.8 9.3
3 -9 13 -10.5 7.8
3 8 -13 14.2 10.2
-3 -8 13 4.5 10.2
2 8 -13 13.7 8.8
-2 -8 13 8.3 9
1 8 -13 -2.5 8.3
-1 -8 13 8.5 8.6
0 8 -13 300.07 16.3
0 -8 13 246.78 15.9
-1 8 -13 142.89 13.5
-2 8 -13 -0.7 8.2
2 -8 13 4.5 7
-3 8 -13 132.19 13.7
3 -8 13 134.19 12.9
-4 8 -13 29.2 9.4
-4 8 -13 -8 10.1
4 -8 13 38.6 10.1
3 7 -13 194.28 16
-3 -7 13 217.18 16.5
2 7 -13 55.39 10
-2 -7 13 37.6 9.4
1 7 -13 67.19 9.9
-1 -7 13 56.39 9.2
0 7 -13 48.8 9.2
-1 7 -13 2.6 7.2
-2 7 -13 40.9 8.7
2 -7 13 42.4 8
-3 7 -13 -8 8.4
3 -7 13 -4 7.6
-4 7 -13 4.2 9.9
4 -7 13 23.9 9.6
4 6 -13 22.4 9.7
-4 -6 13 3.8 10.2
3 6 -13 10.1 8.6
-3 -6 13 5.5 8.8
2 6 -13 221.68 14.7
-2 -6 13 207.68 14.3
1 6 -13 98.79 11.6
-1 -6 13 84.49 11.8
0 6 -13 476.95 18.6
0 -6 13 459.45 18.2
-1 6 -13 233.38 13.4
2 -6 13 61.09 7.8
-3 6 -13 -1.3 8.4
3 -6 13 1.5 7.4
-4 6 -13 19.7 9.9
4 -6 13 21.6 8.9
4 5 -13 20.2 9.4
-4 -5 13 22.8 9.8
3 5 -13 318.47 17.3
-3 -5 13 318.37 16.9
2 5 -13 274.57 15.3
-2 -5 13 252.97 15.1
1 5 -13 66.29 8.8
-1 -5 13 69.49 8.7
0 5 -13 77.89 10.2
0 -5 13 64.79 8.3
-1 5 -13 1.5 6.4
1 -5 13 -3.7 6.7
-2 5 -13 1.3 7.7
2 -5 13 3.6 5.8
-3 5 -13 22.5 8.8
3 -5 13 38.2 7.8
-4 5 -13 39.9 10.4
4 -5 13 40.1 9
-5 5 -13 38.9 12.2
5 -5 13 71.79 11.3
4 4 -13 3.6 8.7
-4 -4 13 3.7 9
3 4 -13 82.09 12.6
-3 -4 13 74.29 10.1
2 4 -13 80.79 11.6
-2 -4 13 52.09 8.9
1 4 -13 14.7 7.3
-1 -4 13 4.6 7
0 4 -13 279.17 13.1
0 -4 13 256.67 13.3
1 -4 13 226.88 12.2
-2 4 -13 13.1 8.2
2 -4 13 24.7 6.1
-3 4 -13 205.58 15.3
3 -4 13 229.18 12.7
-4 4 -13 9 9.1
4 -4 13 22.5 8.2
-5 4 -13 10 10.6
5 -4 13 22.4 9.6
5 3 -13 74.79 11.5
-5 -3 13 62.99 11.6
4 3 -13 -4.3 8.3
-4 -3 13 -5.1 8.9
3 3 -13 46.9 9.1
-3 -3 13 60.29 9.6
2 3 -13 357.76 16.4
-2 -3 13 353.96 16.3
1 3 -13 115.29 10.7
-1 -3 13 89.99 10.9
0 3 -13 74.69 9.5
0 3 -13 61.89 9.3
0 -3 13 72.89 10.3
-1 3 -13 24.8 7.9
1 -3 13 25.8 6.2
-2 3 -13 43.9 8.6
2 -3 13 61.29 9
2 -3 13 54.09 7.9
-3 3 -13 121.49 13.3
3 -3 13 145.89 10.9
-4 3 -13 100.09 14.2
4 -3 13 141.59 12
-5 3 -13 -13.6 9.1
5 -3 13 -8.3 8.3
5 2 -13 212.48 16.4
-5 -2 13 203.18 16.4
4 2 -13 30.1 9.1
-4 -2 13 34.2 9.5
3 2 -13 -6.9 7.3
-3 -2 13 -4.4 7.8
2 2 -13 397.86 20.5
2 2 -13 464.45 17.9
-2 -2 13 474.15 18.2
1 2 -13 6.7 6.4
1 2 -13 2.6 7.8
-1 -2 13 11.8 6.7
0 2 -13 8.6 7.7
0 -2 13 12 6.3
-1 2 -13 271.87 15.3
1 -2 13 288.77 12.9
-2 2 -13 1.4 7.4
2 -2 13 13.6 6.4
2 -2 13 9.6 5.8
-3 2 -13 -3.3 7.9
3 -2 13 -9.5 6.2
-4 2 -13 36.6 10.2
4 -2 13 51.39 8.7
-5 2 -13 124.29 15.9
5 -2 13 145.09 13.9
4 1 -13 366.66 18.2
-4 -1 13 356.56 17.5
3 1 -13 9.5 7.6
3 1 -13 13 8.6
-3 -1 13 19.2 8.3
2 1 -13 247.98 17.1
2 1 -13 285.27 14
-2 -1 13 281.47 14.4
1 1 -13 9.8 6.1
1 1 -13 10.7 8
-1 -1 13 4.9 6.6
0 1 -13 190.58 14.1
0 -1 13 194.08 11.2
-1 1 -13 220.48 14.3
1 -1 13 237.38 12
-2 1 -13 2.1 7.1
2 -1 13 9.6 5.9
2 -1 13 1.8 5.8
-3 1 -13 47.6 9.3
3 -1 13 63.09 8.1
3 -1 13 66.39 9.5
-4 1 -13 -3.2 8.5
4 -1 13 -0.4 7.3
-5 1 -13 14 10.8
5 -1 13 22.7 9.5
5 0 -13 1.8 9.5
4 0 -13 12.9 8.8
3 0 -13 11.8 8.8
3 0 -13 13.4 7.9
-3 0 13 17.7 8.1
2 0 -13 252.67 17.4
2 0 -13 277.47 14.1
-2 0 13 283.87 14.6
1 0 -13 15.6 8.2
-1 0 13 17.1 6.4
0 0 -13 289.77 16.5
0 0 13 331.67 13.9
-1 0 -13 162.28 13.4
-1 0 -13 159.08 9.1
1 0 13 169.08 11.4
-2 0 -13 34.7 8.6
2 0 13 40.7 6.7
2 0 13 37.9 7.5
-3 0 -13 -2.3 7.8
3 0 13 9.7 6.8
3 0 13 3.6 6.9
-4 0 -13 -2.4 8.8
4 0 13 23.9 8.5
4 0 13 29.7 7.6
5 0 13 132.19 13.8
5 -1 -13 113.59 16.9
4 -1 -13 14.2 9.4
3 -1 -13 24.5 9.3
-3 1 13 32.7 8.6
2 -1 -13 203.58 16.4
-2 1 13 225.88 13.2
1 -1 -13 154.88 13.8
-1 1 13 163.48 11.7
0 -1 -13 55.59 8.8
0 1 13 50.99 7.5
-1 -1 -13 257.27 11.3
-1 -1 -13 248.08 15.4
1 1 13 271.17 13.1
-2 -1 -13 26.2 8.4
-2 -1 -13 30.4 6.8
2 1 13 31.5 7.6
-3 -1 -13 103.89 13.4
3 1 13 133.49 11.3
-4 -1 -13 -14.6 8.6
4 1 13 6.8 7.2
4 1 13 6.4 7.9
5 -2 -13 34.9 11.5
4 -2 -13 56.49 11.5
3 -2 -13 -3.8 8.4
-3 2 13 -1.4 7.1
2 -2 -13 185.18 15.5
-2 2 13 180.48 12.5
1 -2 -13 43.6 8.9
-1 2 13 58.19 8
0 -2 -13 41.1 6.7
0 -2 -13 22.6 7.9
0 2 13 26 7.3
-1 -2 -13 182.38 10.5
-1 -2 -13 164.38 14
1 2 13 192.88 12.4
-2 -2 -13 27.6 8.4
-2 -2 -13 28.1 6.9
2 2 13 17.1 7.3
-3 -2 -13 18.9 7.6
-3 -2 -13 0.5 8.3
3 2 13 9.5 7.1
-4 -2 -13 20.9 8.6
-4 -2 -13 3.3 9.2
4 2 13 19.6 8.3
5 -3 -13 6.1 11.3
-5 3 13 6.5 10.8
4 -3 -13 40.8 11
-4 3 13 34.4 9.9
3 -3 -13 13.8 9.2
-3 3 13 14 8.8
2 -3 -13 95.89 14.2
-2 3 13 138.29 11.9
1 -3 -13 17 6.3
1 -3 -13 26.4 8.3
-1 3 13 21.3 7.6
0 -3 -13 47.4 9.1
0 -3 -13 61.69 9.5
0 3 13 56.59 8.3
-1 -3 -13 60.29 9.5
-1 -3 -13 58.69 8.1
1 3 13 58.49 8.6
-2 -3 -13 130.99 14.3
-2 -3 -13 124.89 11.1
2 3 13 122.49 11.7
-3 -3 -13 0.2 8.7
-3 -3 -13 -3.5 7.2
3 3 13 0.9 7.4
-4 -3 -13 85.59 12.6
-4 -3 -13 96.89 12.8
4 3 13 107.79 13.1
4 -4 -13 18.5 10.4
-4 4 13 23.8 10.1
3 -4 -13 9.8 9.8
-3 4 13 30.3 9.3
2 -4 -13 85.69 13.7
-2 4 13 88.99 11.7
1 -4 -13 72.79 9.9
1 -4 -13 63.19 10
-1 4 13 89.29 11.6
0 -4 -13 24.3 8.4
0 -4 -13 19 7.8
0 4 13 21.6 8.1
-1 -4 -13 37.2 8
-1 -4 -13 40.7 9.1
1 4 13 37.6 8.6
-2 -4 -13 7.4 8.7
-2 -4 -13 -2.5 7.3
2 4 13 -3 7.6
-3 -4 -13 -8.8 9.3
-3 -4 -13 -3.7 8.2
3 4 13 7 8.6
4 -5 -13 27.6 10.6
-4 5 13 19.3 10.6
3 -5 -13 125.39 15.9
-3 5 13 115.09 13.8
2 -5 -13 141.49 15.1
2 -5 -13 130.19 10.9
1 -5 -13 107.39 14.7
1 -5 -13 78.79 10.8
-1 5 13 116.19 13
0 -5 -13 56.19 9.2
0 -5 -13 75.39 12.9
0 5 13 59.49 9.6
-1 -5 -13 23.7 9.1
-1 -5 -13 1.2 7.8
1 5 13 4.3 8.2
-2 -5 -13 3.9 9
-2 -5 -13 25.5 9
2 5 13 13.2 8.5
-3 -5 -13 0.4 9
3 5 13 -0.7 9.1
3 -6 -13 -4.3 9.5
-3 6 13 19.1 9.6
2 -6 -13 54.69 8.9
2 -6 -13 61.39 11.2
1 -6 -13 70.19 11.2
1 -6 -13 72.09 11.2
-1 6 13 85.29 13
0 -6 -13 -3.4 8.4
0 -6 -13 13.2 8.7
0 6 13 8.7 8.6
-1 -6 -13 0.6 8.6
-1 -6 -13 27.2 9.4
1 6 13 -7.7 8.5
-2 -6 -13 33.4 9.9
-2 -6 -13 53.49 10.4
2 6 13 37.2 10.6
2 -7 -13 186.68 13.9
2 -7 -13 164.18 17.6
1 -7 -13 61.39 11.1
1 -7 -13 56.79 9.6
0 -7 -13 15.5 9.9
0 -7 -13 11.6 9.1
0 7 13 20.1 9.4
-1 -7 -13 25.5 9.4
-1 -7 -13 -4 9.4
1 7 13 17.6 10.2
1 9 -14 25.4 10.1
0 9 -14 21.5 10.1
-1 9 -14 113.89 14.6
-2 9 -14 186.18 16.3
2 8 -14 145.19 15.2
-2 -8 14 157.78 15.6
1 8 -14 11.7 9.3
-1 -8 14 4.5 9
0 8 -14 -4.1 8.7
-1 8 -14 37 9.5
-2 8 -14 208.98 15.2
3 -8 14 201.78 14.7
3 7 -14 -7.7 9.6
-3 -7 14 9.1 10.1
2 7 -14 7.1 9
-2 -7 14 3.4 9
1 7 -14 134.49 13.3
-1 -7 14 123.09 13.6
0 7 -14 81.49 12.2
0 -7 14 68.09 9.6
-1 7 -14 5.1 8.1
-2 7 -14 18.6 8.3
2 -7 14 26.4 7.5
3 -7 14 6.2 8.1
-4 7 -14 -12.9 9.9
4 -7 14 4.9 9
3 6 -14 33.3 10.1
-3 -6 14 15.8 9.9
2 6 -14 21.7 9.2
-2 -6 14 12.7 8.9
1 6 -14 3.3 7.8
-1 -6 14 8 8.1
0 6 -14 238.58 14
0 -6 14 212.48 14
-1 6 -14 16.2 7.8
2 -6 14 31.5 7.4
3 -6 14 158.38 12.6
-4 6 -14 11.9 10.8
4 -6 14 39.2 9.5
4 5 -14 20.9 9.6
-4 -5 14 -12.2 9.6
3 5 -14 153.38 14.7
-3 -5 14 162.18 14.9
2 5 -14 2.7 8
-2 -5 14 -6.7 8.3
1 5 -14 12.4 7.7
-1 -5 14 2.4 7.6
0 5 -14 90.89 10.9
0 -5 14 62.99 8.6
-1 5 -14 2.7 6.6
1 -5 14 -2.8 7
-2 5 -14 -12.6 8.1
2 -5 14 3.2 6.1
-3 5 -14 -2.4 8.3
3 -5 14 4.6 7.1
-4 5 -14 -0.7 9.5
4 -5 14 21.2 8.6
4 4 -14 47.1 10.5
-4 -4 14 44.1 10.9
3 4 -14 223.48 15.1
-3 -4 14 197.58 15.8
2 4 -14 41.6 9
-2 -4 14 28.5 8.7
1 4 -14 41.6 8.5
-1 -4 14 41.3 8.4
0 4 -14 73.99 10.3
0 -4 14 67.29 8.8
-1 4 -14 52.29 9.1
1 -4 14 58.59 7.6
-2 4 -14 91.09 12.9
2 -4 14 123.29 9.3
-3 4 -14 1.4 9.1
3 -4 14 13.4 7.3
-4 4 -14 26.8 10.3
4 -4 14 33.4 8.9
4 3 -14 16.8 9.1
-4 -3 14 23.4 9.9
3 3 -14 321.27 17.2
-3 -3 14 310.47 17.2
2 3 -14 242.38 14.3
-2 -3 14 238.88 14.7
1 3 -14 0.9 6.8
-1 -3 14 3.9 7
0 3 -14 130.99 13.7
0 -3 14 140.79 11.6
-1 3 -14 -1 7.4
1 -3 14 10.3 6.2
-2 3 -14 -0.6 7.5
2 -3 14 16.3 6.5
2 -3 14 -3.4 5.7
-3 3 -14 82.89 13.7
3 -3 14 133.39 11.2
-4 3 -14 83.29 12.3
4 -3 14 111.89 12.1
4 2 -14 78.89 11.1
-4 -2 14 80.19 11.2
3 2 -14 96.49 13
-3 -2 14 119.69 13.4
2 2 -14 5.6 7.3
2 2 -14 15.3 8.8
-2 -2 14 8.3 7.7
1 2 -14 131.59 11
1 2 -14 96.19 14
-1 -2 14 140.59 12.3
0 2 -14 425.46 20
0 -2 14 458.15 17
-1 2 -14 481.75 20.7
1 -2 14 498.75 17.6
-2 2 -14 26.4 8.6
2 -2 14 37.5 7.2
2 -2 14 28.4 6.5
-3 2 -14 36.4 9.5
3 -2 14 46.6 8
3 -2 14 51.49 8.2
-4 2 -14 12.4 9.4
4 -2 14 19.7 8.4
-5 -1 14 28.1 10.5
4 1 -14 73.69 11.1
-4 -1 14 67.69 10.9
3 1 -14 139.09 15.7
3 1 -14 157.88 13.7
-3 -1 14 170.58 14.1
2 1 -14 65.79 10.7
2 1 -14 85.69 11.3
-2 -1 14 70.09 9.4
1 1 -14 71.59 9.8
1 1 -14 52.39 9.8
-1 -1 14 74.49 10.9
0 1 -14 82.79 12.9
0 -1 14 97.99 10.3
-1 1 -14 24.4 5.4
-1 1 -14 9.4 7.8
1 -1 14 2.3 6.3
-2 1 -14 32.7 9
2 -1 14 44.9 7.2
2 -1 14 38.1 7
-3 1 -14 65.39 10.5
3 -1 14 70.59 10.7
3 -1 14 81.49 10.3
-4 1 -14 167.48 16.4
4 -1 14 213.78 13.7
4 0 -14 8 9.3
-4 0 14 7.2 8.9
3 0 -14 -4 8.5
-3 0 14 9.3 8.6
2 0 -14 67.59 8.9
2 0 -14 72.19 11.2
-2 0 14 57.69 8.9
1 0 -14 18.4 8.8
-1 0 14 20.9 7
0 0 -14 53.59 9.4
0 0 14 41.5 7.4
-1 0 -14 396.46 19.4
-1 0 -14 404.96 14.3
1 0 14 413.96 16.4
-2 0 -14 94.89 12.4
-2 0 -14 120.79 9.7
2 0 14 102.69 11
-3 0 -14 20.4 8.7
3 0 14 27.5 7.7
3 0 14 33.4 7.7
-4 0 -14 0.8 9.1
4 0 14 -1 7
4 0 14 13.5 8.8
4 -1 -14 77.59 12.4
3 -1 -14 47.9 10.8
-3 1 14 42.8 9.3
2 -1 -14 18.5 9.4
-2 1 14 10.9 7.5
1 -1 -14 5.1 8
-1 1 14 7.1 6.9
0 -1 -14 10.7 7.7
0 1 14 4.6 7
-1 -1 -14 3.5 7.6
-1 -1 -14 2.5 5.7
1 1 14 3.9 6.5
-2 -1 -14 17.7 8.7
-2 -1 -14 42.9 7.5
2 1 14 23.9 7.8
-3 -1 -14 -0.6 8.6
-3 -1 -14 28.6 7.7
3 1 14 18.8 7.7
-4 -1 -14 71.19 12.3
4 1 14 93.99 11.6
4 -2 -14 16.8 10.1
3 -2 -14 25.1 9.5
-3 2 14 24.8 8.1
2 -2 -14 -5.2 8.1
-2 2 14 -5 7.4
1 -2 -14 62.49 10
-1 2 14 82.49 11.2
0 -2 -14 35.8 7.3
0 -2 -14 54.39 9.3
0 2 14 53.69 8.3
-1 -2 -14 1.8 6.3
-1 -2 -14 18.9 8.6
1 2 14 0.8 7.2
-2 -2 -14 45.2 10.1
-2 -2 -14 54.59 8
2 2 14 59.19 8.8
-3 -2 -14 28.9 8.3
-3 -2 -14 6.3 9.1
3 2 14 21.9 7.9
-4 -2 -14 26.5 10.6
-4 -2 -14 61.99 10.1
4 2 14 52.59 9.3
4 -3 -14 -0.8 9.8
-4 3 14 -6.3 9.4
3 -3 -14 26 10.3
-3 3 14 15.9 9
2 -3 -14 93.19 14.8
-2 3 14 106.79 12.2
1 -3 -14 18.8 8.3
-1 3 14 22.4 8.2
0 -3 -14 36.9 8
0 -3 -14 40.9 9.4
0 3 14 42.1 8.5
-1 -3 -14 210.18 12.7
-1 -3 -14 211.58 15.9
1 3 14 231.28 14.2
-2 -3 -14 22.7 7.7
-2 -3 -14 20.8 9.1
2 3 14 22.2 8.3
-3 -3 -14 11 9.6
-3 -3 -14 30.6 8.6
3 3 14 36 8.6
-4 4 14 5.7 10.3
3 -4 -14 0.6 9.3
-3 4 14 12.3 9.4
2 -4 -14 20.7 9.1
-2 4 14 21.4 8.5
1 -4 -14 102.09 10.6
1 -4 -14 89.59 13.8
-1 4 14 110.89 12.6
0 -4 -14 5.8 7.9
0 -4 -14 18 8.7
0 4 14 24.5 8.7
-1 -4 -14 28.7 8.1
-1 -4 -14 57.19 10.2
1 4 14 35.5 9
-2 -4 -14 -1.7 7.8
-2 -4 -14 8.2 9.4
2 4 14 -4.1 7.9
-3 -4 -14 -13.6 7.9
-3 -4 -14 7.5 10
3 4 14 9 8.9
3 -5 -14 16.8 10
-3 5 14 0.7 9.2
2 -5 -14 5.4 9
1 -5 -14 76.59 10.6
1 -5 -14 58.49 10.9
-1 5 14 51.69 10
0 -5 -14 0.9 8.2
0 -5 -14 -11.4 7.8
0 5 14 -4.8 8.4
-1 -5 -14 193.88 16.4
-1 -5 -14 150.48 13.5
1 5 14 160.48 14.4
-2 -5 -14 178.08 16.1
-2 -5 -14 156.78 14.3
2 5 14 192.58 14.8
2 -6 -14 60.19 11.4
1 -6 -14 23.9 8.1
1 -6 -14 23.7 9.9
-1 6 14 12.3 9.2
0 -6 -14 37.2 10.2
0 -6 -14 23.1 9.4
0 6 14 14.5 9.2
-1 -6 -14 3.8 9.2
-1 -6 -14 25.4 9.9
1 6 14 25.4 9.8
0 9 -15 9.4 10.1
-1 9 -15 11.8 10.2
1 8 -15 11.8 9.6
-1 -8 15 1.4 9.3
0 8 -15 3.2 9
0 -8 15 -9.4 8.5
-1 8 -15 63.19 10.7
-2 8 -15 12.6 9.2
2 7 -15 67.09 11.5
-2 -7 15 54.99 11.8
1 7 -15 1.1 8.7
-1 -7 15 2.2 8.9
0 7 -15 30.6 9.2
0 -7 15 21.5 8.8
-1 7 -15 100.49 13.2
-2 7 -15 95.29 12.8
3 -7 15 -8.9 8.2
3 6 -15 37.7 10.9
-3 -6 15 34.6 10.8
2 6 -15 77.49 11.3
-2 -6 15 57.19 10.8
1 6 -15 42.6 9.6
-1 -6 15 41.3 9.5
0 6 -15 128.19 12.7
0 -6 15 109.09 12.7
-1 6 -15 -1.5 7.5
-3 6 -15 18.8 10.1
3 -6 15 48.9 9
3 5 -15 -0.9 9.1
-3 -5 15 -0.1 9.7
2 5 -15 14.9 8.8
-2 -5 15 -7.9 8.6
1 5 -15 54.79 9.6
-1 -5 15 52.49 9.4
0 5 -15 74.39 9.3
0 -5 15 60.69 9.2
1 -5 15 14.4 7.3
-3 5 -15 26.2 10.6
3 -5 15 30.1 8.2
-4 5 -15 -17.6 9.7
4 -5 15 4.1 8.6
4 4 -15 -2.8 9.4
-4 -4 15 -11.2 10.5
3 4 -15 17.2 9.1
-3 -4 15 -0.1 9.4
2 4 -15 98.49 13.2
-2 -4 15 81.59 12.7
1 4 -15 26.1 8.2
-1 -4 15 18.9 8
0 -4 15 0.5 7.4
-1 4 -15 21 8.7
1 -4 15 28.3 7.2
-2 4 -15 -0.4 8.2
2 -4 15 -8.3 5.8
-3 4 -15 93.69 12.1
3 -4 15 102.79 11.3
-4 4 -15 4.9 10.1
4 -4 15 8.5 8.5
4 3 -15 89.59 12.2
-4 -3 15 86.29 12.4
3 3 -15 30.7 9.4
-3 -3 15 17.1 9.2
2 3 -15 9.8 8
-2 -3 15 -7.7 8.3
1 3 -15 70.59 11.1
1 3 -15 43.2 9.6
-1 -3 15 42.7 8.8
0 3 -15 15.1 8.3
0 -3 15 22.9 7.7
-1 3 -15 9.5 8
1 -3 15 4.1 6.7
-2 3 -15 -4 8.3
2 -3 15 -4.8 5.7
2 -3 15 2.8 6.8
-3 3 -15 12.7 9.3
3 -3 15 6.6 7.5
-4 3 -15 -1.7 10.2
4 -3 15 21.1 8.9
4 2 -15 148.89 15.6
-4 -2 15 148.79 15.3
3 2 -15 38.8 9.8
-3 -2 15 41.2 10
2 2 -15 22.7 8.1
-2 -2 15 19.6 8.4
1 2 -15 321.87 19
1 2 -15 422.26 16.5
-1 -2 15 378.66 17.2
0 2 -15 64.29 9.7
0 -2 15 76.89 10.3
-1 2 -15 14.9 8.5
1 -2 15 26.8 7
-2 2 -15 64.59 10.7
2 -2 15 69.99 8.8
2 -2 15 76.29 8.6
-3 2 -15 211.28 17
3 -2 15 266.77 13.6
-4 2 -15 59.69 11.8
4 -2 15 59.49 9.5
4 1 -15 10.5 9.8
-4 -1 15 5.6 9.8
3 1 -15 3.4 9.4
3 1 -15 12.6 8.6
-3 -1 15 8.6 9
2 1 -15 145.79 16.1
2 1 -15 168.18 13.2
-2 -1 15 146.09 13.9
1 1 -15 70.19 10.5
-1 -1 15 60.59 8.9
0 1 -15 28 8.5
0 -1 15 34 7.6
-1 1 -15 7.2 8
1 -1 15 11.2 7.2
-2 1 -15 -3.9 7.9
2 -1 15 -5.7 6
2 -1 15 -4.9 6.4
-3 1 -15 57.89 10.6
3 -1 15 80.99 9.3
3 -1 15 61.69 9.4
-4 1 -15 5.1 10.2
4 -1 15 23.7 9
4 0 -15 158.48 17.6
-4 0 15 199.48 16.2
3 0 -15 65.79 11.8
-3 0 15 76.69 10.9
2 0 -15 90.79 15.2
2 0 -15 113.79 12.2
-2 0 15 87.79 12.6
1 0 -15 47.3 9.4
-1 0 15 44.8 8.3
0 0 -15 135.69 13.7
0 0 15 126.09 11.8
-1 0 -15 362.46 19.3
-1 0 -15 395.36 14.4
1 0 15 388.36 16.5
-2 0 -15 31.6 7.6
-2 0 -15 20.9 9.1
2 0 15 30.8 7.9
-3 0 -15 54.09 11
3 0 15 70.89 9.1
4 0 15 18.5 9
4 0 15 47.4 8.5
4 -1 -15 12.5 10.1
3 -1 -15 29 10.8
-3 1 15 53.09 9.8
2 -1 -15 3.9 8.9
-2 1 15 8.4 8
1 -1 -15 40.3 9.4
-1 1 15 38.6 8.4
0 -1 -15 32.7 9.2
0 1 15 46.5 8.6
-1 -1 -15 38.7 9.2
-1 -1 -15 57.39 7.5
1 1 15 41.8 7.9
-2 -1 -15 3.9 6.5
-2 -1 -15 6.5 8.5
2 1 15 1.7 7.7
-3 -1 -15 20.3 8.1
-3 -1 -15 3.3 9.1
3 1 15 19.6 7.8
4 -2 -15 66.59 13
3 -2 -15 2.5 9.7
-3 2 15 -8.4 8.1
2 -2 -15 3 9.2
-2 2 15 -1 7.8
1 -2 -15 8.8 8.5
-1 2 15 1.8 8
0 -2 -15 30.8 9.1
0 2 15 35 8.6
-1 -2 -15 171.78 15.2
-1 -2 -15 151.68 11.6
1 2 15 179.78 13.5
-2 -2 -15 23.6 9.7
-2 -2 -15 39.8 8.3
2 2 15 44.2 8.8
-3 -2 -15 39.5 9
-3 -2 -15 31.4 10.7
3 2 15 44.2 8.9
3 -3 -15 33.1 11.2
-3 3 15 37.8 10.4
2 -3 -15 4.8 9.2
-2 3 15 11.3 8.3
-2 3 15 2.5 8.4
1 -3 -15 56.39 10.1
-1 3 15 52.89 9.3
0 -3 -15 3.1 7.7
0 -3 -15 4.6 8.5
0 3 15 -2.5 7.9
-1 -3 -15 16.7 7.7
-1 -3 -15 32.4 9.2
1 3 15 23.2 8.7
-2 -3 -15 16.9 9.5
-2 -3 -15 -3.9 7.3
2 3 15 4.8 8.2
-3 -3 -15 57.99 12.1
-3 -3 -15 58.69 10.3
3 3 15 58.49 9.8
3 -4 -15 4.5 10
-3 4 15 -0.9 9.6
2 -4 -15 8.2 9.6
-2 4 15 36.6 9.4
1 -4 -15 -12.3 8.4
-1 4 15 -3.3 8.6
0 -4 -15 4.6 7.8
0 -4 -15 2.1 8.2
0 4 15 11 9.1
-1 -4 -15 78.29 11.9
-1 -4 -15 124.29 14.8
1 4 15 111.79 13.6
-2 -4 -15 21.9 9.7
-2 -4 -15 10.7 8.7
2 4 15 30.7 9.4
2 -5 -15 27.5 10.6
1 -5 -15 6 9.5
0 -5 -15 36.4 9.5
0 -5 -15 37.5 10.1
0 5 15 44.4 10.3
-1 -5 -15 178.38 17.2
-1 -5 -15 161.28 14.2
1 5 15 172.98 15.3
1 -6 -15 8.6 8.8
0 8 -16 31.9 10.5
0 -8 16 13.1 9.2
-1 8 -16 215.98 16.6
1 7 -16 88.99 12.2
-1 -7 16 83.29 11.2
0 7 -16 39.5 9.8
0 -7 16 30.5 9.4
-1 7 -16 14.6 9.1
2 6 -16 19.9 9.9
-2 -6 16 37.5 10.4
1 6 -16 -4.7 8.9
-1 -6 16 12.1 9
0 6 -16 -0.1 8.2
0 -6 16 -3.7 8.2
-1 6 -16 88.49 12.2
-3 6 -16 0.8 10.4
3 -6 16 4.2 8.6
3 5 -16 112.39 14.8
-3 -5 16 126.59 15.8
2 5 -16 279.87 17.4
-2 -5 16 276.37 17.3
1 5 -16 10.9 8.5
-1 -5 16 5 8.4
0 5 -16 50.39 9.3
0 -5 16 48 9.5
1 -5 16 -1.2 7.1
-2 5 -16 85.29 12
-3 5 -16 -8 9.6
3 -5 16 2.3 7.5
3 4 -16 24.6 10.2
-3 -4 16 29 10.5
2 4 -16 121.59 13.8
-2 -4 16 111.19 14.3
1 4 -16 -1.7 8.1
-1 -4 16 -1.9 8.2
0 4 -16 26.3 8.1
0 -4 16 14.1 8.4
-1 4 -16 96.69 14.1
1 -4 16 86.49 11.4
-2 4 -16 18.4 9.3
-3 4 -16 -2.2 9.8
3 -4 16 12.4 7.8
3 3 -16 10.2 9.2
-3 -3 16 9.9 10.1
2 3 -16 37.7 9.4
-2 -3 16 30.7 9.5
1 3 -16 -0.5 7.4
-1 -3 16 -13.5 8.2
0 3 -16 31.4 8.9
0 -3 16 27 8
-1 3 -16 96.79 14.2
1 -3 16 91.59 11.4
-2 3 -16 130.59 15
2 -3 16 148.49 12.3
-3 3 -16 -8.7 9.3
3 -3 16 -6.6 7.1
3 2 -16 64.09 10.9
-3 -2 16 74.39 11.4
2 2 -16 336.77 20.7
2 2 -16 419.06 18
-2 -2 16 346.27 18.7
1 2 -16 91.49 14
1 2 -16 97.09 11.3
-1 -2 16 68.39 9.7
0 2 -16 15.6 8.2
0 -2 16 15.7 7.5
-1 2 -16 71.89 10.8
1 -2 16 85.89 11
-2 2 -16 -11.8 7.9
2 -2 16 -17.5 6.2
2 -2 16 8.4 7.1
-3 2 -16 -1.8 9
3 -2 16 -5 7.1
3 1 -16 25.1 10.2
3 1 -16 10.4 9.1
-3 -1 16 20.3 10.3
2 1 -16 13.7 9.5
2 1 -16 15.8 8.2
-2 -1 16 13.1 9.2
1 1 -16 21.3 8.8
-1 -1 16 11.7 7.9
0 1 -16 24.5 8.9
0 -1 16 18.1 7.6
-1 1 -16 142.59 15
1 -1 16 134.39 12.5
-2 1 -16 187.18 11.3
-2 1 -16 126.69 15
2 -1 16 152.38 12.4
-3 1 -16 -5 9.4
3 -1 16 16.3 7.9
3 -1 16 10.2 7.6
3 0 -16 7.4 9.5
-3 0 16 -4.5 9.5
2 0 -16 282.57 20
-2 0 16 305.37 16.2
1 0 -16 4.9 8.4
-1 0 16 16.5 8.2
0 0 -16 -3.6 7.9
0 0 16 -6.2 7.2
-1 0 -16 98.09 14.3
1 0 16 110.79 12
-2 0 -16 141.69 15.6
-2 0 -16 149.19 11.2
2 0 16 156.88 13.2
-3 0 -16 -2.8 9.2
-3 0 -16 25.5 8
3 0 16 14.1 7.9
3 -1 -16 -5.6 9.5
-3 1 16 1.9 8.9
2 -1 -16 5.4 9.5
-2 1 16 0.7 8.5
1 -1 -16 20 8.9
-1 1 16 13.1 8.2
0 -1 -16 32.8 9.6
0 1 16 37.6 8.8
-1 -1 -16 176.98 15.8
1 1 16 160.28 13.1
-2 -1 -16 6.7 7
-2 -1 -16 2.6 9.5
2 1 16 6.5 7.8
-3 -1 -16 25.9 8.5
3 1 16 40.5 9.1
3 -2 -16 14.6 11
-3 2 16 0.3 9
2 -2 -16 9.6 9.7
-2 2 16 9.9 8.7
1 -2 -16 -0.9 8.7
-1 2 16 -12.4 8.3
0 -2 -16 67.19 11.2
0 2 16 77.69 10
-1 -2 -16 2.4 7.2
-1 -2 -16 12.6 8.8
1 2 16 0.6 8.4
-2 -2 -16 97.39 15.3
-2 -2 -16 91.99 11.4
2 2 16 88.69 12.8
-3 3 16 -0.5 9.6
2 -3 -16 27 10.7
-2 3 16 33 10
1 -3 -16 76.99 11.5
-1 3 16 64.69 10.1
0 -3 -16 169.38 16.3
0 3 16 184.48 15
-1 -3 -16 17.8 9.3
-1 -3 -16 -10 7.5
1 3 16 6.1 9.1
-2 -3 -16 85.09 10.6
-2 -3 -16 73.49 12.9
2 3 16 87.29 13.3
1 -4 -16 21 9.8
-1 4 16 -4.6 9.1
0 -4 -16 37.6 10
0 4 16 11.6 9.6
-1 -4 -16 27.2 9
-1 -4 -16 22.7 10.4
1 4 16 14.3 9.6
0 7 -17 194.98 16.1
0 -7 17 167.68 15.9
-1 7 -17 11.6 9.4
1 6 -17 9 9.6
-1 -6 17 7.8 9.6
0 6 -17 45.8 10.1
0 -6 17 43.1 10.4
1 -6 17 28.5 8.7
2 5 -17 76.69 12.1
-2 -5 17 64.89 11.7
1 5 -17 89.79 13.4
-1 -5 17 66.99 11.1
0 5 -17 94.99 13
0 -5 17 71.69 10.5
1 -5 17 8.1 7.5
-2 5 -17 -7.6 9.1
2 4 -17 35.2 9.9
-2 -4 17 12.6 9.8
1 4 -17 -1 8.4
-1 -4 17 -6.3 9
0 -4 17 -0.7 8.1
-1 4 -17 51.89 10.6
1 -4 17 47.3 8.6
-2 4 -17 5.9 9.7
2 -4 17 16.9 8.2
3 3 -17 78.49 11.9
-3 -3 17 110.39 15.4
2 3 -17 34.7 9.7
-2 -3 17 26.1 10.4
1 3 -17 71.29 9.9
-1 -3 17 58.99 10.4
0 3 -17 33.5 9
0 -3 17 25.1 8.3
-1 3 -17 12.6 9.2
1 -3 17 8.4 7.6
-2 3 -17 -10.1 8.7
2 -3 17 5.2 7.6
3 -3 17 2.4 8.2
3 -3 17 -0.2 7.5
3 2 -17 27.1 10.2
-3 -2 17 24.7 11.3
2 2 -17 19.3 9.8
2 2 -17 11.9 8.9
-2 -2 17 3.1 9.7
1 2 -17 33.8 9.3
-1 -2 17 17.7 8.8
0 2 -17 220.78 16.5
0 -2 17 196.48 14
-1 2 -17 113.89 15.1
1 -2 17 120.19 12
-2 2 -17 66.19 11.4
2 -2 17 73.49 9.3
3 -2 17 5.6 7.7
3 -2 17 17.8 8.4
3 1 -17 60.99 11.4
3 1 -17 46.7 11.6
-3 -1 17 48.2 11.9
2 1 -17 64.49 9.9
2 1 -17 70.19 11.7
-2 -1 17 61.69 10.7
1 1 -17 7.5 8.8
-1 -1 17 10 8.3
0 1 -17 35.4 9.5
0 -1 17 20.7 8.1
-1 1 -17 96.89 14.8
1 -1 17 89.79 12.3
-2 1 -17 14.2 10.1
2 -1 17 19.2 7.9
3 0 -17 38.4 11.4
-3 0 17 26.7 10.3
2 0 -17 75.79 12.2
-2 0 17 85.99 13.4
1 0 -17 37.9 10.1
-1 0 17 45.1 9.1
0 0 -17 97.49 14.7
0 0 17 92.29 12.5
-1 0 -17 36 10.2
1 0 17 46 9
-2 0 -17 38.4 10.8
2 0 17 19.7 8.9
2 -1 -17 7.9 10
-2 1 17 8.5 9.2
1 -1 -17 4.6 8.8
-1 1 17 -17.7 8.2
0 -1 -17 88.69 14.9
0 1 17 69.59 10
-1 -1 -17 37.5 10.3
1 1 17 28.6 8.9
-2 -1 -17 11.2 8.2
2 1 17 11.5 8.4
2 -2 -17 143.79 17.3
-2 2 17 131.19 14.5
1 -2 -17 11.4 9.5
-1 2 17 10.4 9.3
0 -2 -17 8 9.4
0 2 17 9.5 8.6
-1 -2 -17 22.6 9.4
1 2 17 12.7 9.2
-1 3 17 49 10.2
0 3 17 -9.9 9.3
0 -5 18 28.4 9.8
1 -5 18 0.1 8.1
1 4 -18 49.9 10.3
-1 -4 18 34.3 10.6
0 4 -18 18.7 9
0 -4 18 -0.1 8.3
-1 4 -18 13.2 9.6
1 -4 18 12.3 8.1
2 3 -18 27.8 9.7
1 3 -18 55.19 10.4
-1 -3 18 30 10
0 3 -18 51.49 10.5
0 -3 18 45.5 9.4
-1 3 -18 39.9 10.8
1 -3 18 33.3 8.7
-2 3 -18 18.7 10.9
2 2 -18 14 9.3
-2 -2 18 -4 9.8
1 2 -18 16.6 9.4
-1 -2 18 6.1 8.6
0 2 -18 9.4 8.7
0 -2 18 4.6 8
-1 2 -18 10.5 9.7
1 -2 18 6 8.5
2 -2 18 30.1 8.4
2 1 -18 7.7 10
2 1 -18 7.6 8.8
-2 -1 18 -0.1 9.4
1 1 -18 58.29 11.1
-1 -1 18 43.8 10.1
0 1 -18 48.1 10.4
0 -1 18 48.4 9.3
-1 1 -18 52.89 11.2
1 -1 18 49.8 9.4
2 0 -18 24.9 11.4
1 0 -18 34.5 10.5
-1 0 18 37.3 9.6
0 0 -18 123.99 16.5
0 0 18 115.19 14.1
1 0 18 7.9 8.4
-1 1 18 4.4 9.4
0 1 18 7.6 8.9
