#------------------------------------------------------------------------------
#$Date: 2017-12-11 01:28:22 +0200 (Mon, 11 Dec 2017) $
#$Revision: 204147 $
#$URL: file:///home/coder/svn-repositories/cod/cif/4/12/28/4122878.cif $
#------------------------------------------------------------------------------
#
# This file is available in the Crystallography Open Database (COD),
# http://www.crystallography.net/
#
# All data on this site have been placed in the public domain by the
# contributors.
#
data_4122878
loop_
_publ_author_name
'Chen, Wenyong'
'Chen, Ming'
'Hartwig, John F.'
_publ_section_title
;
 Diastereo- and Enantioselective Iridium-Catalyzed Allylation of Cyclic
 Ketone Enolates: Synergetic Effect of Ligands and Barium Enolates.
;
_journal_name_full               'Journal of the American Chemical Society'
_journal_page_first              141030073216002
_journal_paper_doi               10.1021/ja506500u
_journal_year                    2014
_chemical_absolute_configuration ad
_chemical_formula_sum            'C19 H18 O3'
_chemical_formula_weight         294.33
_chemical_name_common            S2
_chemical_name_systematic
; 
 S2
;
_space_group.centring_type       P
_space_group_crystal_system      monoclinic
_space_group_IT_number           4
_space_group_name_Hall           'P 2yb'
_space_group_name_H-M_alt        'P 1 21 1'
_symmetry_space_group_name_Hall  'P 2yb'
_symmetry_space_group_name_H-M   'P 1 21 1'
_atom_sites_solution_hydrogens   geom
_atom_sites_solution_primary     iterative
_atom_sites_solution_secondary   difmap
_audit_creation_method           SHELXL-2013
_cell_angle_alpha                90
_cell_angle_beta                 110.0110(10)
_cell_angle_gamma                90
_cell_formula_units_Z            2
_cell_length_a                   10.4253(3)
_cell_length_b                   6.4492(2)
_cell_length_c                   11.5276(4)
_cell_measurement_reflns_used    9777
_cell_measurement_temperature    100(2)
_cell_measurement_theta_max      68.22
_cell_measurement_theta_min      4.08
_cell_volume                     728.26(4)
_computing_cell_refinement       'Bruker SAINT'
_computing_data_collection       'Bruker APEX2'
_computing_data_reduction        'Bruker SAINT'
_computing_molecular_graphics    ORTEP-32
_computing_publication_material  WinGX
_computing_structure_refinement  SHELXL-2013
_computing_structure_solution    SHELXT
_diffrn_ambient_temperature      100(2)
_diffrn_detector_area_resol_mean 8.366
_diffrn_measured_fraction_theta_full 1.000
_diffrn_measured_fraction_theta_max 0.999
_diffrn_measurement_device_type  'Bruker APEX-II CCD'
_diffrn_measurement_method       'phi and omega scans'
_diffrn_radiation_type           CuK\a
_diffrn_radiation_wavelength     1.54178
_diffrn_reflns_av_R_equivalents  0.0183
_diffrn_reflns_av_unetI/netI     0.0104
_diffrn_reflns_Laue_measured_fraction_full 1.000
_diffrn_reflns_Laue_measured_fraction_max 0.999
_diffrn_refln_scan_rate          5
_diffrn_refln_scan_width         2.0
_diffrn_reflns_limit_h_max       11
_diffrn_reflns_limit_h_min       -12
_diffrn_reflns_limit_k_max       7
_diffrn_reflns_limit_k_min       -7
_diffrn_reflns_limit_l_max       13
_diffrn_reflns_limit_l_min       -13
_diffrn_reflns_number            19001
_diffrn_reflns_point_group_measured_fraction_full 0.999
_diffrn_reflns_point_group_measured_fraction_max 0.996
_diffrn_reflns_theta_full        67.000
_diffrn_reflns_theta_max         68.328
_diffrn_reflns_theta_min         4.081
_diffrn_source                   'microfocus rotating anode'
_exptl_absorpt_coefficient_mu    0.723
_exptl_absorpt_correction_T_max  0.929
_exptl_absorpt_correction_T_min  0.837
_exptl_absorpt_correction_type   multi-scan
_exptl_absorpt_process_details   SADABS
_exptl_crystal_colour            colorless
_exptl_crystal_density_diffrn    1.342
_exptl_crystal_description       prism
_exptl_crystal_F_000             312
_exptl_crystal_size_max          0.120
_exptl_crystal_size_mid          0.100
_exptl_crystal_size_min          0.020
_refine_diff_density_max         0.215
_refine_diff_density_min         -0.183
_refine_diff_density_rms         0.037
_refine_ls_abs_structure_details
; 
 Flack x determined using 526 quotients [(I+)-(I-)]/[(I+)+(I-)] 
 (Parsons and Flack (2004), Acta Cryst. A60, s61). 
;
_refine_ls_abs_structure_Flack   -0.03(3)
_refine_ls_extinction_method     none
_refine_ls_goodness_of_fit_ref   1.053
_refine_ls_hydrogen_treatment    constr
_refine_ls_matrix_type           full
_refine_ls_number_parameters     200
_refine_ls_number_reflns         2652
_refine_ls_number_restraints     1
_refine_ls_restrained_S_all      1.053
_refine_ls_R_factor_all          0.0341
_refine_ls_R_factor_gt           0.0337
_refine_ls_shift/su_max          0.000
_refine_ls_shift/su_mean         0.000
_refine_ls_structure_factor_coef Fsqd
_refine_ls_weighting_details
'w=1/[\s^2^(Fo^2^)+(0.0631P)^2^+0.1672P] where P=(Fo^2^+2Fc^2^)/3'
_refine_ls_weighting_scheme      calc
_refine_ls_wR_factor_gt          0.0889
_refine_ls_wR_factor_ref         0.0893
_reflns_Friedel_coverage         0.818
_reflns_Friedel_fraction_full    0.998
_reflns_Friedel_fraction_max     0.993
_reflns_number_gt                2607
_reflns_number_total             2652
_reflns_threshold_expression     'I > 2\s(I)'
_cod_data_source_file            ja506500u_si_003.cif
_cod_data_source_block           S2
_cod_depositor_comments
;
The following automatic conversions were performed:

'_space_group.centring_type' value 'primitive' was replaced with the
value 'P' as specified in the replacement file
'/home/antanas/src/cod-tools/trunk/data/replacement-values/replacement_values.lst'.

Automatic conversion script
Id: cif_fix_values 5642 2017-10-24 12:04:52Z antanas 
;
_cod_database_code               4122878
#BEGIN Tags that were not found in dictionaries:
_shelx_space_group_comment
; 
The symmetry employed for this shelxl refinement is uniquely defined 
by the following loop, which should always be used as a source of 
symmetry information in preference to the above space-group names. 
They are only intended as comments. 
;
_shelx_estimated_absorpt_t_min   0.918
_shelx_estimated_absorpt_t_max   0.986
_shelxl_version_number           2013-4
_shelx_res_file
; 
TITL S2_0m in P2(1) 
CELL  1.54178  10.4253   6.4492  11.5276   90.000  110.011   90.000 
ZERR     2.00   0.0003   0.0002   0.0004    0.000    0.001    0.000 
LATT  -1 
SYMM  - X, 1/2 + Y, - Z 
SFAC  C    H    O 
UNIT  38   36   6 
MERG   2 
FMAP   2 
PLAN   20 
SIZE     0.020   0.100   0.120 
ACTA   134.00 
BOND   $H 
LIST   4 
WPDB  -2 
L.S.   8 
TEMP  -173.00 
WGHT    0.063100    0.167200 
FVAR       0.48691 
C1    1    0.102367    0.366241    0.760981    11.00000    0.01387    0.01518 = 
         0.01401    0.00051    0.00464   -0.00020 
C2    1    0.206286    0.522139    0.842435    11.00000    0.01653    0.01615 = 
         0.01340    0.00090    0.00617    0.00009 
C3    1    0.348330    0.506396    0.840910    11.00000    0.01512    0.01959 = 
         0.01362    0.00202    0.00392    0.00073 
C4    1    0.439294    0.667257    0.894202    11.00000    0.01796    0.02095 = 
         0.01698   -0.00121    0.00653   -0.00036 
AFIX  43 
H4    2    0.411057    0.779006    0.933497    11.00000   -1.20000 
AFIX   0 
C5    1    0.570385    0.664293    0.889920    11.00000    0.01670    0.02696 = 
         0.01831   -0.00026    0.00302   -0.00311 
AFIX  43 
H5    2    0.631558    0.775490    0.923657    11.00000   -1.20000 
AFIX   0 
C6    1    0.611227    0.495800    0.835395    11.00000    0.01320    0.03137 = 
         0.02157    0.00372    0.00693    0.00213 
AFIX  43 
H6    2    0.701477    0.491732    0.833247    11.00000   -1.20000 
AFIX   0 
C7    1    0.522790    0.334728    0.784460    11.00000    0.01845    0.02484 = 
         0.01886    0.00170    0.00740    0.00554 
AFIX  43 
H7    2    0.553210    0.220824    0.748459    11.00000   -1.20000 
AFIX   0 
C8    1    0.388766    0.337043    0.785164    11.00000    0.01666    0.01948 = 
         0.01459    0.00246    0.00480    0.00289 
C9    1    0.291617    0.163275    0.726213    11.00000    0.01861    0.01681 = 
         0.02188   -0.00114    0.00779    0.00433 
AFIX  23 
H9A   2    0.341415    0.029896    0.745697    11.00000   -1.20000 
H9B   2    0.259022    0.181179    0.635454    11.00000   -1.20000 
AFIX   0 
C10   1    0.168398    0.153468    0.769112    11.00000    0.01787    0.01577 = 
         0.01950   -0.00062    0.00714    0.00029 
AFIX  23 
H10A  2    0.100765    0.053958    0.716988    11.00000   -1.20000 
H10B  2    0.197810    0.103408    0.855457    11.00000   -1.20000 
AFIX   0 
C11   1    0.046831    0.644282    0.607536    11.00000    0.02126    0.01893 = 
         0.02325    0.00488    0.00899    0.00171 
AFIX 137 
H11A  2   -0.018945    0.694960    0.644618    11.00000   -1.50000 
H11B  2    0.009523    0.663622    0.517855    11.00000   -1.50000 
H11C  2    0.132380    0.721954    0.641364    11.00000   -1.50000 
AFIX   0 
C12   1   -0.030015    0.366398    0.793528    11.00000    0.01480    0.01538 = 
         0.01642   -0.00022    0.00573    0.00160 
AFIX  13 
H12   2   -0.063311    0.512962    0.784364    11.00000   -1.20000 
AFIX   0 
C13   1   -0.008405    0.304864    0.925613    11.00000    0.01690    0.01866 = 
         0.01899   -0.00237    0.00824   -0.00256 
AFIX  43 
H13   2   -0.086406    0.304527    0.950444    11.00000   -1.20000 
AFIX   0 
C14   1   -0.144616    0.237298    0.704649    11.00000    0.01224    0.02002 = 
         0.01724   -0.00268    0.00738    0.00098 
C15   1   -0.168675    0.034543    0.733652    11.00000    0.01878    0.02124 = 
         0.02158    0.00191    0.00819    0.00073 
AFIX  43 
H15   2   -0.113327   -0.024723    0.809773    11.00000   -1.20000 
AFIX   0 
C16   1   -0.273285   -0.081690    0.651799    11.00000    0.02357    0.02015 = 
         0.03190   -0.00452    0.01395   -0.00527 
AFIX  43 
H16   2   -0.290278   -0.218674    0.673184    11.00000   -1.20000 
AFIX   0 
C17   1   -0.352820    0.001382    0.539219    11.00000    0.01780    0.03370 = 
         0.02549   -0.01145    0.00911   -0.00767 
AFIX  43 
H17   2   -0.422971   -0.079201    0.482789    11.00000   -1.20000 
AFIX   0 
C18   1   -0.329351    0.202517    0.509570    11.00000    0.01650    0.03588 = 
         0.01813   -0.00129    0.00542    0.00011 
AFIX  43 
H18   2   -0.383539    0.260008    0.432496    11.00000   -1.20000 
AFIX   0 
C19   1   -0.227045    0.320486    0.591921    11.00000    0.01664    0.02279 = 
         0.01848    0.00230    0.00767    0.00118 
AFIX  43 
H19   2   -0.212911    0.459274    0.571427    11.00000   -1.20000 
AFIX   0 
O1    3    0.072366    0.429210    0.634871    11.00000    0.01893    0.01612 = 
         0.01467    0.00106    0.00656   -0.00044 
O2    3    0.171960    0.658725    0.898123    11.00000    0.01952    0.02264 = 
         0.02714   -0.00884    0.01193   -0.00290 
O3    3    0.099070    0.256213    1.002153    11.00000    0.01826    0.03265 = 
         0.01689    0.00116    0.00427    0.00167 
HKLF    4 
  
REM  S2_0m in P2(1) 
REM R1 =  0.0337 for    2607 Fo > 4sig(Fo)  and  0.0341 for all    2652 data 
REM    200 parameters refined using      1 restraints 
  
END 
  
WGHT      0.0631      0.1673 
  
REM Highest difference peak  0.215,  deepest hole -0.183,  1-sigma level  0.037 
Q1    1   0.0405  0.3518  0.7787  11.00000  0.05    0.22 
Q2    1   0.1573  0.4368  0.8052  11.00000  0.05    0.21 
Q3    1   0.3617  0.4343  0.8057  11.00000  0.05    0.17 
Q4    1  -0.0935  0.3073  0.7435  11.00000  0.05    0.17 
Q5    1   0.1407  0.2604  0.7745  11.00000  0.05    0.17 
Q6    1   0.3431  0.2547  0.7544  11.00000  0.05    0.16 
Q7    1   0.4011  0.5730  0.8844  11.00000  0.05    0.14 
Q8    1   0.2814  0.5010  0.8354  11.00000  0.05    0.13 
Q9    1  -0.2021  0.2951  0.6626  11.00000  0.05    0.12 
Q10   1  -0.1330  0.1300  0.7128  11.00000  0.05    0.11 
Q11   1   0.0969  0.6606  0.9384  11.00000  0.05    0.11 
Q12   1   0.8393  0.4948  0.9167  11.00000  0.05    0.11 
Q13   1   0.5764  0.6014  0.8412  11.00000  0.05    0.11 
Q14   1  -0.0115  0.3397  0.8520  11.00000  0.05    0.11 
Q15   1   0.2247  0.1586  0.7418  11.00000  0.05    0.11 
Q16   1   0.1620  0.4240  0.6215  11.00000  0.05    0.10 
Q17   1  -0.2546 -0.0048  0.6933  11.00000  0.05    0.10 
Q18   1   0.4689  0.3026  0.8193  11.00000  0.05    0.10 
Q19   1   0.4866  0.6836  0.8573  11.00000  0.05    0.10 
Q20   1   0.5453  0.4423  0.7842  11.00000  0.05    0.10 
;
_shelx_res_checksum              89922
_shelx_hkl_file
; 
  -1   0   0  190.28    2.65 
   1   0   0  185.67    2.64 
   2   0   0    0.96    0.14 
  -2   0   0    1.11    0.14 
   3   0   0    0.90    0.16 
  -3   0   0    0.87    0.20 
   3   0   0    0.85    0.16 
  -3   0   0    0.88    0.16 
   4   0   0  162.77    2.42 
   4   0   0  162.57    1.74 
   4   0   0  159.71    2.21 
  -4   0   0  165.49    2.49 
   5   0   0   16.38    0.36 
   5   0   0   15.74    0.48 
  -6   0   0    4.46    0.15 
   6   0   0    4.52    0.25 
   7   0   0    0.41    0.18 
  -7   0   0    0.34    0.07 
  -7   0   0    0.94    0.26 
   8   0   0    9.60    0.50 
  -8   0   0    9.18    0.56 
  -8   0   0    9.22    0.28 
  -9   0   0    1.89    0.18 
  -9   0   0    1.75    0.44 
  -9   0   0    1.09    0.20 
  -9   0   0    1.73    0.17 
  -9   0   0    2.03    0.39 
 -10   0   0   -0.09    0.10 
 -10   0   0   -0.33    0.21 
 -10   0   0    0.04    0.10 
 -10   0   0    0.11    0.09 
 -10   0   0    0.07    0.30 
 -11   0   0   13.37    0.29 
 -11   0   0   13.49    0.51 
   0  -1   0   -0.02    0.11 
   0   1   0    0.11    0.14 
  -1  -1   0  339.06    4.70 
   1  -1   0  333.33    4.87 
  -1   1   0  369.31    5.35 
   2  -1   0   50.77    0.85 
   2  -1   0   50.38    1.05 
   2  -1   0   49.96    0.91 
  -2   1   0   53.52    1.13 
  -2   1   0   55.00    1.13 
   3  -1   0   44.46    0.84 
   3  -1   0   43.40    0.90 
   3  -1   0   44.12    0.68 
   3  -1   0   43.94    1.04 
  -3   1   0   49.24    1.09 
  -3   1   0   50.09    1.12 
  -3   1   0   47.50    0.86 
   4  -1   0  110.26    1.74 
   4  -1   0  108.95    1.41 
   4  -1   0  109.25    1.89 
  -4   1   0  114.61    2.12 
  -4   1   0  115.16    1.83 
  -4   1   0  114.92    1.74 
  -4   1   0  114.72    2.11 
   5  -1   0   33.62    0.70 
   5  -1   0   33.90    0.93 
   5  -1   0   34.79    0.90 
  -5   1   0   33.20    0.95 
  -5   1   0   32.87    0.88 
  -5   1   0   33.71    0.63 
   6  -1   0   33.20    0.94 
   6  -1   0   32.04    0.96 
   6  -1   0   32.63    0.77 
   6   1   0   34.91    0.50 
  -6   1   0   33.03    0.89 
  -6   1   0   36.50    0.65 
  -7  -1   0  145.10    2.35 
   7  -1   0  148.83    2.20 
   7   1   0  139.84    1.69 
  -7   1   0  140.49    1.65 
  -7   1   0  140.73    2.28 
  -8  -1   0   18.69    0.70 
  -8  -1   0   20.35    0.34 
  -8   1   0   21.06    0.37 
  -8   1   0   20.88    0.79 
  -9  -1   0   49.96    1.09 
  -9  -1   0   49.81    0.47 
  -9  -1   0   48.40    0.95 
  -9  -1   0   50.02    0.58 
  -9  -1   0   52.50    1.20 
  -9  -1   0   49.49    0.61 
  -9   1   0   53.23    1.27 
  -9   1   0   52.41    0.80 
  -9   1   0   52.88    1.17 
  -9   1   0   52.85    0.92 
  -9   1   0   52.72    0.89 
 -10  -1   0   28.96    0.87 
 -10  -1   0   28.62    0.30 
 -10  -1   0   28.78    0.66 
 -10  -1   0   28.42    0.45 
 -10  -1   0   28.72    0.79 
 -10   1   0   27.80    0.56 
 -10   1   0   29.33    0.82 
 -10   1   0   28.90    0.51 
 -10   1   0   27.97    0.87 
 -11  -1   0   23.66    0.64 
 -11  -1   0   23.79    0.25 
 -11   1   0   22.26    0.37 
 -11   1   0   22.25    0.60 
 -11   1   0   22.95    0.43 
   0  -2   0   93.30    1.69 
   0  -2   0   96.41    1.74 
   0   2   0  105.69    1.92 
   0   2   0  108.47    1.26 
   0   2   0  108.34    1.60 
   0   2   0  104.93    1.73 
   1  -2   0   53.08    1.17 
   1  -2   0   50.94    0.94 
   1  -2   0   52.47    1.05 
   1  -2   0   53.84    1.18 
  -1  -2   0   54.51    1.05 
   1  -2   0   53.29    0.96 
  -1  -2   0   50.61    1.02 
  -1   2   0   58.01    1.08 
  -1   2   0   56.41    1.31 
  -1   2   0   59.12    1.18 
   1   2   0   60.95    0.72 
   1   2   0   61.42    0.98 
  -1   2   0   61.71    1.33 
   1   2   0   59.76    1.06 
   2  -2   0  174.74    2.67 
   2  -2   0  171.62    3.06 
   2  -2   0  178.56    3.01 
   2  -2   0  175.67    2.74 
   2  -2   0  173.43    2.52 
  -2   2   0  186.16    2.64 
  -2   2   0  183.92    3.30 
   2   2   0  185.42    2.38 
   2   2   0  183.94    2.58 
  -2   2   0  179.50    2.82 
  -2   2   0  185.92    2.88 
  -2   2   0  184.44    3.15 
   3  -2   0  110.64    1.99 
   3  -2   0  109.28    2.21 
   3  -2   0  114.48    1.82 
   3  -2   0  110.78    2.20 
  -3   2   0  125.57    2.19 
  -3   2   0  119.85    2.37 
  -3   2   0  120.14    2.38 
  -3   2   0  119.78    1.95 
  -3   2   0  121.26    1.99 
   4  -2   0   23.74    0.75 
   4  -2   0   24.33    0.73 
  -4   2   0   29.52    1.04 
  -4   2   0   29.91    0.72 
  -4   2   0   28.07    0.69 
  -4   2   0   27.36    0.96 
  -4   2   0   27.69    0.84 
   5  -2   0   36.57    1.06 
   5  -2   0   35.10    0.99 
  -5   2   0   37.10    1.00 
  -5   2   0   37.05    0.84 
  -5   2   0   36.90    1.14 
  -5   2   0   37.42    0.85 
  -5   2   0   38.00    0.83 
   6  -2   0   57.30    1.44 
  -6  -2   0   58.83    1.19 
   6  -2   0   57.79    1.53 
  -6   2   0   58.60    1.53 
  -6   2   0   58.59    1.28 
  -6   2   0   58.62    1.26 
  -6   2   0   59.03    1.28 
  -6   2   0   58.99    1.12 
  -6   2   0   59.55    1.34 
  -6   2   0   60.59    1.04 
  -7  -2   0   95.98    0.84 
   7  -2   0   94.01    1.69 
  -7  -2   0   97.94    1.74 
   7  -2   0   97.61    2.30 
  -7  -2   0   96.45    0.84 
   7  -2   0   95.46    1.64 
  -7   2   0  104.38    1.91 
  -7   2   0  103.49    1.96 
  -7   2   0  107.35    2.02 
   8  -2   0   75.66    1.41 
  -8  -2   0   76.93    1.49 
   8  -2   0   77.66    1.48 
  -8   2   0   84.91    1.68 
  -8   2   0   83.62    1.20 
  -8   2   0   80.79    1.69 
   9  -2   0   14.69    0.61 
  -9  -2   0   14.39    0.58 
  -9  -2   0   13.84    0.16 
   9  -2   0   14.36    0.57 
  -9  -2   0   13.89    0.51 
  -9   2   0   15.25    0.64 
  -9   2   0   16.17    0.50 
  -9   2   0   15.93    0.48 
  -9   2   0   15.62    0.31 
  -9   2   0   15.81    0.32 
  -9   2   0   15.72    0.32 
  -9   2   0   16.08    0.73 
  -9   2   0   15.98    0.37 
  -9   2   0   15.82    0.46 
  -9   2   0   15.81    0.31 
 -10  -2   0   17.27    0.17 
  10  -2   0   17.20    0.64 
  10  -2   0   16.50    0.60 
 -10  -2   0   17.42    0.59 
 -10   2   0   19.53    0.50 
 -10   2   0   19.29    0.64 
 -10   2   0   18.87    0.43 
 -10   2   0   18.82    0.49 
 -10   2   0   19.52    0.47 
 -10   2   0   19.71    0.48 
 -10   2   0   19.00    0.43 
 -10   2   0   19.63    0.74 
 -10   2   0   19.24    0.47 
 -11   2   0    3.50    0.19 
 -11   2   0    3.73    0.31 
 -11   2   0    3.43    0.20 
 -11   2   0    3.85    0.20 
   0  -3   0    0.01    0.11 
   0  -3   0   -0.12    0.26 
   0  -3   0    0.08    0.24 
   0   3   0    0.15    0.22 
   0   3   0   -0.21    0.18 
   0   3   0    0.22    0.14 
  -1  -3   0   57.57    1.30 
   1  -3   0   58.52    1.32 
   1  -3   0   59.65    1.11 
  -1  -3   0   58.05    1.33 
   1  -3   0   58.09    1.47 
   1  -3   0   58.80    1.44 
  -1  -3   0   56.81    0.93 
   1   3   0   66.78    1.30 
  -1   3   0   63.94    1.43 
  -1   3   0   68.33    1.32 
   1   3   0   65.85    0.92 
   1   3   0   65.94    1.20 
   2  -3   0    0.35    0.14 
   2  -3   0    0.29    0.15 
   2  -3   0    0.14    0.29 
   2  -3   0    0.40    0.20 
   2  -3   0    0.20    0.27 
   2  -3   0    0.50    0.27 
   2   3   0    0.31    0.12 
   2   3   0    0.22    0.15 
  -2   3   0    0.26    0.23 
  -2   3   0    0.39    0.28 
  -2   3   0    0.23    0.24 
   3  -3   0   70.34    1.46 
   3  -3   0   67.11    1.54 
   3  -3   0   66.36    1.30 
   3  -3   0   68.00    1.61 
   3  -3   0   68.21    1.82 
   3  -3   0   68.98    1.75 
   3   3   0   80.11    0.94 
  -3   3   0   75.76    1.71 
  -3   3   0   78.62    1.62 
  -3   3   0   77.59    1.51 
  -3   3   0   79.23    1.78 
  -3   3   0   77.51    1.95 
  -3   3   0   76.96    1.99 
  -3   3   0   80.14    1.41 
   4  -3   0    7.40    0.45 
   4  -3   0    7.77    0.56 
   4  -3   0    7.88    0.57 
  -4   3   0    8.11    0.65 
  -4   3   0    9.09    0.50 
  -4   3   0    8.37    0.49 
  -4   3   0    7.54    0.40 
  -4   3   0    6.85    0.41 
  -4   3   0    7.82    0.60 
   5  -3   0    6.74    0.58 
   5  -3   0    7.58    0.60 
  -5  -3   0    7.36    0.17 
   5  -3   0    7.23    0.49 
   5  -3   0    7.40    0.56 
  -5   3   0    7.38    0.56 
  -5   3   0    7.98    0.54 
  -5   3   0    7.94    0.48 
  -5   3   0    7.90    0.47 
  -5   3   0    9.28    0.49 
  -5   3   0    8.08    0.70 
  -5   3   0    7.27    0.56 
   6  -3   0   11.06    0.61 
   6  -3   0   10.52    0.76 
   6  -3   0   11.02    0.51 
   6  -3   0   11.02    0.49 
  -6   3   0   11.98    0.78 
  -6   3   0   11.63    0.64 
  -6   3   0   11.82    0.52 
  -6   3   0   11.96    0.66 
  -6   3   0   12.37    0.64 
  -6   3   0   11.85    0.65 
  -6   3   0   11.25    0.51 
  -6   3   0   11.60    0.52 
   7  -3   0   28.23    0.79 
   7  -3   0   26.46    1.00 
   7  -3   0   27.07    0.84 
  -7   3   0   29.54    0.98 
  -7   3   0   29.32    0.72 
  -7   3   0   28.86    0.93 
  -7   3   0   30.30    0.96 
   8  -3   0    6.54    0.60 
   8  -3   0    7.15    0.50 
   8  -3   0    7.18    0.54 
  -8   3   0    7.19    0.34 
  -8   3   0    7.88    0.42 
  -8   3   0    7.57    0.30 
  -8   3   0    7.36    0.34 
  -8   3   0    7.90    0.62 
  -8   3   0    8.05    0.63 
  -8   3   0    6.34    0.50 
  -8   3   0    7.55    0.44 
  -8   3   0    7.17    0.42 
  -8   3   0    7.55    0.39 
   9  -3   0    5.20    0.47 
   9  -3   0    4.71    0.41 
  -9   3   0    6.12    0.51 
  -9   3   0    5.88    0.28 
  -9   3   0    6.29    0.35 
  -9   3   0    5.37    0.34 
  -9   3   0    5.52    0.30 
  -9   3   0    5.64    0.26 
  -9   3   0    6.11    0.36 
  -9   3   0    5.56    0.31 
  10  -3   0    1.85    0.38 
 -10   3   0    1.81    0.31 
 -10   3   0    1.48    0.19 
 -10   3   0    1.75    0.22 
 -10   3   0    1.80    0.24 
 -10   3   0    1.69    0.23 
   0  -4   0   33.34    1.15 
   0  -4   0   34.87    0.73 
   0  -4   0   34.50    1.01 
   0  -4   0   35.35    0.72 
   0   4   0   41.73    1.07 
   0   4   0   40.78    1.15 
   0   4   0   39.66    0.80 
   1  -4   0    6.66    0.57 
  -1  -4   0    7.40    0.36 
   1  -4   0    7.33    0.36 
   1  -4   0    7.86    0.67 
  -1   4   0    8.00    0.56 
  -1   4   0    7.65    0.49 
  -1   4   0    7.68    0.45 
   1   4   0    7.92    0.47 
   1   4   0    7.44    0.48 
   1   4   0    7.69    0.33 
   2  -4   0   30.57    0.79 
   2  -4   0   32.61    1.08 
   2  -4   0   33.15    1.25 
  -2  -4   0   30.55    0.55 
  -2   4   0   37.69    1.21 
   2   4   0   37.69    0.71 
  -2   4   0   36.61    1.02 
  -2   4   0   38.94    1.13 
  -2   4   0   37.33    0.99 
   3  -4   0    4.51    0.63 
   3  -4   0    4.03    0.56 
   3  -4   0    4.37    0.57 
   3  -4   0    4.22    0.62 
  -3  -4   0    4.31    0.25 
   3  -4   0    3.89    0.53 
   3  -4   0    4.38    0.34 
   3  -4   0    4.96    0.48 
   3   4   0    4.98    0.27 
  -3   4   0    4.93    0.41 
  -3   4   0    4.49    0.49 
  -3   4   0    4.43    0.51 
  -3   4   0    4.99    0.56 
  -3   4   0    4.71    0.47 
  -3   4   0    4.27    0.53 
   4  -4   0   62.56    1.75 
   4  -4   0   62.05    1.57 
  -4  -4   0   62.06    0.79 
   4  -4   0   61.95    2.04 
   4  -4   0   60.63    1.42 
  -4   4   0   73.97    1.89 
  -4   4   0   75.10    1.50 
   4   4   0   73.90    1.04 
  -4   4   0   73.05    1.59 
  -4   4   0   73.35    1.64 
  -4   4   0   74.78    2.20 
   5  -4   0   24.18    0.70 
   5  -4   0   23.40    0.88 
   5  -4   0   23.15    0.75 
   5  -4   0   24.01    1.18 
  -5  -4   0   23.57    0.41 
   5  -4   0   23.22    1.01 
  -5   4   0   24.84    0.85 
  -5   4   0   25.54    0.86 
  -5   4   0   25.15    0.89 
  -5   4   0   26.01    0.88 
  -5   4   0   26.81    1.08 
  -5   4   0   26.09    0.97 
   5   4   0   25.70    0.49 
   6  -4   0   11.76    0.58 
   6  -4   0   13.10    0.76 
   6  -4   0   11.54    0.85 
   6  -4   0   12.88    0.56 
  -6   4   0   13.91    0.77 
  -6   4   0   13.04    0.53 
  -6   4   0   14.08    0.80 
  -6   4   0   14.64    0.65 
  -6   4   0   13.79    0.77 
  -6   4   0   13.44    0.65 
  -6   4   0   14.16    0.78 
   7  -4   0   31.10    1.16 
  -7  -4   0   31.66    0.28 
   7  -4   0   31.59    1.08 
   7  -4   0   31.70    0.70 
   7  -4   0   32.76    1.30 
   7  -4   0   31.09    0.91 
  -7  -4   0   31.76    0.27 
   7  -4   0   31.82    0.85 
  -7   4   0   36.04    0.71 
  -7   4   0   35.81    0.72 
  -7   4   0   35.78    0.88 
  -7   4   0   36.72    1.16 
  -7   4   0   37.02    1.12 
  -7   4   0   37.05    1.13 
  -7   4   0   36.61    0.88 
  -7   4   0   36.11    0.91 
  -7   4   0   36.87    0.78 
  -7   4   0   36.12    0.87 
   8  -4   0   62.64    1.78 
   8  -4   0   63.67    1.31 
   8  -4   0   62.33    1.48 
   8  -4   0   63.18    1.00 
   8  -4   0   63.63    1.28 
  -8   4   0   71.42    1.30 
  -8   4   0   72.35    1.12 
  -8   4   0   71.78    1.54 
  -8   4   0   72.11    1.05 
  -8   4   0   69.98    1.28 
  -8   4   0   72.58    0.98 
  -8   4   0   71.68    0.99 
  -8   4   0   72.18    1.35 
  -8   4   0   71.91    1.54 
  -8   4   0   73.44    1.31 
   9  -4   0   17.61    0.64 
   9  -4   0   18.66    0.73 
   9  -4   0   19.02    0.47 
  -9   4   0   19.88    0.51 
  -9   4   0   19.85    0.39 
  -9   4   0   19.61    0.42 
  -9   4   0   19.18    0.55 
  -9   4   0   19.47    0.46 
  -9   4   0   19.52    0.53 
  -9   4   0   19.81    0.52 
  -9   4   0   19.49    0.45 
  10  -4   0   13.07    0.35 
 -10   4   0   15.02    0.35 
 -10   4   0   14.49    0.43 
 -10   4   0   14.24    0.39 
 -10   4   0   14.26    0.36 
   0  -5   0    0.03    0.18 
   0  -5   0   -0.16    0.38 
   0  -5   0   -0.13    0.34 
   0   5   0   -0.14    0.17 
   0   5   0    0.20    0.19 
   0   5   0    0.11    0.27 
  -1  -5   0    3.78    0.32 
   1  -5   0    4.41    0.37 
   1  -5   0    4.48    0.65 
  -1  -5   0    5.07    0.32 
   1  -5   0    4.62    0.33 
   1  -5   0    3.56    0.63 
   1  -5   0    4.30    0.33 
   1  -5   0    3.81    0.61 
  -1   5   0    5.19    0.32 
  -1   5   0    5.12    0.33 
  -1   5   0    6.87    0.55 
   2  -5   0   13.45    0.80 
  -2  -5   0   13.54    0.48 
   2  -5   0   14.35    0.58 
  -2  -5   0   14.06    0.36 
   2  -5   0   13.79    0.62 
   2  -5   0   14.07    0.89 
   2  -5   0   13.66    0.87 
  -2   5   0   16.12    0.51 
  -2   5   0   15.01    0.81 
  -2   5   0   16.41    0.53 
  -2   5   0   16.79    0.71 
   2   5   0   15.75    0.55 
   3  -5   0    7.99    0.48 
   3  -5   0    8.49    0.78 
   3  -5   0    7.97    0.81 
  -3  -5   0    8.88    0.39 
  -3  -5   0    8.69    0.40 
   3  -5   0    8.09    0.76 
  -3   5   0    9.14    0.39 
  -3   5   0    9.95    0.72 
  -3   5   0    9.04    0.56 
  -3   5   0    9.58    0.63 
  -3   5   0    9.34    0.37 
   4  -5   0   28.23    1.27 
   4  -5   0   26.62    0.89 
   4  -5   0   27.72    1.26 
   4  -5   0   28.34    0.92 
   4  -5   0   27.11    1.19 
  -4  -5   0   27.68    0.57 
  -4   5   0   31.38    0.77 
  -4   5   0   32.75    1.06 
  -4   5   0   29.92    0.91 
  -4   5   0   32.02    1.24 
  -4   5   0   31.49    1.05 
   5  -5   0   90.26    1.91 
   5  -5   0   87.57    1.76 
  -5  -5   0   87.15    1.00 
   5  -5   0   86.84    1.20 
   5  -5   0   77.57    3.40 
  -5  -5   0   87.57    1.01 
   5  -5   0   90.34    1.71 
  -5  -5   0   87.73    1.22 
  -5  -5   0   87.31    0.76 
   5  -5   0   90.35    2.09 
   5  -5   0   88.79    2.40 
  -5   5   0   96.74    1.87 
  -5   5   0   97.37    1.72 
  -5   5   0   96.67    2.26 
  -5   5   0   94.46    1.92 
  -5   5   0   95.98    1.84 
  -5   5   0   99.05    1.65 
  -5   5   0   89.80    3.48 
   6  -5   0    4.27    0.99 
   6  -5   0    3.59    0.60 
   6  -5   0    3.42    0.53 
   6  -5   0    3.20    0.67 
  -6  -5   0    3.92    0.10 
   6  -5   0    4.31    0.29 
  -6   5   0    5.53    0.85 
  -6   5   0    4.53    0.60 
  -6   5   0    4.03    0.36 
  -6   5   0    4.39    0.56 
  -6   5   0    5.03    0.56 
  -6   5   0    5.11    0.63 
  -6   5   0    4.71    0.55 
   7  -5   0   24.69    1.53 
   7  -5   0   21.36    0.87 
   7  -5   0   21.11    0.90 
  -7  -5   0   22.15    0.22 
   7  -5   0   21.17    1.04 
   7  -5   0   21.96    0.50 
  -7   5   0   23.85    0.64 
  -7   5   0   22.68    0.67 
  -7   5   0   23.08    0.68 
  -7   5   0   21.83    0.80 
  -7   5   0   22.86    0.57 
  -7   5   0   23.19    0.89 
  -7   5   0   22.91    0.55 
   8  -5   0    9.67    0.59 
   8  -5   0    9.01    0.67 
   8  -5   0    9.87    0.58 
   8  -5   0    9.47    0.29 
  -8   5   0   11.95    0.33 
  -8   5   0   12.57    0.46 
  -8   5   0   11.91    0.43 
  -8   5   0   11.28    0.40 
   9  -5   0    4.29    0.36 
  -9   5   0    5.03    0.32 
  -9   5   0    4.94    0.23 
  -9   5   0    5.67    0.21 
  -9   5   0    5.21    0.19 
  -9   5   0    5.03    0.24 
   0  -6   0  118.89    1.66 
   0  -6   0  116.52    1.93 
   0  -6   0  115.04    1.95 
   0  -6   0  118.79    1.91 
   0  -6   0  117.81    1.70 
   0  -6   0  118.16    1.34 
   0  -6   0  119.40    1.66 
   0  -6   0  118.38    1.98 
   0  -6   0  121.16    1.84 
   0  -6   0  119.21    1.46 
   0   6   0  143.67    2.15 
   0   6   0  144.79    2.16 
   1  -6   0   27.64    0.74 
   1  -6   0   28.54    0.80 
   1  -6   0   27.91    0.40 
  -1  -6   0   29.30    0.76 
   1  -6   0   28.34    0.52 
   1  -6   0   28.41    1.19 
   1  -6   0   29.18    0.80 
   1  -6   0   27.95    0.77 
  -1  -6   0   28.92    0.73 
  -1  -6   0   28.77    0.41 
   1  -6   0   29.13    0.78 
  -1  -6   0   29.29    0.51 
  -1  -6   0   28.43    0.59 
  -1  -6   0   27.11    0.69 
   1  -6   0   29.60    1.22 
  -1  -6   0   29.07    0.69 
  -1  -6   0   28.52    0.51 
  -1  -6   0   29.21    0.46 
   1  -6   0   28.06    0.81 
   1  -6   0   28.84    0.58 
   1  -6   0   27.85    0.83 
   1  -6   0   29.33    0.67 
  -1  -6   0   29.04    0.74 
  -1   6   0   33.64    0.77 
  -1   6   0   33.60    1.04 
   1   6   0   32.92    0.75 
   1   6   0   34.45    0.77 
  -1   6   0   34.21    0.77 
  -2  -6   0    2.18    0.27 
   2  -6   0    1.21    0.28 
   2  -6   0    1.87    0.24 
   2  -6   0    1.73    0.26 
   2  -6   0    2.47    0.38 
   2  -6   0    1.73    0.33 
  -2  -6   0    2.01    0.29 
   2  -6   0    1.53    0.39 
  -2  -6   0    2.09    0.27 
   2  -6   0    3.19    0.65 
  -2  -6   0    2.10    0.30 
   2  -6   0    2.22    0.42 
  -2  -6   0    1.94    0.25 
   2  -6   0    1.98    0.36 
   2  -6   0    1.56    0.30 
   2  -6   0    1.15    0.47 
  -2   6   0    2.54    0.29 
  -2   6   0    2.26    0.28 
  -2   6   0    2.90    0.52 
  -2   6   0    2.46    0.63 
  -2   6   0    2.60    0.51 
  -2   6   0    2.55    0.32 
   3  -6   0    1.53    0.38 
   3  -6   0    1.09    0.23 
  -3  -6   0    1.22    0.25 
   3  -6   0    1.15    0.32 
   3  -6   0    1.05    0.19 
   3  -6   0    1.13    0.24 
   3  -6   0    1.53    0.32 
  -3  -6   0    1.04    0.22 
   3  -6   0    1.08    0.33 
  -3  -6   0    0.52    0.16 
   3  -6   0    1.44    0.37 
   3  -6   0    1.06    0.52 
   3  -6   0    1.41    0.33 
   3  -6   0    1.20    0.55 
  -3   6   0    1.34    0.22 
  -3   6   0    1.91    0.28 
  -3   6   0    1.67    0.35 
  -3   6   0    1.31    0.26 
  -3   6   0    0.66    0.33 
   4  -6   0    4.77    0.46 
   4  -6   0    4.15    0.49 
   4  -6   0    4.81    0.48 
   4  -6   0    4.62    0.83 
  -4  -6   0    4.42    0.28 
  -4  -6   0    4.39    0.26 
   4  -6   0    4.29    0.50 
  -4  -6   0    4.62    0.20 
   4  -6   0    3.62    0.76 
  -4   6   0    5.38    0.57 
  -4   6   0    4.24    0.49 
  -4   6   0    5.46    0.49 
  -4   6   0    5.29    0.27 
  -4   6   0    6.92    0.83 
  -5  -6   0   44.36    0.69 
   5  -6   0   43.31    1.05 
   5  -6   0   43.55    1.10 
  -5  -6   0   43.16    0.56 
   5  -6   0   43.03    1.58 
   5  -6   0   41.78    1.50 
  -5   6   0   59.80    2.67 
  -5   6   0   55.67    1.35 
  -5   6   0   55.77    1.17 
  -5   6   0   59.80    2.52 
   6  -6   0   14.76    0.58 
  -6  -6   0   14.87    0.17 
  -6   6   0   18.65    0.62 
   7  -6   0    0.36    0.19 
  -7   6   0    0.13    0.14 
  -7   6   0    0.18    0.12 
  -7   6   0    0.25    0.13 
   0  -7   0    0.06    0.17 
   0  -7   0   -0.02    0.05 
   0  -7   0    0.00    0.24 
   0  -7   0   -0.07    0.17 
   0  -7   0   -0.07    0.20 
   0  -7   0    0.01    0.17 
   0   7   0    0.07    0.16 
   0   7   0   -0.17    0.16 
   1  -7   0    7.68    0.39 
   1  -7   0    7.86    0.27 
   1  -7   0    7.90    0.53 
  -1  -7   0    7.55    0.29 
  -1  -7   0    7.55    0.37 
   1  -7   0    8.02    0.38 
  -1  -7   0    6.85    0.33 
   1  -7   0    7.62    0.20 
   1  -7   0    7.46    0.24 
   1  -7   0    7.54    0.39 
   1  -7   0    7.63    0.22 
   1  -7   0    6.40    0.38 
  -1  -7   0    7.82    0.33 
  -1  -7   0    7.45    0.42 
   1  -7   0    7.93    0.39 
  -1  -7   0    8.31    0.34 
   1   7   0    9.91    0.39 
  -1   7   0    9.66    0.38 
  -1   7   0    9.87    0.38 
  -1   7   0    9.48    0.37 
   1   7   0    9.87    0.37 
   2  -7   0    6.31    0.27 
   2  -7   0    6.17    0.44 
   2  -7   0    6.48    0.48 
  -2  -7   0    7.37    0.31 
   2  -7   0    6.16    0.34 
  -2  -7   0    6.39    0.38 
   2  -7   0    5.89    0.27 
   2  -7   0    6.62    0.40 
   2  -7   0    7.05    0.40 
  -2  -7   0    6.41    0.26 
   2  -7   0    6.27    0.24 
   2  -7   0    5.76    0.46 
  -2   7   0    5.85    0.33 
  -2   7   0    7.42    0.32 
  -2   7   0    7.84    0.34 
  -2   7   0    7.39    0.45 
   3  -7   0    0.57    0.20 
   3  -7   0    0.45    0.24 
   3  -7   0    0.61    0.15 
   3  -7   0    0.61    0.19 
   3  -7   0    0.24    0.14 
  -3  -7   0    0.58    0.11 
   3  -7   0    0.19    0.23 
  -3  -7   0    0.47    0.13 
   3  -7   0    0.59    0.10 
   3  -7   0    0.29    0.26 
  -3   7   0    0.52    0.24 
  -3   7   0    0.21    0.12 
  -3   7   0    0.77    0.46 
   4  -7   0    4.04    0.26 
   4  -7   0    4.03    0.19 
   4  -7   0    4.19    0.41 
   4  -7   0    3.74    0.23 
  -4  -7   0    3.74    0.18 
   4  -7   0    3.82    0.33 
   4  -7   0    3.23    0.34 
  -4   7   0    3.45    0.73 
  -4   7   0    2.77    0.55 
  -4   7   0    5.07    0.39 
  -4   7   0    4.66    0.34 
   5  -7   0    4.99    0.19 
  -5   7   0    5.36    0.32 
 -12   0   1    1.50    0.23 
 -11   0   1   29.50    0.49 
 -11   0   1   29.31    0.38 
 -11   0   1   27.23    0.68 
 -11   0   1   29.10    0.75 
 -10   0   1   58.96    0.77 
 -10   0   1   57.97    1.20 
 -10   0   1   60.90    1.34 
 -10   0   1   58.25    1.03 
 -10   0   1   58.06    0.73 
 -10   0   1   58.96    0.89 
  -9   0   1   88.33    1.76 
  -9   0   1   86.47    1.00 
  -9   0   1   85.64    1.16 
  -8   0   1   17.89    0.72 
   8   0  -1   15.69    0.59 
  -8   0   1   16.80    0.36 
  -7   0   1   37.69    0.93 
  -7   0   1   37.90    0.54 
   7   0  -1   37.80    0.80 
  -6   0   1   13.31    0.26 
   6   0  -1   13.92    0.41 
   5   0  -1  144.42    1.66 
   5   0  -1  142.87    2.09 
   5   0  -1  143.06    2.29 
  -4   0   1  140.85    2.15 
  -4   0   1  136.28    2.18 
   4   0  -1  135.35    1.50 
   4   0  -1  135.55    2.09 
   4   0  -1  139.32    1.95 
   3   0  -1  311.59    4.31 
  -3   0   1  310.84    4.76 
   3   0  -1  308.57    3.94 
  -3   0   1  321.55    4.49 
  -2   0   1   56.37    0.93 
   2   0  -1   56.37    1.06 
   1   0  -1  104.78    1.66 
  -1   0   1  104.74    1.55 
   0   0   1   66.83    1.03 
   0   0  -1   66.24    1.19 
   1   0   1   55.62    0.90 
  -1   0  -1   54.99    1.03 
   2   0   1  320.65    3.97 
   2   0   1  319.53    4.59 
  -2   0  -1  321.30    4.68 
  -3   0  -1   61.98    1.13 
   3   0   1   62.59    1.05 
   3   0   1   63.19    0.74 
   3   0   1   63.29    0.97 
  -3   0  -1   63.72    1.18 
   4   0   1    0.85    0.13 
   4   0   1    0.36    0.14 
   4   0   1    0.54    0.14 
   5   0   1    9.86    0.40 
   5   0   1    9.87    0.31 
   6   0   1    6.74    0.32 
  -6   0  -1    6.74    0.17 
  -7   0  -1   22.02    0.43 
   7   0   1   21.49    0.63 
  -7   0  -1   22.45    0.74 
  -8   0  -1   11.09    0.33 
  -8   0  -1   11.09    0.64 
  -9   0  -1   21.68    0.43 
  -9   0  -1   22.30    0.41 
  -9   0  -1   22.38    0.50 
  -9   0  -1   23.38    0.76 
  -9   0  -1   22.06    0.47 
  -9   0  -1   21.96    0.81 
 -10   0  -1    3.24    0.41 
 -10   0  -1    3.63    0.17 
 -10   0  -1    3.75    0.21 
 -10   0  -1    3.46    0.41 
 -10   0  -1    3.56    0.17 
 -11   0  -1    8.60    0.38 
 -11   0  -1    8.49    0.20 
 -11  -1   1    0.71    0.06 
 -11  -1   1    1.58    0.33 
 -11  -1   1    1.27    0.26 
 -11   1   1    0.71    0.16 
 -11   1   1    0.69    0.20 
 -11   1   1    0.85    0.17 
 -10  -1   1   38.71    0.96 
 -10  -1   1   38.57    0.81 
 -10  -1   1   38.05    0.38 
 -10  -1   1   37.76    1.01 
 -10  -1   1   37.17    0.42 
 -10   1   1   37.89    1.04 
 -10   1   1   38.94    0.63 
 -10   1   1   38.78    0.71 
 -10   1   1   37.68    0.93 
  -9  -1   1    6.53    0.51 
  -9  -1   1    6.63    0.18 
  -9  -1   1    6.64    0.19 
  -9  -1   1    5.81    0.49 
  -9  -1   1    6.67    0.44 
  -9  -1   1    6.57    0.24 
  -9  -1   1    6.58    0.13 
  -9   1   1    6.39    0.34 
  -9   1   1    7.32    0.56 
  -9   1   1    7.00    0.16 
  -9   1   1    7.00    0.33 
  -9   1   1    7.83    0.34 
  -9   1   1    7.06    0.50 
   8  -1  -1    3.53    0.50 
  -8  -1   1    3.79    0.16 
  -8  -1   1    3.66    0.40 
   8   1  -1    3.47    0.33 
  -8   1   1    3.51    0.41 
  -8   1   1    3.71    0.20 
   7  -1  -1   68.77    1.70 
   7  -1  -1   70.11    1.32 
   7  -1  -1   71.35    1.63 
  -7  -1   1   70.97    1.37 
  -7  -1   1   69.77    0.75 
  -7   1   1   72.56    1.44 
   7   1  -1   72.73    1.02 
  -7   1   1   72.85    1.00 
  -7   1   1   73.27    1.46 
   6  -1  -1   44.62    0.93 
   6  -1  -1   45.84    1.14 
   6  -1  -1   47.91    1.20 
  -6   1   1   44.17    1.04 
  -6   1   1   45.10    1.01 
  -6   1   1   44.79    0.71 
   6   1  -1   44.91    0.58 
   5  -1  -1   32.50    0.82 
   5  -1  -1   32.88    0.72 
   5  -1  -1   32.17    0.90 
  -5   1   1   31.22    0.72 
  -5   1   1   32.57    0.91 
  -5   1   1   32.42    0.59 
  -5   1   1   31.78    0.63 
  -5   1   1   32.59    0.86 
   4  -1  -1  171.00    2.50 
   4  -1  -1  168.34    2.05 
   4  -1  -1  170.22    2.68 
  -4   1   1  175.11    2.68 
  -4   1   1  173.71    2.90 
  -4   1   1  172.79    2.55 
  -4   1   1  172.41    2.98 
   3  -1  -1   20.53    0.46 
   3  -1  -1   19.84    0.55 
   3  -1  -1   20.17    0.58 
   3  -1  -1   21.09    0.70 
  -3   1   1   21.69    0.61 
  -3   1   1   20.63    0.55 
  -3   1   1   21.66    0.65 
  -3   1   1   20.90    0.51 
  -2  -1   1  429.31    6.04 
  -2  -1   1  433.73    5.97 
   2  -1  -1  429.06    5.93 
   2  -1  -1  429.36    5.44 
   2  -1  -1  443.32    6.36 
  -2   1   1  473.82    5.95 
  -2   1   1  481.71    6.89 
  -1  -1   1  219.92    3.16 
   1  -1  -1  222.60    3.37 
  -1   1   1  222.66    3.35 
   1   1  -1  226.51    3.39 
   0  -1  -1  893.54   12.28 
   0  -1   1  864.24   12.17 
   0   1   1  948.56   13.01 
   0   1  -1  934.21   13.21 
   1  -1   1    9.65    0.34 
  -1  -1  -1    8.68    0.39 
   1  -1   1    9.02    0.30 
   1   1   1   10.40    0.30 
  -1   1  -1   10.23    0.39 
  -1   1  -1   10.46    0.51 
   2  -1   1  104.41    1.82 
   2  -1   1  101.39    1.50 
   2  -1   1  101.53    1.64 
  -2   1  -1  105.69    2.00 
  -2   1  -1  105.72    1.96 
  -2   1  -1  108.86    1.64 
   2   1   1  105.33    1.36 
   3  -1   1  213.38    3.19 
   3  -1   1  214.96    2.92 
   3  -1   1  216.04    2.39 
  -3   1  -1  231.19    3.35 
  -3   1  -1  239.90    3.93 
  -3   1  -1  228.84    3.77 
   4  -1   1   79.14    1.12 
   4  -1   1   77.98    1.37 
   4  -1   1   78.38    1.50 
  -4   1  -1   82.73    1.69 
  -4   1  -1   81.42    1.29 
  -4   1  -1   82.12    1.71 
  -4   1  -1   80.92    1.35 
   5  -1   1   52.06    1.22 
   5  -1   1   52.12    1.13 
   5  -1   1   51.86    0.94 
   5   1   1   51.34    0.60 
  -5   1  -1   51.22    0.88 
  -5   1  -1   50.88    1.21 
  -5   1  -1   51.30    1.30 
   6  -1   1   19.70    0.74 
   6  -1   1   20.91    0.82 
   6  -1   1   21.25    0.62 
  -6  -1  -1   20.69    0.38 
  -6   1  -1   21.25    0.73 
   6   1   1   20.60    0.41 
  -6   1  -1   20.83    0.50 
  -7  -1  -1   54.61    1.21 
   7  -1   1   54.77    1.18 
  -7  -1  -1   54.75    0.66 
  -7   1  -1   55.39    1.24 
   7   1   1   56.86    0.91 
  -7   1  -1   56.36    0.82 
  -8  -1  -1   65.03    0.75 
  -8  -1  -1   64.82    1.37 
  -8   1  -1   62.74    1.38 
  -9  -1  -1   10.91    0.17 
  -9  -1  -1   10.26    0.54 
  -9  -1  -1   10.56    0.21 
  -9  -1  -1   11.70    0.60 
  -9  -1  -1   11.20    0.28 
  -9  -1  -1   11.02    0.45 
  -9  -1  -1   10.97    0.21 
  -9   1  -1   11.47    0.37 
  -9   1  -1   11.89    0.38 
  -9   1  -1   11.88    0.56 
  -9   1  -1   11.81    0.35 
  -9   1  -1   11.40    0.60 
 -10  -1  -1    0.58    0.06 
 -10  -1  -1    0.89    0.23 
 -10  -1  -1    1.30    0.33 
 -10   1  -1    0.53    0.31 
 -10   1  -1    0.73    0.12 
 -10   1  -1    1.27    0.18 
 -10   1  -1    0.93    0.19 
 -10   1  -1    0.73    0.21 
 -11  -1  -1    4.75    0.09 
 -11  -1  -1    4.80    0.33 
 -11   1  -1    3.92    0.30 
 -11   1  -1    4.05    0.16 
 -11   1  -1    4.26    0.14 
 -11  -2   1   13.28    0.12 
 -11  -2   1   13.29    0.12 
 -11   2   1   13.06    0.49 
 -11   2   1   14.23    0.37 
 -11   2   1   14.67    0.36 
 -11   2   1   14.20    0.33 
 -10  -2   1   20.79    0.20 
  10  -2  -1   19.21    0.67 
 -10  -2   1   20.84    0.67 
 -10  -2   1   20.86    0.56 
  10  -2  -1   19.99    0.64 
 -10   2   1   22.58    0.53 
 -10   2   1   21.06    0.79 
 -10   2   1   21.90    0.48 
 -10   2   1   21.71    0.51 
 -10   2   1   22.15    0.69 
 -10   2   1   21.69    0.54 
 -10   2   1   21.80    0.54 
   9  -2  -1   17.55    0.68 
  -9  -2   1   19.84    0.62 
  -9  -2   1   18.29    0.20 
  -9  -2   1   18.46    0.67 
   9  -2  -1   17.37    0.64 
  -9   2   1   17.08    0.51 
  -9   2   1   16.49    0.70 
  -9   2   1   17.60    0.44 
  -9   2   1   17.60    0.36 
  -9   2   1   17.71    0.53 
  -9   2   1   17.58    0.40 
  -9   2   1   17.39    0.36 
  -9   2   1   17.67    0.64 
  -9   2   1   17.43    0.51 
  -9   2   1   17.97    0.76 
  -9   2   1   17.97    0.55 
  -9   2   1   17.18    0.40 
   8  -2  -1   88.09    1.61 
   8  -2  -1   89.64    1.54 
  -8  -2   1   91.11    1.68 
  -8   2   1   92.53    1.77 
  -8   2   1   95.57    1.87 
  -8   2   1   92.90    1.30 
  -8   2   1   90.16    1.66 
  -7  -2   1   69.68    0.67 
   7  -2  -1   68.27    1.26 
   7  -2  -1   69.58    1.88 
  -7  -2   1   71.58    0.65 
  -7  -2   1   70.25    1.38 
  -7   2   1   72.40    1.66 
  -7   2   1   73.42    1.48 
  -7   2   1   72.20    1.53 
  -7   2   1   69.52    1.43 
   6  -2  -1   23.08    0.96 
   6  -2  -1   23.70    0.89 
  -6   2   1   21.07    0.82 
  -6   2   1   23.44    0.61 
  -6   2   1   21.88    0.57 
  -6   2   1   22.70    0.71 
  -6   2   1   21.53    0.73 
   5  -2  -1    2.57    0.33 
   5  -2  -1    2.94    0.36 
   5  -2  -1    2.65    0.39 
  -5   2   1    2.54    0.31 
  -5   2   1    2.74    0.27 
  -5   2   1    2.75    0.38 
  -5   2   1    3.16    0.28 
  -5   2   1    2.90    0.42 
  -5   2   1    3.00    0.29 
   4  -2  -1    1.35    0.30 
   4  -2  -1    0.93    0.25 
  -4   2   1    1.20    0.30 
  -4   2   1    1.28    0.24 
  -4   2   1    1.12    0.24 
  -4   2   1    1.24    0.33 
  -4   2   1    0.90    0.29 
   3  -2  -1    2.08    0.32 
   3  -2  -1    2.64    0.36 
   3  -2  -1    2.51    0.33 
   3  -2  -1    3.46    0.35 
  -3   2   1    2.62    0.40 
  -3   2   1    2.75    0.28 
  -3   2   1    2.62    0.35 
  -3   2   1    2.48    0.37 
  -3   2   1    2.88    0.33 
   2  -2  -1  249.90    3.68 
   2  -2  -1  252.42    4.28 
   2  -2  -1  257.83    3.78 
   2  -2  -1  254.77    3.48 
   2  -2  -1  244.56    4.12 
  -2  -2   1  259.54    3.69 
  -2  -2   1  252.40    3.87 
  -2   2   1  282.70    4.66 
  -2   2   1  277.21    3.79 
  -2   2   1  281.39    4.45 
  -2   2   1  281.25    4.14 
   2   2  -1  281.81    3.93 
   2   2  -1  284.85    3.61 
   2   2  -1  278.78    2.87 
   1  -2  -1  223.76    3.33 
  -1  -2   1  219.63    3.14 
  -1  -2   1  224.39    3.57 
   1  -2  -1  224.03    3.78 
   1  -2  -1  222.77    3.06 
   1  -2  -1  232.11    3.62 
  -1  -2   1  224.91    3.41 
   1  -2  -1  223.09    3.23 
  -1   2   1  245.99    3.31 
  -1   2   1  247.36    3.62 
  -1   2   1  248.94    3.92 
   1   2  -1  253.03    2.62 
   1   2  -1  243.27    3.56 
   1   2  -1  246.58    3.27 
   0  -2  -1   94.69    1.80 
   0  -2  -1   92.58    1.43 
   0  -2   1   97.66    1.71 
   0  -2   1   93.64    1.43 
   0  -2   1   94.88    1.71 
   0  -2  -1   93.60    1.76 
   0   2   1  107.74    1.74 
   0   2  -1  107.95    1.68 
   0   2   1  108.14    1.61 
   0   2  -1  110.39    2.08 
   0   2  -1  109.90    1.83 
   0   2   1  109.43    1.90 
   0   2   1  109.20    1.24 
   1  -2   1   74.78    1.33 
   1  -2   1   70.95    1.47 
  -1  -2  -1   74.79    1.43 
  -1  -2  -1   73.65    1.45 
   1  -2   1   75.33    1.47 
   1  -2   1   72.55    1.23 
  -1   2  -1   81.56    1.43 
  -1   2  -1   80.79    1.53 
   1   2   1   83.07    0.93 
   1   2   1   83.22    1.22 
  -1   2  -1   83.75    1.75 
   1   2   1   81.73    1.31 
  -1   2  -1   81.82    1.75 
   2  -2   1   55.34    1.13 
   2  -2   1   55.20    1.09 
   2  -2   1   56.49    1.07 
   2  -2   1   55.10    1.26 
   2  -2   1   52.96    1.25 
  -2   2  -1   64.64    1.38 
  -2   2  -1   64.49    1.52 
  -2   2  -1   64.35    1.21 
   2   2   1   63.52    0.94 
  -2   2  -1   65.54    1.24 
  -2   2  -1   67.58    1.56 
   3  -2   1  414.35    5.95 
   3  -2   1  411.77    5.45 
   3  -2   1  410.52    6.45 
  -3   2  -1  430.33    6.88 
  -3   2  -1  443.81    6.55 
  -3   2  -1  450.48    7.16 
  -3   2  -1  438.59    6.95 
  -3   2  -1  429.26    6.37 
  -3   2  -1  439.71    6.27 
   4  -2   1   28.49    0.83 
   4  -2   1   29.14    0.90 
  -4   2  -1   30.56    0.73 
  -4   2  -1   31.13    0.78 
  -4   2  -1   30.95    0.74 
  -4   2  -1   30.24    0.90 
  -4   2  -1   31.62    1.04 
  -4   2  -1   29.92    1.09 
   5  -2   1   53.10    1.26 
   5  -2   1   54.62    1.41 
  -5   2  -1   63.04    1.60 
  -5   2  -1   61.39    1.18 
  -5   2  -1   61.38    1.38 
  -5   2  -1   62.17    1.21 
   6  -2   1   28.54    1.01 
  -6  -2  -1   28.08    0.78 
  -6  -2  -1   28.35    0.33 
   6  -2   1   28.26    1.02 
  -6   2  -1   29.91    0.93 
  -6   2  -1   29.72    0.87 
  -6   2  -1   29.30    0.88 
  -6   2  -1   26.88    0.99 
  -6   2  -1   28.93    0.87 
   7  -2   1   66.23    1.28 
   7  -2   1   67.91    1.37 
  -7  -2  -1   66.09    1.34 
  -7   2  -1   70.69    1.56 
  -7   2  -1   72.12    1.48 
   7   2   1   70.40    0.94 
   8  -2   1   29.66    0.83 
  -8  -2  -1   28.80    0.82 
  -8  -2  -1   27.67    0.94 
  -8  -2  -1   28.01    0.71 
  -8  -2  -1   28.24    0.82 
  -8  -2  -1   28.60    0.27 
   8  -2   1   29.03    0.87 
  -8   2  -1   29.21    0.52 
  -8   2  -1   29.26    0.70 
  -8   2  -1   29.35    0.93 
  -8   2  -1   29.02    0.69 
  -8   2  -1   29.24    0.60 
  -8   2  -1   28.80    0.64 
  -8   2  -1   28.42    0.67 
  -8   2  -1   29.11    0.59 
  -8   2  -1   29.51    0.62 
   9  -2   1   10.65    0.53 
  -9  -2  -1   10.71    0.53 
   9  -2   1   10.04    0.56 
  -9  -2  -1   10.25    0.14 
  -9   2  -1   11.11    0.38 
  -9   2  -1   11.19    0.41 
  -9   2  -1   10.66    0.41 
  -9   2  -1   10.94    0.59 
  -9   2  -1   11.12    0.23 
  -9   2  -1   10.98    0.52 
  -9   2  -1   11.56    0.40 
  -9   2  -1   10.71    0.38 
  -9   2  -1   11.50    0.41 
 -10  -2  -1    9.22    0.11 
 -10  -2  -1    9.15    0.46 
  10  -2   1    8.92    0.51 
 -10   2  -1    9.50    0.30 
 -10   2  -1    9.28    0.31 
 -10   2  -1   10.53    0.48 
 -10   2  -1    9.81    0.30 
 -10   2  -1   10.03    0.34 
 -10   2  -1    9.76    0.34 
 -10   2  -1    9.50    0.32 
 -11   2  -1   32.35    0.54 
 -11   2  -1   33.01    0.45 
 -11   2  -1   33.67    0.53 
 -11   2  -1   32.27    0.65 
  11  -3  -1    3.66    0.24 
 -11   3   1    3.72    0.20 
 -11   3   1    4.03    0.19 
 -11   3   1    4.07    0.20 
 -11   3   1    3.55    0.28 
  10  -3  -1   16.48    0.62 
  10  -3  -1   16.78    0.58 
 -10   3   1   18.59    0.29 
 -10   3   1   18.76    0.51 
 -10   3   1   17.80    0.45 
 -10   3   1   19.60    0.62 
 -10   3   1   18.35    0.50 
   9  -3  -1    3.29    0.40 
   9  -3  -1    3.55    0.42 
  -9   3   1    2.68    0.32 
  -9   3   1    2.89    0.29 
  -9   3   1    2.41    0.25 
  -9   3   1    2.60    0.30 
  -9   3   1    2.77    0.45 
  -9   3   1    2.77    0.24 
  -9   3   1    3.22    0.35 
  -9   3   1    2.91    0.28 
  -9   3   1    2.80    0.41 
  -9   3   1    2.56    0.29 
  -8  -3   1    0.53    0.02 
  -8  -3   1    0.25    0.22 
   8  -3  -1    1.05    0.42 
  -8  -3   1    0.56    0.03 
   8  -3  -1    0.60    0.28 
   8  -3  -1    0.63    0.28 
  -8   3   1    0.53    0.17 
  -8   3   1    0.56    0.21 
  -8   3   1    0.91    0.24 
  -8   3   1    0.48    0.19 
  -8   3   1    0.36    0.22 
  -8   3   1    0.62    0.30 
  -8   3   1   -0.09    0.27 
  -8   3   1    0.52    0.37 
  -8   3   1    0.70    0.16 
  -8   3   1    0.45    0.14 
  -8   3   1    0.70    0.29 
   7  -3  -1    3.61    0.51 
   7  -3  -1    4.24    0.40 
   7  -3  -1    5.14    0.46 
  -7   3   1    5.00    0.51 
  -7   3   1    4.45    0.34 
  -7   3   1    4.08    0.45 
  -7   3   1    4.57    0.48 
   6  -3  -1    0.56    0.35 
   6  -3  -1    0.42    0.28 
  -6  -3   1    0.44    0.06 
   6  -3  -1    0.78    0.29 
   6  -3  -1    0.57    0.24 
  -6  -3   1    0.48    0.08 
  -6   3   1    0.50    0.30 
  -6   3   1    0.40    0.22 
  -6   3   1    0.67    0.28 
  -6   3   1    1.10    0.36 
  -6   3   1    0.55    0.33 
  -6   3   1    0.30    0.30 
  -6   3   1    0.60    0.21 
  -6   3   1    0.57    0.33 
   5  -3  -1    1.12    0.28 
  -5  -3   1    1.09    0.10 
   5  -3  -1    0.82    0.32 
   5  -3  -1    1.67    0.43 
  -5   3   1    1.27    0.34 
  -5   3   1    1.07    0.34 
  -5   3   1    1.49    0.44 
  -5   3   1    1.20    0.37 
  -5   3   1    1.67    0.32 
   4  -3  -1   51.83    1.46 
   4  -3  -1   50.03    1.71 
   4  -3  -1   55.73    1.33 
   4  -3  -1   55.01    1.18 
   4  -3  -1   56.45    1.46 
  -4   3   1   61.42    1.36 
  -4   3   1   63.49    1.52 
   4   3  -1   62.64    0.79 
  -4   3   1   62.44    1.34 
  -4   3   1   63.45    1.17 
  -4   3   1   64.12    1.29 
  -4   3   1   63.57    1.72 
   3  -3  -1   33.60    1.19 
   3  -3  -1   34.22    0.95 
   3  -3  -1   33.81    0.87 
   3  -3  -1   35.07    1.08 
   3  -3  -1   36.40    1.27 
   3  -3  -1   34.89    0.87 
   3  -3  -1   33.44    1.03 
  -3   3   1   37.39    0.93 
  -3   3   1   38.82    1.03 
  -3   3   1   36.85    1.10 
   3   3  -1   38.10    0.59 
  -3   3   1   38.01    1.21 
  -3   3   1   38.95    0.85 
  -3   3   1   38.42    1.25 
  -3   3   1   39.17    1.11 
   2  -3  -1  145.28    2.34 
   2  -3  -1  139.17    2.85 
   2  -3  -1  143.91    2.69 
   2  -3  -1  143.07    2.89 
   2  -3  -1  145.51    2.36 
   2   3  -1  166.69    2.61 
  -2   3   1  166.40    2.82 
  -2   3   1  164.24    3.17 
   2   3  -1  163.09    2.40 
   2   3  -1  164.83    1.89 
  -2   3   1  171.94    2.63 
   1  -3  -1   57.33    1.06 
  -1  -3   1   57.22    1.27 
  -1  -3   1   57.44    0.97 
   1  -3  -1   57.32    1.46 
   1  -3  -1   55.48    1.05 
   1  -3  -1   55.79    1.32 
   1  -3  -1   56.94    1.49 
  -1  -3   1   56.55    0.91 
  -1  -3   1   56.73    1.30 
   1   3  -1   64.57    1.35 
   1   3  -1   64.20    1.24 
  -1   3   1   64.11    1.28 
   1   3  -1   64.91    0.92 
  -1   3   1   64.81    0.98 
  -1   3   1   65.30    1.37 
   0  -3  -1   85.05    1.83 
   0  -3  -1   83.48    1.40 
   0  -3  -1   83.03    1.86 
   0  -3   1   88.70    1.82 
   0  -3   1   82.97    1.77 
   0  -3   1   83.77    1.63 
   0  -3   1   82.61    1.44 
   0  -3   1   87.18    1.45 
   0   3   1   96.14    1.25 
   0   3  -1   95.21    1.84 
   0   3  -1   95.35    1.69 
   0   3  -1   95.63    1.28 
   0   3   1   94.28    1.61 
   0   3   1   94.80    1.73 
   1  -3   1  150.68    2.70 
   1  -3   1  149.67    2.44 
  -1  -3  -1  150.39    2.77 
   1  -3   1  151.70    2.86 
  -1  -3  -1  150.16    2.77 
   1  -3   1  151.20    2.83 
  -1   3  -1  168.00    2.64 
   1   3   1  167.44    2.41 
   1   3   1  167.68    1.91 
   1   3   1  166.68    2.61 
  -1   3  -1  168.30    2.88 
   2  -3   1  200.84    3.28 
   2  -3   1  208.64    2.96 
   2  -3   1  202.46    3.74 
   2  -3   1  205.49    3.36 
   2  -3   1  209.87    3.77 
   2  -3   1  205.37    3.55 
   2  -3   1  209.04    3.12 
  -2   3  -1  235.41    4.23 
  -2   3  -1  223.01    3.31 
  -2   3  -1  231.64    3.51 
  -2   3  -1  230.77    4.12 
  -2   3  -1  232.14    3.47 
  -2   3  -1  227.43    4.20 
  -2   3  -1  231.84    3.82 
   2   3   1  230.31    2.48 
   2   3   1  232.24    3.08 
   3  -3   1   27.06    1.01 
   3  -3   1   26.06    0.92 
   3  -3   1   25.33    0.82 
   3  -3   1   24.80    0.71 
   3  -3   1   24.99    0.89 
   3  -3   1   23.82    1.04 
  -3   3  -1   25.15    0.87 
  -3   3  -1   29.55    1.13 
  -3   3  -1   27.38    0.81 
   3   3   1   27.60    0.42 
  -3   3  -1   29.47    0.84 
  -3   3  -1   27.48    0.98 
  -3   3  -1   27.61    1.15 
  -3   3  -1   28.67    0.76 
  -3   3  -1   26.95    0.96 
   4  -3   1   32.72    0.86 
   4  -3   1   34.00    1.06 
   4  -3   1   33.61    1.01 
   4   3   1   37.62    0.48 
  -4   3  -1   37.05    0.84 
  -4   3  -1   37.15    0.95 
  -4   3  -1   38.14    0.98 
  -4   3  -1   37.90    0.99 
  -4   3  -1   37.50    1.14 
  -4   3  -1   38.59    1.37 
  -5  -3  -1   17.92    0.30 
   5  -3   1   16.24    0.75 
   5  -3   1   18.11    0.88 
   5  -3   1   19.81    0.72 
   5  -3   1   17.39    0.83 
   5  -3   1   17.86    0.57 
  -5   3  -1   20.41    0.70 
  -5   3  -1   20.11    0.87 
  -5   3  -1   20.69    0.72 
  -5   3  -1   19.79    0.97 
  -5   3  -1   19.36    0.80 
  -5   3  -1   19.46    0.81 
  -5   3  -1   20.49    0.69 
   6  -3   1    9.71    0.50 
   6  -3   1    9.51    0.51 
   6  -3   1    8.10    0.53 
  -6   3  -1    8.93    0.54 
  -6   3  -1    9.60    0.63 
  -6   3  -1    9.43    0.44 
  -6   3  -1    8.67    0.43 
  -6   3  -1    9.74    0.62 
   7  -3   1   30.72    1.06 
   7  -3   1   31.18    0.91 
   7  -3   1   30.88    0.83 
  -7   3  -1   36.07    1.09 
  -7   3  -1   34.66    1.09 
  -7   3  -1   35.48    1.07 
  -8  -3  -1   19.64    0.18 
  -8  -3  -1   19.91    0.18 
   8  -3   1   20.42    0.69 
  -8  -3  -1   19.19    0.77 
   8  -3   1   20.97    0.77 
   8  -3   1   20.59    1.02 
  -8   3  -1   22.50    0.62 
  -8   3  -1   23.01    0.89 
  -8   3  -1   22.84    0.56 
  -8   3  -1   22.08    0.75 
  -8   3  -1   22.61    0.42 
  -8   3  -1   22.73    0.61 
  -8   3  -1   22.67    0.63 
  -8   3  -1   22.36    0.62 
  -8   3  -1   23.03    0.59 
  -8   3  -1   22.32    0.86 
  -8   3  -1   22.79    0.51 
   9  -3   1    6.57    0.51 
   9  -3   1    6.30    0.44 
  -9   3  -1    6.90    0.23 
  -9   3  -1    6.84    0.52 
  -9   3  -1    7.10    0.30 
  -9   3  -1    7.00    0.34 
  -9   3  -1    6.66    0.33 
  -9   3  -1    7.26    0.37 
  -9   3  -1    6.93    0.27 
  -9   3  -1    6.96    0.24 
  -9   3  -1    6.81    0.43 
  -9   3  -1    7.05    0.24 
  -9   3  -1    6.69    0.33 
  -9   3  -1    6.59    0.36 
 -10   3  -1    5.35    0.23 
 -10   3  -1    5.72    0.26 
 -10   3  -1    5.28    0.33 
 -10   3  -1    5.12    0.24 
 -10   3  -1    5.31    0.22 
  10  -4  -1    1.59    0.42 
  10  -4  -1    0.99    0.22 
 -10   4   1    1.86    0.19 
 -10   4   1    1.37    0.20 
 -10   4   1    1.41    0.12 
 -10   4   1    1.28    0.21 
 -10   4   1    1.12    0.26 
 -10   4   1    1.57    0.21 
   9  -4  -1    2.37    0.28 
   9  -4  -1    2.12    0.35 
   9  -4  -1    2.61    0.39 
   9  -4  -1    2.98    0.52 
  -9   4   1    2.67    0.22 
  -9   4   1    2.61    0.29 
  -9   4   1    2.49    0.16 
  -9   4   1    2.17    0.32 
  -9   4   1    2.65    0.23 
  -9   4   1    2.29    0.29 
  -9   4   1    2.68    0.29 
  -9   4   1    2.84    0.31 
  -9   4   1    2.56    0.27 
   8  -4  -1   28.56    0.85 
   8  -4  -1   27.57    0.61 
   8  -4  -1   27.47    0.78 
   8  -4  -1   26.20    1.20 
   8  -4  -1   27.98    1.02 
  -8   4   1   30.35    0.77 
  -8   4   1   29.75    0.77 
  -8   4   1   30.85    0.95 
  -8   4   1   30.13    0.62 
  -8   4   1   29.19    0.97 
  -8   4   1   30.47    0.75 
  -8   4   1   30.01    0.58 
  -8   4   1   30.10    0.58 
  -8   4   1   30.01    0.74 
  -8   4   1   32.14    0.99 
   7  -4  -1   31.50    0.83 
   7  -4  -1   30.74    1.05 
   7  -4  -1   31.31    1.18 
   7  -4  -1   31.99    1.29 
   7  -4  -1   31.03    0.69 
   7  -4  -1   29.87    0.89 
  -7  -4   1   30.88    0.28 
  -7   4   1   33.34    0.92 
  -7   4   1   34.74    1.01 
  -7   4   1   33.65    1.03 
  -7   4   1   32.62    0.69 
  -7   4   1   34.67    1.10 
  -7   4   1   32.66    0.84 
  -7   4   1   33.36    0.84 
  -7   4   1   33.27    0.68 
  -7   4   1   32.39    0.82 
   6  -4  -1   33.56    0.94 
   6  -4  -1   33.28    0.87 
   6  -4  -1   34.36    1.19 
   6  -4  -1   34.50    1.35 
  -6  -4   1   33.66    0.42 
  -6   4   1   37.61    1.05 
  -6   4   1   35.62    1.08 
  -6   4   1   35.47    1.18 
  -6   4   1   35.93    0.89 
  -6   4   1   36.39    1.02 
  -6   4   1   38.10    1.15 
  -6   4   1   36.40    1.17 
   5  -4  -1   46.15    1.09 
   5  -4  -1   46.98    1.33 
   5  -4  -1   46.88    1.01 
   5  -4  -1   48.69    1.50 
   5  -4  -1   45.33    1.60 
  -5  -4   1   46.73    0.62 
   5   4  -1   50.66    0.78 
  -5   4   1   50.30    1.44 
  -5   4   1   50.12    1.27 
  -5   4   1   49.96    1.08 
  -5   4   1   49.27    1.30 
  -5   4   1   50.65    1.24 
  -5   4   1   50.06    1.19 
  -4  -4   1    2.90    0.19 
   4  -4  -1    2.75    0.63 
   4  -4  -1    3.16    0.44 
   4  -4  -1    3.30    0.59 
   4  -4  -1    3.27    0.56 
   4  -4  -1    2.59    0.67 
  -4   4   1    2.97    0.48 
  -4   4   1    3.08    0.44 
   4   4  -1    3.05    0.23 
  -4   4   1    2.88    0.45 
  -4   4   1    3.31    0.28 
  -4   4   1    3.21    0.38 
  -4   4   1    3.19    0.53 
  -4   4   1    3.40    0.43 
   3  -4  -1  105.21    1.98 
   3  -4  -1  104.67    2.15 
   3  -4  -1  105.27    1.96 
   3  -4  -1  103.08    2.65 
   3  -4  -1  104.82    2.34 
   3  -4  -1  111.00    2.49 
   3  -4  -1  104.24    1.95 
   3  -4  -1  102.67    2.24 
   3   4  -1  122.57    1.57 
  -3   4   1  117.72    2.18 
  -3   4   1  122.39    2.29 
  -3   4   1  121.58    2.55 
  -3   4   1  123.02    2.06 
  -3   4   1  120.93    2.32 
   2  -4  -1  123.38    2.85 
   2  -4  -1  120.14    2.16 
   2  -4  -1  121.55    2.56 
  -2  -4   1  124.46    1.51 
  -2   4   1  137.41    2.66 
   2   4  -1  136.02    1.78 
  -2   4   1  139.89    2.48 
   2   4  -1  139.44    2.25 
  -2   4   1  135.71    2.26 
  -2   4   1  138.36    2.39 
   1  -4  -1  183.36    2.87 
   1  -4  -1  179.55    3.37 
  -1  -4   1  180.01    2.15 
  -1  -4   1  177.82    3.33 
   1  -4  -1  177.87    3.67 
  -1   4   1  208.81    3.56 
   1   4  -1  206.91    3.47 
   1   4  -1  208.18    2.53 
   1   4  -1  208.29    3.18 
  -1   4   1  208.76    3.27 
   0  -4   1   22.54    0.59 
   0  -4   1   22.50    0.60 
   0  -4  -1   21.92    0.97 
   0  -4   1   22.37    0.90 
   0  -4  -1   22.86    0.53 
   0  -4   1   23.72    0.82 
   0   4   1   27.47    0.63 
   0   4  -1   27.10    0.97 
   0   4   1   27.49    0.83 
   0   4  -1   27.72    0.88 
   0   4   1   27.83    0.92 
   1  -4   1    4.32    0.32 
   1  -4   1    3.99    0.50 
   1  -4   1    3.99    0.36 
  -1  -4  -1    4.28    0.31 
   1  -4   1    4.22    0.49 
   1   4   1    5.08    0.43 
  -1   4  -1    5.48    0.58 
  -1   4  -1    4.63    0.45 
  -1   4  -1    5.18    0.48 
   1   4   1    4.72    0.29 
   1   4   1    5.79    0.43 
   2  -4   1   26.55    1.00 
   2  -4   1   24.52    1.11 
   2  -4   1   25.10    0.77 
   2  -4   1   25.56    0.77 
  -2  -4  -1   25.17    0.50 
  -2   4  -1   27.25    0.97 
  -2   4  -1   28.92    1.10 
  -2   4  -1   28.30    0.86 
   2   4   1   27.57    0.59 
  -2   4  -1   28.34    0.91 
   3  -4   1   42.27    1.16 
   3  -4   1   41.84    1.26 
  -3  -4  -1   42.03    0.66 
   3  -4   1   41.13    1.52 
   3  -4   1   43.41    1.34 
   3  -4   1   41.59    1.04 
  -3   4  -1   51.66    1.34 
  -3   4  -1   50.94    1.20 
  -3   4  -1   52.60    1.29 
   3   4   1   52.78    0.85 
  -3   4  -1   54.91    1.58 
  -3   4  -1   51.79    1.48 
  -3   4  -1   51.71    1.58 
   4  -4   1    5.68    0.57 
   4  -4   1    4.87    0.59 
   4  -4   1    5.76    0.48 
   4  -4   1    6.61    0.66 
  -4  -4  -1    5.70    0.27 
  -4   4  -1    7.00    0.57 
  -4   4  -1    6.58    0.46 
  -4   4  -1    6.17    0.56 
  -4   4  -1    6.57    0.76 
  -4   4  -1    6.60    0.52 
  -4   4  -1    6.71    0.65 
  -4   4  -1    6.10    0.53 
   4   4   1    6.87    0.29 
   5  -4   1   22.85    0.74 
   5  -4   1   24.19    0.97 
   5  -4   1   24.26    0.72 
   5  -4   1   23.22    0.85 
  -5  -4  -1   24.50    0.42 
  -5   4  -1   28.96    0.93 
  -5   4  -1   28.04    0.93 
  -5   4  -1   27.57    1.04 
  -5   4  -1   29.03    1.10 
  -5   4  -1   29.60    1.04 
   6  -4   1    6.01    0.49 
  -6  -4  -1    5.85    0.10 
   6  -4   1    6.06    0.37 
   6  -4   1    5.75    0.68 
   6  -4   1    4.94    0.45 
   6  -4   1    5.24    0.66 
   6  -4   1    6.29    0.58 
  -6   4  -1    6.55    0.49 
  -6   4  -1    5.86    0.56 
  -6   4  -1    6.26    0.47 
  -6   4  -1    6.90    0.44 
  -6   4  -1    6.15    0.43 
  -6   4  -1    5.77    0.40 
  -6   4  -1    6.00    0.32 
  -6   4  -1    6.01    0.63 
  -6   4  -1    6.86    0.62 
  -6   4  -1    5.33    0.77 
  -6   4  -1    6.75    0.60 
   7  -4   1   41.65    1.08 
   7  -4   1   41.62    0.80 
   7  -4   1   42.34    1.43 
   7  -4   1   42.47    1.02 
  -7  -4  -1   41.77    0.35 
   7  -4   1   40.60    1.20 
   7  -4   1   41.80    1.27 
  -7   4  -1   46.79    1.29 
  -7   4  -1   47.15    0.86 
  -7   4  -1   47.03    1.00 
  -7   4  -1   45.99    0.79 
  -7   4  -1   47.07    0.83 
  -7   4  -1   47.96    1.30 
  -7   4  -1   46.20    1.22 
  -7   4  -1   46.80    1.02 
  -7   4  -1   48.38    1.04 
   8  -4   1    6.66    0.46 
   8  -4   1    6.88    0.87 
   8  -4   1    6.68    0.54 
   8  -4   1    6.75    0.67 
   8  -4   1    6.53    0.36 
  -8   4  -1    7.46    0.58 
  -8   4  -1    7.36    0.29 
  -8   4  -1    7.08    0.34 
  -8   4  -1    6.65    0.42 
  -8   4  -1    6.60    0.27 
  -8   4  -1    7.05    0.37 
  -8   4  -1    6.94    0.39 
  -8   4  -1    7.04    0.32 
  -8   4  -1    6.87    0.36 
   9  -4   1    2.89    0.49 
   9  -4   1    3.30    0.30 
  -9   4  -1    3.28    0.26 
  -9   4  -1    3.38    0.20 
  -9   4  -1    3.35    0.27 
  -9   4  -1    3.13    0.19 
  -9   4  -1    3.41    0.20 
  -9   4  -1    3.57    0.29 
  -9   4  -1    3.32    0.27 
  -9   4  -1    3.27    0.32 
  -9   4  -1    3.67    0.18 
  -9   4  -1    3.27    0.30 
  -9   4  -1    3.38    0.20 
   9  -5  -1   -0.24    0.19 
   9  -5  -1    0.00    0.33 
   9  -5  -1   -0.02    0.23 
  -9   5   1    0.15    0.13 
  -9   5   1    0.14    0.13 
  -9   5   1    0.18    0.13 
  -9   5   1    0.19    0.15 
  -9   5   1    0.15    0.11 
  -9   5   1    0.07    0.14 
  -9   5   1    0.21    0.14 
   8  -5  -1   11.25    0.61 
   8  -5  -1   12.40    1.03 
   8  -5  -1   11.49    0.35 
   8  -5  -1   10.27    0.66 
  -8   5   1   12.90    0.48 
  -8   5   1   13.18    0.48 
  -8   5   1   13.68    0.39 
  -8   5   1   13.22    0.32 
   7  -5  -1    6.63    0.79 
   7  -5  -1    5.73    0.60 
  -7  -5   1    6.11    0.10 
   7  -5  -1    6.79    0.60 
   7  -5  -1    6.27    0.33 
  -7   5   1    7.28    0.60 
  -7   5   1    6.81    0.42 
  -7   5   1    6.47    0.42 
  -7   5   1    6.24    0.44 
   6  -5  -1    6.49    0.68 
   6  -5  -1    6.66    0.87 
   6  -5  -1    7.28    0.78 
   6  -5  -1    7.43    0.69 
   6  -5  -1    7.82    0.65 
   6  -5  -1    8.07    0.51 
  -6  -5   1    7.57    0.14 
   6  -5  -1    7.50    0.34 
  -6  -5   1    7.61    0.16 
  -6   5   1    9.33    0.63 
  -6   5   1    8.75    0.67 
  -6   5   1    6.19    0.98 
  -6   5   1    8.42    0.43 
  -6   5   1    9.11    0.90 
  -6   5   1    8.71    0.59 
  -6   5   1    7.75    0.47 
  -6   5   1    8.00    0.55 
   5  -5  -1   44.23    1.59 
   5  -5  -1   45.35    1.15 
  -5  -5   1   43.97    0.60 
   5  -5  -1   41.90    2.00 
   5  -5  -1   46.16    1.74 
   5  -5  -1   45.16    1.18 
   5  -5  -1   47.13    1.47 
  -5  -5   1   44.81    0.66 
  -5  -5   1   44.55    0.45 
  -5  -5   1   44.95    0.74 
   5  -5  -1   44.35    1.22 
  -5   5   1   50.85    1.38 
  -5   5   1   54.14    1.33 
  -5   5   1   49.98    1.57 
  -5   5   1   54.10    2.14 
  -5   5   1   53.04    1.36 
  -5   5   1   52.91    1.09 
  -5   5   1   53.00    0.81 
  -5   5   1   53.46    1.21 
  -5   5   1   55.40    1.19 
  -5   5   1   53.93    1.32 
   4  -5  -1   20.72    1.12 
   4  -5  -1   19.88    0.73 
   4  -5  -1   20.71    1.13 
  -4  -5   1   21.20    0.49 
   4  -5  -1   20.39    1.12 
   4  -5  -1   20.96    0.74 
  -4  -5   1   21.35    0.54 
  -4   5   1   23.28    0.60 
  -4   5   1   23.85    0.60 
  -4   5   1   23.29    0.65 
  -4   5   1   22.17    0.85 
  -4   5   1   22.99    0.76 
  -4   5   1   23.03    0.87 
  -4   5   1   24.12    1.08 
  -3  -5   1    3.86    0.29 
   3  -5  -1    3.86    0.69 
   3  -5  -1    3.72    0.36 
   3  -5  -1    4.62    0.70 
   3  -5  -1    3.98    0.69 
  -3   5   1    4.61    0.49 
  -3   5   1    4.97    0.63 
  -3   5   1    4.81    0.32 
  -3   5   1    4.77    0.33 
  -3   5   1    6.28    0.60 
  -2  -5   1   18.65    0.56 
   2  -5  -1   18.89    1.02 
   2  -5  -1   15.69    0.62 
   2  -5  -1   19.63    0.62 
   2  -5  -1   18.84    0.95 
   2  -5  -1   18.28    0.98 
  -2  -5   1   19.06    0.45 
  -2   5   1   21.96    0.59 
   2   5  -1   21.94    0.64 
  -2   5   1   21.95    0.62 
  -2   5   1   21.24    0.92 
  -2   5   1   23.20    0.81 
   1  -5  -1   13.46    0.89 
  -1  -5   1   13.49    0.50 
   1  -5  -1   13.17    0.44 
   1  -5  -1   12.51    0.48 
  -1  -5   1   13.86    0.72 
  -1  -5   1   13.59    0.50 
   1  -5  -1   14.76    0.90 
  -1   5   1   17.07    0.55 
  -1   5   1   16.42    0.52 
   1   5  -1   17.62    0.87 
   0  -5  -1   15.88    0.88 
   0  -5   1   16.40    0.82 
   0  -5  -1   16.40    0.88 
   0  -5   1   16.59    0.87 
   0  -5   1   14.77    0.91 
   0  -5  -1   15.43    0.54 
   0  -5   1   15.29    0.55 
   0   5   1   18.43    0.56 
   0   5   1   19.49    0.91 
   0   5   1   18.03    0.52 
   0   5  -1   18.12    0.54 
   0   5  -1   18.39    0.52 
   1  -5   1   37.05    0.87 
   1  -5   1   37.16    1.22 
  -1  -5  -1   37.20    0.74 
  -1  -5  -1   36.64    0.83 
   1  -5   1   37.28    0.88 
   1  -5   1   35.94    1.24 
   1  -5   1   35.87    0.88 
   1  -5   1   36.52    1.22 
  -1   5  -1   43.73    1.16 
  -1   5  -1   46.07    0.92 
  -1   5  -1   45.08    0.90 
   1   5   1   42.74    0.92 
   2  -5   1   19.44    0.99 
   2  -5   1   19.50    0.90 
   2  -5   1   21.17    0.95 
   2  -5   1   21.30    0.70 
   2  -5   1   19.80    0.72 
  -2  -5  -1   18.95    0.56 
  -2   5  -1   23.32    0.95 
  -2   5  -1   23.29    0.61 
  -2   5  -1   24.79    0.90 
  -2   5  -1   25.85    1.02 
  -2   5  -1   24.65    0.63 
   2   5   1   24.27    0.65 
  -3  -5  -1   15.14    0.48 
   3  -5   1   15.66    0.98 
   3  -5   1   15.58    0.87 
   3  -5   1   15.42    0.67 
   3  -5   1   14.29    0.87 
  -3  -5  -1   15.20    0.46 
  -3   5  -1   17.74    0.88 
  -3   5  -1   18.48    0.84 
  -3   5  -1   17.80    0.54 
  -3   5  -1   18.41    0.54 
  -3   5  -1   18.02    0.74 
  -4  -5  -1    7.11    0.24 
  -4  -5  -1    6.77    0.34 
   4  -5   1    7.02    0.58 
   4  -5   1    7.97    0.71 
   4  -5   1    7.85    0.73 
   4  -5   1    7.38    0.56 
  -4  -5  -1    7.61    0.32 
   4  -5   1    7.47    0.78 
   4  -5   1    7.57    0.52 
   4  -5   1    7.70    0.73 
   4  -5   1    7.72    0.85 
   4  -5   1    7.76    0.72 
  -4   5  -1    7.53    0.54 
  -4   5  -1    8.27    0.63 
  -4   5  -1    7.65    0.41 
  -4   5  -1    8.49    0.36 
  -4   5  -1    9.02    0.66 
  -4   5  -1    9.19    0.55 
  -4   5  -1    9.17    0.82 
   5  -5   1   14.81    0.69 
  -5  -5  -1   14.58    0.27 
   5  -5   1   15.13    0.76 
  -5  -5  -1   14.34    0.36 
   5  -5   1   14.86    0.88 
   5  -5   1   15.74    1.04 
  -5  -5  -1   14.65    0.21 
   5  -5   1   15.11    0.80 
   5  -5   1   14.06    0.41 
  -5  -5  -1   14.99    0.35 
  -5   5  -1   16.45    0.55 
  -5   5  -1   16.22    0.77 
  -5   5  -1   19.15    0.81 
  -5   5  -1   16.73    0.65 
   6  -5   1    7.11    0.60 
  -6  -5  -1    7.27    0.12 
   6  -5   1    7.20    0.77 
   6  -5   1    7.24    0.33 
   6  -5   1    7.14    0.70 
   6  -5   1    7.29    0.60 
  -6   5  -1    7.83    0.67 
  -6   5  -1    9.21    0.53 
  -6   5  -1    9.60    0.67 
  -6   5  -1    9.41    0.66 
  -6   5  -1    8.91    0.49 
  -6   5  -1    7.75    0.67 
  -6   5  -1    8.62    0.45 
   7  -5   1    0.13    0.27 
   7  -5   1    0.29    0.14 
   7  -5   1    0.10    0.32 
   7  -5   1    0.65    0.39 
  -7   5  -1    0.52    0.17 
  -7   5  -1    0.52    0.20 
  -7   5  -1    0.79    0.19 
  -7   5  -1    0.74    0.32 
  -7   5  -1    0.46    0.20 
   8  -5   1   10.62    0.55 
   8  -5   1   10.74    0.58 
   8  -5   1   10.48    0.28 
   8  -5   1    9.98    0.57 
  -8   5  -1   12.58    0.42 
  -8   5  -1   12.79    0.42 
  -8   5  -1   12.32    0.27 
  -8   5  -1   12.14    0.34 
  -8   5  -1   12.39    0.39 
  -8   5  -1   12.08    0.41 
  -7  -6   1    6.71    0.08 
   7  -6  -1    6.54    0.45 
  -7   6   1    6.98    0.30 
  -7   6   1    7.79    0.29 
  -7   6   1    7.67    0.35 
   6  -6  -1    4.54    0.45 
   6  -6  -1    4.57    0.41 
  -6  -6   1    4.72    0.09 
  -6   6   1    6.79    0.47 
  -6   6   1    6.37    0.69 
   5  -6  -1   29.74    0.91 
   5  -6  -1   28.69    0.85 
   5  -6  -1   29.39    0.87 
  -5  -6   1   29.72    0.49 
   5  -6  -1   29.21    1.34 
  -5  -6   1   29.55    0.40 
   5  -6  -1   29.50    1.38 
  -5  -6   1   29.20    0.53 
  -5   6   1   32.48    0.93 
  -5   6   1   29.98    1.09 
  -5   6   1   33.02    0.85 
  -5   6   1   31.78    0.79 
  -5   6   1   26.88    1.17 
  -4  -6   1    0.92    0.20 
   4  -6  -1    1.18    0.32 
   4  -6  -1    1.13    0.20 
   4  -6  -1    1.18    0.33 
   4  -6  -1    0.39    0.50 
  -4  -6   1    1.13    0.16 
   4  -6  -1    0.75    0.29 
  -4  -6   1    1.01    0.22 
   4  -6  -1    0.87    0.31 
  -4  -6   1    1.15    0.22 
   4  -6  -1    0.71    0.50 
  -4   6   1    1.84    0.47 
  -4   6   1    1.16    0.31 
  -4   6   1    0.71    0.16 
   3  -6  -1    0.61    0.30 
   3  -6  -1    0.08    0.52 
   3  -6  -1    0.37    0.16 
   3  -6  -1    0.46    0.27 
   3  -6  -1    0.88    0.36 
   3  -6  -1    0.34    0.19 
   3  -6  -1   -0.10    0.48 
  -3  -6   1    0.57    0.17 
   3  -6  -1    0.21    0.26 
   3  -6  -1    0.82    0.17 
  -3  -6   1    0.59    0.21 
  -3  -6   1    0.62    0.17 
   3  -6  -1    0.49    0.21 
  -3   6   1    1.03    0.33 
  -3   6   1    0.80    0.46 
  -3   6   1    0.46    0.31 
  -3   6   1    0.70    0.19 
  -3   6   1    0.77    0.21 
  -3   6   1    0.87    0.23 
  -3   6   1    0.80    0.31 
  -2  -6   1    3.71    0.35 
  -2  -6   1    4.01    0.32 
   2  -6  -1    4.39    0.47 
   2  -6  -1    3.33    0.66 
   2  -6  -1    4.77    0.49 
   2  -6  -1    3.36    0.78 
  -2  -6   1    3.83    0.32 
   2  -6  -1    4.01    0.42 
   2  -6  -1    4.31    0.47 
  -2  -6   1    3.73    0.29 
   2  -6  -1    3.86    0.38 
  -2  -6   1    4.00    0.12 
   2  -6  -1    3.42    0.40 
   2  -6  -1    4.20    0.23 
   2  -6  -1    3.96    0.28 
   2  -6  -1    3.84    0.42 
  -2  -6   1    4.22    0.34 
  -2   6   1    5.32    0.64 
  -2   6   1    4.96    0.35 
  -2   6   1    4.84    0.36 
  -2   6   1    4.75    0.49 
  -2   6   1    5.05    0.38 
  -1  -6   1   39.19    0.68 
   1  -6  -1   40.37    1.46 
  -1  -6   1   39.92    0.89 
  -1  -6   1   39.58    0.93 
  -1  -6   1   39.47    0.85 
   1  -6  -1   40.02    0.88 
   1  -6  -1   39.61    1.39 
  -1  -6   1   38.89    0.83 
   1  -6  -1   40.52    0.94 
   1  -6  -1   39.77    0.62 
   1  -6  -1   39.04    0.92 
  -1  -6   1   39.60    0.52 
   1  -6  -1   39.74    0.90 
   1  -6  -1   39.54    0.77 
  -1  -6   1   39.76    0.85 
  -1  -6   1   39.64    0.66 
   1  -6  -1   39.28    0.94 
   1  -6  -1   40.12    0.68 
   1  -6  -1   38.18    0.94 
   1  -6  -1   38.85    0.93 
  -1  -6   1   39.97    0.86 
  -1  -6   1   39.85    0.59 
  -1  -6   1   39.82    0.73 
  -1   6   1   46.43    0.95 
   1   6  -1   45.75    0.91 
   1   6  -1   46.51    0.93 
  -1   6   1   47.80    0.94 
   0  -6   1   13.95    0.82 
   0  -6  -1   13.92    0.50 
   0  -6   1   14.00    0.58 
   0  -6   1   14.37    0.39 
   0  -6   1   14.92    0.57 
   0  -6   1   14.10    0.32 
   0  -6  -1   13.63    0.54 
   0  -6   1   14.41    0.54 
   0  -6  -1   14.25    0.55 
   0  -6   1   13.98    0.96 
   0  -6   1   14.69    0.56 
   0  -6  -1   13.99    0.53 
   0  -6  -1   14.54    0.54 
   0  -6  -1   14.31    0.40 
   0  -6  -1   14.25    0.53 
   0  -6  -1   13.82    0.36 
   0  -6   1   14.42    0.43 
   0  -6   1   14.29    0.55 
   0  -6   1   14.27    0.54 
   0  -6   1   14.65    0.44 
   0  -6  -1   14.32    0.54 
   0  -6  -1   14.39    0.41 
   0  -6   1   13.78    0.59 
   0   6   1   17.13    0.53 
   0   6   1   17.79    0.55 
   0   6  -1   16.99    0.52 
   0   6  -1   17.13    0.53 
   1  -6   1   11.45    0.54 
   1  -6   1   11.08    0.60 
   1  -6   1   11.19    0.56 
  -1  -6  -1   11.06    0.22 
  -1  -6  -1   11.09    0.45 
   1  -6   1   10.55    0.83 
  -1  -6  -1   11.09    0.38 
   1  -6   1   10.83    0.53 
   1  -6   1   10.96    0.36 
   1  -6   1   10.42    0.48 
  -1  -6  -1   10.78    0.47 
  -1  -6  -1   11.57    0.46 
   1  -6   1   10.27    0.43 
   1  -6   1   11.41    0.38 
   1  -6   1   10.99    0.53 
   1  -6   1   11.11    0.27 
  -1  -6  -1   11.17    0.26 
  -1  -6  -1   10.93    0.45 
  -1  -6  -1   10.87    0.46 
   1  -6   1   10.66    0.48 
  -1  -6  -1   11.25    0.28 
  -1  -6  -1   10.91    0.24 
   1  -6   1   11.39    0.80 
  -1   6  -1   14.41    0.49 
  -1   6  -1   14.38    0.51 
  -1   6  -1   13.98    0.74 
   2  -6   1    5.77    0.46 
   2  -6   1    6.02    0.45 
   2  -6   1    5.74    0.42 
   2  -6   1    6.49    0.33 
  -2  -6  -1    5.22    0.27 
  -2  -6  -1    5.73    0.35 
   2  -6   1    6.49    0.46 
   2  -6   1    4.83    0.54 
   2  -6   1    6.74    0.80 
   2  -6   1    6.90    0.43 
   2  -6   1    6.41    0.76 
  -2  -6  -1    5.96    0.36 
  -2  -6  -1    5.53    0.35 
   2  -6   1    5.87    0.31 
   2  -6   1    5.81    0.54 
  -2   6  -1    7.05    0.37 
  -2   6  -1    7.15    0.37 
  -2   6  -1    6.73    0.56 
  -2   6  -1    7.50    0.68 
  -2   6  -1    7.29    0.40 
  -2   6  -1    7.30    0.63 
  -3  -6  -1   13.66    0.45 
   3  -6   1   12.93    0.62 
  -3  -6  -1   12.71    0.46 
   3  -6   1   13.54    0.43 
   3  -6   1   14.01    0.64 
   3  -6   1   13.23    0.43 
   3  -6   1   14.19    0.64 
   3  -6   1   12.71    0.89 
  -3  -6  -1   13.58    0.35 
   3  -6   1   13.82    0.69 
  -3  -6  -1   13.65    0.43 
   3  -6   1   13.21    0.92 
  -3   6  -1   15.59    0.47 
  -3   6  -1   15.01    0.66 
  -3   6  -1   15.55    0.43 
  -3   6  -1   16.28    0.82 
  -3   6  -1   15.14    0.48 
   4  -6   1    2.60    0.70 
  -4  -6  -1    2.20    0.22 
  -4  -6  -1    2.22    0.26 
   4  -6   1    2.56    0.40 
   4  -6   1    1.95    0.48 
   4  -6   1    2.69    0.61 
   4  -6   1    2.29    0.43 
  -4  -6  -1    2.65    0.18 
   4  -6   1    2.20    0.49 
  -4   6  -1    2.52    0.53 
  -4   6  -1    2.42    0.58 
  -4   6  -1    2.30    0.22 
  -4   6  -1    2.89    0.47 
  -4   6  -1    3.89    0.53 
   5  -6   1    1.81    0.39 
  -5  -6  -1    0.83    0.14 
  -5  -6  -1    0.79    0.08 
   5  -6   1    0.85    0.27 
  -5   6  -1    0.96    0.43 
  -5   6  -1    1.18    0.67 
  -5   6  -1    1.35    0.34 
  -5   6  -1    1.33    0.40 
  -6  -6  -1    9.41    0.13 
   6  -6   1    9.37    0.52 
  -6   6  -1    9.99    0.44 
   7  -6   1   34.54    0.81 
  -7   6  -1   47.69    0.67 
   5  -7  -1    0.28    0.19 
   5  -7  -1    0.90    0.15 
  -5   7   1    1.08    0.41 
   4  -7  -1    3.14    0.22 
   4  -7  -1    3.26    0.30 
  -4  -7   1    3.35    0.12 
   4  -7  -1    3.60    0.37 
  -4  -7   1    3.35    0.20 
   4  -7  -1    3.60    0.25 
   4  -7  -1    2.97    0.35 
   4  -7  -1    3.33    0.18 
   4  -7  -1    3.03    0.32 
  -4   7   1    4.61    0.45 
  -4   7   1    5.19    0.41 
   3  -7  -1    0.71    0.22 
   3  -7  -1    0.49    0.16 
   3  -7  -1    0.54    0.16 
   3  -7  -1    0.79    0.15 
   3  -7  -1    0.11    0.23 
   3  -7  -1    0.29    0.26 
   3  -7  -1    0.65    0.13 
   3  -7  -1    0.46    0.21 
   3  -7  -1    0.64    0.22 
  -3  -7   1    0.87    0.19 
  -3  -7   1    0.68    0.15 
  -3   7   1    0.76    0.18 
  -3   7   1    0.52    0.12 
  -3   7   1    0.93    0.24 
   2  -7  -1   11.80    0.44 
  -2  -7   1   11.84    0.36 
  -2  -7   1   11.83    0.43 
   2  -7  -1   12.16    0.55 
  -2  -7   1   12.55    0.32 
   2  -7  -1   11.65    0.34 
   2  -7  -1   12.10    0.46 
  -2  -7   1   11.70    0.49 
   2  -7  -1   11.75    0.47 
   2  -7  -1   11.65    0.42 
   2  -7  -1   11.70    0.33 
   2  -7  -1   11.79    0.30 
   2  -7  -1   11.78    0.57 
  -2  -7   1   12.06    0.38 
   2  -7  -1   12.53    0.49 
  -2   7   1   14.36    0.60 
  -2   7   1   14.62    0.42 
  -2   7   1   14.54    0.46 
  -2   7   1   14.62    0.44 
  -1  -7   1    4.70    0.31 
   1  -7  -1    4.43    0.33 
   1  -7  -1    5.40    0.18 
   1  -7  -1    4.43    0.17 
   1  -7  -1    5.39    0.39 
  -1  -7   1    4.54    0.30 
  -1  -7   1    4.62    0.33 
   1  -7  -1    5.34    0.21 
  -1  -7   1    4.57    0.40 
   1  -7  -1    4.80    0.34 
   1  -7  -1    5.46    0.38 
  -1  -7   1    4.81    0.32 
   1  -7  -1    4.85    0.38 
   1  -7  -1    4.88    0.36 
   1  -7  -1    4.53    0.44 
  -1  -7   1    4.85    0.24 
   1  -7  -1    4.74    0.18 
  -1   7   1    6.39    0.34 
   1   7  -1    6.29    0.32 
   1   7  -1    5.92    0.32 
  -1   7   1    5.80    0.31 
  -1   7   1    5.70    0.32 
   0  -7   1   22.74    0.31 
   0  -7  -1   23.17    0.70 
   0  -7  -1   22.18    0.63 
   0  -7   1   23.00    0.54 
   0  -7   1   23.60    0.59 
   0  -7  -1   22.49    0.58 
   0  -7  -1   22.51    0.56 
   0  -7   1   22.62    0.70 
   0  -7   1   22.72    0.33 
   0  -7   1   23.18    0.66 
   0  -7  -1   22.74    0.25 
   0  -7  -1   21.81    0.62 
   0  -7   1   22.73    0.58 
   0  -7   1   23.06    0.37 
   0  -7   1   21.98    0.63 
   0   7   1   27.60    0.63 
   0   7  -1   26.69    0.62 
   0   7  -1   28.06    0.63 
   0   7   1   26.81    0.63 
   1  -7   1    8.87    0.26 
   1  -7   1    8.66    0.43 
  -1  -7  -1    8.38    0.44 
  -1  -7  -1    8.76    0.40 
   1  -7   1    8.55    0.42 
   1  -7   1    8.82    0.41 
  -1  -7  -1    8.44    0.30 
   1  -7   1    8.85    0.51 
  -1  -7  -1    9.15    0.34 
   1  -7   1    7.65    0.38 
  -1  -7  -1    9.05    0.36 
   1  -7   1    8.65    0.28 
   1  -7   1    8.39    0.28 
   1  -7   1    9.82    0.61 
  -1   7  -1    9.73    0.36 
   1   7   1    9.90    0.38 
   1   7   1   10.44    0.37 
  -1   7  -1    9.95    0.38 
  -1   7  -1    9.45    0.33 
  -1   7  -1    9.19    0.58 
   2  -7   1    0.21    0.13 
   2  -7   1    0.43    0.20 
   2  -7   1    0.76    0.23 
  -2  -7  -1    0.24    0.12 
   2  -7   1   -0.20    0.27 
   2  -7   1    0.67    0.20 
  -2  -7  -1    0.41    0.14 
   2  -7   1    0.26    0.22 
   2  -7   1    0.74    0.14 
   2  -7   1    0.23    0.14 
  -2   7  -1    0.85    0.18 
  -2   7  -1    1.05    0.20 
  -2   7  -1    1.00    0.31 
  -3  -7  -1    8.12    0.20 
   3  -7   1    7.62    0.41 
   3  -7   1    8.05    0.40 
   3  -7   1    8.13    0.51 
   3  -7   1    8.26    0.22 
   3  -7   1    8.17    0.39 
  -3  -7  -1    8.36    0.28 
   3  -7   1    7.47    0.32 
   3  -7   1    8.00    0.25 
   3  -7   1    8.63    0.43 
  -3   7  -1    8.92    0.70 
  -3   7  -1   10.89    0.47 
  -3   7  -1   10.24    0.27 
   4  -7   1    2.11    0.32 
  -4  -7  -1    2.56    0.15 
   4  -7   1    2.02    0.29 
   4  -7   1    2.71    0.33 
   4  -7   1    2.53    0.17 
  -4   7  -1    2.33    0.41 
  -4   7  -1    2.81    0.29 
 -12   0   2    0.16    0.13 
 -12   0   2    0.09    0.06 
 -12   0   2   -0.07    0.11 
 -11   0   2    5.78    0.19 
 -11   0   2    5.50    0.47 
 -11   0   2    5.77    0.18 
 -11   0   2    5.63    0.43 
 -11   0   2    6.00    0.23 
 -11   0   2    5.60    0.34 
 -10   0   2    0.97    0.17 
 -10   0   2    0.39    0.33 
 -10   0   2    0.12    0.20 
 -10   0   2    0.00    0.20 
 -10   0   2    0.49    0.14 
 -10   0   2    0.67    0.14 
  -9   0   2   69.00    0.87 
  -9   0   2   69.55    1.49 
   8   0  -2    3.73    0.40 
  -8   0   2    3.85    0.20 
  -8   0   2    3.98    0.40 
  -7   0   2   43.39    0.99 
   7   0  -2   43.29    0.93 
  -7   0   2   43.60    0.54 
  -7   0   2   43.64    0.98 
  -6   0   2    6.24    0.21 
   6   0  -2    6.71    0.33 
   6   0  -2    6.41    0.40 
   5   0  -2  158.54    2.34 
   5   0  -2  161.64    1.89 
   5   0  -2  160.04    2.58 
  -4   0   2  320.28    4.90 
  -4   0   2  314.10    4.65 
   4   0  -2  321.17    4.17 
   4   0  -2  316.62    4.56 
   4   0  -2  319.07    3.38 
   3   0  -2  991.35   12.05 
   3   0  -2  990.05   14.08 
  -3   0   2  980.73   14.77 
   3   0  -2  989.59   13.20 
  -3   0   2  985.26   13.73 
   3   0  -2 1000.00    9.92 
   2   0  -2   14.21    0.63 
  -2   0   2   15.52    0.43 
   2   0  -2   15.21    0.44 
   1   0  -2  425.27    6.33 
  -1   0   2  425.52    6.00 
   0   0  -2  382.41    5.87 
   0   0   2  386.75    5.47 
   1   0   2  270.60    4.00 
   1   0   2  275.59    3.45 
   1   0   2  273.61    4.00 
  -1   0  -2  275.80    4.31 
  -2   0  -2    8.05    0.45 
  -2   0  -2    9.59    0.52 
   2   0   2    9.32    0.29 
   2   0   2    8.92    0.22 
   2   0   2    8.49    0.31 
  -2   0  -2    8.94    0.23 
   3   0   2   62.76    0.81 
   3   0   2   64.79    1.14 
   3   0   2   63.55    1.04 
  -3   0  -2   63.51    1.27 
  -3   0  -2   63.30    1.33 
   4   0   2  175.30    2.65 
   4   0   2  169.43    2.43 
  -5   0  -2  117.06    1.34 
   5   0   2  116.53    1.83 
   5   0   2  116.69    1.48 
  -6   0  -2   12.42    0.57 
  -6   0  -2   12.15    0.24 
   6   0   2   11.89    0.44 
  -6   0  -2   11.81    0.33 
  -7   0  -2    4.59    0.24 
  -7   0  -2    4.86    0.23 
  -7   0  -2    4.65    0.42 
   7   0   2    4.10    0.34 
  -8   0  -2   14.69    0.67 
  -8   0  -2   13.45    0.64 
  -8   0  -2   13.25    0.38 
  -8   0  -2   13.00    0.37 
  -8   0  -2   14.00    0.36 
  -8   0  -2   13.44    0.35 
  -9   0  -2   78.61    1.22 
  -9   0  -2   80.71    1.45 
  -9   0  -2   79.10    0.94 
  -9   0  -2   78.80    1.00 
  -9   0  -2   77.75    1.55 
  -9   0  -2   78.74    1.14 
 -10   0  -2    0.49    0.10 
 -10   0  -2    0.55    0.21 
 -10   0  -2    0.62    0.14 
 -12  -1   2    4.21    0.07 
 -12  -1   2    4.19    0.27 
 -12   1   2    4.30    0.12 
 -12   1   2    4.36    0.17 
 -12   1   2    4.03    0.30 
 -11  -1   2   10.87    0.49 
 -11  -1   2   12.45    0.45 
 -11  -1   2   11.69    0.16 
 -11   1   2   12.89    0.36 
 -11   1   2   13.01    0.52 
 -11   1   2   13.07    0.31 
 -10  -1   2    7.84    0.14 
 -10  -1   2    7.72    0.44 
 -10  -1   2    7.82    0.25 
 -10  -1   2    8.51    0.56 
 -10  -1   2    7.82    0.18 
 -10  -1   2    7.57    0.51 
 -10  -1   2    7.83    0.19 
 -10   1   2    7.34    0.49 
 -10   1   2    7.39    0.30 
 -10   1   2    8.48    0.58 
 -10   1   2    6.54    0.32 
 -10   1   2    7.79    0.31 
  -9  -1   2    6.97    0.20 
  -9  -1   2    6.87    0.50 
  -9   1   2    6.47    0.50 
  -9   1   2    7.26    0.48 
  -8  -1   2   17.18    0.66 
   8  -1  -2   16.59    0.71 
  -8  -1   2   17.90    0.31 
  -8   1   2   19.24    0.43 
   8   1  -2   18.32    0.58 
  -8   1   2   18.81    0.69 
  -8   1   2   19.33    0.72 
  -7  -1   2   63.33    1.26 
   7  -1  -2   62.61    1.62 
  -7  -1   2   62.40    0.69 
   7  -1  -2   62.64    1.26 
   7  -1  -2   60.27    1.45 
   7   1  -2   63.67    0.99 
  -7   1   2   62.93    1.18 
  -7   1   2   63.27    1.30 
  -7   1   2   62.98    0.92 
  -7   1   2   62.57    1.32 
   6  -1  -2   32.02    0.93 
   6  -1  -2   32.38    1.01 
   6  -1  -2   30.89    0.78 
  -6   1   2   31.42    0.59 
   6   1  -2   31.14    0.53 
  -6   1   2   31.62    0.82 
  -6   1   2   30.68    0.84 
   5  -1  -2   55.18    1.22 
   5  -1  -2   55.28    1.32 
   5  -1  -2   55.21    1.02 
  -5   1   2   55.25    1.29 
  -5   1   2   56.26    1.10 
   5   1  -2   56.00    0.67 
  -5   1   2   55.52    1.02 
  -5   1   2   56.84    0.98 
  -5   1   2   56.05    1.24 
   4  -1  -2   13.60    0.52 
   4  -1  -2   14.51    0.58 
   4  -1  -2   14.23    0.45 
  -4   1   2   15.43    0.44 
  -4   1   2   14.59    0.55 
  -4   1   2   14.88    0.56 
  -4   1   2   15.51    0.45 
   4   1  -2   14.67    0.44 
   3  -1  -2  446.96    6.86 
   3  -1  -2  446.76    5.81 
   3  -1  -2  446.64    6.33 
  -3  -1   2  448.46    6.71 
  -3  -1   2  456.97    6.28 
   3   1  -2  462.62    5.83 
  -3   1   2  464.51    6.78 
  -3   1   2  464.38    7.22 
  -3   1   2  463.80    6.50 
  -3   1   2  470.45    6.41 
  -3   1   2  457.34    5.82 
   3   1  -2  469.13    6.37 
  -2  -1   2  634.31    9.38 
   2  -1  -2  622.37    7.79 
   2  -1  -2  619.90    8.54 
  -2  -1   2  621.51    8.72 
   2  -1  -2  632.51    9.18 
  -2   1   2  651.72    9.18 
   2   1  -2  619.34    8.72 
  -2   1   2  658.63    9.87 
  -2   1   2  664.00    7.95 
   2   1  -2  648.15    9.44 
   2   1  -2  644.01    8.01 
  -1  -1   2  240.48    3.49 
   1  -1  -2  236.56    3.78 
   1  -1  -2  237.69    3.15 
   1   1  -2  256.16    4.14 
   1   1  -2  255.42    3.38 
  -1   1   2  260.82    3.29 
  -1   1   2  253.77    3.82 
   0  -1   2  528.32    7.42 
   0  -1  -2  526.64    7.69 
   0  -1   2  525.20    6.44 
   0  -1  -2  509.41    8.25 
   0   1  -2  521.63    6.55 
   0   1  -2  520.40    7.74 
   0   1   2  522.83    7.39 
   0   1   2  524.74    6.39 
   1  -1   2  517.82    7.24 
  -1  -1  -2  503.80    7.38 
   1  -1   2  500.25    6.24 
   1  -1   2  486.17    6.80 
  -1  -1  -2  496.78    7.86 
  -1   1  -2  532.39    8.34 
  -1   1  -2  525.07    6.67 
  -1   1  -2  533.08    7.32 
   1   1   2  518.47    6.42 
   1   1   2  524.72    7.04 
   1   1   2  523.51    7.43 
  -1   1  -2  528.60    7.86 
   2  -1   2    0.74    0.17 
   2  -1   2    0.96    0.20 
   2  -1   2    1.23    0.27 
  -2  -1  -2    1.42    0.33 
  -2  -1  -2    0.68    0.21 
   2  -1   2    1.07    0.24 
   2   1   2    1.06    0.07 
   2   1   2    1.23    0.16 
   2   1   2    1.03    0.17 
  -2   1  -2    0.79    0.17 
  -2   1  -2    0.90    0.24 
  -2   1  -2    0.92    0.33 
  -2   1  -2    0.94    0.31 
  -2   1  -2    0.93    0.25 
   3  -1   2   28.90    0.71 
   3  -1   2   28.81    0.75 
   3  -1   2   28.19    0.57 
   3   1   2   30.40    0.37 
  -3   1  -2   30.24    0.64 
  -3   1  -2   31.09    1.01 
  -3   1  -2   30.12    0.91 
   3   1   2   28.59    0.55 
  -3   1  -2   30.94    0.64 
   4  -1   2   81.91    1.46 
   4  -1   2   82.70    1.61 
   4  -1   2   82.29    1.21 
  -4   1  -2   83.72    1.39 
   4   1   2   85.38    0.95 
  -4   1  -2   83.81    1.88 
  -4   1  -2   83.62    1.57 
  -4   1  -2   85.19    1.31 
  -4   1  -2   78.99    1.73 
   5  -1   2   38.95    1.03 
   5  -1   2   38.25    0.96 
   5  -1   2   40.30    0.82 
  -5   1  -2   42.67    0.77 
   5   1   2   42.66    0.62 
  -5   1  -2   43.16    0.76 
  -5   1  -2   42.93    1.13 
   6  -1   2   39.52    1.17 
  -6  -1  -2   40.24    0.55 
   6  -1   2   40.09    0.89 
   6  -1   2   41.33    1.10 
   6   1   2   44.76    0.75 
  -6   1  -2   41.28    0.93 
  -6   1  -2   41.43    1.04 
  -6   1  -2   42.22    0.75 
  -7  -1  -2    0.20    0.11 
   7  -1   2    0.19    0.29 
  -7   1  -2    0.43    0.14 
   7   1   2    0.28    0.19 
  -7   1  -2    0.11    0.33 
  -8  -1  -2   38.53    1.19 
  -8  -1  -2   37.88    0.96 
  -8  -1  -2   38.20    0.40 
  -8  -1  -2   37.95    0.54 
  -8  -1  -2   38.38    0.63 
  -8   1  -2   38.75    0.77 
  -8   1  -2   37.06    0.75 
  -8   1  -2   37.20    0.71 
  -8   1  -2   38.36    0.66 
  -8   1  -2   36.82    0.69 
  -8   1  -2   37.80    0.44 
  -8   1  -2   37.71    0.95 
  -8   1  -2   37.63    0.77 
  -8   1  -2   38.64    1.05 
  -9  -1  -2   22.79    0.42 
  -9  -1  -2   22.10    0.33 
  -9  -1  -2   22.28    0.27 
  -9  -1  -2   22.05    0.31 
  -9  -1  -2   22.20    0.72 
  -9   1  -2   21.22    0.49 
  -9   1  -2   21.84    0.80 
  -9   1  -2   23.48    0.72 
  -9   1  -2   21.63    0.49 
  -9   1  -2   22.45    0.46 
  -9   1  -2   22.39    0.53 
 -10  -1  -2    2.96    0.10 
 -10  -1  -2    3.23    0.36 
 -10   1  -2    2.45    0.33 
 -10   1  -2    2.79    0.18 
 -10   1  -2    2.57    0.19 
 -11  -2   2    5.45    0.08 
  11  -2  -2    5.24    0.41 
 -11   2   2    5.42    0.24 
 -11   2   2    5.69    0.26 
 -11   2   2    5.68    0.25 
 -11   2   2    5.97    0.26 
 -11   2   2    5.82    0.39 
 -11   2   2    5.51    0.23 
 -10  -2   2   22.19    0.62 
 -10  -2   2   21.21    0.69 
 -10  -2   2   22.45    0.23 
  10  -2  -2   23.67    0.71 
  10  -2  -2   22.64    0.72 
 -10   2   2   22.12    0.68 
 -10   2   2   20.26    0.74 
 -10   2   2   22.09    0.55 
 -10   2   2   21.95    0.49 
 -10   2   2   22.38    0.55 
 -10   2   2   21.99    0.29 
 -10   2   2   22.00    0.53 
 -10   2   2   22.01    0.55 
  -9  -2   2   22.31    0.23 
  -9  -2   2   23.26    0.74 
   9  -2  -2   22.02    0.67 
  -9  -2   2   22.42    0.66 
   9  -2  -2   21.80    0.72 
  -9   2   2   22.82    0.81 
  -9   2   2   22.09    0.60 
  -9   2   2   22.90    0.60 
  -9   2   2   22.42    0.57 
  -9   2   2   22.18    0.50 
  -9   2   2   22.47    0.57 
  -9   2   2   22.06    0.43 
  -9   2   2   22.22    0.81 
  -9   2   2   22.58    0.52 
  -8  -2   2   24.05    0.79 
  -8  -2   2   24.24    0.30 
   8  -2  -2   23.99    0.69 
   8  -2  -2   23.78    0.73 
  -8   2   2   23.70    0.59 
  -8   2   2   22.92    0.70 
  -8   2   2   23.43    0.83 
  -8   2   2   24.47    0.82 
   7  -2  -2   76.71    1.34 
  -7  -2   2   74.88    1.42 
  -7  -2   2   76.27    0.74 
   7  -2  -2   76.23    2.00 
  -7   2   2   80.13    1.63 
  -7   2   2   78.77    1.37 
  -7   2   2   78.53    1.52 
  -7   2   2   74.43    1.50 
   6  -2  -2   15.65    0.83 
   6  -2  -2   15.06    0.75 
  -6   2   2   14.19    0.68 
  -6   2   2   14.23    0.61 
  -6   2   2   14.69    0.50 
  -6   2   2   15.52    0.50 
  -6   2   2   14.42    0.57 
   5  -2  -2    4.52    0.46 
   5  -2  -2    4.42    0.38 
   5  -2  -2    5.18    0.43 
  -5   2   2    4.87    0.51 
  -5   2   2    5.40    0.36 
  -5   2   2    4.87    0.38 
  -5   2   2    4.62    0.43 
  -5   2   2    4.54    0.38 
  -5   2   2    4.69    0.34 
  -5   2   2    5.03    0.32 
   4  -2  -2    6.22    0.47 
   4  -2  -2    6.49    0.45 
   4  -2  -2    6.38    0.65 
  -4   2   2    7.24    0.39 
  -4   2   2    8.50    0.54 
  -4   2   2    7.60    0.38 
  -4   2   2    6.16    0.46 
  -4   2   2    7.19    0.43 
   3  -2  -2   19.37    0.83 
   3  -2  -2   19.92    0.90 
   3  -2  -2   20.25    0.71 
   3  -2  -2   20.42    0.63 
   3   2  -2   22.53    0.55 
  -3   2   2   21.52    0.75 
  -3   2   2   22.07    0.62 
   3   2  -2   21.69    0.58 
  -3   2   2   21.66    0.77 
  -3   2   2   22.77    0.63 
  -3   2   2   21.81    0.69 
   3   2  -2   22.05    0.36 
   2  -2  -2   36.25    1.07 
   2  -2  -2   35.42    0.84 
   2  -2  -2   34.76    1.10 
  -2  -2   2   34.79    0.75 
  -2  -2   2   34.87    0.78 
   2  -2  -2   35.51    0.95 
   2  -2  -2   34.75    0.74 
   2   2  -2   39.81    0.61 
  -2   2   2   38.12    0.84 
  -2   2   2   37.98    0.89 
   2   2  -2   39.74    0.83 
   2   2  -2   40.36    0.88 
  -2   2   2   39.46    1.00 
  -2   2   2   39.17    1.00 
   1  -2  -2   75.23    1.66 
   1  -2  -2   73.10    1.24 
   1  -2  -2   78.07    1.45 
  -1  -2   2   76.60    1.43 
   1  -2  -2   73.35    1.31 
   1  -2  -2   74.34    1.69 
  -1  -2   2   78.01    1.42 
  -1  -2   2   75.34    1.23 
   1   2  -2   84.43    1.51 
   1   2  -2   81.80    1.39 
  -1   2   2   82.00    1.60 
   1   2  -2   80.43    1.05 
  -1   2   2   83.13    1.32 
  -1   2   2   80.37    1.44 
  -1   2   2   83.18    1.04 
   0  -2  -2  140.68    2.08 
   0  -2   2  143.67    2.06 
   0  -2   2  142.51    2.48 
   0  -2   2  140.01    2.40 
   0  -2   2  143.37    2.23 
   0  -2   2  142.32    2.21 
   0  -2  -2  142.50    2.68 
   0  -2  -2  143.18    2.61 
   0   2   2  157.91    1.73 
   0   2  -2  154.79    2.92 
   0   2  -2  155.28    2.34 
   0   2  -2  156.73    2.58 
   0   2   2  156.64    2.37 
   0   2   2  156.90    2.19 
   1  -2   2   39.64    0.82 
   1  -2   2   39.68    1.04 
   1  -2   2   40.16    1.00 
  -1  -2  -2   39.95    1.11 
  -1  -2  -2   39.81    1.07 
   1  -2   2   39.98    0.91 
  -1   2  -2   45.16    1.06 
  -1   2  -2   43.63    1.00 
  -1   2  -2   44.17    1.28 
   1   2   2   44.31    0.59 
   1   2   2   44.91    0.85 
  -1   2  -2   43.77    1.31 
   1   2   2   45.05    0.78 
   2  -2   2  309.40    5.18 
   2  -2   2  316.85    4.22 
   2  -2   2  311.61    4.60 
   2  -2   2  313.31    4.97 
  -2   2  -2  338.99    4.91 
  -2   2  -2  335.59    5.75 
   2   2   2  337.09    3.43 
  -2   2  -2  345.37    5.11 
  -2   2  -2  328.95    5.54 
  -2   2  -2  342.85    4.66 
   2   2   2  336.57    4.24 
   3  -2   2  112.20    1.88 
   3  -2   2  111.67    2.04 
   3  -2   2  112.58    1.87 
  -3   2  -2  123.54    2.03 
  -3   2  -2  122.63    2.36 
  -3   2  -2  118.77    2.53 
   3   2   2  122.21    1.27 
  -3   2  -2  117.81    2.05 
  -3   2  -2  120.15    2.54 
   4  -2   2   30.96    0.97 
   4  -2   2   30.75    0.79 
   4  -2   2   32.16    0.88 
  -4   2  -2   32.49    0.98 
  -4   2  -2   33.66    0.79 
  -4   2  -2   33.41    1.18 
  -4   2  -2   33.00    0.85 
  -4   2  -2   33.79    0.81 
  -5  -2  -2   21.25    0.36 
   5  -2   2   21.89    0.81 
   5  -2   2   21.78    0.88 
  -5   2  -2   21.43    0.80 
  -5   2  -2   24.51    0.99 
  -5   2  -2   22.66    0.78 
  -5   2  -2   22.18    0.78 
  -5   2  -2   24.84    0.81 
  -5   2  -2   22.61    0.61 
  -5   2  -2   21.73    0.59 
   5   2   2   22.51    0.35 
   6  -2   2    7.43    0.44 
  -6  -2  -2    7.58    0.19 
  -6   2  -2    8.09    0.52 
  -6   2  -2    7.37    0.54 
   6   2   2    8.24    0.24 
  -6   2  -2    7.09    0.49 
  -6   2  -2    7.68    0.29 
  -6   2  -2    8.75    0.58 
   7  -2   2   21.94    0.72 
   7  -2   2   21.54    0.66 
  -7  -2  -2   21.85    0.30 
  -7   2  -2   22.60    0.83 
  -7   2  -2   23.84    0.63 
  -7   2  -2   24.04    0.76 
   8  -2   2    0.86    0.30 
  -8  -2  -2    0.80    0.24 
   8  -2   2    0.41    0.26 
  -8  -2  -2    0.65    0.31 
  -8  -2  -2    1.03    0.07 
  -8   2  -2    0.68    0.17 
  -8   2  -2    0.65    0.20 
  -8   2  -2    1.05    0.40 
  -8   2  -2    0.74    0.18 
  -8   2  -2    0.82    0.21 
  -8   2  -2    0.62    0.14 
  -8   2  -2    0.78    0.20 
  -8   2  -2    0.49    0.15 
  -8   2  -2    0.67    0.23 
  -8   2  -2    0.44    0.12 
  -8   2  -2    0.92    0.20 
  -8   2  -2    0.77    0.16 
  -8   2  -2    0.73    0.16 
   9  -2   2    2.66    0.40 
   9  -2   2    3.69    0.47 
  -9  -2  -2    3.42    0.36 
  -9  -2  -2    3.33    0.09 
  -9  -2  -2    3.44    0.45 
  -9   2  -2    3.23    0.27 
  -9   2  -2    3.28    0.25 
  -9   2  -2    3.27    0.36 
  -9   2  -2    3.16    0.24 
  -9   2  -2    3.21    0.26 
  -9   2  -2    3.38    0.26 
  -9   2  -2    2.35    0.24 
  -9   2  -2    2.96    0.25 
  -9   2  -2    2.80    0.40 
 -10  -2  -2    2.94    0.06 
 -10   2  -2    2.69    0.30 
 -10   2  -2    3.14    0.21 
 -10   2  -2    3.10    0.20 
 -10   2  -2    2.74    0.21 
 -10   2  -2    2.63    0.20 
  11  -3  -2    4.94    0.28 
 -11   3   2    4.08    0.22 
 -11   3   2    4.39    0.22 
 -11   3   2    4.49    0.31 
 -11   3   2    4.48    0.21 
  10  -3  -2    0.94    0.27 
  10  -3  -2    0.67    0.27 
 -10   3   2    0.97    0.21 
 -10   3   2    0.82    0.13 
 -10   3   2    0.65    0.17 
 -10   3   2    0.81    0.17 
 -10   3   2    1.34    0.17 
 -10   3   2    0.86    0.16 
 -10   3   2    0.66    0.21 
 -10   3   2    0.79    0.18 
 -10   3   2    1.11    0.25 
  -9  -3   2    0.24    0.20 
   9  -3  -2    0.00    0.24 
   9  -3  -2    0.17    0.27 
  -9  -3   2    0.23    0.03 
  -9   3   2    0.32    0.11 
  -9   3   2    0.89    0.24 
  -9   3   2   -0.05    0.22 
  -9   3   2    0.37    0.20 
  -9   3   2    0.04    0.34 
  -9   3   2    0.25    0.19 
  -9   3   2    0.09    0.21 
  -9   3   2    0.26    0.22 
  -9   3   2    0.46    0.17 
  -9   3   2    0.34    0.13 
  -9   3   2    0.23    0.18 
   8  -3  -2   13.47    0.87 
   8  -3  -2   14.44    0.57 
   8  -3  -2   14.63    0.65 
  -8  -3   2   14.28    0.15 
  -8  -3   2   14.43    0.52 
  -8   3   2   14.50    0.69 
  -8   3   2   13.70    0.41 
  -8   3   2   13.44    0.45 
  -8   3   2   12.48    0.49 
  -8   3   2   12.44    0.50 
  -8   3   2   13.77    0.63 
  -8   3   2   14.41    0.39 
  -8   3   2   13.45    0.50 
  -8   3   2   13.80    0.44 
  -8   3   2   14.31    0.65 
  -7  -3   2  385.99    3.27 
   7  -3  -2  387.03    5.17 
   7  -3  -2  385.76    5.20 
  -7  -3   2  384.65    3.29 
   7  -3  -2  394.19    5.83 
  -7   3   2  414.34    6.09 
  -7   3   2  415.25    6.38 
  -7   3   2  417.60    6.64 
  -7   3   2  435.12    6.25 
  -7   3   2  415.80    6.00 
   6  -3  -2   28.52    1.14 
   6  -3  -2   27.66    0.96 
  -6  -3   2   28.44    0.36 
   6  -3  -2   28.49    0.71 
   6  -3  -2   30.30    1.26 
  -6   3   2   32.55    0.99 
   6   3  -2   31.49    0.55 
  -6   3   2   32.86    0.97 
  -6   3   2   32.46    1.01 
  -6   3   2   31.89    1.21 
  -6   3   2   34.36    0.90 
  -6   3   2   33.54    0.89 
  -6   3   2   33.06    0.93 
   5  -3  -2    1.57    0.40 
   5  -3  -2    0.71    0.32 
  -5  -3   2    0.83    0.11 
   5  -3  -2    0.64    0.29 
  -5   3   2    0.46    0.32 
  -5   3   2    1.16    0.36 
  -5   3   2    0.76    0.27 
  -5   3   2    1.29    0.26 
  -5   3   2    0.65    0.26 
  -5   3   2    0.45    0.30 
   5   3  -2    0.93    0.16 
  -5   3   2    0.66    0.23 
   4  -3  -2    0.29    0.36 
   4  -3  -2    0.05    0.26 
   4  -3  -2   -0.37    0.36 
   4  -3  -2    0.15    0.28 
   4  -3  -2   -0.03    0.23 
   4  -3  -2   -0.60    0.31 
  -4   3   2   -0.23    0.23 
   4   3  -2    0.06    0.12 
  -4   3   2   -0.08    0.26 
  -4   3   2   -0.05    0.22 
  -4   3   2   -0.13    0.17 
  -4   3   2    0.36    0.26 
  -4   3   2   -0.02    0.21 
   3  -3  -2  135.93    2.61 
   3  -3  -2  134.55    2.95 
   3  -3  -2  135.83    2.27 
   3  -3  -2  135.07    2.23 
   3  -3  -2  139.51    3.00 
   3  -3  -2  134.74    2.72 
   3   3  -2  144.49    2.25 
  -3   3   2  156.96    3.00 
  -3   3   2  146.71    2.37 
  -3   3   2  152.16    2.48 
  -3   3   2  148.95    2.77 
  -3   3   2  149.20    2.29 
  -3   3   2  157.90    2.67 
  -3   3   2  146.64    2.95 
   3   3  -2  149.12    1.78 
  -2  -3   2  316.94    5.12 
   2  -3  -2  323.06    5.39 
   2  -3  -2  322.07    4.72 
   2  -3  -2  326.80    5.70 
   2  -3  -2  325.92    5.59 
   2  -3  -2  316.54    4.88 
   2   3  -2  353.96    5.09 
  -2   3   2  348.38    4.74 
   2   3  -2  347.61    4.66 
   2   3  -2  344.49    3.74 
  -2   3   2  344.49    5.16 
  -1  -3   2   70.08    1.22 
   1  -3  -2   69.13    1.73 
   1  -3  -2   65.97    1.23 
   1  -3  -2   65.90    1.79 
  -1  -3   2   70.16    1.53 
   1  -3  -2   70.71    1.25 
  -1  -3   2   68.61    1.48 
  -1  -3   2   69.74    1.36 
   1  -3  -2   69.20    1.64 
  -1  -3   2   70.49    1.18 
   1   3  -2   77.20    1.60 
   1   3  -2   79.94    1.49 
   1   3  -2   78.58    1.13 
  -1   3   2   78.00    1.43 
  -1   3   2   79.04    1.54 
  -1   3   2   78.67    1.11 
   0  -3   2    7.08    0.48 
   0  -3  -2    7.55    0.61 
   0  -3   2    7.30    0.36 
   0  -3  -2    7.03    0.59 
   0  -3   2    7.25    0.43 
   0  -3  -2    7.55    0.27 
   0  -3   2    7.88    0.53 
   0  -3   2    7.02    0.33 
   0  -3  -2    6.75    0.57 
   0   3   2    8.29    0.30 
   0   3   2    8.09    0.43 
   0   3  -2    9.60    0.53 
   0   3  -2    8.78    0.54 
   0   3   2    8.50    0.41 
   1  -3   2   27.46    0.70 
   1  -3   2   27.72    0.97 
   1  -3   2   27.66    0.81 
   1  -3   2   27.34    0.72 
  -1  -3  -2   25.98    0.94 
   1  -3   2   28.43    0.92 
   1   3   2   31.94    0.56 
   1   3   2   32.26    0.78 
   1   3   2   31.80    0.73 
  -1   3  -2   31.29    1.03 
  -1   3  -2   31.79    1.22 
  -1   3  -2   31.68    0.93 
   2  -3   2   20.67    0.92 
   2  -3   2   20.56    0.77 
   2  -3   2   20.88    0.77 
   2  -3   2   19.22    0.84 
   2  -3   2   19.99    0.60 
   2  -3   2   19.58    0.70 
  -2   3  -2   22.61    0.85 
  -2   3  -2   22.48    0.91 
  -2   3  -2   22.29    0.97 
  -2   3  -2   20.87    0.75 
   2   3   2   22.83    0.43 
  -2   3  -2   22.36    1.06 
  -2   3  -2   22.35    0.69 
  -2   3  -2   22.65    0.95 
   3  -3   2   22.63    0.86 
   3  -3   2   23.03    0.68 
   3  -3   2   24.13    0.86 
   3  -3   2   23.31    0.82 
  -3   3  -2   27.35    1.07 
   3   3   2   27.05    0.46 
  -3   3  -2   26.16    0.82 
  -3   3  -2   28.70    1.08 
  -3   3  -2   26.63    0.81 
  -3   3  -2   27.52    0.77 
  -3   3  -2   27.17    1.11 
  -4  -3  -2   14.03    0.33 
   4  -3   2   14.61    0.76 
   4  -3   2   15.21    0.72 
   4  -3   2   14.63    0.59 
   4  -3   2   15.34    0.75 
  -4   3  -2   17.12    0.83 
   4   3   2   17.29    0.34 
  -4   3  -2   18.33    0.89 
  -4   3  -2   16.97    0.67 
  -4   3  -2   17.08    0.64 
  -4   3  -2   17.69    0.94 
  -4   3  -2   17.01    0.58 
  -4   3  -2   16.86    0.66 
  -4   3  -2   16.08    0.62 
  -4   3  -2   16.49    0.82 
   5  -3   2    1.39    0.40 
   5  -3   2    1.90    0.43 
  -5  -3  -2    1.29    0.16 
   5  -3   2    1.51    0.35 
   5  -3   2    1.87    0.38 
  -5   3  -2    1.67    0.41 
  -5   3  -2    1.55    0.31 
  -5   3  -2    1.72    0.28 
  -5   3  -2    2.00    0.50 
  -5   3  -2    1.58    0.45 
  -5   3  -2    1.97    0.41 
   5   3   2    1.93    0.15 
  -5   3  -2    2.22    0.50 
   6  -3   2   12.85    0.62 
  -6  -3  -2   12.89    0.19 
   6  -3   2   12.16    0.53 
   6  -3   2   13.30    0.69 
  -6   3  -2   13.16    0.64 
  -6   3  -2   13.41    0.52 
  -6   3  -2   14.21    0.68 
  -6   3  -2   14.21    0.71 
  -6   3  -2   14.05    0.73 
  -7  -3  -2    1.71    0.42 
   7  -3   2    2.99    0.47 
  -7  -3  -2    2.25    0.07 
   7  -3   2    2.22    0.43 
   7  -3   2    2.24    0.40 
  -7   3  -2    2.95    0.48 
  -7   3  -2    2.72    0.29 
  -7   3  -2    2.57    0.26 
  -7   3  -2    2.82    0.21 
  -7   3  -2    2.59    0.45 
  -7   3  -2    2.88    0.29 
  -7   3  -2    2.84    0.34 
  -7   3  -2    2.26    0.34 
  -7   3  -2    2.37    0.33 
  -7   3  -2    2.13    0.29 
  -7   3  -2    2.31    0.27 
  -7   3  -2    2.31    0.46 
  -8  -3  -2   16.14    0.17 
  -8  -3  -2   15.56    0.69 
   8  -3   2   17.11    0.73 
   8  -3   2   16.24    0.65 
  -8   3  -2   18.02    0.56 
  -8   3  -2   17.63    0.54 
  -8   3  -2   18.63    0.75 
  -8   3  -2   18.76    0.57 
  -8   3  -2   18.16    0.52 
  -8   3  -2   19.37    0.52 
  -8   3  -2   18.72    0.55 
  -8   3  -2   17.75    0.55 
  -8   3  -2   18.00    0.43 
  -8   3  -2   18.12    0.49 
   9  -3   2    1.75    0.34 
   9  -3   2    1.90    0.37 
  -9   3  -2    2.36    0.15 
  -9   3  -2    2.28    0.12 
  -9   3  -2    2.62    0.29 
  -9   3  -2    2.75    0.28 
  -9   3  -2    2.36    0.26 
  -9   3  -2    2.32    0.22 
  -9   3  -2    2.25    0.24 
  -9   3  -2    2.31    0.23 
  -9   3  -2    2.05    0.30 
  10  -3   2    9.51    0.31 
 -10   3  -2   11.27    0.27 
 -10   3  -2   11.28    0.31 
 -10   3  -2   11.72    0.31 
  10  -4  -2    0.21    0.25 
  10  -4  -2    0.22    0.14 
 -10   4   2    0.08    0.09 
 -10   4   2    0.01    0.13 
 -10   4   2    0.19    0.15 
 -10   4   2    0.25    0.15 
 -10   4   2    0.11    0.10 
 -10   4   2    0.42    0.08 
 -10   4   2   -0.23    0.17 
 -10   4   2    0.02    0.10 
 -10   4   2    0.01    0.12 
   9  -4  -2    4.67    0.39 
   9  -4  -2    5.27    0.32 
   9  -4  -2    5.22    0.59 
   9  -4  -2    6.32    0.88 
   9  -4  -2    4.77    0.44 
  -9   4   2    5.25    0.34 
  -9   4   2    6.06    0.37 
  -9   4   2    5.85    0.26 
  -9   4   2    5.97    0.34 
  -9   4   2    5.97    0.36 
  -9   4   2    4.96    0.47 
  -9   4   2    5.53    0.25 
  -9   4   2    5.49    0.22 
  -9   4   2    5.86    0.36 
   8  -4  -2   25.10    0.58 
   8  -4  -2   26.57    0.82 
   8  -4  -2   24.19    0.76 
   8  -4  -2   24.84    0.94 
   8  -4  -2   24.17    1.24 
  -8   4   2   26.82    0.57 
  -8   4   2   26.26    0.71 
  -8   4   2   26.19    0.58 
  -8   4   2   26.32    0.69 
  -8   4   2   26.90    0.92 
  -8   4   2   26.20    0.56 
  -8   4   2   26.48    0.94 
  -8   4   2   26.93    0.73 
   7  -4  -2   47.16    0.83 
  -7  -4   2   47.27    0.41 
   7  -4  -2   48.46    1.13 
   7  -4  -2   47.26    1.03 
   7  -4  -2   46.24    1.25 
   7  -4  -2   46.80    1.59 
   7  -4  -2   46.84    1.45 
  -7   4   2   54.47    1.38 
  -7   4   2   53.26    1.38 
  -7   4   2   54.26    1.15 
  -7   4   2   53.49    2.01 
  -7   4   2   53.95    1.23 
  -7   4   2   53.51    0.93 
  -7   4   2   52.91    1.38 
  -7   4   2   54.40    1.14 
  -7   4   2   54.67    1.14 
   6  -4  -2   44.66    1.05 
  -6  -4   2   45.64    0.56 
   6  -4  -2   45.70    1.00 
   6  -4  -2   46.26    1.38 
   6  -4  -2   45.45    1.51 
  -6   4   2   52.15    1.46 
  -6   4   2   50.56    1.29 
  -6   4   2   52.75    1.32 
  -6   4   2   52.20    1.35 
  -6   4   2   52.62    1.26 
   5  -4  -2   45.27    1.62 
   5  -4  -2   45.36    1.60 
   5  -4  -2   44.78    1.43 
   5  -4  -2   45.72    1.31 
   5  -4  -2   43.83    0.99 
  -5  -4   2   44.94    0.60 
  -5   4   2   54.71    1.41 
   5   4  -2   54.36    0.89 
  -5   4   2   56.89    1.57 
  -5   4   2   53.96    1.35 
  -5   4   2   54.57    1.27 
  -5   4   2   52.53    1.28 
  -5   4   2   53.08    1.14 
  -4  -4   2   22.29    0.61 
   4  -4  -2   22.53    0.81 
   4  -4  -2   22.21    1.29 
  -4  -4   2   22.09    0.42 
   4  -4  -2   22.18    1.11 
   4  -4  -2   21.34    1.01 
   4  -4  -2   22.25    1.12 
   4  -4  -2   23.22    0.89 
  -4   4   2   22.45    0.55 
  -4   4   2   23.06    0.93 
   4   4  -2   23.07    0.55 
  -4   4   2   23.13    0.81 
  -4   4   2   22.55    1.01 
  -4   4   2   22.74    0.75 
  -4   4   2   23.30    0.70 
   3  -4  -2    5.88    0.56 
   3  -4  -2    4.91    0.71 
   3  -4  -2    5.73    0.42 
   3  -4  -2    5.34    0.69 
   3  -4  -2    5.05    0.37 
  -3  -4   2    4.76    0.22 
   3  -4  -2    4.61    0.59 
   3  -4  -2    5.94    0.74 
   3  -4  -2    4.99    0.66 
  -3   4   2    5.54    0.42 
   3   4  -2    5.24    0.30 
  -3   4   2    5.92    0.52 
  -3   4   2    6.93    0.57 
  -3   4   2    5.55    0.50 
  -3   4   2    6.03    0.45 
   2  -4  -2   14.59    0.92 
   2  -4  -2   14.28    0.52 
  -2  -4   2   14.40    0.41 
   2  -4  -2   13.78    0.83 
   2  -4  -2   14.52    0.50 
  -2   4   2   16.79    0.61 
   2   4  -2   15.32    0.69 
   2   4  -2   16.17    0.50 
  -2   4   2   17.87    0.79 
  -2   4   2   16.03    0.69 
   2   4  -2   17.10    0.69 
  -1  -4   2    7.05    0.53 
   1  -4  -2    5.82    0.68 
   1  -4  -2    6.63    0.66 
   1  -4  -2    6.97    0.35 
  -1  -4   2    6.52    0.31 
   1   4  -2    7.83    0.59 
  -1   4   2    7.76    0.49 
   1   4  -2    7.48    0.37 
  -1   4   2    7.65    0.55 
   1   4  -2    7.00    0.51 
   0  -4   2   42.50    0.92 
   0  -4  -2   38.09    1.42 
   0  -4   2   41.41    1.29 
   0  -4  -2   40.83    0.76 
   0  -4   2   41.35    0.93 
   0  -4   2   41.65    1.14 
   0   4   2   47.42    1.21 
   0   4   2   48.16    0.88 
   0   4   2   47.05    1.14 
   0   4  -2   47.22    1.25 
   0   4  -2   51.35    1.41 
  -1  -4  -2   36.11    0.71 
   1  -4   2   34.83    1.24 
   1  -4   2   36.45    1.09 
   1  -4   2   36.21    0.88 
   1  -4   2   36.64    0.93 
   1   4   2   43.46    0.79 
   1   4   2   41.38    1.06 
  -1   4  -2   43.43    1.33 
  -1   4  -2   41.79    1.14 
  -1   4  -2   41.96    1.08 
   1   4   2   42.54    1.00 
  -1   4  -2   41.05    1.19 
   2  -4   2   11.53    0.80 
   2  -4   2   10.75    0.66 
   2  -4   2   10.13    0.63 
   2  -4   2   10.13    0.48 
   2  -4   2   10.22    0.65 
  -2  -4  -2   10.19    0.39 
   2  -4   2   10.97    0.53 
   2  -4   2   10.67    0.56 
   2  -4   2    9.91    0.63 
  -2  -4  -2   10.42    0.31 
  -2   4  -2   11.26    0.74 
  -2   4  -2   12.00    0.71 
  -2   4  -2   11.32    0.70 
  -2   4  -2   12.26    0.58 
  -2   4  -2   12.58    0.65 
   2   4   2   11.76    0.39 
   3  -4   2   25.51    0.92 
   3  -4   2   26.01    0.89 
   3  -4   2   24.21    1.16 
  -3  -4  -2   25.76    0.56 
   3  -4   2   26.24    1.04 
  -3  -4  -2   25.58    0.54 
   3  -4   2   23.92    0.90 
   3  -4   2   27.81    0.85 
  -3   4  -2   30.91    1.21 
   3   4   2   30.09    0.62 
  -3   4  -2   30.87    0.94 
  -3   4  -2   29.76    0.64 
  -3   4  -2   32.87    1.04 
  -3   4  -2   29.91    1.01 
  -3   4  -2   29.82    1.25 
   4  -4   2   25.29    0.80 
   4  -4   2   26.31    1.12 
   4  -4   2   25.35    0.97 
   4  -4   2   24.13    0.86 
  -4  -4  -2   25.16    0.51 
  -4   4  -2   27.81    1.15 
  -4   4  -2   27.94    0.98 
  -4   4  -2   26.41    0.79 
  -4   4  -2   27.25    1.05 
  -4   4  -2   28.62    0.92 
  -4   4  -2   28.32    0.97 
   4   4   2   27.17    0.57 
   5  -4   2   12.53    0.56 
   5  -4   2   12.60    0.78 
   5  -4   2   12.33    0.65 
   5  -4   2   13.71    0.66 
  -5  -4  -2   12.82    0.32 
   5  -4   2   14.36    0.73 
  -5   4  -2   14.33    0.63 
  -5   4  -2   14.96    0.80 
  -5   4  -2   13.85    0.52 
  -5   4  -2   15.49    0.73 
  -5   4  -2   15.16    0.88 
  -5   4  -2   14.73    0.84 
   6  -4   2    5.14    0.57 
  -6  -4  -2    5.62    0.12 
   6  -4   2    5.91    0.66 
   6  -4   2    6.06    0.69 
   6  -4   2    6.09    0.55 
   6  -4   2    6.14    0.47 
   6  -4   2    5.68    0.39 
  -6   4  -2    5.69    0.35 
  -6   4  -2    5.70    0.58 
  -6   4  -2    5.81    0.47 
  -6   4  -2    5.05    0.28 
  -6   4  -2    4.80    0.61 
  -6   4  -2    4.81    0.51 
  -6   4  -2    5.43    0.45 
  -6   4  -2    5.10    0.39 
  -6   4  -2    5.83    0.36 
   7  -4   2    4.12    0.45 
  -7  -4  -2    3.92    0.08 
   7  -4   2    4.02    0.35 
   7  -4   2    4.16    0.37 
   7  -4   2    3.23    0.64 
   7  -4   2    2.84    0.62 
  -7   4  -2    5.03    0.54 
  -7   4  -2    5.19    0.27 
  -7   4  -2    4.77    0.51 
  -7   4  -2    4.65    0.34 
  -7   4  -2    4.52    0.56 
  -7   4  -2    4.91    0.38 
  -7   4  -2    4.87    0.26 
  -7   4  -2    5.04    0.40 
  -7   4  -2    4.49    0.37 
  -7   4  -2    4.52    0.29 
   8  -4   2    2.24    0.54 
   8  -4   2    2.28    0.32 
   8  -4   2    2.84    0.40 
   8  -4   2    2.75    0.44 
  -8   4  -2    2.66    0.19 
  -8   4  -2    3.03    0.17 
  -8   4  -2    2.66    0.32 
  -8   4  -2    2.92    0.30 
  -8   4  -2    3.14    0.29 
  -8   4  -2    3.10    0.30 
  -8   4  -2    2.61    0.30 
  -8   4  -2    3.05    0.32 
  -8   4  -2    2.75    0.24 
  -8   4  -2    2.83    0.30 
   9  -4   2   13.33    0.35 
   9  -4   2   13.31    0.58 
   9  -4   2   13.28    0.62 
  -9   4  -2   13.93    0.23 
  -9   4  -2   13.84    0.36 
  -9   4  -2   14.14    0.39 
  -9   4  -2   13.83    0.47 
  -9   4  -2   13.96    0.39 
  -9   4  -2   13.89    0.21 
  -9   4  -2   13.88    0.41 
  -9   4  -2   14.81    0.36 
   9  -5  -2    1.17    0.54 
   9  -5  -2    0.58    0.25 
   9  -5  -2    0.77    0.26 
  -9   5   2    0.92    0.23 
  -9   5   2    1.34    0.25 
  -9   5   2    1.03    0.13 
  -9   5   2    0.81    0.16 
  -9   5   2    0.75    0.16 
  -9   5   2    1.06    0.20 
  -8  -5   2   12.76    0.13 
   8  -5  -2   13.32    0.95 
   8  -5  -2   12.56    0.36 
   8  -5  -2   11.66    0.65 
  -8  -5   2   12.83    0.13 
   8  -5  -2   13.13    0.68 
  -8   5   2   13.63    0.40 
  -8   5   2   13.46    0.48 
  -8   5   2   13.60    0.39 
  -8   5   2   14.25    0.51 
   7  -5  -2    9.47    0.68 
   7  -5  -2   11.22    0.35 
   7  -5  -2   12.30    0.97 
   7  -5  -2   10.48    0.65 
  -7  -5   2   10.79    0.15 
  -7   5   2   11.97    0.52 
  -7   5   2   12.12    0.55 
  -7   5   2   12.43    0.49 
  -7   5   2   12.20    0.68 
   6  -5  -2    4.38    0.67 
   6  -5  -2    5.66    0.93 
   6  -5  -2    4.40    0.47 
   6  -5  -2    3.60    0.62 
  -6  -5   2    4.25    0.21 
  -6  -5   2    4.39    0.11 
   6  -5  -2    4.20    0.27 
  -6  -5   2    4.75    0.22 
  -6   5   2    4.85    0.47 
  -6   5   2    5.42    1.13 
  -6   5   2    4.27    0.50 
  -6   5   2    4.47    0.38 
  -6   5   2    5.67    0.88 
  -6   5   2    3.89    0.44 
  -6   5   2    4.35    0.52 
   5  -5  -2   13.04    0.88 
   5  -5  -2   12.91    1.06 
   5  -5  -2   11.79    0.73 
  -5  -5   2   11.21    0.28 
  -5  -5   2   10.48    0.35 
   5  -5  -2   11.56    1.03 
   5  -5  -2   10.92    0.62 
   5  -5  -2   10.92    0.56 
   5  -5  -2   11.05    0.78 
  -5  -5   2   11.40    0.35 
  -5   5   2   13.65    0.70 
  -5   5   2   13.51    0.55 
  -5   5   2   13.08    0.52 
  -5   5   2   12.60    0.62 
  -5   5   2   12.90    0.41 
  -5   5   2   12.98    0.79 
  -5   5   2   13.43    0.85 
  -5   5   2   13.92    0.72 
   4  -5  -2    1.90    0.33 
  -4  -5   2    1.80    0.25 
   4  -5  -2    1.52    0.42 
   4  -5  -2    1.56    0.53 
   4  -5  -2    1.27    0.65 
   4  -5  -2    2.26    0.64 
  -4  -5   2    1.40    0.24 
  -4   5   2    1.44    0.35 
  -4   5   2    1.54    0.31 
  -4   5   2    1.38    0.28 
  -4   5   2    2.74    0.56 
  -4   5   2    1.61    0.42 
  -4   5   2    1.71    0.27 
  -3  -5   2    5.55    0.37 
   3  -5  -2    6.82    0.84 
   3  -5  -2    6.35    0.81 
   3  -5  -2    5.55    0.85 
   3  -5  -2    6.63    0.42 
  -3   5   2    6.66    0.63 
  -3   5   2    7.25    0.56 
  -3   5   2    6.51    0.52 
  -3   5   2    6.82    0.37 
  -3   5   2    7.02    0.37 
   2  -5  -2    1.36    0.56 
  -2  -5   2    0.89    0.20 
  -2  -5   2    1.49    0.27 
   2  -5  -2    1.93    0.25 
   2  -5  -2    2.10    0.31 
   2  -5  -2    1.35    0.48 
   2  -5  -2    2.34    0.64 
  -2   5   2    2.10    0.28 
  -2   5   2    1.91    0.30 
  -2   5   2    2.18    0.43 
   2   5  -2    2.13    0.36 
  -1  -5   2    4.40    0.39 
   1  -5  -2    4.20    0.57 
  -1  -5   2    3.91    0.56 
  -1  -5   2    4.77    0.57 
   1  -5  -2    5.22    0.78 
   1  -5  -2    4.26    0.34 
  -1  -5   2    4.10    0.33 
   1  -5  -2    3.86    0.26 
   1   5  -2    4.56    0.31 
  -1   5   2    4.27    0.30 
   1   5  -2    4.50    0.29 
  -1   5   2    4.29    0.30 
   0  -5   2   54.30    1.08 
   0  -5  -2   55.04    1.48 
   0  -5   2   56.51    1.43 
   0  -5  -2   54.45    1.03 
   0  -5   2   54.56    1.12 
   0  -5  -2   54.72    1.09 
   0  -5  -2   56.86    1.61 
   0  -5   2   55.41    1.38 
   0   5   2   64.97    1.18 
   0   5   2   67.11    1.22 
   0   5  -2   66.56    1.17 
   0   5  -2   65.11    1.13 
   1  -5   2  159.55    2.96 
   1  -5   2  169.35    2.68 
   1  -5   2  160.66    2.96 
   1  -5   2  160.80    2.73 
   1  -5   2  155.36    3.20 
  -1  -5  -2  159.23    2.41 
  -1  -5  -2  157.86    1.97 
  -1   5  -2  193.48    2.72 
  -1   5  -2  192.93    3.88 
  -1   5  -2  193.40    3.16 
  -1   5  -2  191.52    2.71 
   1   5   2  192.25    2.53 
   2  -5   2   88.78    2.18 
   2  -5   2   90.97    1.78 
   2  -5   2   90.94    2.06 
   2  -5   2   90.14    2.05 
  -2  -5  -2   91.93    1.51 
  -2   5  -2  111.55    1.74 
  -2   5  -2  110.46    2.38 
  -2   5  -2  112.35    2.17 
  -2   5  -2  112.78    1.74 
  -2   5  -2  112.99    2.28 
   3  -5   2   16.58    0.96 
   3  -5   2   15.45    0.69 
  -3  -5  -2   15.92    0.48 
  -3  -5  -2   16.30    0.49 
   3  -5   2   15.73    0.90 
   3  -5   2   16.41    0.94 
   3  -5   2   15.56    0.73 
  -3   5  -2   17.34    0.56 
  -3   5  -2   17.81    0.49 
  -3   5  -2   18.67    0.54 
  -3   5  -2   18.25    1.08 
  -3   5  -2   18.03    0.88 
  -3   5  -2   18.56    0.86 
  -3   5  -2   18.79    0.77 
  -4  -5  -2   34.05    0.63 
   4  -5   2   32.59    1.25 
   4  -5   2   34.58    1.46 
   4  -5   2   33.89    1.03 
   4  -5   2   33.67    1.13 
   4  -5   2   34.47    0.96 
   4  -5   2   33.68    1.40 
   4  -5   2   33.03    1.02 
  -4  -5  -2   34.07    0.53 
  -4  -5  -2   34.84    0.65 
   4  -5   2   34.18    1.16 
  -4   5  -2   42.69    1.05 
  -4   5  -2   44.41    1.25 
  -4   5  -2   39.24    1.44 
  -4   5  -2   41.28    0.69 
  -4   5  -2   42.45    1.19 
  -4   5  -2   45.97    1.94 
  -4   5  -2   42.57    0.94 
  -4   5  -2   42.41    1.25 
  -4   5  -2   42.15    1.08 
  -5  -5  -2   26.23    0.48 
   5  -5   2   25.71    1.44 
   5  -5   2   27.42    0.92 
   5  -5   2   26.33    0.82 
   5  -5   2   24.90    1.02 
  -5  -5  -2   26.44    0.30 
   5  -5   2   26.54    0.95 
   5  -5   2   27.52    0.54 
  -5  -5  -2   26.54    0.41 
  -5   5  -2   35.38    2.10 
  -5   5  -2   33.14    1.09 
  -5   5  -2   35.76    1.68 
  -5   5  -2   34.92    0.86 
  -5   5  -2   35.87    0.85 
  -5   5  -2   34.76    1.01 
   6  -5   2   13.85    1.04 
   6  -5   2   14.72    0.72 
   6  -5   2   13.99    0.39 
  -6  -5  -2   14.16    0.18 
   6  -5   2   14.35    0.71 
   6  -5   2   13.47    0.82 
  -6   5  -2   18.83    0.58 
  -6   5  -2   18.45    0.62 
  -6   5  -2   17.64    0.77 
  -6   5  -2   18.86    0.65 
  -6   5  -2   17.77    0.83 
   7  -5   2   26.83    0.86 
   7  -5   2   25.80    0.85 
   7  -5   2   26.59    0.83 
   7  -5   2   25.77    1.15 
  -7  -5  -2   26.37    0.22 
  -7  -5  -2   26.60    0.22 
   7  -5   2   26.03    0.48 
  -7   5  -2   30.50    0.54 
  -7   5  -2   30.08    0.52 
  -7   5  -2   31.39    0.71 
  -7   5  -2   29.11    0.69 
   8  -5   2    4.87    0.40 
   8  -5   2    5.37    0.41 
   8  -5   2    4.10    0.58 
   8  -5   2    5.00    0.44 
  -8   5  -2    5.65    0.31 
  -8   5  -2    5.91    0.25 
  -8   5  -2    6.38    0.29 
  -8   5  -2    5.88    0.21 
  -8   5  -2    5.68    0.27 
  -8   5  -2    5.75    0.24 
  -8   5  -2    6.30    0.28 
  -7  -6   2    0.84    0.05 
   7  -6  -2    0.48    0.23 
  -7   6   2    1.22    0.27 
  -7   6   2    0.72    0.19 
  -6  -6   2    6.91    0.13 
   6  -6  -2    6.60    0.43 
   6  -6  -2    7.50    0.56 
  -6  -6   2    6.87    0.21 
  -6   6   2    5.04    0.55 
  -6   6   2    3.49    0.60 
  -5  -6   2   12.60    0.26 
   5  -6  -2   12.55    0.59 
   5  -6  -2   12.73    0.64 
  -5  -6   2   13.20    0.39 
   5  -6  -2   12.96    0.60 
  -5  -6   2   12.53    0.36 
   5  -6  -2   11.73    1.06 
   5  -6  -2   12.94    0.60 
   5  -6  -2   12.50    1.05 
  -5   6   2   13.83    0.59 
  -5   6   2   13.27    0.63 
  -5   6   2   13.50    0.31 
  -5   6   2   12.75    0.90 
  -5   6   2   12.54    0.57 
   4  -6  -2    7.44    0.51 
   4  -6  -2    7.84    0.40 
   4  -6  -2    8.17    0.36 
  -4  -6   2    8.45    0.35 
  -4  -6   2    8.18    0.30 
  -4  -6   2    8.04    0.32 
   4  -6  -2    8.26    0.55 
  -4  -6   2    8.76    0.39 
   4  -6  -2    7.68    0.53 
   4  -6  -2    8.39    1.01 
   4  -6  -2    8.13    0.88 
   4  -6  -2    8.11    0.56 
  -4   6   2    9.72    0.37 
  -4   6   2   10.17    0.58 
  -4   6   2    9.79    0.40 
  -4   6   2    8.68    0.60 
   3  -6  -2    0.64    0.25 
  -3  -6   2    0.80    0.19 
   3  -6  -2    0.45    0.24 
   3  -6  -2    0.41    0.56 
   3  -6  -2    0.51    0.58 
   3  -6  -2    0.09    0.28 
   3  -6  -2    0.38    0.14 
   3  -6  -2    0.39    0.16 
   3  -6  -2    0.31    0.21 
   3  -6  -2    0.91    0.26 
  -3  -6   2    0.39    0.14 
   3  -6  -2    0.31    0.18 
  -3  -6   2    0.46    0.19 
  -3  -6   2    0.78    0.21 
   3  -6  -2    0.61    0.31 
  -3   6   2    1.15    0.24 
  -3   6   2    0.28    0.28 
  -3   6   2    0.86    0.21 
  -3   6   2    1.07    0.21 
  -3   6   2    0.47    0.33 
  -3   6   2    0.49    0.32 
   2  -6  -2   11.55    0.41 
   2  -6  -2   11.58    0.95 
   2  -6  -2   11.38    0.53 
   2  -6  -2   11.44    0.52 
   2  -6  -2   11.32    0.50 
   2  -6  -2   11.65    0.44 
  -2  -6   2   11.83    0.49 
   2  -6  -2   11.31    0.56 
  -2  -6   2   11.31    0.22 
  -2  -6   2   11.53    0.24 
  -2  -6   2   10.49    0.43 
   2  -6  -2   11.18    0.28 
  -2  -6   2   10.59    0.45 
   2  -6  -2   11.38    0.60 
  -2  -6   2   11.30    0.21 
   2  -6  -2   10.82    0.92 
  -2  -6   2   11.29    0.38 
   2  -6  -2   11.37    0.35 
  -2  -6   2   10.96    0.43 
   2  -6  -2   11.32    0.52 
  -2   6   2   13.08    0.66 
  -2   6   2   13.87    0.49 
  -2   6   2   13.71    0.79 
  -2   6   2   13.71    0.47 
  -1  -6   2   26.57    0.67 
  -1  -6   2   26.68    0.73 
   1  -6  -2   26.45    0.54 
   1  -6  -2   26.56    0.44 
   1  -6  -2   26.32    0.71 
   1  -6  -2   26.16    0.75 
  -1  -6   2   27.09    0.75 
   1  -6  -2   26.24    1.29 
  -1  -6   2   26.73    0.55 
   1  -6  -2   26.41    0.72 
  -1  -6   2   26.46    0.62 
  -1  -6   2   26.58    0.54 
   1  -6  -2   26.75    0.72 
   1  -6  -2   26.71    1.14 
   1  -6  -2   24.05    0.73 
   1  -6  -2   27.38    0.78 
   1  -6  -2   26.27    0.72 
   1  -6  -2   26.45    0.59 
  -1  -6   2   26.18    0.75 
   1  -6  -2   26.42    0.60 
  -1  -6   2   25.90    0.69 
  -1  -6   2   26.71    0.47 
   1   6  -2   33.81    0.75 
  -1   6   2   33.37    0.80 
  -1   6   2   32.97    0.78 
   1   6  -2   33.46    0.77 
   0  -6   2   33.36    0.70 
   0  -6   2   32.80    0.69 
   0  -6  -2   34.14    0.75 
   0  -6   2   33.34    1.16 
   0  -6  -2   33.16    0.74 
   0  -6  -2   32.89    0.84 
   0  -6   2   33.46    0.60 
   0  -6  -2   32.88    0.60 
   0  -6  -2   33.47    0.62 
   0  -6   2   33.64    0.87 
   0  -6  -2   33.85    0.78 
   0  -6  -2   33.28    0.78 
   0  -6   2   33.25    0.85 
   0  -6   2   34.24    0.85 
   0  -6  -2   33.42    0.54 
   0  -6   2   32.38    0.82 
   0  -6   2   33.09    1.12 
   0  -6   2   32.80    0.79 
   0  -6   2   33.03    0.53 
   0  -6   2   33.28    0.96 
   0  -6  -2   33.46    0.79 
   0  -6  -2   33.56    0.78 
   0   6   2   41.31    0.89 
   0   6   2   42.16    0.91 
   0   6  -2   42.61    0.88 
   0   6  -2   42.15    0.89 
  -1  -6  -2   19.06    0.27 
   1  -6   2   19.27    0.74 
   1  -6   2   19.25    1.01 
   1  -6   2   18.94    0.71 
  -1  -6  -2   18.90    0.52 
  -1  -6  -2   18.85    0.57 
   1  -6   2   19.13    0.48 
  -1  -6  -2   19.07    0.60 
   1  -6   2   18.68    0.88 
   1  -6   2   18.94    0.46 
   1  -6   2   20.51    0.97 
   1  -6   2   19.44    0.66 
  -1  -6  -2   18.13    0.54 
  -1  -6  -2   19.05    0.55 
  -1  -6  -2   18.96    0.49 
   1  -6   2   19.49    0.64 
   1  -6   2   19.61    0.41 
   1  -6   2   18.69    0.64 
  -1   6  -2   22.77    0.61 
  -1   6  -2   23.90    0.63 
  -1   6  -2   23.57    1.05 
  -1   6  -2   23.11    0.59 
  -1   6  -2   22.58    0.90 
   2  -6   2    2.09    0.44 
  -2  -6  -2    2.39    0.27 
   2  -6   2    2.14    0.46 
  -2  -6  -2    2.39    0.29 
   2  -6   2    2.50    0.25 
  -2  -6  -2    2.74    0.23 
   2  -6   2    1.80    0.27 
  -2  -6  -2    2.56    0.31 
   2  -6   2    2.97    0.64 
   2  -6   2    2.07    0.50 
   2  -6   2    2.54    0.70 
   2  -6   2    2.51    0.37 
   2  -6   2    2.72    0.40 
  -2   6  -2    3.17    0.28 
  -2   6  -2    3.14    0.29 
  -2   6  -2    2.92    0.50 
  -2   6  -2    2.69    0.55 
  -2   6  -2    2.98    0.26 
   3  -6   2    8.31    0.36 
   3  -6   2    8.13    0.54 
   3  -6   2    8.60    0.77 
   3  -6   2    7.34    0.57 
  -3  -6  -2    8.95    0.35 
   3  -6   2    7.70    0.53 
  -3  -6  -2    8.58    0.41 
  -3  -6  -2    8.80    0.28 
   3  -6   2    9.66    0.79 
  -3  -6  -2    8.53    0.35 
   3  -6   2    7.71    0.60 
  -3   6  -2    9.84    0.39 
  -3   6  -2   10.79    0.70 
  -3   6  -2   10.48    0.35 
  -3   6  -2   11.68    0.61 
   4  -6   2    0.34    0.46 
  -4  -6  -2    0.96    0.19 
   4  -6   2    0.75    0.30 
  -4  -6  -2    0.75    0.17 
   4  -6   2    0.46    0.51 
   4  -6   2    0.65    0.23 
  -4  -6  -2    1.01    0.13 
   4  -6   2    0.90    0.32 
  -4   6  -2    1.28    0.36 
  -4   6  -2    0.46    0.28 
  -4   6  -2    1.16    0.35 
  -4   6  -2    1.02    0.27 
  -4   6  -2    1.21    0.71 
   5  -6   2    0.39    0.23 
   5  -6   2    1.31    0.38 
  -5  -6  -2    1.05    0.08 
  -5   6  -2    0.99    0.23 
  -5   6  -2    1.00    0.50 
  -6  -6  -2   10.19    0.12 
   6  -6   2   10.16    0.52 
  -6   6  -2   11.07    0.36 
  -6   6  -2   11.87    0.40 
  -6   6  -2   12.25    0.34 
  -5  -7   2    4.73    0.15 
   5  -7  -2    4.59    0.36 
   5  -7  -2    4.45    0.18 
  -5   7   2    5.74    0.38 
  -5   7   2    5.34    0.28 
  -5   7   2    5.40    0.48 
  -5   7   2    5.21    0.63 
   4  -7  -2   16.65    0.58 
   4  -7  -2   17.34    0.43 
   4  -7  -2   17.93    0.52 
   4  -7  -2   16.79    0.52 
   4  -7  -2   17.42    0.37 
  -4  -7   2   17.52    0.28 
  -4  -7   2   17.72    0.38 
   4  -7  -2   17.66    0.30 
   4  -7  -2   17.60    0.51 
  -4   7   2   22.80    1.04 
  -4   7   2   21.45    0.37 
  -4   7   2   20.41    0.59 
  -4   7   2   21.09    0.70 
   3  -7  -2    1.52    0.32 
   3  -7  -2    1.71    0.30 
   3  -7  -2    1.99    0.37 
   3  -7  -2    2.00    0.33 
  -3  -7   2    1.37    0.21 
   3  -7  -2    1.84    0.20 
   3  -7  -2    1.75    0.37 
  -3  -7   2    1.67    0.17 
   3  -7  -2    1.15    0.22 
   3  -7  -2    1.51    0.18 
   3  -7  -2    2.03    0.27 
  -3   7   2    1.61    0.38 
  -3   7   2    2.05    0.24 
  -3   7   2    1.91    0.24 
   2  -7  -2    7.41    0.37 
   2  -7  -2    6.78    0.38 
   2  -7  -2    6.95    0.25 
   2  -7  -2    6.84    0.47 
  -2  -7   2    7.02    0.30 
  -2  -7   2    7.24    0.34 
  -2  -7   2    7.25    0.44 
   2  -7  -2    6.75    0.24 
  -2  -7   2    6.78    0.38 
  -2  -7   2    7.25    0.27 
   2  -7  -2    7.02    0.41 
   2  -7  -2    6.70    0.38 
   2  -7  -2    7.10    0.49 
   2  -7  -2    7.07    0.25 
   2  -7  -2    7.03    0.36 
  -2   7   2    8.48    0.35 
   2   7  -2    8.04    0.33 
  -2   7   2    8.33    0.32 
  -2   7   2    7.96    0.55 
  -1  -7   2    0.72    0.21 
  -1  -7   2    0.74    0.25 
   1  -7  -2    1.63    0.30 
   1  -7  -2    0.57    0.22 
   1  -7  -2    1.09    0.25 
   1  -7  -2    1.02    0.13 
  -1  -7   2    1.23    0.25 
  -1  -7   2    0.57    0.20 
   1  -7  -2    0.62    0.23 
  -1  -7   2    0.70    0.27 
   1  -7  -2    1.08    0.11 
   1  -7  -2    0.69    0.19 
   1  -7  -2    0.95    0.21 
   1  -7  -2    1.15    0.11 
   1  -7  -2    0.55    0.17 
   1   7  -2    0.95    0.20 
  -1   7   2    1.63    0.23 
   1   7  -2    1.14    0.21 
  -1   7   2    0.96    0.23 
   0  -7   2   27.85    0.65 
   0  -7  -2   27.15    0.69 
   0  -7   2   27.11    0.35 
   0  -7   2   25.30    0.78 
   0  -7   2   27.20    0.44 
   0  -7  -2   27.30    0.62 
   0  -7   2   27.59    0.66 
   0  -7   2   27.08    0.61 
   0  -7  -2   27.48    0.68 
   0  -7   2   27.36    0.75 
   0  -7  -2   27.04    0.58 
   0  -7   2   27.08    0.40 
   0  -7   2   27.14    0.39 
   0  -7  -2   26.87    0.62 
   0  -7  -2   27.19    0.64 
   0  -7   2   27.23    0.63 
   0   7  -2   33.30    0.69 
   0   7   2   32.24    0.69 
   0   7  -2   32.19    0.60 
   0   7   2   32.95    0.69 
   0   7  -2   32.13    0.67 
   1  -7   2   15.28    0.32 
  -1  -7  -2   15.23    0.50 
  -1  -7  -2   15.01    0.45 
   1  -7   2   14.83    0.37 
  -1  -7  -2   15.24    0.39 
   1  -7   2   15.30    0.57 
   1  -7   2   15.03    0.51 
  -1  -7  -2   15.16    0.37 
   1  -7   2   15.14    0.36 
   1  -7   2   15.37    0.49 
   1  -7   2   15.21    0.51 
   1  -7   2   15.38    0.67 
   1  -7   2   14.74    0.46 
  -1   7  -2   18.03    0.43 
  -1   7  -2   17.67    0.48 
   1   7   2   18.10    0.48 
  -1   7  -2   17.53    0.60 
   2  -7   2    4.63    0.33 
  -2  -7  -2    4.70    0.26 
  -2  -7  -2    4.93    0.22 
   2  -7   2    4.53    0.21 
   2  -7   2    4.37    0.23 
   2  -7   2    5.09    0.41 
   2  -7   2    4.26    0.41 
   2  -7   2    4.31    0.35 
   2  -7   2    4.84    0.36 
   2  -7   2    4.55    0.25 
  -2   7  -2    5.39    0.25 
  -2   7  -2    5.91    0.42 
   3  -7   2    5.84    0.33 
   3  -7   2    6.40    0.19 
  -3  -7  -2    6.14    0.24 
   3  -7   2    6.49    0.29 
   3  -7   2    6.33    0.35 
   3  -7   2    6.16    0.35 
   3  -7   2    5.84    0.23 
  -3  -7  -2    6.10    0.15 
   3  -7   2    6.22    0.44 
  -3   7  -2    7.71    0.43 
  -3   7  -2    7.97    0.41 
   4  -7   2    4.38    0.30 
   4  -7   2    3.75    0.17 
  -4   7  -2    4.75    0.33 
  -4   7  -2    5.00    0.55 
 -12   0   3    5.78    0.17 
 -12   0   3    5.12    0.32 
 -12   0   3    5.73    0.29 
 -11   0   3   19.98    0.63 
 -11   0   3   18.74    0.34 
 -11   0   3   18.44    0.53 
 -11   0   3   18.07    0.68 
 -11   0   3   18.62    0.40 
 -11   0   3   18.73    0.33 
 -10   0   3   14.02    0.61 
 -10   0   3   14.95    0.39 
 -10   0   3   14.61    0.34 
 -10   0   3   15.13    0.54 
 -10   0   3   14.15    0.60 
 -10   0   3   14.56    0.33 
  -9   0   3   25.34    0.47 
  -9   0   3   25.64    0.83 
   8   0  -3    8.94    0.50 
  -8   0   3    9.44    0.29 
  -8   0   3    9.70    0.52 
  -8   0   3    9.76    0.47 
  -7   0   3   39.00    0.56 
   7   0  -3   39.14    0.88 
  -7   0   3   38.99    0.92 
  -6   0   3  140.99    2.17 
   6   0  -3  136.46    2.31 
  -6   0   3  139.19    1.57 
   6   0  -3  141.15    2.53 
   6   0  -3  141.46    1.83 
  -5   0   3  388.72    5.57 
   5   0  -3  384.83    5.21 
   5   0  -3  395.33    5.72 
   5   0  -3  385.81    4.23 
  -5   0   3  385.93    5.72 
  -5   0   3  387.54    6.00 
   4   0  -3  131.62    1.66 
  -4   0   3  134.25    2.20 
  -4   0   3  131.74    1.94 
   4   0  -3  131.48    2.25 
  -4   0   3  129.94    2.23 
   4   0  -3  131.41    2.05 
   3   0  -3  204.93    2.28 
  -3   0   3  209.70    3.14 
   3   0  -3  200.45    2.85 
   3   0  -3  201.97    3.16 
   3   0  -3  205.27    3.63 
  -3   0   3  202.47    2.95 
  -3   0   3  200.64    3.27 
   2   0  -3  215.09    2.98 
  -2   0   3  217.39    2.82 
   2   0  -3  211.67    3.28 
  -2   0   3  214.21    3.44 
   2   0  -3  218.39    3.73 
  -2   0   3  219.42    3.28 
  -1   0   3  896.98   12.61 
   1   0  -3  915.02   11.17 
  -1   0   3  914.37   10.94 
   1   0  -3  883.60   13.15 
   1   0  -3  898.72   12.18 
   0   0   3  136.72    1.89 
   0   0  -3  142.37    2.75 
   0   0   3  138.55    2.25 
   0   0  -3  137.10    2.74 
   0   0   3  138.21    2.08 
   0   0  -3  138.84    2.06 
   1   0   3  357.06    3.68 
  -1   0  -3  354.82    5.74 
  -1   0  -3  351.02    5.86 
   1   0   3  350.10    5.22 
   1   0   3  354.12    4.49 
  -1   0  -3  355.54    4.91 
   1   0   3  350.50    4.89 
   2   0   3  150.99    2.36 
   2   0   3  154.24    2.17 
  -2   0  -3  155.64    2.87 
  -2   0  -3  155.92    2.88 
  -2   0  -3  156.25    2.24 
   2   0   3  153.01    1.76 
   3   0   3    1.62    0.18 
   3   0   3    1.98    0.27 
  -3   0  -3    1.90    0.42 
   3   0   3    1.92    0.24 
  -3   0  -3    2.45    0.38 
  -3   0  -3    1.93    0.15 
   4   0   3    1.41    0.22 
   4   0   3    1.13    0.24 
   4   0   3    1.33    0.21 
   5   0   3   91.41    1.60 
   5   0   3   93.07    1.32 
  -5   0  -3   93.10    1.16 
   6   0   3   51.32    1.01 
  -6   0  -3   51.40    0.62 
  -6   0  -3   51.11    0.89 
  -7   0  -3  125.07    1.84 
  -8   0  -3    7.08    0.28 
  -8   0  -3    7.54    0.48 
  -8   0  -3    7.47    0.30 
  -8   0  -3    7.63    0.30 
  -8   0  -3    7.43    0.56 
  -8   0  -3    7.11    0.29 
  -9   0  -3    0.17    0.10 
  -9   0  -3    0.17    0.11 
  -9   0  -3   -0.04    0.17 
  -9   0  -3    0.22    0.10 
  -9   0  -3   -0.02    0.10 
 -10   0  -3    2.18    0.14 
 -10   0  -3    2.91    0.28 
 -12  -1   3   11.31    0.14 
 -12  -1   3   11.32    0.36 
 -12   1   3   11.33    0.27 
 -12   1   3   10.78    0.40 
 -12   1   3   10.74    0.22 
 -11  -1   3    0.82    0.04 
 -11  -1   3    0.63    0.21 
 -11  -1   3    0.84    0.06 
 -11  -1   3    0.83    0.21 
 -11  -1   3    0.84    0.14 
 -11   1   3    0.90    0.22 
 -11   1   3    0.86    0.21 
 -11   1   3    0.53    0.17 
 -11   1   3    1.02    0.18 
 -10  -1   3   24.13    0.46 
 -10  -1   3   24.18    0.36 
 -10  -1   3   24.11    0.37 
 -10  -1   3   24.26    0.65 
 -10  -1   3   24.59    0.81 
 -10   1   3   25.15    0.75 
 -10   1   3   24.94    0.67 
 -10   1   3   24.79    0.62 
 -10   1   3   24.21    0.82 
 -10   1   3   25.36    0.55 
 -10   1   3   25.51    0.85 
 -10   1   3   25.37    0.59 
 -10   1   3   25.20    0.51 
  -9  -1   3   23.35    0.39 
  -9  -1   3   22.56    0.80 
  -9   1   3   23.66    0.37 
  -9   1   3   23.95    0.80 
  -9   1   3   24.28    0.83 
   8  -1  -3    0.05    0.29 
  -8  -1   3    0.27    0.26 
  -8  -1   3   -0.11    0.08 
  -8   1   3   -0.17    0.21 
   8   1  -3   -0.19    0.21 
  -8   1   3    0.27    0.28 
  -8   1   3   -0.06    0.12 
   7  -1  -3   18.67    0.82 
  -7  -1   3   19.55    0.60 
   7  -1  -3   18.65    0.68 
  -7  -1   3   18.58    0.62 
  -7  -1   3   19.11    0.32 
   7  -1  -3   19.70    0.90 
  -7   1   3   19.88    0.46 
  -7   1   3   18.35    0.64 
  -7   1   3   20.17    0.67 
   7   1  -3   19.68    0.55 
  -7   1   3   19.57    0.59 
   6  -1  -3   26.93    0.97 
   6  -1  -3   29.53    0.97 
   6  -1  -3   28.15    0.75 
  -6  -1   3   26.94    0.69 
  -6   1   3   26.54    0.75 
  -6   1   3   26.37    0.79 
   6   1  -3   27.37    0.57 
  -6   1   3   28.12    0.60 
   5  -1  -3  214.82    3.62 
   5  -1  -3  227.38    3.36 
   5  -1  -3  223.01    2.75 
  -5   1   3  235.78    3.85 
  -5   1   3  230.32    3.67 
   5   1  -3  227.35    3.29 
  -5   1   3  235.45    3.93 
  -5   1   3  230.62    3.57 
  -5   1   3  235.15    3.42 
   5   1  -3  232.19    2.60 
   4  -1  -3  380.90    5.32 
  -4  -1   3  387.95    5.96 
   4  -1  -3  393.93    4.30 
   4  -1  -3  407.90    5.81 
  -4  -1   3  395.00    5.63 
  -4   1   3  426.35    6.67 
  -4   1   3  429.29    6.32 
   4   1  -3  414.57    5.51 
  -4   1   3  423.75    5.98 
   4   1  -3  413.98    4.41 
   4   1  -3  419.43    5.98 
  -3  -1   3  129.31    2.08 
  -3  -1   3  132.92    2.15 
   3  -1  -3  127.72    2.24 
   3  -1  -3  127.79    2.66 
  -3  -1   3  130.65    1.84 
   3  -1  -3  129.78    2.04 
   3  -1  -3  130.19    2.59 
  -3   1   3  130.32    2.10 
  -3   1   3  133.04    1.93 
   3   1  -3  134.52    2.19 
   3   1  -3  131.02    1.54 
  -3   1   3  128.34    2.33 
  -3   1   3  129.23    2.09 
   3   1  -3  132.79    1.98 
  -3   1   3  129.66    2.26 
   2  -1  -3   24.44    0.93 
   2  -1  -3   25.06    0.91 
  -2  -1   3   25.15    0.55 
  -2  -1   3   25.35    0.63 
  -2  -1   3   25.72    0.61 
   2  -1  -3   24.39    0.68 
   2  -1  -3   24.72    0.73 
  -2  -1   3   25.42    0.64 
   2   1  -3   27.01    0.51 
   2   1  -3   27.21    0.68 
   2   1  -3   27.05    0.76 
   2   1  -3   28.37    1.05 
  -2   1   3   27.67    0.60 
  -2   1   3   27.39    0.67 
  -2   1   3   26.54    0.72 
  -2   1   3   27.06    0.76 
  -1  -1   3  195.41    2.56 
   1  -1  -3  189.49    3.41 
  -1  -1   3  190.83    2.97 
   1  -1  -3  186.89    3.52 
  -1  -1   3  198.36    3.14 
   1  -1  -3  191.70    2.75 
   1  -1  -3  189.96    3.01 
   1   1  -3  187.46    2.69 
  -1   1   3  186.39    2.50 
  -1   1   3  187.36    2.75 
   1   1  -3  185.84    2.93 
   1   1  -3  189.88    3.44 
  -1   1   3  188.40    2.96 
   0  -1  -3  882.16   11.94 
   0  -1   3  902.87   11.75 
   0  -1   3  879.78   12.37 
   0  -1   3  861.22   10.74 
   0  -1   3  881.01   13.30 
   0  -1  -3  881.15   13.74 
   0  -1  -3  866.56   12.90 
   0   1   3  879.46   12.70 
   0   1   3  914.68    9.07 
   0   1   3  911.99   11.01 
   0   1   3  915.43   12.05 
   0   1  -3  865.09   12.29 
   0   1  -3  921.83   14.15 
   0   1  -3  921.41   11.27 
   0   1  -3  917.30   13.38 
   1  -1   3   94.15    1.60 
  -1  -1  -3   91.75    2.02 
   1  -1   3   93.85    1.81 
  -1  -1  -3   93.69    1.39 
   1  -1   3   94.95    1.76 
   1  -1   3   93.19    1.47 
  -1  -1  -3   96.21    2.09 
   1   1   3   92.28    1.36 
  -1   1  -3   91.88    1.49 
  -1   1  -3   92.35    1.75 
   1   1   3   91.89    1.07 
  -1   1  -3   91.15    1.61 
   1   1   3   92.18    1.48 
  -1   1  -3   91.47    2.03 
  -1   1  -3   92.21    2.04 
  -2  -1  -3   92.15    1.82 
   2  -1   3   93.74    1.25 
   2  -1   3   93.24    1.83 
  -2  -1  -3   95.00    1.91 
   2  -1   3   93.87    1.64 
   2  -1   3   93.84    1.52 
   2   1   3  101.44    1.18 
  -2   1  -3  104.58    2.28 
  -2   1  -3  100.83    2.20 
   2   1   3  101.84    1.64 
   2   1   3  101.29    1.50 
  -2   1  -3  102.19    1.65 
  -2   1  -3  100.15    1.69 
   3  -1   3  159.40    2.58 
   3  -1   3  160.41    2.38 
   3  -1   3  160.04    1.99 
  -3   1  -3  170.44    2.57 
   3   1   3  168.41    2.35 
  -3   1  -3  173.02    3.02 
   3   1   3  171.48    2.58 
   3   1   3  172.74    1.89 
  -3   1  -3  174.46    3.30 
  -3   1  -3  171.06    3.24 
  -3   1  -3  172.60    2.69 
   4  -1   3    2.15    0.33 
   4  -1   3    2.36    0.27 
   4  -1   3    2.63    0.31 
  -4  -1  -3    2.49    0.14 
  -4   1  -3    2.52    0.18 
  -4   1  -3    2.03    0.39 
  -4   1  -3    2.65    0.34 
  -4   1  -3    3.10    0.51 
   4   1   3    2.66    0.17 
  -4   1  -3    2.94    0.21 
   5  -1   3   16.30    0.66 
  -5  -1  -3   15.76    0.37 
   5  -1   3   16.25    0.55 
   5  -1   3   15.51    0.67 
   5   1   3   17.02    0.42 
  -5   1  -3   13.29    0.70 
  -5   1  -3   15.80    0.61 
  -5   1  -3   15.09    0.49 
   6  -1   3    5.99    0.45 
   6  -1   3    5.64    0.55 
  -6  -1  -3    5.49    0.22 
  -6  -1  -3    5.51    0.23 
  -6   1  -3    6.78    0.38 
  -6   1  -3    6.35    0.48 
  -6   1  -3    6.42    0.29 
  -7  -1  -3   43.78    0.62 
  -7   1  -3   47.37    1.19 
  -7   1  -3   48.64    0.92 
  -7   1  -3   47.73    0.72 
  -8  -1  -3  150.74    1.68 
  -8  -1  -3  150.62    1.94 
  -8  -1  -3  152.66    1.51 
  -8  -1  -3  151.60    2.85 
  -8  -1  -3  150.63    2.35 
  -8   1  -3  145.91    2.10 
  -8   1  -3  147.84    2.18 
  -8   1  -3  148.14    1.98 
  -8   1  -3  146.35    1.94 
  -8   1  -3  148.01    2.17 
  -8   1  -3  146.83    1.78 
  -8   1  -3  143.70    2.26 
  -8   1  -3  146.74    2.41 
  -9  -1  -3   32.97    0.53 
  -9  -1  -3   32.57    0.79 
  -9  -1  -3   33.29    0.40 
  -9  -1  -3   33.04    0.95 
  -9   1  -3   32.58    0.76 
  -9   1  -3   33.05    0.61 
  -9   1  -3   32.61    0.65 
  -9   1  -3   32.50    0.54 
 -10  -1  -3    4.78    0.10 
 -10  -1  -3    4.71    0.30 
 -10   1  -3    5.26    0.33 
 -10   1  -3    5.40    0.18 
 -10   1  -3    5.69    0.21 
 -12   2   3   23.41    0.43 
 -12   2   3   23.02    0.37 
 -12   2   3   22.73    0.44 
 -11  -2   3    5.76    0.35 
 -11  -2   3    5.60    0.09 
  11  -2  -3    5.43    0.40 
 -11   2   3    6.33    0.27 
 -11   2   3    5.41    0.27 
 -11   2   3    6.10    0.25 
 -11   2   3    6.01    0.29 
 -11   2   3    5.78    0.38 
 -11   2   3    5.59    0.27 
 -10  -2   3    2.49    0.37 
  10  -2  -3    2.35    0.39 
  10  -2  -3    2.86    0.34 
 -10  -2   3    2.48    0.08 
 -10   2   3    2.61    0.37 
 -10   2   3    2.18    0.27 
 -10   2   3    2.45    0.17 
 -10   2   3    2.59    0.14 
 -10   2   3    2.14    0.37 
 -10   2   3    2.74    0.28 
 -10   2   3    2.68    0.29 
 -10   2   3    2.09    0.32 
 -10   2   3    2.35    0.15 
  -9  -2   3    2.74    0.39 
   9  -2  -3    2.94    0.37 
  -9  -2   3    2.50    0.12 
   9  -2  -3    2.88    0.38 
  -9  -2   3    2.73    0.09 
  -9   2   3    2.87    0.35 
  -9   2   3    2.69    0.24 
  -9   2   3    3.38    0.28 
  -9   2   3    2.90    0.31 
  -9   2   3    3.57    0.29 
  -9   2   3    3.20    0.32 
  -9   2   3    2.67    0.38 
  -9   2   3    3.01    0.31 
   8  -2  -3   39.66    0.92 
   8  -2  -3   39.83    0.96 
  -8  -2   3   39.67    0.48 
  -8   2   3   40.83    0.96 
  -8   2   3   39.76    1.08 
  -7  -2   3   19.11    0.29 
   7  -2  -3   20.22    1.02 
   7  -2  -3   18.62    0.54 
  -7   2   3   18.72    0.56 
  -7   2   3   21.06    0.83 
  -7   2   3   20.76    0.70 
  -7   2   3   19.55    0.72 
   7   2  -3   19.86    0.49 
   6  -2  -3   10.11    0.72 
   6  -2  -3    8.80    0.57 
   6  -2  -3   10.19    0.61 
  -6   2   3   10.68    0.61 
  -6   2   3   10.27    0.43 
  -6   2   3   10.24    0.49 
  -6   2   3   10.37    0.44 
  -6   2   3   10.32    0.45 
   6   2  -3   10.49    0.32 
  -6   2   3   10.78    0.52 
   5  -2  -3   18.39    0.75 
   5  -2  -3   20.72    0.79 
   5  -2  -3   18.78    0.81 
  -5   2   3   19.74    0.62 
   5   2  -3   19.88    0.44 
  -5   2   3   18.93    0.85 
  -5   2   3   20.19    0.68 
  -5   2   3   19.47    0.61 
  -5   2   3   20.41    0.57 
  -5   2   3   20.72    0.66 
  -5   2   3   20.57    0.79 
   4  -2  -3   71.16    1.48 
   4  -2  -3   69.67    1.59 
   4  -2  -3   70.60    2.01 
  -4   2   3   69.70    1.39 
   4   2  -3   70.98    0.95 
  -4   2   3   70.73    1.63 
  -4   2   3   70.65    1.50 
  -4   2   3   69.88    1.61 
   4   2  -3   71.50    1.27 
  -4   2   3   70.18    1.47 
   3  -2  -3    1.54    0.39 
   3  -2  -3    2.12    0.56 
   3  -2  -3    1.47    0.45 
  -3  -2   3    1.06    0.21 
  -3  -2   3    1.39    0.20 
   3  -2  -3    1.63    0.31 
   3   2  -3    1.61    0.21 
   3   2  -3    1.78    0.32 
  -3   2   3    1.23    0.28 
  -3   2   3    1.69    0.32 
   3   2  -3    1.67    0.32 
  -3   2   3    1.35    0.33 
  -3   2   3    1.51    0.34 
  -3   2   3    2.09    0.30 
   2  -2  -3    0.03    0.13 
   2  -2  -3    0.41    0.36 
   2  -2  -3    0.25    0.23 
  -2  -2   3    0.40    0.13 
  -2  -2   3    0.35    0.19 
   2  -2  -3    0.17    0.34 
   2  -2  -3    0.08    0.23 
  -2  -2   3    0.07    0.12 
  -2  -2   3    0.06    0.14 
   2   2  -3    0.14    0.14 
   2   2  -3    0.18    0.23 
  -2   2   3    0.31    0.25 
  -2   2   3    0.23    0.19 
   2   2  -3    0.15    0.19 
  -2   2   3   -0.04    0.22 
  -2   2   3    0.10    0.17 
  -1  -2   3   72.62    1.47 
   1  -2  -3   76.36    1.88 
  -1  -2   3   77.58    1.51 
   1  -2  -3   75.73    1.27 
   1  -2  -3   76.67    1.85 
  -1  -2   3   77.30    1.33 
  -1   2   3   80.61    1.04 
   1   2  -3   80.44    1.48 
  -1   2   3   80.18    1.33 
  -1   2   3   77.26    1.60 
   1   2  -3   81.35    1.61 
  -1   2   3   82.33    1.45 
   1   2  -3   80.61    1.10 
   0  -2   3  144.30    2.53 
   0  -2  -3  139.82    2.17 
   0  -2  -3  139.50    2.84 
   0  -2  -3  141.99    2.87 
   0  -2   3  139.20    2.27 
   0  -2   3  140.08    2.07 
   0  -2  -3  140.74    2.08 
   0  -2   3  139.02    2.26 
   0  -2   3  144.80    2.47 
   0   2  -3  155.04    2.44 
   0   2   3  154.59    2.40 
   0   2  -3  153.18    3.03 
   0   2   3  153.18    1.75 
   0   2  -3  153.18    2.62 
   0   2   3  153.08    2.17 
   0   2  -3  151.34    3.09 
   1  -2   3   23.93    0.68 
   1  -2   3   23.94    0.70 
  -1  -2  -3   24.57    0.92 
  -1  -2  -3   24.70    0.97 
   1  -2   3   23.79    0.72 
   1  -2   3   23.31    0.77 
  -1  -2  -3   23.68    0.43 
   1  -2   3   23.66    0.65 
   1   2   3   26.74    0.65 
  -1   2  -3   27.26    0.84 
   1   2   3   26.92    0.58 
  -1   2  -3   26.99    0.70 
  -1   2  -3   26.86    1.04 
   1   2   3   27.04    0.45 
  -1   2  -3   26.14    0.88 
  -1   2  -3   28.26    1.16 
   2  -2   3  134.03    2.59 
   2  -2   3  132.74    2.15 
   2  -2   3  129.74    2.31 
   2  -2   3  133.50    2.58 
  -2   2  -3  136.31    2.22 
   2   2   3  134.22    2.08 
  -2   2  -3  136.73    2.49 
   2   2   3  138.17    1.54 
  -2   2  -3  134.53    2.88 
   2   2   3  135.69    1.91 
  -2   2  -3  135.38    2.28 
  -2   2  -3  133.95    2.85 
  -2   2  -3  133.57    2.64 
   3  -2   3    9.41    0.44 
   3  -2   3    9.74    0.54 
   3  -2   3    9.30    0.49 
   3  -2   3    9.32    0.43 
  -3  -2  -3    9.16    0.16 
  -3   2  -3   10.31    0.42 
  -3   2  -3   10.62    0.45 
  -3   2  -3   10.36    0.43 
  -3   2  -3   10.69    0.64 
   3   2   3   10.81    0.26 
  -3   2  -3   11.17    0.80 
  -3   2  -3    9.96    0.51 
  -3   2  -3   11.36    0.73 
   4  -2   3   49.84    1.06 
   4  -2   3   50.55    1.31 
   4  -2   3   50.19    1.21 
   4  -2   3   49.96    1.25 
  -4   2  -3   56.31    1.22 
   4   2   3   58.22    0.79 
  -4   2  -3   58.12    1.16 
  -4   2  -3   59.63    1.20 
  -4   2  -3   59.53    1.65 
  -4   2  -3   56.18    1.42 
  -5  -2  -3    0.68    0.12 
   5  -2   3    0.52    0.24 
   5  -2   3    0.57    0.24 
   5  -2   3    0.18    0.23 
  -5   2  -3    1.01    0.38 
  -5   2  -3    0.77    0.36 
   5   2   3    0.75    0.16 
  -5   2  -3    0.94    0.31 
  -5   2  -3    0.82    0.19 
  -5   2  -3    0.80    0.35 
  -5   2  -3    0.65    0.17 
  -5   2  -3    0.66    0.39 
  -5   2  -3    0.53    0.16 
   6  -2   3   18.11    0.68 
   6  -2   3   18.02    0.61 
  -6  -2  -3   18.27    0.34 
  -6   2  -3   21.00    0.78 
  -6   2  -3   21.26    0.81 
  -6   2  -3   20.59    0.78 
   6   2   3   20.66    0.49 
  -6   2  -3   20.97    0.55 
  -7  -2  -3    7.46    0.62 
  -7  -2  -3    7.36    0.20 
   7  -2   3    7.44    0.47 
  -7  -2  -3    7.63    0.51 
  -7  -2  -3    7.38    0.20 
   7  -2   3    6.76    0.55 
  -7  -2  -3    7.42    0.14 
  -7  -2  -3    7.39    0.23 
  -7   2  -3    7.66    0.42 
  -7   2  -3    7.69    0.36 
  -7   2  -3    7.56    0.40 
  -7   2  -3    7.83    0.40 
  -7   2  -3    7.27    0.40 
  -7   2  -3    7.44    0.31 
  -7   2  -3    7.92    0.39 
  -7   2  -3    7.50    0.24 
  -7   2  -3    7.95    0.39 
  -7   2  -3    8.03    0.60 
  -7   2  -3    8.33    0.38 
   8  -2   3   15.13    0.63 
   8  -2   3   13.72    0.65 
  -8  -2  -3   15.28    0.73 
  -8  -2  -3   14.72    0.20 
  -8  -2  -3   14.88    0.57 
  -8   2  -3   14.96    0.32 
  -8   2  -3   14.82    0.45 
  -8   2  -3   15.11    0.37 
  -8   2  -3   15.10    0.48 
  -8   2  -3   14.25    0.48 
  -8   2  -3   15.08    0.32 
  -8   2  -3   15.43    0.31 
  -8   2  -3   15.03    0.69 
  -8   2  -3   15.08    0.46 
  -8   2  -3   15.43    0.44 
  -8   2  -3   15.22    0.47 
  -8   2  -3   15.24    0.30 
  -9  -2  -3   20.01    0.22 
   9  -2   3   20.88    0.75 
   9  -2   3   19.66    0.67 
  -9  -2  -3   20.12    0.71 
  -9   2  -3   20.04    0.47 
  -9   2  -3   20.01    0.48 
  -9   2  -3   20.60    0.45 
  -9   2  -3   19.11    0.46 
  -9   2  -3   20.75    0.49 
  -9   2  -3   19.16    0.51 
  -9   2  -3   21.02    0.44 
 -10  -2  -3    3.57    0.05 
 -10  -2  -3    3.56    0.05 
 -10   2  -3    3.85    0.19 
 -10   2  -3    3.60    0.17 
  11  -3  -3    3.32    0.26 
 -11   3   3    2.82    0.22 
 -11   3   3    3.35    0.20 
 -11   3   3    3.45    0.23 
 -11   3   3    3.66    0.29 
  10  -3  -3    8.88    0.50 
 -10  -3   3    8.79    0.10 
  10  -3  -3    8.73    0.46 
 -10   3   3    8.10    0.44 
 -10   3   3    8.94    0.37 
 -10   3   3    8.94    0.25 
 -10   3   3    8.33    0.39 
 -10   3   3    8.99    0.35 
 -10   3   3    8.81    0.25 
 -10   3   3    8.68    0.28 
 -10   3   3    8.86    0.31 
 -10   3   3    9.08    0.38 
   9  -3  -3   19.93    0.67 
  -9  -3   3   19.44    0.20 
   9  -3  -3   19.13    0.73 
  -9  -3   3   19.47    0.57 
  -9   3   3   19.38    0.73 
  -9   3   3   19.06    0.46 
  -9   3   3   19.02    0.39 
  -9   3   3   19.09    0.58 
  -9   3   3   19.05    0.58 
  -9   3   3   18.95    0.56 
  -9   3   3   18.95    0.66 
  -9   3   3   18.77    0.56 
  -9   3   3   19.37    0.51 
   8  -3  -3   70.66    1.32 
  -8  -3   3   69.97    0.65 
   8  -3  -3   70.45    1.39 
  -8  -3   3   70.76    0.59 
  -8  -3   3   70.11    0.64 
   8  -3  -3   68.49    1.83 
  -8   3   3   74.51    1.56 
  -8   3   3   72.99    1.15 
  -8   3   3   72.50    1.06 
  -8   3   3   70.93    1.35 
  -8   3   3   73.87    1.36 
  -8   3   3   72.44    1.22 
  -8   3   3   73.23    1.35 
  -8   3   3   73.94    1.62 
   7  -3  -3   74.24    1.99 
   7  -3  -3   72.20    1.34 
  -7  -3   3   72.97    0.76 
   7  -3  -3   74.04    1.81 
   7  -3  -3   73.13    1.38 
  -7   3   3   76.79    1.64 
  -7   3   3   80.32    1.74 
  -7   3   3   77.86    1.65 
   7   3  -3   81.03    1.18 
  -7   3   3   78.61    1.60 
   6  -3  -3   13.39    0.88 
   6  -3  -3   11.42    0.82 
   6  -3  -3   12.91    0.48 
  -6  -3   3   12.91    0.26 
   6  -3  -3   13.62    0.73 
  -6   3   3   14.52    0.69 
  -6   3   3   14.85    0.70 
  -6   3   3   15.45    0.64 
   6   3  -3   15.34    0.45 
  -6   3   3   14.51    0.58 
  -6   3   3   14.72    0.83 
  -6   3   3   13.89    0.61 
  -6   3   3   14.35    0.65 
   5  -3  -3   27.81    0.95 
   5  -3  -3   28.77    1.14 
   5  -3  -3   28.58    1.08 
  -5  -3   3   27.68    0.41 
   5  -3  -3   27.73    1.12 
  -5   3   3   31.03    0.90 
  -5   3   3   30.27    0.85 
  -5   3   3   29.70    0.81 
  -5   3   3   30.64    0.75 
   5   3  -3   30.66    0.62 
  -5   3   3   32.89    1.17 
  -5   3   3   31.61    1.00 
  -5   3   3   32.01    0.97 
  -5   3   3   31.64    0.85 
   4  -3  -3   19.45    0.84 
  -4  -3   3   18.03    0.30 
   4  -3  -3   17.72    0.85 
  -4  -3   3   18.53    0.36 
   4  -3  -3   17.89    0.93 
   4  -3  -3   17.98    0.97 
   4  -3  -3   18.26    0.77 
  -4   3   3   19.05    0.87 
  -4   3   3   20.02    0.76 
  -4   3   3   18.87    0.57 
  -4   3   3   19.68    0.65 
  -4   3   3   19.31    0.79 
   4   3  -3   19.65    0.48 
  -4   3   3   19.62    0.64 
   3  -3  -3    8.77    0.72 
   3  -3  -3    8.17    0.59 
   3  -3  -3    8.15    0.40 
   3  -3  -3    8.29    0.60 
   3  -3  -3    8.85    0.43 
   3  -3  -3    8.84    0.68 
   3  -3  -3    7.82    0.80 
  -3   3   3    9.30    0.40 
  -3   3   3    9.22    0.50 
  -3   3   3    8.57    0.50 
   3   3  -3    8.53    0.49 
   3   3  -3    8.70    0.48 
  -3   3   3    9.45    0.63 
   3   3  -3    9.33    0.36 
  -3   3   3    9.47    0.58 
  -3   3   3    8.59    0.44 
   2  -3  -3    5.31    0.58 
   2  -3  -3    5.28    0.31 
   2  -3  -3    4.91    0.50 
  -2  -3   3    4.73    0.39 
  -2  -3   3    5.53    0.39 
  -2  -3   3    4.78    0.23 
   2  -3  -3    5.35    0.65 
   2  -3  -3    5.91    0.67 
   2  -3  -3    5.69    0.34 
   2   3  -3    5.05    0.45 
   2   3  -3    5.14    0.43 
  -2   3   3    5.57    0.35 
  -2   3   3    4.61    0.36 
  -2   3   3    4.69    0.41 
  -1  -3   3    2.57    0.26 
   1  -3  -3    3.19    0.55 
  -1  -3   3    2.86    0.35 
   1  -3  -3    3.05    0.24 
  -1  -3   3    3.04    0.33 
  -1  -3   3    3.69    0.40 
   1  -3  -3    3.19    0.54 
  -1  -3   3    2.88    0.26 
   1  -3  -3    3.48    0.62 
   1  -3  -3    2.89    0.24 
  -1   3   3    2.99    0.33 
   1   3  -3    3.16    0.41 
  -1   3   3    3.70    0.34 
   1   3  -3    3.10    0.42 
   1   3  -3    3.77    0.27 
   0  -3  -3  102.71    2.22 
   0  -3   3  103.48    1.97 
   0  -3  -3  106.82    2.55 
   0  -3  -3  102.89    1.66 
   0  -3   3  105.18    2.17 
   0  -3  -3  106.80    2.45 
   0  -3  -3  102.38    1.57 
   0  -3   3  103.38    1.81 
   0  -3   3  100.96    2.11 
   0  -3   3  102.70    1.82 
   0   3   3  115.04    1.46 
   0   3  -3  115.19    2.08 
   0   3   3  112.72    1.83 
   0   3   3  114.23    1.99 
   0   3  -3  116.10    2.26 
   1  -3   3   24.33    0.77 
   1  -3   3   23.41    0.94 
   1  -3   3   22.46    0.64 
   1  -3   3   23.33    0.86 
   1  -3   3   22.96    0.61 
   1  -3   3   23.04    0.73 
  -1   3  -3   25.13    0.88 
  -1   3  -3   28.14    1.23 
  -1   3  -3   25.13    0.76 
   1   3   3   25.25    0.71 
   1   3   3   25.56    0.66 
   1   3   3   25.13    0.50 
  -1   3  -3   24.98    0.97 
  -1   3  -3   24.15    0.84 
   2  -3   3   23.16    0.79 
   2  -3   3   21.43    0.80 
  -2  -3  -3   22.22    0.44 
   2  -3   3   22.71    0.66 
   2  -3   3   21.44    0.82 
   2  -3   3   24.19    0.91 
  -2   3  -3   25.54    0.84 
   2   3   3   25.28    0.49 
  -2   3  -3   24.87    1.02 
  -2   3  -3   25.64    1.03 
  -2   3  -3   24.34    0.91 
  -2   3  -3   24.94    0.75 
  -2   3  -3   24.75    1.13 
   3  -3   3    0.50    0.33 
   3  -3   3    1.07    0.26 
   3  -3   3    0.09    0.23 
   3  -3   3    0.12    0.21 
  -3   3  -3    0.59    0.22 
  -3   3  -3    0.80    0.27 
  -3   3  -3    0.66    0.41 
  -3   3  -3    0.13    0.33 
   3   3   3    0.50    0.12 
  -3   3  -3    0.40    0.31 
  -3   3  -3    0.41    0.23 
   4  -3   3   12.55    0.71 
   4  -3   3   14.66    0.77 
   4  -3   3   13.33    0.58 
   4  -3   3   13.50    0.72 
  -4  -3  -3   13.75    0.36 
   4  -3   3   13.39    0.56 
  -4   3  -3   16.12    0.60 
  -4   3  -3   16.04    0.73 
  -4   3  -3   17.69    1.09 
  -4   3  -3   17.14    0.85 
  -4   3  -3   15.67    0.62 
  -4   3  -3   14.89    0.82 
  -4   3  -3   15.69    0.87 
   4   3   3   15.92    0.39 
   5  -3   3   29.89    0.90 
   5  -3   3   30.09    1.05 
   5  -3   3   29.75    0.84 
   5  -3   3   31.55    0.96 
  -5  -3  -3   29.85    0.48 
  -5   3  -3   34.29    0.91 
   5   3   3   33.02    0.60 
  -5   3  -3   34.24    0.88 
  -5   3  -3   34.45    1.15 
  -5   3  -3   34.76    1.02 
  -5   3  -3   34.21    1.12 
  -5   3  -3   33.14    1.01 
  -5   3  -3   33.80    1.14 
   6  -3   3    8.84    0.58 
  -6  -3  -3    8.63    0.20 
   6  -3   3    8.54    0.82 
   6  -3   3    8.61    0.56 
   6  -3   3    8.80    0.55 
  -6   3  -3    8.44    0.61 
  -6   3  -3    8.45    0.64 
  -6   3  -3    9.43    0.59 
  -7  -3  -3    3.51    0.44 
   7  -3   3    4.54    0.52 
   7  -3   3    3.04    0.53 
   7  -3   3    3.59    0.40 
  -7  -3  -3    3.68    0.09 
  -7   3  -3    4.67    0.36 
  -7   3  -3    4.65    0.32 
  -7   3  -3    4.82    0.34 
  -7   3  -3    4.69    0.29 
  -7   3  -3    5.18    0.53 
  -7   3  -3    4.95    0.41 
  -7   3  -3    5.14    0.38 
  -7   3  -3    4.81    0.29 
  -7   3  -3    4.76    0.53 
  -7   3  -3    4.58    0.24 
  -7   3  -3    4.34    0.37 
   8  -3   3    7.27    0.49 
  -8  -3  -3    7.33    0.11 
  -8  -3  -3    7.51    0.52 
   8  -3   3    7.03    0.53 
  -8   3  -3    8.01    0.39 
  -8   3  -3    7.93    0.30 
  -8   3  -3    8.25    0.40 
  -8   3  -3    7.87    0.33 
  -8   3  -3    7.91    0.39 
  -8   3  -3    7.37    0.36 
  -8   3  -3    7.89    0.26 
  -8   3  -3    8.09    0.37 
  -8   3  -3    6.61    0.50 
  -8   3  -3    8.31    0.32 
   9  -3   3    5.53    0.31 
   9  -3   3    5.35    0.46 
  -9   3  -3    6.36    0.24 
  -9   3  -3    5.89    0.27 
  -9   3  -3    6.57    0.29 
  -9   3  -3    5.84    0.28 
  10  -4  -3    2.84    0.45 
  10  -4  -3    2.73    0.25 
 -10   4   3    2.61    0.26 
 -10   4   3    2.28    0.26 
 -10   4   3    2.45    0.25 
 -10   4   3    2.86    0.36 
 -10   4   3    2.21    0.17 
 -10   4   3    2.22    0.23 
 -10   4   3    2.52    0.23 
 -10   4   3    2.29    0.21 
 -10   4   3    2.57    0.20 
   9  -4  -3   22.20    0.71 
   9  -4  -3   22.76    0.84 
   9  -4  -3   22.05    0.53 
  -9  -4   3   22.13    0.20 
   9  -4  -3   21.32    1.27 
   9  -4  -3   21.61    0.65 
  -9   4   3   23.10    0.48 
  -9   4   3   22.57    0.65 
  -9   4   3   23.65    0.44 
  -9   4   3   23.91    0.64 
  -9   4   3   23.33    0.60 
  -9   4   3   23.48    0.63 
  -9   4   3   23.63    0.63 
  -9   4   3   21.99    0.71 
  -9   4   3   23.83    0.50 
   8  -4  -3    6.82    0.49 
   8  -4  -3    6.62    0.97 
   8  -4  -3    7.52    0.45 
   8  -4  -3    7.03    0.35 
   8  -4  -3    7.73    0.66 
  -8   4   3    7.35    0.43 
  -8   4   3    7.88    0.36 
  -8   4   3    7.55    0.45 
  -8   4   3    7.81    0.32 
  -8   4   3    8.27    0.48 
  -8   4   3    8.52    0.57 
  -8   4   3    7.74    0.37 
  -8   4   3    7.43    0.58 
  -7  -4   3   76.32    0.79 
   7  -4  -3   75.56    1.93 
   7  -4  -3   75.40    1.67 
   7  -4  -3   78.82    1.50 
  -7  -4   3   76.09    0.65 
   7  -4  -3   75.76    2.16 
   7  -4  -3   76.07    1.43 
   7  -4  -3   74.50    1.16 
  -7   4   3   79.46    3.14 
  -7   4   3   79.15    1.84 
  -7   4   3   81.30    1.59 
  -7   4   3   79.61    1.49 
  -7   4   3   77.67    1.23 
  -7   4   3   81.08    1.76 
  -7   4   3   82.02    1.71 
  -7   4   3   79.27    2.68 
  -7   4   3   79.75    1.65 
  -7   4   3   80.63    1.49 
  -6  -4   3   54.14    0.68 
   6  -4  -3   54.78    1.11 
   6  -4  -3   54.93    2.02 
   6  -4  -3   52.08    1.72 
   6  -4  -3   54.89    1.18 
   6  -4  -3   53.82    1.55 
  -6   4   3   59.06    1.49 
  -6   4   3   58.55    1.43 
  -6   4   3   60.22    1.58 
  -6   4   3   62.09    1.44 
  -6   4   3   60.83    1.32 
  -5  -4   3   17.85    0.37 
   5  -4  -3   18.66    0.91 
  -5  -4   3   17.29    0.47 
   5  -4  -3   16.07    1.04 
   5  -4  -3   16.81    1.12 
  -5   4   3   19.81    0.91 
  -5   4   3   20.28    0.75 
  -5   4   3   19.41    0.74 
   5   4  -3   18.53    0.56 
  -5   4   3   20.16    0.65 
   4  -4  -3    7.15    0.70 
  -4  -4   3    6.76    0.28 
   4  -4  -3    6.22    0.45 
   4  -4  -3    6.46    0.80 
   4  -4  -3    7.76    0.88 
  -4  -4   3    6.28    0.31 
   4  -4  -3    6.74    0.48 
   4  -4  -3    7.67    0.81 
   4  -4  -3    6.98    0.89 
  -4   4   3    7.23    0.45 
  -4   4   3    7.80    0.59 
  -4   4   3    7.23    0.60 
  -4   4   3    7.35    0.53 
   4   4  -3    7.32    0.34 
  -4   4   3    6.46    0.56 
  -4   4   3    7.52    0.34 
  -4   4   3    7.10    0.49 
   3  -4  -3   42.22    1.73 
   3  -4  -3   39.15    1.32 
   3  -4  -3   39.70    1.33 
   3  -4  -3   38.36    0.96 
   3  -4  -3   39.47    1.45 
   3  -4  -3   37.62    1.37 
   3  -4  -3   37.95    0.99 
  -3  -4   3   38.89    0.64 
  -3   4   3   44.21    1.13 
  -3   4   3   43.44    1.18 
  -3   4   3   43.94    1.29 
  -3   4   3   44.36    1.02 
  -3   4   3   43.98    1.09 
   3   4  -3   43.86    0.86 
  -2  -4   3   15.68    0.44 
  -2  -4   3   15.18    0.58 
   2  -4  -3   15.87    0.97 
   2  -4  -3   15.95    1.01 
   2  -4  -3   15.67    0.55 
   2  -4  -3   15.24    0.89 
   2  -4  -3   15.74    0.94 
   2  -4  -3   15.99    0.54 
  -2   4   3   18.45    0.80 
  -2   4   3   17.85    0.71 
  -2   4   3   18.69    0.67 
   2   4  -3   17.67    0.82 
   2   4  -3   17.06    0.73 
   2   4  -3   17.59    0.54 
   1  -4  -3    6.67    0.71 
  -1  -4   3    7.65    0.50 
  -1  -4   3    6.41    0.31 
   1  -4  -3    6.73    0.30 
   1  -4  -3    6.90    0.81 
   1  -4  -3    7.23    0.77 
  -1  -4   3    6.64    0.45 
   1  -4  -3    6.39    0.71 
  -1  -4   3    6.83    0.33 
  -1  -4   3    6.21    0.46 
  -1  -4   3    7.13    0.56 
   1   4  -3    8.36    0.58 
  -1   4   3    8.09    0.53 
  -1   4   3    8.28    0.50 
   1   4  -3    8.35    0.63 
   0  -4   3    9.23    0.65 
   0  -4   3    8.92    0.53 
   0  -4  -3    9.41    0.78 
   0  -4  -3    9.06    0.74 
   0  -4  -3    9.43    0.52 
   0  -4   3    9.44    0.55 
   0  -4   3    9.34    0.46 
   0  -4   3    9.01    0.55 
   0  -4   3   10.10    0.46 
   0  -4  -3    9.52    0.87 
   0   4   3   10.66    0.42 
   0   4   3   10.76    0.54 
   0   4  -3   11.17    0.64 
   0   4  -3   11.73    0.75 
   0   4  -3   11.02    0.65 
   0   4   3   10.90    0.57 
   1  -4   3   68.99    1.55 
   1  -4   3   67.61    1.54 
   1  -4   3   67.61    1.40 
   1  -4   3   66.04    1.82 
   1  -4   3   70.19    1.48 
   1  -4   3   68.24    1.63 
  -1  -4  -3   68.25    1.06 
  -1   4  -3   81.37    2.08 
  -1   4  -3   82.77    1.82 
  -1   4  -3   82.30    1.91 
  -1   4  -3   81.74    1.66 
   1   4   3   80.58    1.53 
   1   4   3   81.31    1.26 
  -1   4  -3   80.61    1.89 
   2  -4   3   46.17    1.32 
  -2  -4  -3   47.31    0.89 
   2  -4   3   48.60    1.39 
   2  -4   3   46.43    1.22 
   2  -4   3   47.97    1.18 
   2  -4   3   47.21    1.10 
   2  -4   3   47.10    1.18 
  -2  -4  -3   47.02    0.64 
  -2  -4  -3   46.34    0.62 
   2  -4   3   47.28    1.28 
   2  -4   3   47.86    1.57 
  -2   4  -3   58.35    1.44 
  -2   4  -3   55.85    1.33 
   2   4   3   55.79    0.94 
  -2   4  -3   56.41    1.58 
  -2   4  -3   54.87    1.46 
  -2   4  -3   56.60    1.70 
  -2   4  -3   53.23    0.96 
   3  -4   3   55.95    1.86 
  -3  -4  -3   56.53    0.89 
   3  -4   3   55.84    1.60 
   3  -4   3   58.90    1.30 
  -3  -4  -3   59.36    1.01 
   3  -4   3   57.92    1.44 
  -3   4  -3   68.71    1.64 
  -3   4  -3   72.87    1.53 
  -3   4  -3   70.51    1.65 
  -3   4  -3   69.31    1.97 
   3   4   3   67.03    1.08 
  -3   4  -3   65.96    2.22 
   4  -4   3   12.44    0.63 
   4  -4   3   13.23    0.78 
  -4  -4  -3   13.20    0.42 
   4  -4   3   14.69    0.95 
   4  -4   3   12.91    0.62 
  -4   4  -3   15.35    0.87 
  -4   4  -3   16.26    0.81 
  -4   4  -3   15.82    0.88 
  -4   4  -3   16.84    0.98 
  -4   4  -3   15.88    0.67 
  -4   4  -3   15.75    0.72 
  -5  -4  -3   12.64    0.26 
  -5  -4  -3   13.21    0.20 
   5  -4   3   14.39    0.63 
   5  -4   3   12.87    0.80 
   5  -4   3   13.60    0.81 
  -5  -4  -3   13.26    0.34 
  -5  -4  -3   13.75    0.70 
   5  -4   3   13.29    0.71 
   5  -4   3   13.55    0.53 
   5  -4   3   13.61    0.65 
  -5  -4  -3   13.19    0.33 
  -5   4  -3   16.68    0.88 
  -5   4  -3   16.16    0.74 
  -5   4  -3   15.76    1.08 
  -5   4  -3   16.02    0.86 
  -5   4  -3   15.08    0.76 
  -5   4  -3   14.73    0.62 
  -5   4  -3   15.99    0.83 
  -5   4  -3   15.23    0.64 
  -5   4  -3   15.18    0.54 
  -5   4  -3   11.76    1.18 
   6  -4   3   14.59    0.64 
   6  -4   3   14.51    0.71 
   6  -4   3   13.92    0.82 
   6  -4   3   14.48    0.52 
   6  -4   3   14.61    0.85 
   6  -4   3   14.65    0.85 
  -6  -4  -3   14.33    0.20 
  -6   4  -3   17.16    0.59 
  -6   4  -3   16.86    0.53 
  -6   4  -3   16.09    0.55 
  -6   4  -3   16.50    0.49 
  -6   4  -3   17.03    0.80 
  -6   4  -3   16.92    0.44 
  -6   4  -3   16.34    0.58 
  -6   4  -3   16.59    0.61 
  -6   4  -3   15.42    0.76 
  -6   4  -3   16.26    0.59 
   7  -4   3   15.44    0.81 
   7  -4   3   15.75    0.83 
  -7  -4  -3   15.60    0.18 
   7  -4   3   16.10    0.48 
   7  -4   3   16.14    0.62 
   7  -4   3   14.84    0.64 
  -7   4  -3   17.62    0.42 
  -7   4  -3   18.62    0.56 
  -7   4  -3   18.16    0.29 
  -7   4  -3   17.50    0.76 
  -7   4  -3   18.44    0.56 
  -7   4  -3   18.15    0.76 
  -7   4  -3   18.38    0.41 
  -7   4  -3   19.98    0.60 
  -7   4  -3   18.17    0.55 
  -7   4  -3   18.56    0.46 
  -7   4  -3   14.77    0.59 
  -7   4  -3   18.55    0.58 
   8  -4   3    0.64    0.38 
   8  -4   3    1.07    0.23 
   8  -4   3    0.08    0.25 
   8  -4   3    0.46    0.31 
  -8   4  -3    0.77    0.16 
  -8   4  -3    0.39    0.17 
  -8   4  -3    1.12    0.26 
  -8   4  -3    1.13    0.21 
  -8   4  -3    0.72    0.14 
  -8   4  -3    0.87    0.23 
  -8   4  -3    0.58    0.18 
  -8   4  -3    1.11    0.23 
   9  -5  -3   33.67    0.85 
   9  -5  -3   32.90    1.95 
   9  -5  -3   33.26    0.89 
  -9   5   3   37.65    0.73 
  -9   5   3   36.92    0.76 
  -9   5   3   37.94    0.59 
  -9   5   3   36.95    0.68 
  -9   5   3   38.33    0.51 
  -9   5   3   36.67    0.73 
  -8  -5   3   39.31    0.34 
   8  -5  -3   38.77    0.60 
   8  -5  -3   38.90    1.02 
   8  -5  -3   40.17    1.09 
  -8   5   3   45.35    0.79 
  -8   5   3   44.90    0.74 
  -8   5   3   45.61    0.91 
  -8   5   3   45.12    0.94 
   7  -5  -3    7.98    0.30 
  -7  -5   3    8.06    0.14 
   7  -5  -3    7.23    0.86 
   7  -5  -3    8.09    0.73 
   7  -5  -3    7.87    0.64 
   7  -5  -3    8.85    0.69 
  -7   5   3    8.18    0.67 
  -7   5   3    9.19    0.66 
  -7   5   3    9.34    0.45 
  -7   5   3    8.71    0.52 
   6  -5  -3    2.83    0.77 
  -6  -5   3    3.17    0.21 
  -6  -5   3    2.73    0.21 
   6  -5  -3    3.39    0.44 
   6  -5  -3    3.66    0.64 
  -6  -5   3    3.07    0.15 
   6  -5  -3    3.30    0.57 
  -6   5   3    3.50    0.36 
  -6   5   3    3.02    0.56 
  -6   5   3    2.67    0.96 
  -6   5   3    5.55    1.23 
  -6   5   3    3.56    0.49 
  -6   5   3    3.36    0.42 
   5  -5  -3    6.67    0.53 
   5  -5  -3    6.28    1.12 
  -5  -5   3    6.52    0.24 
   5  -5  -3    6.36    0.61 
   5  -5  -3    7.29    0.78 
   5  -5  -3    6.35    0.47 
  -5  -5   3    6.21    0.30 
   5  -5  -3    7.72    1.11 
   5  -5  -3    5.44    0.67 
  -5  -5   3    6.89    0.31 
  -5  -5   3    6.40    0.31 
   5  -5  -3    7.77    1.01 
  -5   5   3    7.33    0.67 
  -5   5   3    7.28    0.55 
  -5   5   3    7.08    0.58 
  -5   5   3    7.03    0.32 
  -5   5   3    7.34    0.42 
  -5   5   3    6.57    0.56 
  -5   5   3    6.41    0.66 
  -5   5   3    7.03    0.47 
  -4  -5   3    7.87    0.41 
   4  -5  -3    6.71    0.96 
   4  -5  -3    7.56    0.51 
   4  -5  -3    6.30    0.95 
   4  -5  -3    5.48    0.48 
   4  -5  -3    7.54    0.78 
  -4   5   3    7.40    0.37 
  -4   5   3    6.72    0.49 
  -4   5   3    7.00    0.54 
  -4   5   3    7.78    0.65 
  -4   5   3    6.72    0.34 
  -3  -5   3    4.38    0.22 
  -3  -5   3    4.15    0.33 
   3  -5  -3    4.11    0.79 
   3  -5  -3    5.76    0.43 
   3  -5  -3    3.32    0.85 
   3  -5  -3    4.45    0.89 
  -3   5   3    5.57    0.63 
  -3   5   3    4.74    0.33 
  -3   5   3    5.66    0.34 
  -3   5   3    5.33    0.53 
  -3   5   3    5.90    0.47 
  -2  -5   3   25.95    0.61 
   2  -5  -3   26.82    1.24 
   2  -5  -3   26.32    0.69 
   2  -5  -3   22.04    1.21 
   2  -5  -3   26.82    1.26 
  -2  -5   3   26.03    0.71 
   2  -5  -3   26.60    0.76 
  -2   5   3   31.09    0.75 
  -2   5   3   30.21    0.90 
  -2   5   3   30.57    0.72 
  -1  -5   3   15.87    0.72 
   1  -5  -3   15.06    0.54 
  -1  -5   3   15.35    0.74 
  -1  -5   3   15.06    0.55 
   1  -5  -3   15.23    0.91 
   1  -5  -3   14.94    0.96 
   1   5  -3   17.39    0.51 
  -1   5   3   18.10    0.58 
  -1   5   3   18.03    0.55 
   1   5  -3   18.17    0.54 
   0  -5   3   98.75    2.02 
   0  -5   3   95.87    1.71 
   0  -5  -3   97.89    1.65 
   0  -5   3   94.01    1.72 
   0  -5   3   96.20    2.00 
   0  -5  -3   94.56    2.23 
   0  -5  -3   97.02    1.50 
   0   5  -3  118.14    1.81 
   0   5   3  122.53    1.96 
   0   5  -3  116.36    1.81 
   0   5  -3  116.21    2.29 
   0   5   3  115.55    1.86 
   1  -5   3   58.62    1.53 
  -1  -5  -3   58.30    0.93 
  -1  -5  -3   58.82    1.13 
   1  -5   3   58.02    1.53 
   1  -5   3   57.72    1.62 
   1  -5   3   58.33    1.28 
  -1   5  -3   70.19    1.20 
  -1   5  -3   72.18    1.59 
  -1   5  -3   68.26    1.21 
  -1   5  -3   67.73    1.78 
   2  -5   3   14.74    0.88 
   2  -5   3   14.22    0.83 
  -2  -5  -3   14.15    0.48 
   2  -5   3   14.65    0.63 
   2  -5   3   13.66    0.69 
   2  -5   3   15.01    0.84 
  -2   5  -3   16.91    0.50 
  -2   5  -3   18.07    0.92 
  -2   5  -3   15.83    0.84 
  -2   5  -3   16.79    0.50 
  -2   5  -3   18.03    0.79 
   3  -5   3   13.95    0.70 
   3  -5   3   12.51    0.65 
   3  -5   3   11.41    0.78 
   3  -5   3   13.40    1.13 
  -3  -5  -3   13.02    0.40 
   3  -5   3   13.30    0.89 
  -3  -5  -3   12.75    0.48 
  -3  -5  -3   13.06    0.34 
   3  -5   3   13.24    0.84 
   3  -5   3   12.76    0.78 
  -3  -5  -3   13.29    0.42 
   3  -5   3   13.55    0.75 
  -3   5  -3   14.29    0.52 
  -3   5  -3   16.22    0.44 
  -3   5  -3   16.35    0.85 
  -3   5  -3   16.18    0.80 
  -3   5  -3   15.45    0.71 
  -3   5  -3   15.77    0.75 
  -3   5  -3   14.53    0.65 
  -3   5  -3   15.80    0.96 
  -4  -5  -3   33.05    0.61 
   4  -5   3   32.05    1.79 
   4  -5   3   32.09    1.32 
   4  -5   3   32.80    0.96 
   4  -5   3   30.67    1.23 
  -4  -5  -3   31.17    0.50 
   4  -5   3   31.21    1.04 
   4  -5   3   29.07    1.17 
  -4  -5  -3   31.57    0.61 
  -4   5  -3   39.37    1.64 
  -4   5  -3   37.37    0.88 
  -4   5  -3   38.33    1.10 
  -4   5  -3   36.81    1.06 
  -4   5  -3   39.53    1.18 
  -4   5  -3   38.32    0.95 
  -5  -5  -3    6.37    0.15 
  -5  -5  -3    6.52    0.18 
   5  -5   3    5.82    0.67 
   5  -5   3    6.58    0.75 
   5  -5   3    6.49    0.61 
   5  -5   3    7.02    0.63 
  -5  -5  -3    6.63    0.24 
   5  -5   3    6.56    0.65 
  -5   5  -3    6.59    0.62 
  -5   5  -3    7.50    0.51 
  -5   5  -3    6.50    0.53 
  -5   5  -3    6.57    0.60 
  -5   5  -3    7.24    0.39 
  -6  -5  -3   15.00    0.18 
   6  -5   3   14.70    0.70 
   6  -5   3   15.38    0.79 
   6  -5   3   15.10    0.83 
   6  -5   3   14.91    0.69 
  -6   5  -3   18.46    0.47 
  -6   5  -3   19.37    0.57 
  -6   5  -3   17.90    0.55 
  -6   5  -3   18.41    0.58 
  -6   5  -3   18.65    0.49 
   7  -5   3   41.51    0.94 
   7  -5   3   41.97    1.00 
   7  -5   3   42.18    1.81 
   7  -5   3   41.91    1.05 
  -7   5  -3   50.13    0.92 
  -7   5  -3   50.36    0.93 
  -7   5  -3   50.55    0.67 
  -7  -6   3    1.81    0.07 
   7  -6  -3    0.76    0.25 
  -7   6   3    1.41    0.34 
   6  -6  -3    1.28    0.34 
   6  -6  -3    0.91    0.26 
  -6  -6   3    1.68    0.15 
  -6   6   3    1.64    0.34 
  -6   6   3    1.31    0.59 
  -6   6   3    1.80    0.40 
  -6   6   3    1.59    0.70 
  -5  -6   3    1.80    0.15 
   5  -6  -3    1.82    0.45 
  -5  -6   3    2.07    0.20 
   5  -6  -3    2.26    0.27 
   5  -6  -3    2.14    0.40 
   5  -6  -3    2.12    0.42 
   5  -6  -3    1.73    0.40 
  -5  -6   3    1.90    0.25 
   5  -6  -3    1.66    0.62 
   5  -6  -3    3.11    0.85 
  -5   6   3    2.48    0.42 
  -5   6   3    2.24    0.40 
  -5   6   3    2.25    0.53 
  -5   6   3    1.67    0.46 
  -5   6   3    2.28    0.21 
  -4  -6   3   27.62    0.66 
   4  -6  -3   28.77    0.86 
   4  -6  -3   29.69    1.37 
   4  -6  -3   28.66    0.77 
  -4  -6   3   28.29    0.52 
   4  -6  -3   28.56    0.78 
   4  -6  -3   29.41    0.82 
   4  -6  -3   26.34    1.37 
   4  -6  -3   29.37    0.63 
   4  -6  -3   28.97    0.80 
   4  -6  -3   28.53    0.80 
  -4  -6   3   29.47    0.63 
   4  -6  -3   27.97    0.58 
  -4   6   3   34.85    1.09 
  -4   6   3   35.50    0.67 
  -4   6   3   36.30    0.79 
  -4   6   3   35.63    0.99 
  -4   6   3   34.77    0.77 
   3  -6  -3    0.12    0.19 
   3  -6  -3    0.67    0.22 
   3  -6  -3    0.66    0.28 
   3  -6  -3    0.42    0.26 
   3  -6  -3    0.81    0.56 
  -3  -6   3    0.68    0.18 
  -3  -6   3    0.46    0.17 
   3  -6  -3    1.00    0.27 
   3  -6  -3    0.61    0.27 
   3  -6  -3    1.03    0.22 
   3  -6  -3    0.51    0.47 
   3  -6  -3    0.55    0.25 
  -3  -6   3    0.55    0.17 
   3  -6  -3    0.43    0.16 
  -3  -6   3    0.33    0.21 
  -3   6   3    0.59    0.34 
  -3   6   3    0.50    0.20 
  -3   6   3    0.68    0.18 
  -3   6   3    0.66    0.32 
  -3   6   3    0.55    0.19 
   2  -6  -3    1.47    0.28 
  -2  -6   3    1.92    0.22 
  -2  -6   3    1.81    0.32 
   2  -6  -3    1.99    0.25 
  -2  -6   3    1.61    0.14 
   2  -6  -3    1.42    0.24 
   2  -6  -3    1.62    0.65 
  -2  -6   3    1.80    0.15 
   2  -6  -3    1.48    0.29 
  -2  -6   3    1.85    0.34 
  -2  -6   3    2.08    0.17 
   2  -6  -3    2.35    0.33 
   2  -6  -3    1.80    0.37 
   2  -6  -3    1.56    0.55 
   2  -6  -3    1.97    0.31 
   2  -6  -3    2.11    0.40 
  -2  -6   3    2.09    0.32 
   2  -6  -3    2.18    0.22 
  -2  -6   3    1.75    0.19 
   2  -6  -3    2.03    0.37 
  -2  -6   3    2.08    0.29 
  -2   6   3    2.28    0.32 
  -2   6   3    2.90    0.33 
   2   6  -3    2.02    0.26 
   2   6  -3    2.49    0.27 
  -2   6   3    2.11    0.39 
   1  -6  -3   16.56    0.64 
   1  -6  -3   15.92    0.40 
   1  -6  -3   16.16    0.56 
  -1  -6   3   15.86    0.41 
  -1  -6   3   16.19    0.44 
   1  -6  -3   15.73    0.56 
  -1  -6   3   16.36    0.59 
  -1  -6   3   15.74    0.55 
   1  -6  -3   15.87    0.56 
  -1  -6   3   15.51    0.58 
  -1  -6   3   15.67    0.57 
   1  -6  -3   15.59    0.46 
  -1  -6   3   15.75    0.54 
  -1  -6   3   15.28    0.55 
  -1  -6   3   16.06    0.38 
   1  -6  -3   15.61    0.43 
   1  -6  -3   16.03    0.59 
   1  -6  -3   15.81    0.29 
   1  -6  -3   15.60    0.56 
   1  -6  -3   15.82    0.56 
   1  -6  -3   15.56    0.59 
   1   6  -3   20.61    0.57 
   1   6  -3   20.14    0.56 
  -1   6   3   20.66    0.63 
  -1   6   3   20.52    0.61 
   0  -6   3  121.47    1.96 
   0  -6   3  122.38    1.97 
   0  -6   3  121.94    1.45 
   0  -6   3  118.95    2.33 
   0  -6  -3  121.77    1.87 
   0  -6  -3  121.51    1.57 
   0  -6  -3  121.76    1.59 
   0  -6  -3  121.73    1.21 
   0  -6  -3  122.25    1.99 
   0  -6  -3  120.22    1.94 
   0  -6   3  121.41    2.39 
   0  -6   3  120.32    1.88 
   0  -6  -3  121.33    1.79 
   0  -6  -3  121.17    1.56 
   0  -6   3  120.68    1.52 
   0  -6   3  119.83    2.04 
   0  -6  -3  122.68    1.89 
   0  -6   3  121.24    1.94 
   0  -6   3  120.95    2.01 
   0  -6  -3  119.52    1.80 
   0  -6   3  121.12    1.74 
   0  -6  -3  120.83    1.40 
   0   6   3  153.69    2.25 
   0   6  -3  141.69    2.65 
   0   6  -3  148.89    2.20 
   0   6  -3  150.01    2.19 
   0   6   3  148.47    2.21 
   1  -6   3    4.60    0.46 
   1  -6   3    4.86    0.59 
  -1  -6  -3    4.28    0.32 
  -1  -6  -3    4.42    0.31 
  -1  -6  -3    4.32    0.29 
   1  -6   3    4.21    0.23 
   1  -6   3    3.87    0.71 
  -1  -6  -3    4.97    0.33 
  -1  -6  -3    4.08    0.07 
   1  -6   3    4.94    0.64 
   1  -6   3    4.30    0.50 
  -1  -6  -3    5.05    0.36 
   1  -6   3    4.78    0.29 
   1  -6   3    5.64    0.54 
   1  -6   3    5.09    0.49 
   1  -6   3    4.38    0.41 
  -1  -6  -3    4.52    0.30 
  -1   6  -3    6.17    0.56 
  -1   6  -3    5.34    0.33 
  -1   6  -3    6.03    0.37 
  -1   6  -3    5.55    0.34 
  -1   6  -3    4.71    0.69 
   2  -6   3    0.58    0.31 
   2  -6   3    0.03    0.28 
  -2  -6  -3    0.26    0.14 
   2  -6   3    0.63    0.18 
   2  -6   3    0.67    0.43 
   2  -6   3    0.51    0.25 
  -2  -6  -3    0.46    0.16 
   2  -6   3    0.32    0.33 
   2  -6   3    0.86    0.21 
  -2  -6  -3    0.67    0.19 
   2  -6   3    0.78    0.46 
  -2   6  -3    0.81    0.21 
  -2   6  -3    0.85    0.32 
  -2   6  -3    0.64    0.18 
  -2   6  -3    1.43    0.26 
  -2   6  -3    0.89    0.30 
   3  -6   3   16.97    0.67 
   3  -6   3   17.41    0.51 
   3  -6   3   18.95    0.99 
  -3  -6  -3   17.66    0.37 
   3  -6   3   15.95    1.01 
  -3  -6  -3   18.34    0.45 
   3  -6   3   17.78    0.63 
  -3  -6  -3   17.17    0.49 
   3  -6   3   17.41    0.46 
   3  -6   3   17.21    0.71 
  -3  -6  -3   17.39    0.52 
   3  -6   3   16.83    0.67 
  -3   6  -3   20.07    0.82 
  -3   6  -3   21.12    0.44 
  -3   6  -3   22.01    0.72 
  -3   6  -3   20.99    0.80 
  -3   6  -3   21.28    1.21 
  -4  -6  -3   14.96    0.37 
  -4  -6  -3   15.47    0.25 
   4  -6   3   15.03    0.61 
   4  -6   3   15.44    0.65 
  -4   6  -3   18.05    1.19 
  -4   6  -3   17.38    0.67 
  -4   6  -3   17.52    1.39 
  -4   6  -3   17.69    0.58 
  -5  -6  -3    1.36    0.07 
   5  -6   3    1.57    0.41 
  -5   6  -3    1.81    0.33 
   6  -6   3    0.09    0.18 
  -6   6  -3    0.51    0.12 
  -6   6  -3    0.26    0.09 
   5  -7  -3    4.97    0.15 
   5  -7  -3    4.70    0.20 
   5  -7  -3    4.93    0.31 
  -5  -7   3    4.90    0.17 
  -5   7   3    6.18    0.58 
  -5   7   3    5.55    0.36 
  -5   7   3    6.27    0.32 
   4  -7  -3    0.50    0.15 
   4  -7  -3    0.12    0.20 
   4  -7  -3    0.26    0.07 
  -4  -7   3    0.46    0.11 
  -4  -7   3    0.42    0.09 
   4  -7  -3    0.41    0.17 
   4  -7  -3    0.50    0.16 
   4  -7  -3    0.07    0.19 
   4  -7  -3    0.25    0.13 
   4  -7  -3    0.23    0.12 
   4  -7  -3   -0.04    0.21 
  -4   7   3    0.29    0.09 
  -4   7   3    0.23    0.21 
  -4   7   3    0.27    0.26 
   3  -7  -3    3.06    0.39 
  -3  -7   3    3.11    0.19 
   3  -7  -3    2.83    0.39 
   3  -7  -3    3.09    0.32 
   3  -7  -3    3.12    0.33 
   3  -7  -3    2.77    0.22 
   3  -7  -3    3.10    0.30 
  -3  -7   3    2.89    0.36 
  -3  -7   3    3.16    0.22 
   3  -7  -3    2.99    0.33 
   3  -7  -3    3.34    0.18 
   3  -7  -3    2.65    0.21 
  -3   7   3    4.16    0.26 
  -3   7   3    3.81    0.44 
   2  -7  -3   12.33    0.27 
   2  -7  -3   12.00    0.26 
   2  -7  -3   12.73    0.50 
   2  -7  -3   12.27    0.24 
   2  -7  -3   12.19    0.29 
   2  -7  -3   12.64    0.42 
   2  -7  -3   12.83    0.56 
  -2  -7   3   11.55    0.37 
  -2  -7   3   11.93    0.51 
   2  -7  -3   12.50    0.46 
  -2  -7   3   12.10    0.38 
  -2  -7   3   13.30    0.34 
   2  -7  -3   12.85    0.44 
   2  -7  -3   12.36    0.46 
  -2   7   3   14.62    0.40 
  -2   7   3   14.31    0.44 
  -2   7   3   14.39    0.57 
   2   7  -3   14.69    0.42 
   1  -7  -3   31.67    0.71 
   1  -7  -3   31.95    0.69 
   1  -7  -3   32.33    0.35 
  -1  -7   3   32.13    0.79 
  -1  -7   3   31.69    0.69 
  -1  -7   3   32.08    0.64 
   1  -7  -3   32.45    0.75 
   1  -7  -3   32.89    0.72 
   1  -7  -3   30.97    0.67 
  -1  -7   3   31.74    0.78 
   1   7  -3   39.17    0.74 
  -1   7   3   37.95    0.77 
   0  -7   3    6.84    0.37 
   0  -7   3    5.97    0.20 
   0  -7   3    6.35    0.17 
   0  -7  -3    6.61    0.27 
   0  -7  -3    6.44    0.28 
   0  -7  -3    6.29    0.33 
   0  -7   3    6.39    0.19 
   0  -7   3    7.10    0.38 
   0  -7  -3    6.06    0.30 
   0  -7   3    6.39    0.35 
   0  -7  -3    5.82    0.31 
   0  -7   3    6.63    0.36 
   0  -7  -3    6.08    0.37 
   0  -7   3    6.45    0.44 
   0  -7   3    6.41    0.18 
   0   7  -3    7.58    0.33 
   0   7  -3    7.21    0.30 
   0   7   3    6.80    0.31 
  -1  -7  -3    6.54    0.26 
   1  -7   3    6.66    0.26 
   1  -7   3    6.63    0.36 
   1  -7   3    5.91    0.37 
   1  -7   3    7.02    0.50 
   1  -7   3    6.34    0.44 
   1  -7   3    7.00    0.25 
   1  -7   3    6.67    0.22 
  -1  -7  -3    6.69    0.30 
   1  -7   3    6.30    0.36 
  -1  -7  -3    5.85    0.35 
  -1   7  -3    8.74    0.30 
  -1   7  -3    8.61    0.47 
   2  -7   3    4.95    0.34 
   2  -7   3    4.23    0.37 
  -2  -7  -3    4.89    0.20 
   2  -7   3    4.97    0.24 
   2  -7   3    4.87    0.32 
   2  -7   3    4.93    0.22 
  -2  -7  -3    5.31    0.25 
   2  -7   3    4.90    0.34 
   2  -7   3    4.14    0.41 
   2  -7   3    4.90    0.23 
  -2   7  -3    6.04    0.22 
  -2   7  -3    6.92    0.66 
  -2   7  -3    6.39    0.41 
   3  -7   3   12.72    0.29 
   3  -7   3   12.94    0.43 
   3  -7   3   12.80    0.22 
  -3  -7  -3   12.60    0.28 
   3  -7   3   12.74    0.41 
  -3   7  -3   15.94    0.54 
  -3   7  -3   19.63    1.15 
  -3   7  -3   14.53    1.06 
  -3   7  -3   15.88    0.47 
 -12   0   4    4.92    0.29 
 -12   0   4    4.83    0.18 
 -11   0   4    0.03    0.10 
 -11   0   4   -0.12    0.26 
 -11   0   4    0.13    0.09 
 -11   0   4   -0.06    0.21 
 -11   0   4    0.10    0.10 
 -10   0   4   15.27    0.54 
 -10   0   4   15.45    0.37 
 -10   0   4   15.08    0.36 
 -10   0   4   15.42    0.41 
 -10   0   4   15.10    0.65 
  -9   0   4    2.09    0.40 
  -9   0   4    1.92    0.39 
  -8   0   4   64.46    0.79 
  -8   0   4   63.92    1.30 
   8   0  -4   63.83    1.32 
  -8   0   4   65.25    1.36 
   7   0  -4    0.42    0.23 
  -7   0   4    0.36    0.18 
  -7   0   4    0.46    0.11 
   7   0  -4    0.44    0.27 
   6   0  -4   50.45    1.25 
   6   0  -4   49.78    1.34 
  -6   0   4   49.70    1.02 
  -6   0   4   50.21    0.74 
   6   0  -4   53.03    1.01 
  -5   0   4  310.90    4.36 
   5   0  -4  315.17    4.87 
   5   0  -4  316.56    4.47 
  -5   0   4  312.22    4.76 
  -5   0   4  318.89    5.01 
   5   0  -4  313.01    3.55 
   4   0  -4  177.49    2.16 
  -4   0   4  174.86    2.91 
   4   0  -4  174.89    2.68 
  -4   0   4  175.38    2.94 
  -4   0   4  172.23    2.72 
  -4   0   4  174.95    2.63 
   4   0  -4  175.64    2.97 
   3   0  -4    1.96    0.57 
   3   0  -4    2.73    0.29 
  -3   0   4    2.15    0.29 
   3   0  -4    2.58    0.38 
  -3   0   4    3.18    0.28 
   3   0  -4    2.08    0.34 
  -3   0   4    2.68    0.31 
   2   0  -4   18.44    0.70 
  -2   0   4   18.45    0.62 
  -2   0   4   18.06    0.51 
  -2   0   4   17.70    0.53 
  -2   0   4   17.58    0.55 
   2   0  -4   15.98    0.99 
   2   0  -4   17.67    0.68 
  -2   0   4   17.46    0.49 
   2   0  -4   16.62    0.88 
  -1   0   4    9.85    0.40 
   1   0  -4   10.10    0.47 
   1   0  -4    9.18    0.84 
  -1   0   4    9.00    0.45 
  -1   0   4    9.77    0.38 
   1   0  -4    9.55    0.57 
   1   0  -4    8.26    0.70 
   0   0  -4    1.20    0.51 
   0   0   4    0.63    0.18 
   0   0  -4    1.06    0.31 
   0   0   4    0.56    0.22 
   0   0  -4    0.86    0.17 
   0   0   4    1.02    0.30 
   0   0  -4    0.84    0.29 
   0   0  -4    1.08    0.46 
   0   0   4    0.86    0.19 
  -1   0  -4    0.49    0.37 
  -1   0  -4    0.72    0.43 
   1   0   4    0.50    0.18 
  -1   0  -4    0.52    0.13 
   1   0   4    0.56    0.16 
   1   0   4    0.57    0.17 
  -1   0  -4    0.55    0.14 
  -2   0  -4   23.15    0.51 
   2   0   4   23.14    0.63 
  -2   0  -4   23.05    0.51 
  -2   0  -4   22.60    0.95 
   2   0   4   23.90    0.69 
   2   0   4   21.87    0.49 
  -2   0  -4   22.99    0.84 
  -2   0  -4   20.89    0.98 
  -3   0  -4    1.19    0.14 
   3   0   4    1.31    0.22 
   3   0   4    1.03    0.28 
   3   0   4    1.14    0.27 
  -3   0  -4    0.87    0.35 
  -3   0  -4    1.14    0.31 
   4   0   4   33.41    0.86 
   4   0   4   34.57    0.94 
  -4   0  -4   33.28    0.64 
   4   0   4   33.86    0.73 
  -5   0  -4   22.03    0.50 
  -5   0  -4   22.02    0.49 
   5   0   4   22.00    0.63 
  -6   0  -4   33.09    0.67 
  -6   0  -4   31.15    0.37 
   6   0   4   31.26    0.83 
  -7   0  -4    5.54    0.28 
  -7   0  -4    5.24    0.25 
  -7   0  -4    5.32    0.50 
  -7   0  -4    5.37    0.28 
  -7   0  -4    5.06    0.27 
  -8   0  -4    3.49    0.25 
  -8   0  -4    3.34    0.45 
  -8   0  -4    3.58    0.21 
  -8   0  -4    3.53    0.23 
  -8   0  -4    4.16    0.26 
  -9   0  -4    0.34    0.09 
  -9   0  -4    0.63    0.15 
  -9   0  -4   -0.12    0.24 
 -12  -1   4   13.40    0.40 
 -12  -1   4   13.39    0.17 
 -12   1   4   12.80    0.31 
 -12   1   4   12.38    0.25 
 -12   1   4   12.14    0.36 
 -11  -1   4   11.59    0.22 
 -11  -1   4   12.25    0.46 
 -11  -1   4   11.68    0.28 
 -11   1   4   11.47    0.45 
 -11   1   4   12.47    0.40 
 -11   1   4   12.35    0.33 
 -10  -1   4    2.19    0.16 
 -10  -1   4    2.21    0.21 
 -10  -1   4    2.65    0.18 
 -10  -1   4    2.38    0.38 
 -10   1   4    1.99    0.33 
 -10   1   4    1.96    0.26 
 -10   1   4    2.57    0.27 
 -10   1   4    2.19    0.35 
 -10   1   4    2.06    0.25 
 -10   1   4    1.88    0.25 
  -9  -1   4   12.08    0.57 
  -9  -1   4   12.21    0.29 
  -9   1   4   11.70    0.55 
  -9   1   4   12.57    0.33 
  -8  -1   4    7.06    0.47 
  -8  -1   4    7.48    0.44 
  -8  -1   4    6.86    0.23 
  -8   1   4    7.49    0.32 
   8   1  -4    6.98    0.43 
  -8   1   4    7.04    0.47 
  -8   1   4    6.74    0.38 
   7  -1  -4   15.76    0.89 
  -7  -1   4   15.78    0.58 
  -7  -1   4   15.74    0.57 
   7  -1  -4   17.31    0.86 
  -7  -1   4   15.75    0.32 
  -7   1   4   15.48    0.57 
  -7   1   4   15.18    0.59 
   7   1  -4   15.43    0.52 
  -7   1   4   15.87    0.60 
   6  -1  -4    9.25    0.49 
   6  -1  -4    8.87    0.64 
  -6  -1   4    8.83    0.24 
  -6  -1   4    8.84    0.45 
   6  -1  -4    8.65    0.63 
  -6   1   4    8.62    0.35 
   6   1  -4    8.46    0.37 
  -6   1   4    7.96    0.38 
  -6   1   4    8.68    0.33 
  -6   1   4    8.94    0.40 
  -6   1   4    8.49    0.48 
   5  -1  -4   99.00    1.93 
   5  -1  -4   99.07    2.05 
   5   1  -4   99.67    1.82 
  -5   1   4   99.85    1.98 
  -5   1   4   99.42    2.01 
   5   1  -4   97.22    1.94 
   5   1  -4   98.28    1.40 
  -5   1   4  101.29    1.81 
  -5   1   4   99.68    1.71 
   4  -1  -4   80.36    1.61 
   4  -1  -4   79.47    1.73 
  -4  -1   4   79.44    1.26 
  -4  -1   4   77.75    1.51 
  -4  -1   4   77.79    1.45 
   4   1  -4   82.00    1.18 
   4   1  -4   78.01    1.64 
   4   1  -4   80.51    1.51 
  -4   1   4   79.94    1.46 
  -4   1   4   80.37    1.52 
  -4   1   4   82.11    1.67 
  -4   1   4   81.18    1.46 
  -4   1   4   81.31    1.68 
   3  -1  -4   74.10    2.08 
  -3  -1   4   76.24    1.29 
  -3  -1   4   76.03    1.49 
  -3  -1   4   76.85    1.28 
  -3  -1   4   75.38    1.43 
   3  -1  -4   75.80    1.48 
   3  -1  -4   76.15    1.64 
   3  -1  -4   76.31    2.02 
  -3   1   4   75.61    1.42 
   3   1  -4   74.32    1.59 
   3   1  -4   77.33    1.48 
   3   1  -4   78.62    1.12 
  -3   1   4   75.55    1.30 
  -3   1   4   75.96    1.41 
  -3   1   4   75.70    1.56 
  -3   1   4   78.47    1.59 
   2  -1  -4  165.63    3.40 
  -2  -1   4  166.62    2.72 
   2  -1  -4  163.22    3.36 
   2  -1  -4  159.47    2.49 
   2  -1  -4  164.85    2.57 
  -2  -1   4  164.49    2.78 
   2  -1  -4  161.11    2.79 
  -2  -1   4  168.54    2.53 
   2   1  -4  178.43    2.96 
   2   1  -4  175.19    2.66 
   2   1  -4  176.43    2.07 
  -2   1   4  174.58    2.46 
  -2   1   4  177.88    2.71 
  -2   1   4  176.90    3.01 
   2   1  -4  172.73    3.54 
  -2   1   4  172.75    2.94 
  -2   1   4  169.03    2.76 
  -1  -1   4  307.24    4.39 
   1  -1  -4  310.08    4.63 
  -1  -1   4  302.26    4.92 
  -1  -1   4  304.07    4.66 
   1  -1  -4  307.33    5.32 
   1  -1  -4  309.91    4.37 
   1  -1  -4  314.27    5.54 
   1  -1  -4  305.95    4.27 
  -1  -1   4  305.32    4.01 
  -1  -1   4  297.18    4.47 
  -1   1   4  296.00    4.93 
   1   1  -4  299.21    5.64 
   1   1  -4  310.17    4.28 
   1   1  -4  312.90    4.68 
  -1   1   4  320.77    4.04 
  -1   1   4  304.53    4.69 
  -1   1   4  315.51    4.42 
   1   1  -4  306.54    5.38 
   0  -1   4  203.88    3.05 
   0  -1   4  200.92    2.78 
   0  -1   4  200.06    3.26 
   0  -1  -4  197.35    3.78 
   0  -1   4  202.75    3.41 
   0  -1   4  195.03    3.07 
   0  -1  -4  195.78    3.89 
   0  -1  -4  201.59    2.90 
   0   1  -4  203.35    3.06 
   0   1  -4  203.13    4.03 
   0   1   4  206.05    3.07 
   0   1   4  209.03    2.81 
   0   1  -4  211.19    3.95 
   0   1  -4  205.81    3.36 
   0   1  -4  203.63    3.07 
   0   1   4  203.63    2.27 
   1  -1   4   32.68    0.78 
  -1  -1  -4   32.51    0.62 
  -1  -1  -4   33.45    1.25 
  -1  -1  -4   32.66    0.64 
   1  -1   4   31.81    0.94 
   1  -1   4   32.96    0.86 
  -1  -1  -4   33.18    1.17 
  -1   1  -4   31.59    0.72 
  -1   1  -4   31.82    1.00 
  -1   1  -4   31.91    0.72 
   1   1   4   31.50    0.54 
   1   1   4   31.36    0.76 
  -1   1  -4   31.76    0.93 
  -1   1  -4   33.44    1.26 
  -1   1  -4   32.03    1.22 
   1   1   4   33.24    0.70 
  -2  -1  -4  126.99    2.65 
   2  -1   4  127.58    2.20 
  -2  -1  -4  125.13    2.50 
   2  -1   4  128.51    2.05 
  -2  -1  -4  126.66    1.89 
   2   1   4  132.57    2.15 
  -2   1  -4  132.52    2.17 
  -2   1  -4  131.34    2.60 
  -2   1  -4  135.01    2.10 
   2   1   4  133.43    1.57 
  -2   1  -4  127.19    2.79 
   2   1   4  135.12    1.97 
  -2   1  -4  136.61    2.90 
  -3  -1  -4    6.33    0.36 
   3  -1   4    6.60    0.46 
   3  -1   4    7.35    0.43 
  -3   1  -4    7.33    0.32 
  -3   1  -4    6.95    0.32 
  -3   1  -4    7.08    0.52 
  -3   1  -4    7.30    0.67 
  -3   1  -4    7.11    0.61 
   3   1   4    7.13    0.39 
  -3   1  -4    6.00    0.43 
   3   1   4    6.86    0.37 
   3   1   4    7.08    0.27 
   4  -1   4    7.81    0.48 
   4  -1   4    8.75    0.57 
  -4  -1  -4    7.46    0.24 
   4   1   4    7.97    0.31 
  -4   1  -4    7.84    0.28 
  -4   1  -4    8.39    0.31 
  -4   1  -4    8.42    0.62 
   5  -1   4    8.55    0.59 
  -5  -1  -4    9.12    0.32 
  -5  -1  -4    8.97    0.30 
   5   1   4    8.90    0.40 
  -5   1  -4    9.37    0.34 
  -5   1  -4    9.58    0.58 
  -5   1  -4   10.08    0.44 
  -5   1  -4   10.05    0.57 
  -6  -1  -4    3.90    0.23 
  -6  -1  -4    3.72    0.23 
  -6   1  -4    4.42    0.34 
  -6   1  -4    4.07    0.28 
  -7  -1  -4   47.73    0.70 
  -7  -1  -4   47.82    0.83 
  -7  -1  -4   47.12    0.78 
  -7  -1  -4   47.02    1.24 
  -7  -1  -4   47.50    0.68 
  -7   1  -4   48.45    0.59 
  -7   1  -4   47.76    0.92 
  -7   1  -4   48.19    0.69 
  -7   1  -4   49.62    0.91 
  -7   1  -4   48.46    0.64 
  -7   1  -4   48.80    1.29 
  -7   1  -4   48.45    0.61 
  -7   1  -4   48.83    0.86 
  -7   1  -4   46.96    0.93 
  -7   1  -4   48.49    0.79 
  -7   1  -4   48.52    0.73 
  -7   1  -4   48.68    0.86 
  -8  -1  -4    2.41    0.17 
  -8  -1  -4    2.66    0.16 
  -8  -1  -4    2.47    0.17 
  -8  -1  -4    1.96    0.51 
  -8   1  -4    2.23    0.41 
  -8   1  -4    2.45    0.27 
  -8   1  -4    2.72    0.24 
  -8   1  -4    2.90    0.24 
  -8   1  -4    2.94    0.23 
  -8   1  -4    2.90    0.23 
  -9  -1  -4    6.16    0.20 
  -9  -1  -4    6.34    0.48 
  -9   1  -4    6.84    0.23 
  -9   1  -4    6.76    0.26 
 -12  -2   4    4.95    0.06 
 -12  -2   4    4.95    0.06 
 -12   2   4    5.49    0.20 
 -12   2   4    5.68    0.22 
 -12   2   4    5.45    0.21 
 -11  -2   4    0.32    0.04 
  11  -2  -4    0.30    0.23 
  11  -2  -4    0.26    0.21 
 -11  -2   4    0.43    0.20 
 -11   2   4    0.12    0.13 
 -11   2   4    0.29    0.13 
 -11   2   4    0.06    0.12 
 -11   2   4    0.22    0.12 
 -11   2   4    0.15    0.16 
 -10  -2   4   12.74    0.32 
 -10  -2   4   13.03    0.51 
 -10  -2   4   12.97    0.18 
  10  -2  -4   13.24    0.55 
  10  -2  -4   13.42    0.53 
 -10  -2   4   13.00    0.17 
 -10   2   4   13.75    0.29 
 -10   2   4   13.67    0.33 
 -10   2   4   13.32    0.44 
 -10   2   4   13.92    0.30 
 -10   2   4   13.67    0.44 
 -10   2   4   13.49    0.45 
 -10   2   4   13.31    0.60 
 -10   2   4   14.31    0.29 
 -10   2   4   13.62    0.29 
 -10   2   4   13.63    0.45 
  -9  -2   4    4.13    0.17 
  -9  -2   4    3.50    0.41 
   9  -2  -4    3.90    0.39 
   9  -2  -4    3.88    0.36 
  -9  -2   4    3.81    0.10 
  -9  -2   4    3.36    0.20 
  -9  -2   4    3.79    0.15 
  -9   2   4    4.00    0.41 
  -9   2   4    4.17    0.36 
  -9   2   4    3.42    0.41 
  -9   2   4    3.72    0.35 
  -9   2   4    4.64    0.36 
  -9   2   4    4.05    0.35 
  -9   2   4    3.26    0.33 
  -9   2   4    4.01    0.27 
  -9   2   4    4.12    0.32 
  -9   2   4    4.17    0.19 
   8  -2  -4   16.95    0.61 
  -8  -2   4   17.02    0.32 
   8  -2  -4   17.05    0.56 
  -8   2   4   17.00    0.64 
  -8   2   4   17.91    0.70 
   7  -2  -4   62.30    1.13 
  -7  -2   4   64.31    1.25 
   7  -2  -4   62.55    1.81 
  -7  -2   4   63.37    0.72 
  -7   2   4   72.93    1.73 
  -7   2   4   70.07    1.44 
   7   2  -4   68.97    1.17 
  -7   2   4   71.55    1.45 
  -7   2   4   70.30    1.27 
  -7   2   4   68.10    1.45 
  -7   2   4   69.27    1.36 
   6  -2  -4   30.36    1.20 
   6  -2  -4   32.32    1.10 
  -6  -2   4   31.35    0.77 
   6  -2  -4   32.14    1.04 
  -6   2   4   33.90    0.92 
  -6   2   4   34.88    0.82 
  -6   2   4   34.38    1.11 
  -6   2   4   35.00    0.88 
  -6   2   4   35.15    0.96 
  -6   2   4   36.83    0.94 
  -6   2   4   36.08    0.92 
   6   2  -4   35.02    0.74 
   5  -2  -4  130.92    2.65 
  -5  -2   4  131.90    1.41 
  -5  -2   4  125.09    1.98 
   5  -2  -4  129.15    2.38 
   5  -2  -4  127.64    2.32 
  -5   2   4  146.92    2.80 
  -5   2   4  143.12    2.58 
  -5   2   4  140.59    2.47 
   5   2  -4  141.65    1.82 
  -5   2   4  138.10    2.22 
  -5   2   4  141.20    2.47 
  -5   2   4  141.25    2.06 
  -5   2   4  138.69    2.21 
   4  -2  -4    7.18    0.52 
   4  -2  -4    7.34    0.55 
   4  -2  -4    6.73    0.57 
   4  -2  -4    7.71    0.74 
   4   2  -4    8.71    0.55 
   4   2  -4    7.20    0.34 
  -4   2   4    7.29    0.52 
  -4   2   4    7.50    0.38 
  -4   2   4    7.28    0.53 
  -4   2   4    8.24    0.35 
  -4   2   4    7.65    0.46 
  -4   2   4    8.68    0.50 
  -4   2   4    8.35    0.46 
   4   2  -4    8.22    0.49 
   3  -2  -4  203.96    4.10 
  -3  -2   4  200.58    3.04 
  -3  -2   4  200.44    3.25 
  -3  -2   4  202.93    2.85 
   3  -2  -4  198.92    3.11 
   3  -2  -4  204.18    3.23 
   3  -2  -4  201.66    4.04 
   3  -2  -4  202.68    3.90 
   3  -2  -4  204.88    3.43 
  -3  -2   4  206.58    3.34 
  -3   2   4  217.03    3.18 
  -3   2   4  225.73    3.91 
  -3   2   4  219.45    3.47 
  -3   2   4  217.59    3.77 
  -3   2   4  223.53    3.69 
   3   2  -4  221.23    3.28 
   3   2  -4  218.33    3.58 
   3   2  -4  221.34    2.60 
   2  -2  -4   43.52    1.49 
   2  -2  -4   42.38    1.19 
  -2  -2   4   42.79    0.87 
   2  -2  -4   42.61    1.38 
   2  -2  -4   43.55    1.51 
   2  -2  -4   41.44    0.89 
  -2  -2   4   43.76    1.04 
  -2  -2   4   42.90    0.92 
   2  -2  -4   43.57    0.89 
  -2  -2   4   42.52    0.88 
  -2  -2   4   41.95    1.00 
  -2   2   4   44.36    1.06 
   2   2  -4   45.66    1.11 
   2   2  -4   45.99    1.19 
   2   2  -4   45.35    0.80 
  -2   2   4   45.57    0.95 
  -2   2   4   45.57    1.21 
  -1  -2   4    7.78    0.39 
  -1  -2   4    7.08    0.38 
  -1  -2   4    7.79    0.37 
   1  -2  -4    8.01    0.75 
   1  -2  -4    7.94    0.33 
   1  -2  -4    7.39    0.32 
   1  -2  -4    7.05    0.73 
   1  -2  -4    6.65    0.71 
  -1  -2   4    7.20    0.42 
  -1  -2   4    6.56    0.44 
  -1   2   4    7.86    0.41 
   1   2  -4    7.48    0.56 
  -1   2   4    8.36    0.41 
   1   2  -4    7.84    0.54 
  -1   2   4    7.35    0.29 
   0  -2  -4  103.68    2.50 
   0  -2   4   99.80    2.00 
   0  -2   4  101.07    1.87 
   0  -2  -4  101.21    1.58 
   0  -2   4  100.18    1.83 
   0  -2   4  102.73    2.05 
   0  -2  -4  100.93    2.29 
   0  -2  -4  101.08    1.64 
   0  -2  -4  106.34    2.56 
   0  -2   4  101.14    1.72 
   0  -2   4   97.25    1.78 
   0  -2   4  102.06    1.84 
   0   2  -4  108.26    1.97 
   0   2   4  107.64    1.34 
   0   2  -4  110.59    2.17 
   0   2  -4  100.05    2.53 
   0   2  -4  107.14    2.58 
   0   2   4  106.86    1.83 
   0   2   4  108.58    1.70 
   1  -2   4   24.01    0.75 
   1  -2   4   24.56    0.72 
  -1  -2  -4   24.71    0.46 
  -1  -2  -4   25.43    1.03 
   1  -2   4   23.79    0.81 
   1  -2   4   26.02    0.79 
   1  -2   4   23.68    0.87 
  -1  -2  -4   25.93    1.18 
   1  -2   4   24.14    0.60 
  -1   2  -4   27.06    1.10 
  -1   2  -4   27.08    0.90 
  -1   2  -4   26.88    0.90 
  -1   2  -4   27.57    1.16 
   1   2   4   26.14    0.70 
  -1   2  -4   25.88    0.97 
  -1   2  -4   26.31    0.71 
  -1   2  -4   26.17    1.21 
   1   2   4   26.61    0.65 
   1   2   4   26.46    0.50 
  -1   2  -4   26.08    0.79 
   2  -2   4  157.35    2.49 
   2  -2   4  161.77    2.54 
   2  -2   4  161.38    2.38 
   2  -2   4  161.30    2.74 
   2  -2   4  155.46    3.07 
   2   2   4  171.88    2.00 
  -2   2  -4  173.57    2.85 
  -2   2  -4  170.85    2.86 
   2   2   4  171.30    2.45 
  -2   2  -4  172.89    3.68 
  -2   2  -4  172.84    2.79 
   2   2   4  175.03    2.70 
  -2   2  -4  174.29    2.63 
  -2   2  -4  175.06    3.59 
  -2   2  -4  174.77    3.34 
   3  -2   4   23.56    0.85 
   3  -2   4   23.67    0.68 
   3  -2   4   24.59    0.81 
  -3  -2  -4   23.91    0.41 
   3  -2   4   23.39    0.73 
  -3   2  -4   26.54    1.17 
   3   2   4   26.27    0.52 
  -3   2  -4   25.75    0.70 
  -3   2  -4   25.21    0.83 
  -3   2  -4   27.00    0.73 
  -3   2  -4   26.33    0.99 
   4  -2   4   34.58    1.10 
   4  -2   4   32.55    0.83 
  -4  -2  -4   31.89    0.56 
   4  -2   4   32.61    1.02 
  -4   2  -4   38.17    0.99 
  -4   2  -4   40.37    1.20 
  -4   2  -4   37.70    0.87 
  -4   2  -4   38.90    0.97 
  -4   2  -4   35.59    1.35 
  -4   2  -4   39.35    0.91 
  -4   2  -4   38.22    1.24 
   4   2   4   38.33    0.68 
  -4   2  -4   38.23    1.17 
   5  -2   4   42.02    1.06 
   5  -2   4   41.98    0.98 
  -5  -2  -4   42.00    0.64 
  -5   2  -4   47.49    1.36 
  -5   2  -4   46.38    0.92 
   5   2   4   45.81    0.82 
  -5   2  -4   47.50    1.17 
  -5   2  -4   46.59    1.28 
   6  -2   4    6.83    0.51 
  -6  -2  -4    6.05    0.24 
   6  -2   4    5.79    0.45 
  -6   2  -4    6.88    0.54 
  -6   2  -4    6.49    0.33 
  -6   2  -4    7.82    0.57 
  -6   2  -4    6.90    0.52 
   7  -2   4   10.79    0.62 
  -7  -2  -4   11.08    0.19 
  -7  -2  -4   11.23    0.25 
  -7  -2  -4   11.15    0.26 
  -7  -2  -4   10.70    0.67 
  -7  -2  -4   11.32    0.29 
   7  -2   4   10.53    0.57 
  -7   2  -4   11.39    0.31 
  -7   2  -4   11.57    0.41 
  -7   2  -4   11.82    0.42 
  -7   2  -4   10.79    0.60 
  -7   2  -4   11.26    0.41 
  -7   2  -4   11.47    0.38 
  -7   2  -4   11.47    0.44 
  -7   2  -4   11.24    0.42 
  -7   2  -4   11.64    0.46 
  -7   2  -4   11.37    0.41 
  -7   2  -4   11.37    0.44 
  -7   2  -4   10.81    0.59 
  -8  -2  -4    5.71    0.50 
  -8  -2  -4    4.98    0.12 
   8  -2   4    4.46    0.43 
  -8  -2  -4    4.82    0.19 
   8  -2   4    4.92    0.50 
  -8   2  -4    4.96    0.31 
  -8   2  -4    5.05    0.30 
  -8   2  -4    5.30    0.27 
  -8   2  -4    4.97    0.29 
  -8   2  -4    5.06    0.16 
  -8   2  -4    4.94    0.30 
  -8   2  -4    5.07    0.30 
  -9  -2  -4   13.43    0.56 
  -9  -2  -4   13.46    0.16 
  -9   2  -4   13.93    0.33 
  -9   2  -4   13.51    0.35 
  -9   2  -4   13.99    0.35 
  -9   2  -4   13.40    0.33 
  -9   2  -4   13.61    0.36 
  11  -3  -4   11.46    0.34 
 -11   3   4   11.87    0.36 
 -11   3   4   12.13    0.36 
 -11   3   4   12.07    0.32 
 -10  -3   4   49.56    0.87 
  10  -3  -4   47.88    1.08 
 -10  -3   4   49.27    0.42 
  10  -3  -4   49.80    1.03 
 -10   3   4   52.72    0.85 
 -10   3   4   52.82    0.96 
 -10   3   4   51.89    0.73 
 -10   3   4   52.66    0.86 
 -10   3   4   52.51    0.98 
 -10   3   4   52.80    0.91 
 -10   3   4   53.60    1.01 
   9  -3  -4    6.16    0.41 
  -9  -3   4    6.08    0.11 
   9  -3  -4    6.10    0.46 
  -9   3   4    6.63    0.42 
  -9   3   4    7.26    0.49 
  -9   3   4    6.42    0.40 
  -9   3   4    6.58    0.33 
  -9   3   4    7.01    0.34 
  -9   3   4    7.24    0.52 
  -9   3   4    6.86    0.40 
  -9   3   4    7.64    0.30 
  -8  -3   4   96.79    1.07 
   8  -3  -4   96.06    1.69 
  -8  -3   4   96.84    0.96 
  -8  -3   4   94.88    1.27 
  -8  -3   4   96.80    0.80 
   8  -3  -4   93.00    2.51 
   8  -3  -4   97.81    1.66 
   8  -3  -4   97.01    2.29 
  -8   3   4  106.37    2.01 
  -8   3   4  106.31    1.78 
  -8   3   4  105.69    1.81 
  -8   3   4  106.89    1.80 
  -8   3   4  107.35    1.63 
  -8   3   4  106.58    1.59 
  -8   3   4  106.82    2.01 
  -8   3   4  107.14    1.44 
   7  -3  -4   24.54    1.10 
  -7  -3   4   25.43    0.41 
   7  -3  -4   24.57    0.71 
   7  -3  -4   25.13    0.69 
   7  -3  -4   27.67    1.31 
  -7   3   4   27.16    0.88 
  -7   3   4   24.47    0.84 
  -7   3   4   26.97    0.88 
  -7   3   4   27.48    0.83 
  -7   3   4   27.03    0.89 
   6  -3  -4   19.10    0.58 
   6  -3  -4   19.26    1.07 
   6  -3  -4   20.60    0.94 
   6  -3  -4   19.90    1.06 
  -6  -3   4   19.52    0.36 
  -6   3   4   20.53    0.73 
  -6   3   4   20.87    0.77 
  -6   3   4   21.09    0.71 
  -6   3   4   21.07    0.79 
  -6   3   4   19.84    0.94 
  -6   3   4   20.39    0.80 
   6   3  -4   20.54    0.59 
  -6   3   4   21.14    0.74 
   5  -3  -4   72.67    1.94 
   5  -3  -4   71.69    2.13 
   5  -3  -4   72.91    2.01 
  -5  -3   4   71.68    0.84 
   5  -3  -4   72.05    1.79 
   5  -3  -4   70.64    1.69 
  -5  -3   4   71.45    1.30 
  -5   3   4   79.33    1.78 
  -5   3   4   78.13    1.50 
  -5   3   4   76.42    1.65 
  -5   3   4   78.08    1.70 
  -5   3   4   77.45    1.36 
  -5   3   4   77.82    2.00 
   5   3  -4   78.10    1.24 
  -5   3   4   75.51    1.50 
  -5   3   4   78.23    1.51 
   4  -3  -4   20.44    0.98 
   4  -3  -4   21.47    0.95 
  -4  -3   4   20.12    0.39 
  -4  -3   4   19.35    0.56 
   4  -3  -4   19.19    1.04 
   4  -3  -4   20.69    1.18 
  -4   3   4   22.81    0.79 
  -4   3   4   21.04    0.88 
  -4   3   4   21.11    0.62 
  -4   3   4   20.83    0.65 
  -4   3   4   19.89    0.80 
   4   3  -4   21.36    0.55 
  -4   3   4   21.51    0.79 
   4   3  -4   21.77    0.74 
   3  -3  -4   14.52    0.79 
  -3  -3   4   13.93    0.38 
   3  -3  -4   14.09    1.00 
   3  -3  -4   13.20    0.51 
   3  -3  -4   13.33    0.93 
  -3  -3   4   14.41    0.47 
   3  -3  -4   14.58    0.51 
   3   3  -4   15.43    0.47 
   3   3  -4   15.98    0.71 
  -3   3   4   15.68    0.52 
  -3   3   4   15.26    0.66 
  -3   3   4   15.56    0.57 
   3   3  -4   14.37    0.65 
  -3   3   4   15.18    0.62 
   2  -3  -4   65.64    1.84 
   2  -3  -4   63.69    1.24 
  -2  -3   4   64.98    1.15 
  -2  -3   4   65.96    1.20 
  -2  -3   4   62.94    1.53 
  -2  -3   4   65.50    1.46 
  -2  -3   4   63.88    1.15 
  -2  -3   4   64.76    1.31 
   2  -3  -4   65.89    2.10 
   2  -3  -4   64.80    1.25 
   2   3  -4   70.82    1.53 
   2   3  -4   69.54    1.16 
  -2   3   4   70.13    1.35 
  -2   3   4   73.37    1.44 
  -2   3   4   71.54    1.54 
  -2   3   4   70.49    1.28 
   2   3  -4   71.80    1.69 
  -1  -3   4   16.05    0.57 
  -1  -3   4   16.80    0.69 
   1  -3  -4   16.04    1.06 
  -1  -3   4   16.47    0.77 
   1  -3  -4   16.39    0.50 
   1  -3  -4   16.54    0.48 
   1  -3  -4   16.93    1.06 
  -1  -3   4   16.48    0.54 
   1  -3  -4   15.64    0.92 
  -1  -3   4   15.70    0.57 
   1   3  -4   18.46    0.77 
   1   3  -4   19.13    0.87 
  -1   3   4   17.50    0.61 
  -1   3   4   18.19    0.70 
   0  -3  -4    9.17    0.28 
   0  -3  -4   10.63    0.33 
   0  -3   4    9.29    0.47 
   0  -3   4   10.24    0.41 
   0  -3  -4   10.01    0.85 
   0  -3   4   10.27    0.46 
   0  -3   4    9.40    0.53 
   0  -3   4   11.11    0.65 
   0   3   4   10.69    0.37 
   0   3  -4   11.15    0.69 
   0   3  -4   11.78    0.65 
   0   3  -4   10.52    0.65 
   0   3   4   12.21    0.52 
   0   3   4   11.20    0.52 
   0   3  -4   10.96    0.67 
   1  -3   4    3.53    0.36 
   1  -3   4    3.24    0.46 
   1  -3   4    2.63    0.30 
   1  -3   4    3.39    0.41 
   1  -3   4    3.52    0.36 
  -1  -3  -4    2.55    0.38 
  -1   3  -4    2.93    0.48 
   1   3   4    2.74    0.23 
  -1   3  -4    3.31    0.49 
  -1   3  -4    3.17    0.55 
  -1   3  -4    3.70    0.52 
   1   3   4    3.15    0.33 
   1   3   4    3.40    0.31 
  -1   3  -4    3.14    0.38 
  -2  -3  -4   13.94    0.40 
   2  -3   4   14.69    0.82 
   2  -3   4   14.69    0.71 
   2  -3   4   14.06    0.57 
   2  -3   4   12.90    0.69 
   2  -3   4   13.44    0.62 
  -2   3  -4   16.53    0.80 
   2   3   4   15.72    0.43 
  -2   3  -4   16.30    0.67 
  -2   3  -4   15.07    0.85 
  -2   3  -4   15.92    0.76 
  -2   3  -4   14.67    1.00 
  -2   3  -4   15.54    0.87 
   3  -3   4   13.23    0.65 
   3  -3   4   14.38    0.60 
   3  -3   4   13.85    0.71 
   3  -3   4   13.51    0.74 
  -3  -3  -4   12.31    0.41 
  -3  -3  -4   14.11    0.39 
   3  -3   4   12.57    0.54 
  -3   3  -4   15.70    0.61 
  -3   3  -4   17.00    0.76 
  -3   3  -4   14.89    0.64 
  -3   3  -4   15.24    0.61 
  -3   3  -4   15.33    0.83 
  -3   3  -4   15.85    0.88 
  -3   3  -4   14.65    0.85 
  -3   3  -4   15.33    0.77 
   3   3   4   15.57    0.43 
  -3   3  -4   16.10    1.03 
   4  -3   4   28.33    0.88 
  -4  -3  -4   28.79    0.58 
   4  -3   4   28.21    0.83 
   4  -3   4   29.11    1.01 
   4  -3   4   29.16    0.81 
  -4   3  -4   32.47    1.13 
   4   3   4   32.32    0.65 
  -4   3  -4   33.83    0.91 
  -4   3  -4   34.13    1.21 
  -4   3  -4   33.25    1.16 
  -4   3  -4   33.22    0.92 
  -4   3  -4   32.39    1.00 
   5  -3   4   14.02    0.79 
   5  -3   4   14.33    0.63 
   5  -3   4   13.47    0.66 
  -5  -3  -4   14.81    0.36 
   5  -3   4   14.98    0.67 
  -5   3  -4   15.40    0.57 
  -5   3  -4   16.60    0.80 
  -5   3  -4   16.44    0.84 
  -5   3  -4   15.77    0.74 
  -5   3  -4   16.00    0.82 
  -5   3  -4   15.10    0.56 
  -6  -3  -4    3.52    0.19 
  -6  -3  -4    3.67    0.15 
   6  -3   4    3.30    0.46 
  -6  -3  -4    3.58    0.17 
  -6  -3  -4    3.84    0.48 
   6  -3   4    3.09    0.70 
   6  -3   4    4.12    0.53 
   6  -3   4    3.79    0.50 
  -6  -3  -4    3.66    0.11 
  -6   3  -4    4.56    0.41 
  -6   3  -4    5.28    0.59 
  -6   3  -4    5.00    0.59 
  -6   3  -4    3.98    0.30 
  -6   3  -4    3.73    0.30 
  -6   3  -4    4.70    0.40 
  -6   3  -4    3.65    0.47 
  -6   3  -4    4.51    0.38 
  -6   3  -4    4.77    0.37 
  -6   3  -4    4.33    0.27 
   7  -3   4   67.87    1.50 
   7  -3   4   64.94    1.81 
  -7  -3  -4   68.72    1.53 
   7  -3   4   68.86    1.19 
   7  -3   4   71.12    1.45 
   7  -3   4   68.34    1.37 
  -7  -3  -4   68.50    0.60 
  -7   3  -4   75.31    1.22 
  -7   3  -4   77.71    1.06 
  -7   3  -4   77.93    1.33 
  -7   3  -4   77.21    1.21 
  -7   3  -4   78.03    0.94 
  -7   3  -4   77.24    1.36 
  -7   3  -4   77.75    1.22 
  -7   3  -4   77.65    1.23 
  -7   3  -4   78.57    1.35 
  -7   3  -4   76.80    1.51 
  -7   3  -4   77.18    1.35 
  -7   3  -4   79.76    1.60 
   8  -3   4   13.27    0.63 
  -8  -3  -4   14.14    0.60 
   8  -3   4   13.28    0.42 
   8  -3   4   13.10    0.63 
   8  -3   4   13.58    0.63 
  -8  -3  -4   13.53    0.16 
  -8   3  -4   15.54    0.46 
  -8   3  -4   15.74    0.30 
  -8   3  -4   16.38    0.41 
  -8   3  -4   15.86    0.30 
  -8   3  -4   16.06    0.34 
  -8   3  -4   15.59    0.29 
  -8   3  -4   15.47    0.43 
  -8   3  -4   15.39    0.45 
  -8   3  -4   16.15    0.46 
   9  -3   4    6.48    0.30 
  -9   3  -4    7.27    0.25 
  10  -4  -4    6.71    0.51 
  10  -4  -4    6.43    0.27 
 -10   4   4    6.58    0.30 
 -10   4   4    7.44    0.35 
 -10   4   4    7.08    0.28 
 -10   4   4    6.87    0.29 
 -10   4   4    7.21    0.37 
 -10   4   4    7.06    0.33 
 -10   4   4    6.55    0.22 
   9  -4  -4   34.79    0.64 
   9  -4  -4   35.78    1.01 
   9  -4  -4   33.79    1.48 
   9  -4  -4   33.74    0.89 
   9  -4  -4   34.66    0.81 
  -9  -4   4   34.87    0.31 
  -9   4   4   37.97    0.60 
  -9   4   4   38.90    0.83 
  -9   4   4   36.94    0.64 
  -9   4   4   37.33    0.79 
  -9   4   4   34.25    0.93 
  -9   4   4   37.40    0.87 
  -9   4   4   37.59    0.83 
  -9   4   4   37.70    0.83 
   8  -4  -4    8.25    1.06 
   8  -4  -4    9.12    0.69 
   8  -4  -4    8.67    0.40 
   8  -4  -4    8.69    0.53 
  -8  -4   4    8.74    0.15 
   8  -4  -4    8.99    0.49 
  -8   4   4    8.97    0.47 
  -8   4   4    8.72    0.56 
  -8   4   4    8.49    0.57 
  -8   4   4    9.32    0.44 
  -8   4   4    9.00    0.41 
  -8   4   4    9.29    0.44 
  -8   4   4    8.60    0.54 
  -8   4   4    8.90    0.47 
  -8   4   4   10.01    0.37 
  -7  -4   4   27.52    0.44 
   7  -4  -4   27.06    1.25 
   7  -4  -4   28.55    0.84 
  -7  -4   4   27.26    0.41 
  -7  -4   4   27.07    0.53 
   7  -4  -4   26.42    0.99 
   7  -4  -4   28.56    0.78 
   7  -4  -4   28.42    1.44 
   7  -4  -4   27.70    0.61 
  -7  -4   4   27.40    0.31 
  -7   4   4   29.27    0.93 
  -7   4   4   30.07    0.82 
  -7   4   4   28.01    1.48 
  -7   4   4   30.57    1.00 
  -7   4   4   29.18    0.85 
  -7   4   4   35.87    1.76 
  -7   4   4   27.86    0.92 
  -7   4   4   30.45    1.06 
  -7   4   4   30.64    0.87 
   6  -4  -4   11.70    0.62 
  -6  -4   4   11.85    0.31 
   6  -4  -4   12.50    0.93 
   6  -4  -4   10.74    0.57 
   6  -4  -4   11.35    1.14 
   6  -4  -4   12.96    1.11 
  -6   4   4   13.19    0.62 
  -6   4   4   12.36    0.55 
  -6   4   4   11.66    0.63 
  -6   4   4   13.53    0.73 
  -6   4   4   13.03    0.72 
  -6   4   4   12.56    0.61 
  -5  -4   4    9.68    0.30 
   5  -4  -4    9.04    1.00 
  -5  -4   4    9.18    0.36 
   5  -4  -4    9.39    0.97 
   5  -4  -4   10.63    0.86 
  -5   4   4   11.00    0.50 
  -5   4   4   11.01    0.68 
  -5   4   4    9.93    0.58 
   5   4  -4   11.54    0.49 
  -5   4   4   10.62    0.61 
   4  -4  -4   11.80    0.85 
   4  -4  -4   10.46    1.09 
  -4  -4   4   10.88    0.29 
  -4  -4   4   10.80    0.41 
   4  -4  -4   11.05    0.94 
   4  -4  -4    9.32    0.92 
   4  -4  -4   11.33    1.10 
   4  -4  -4   11.69    0.60 
   4  -4  -4   11.40    0.99 
   4  -4  -4   11.23    0.56 
   4   4  -4   11.99    0.48 
  -4   4   4   11.80    0.75 
  -4   4   4   11.61    0.62 
  -4   4   4   12.13    0.50 
  -4   4   4   11.75    0.58 
  -4   4   4   11.77    0.43 
  -4   4   4   11.43    0.50 
  -4   4   4   11.67    0.75 
   3  -4  -4   15.87    1.06 
  -3  -4   4   16.81    0.45 
   3  -4  -4   16.45    0.64 
   3  -4  -4   17.79    1.31 
   3  -4  -4   16.51    1.07 
   3  -4  -4   17.65    0.63 
  -3  -4   4   16.49    0.51 
   3  -4  -4   17.85    1.14 
   3   4  -4   20.26    0.98 
  -3   4   4   18.81    0.75 
  -3   4   4   19.59    0.67 
   3   4  -4   17.09    0.80 
  -3   4   4   18.79    0.72 
  -3   4   4   18.35    0.83 
  -3   4   4   19.04    0.55 
   3   4  -4   18.50    0.60 
  -3   4   4   18.20    0.76 
   2  -4  -4   55.67    1.72 
   2  -4  -4   56.40    1.17 
   2  -4  -4   59.13    1.21 
  -2  -4   4   53.19    1.48 
   2  -4  -4   56.52    2.04 
  -2  -4   4   56.86    1.13 
  -2  -4   4   56.89    1.25 
  -2  -4   4   57.30    1.24 
   2  -4  -4   55.26    1.74 
   2  -4  -4   58.07    1.91 
  -2   4   4   60.72    1.44 
  -2   4   4   64.55    1.59 
   2   4  -4   64.18    1.56 
   2   4  -4   63.38    1.66 
  -2   4   4   62.94    1.27 
  -2   4   4   60.82    1.13 
  -1  -4   4   23.00    0.83 
   1  -4  -4   23.92    0.60 
  -1  -4   4   24.65    0.83 
   1  -4  -4   25.59    1.17 
  -1  -4   4   24.84    0.97 
  -1  -4   4   25.72    0.69 
   1  -4  -4   24.49    1.34 
   1  -4  -4   25.13    1.16 
  -1  -4   4   26.99    0.87 
  -1  -4   4   24.74    0.67 
   1  -4  -4   24.08    1.20 
   1   4  -4   27.40    1.12 
  -1   4   4   27.14    0.98 
   1   4  -4   25.64    0.99 
  -1   4   4   27.09    0.85 
   0  -4   4   50.59    1.16 
   0  -4   4   48.48    1.29 
   0  -4   4   51.14    1.33 
   0  -4  -4   49.66    1.01 
   0  -4   4   52.79    1.14 
   0  -4  -4   48.70    1.61 
   0  -4   4   48.90    1.52 
   0  -4  -4   48.05    1.55 
   0  -4   4   48.67    1.27 
   0  -4  -4   48.52    0.98 
   0   4  -4   59.76    1.59 
   0   4  -4   57.38    0.99 
   0   4   4   54.05    1.29 
   0   4  -4   57.08    1.40 
   0   4  -4   56.73    1.69 
   0   4   4   55.72    1.38 
  -1  -4  -4    1.13    0.24 
   1  -4   4    1.47    0.41 
   1  -4   4    0.92    0.35 
   1  -4   4    0.70    0.35 
  -1  -4  -4    1.06    0.20 
   1  -4   4    0.66    0.25 
   1  -4   4    1.00    0.37 
   1  -4   4    1.28    0.41 
   1   4   4    1.04    0.26 
  -1   4  -4    1.10    0.20 
  -1   4  -4    0.92    0.38 
  -1   4  -4    1.46    0.44 
  -1   4  -4    1.20    0.34 
  -1   4  -4    0.73    0.38 
  -2  -4  -4   42.20    0.82 
   2  -4   4   42.08    1.15 
   2  -4   4   41.10    1.12 
   2  -4   4   42.88    1.01 
   2  -4   4   41.46    1.25 
   2  -4   4   43.92    1.63 
   2  -4   4   43.81    1.34 
   2  -4   4   41.95    1.20 
  -2   4  -4   47.98    0.89 
  -2   4  -4   48.63    1.65 
  -2   4  -4   48.31    0.88 
  -2   4  -4   48.52    1.37 
  -2   4  -4   47.80    1.36 
  -2   4  -4   45.47    1.61 
  -2   4  -4   53.08    1.30 
  -3  -4  -4   15.20    0.52 
   3  -4   4   14.82    0.74 
   3  -4   4   15.26    0.87 
  -3  -4  -4   15.88    0.44 
   3  -4   4   15.00    0.67 
  -3   4  -4   16.89    0.73 
  -3   4  -4   20.21    1.07 
  -3   4  -4   19.18    0.86 
  -3   4  -4   18.38    1.01 
  -3   4  -4   18.92    0.88 
   4  -4   4    4.75    0.53 
   4  -4   4    6.39    0.50 
   4  -4   4    7.13    0.59 
   4  -4   4    5.81    0.64 
  -4  -4  -4    6.22    0.32 
   4  -4   4    7.15    0.75 
  -4   4  -4    7.76    0.62 
  -4   4  -4    7.70    0.70 
  -4   4  -4    6.97    0.51 
  -4   4  -4    7.10    0.44 
  -4   4  -4    8.48    0.73 
  -4   4  -4    7.47    0.76 
   5  -4   4    2.11    0.47 
   5  -4   4    1.61    0.41 
  -5  -4  -4    2.11    0.11 
  -5  -4  -4    2.15    0.21 
  -5  -4  -4    1.93    0.16 
   5  -4   4    1.72    0.45 
   5  -4   4    2.90    0.47 
  -5  -4  -4    2.17    0.46 
  -5  -4  -4    2.10    0.19 
   5  -4   4    2.22    0.34 
   5  -4   4    2.11    0.44 
   5  -4   4    1.74    0.42 
  -5   4  -4    3.18    0.62 
  -5   4  -4    2.50    0.36 
  -5   4  -4    2.43    0.42 
  -5   4  -4    2.63    0.35 
  -5   4  -4    2.47    0.58 
  -5   4  -4    2.61    0.41 
  -5   4  -4    2.73    0.52 
   6  -4   4   18.95    0.93 
   6  -4   4   19.42    0.75 
  -6  -4  -4   19.26    0.24 
   6  -4   4   18.09    0.51 
   6  -4   4   18.99    0.94 
   6  -4   4   19.45    0.87 
   6  -4   4   19.56    0.79 
  -6   4  -4   21.51    0.87 
  -6   4  -4   21.25    0.66 
  -6   4  -4   21.26    0.48 
  -6   4  -4   21.12    0.63 
  -6   4  -4   21.27    0.49 
  -6   4  -4   20.89    0.61 
  -6   4  -4   21.83    0.60 
  -6   4  -4   19.89    0.80 
  -7  -4  -4    6.90    0.11 
   7  -4   4    7.07    0.54 
   7  -4   4    6.44    0.63 
   7  -4   4    7.07    0.56 
   7  -4   4    7.37    0.37 
  -7   4  -4    8.12    0.24 
  -7   4  -4    8.62    0.41 
  -7   4  -4    8.14    0.35 
  -7   4  -4    7.58    0.36 
  -7   4  -4    7.30    0.39 
  -7   4  -4    7.90    0.30 
  -7   4  -4    8.05    0.39 
  -7   4  -4    7.59    0.36 
   8  -4   4    7.66    0.48 
   8  -4   4    8.11    0.29 
   8  -4   4    8.12    0.53 
  -8   4  -4    9.29    0.33 
  -8   4  -4    8.47    0.31 
  -8   4  -4    8.94    0.18 
  -8   4  -4    8.76    0.23 
  -8   4  -4    7.65    0.33 
  -8   4  -4    9.13    0.19 
  -8   4  -4    9.33    0.31 
  -8   4  -4    8.92    0.21 
   9  -5  -4    4.79    0.48 
  -9  -5   4    5.50    0.06 
   9  -5  -4    5.20    0.44 
  -9  -5   4    5.49    0.06 
   9  -5  -4    6.16    0.74 
  -9   5   4    5.06    0.30 
  -9   5   4    5.21    0.31 
  -9   5   4    5.31    0.20 
  -9   5   4    4.96    0.23 
  -9   5   4    5.33    0.28 
  -8  -5   4   22.35    0.24 
   8  -5  -4   25.05    1.39 
   8  -5  -4   22.40    0.79 
   8  -5  -4   21.78    0.83 
  -8   5   4   23.71    0.59 
  -8   5   4   23.70    0.54 
  -8   5   4   23.61    0.62 
  -8   5   4   23.28    0.63 
  -8   5   4   22.91    0.52 
   7  -5  -4   11.30    0.72 
  -7  -5   4   11.11    0.29 
   7  -5  -4   11.66    0.66 
  -7  -5   4   11.31    0.18 
   7  -5  -4   12.85    1.34 
  -7  -5   4   11.21    0.26 
   7  -5  -4   10.14    1.05 
  -7   5   4   13.56    0.73 
  -7   5   4   13.11    0.64 
  -7   5   4   13.52    0.50 
  -7   5   4   12.97    1.01 
   6  -5  -4   10.22    0.73 
  -6  -5   4    9.03    0.30 
   6  -5  -4    8.88    0.56 
  -6  -5   4    9.17    0.25 
  -6  -5   4    9.37    0.32 
   6  -5  -4    9.06    0.62 
   6  -5  -4   10.16    1.15 
  -6   5   4    8.86    0.53 
  -6   5   4    9.53    0.66 
  -6   5   4    8.38    0.46 
  -6   5   4    8.02    0.52 
  -6   5   4    9.64    0.44 
  -6   5   4   10.71    0.64 
  -6   5   4    7.92    1.22 
  -5  -5   4   16.74    0.47 
   5  -5  -4   14.81    1.19 
  -5  -5   4   16.42    0.37 
   5  -5  -4   14.89    1.30 
   5  -5  -4   16.67    0.81 
  -5  -5   4   16.32    0.44 
   5  -5  -4   16.53    0.73 
  -5  -5   4   15.59    0.44 
   5  -5  -4   17.08    1.24 
   5  -5  -4   16.13    0.63 
   5  -5  -4   17.03    0.70 
   5  -5  -4   16.84    1.18 
  -5   5   4   17.44    0.90 
  -5   5   4   18.20    0.73 
  -5   5   4   19.40    0.81 
  -5   5   4   18.57    0.77 
  -5   5   4   18.98    0.89 
  -5   5   4   18.94    0.60 
  -5   5   4   18.33    0.47 
  -5   5   4   18.15    0.65 
  -4  -5   4   21.08    0.49 
   4  -5  -4   21.09    0.63 
  -4  -5   4   20.99    0.23 
   4  -5  -4   20.88    1.14 
   4  -5  -4   20.76    0.74 
   4  -5  -4   20.94    0.75 
   4  -5  -4   21.07    0.74 
   4  -5  -4   19.06    1.23 
   4  -5  -4   21.13    1.33 
   4  -5  -4   20.38    0.69 
  -4  -5   4   20.72    0.58 
  -4  -5   4   23.13    0.64 
   4  -5  -4   21.79    0.86 
  -4  -5   4   20.68    0.59 
   4  -5  -4   21.44    1.34 
  -4   5   4   25.05    0.83 
  -4   5   4   24.23    0.89 
  -4   5   4   26.49    1.00 
  -4   5   4   26.50    0.70 
  -4   5   4   25.50    0.67 
  -4   5   4   25.80    0.96 
  -4   5   4   25.43    0.63 
   3  -5  -4   37.82    1.01 
  -3  -5   4   39.01    0.68 
   3  -5  -4   39.16    0.98 
  -3  -5   4   39.52    0.89 
   3  -5  -4   40.48    1.68 
   3  -5  -4   37.52    1.66 
   3  -5  -4   40.12    1.58 
  -3   5   4   47.06    1.30 
  -3   5   4   45.99    1.15 
  -3   5   4   47.47    1.35 
  -3   5   4   45.40    0.96 
  -3   5   4   46.44    0.96 
  -2  -5   4   12.49    0.50 
   2  -5  -4   13.12    1.02 
   2  -5  -4   11.68    1.13 
   2  -5  -4   12.11    0.43 
  -2  -5   4   12.07    0.63 
  -2  -5   4   12.24    0.47 
   2  -5  -4   11.71    0.49 
  -2   5   4   13.18    0.51 
  -2   5   4   13.86    0.64 
  -2   5   4   14.20    0.53 
   2   5  -4   14.29    0.47 
   2   5  -4   14.99    0.47 
  -1  -5   4   48.60    1.07 
   1  -5  -4   45.60    1.03 
  -1  -5   4   48.60    1.27 
  -1  -5   4   46.41    1.27 
   1  -5  -4   47.16    1.72 
   1  -5  -4   49.17    1.71 
  -1   5   4   53.10    1.08 
   1   5  -4   54.74    1.03 
   1   5  -4   56.68    1.03 
  -1   5   4   55.95    1.11 
   0  -5   4   49.11    1.33 
   0  -5  -4   49.21    1.02 
   0  -5   4   48.16    1.05 
   0  -5  -4   47.01    0.98 
   0  -5   4   49.02    1.32 
   0   5   4   57.55    1.12 
   0   5  -4   60.47    1.06 
   0   5  -4   58.25    1.07 
   0   5   4   58.29    1.15 
   0   5  -4   57.24    1.46 
   1  -5   4   42.04    1.26 
   1  -5   4   40.48    1.20 
  -1  -5  -4   40.54    0.90 
   1  -5   4   41.10    1.34 
   1  -5   4   39.61    1.24 
   1  -5   4   41.60    1.06 
  -1  -5  -4   41.62    0.65 
  -1   5  -4   49.91    1.44 
  -1   5  -4   50.89    1.52 
  -1   5  -4   49.62    1.30 
  -1   5  -4   48.83    0.94 
  -1   5  -4   49.62    0.96 
   2  -5   4   27.15    0.93 
  -2  -5  -4   26.71    0.62 
   2  -5   4   25.69    1.54 
   2  -5   4   27.85    1.11 
   2  -5   4   26.43    1.09 
   2  -5   4   28.30    1.50 
  -2  -5  -4   27.43    0.67 
  -2  -5  -4   26.07    0.54 
   2  -5   4   26.73    0.85 
   2  -5   4   26.94    0.96 
   2  -5   4   26.57    1.13 
  -2  -5  -4   26.27    0.62 
   2  -5   4   25.61    0.85 
  -2   5  -4   32.40    0.65 
  -2   5  -4   30.82    0.90 
  -2   5  -4   30.54    1.11 
  -2   5  -4   30.66    0.70 
  -2   5  -4   31.15    0.68 
  -2   5  -4   31.82    1.01 
  -2   5  -4   31.86    1.17 
   3  -5   4   14.02    0.64 
  -3  -5  -4   12.81    0.47 
  -3  -5  -4   13.72    0.42 
   3  -5   4   13.02    0.73 
   3  -5   4   14.10    0.87 
   3  -5   4   13.40    0.73 
  -3  -5  -4   14.10    0.45 
   3  -5   4   12.71    1.24 
   3  -5   4   12.75    0.89 
  -3  -5  -4   13.58    0.35 
   3  -5   4   12.94    0.75 
  -3   5  -4   17.07    1.13 
  -3   5  -4   16.20    0.74 
  -3   5  -4   16.24    0.40 
  -3   5  -4   15.96    0.68 
  -3   5  -4   15.10    0.85 
  -3   5  -4   17.33    0.79 
  -3   5  -4   16.16    0.65 
  -3   5  -4   16.04    0.56 
   4  -5   4    3.41    0.57 
   4  -5   4    2.91    0.54 
  -4  -5  -4    3.50    0.20 
   4  -5   4    4.01    0.78 
   4  -5   4    3.46    0.57 
  -4  -5  -4    3.12    0.24 
   4  -5   4    2.86    0.50 
  -4  -5  -4    3.23    0.28 
  -4   5  -4    3.66    0.47 
  -4   5  -4    4.20    0.92 
  -4   5  -4    3.33    0.40 
  -4   5  -4    3.65    0.45 
  -4   5  -4    3.57    0.34 
  -4   5  -4    3.15    0.88 
  -4   5  -4    2.79    0.57 
   5  -5   4    4.17    0.75 
   5  -5   4    2.75    0.56 
  -5  -5  -4    2.56    0.17 
   5  -5   4    2.96    0.55 
   5  -5   4    2.38    0.54 
  -5  -5  -4    2.47    0.10 
  -5  -5  -4    2.73    0.09 
  -5   5  -4    3.48    0.56 
  -5   5  -4    3.43    0.49 
  -5   5  -4    3.83    0.34 
  -5   5  -4    3.84    0.43 
  -5   5  -4    3.60    0.40 
   6  -5   4    3.97    0.51 
   6  -5   4    3.93    0.57 
   6  -5   4    3.47    0.49 
  -6  -5  -4    3.83    0.09 
   6  -5   4    3.91    0.71 
  -6   5  -4    4.10    0.35 
  -6   5  -4    4.55    0.32 
  -6   5  -4    4.50    0.22 
  -6   5  -4    4.61    0.25 
   7  -5   4   11.33    0.56 
   7  -5   4   11.75    0.82 
   7  -5   4   11.21    0.56 
   7  -5   4   11.78    0.53 
   7  -5   4   11.81    0.84 
  -7   5  -4   11.85    0.36 
  -7   5  -4   12.01    0.26 
  -7   5  -4   12.01    0.31 
  -7  -6   4    3.40    0.08 
   7  -6  -4    3.35    0.39 
  -7   6   4    3.55    0.31 
   6  -6  -4   10.38    0.49 
  -6  -6   4    9.94    0.18 
  -6  -6   4    9.87    0.28 
   6  -6  -4    9.86    0.45 
  -6   6   4   12.28    0.60 
  -6   6   4   13.99    0.98 
  -6   6   4   10.46    1.16 
  -6   6   4   12.05    0.49 
   5  -6  -4   18.21    0.62 
   5  -6  -4   18.77    0.46 
   5  -6  -4   18.84    0.66 
   5  -6  -4   18.47    0.46 
  -5  -6   4   18.42    0.36 
   5  -6  -4   17.11    1.15 
  -5  -6   4   18.05    0.44 
   5  -6  -4   19.30    0.67 
   5  -6  -4   18.79    0.61 
  -5  -6   4   18.06    0.48 
   5  -6  -4   18.88    1.30 
  -5  -6   4   18.12    0.45 
  -5   6   4   22.30    0.78 
  -5   6   4   23.31    0.46 
  -5   6   4   23.08    0.76 
  -5   6   4   23.49    1.22 
  -5   6   4   23.38    0.87 
   4  -6  -4   12.05    0.37 
   4  -6  -4   12.89    1.07 
  -4  -6   4   12.45    0.34 
   4  -6  -4   12.55    0.52 
  -4  -6   4   13.39    0.41 
   4  -6  -4   12.58    0.58 
   4  -6  -4   12.57    1.17 
  -4  -6   4   12.60    0.44 
   4  -6  -4   12.55    0.53 
   4  -6  -4   12.29    0.38 
   4  -6  -4   13.00    0.58 
   4  -6  -4   13.27    0.58 
  -4   6   4   14.68    0.47 
  -4   6   4   14.58    0.66 
  -4   6   4   14.18    0.46 
  -4   6   4   14.51    0.41 
  -4   6   4   14.41    0.73 
   3  -6  -4    9.60    0.50 
  -3  -6   4    8.78    0.32 
   3  -6  -4   10.17    1.09 
  -3  -6   4    9.36    0.40 
  -3  -6   4    9.82    0.41 
   3  -6  -4    9.82    0.26 
  -3  -6   4    9.25    0.41 
   3  -6  -4    9.57    0.56 
   3  -6  -4    9.32    0.50 
   3  -6  -4   10.19    0.47 
   3  -6  -4   10.38    0.34 
   3  -6  -4    9.64    1.01 
   3  -6  -4   10.13    0.47 
   3  -6  -4   10.03    0.53 
   3  -6  -4    9.61    0.52 
  -3  -6   4   10.04    0.45 
  -3   6   4   11.47    0.65 
   3   6  -4   12.97    0.47 
  -3   6   4   11.74    0.43 
  -3   6   4   11.61    0.47 
  -3   6   4   12.31    0.46 
  -3   6   4   11.53    0.66 
   2  -6  -4    4.46    0.22 
   2  -6  -4    5.14    0.41 
  -2  -6   4    4.79    0.24 
   2  -6  -4    4.66    0.42 
   2  -6  -4    4.54    0.27 
  -2  -6   4    4.76    0.21 
   2  -6  -4    4.51    0.36 
  -2  -6   4    4.61    0.36 
  -2  -6   4    4.97    0.39 
  -2  -6   4    4.33    0.42 
  -2  -6   4    4.72    0.36 
  -2  -6   4    4.02    0.36 
   2  -6  -4    4.70    0.41 
   2  -6  -4    4.70    0.35 
   2  -6  -4    5.49    0.94 
  -2  -6   4    5.02    0.40 
   2  -6  -4    4.29    0.44 
   2  -6  -4    4.66    0.32 
   2  -6  -4    2.09    0.63 
  -2  -6   4    4.66    0.20 
   2  -6  -4    4.25    0.42 
  -2  -6   4    4.67    0.18 
  -2  -6   4    4.79    0.28 
  -2   6   4    6.41    0.41 
   2   6  -4    5.83    0.34 
   2   6  -4    5.99    0.34 
  -2   6   4    6.57    0.40 
  -1  -6   4   23.97    0.66 
   1  -6  -4   22.99    0.65 
   1  -6  -4   22.84    0.66 
  -1  -6   4   21.85    0.66 
   1  -6  -4   23.26    0.71 
   1  -6  -4   23.44    0.70 
   1  -6  -4   22.26    0.65 
   1  -6  -4   21.99    0.65 
   1  -6  -4   22.54    0.51 
  -1  -6   4   22.69    0.75 
   1  -6  -4   22.42    0.44 
   1  -6  -4   23.23    0.69 
   1  -6  -4   22.82    0.64 
  -1  -6   4   21.96    0.52 
  -1  -6   4   22.46    0.46 
  -1  -6   4   21.77    0.53 
  -1  -6   4   24.13    0.69 
   1  -6  -4   22.62    0.51 
  -1  -6   4   22.42    0.64 
  -1  -6   4   22.39    0.72 
  -1  -6   4   22.60    0.67 
   1   6  -4   28.49    0.67 
  -1   6   4   26.85    0.69 
   1   6  -4   27.97    0.68 
  -1   6   4   27.67    0.72 
   0  -6  -4   21.67    0.61 
   0  -6  -4   21.45    0.33 
   0  -6   4   22.11    0.93 
   0  -6   4   21.18    0.48 
   0  -6  -4   21.51    0.34 
   0  -6   4   21.40    0.43 
   0  -6  -4   22.26    0.61 
   0  -6   4   22.71    0.68 
   0  -6  -4   21.08    0.63 
   0  -6  -4   21.40    0.38 
   0  -6   4   20.97    0.67 
   0  -6  -4   22.04    0.66 
   0  -6  -4   21.48    0.34 
   0  -6  -4   21.68    0.59 
   0  -6   4   22.58    0.69 
   0  -6   4   21.72    0.67 
   0  -6   4   21.80    0.56 
   0  -6   4   21.86    0.74 
   0  -6  -4   21.54    0.32 
   0  -6   4   22.17    0.97 
   0  -6  -4   22.06    0.62 
   0   6   4   26.40    0.68 
   0   6  -4   26.58    0.64 
   0   6   4   26.97    0.68 
   0   6  -4   26.34    0.60 
   0   6  -4   25.83    1.07 
   0   6  -4   25.94    0.64 
  -1  -6  -4    5.21    0.30 
  -1  -6  -4    5.21    0.33 
   1  -6   4    4.77    0.54 
   1  -6   4    5.48    0.54 
   1  -6   4    4.88    0.64 
  -1  -6  -4    4.73    0.34 
   1  -6   4    5.14    0.29 
   1  -6   4    4.52    0.65 
   1  -6   4    5.56    0.25 
  -1  -6  -4    4.71    0.31 
   1  -6   4    6.02    0.42 
  -1  -6  -4    5.11    0.35 
   1  -6   4    6.10    0.45 
   1  -6   4    5.11    0.44 
   1  -6   4    4.42    0.43 
  -1   6  -4    6.68    0.52 
  -1   6  -4    6.26    0.33 
  -1   6  -4    5.97    0.35 
  -1   6  -4    5.66    0.31 
  -1   6  -4    5.86    0.64 
   2  -6   4    1.52    0.30 
  -2  -6  -4    1.33    0.21 
  -2  -6  -4    1.87    0.27 
   2  -6   4    2.37    0.48 
   2  -6   4    1.49    0.23 
   2  -6   4    1.77    0.27 
  -2  -6  -4    1.63    0.22 
   2  -6   4    1.88    0.40 
   2  -6   4    1.33    0.30 
   2  -6   4    0.66    0.44 
   2  -6   4    1.94    0.49 
  -2   6  -4    1.76    0.46 
  -2   6  -4    2.09    0.25 
  -2   6  -4    2.10    0.45 
  -2   6  -4    1.84    0.25 
   3  -6   4    5.37    0.43 
   3  -6   4    5.91    0.46 
  -3  -6  -4    4.71    0.29 
  -3  -6  -4    5.40    0.20 
   3  -6   4    5.33    0.49 
  -3  -6  -4    5.46    0.28 
   3  -6   4    7.27    0.35 
   3  -6   4    5.16    0.30 
  -3   6  -4    6.03    0.35 
  -3   6  -4    6.56    0.47 
  -3   6  -4    6.65    0.48 
  -3   6  -4    6.59    0.39 
  -3   6  -4    6.55    0.44 
  -4  -6  -4    1.80    0.17 
   4  -6   4    1.48    0.32 
   4  -6   4    1.67    0.38 
  -4   6  -4    2.25    0.36 
  -4   6  -4    2.02    0.53 
   5  -6   4    6.92    0.40 
  -5  -6  -4    6.98    0.11 
  -5   6  -4    8.26    0.34 
  -5   6  -4    8.16    0.28 
   5  -7  -4    0.23    0.13 
  -5  -7   4    0.21    0.08 
  -5   7   4    0.07    0.22 
  -5   7   4    0.30    0.35 
   4  -7  -4    0.23    0.22 
   4  -7  -4    0.40    0.10 
  -4  -7   4    0.23    0.09 
   4  -7  -4    0.20    0.10 
   4  -7  -4    0.31    0.15 
   4  -7  -4    0.28    0.19 
   4  -7  -4    0.43    0.12 
  -4  -7   4    0.37    0.09 
   4  -7  -4    0.05    0.17 
   4  -7  -4    0.17    0.14 
  -4  -7   4    0.12    0.15 
   4  -7  -4    0.31    0.17 
  -4   7   4    0.23    0.18 
  -4   7   4    0.40    0.20 
  -4   7   4    0.15    0.10 
   3  -7  -4    2.37    0.17 
   3  -7  -4    2.36    0.15 
   3  -7  -4    1.94    0.17 
   3  -7  -4    2.23    0.30 
   3  -7  -4    2.27    0.35 
  -3  -7   4    2.21    0.18 
  -3  -7   4    2.19    0.22 
   3  -7  -4    2.24    0.26 
   3  -7  -4    1.93    0.31 
   3  -7  -4    1.97    0.27 
   3  -7  -4    2.55    0.29 
   3  -7  -4    2.33    0.17 
  -3  -7   4    1.62    0.29 
  -3   7   4    2.89    0.35 
  -3   7   4    2.81    0.22 
   2  -7  -4   10.31    0.35 
  -2  -7   4   10.97    0.33 
   2  -7  -4   10.42    0.38 
   2  -7  -4   10.33    0.40 
  -2  -7   4   10.25    0.49 
  -2  -7   4    9.94    0.30 
   2  -7  -4   10.58    0.19 
  -2  -7   4   10.06    0.29 
   2  -7  -4   10.08    0.40 
  -2  -7   4    9.76    0.41 
   2  -7  -4   10.28    0.38 
   2  -7  -4   10.43    0.19 
   2  -7  -4   10.85    0.46 
   2  -7  -4   10.34    0.20 
  -2   7   4   12.94    0.54 
  -2   7   4   12.56    0.36 
  -1  -7   4   19.97    0.51 
   1  -7  -4   20.25    0.50 
   1  -7  -4   19.81    0.51 
   1  -7  -4   19.75    0.47 
  -1  -7   4   19.11    0.46 
   1  -7  -4   19.65    0.51 
  -1  -7   4   19.53    0.56 
  -1  -7   4   19.94    0.61 
   1  -7  -4   19.89    0.55 
  -1   7   4   24.60    0.54 
   1   7  -4   24.11    0.49 
   0  -7   4    6.52    0.32 
   0  -7   4    6.80    0.34 
   0  -7  -4    5.97    0.24 
   0  -7   4    6.33    0.16 
   0  -7   4    5.68    0.42 
   0  -7  -4    6.54    0.30 
   0  -7   4    6.26    0.17 
   0  -7   4    6.13    0.46 
   0  -7  -4    6.29    0.28 
   0  -7   4    6.71    0.34 
   0  -7   4    6.55    0.35 
   0  -7   4    6.37    0.20 
   0  -7  -4    6.05    0.35 
   0  -7   4    6.35    0.16 
   0   7  -4    8.38    0.44 
   0   7  -4    8.45    0.30 
  -1  -7  -4    0.16    0.10 
   1  -7   4    0.30    0.13 
   1  -7   4    0.04    0.15 
   1  -7   4   -0.02    0.18 
   1  -7   4    0.28    0.18 
   1  -7   4    0.16    0.10 
   1  -7   4    0.27    0.27 
   1  -7   4    0.17    0.20 
  -1  -7  -4    0.29    0.11 
  -1  -7  -4    0.10    0.15 
   1  -7   4    0.16    0.10 
  -1   7  -4    0.20    0.41 
  -1   7  -4    0.21    0.16 
  -1   7  -4    0.14    0.10 
   2  -7   4    3.61    0.17 
   2  -7   4    3.88    0.31 
  -2  -7  -4    3.62    0.26 
   2  -7   4    3.24    0.22 
   2  -7   4    3.64    0.19 
  -2  -7  -4    3.85    0.20 
   2  -7   4    3.53    0.33 
  -2  -7  -4    3.37    0.14 
   2  -7   4    3.95    0.29 
  -2   7  -4    3.81    0.71 
  -2   7  -4    3.61    0.74 
  -2   7  -4    4.21    0.32 
  -2   7  -4    4.25    0.36 
 -12   0   5   16.67    0.33 
 -12   0   5   16.03    0.44 
 -12   0   5   15.97    0.25 
 -11   0   5   39.74    0.69 
 -11   0   5   39.34    0.60 
 -11   0   5   38.56    0.61 
 -11   0   5   39.41    0.83 
 -10   0   5   22.42    0.76 
 -10   0   5   22.52    0.45 
 -10   0   5   22.20    0.63 
 -10   0   5   22.40    0.53 
  -9   0   5    0.26    0.23 
   8   0  -5    9.58    0.57 
  -8   0   5    9.82    0.32 
  -8   0   5    9.59    0.52 
  -7   0   5   28.14    0.79 
  -7   0   5   28.99    0.54 
  -7   0   5   28.34    0.69 
   7   0  -5   28.34    0.82 
   7   0  -5   28.05    1.04 
   7   0  -5   29.64    1.17 
  -6   0   5    5.01    0.34 
  -6   0   5    4.31    0.35 
   6   0  -5    6.16    0.51 
  -6   0   5    4.84    0.21 
   6   0  -5    4.80    0.55 
   6   0  -5    5.24    0.40 
  -6   0   5    4.97    0.30 
   5   0  -5   20.12    0.62 
  -5   0   5   20.86    0.54 
  -5   0   5   19.52    0.64 
   5   0  -5   19.43    0.80 
  -5   0   5   20.96    0.74 
  -5   0   5   19.86    0.59 
   5   0  -5   19.98    0.84 
   4   0  -5   10.11    0.67 
  -4   0   5   10.39    0.54 
  -4   0   5   10.49    0.44 
   4   0  -5    9.33    0.43 
   4   0  -5   10.37    0.60 
  -4   0   5   10.99    0.50 
  -4   0   5   10.58    0.42 
  -4   0   5   10.20    0.42 
   3   0  -5   32.69    1.01 
  -3   0   5   32.77    0.87 
   3   0  -5   29.64    1.40 
  -3   0   5   31.99    0.92 
  -3   0   5   31.91    0.78 
   3   0  -5   32.22    1.04 
  -3   0   5   32.36    0.81 
  -2   0   5  198.16    3.10 
  -2   0   5  200.72    2.85 
   2   0  -5  203.15    4.20 
   2   0  -5  202.54    4.20 
   2   0  -5  201.56    3.44 
  -2   0   5  203.76    3.46 
  -2   0   5  203.89    3.15 
  -2   0   5  206.70    3.38 
   2   0  -5  201.43    3.12 
  -1   0   5  162.50    2.92 
   1   0  -5  162.00    2.54 
   1   0  -5  165.77    2.72 
   1   0  -5  174.38    3.67 
  -1   0   5  164.87    2.61 
  -1   0   5  164.67    2.86 
  -1   0   5  166.10    2.41 
   1   0  -5  164.13    2.92 
   1   0  -5  159.50    3.59 
   0   0  -5   15.07    0.96 
   0   0  -5   13.88    0.43 
   0   0   5   13.35    0.49 
   0   0   5   13.42    0.53 
   0   0   5   13.98    0.64 
   0   0  -5   12.97    0.96 
   0   0  -5   13.65    0.98 
   0   0  -5   13.52    0.42 
   1   0   5   30.61    0.78 
  -1   0  -5   26.79    1.23 
   1   0   5   30.08    0.83 
  -1   0  -5   29.66    0.67 
  -1   0  -5   32.30    1.18 
  -1   0  -5   31.36    0.70 
  -1   0  -5   30.01    1.28 
   2   0   5    4.56    0.28 
   2   0   5    4.19    0.37 
   2   0   5    4.49    0.38 
  -2   0  -5    3.82    0.23 
  -2   0  -5    3.72    0.59 
  -2   0  -5    4.64    0.58 
  -2   0  -5    4.17    0.24 
  -2   0  -5    4.00    0.53 
   3   0   5    0.18    0.20 
  -3   0  -5    0.30    0.10 
   3   0   5    0.09    0.17 
  -3   0  -5    0.68    0.34 
   3   0   5    0.41    0.24 
   4   0   5    0.00    0.21 
  -4   0  -5   -0.10    0.16 
   4   0   5    0.31    0.21 
  -4   0  -5   -0.10    0.10 
   4   0   5   -0.08    0.21 
  -4   0  -5    0.27    0.27 
  -5   0  -5    2.77    0.24 
  -5   0  -5    3.18    0.28 
   5   0   5    2.80    0.38 
  -6   0  -5  126.74    1.90 
  -7   0  -5  215.85    2.91 
  -7   0  -5  219.51    3.81 
  -7   0  -5  217.95    2.77 
  -7   0  -5  214.74    3.02 
  -7   0  -5  216.48    2.45 
  -8   0  -5   83.70    1.72 
  -8   0  -5   80.93    1.29 
  -8   0  -5   84.95    1.20 
  -8   0  -5   85.88    1.05 
  -9   0  -5   12.97    0.51 
  -9   0  -5   12.82    0.30 
  -9   0  -5   12.83    0.22 
 -12  -1   5    3.77    0.14 
 -12  -1   5    3.71    0.27 
 -12   1   5    3.98    0.24 
 -12   1   5    4.12    0.17 
 -12   1   5    4.03    0.22 
 -12   1   5    4.34    0.26 
 -11  -1   5    2.47    0.20 
 -11  -1   5    2.57    0.16 
 -11  -1   5    2.17    0.31 
 -11   1   5    2.20    0.33 
 -11   1   5    2.29    0.20 
 -11   1   5    2.22    0.24 
 -11   1   5    1.99    0.22 
 -10  -1   5    8.97    0.25 
 -10  -1   5    9.27    0.50 
 -10  -1   5    8.57    0.27 
 -10  -1   5    8.82    0.31 
 -10   1   5    9.07    0.35 
 -10   1   5    8.94    0.41 
 -10   1   5    9.09    0.39 
 -10   1   5    9.53    0.49 
 -10   1   5    9.12    0.55 
 -10   1   5    8.96    0.39 
 -10   1   5    9.09    0.19 
  -9  -1   5    6.56    0.28 
  -9  -1   5    5.77    0.45 
  -9   1   5    4.92    0.45 
  -9   1   5    5.09    0.28 
  -8  -1   5    8.42    0.45 
  -8  -1   5    8.83    0.28 
   8  -1  -5    9.17    0.45 
   8  -1  -5    8.70    0.41 
  -8   1   5    9.20    0.37 
   8   1  -5    9.24    0.51 
  -8   1   5    8.39    0.48 
  -8   1   5    8.49    0.44 
  -7  -1   5   12.63    0.27 
  -7  -1   5   12.10    0.37 
   7  -1  -5   11.91    0.84 
  -7  -1   5   11.27    0.49 
   7  -1  -5   12.55    0.77 
  -7   1   5   13.62    0.56 
   7   1  -5   12.25    0.53 
  -7   1   5   11.69    0.58 
  -7   1   5   12.67    0.54 
  -7   1   5   12.20    0.39 
   6  -1  -5   20.24    0.99 
  -6  -1   5   20.72    0.42 
  -6  -1   5   20.49    0.61 
   6  -1  -5   21.33    0.89 
  -6   1   5   20.88    0.65 
   6   1  -5   22.72    0.93 
  -6   1   5   20.90    0.59 
   6   1  -5   21.59    0.83 
  -6   1   5   22.03    0.60 
  -6   1   5   21.73    0.78 
  -6   1   5   21.18    0.64 
   6   1  -5   21.32    0.64 
   5  -1  -5  147.64    2.61 
   5  -1  -5  147.69    2.91 
   5  -1  -5  140.61    2.60 
  -5  -1   5  141.66    2.50 
  -5  -1   5  145.03    2.16 
   5   1  -5  155.71    2.67 
   5   1  -5  155.68    2.93 
  -5   1   5  155.66    2.97 
  -5   1   5  161.67    2.72 
  -5   1   5  153.70    2.89 
  -5   1   5  159.06    2.34 
  -5   1   5  156.74    2.58 
   5   1  -5  158.42    2.08 
  -4  -1   5  259.51    4.25 
  -4  -1   5  259.53    3.94 
   4  -1  -5  263.16    4.32 
   4  -1  -5  252.91    3.95 
  -4  -1   5  256.62    4.02 
  -4  -1   5  263.11    3.75 
  -4  -1   5  260.17    4.17 
   4   1  -5  268.13    3.17 
  -4   1   5  276.29    4.52 
  -4   1   5  265.08    4.21 
   4   1  -5  265.68    4.39 
  -4   1   5  268.56    4.11 
   4   1  -5  264.14    4.00 
  -4   1   5  270.20    4.47 
  -4   1   5  267.98    3.75 
  -4   1   5  269.54    4.33 
   3  -1  -5   53.03    1.43 
  -3  -1   5   52.62    1.07 
   3  -1  -5   53.08    1.29 
  -3  -1   5   53.45    1.19 
  -3  -1   5   52.06    1.03 
   3  -1  -5   52.53    1.83 
   3  -1  -5   51.80    1.89 
  -3  -1   5   54.57    1.27 
  -3  -1   5   53.71    1.06 
   3   1  -5   55.01    1.26 
  -3   1   5   53.74    1.17 
  -3   1   5   55.79    1.27 
   3   1  -5   62.08    1.46 
  -3   1   5   53.11    1.15 
  -3   1   5   51.82    1.07 
   3   1  -5   54.46    0.96 
  -3   1   5   55.75    1.34 
  -3   1   5   52.79    1.19 
  -3   1   5   54.21    1.19 
   2  -1  -5   65.90    1.44 
   2  -1  -5   62.95    2.00 
  -2  -1   5   65.25    1.32 
  -2  -1   5   64.74    1.45 
   2  -1  -5   64.34    1.20 
  -2  -1   5   64.54    1.42 
   2  -1  -5   63.94    1.55 
  -2  -1   5   64.03    1.25 
  -2  -1   5   65.46    1.39 
   2  -1  -5   66.20    2.09 
  -2  -1   5   64.45    1.27 
   2   1  -5   66.63    1.62 
  -2   1   5   66.11    1.31 
  -2   1   5   66.80    1.52 
   2   1  -5   67.78    2.10 
   2   1  -5   67.25    1.46 
  -2   1   5   66.50    1.23 
  -2   1   5   66.92    1.46 
  -1  -1   5   89.66    1.68 
  -1  -1   5   93.20    1.72 
   1  -1  -5   92.42    2.50 
   1  -1  -5   94.03    1.57 
   1  -1  -5   92.16    1.59 
  -1  -1   5   90.39    1.70 
  -1  -1   5   93.18    1.56 
   1  -1  -5  102.91    2.62 
   1  -1  -5   93.47    2.39 
  -1  -1   5   97.22    1.90 
  -1  -1   5   94.16    1.86 
  -1   1   5   95.77    1.74 
   1   1  -5   98.65    2.59 
  -1   1   5   99.91    1.60 
   1   1  -5   97.71    2.62 
   1   1  -5   99.79    1.87 
  -1   1   5   97.96    1.93 
   1   1  -5   94.43    2.01 
   0  -1   5  387.79    6.25 
   0  -1   5  379.79    5.55 
   0  -1  -5  383.71    5.40 
   0  -1  -5  379.91    6.50 
   0  -1  -5  368.55    6.84 
   0  -1  -5  386.46    5.65 
   0  -1  -5  379.98    6.76 
   0  -1   5  378.92    5.92 
   0  -1   5  389.54    5.08 
   0   1  -5  371.68    6.82 
   0   1  -5  382.15    5.52 
   0   1  -5  379.33    6.57 
   0   1  -5  378.32    5.38 
   0   1   5  383.04    4.10 
   0   1  -5  400.99    5.95 
   0   1   5  390.15    5.49 
   0   1  -5  376.47    6.86 
   0   1   5  380.84    5.01 
   0   1  -5  381.51    5.79 
  -1  -1  -5   64.22    1.11 
  -1  -1  -5   60.62    1.06 
  -1  -1  -5   60.74    1.97 
   1  -1   5   60.07    1.26 
   1  -1   5   60.06    1.37 
   1  -1   5   60.45    1.57 
  -1  -1  -5   58.88    1.74 
  -1  -1  -5   60.29    1.58 
  -1   1  -5   61.17    1.69 
  -1   1  -5   59.89    1.18 
   1   1   5   59.98    0.92 
  -1   1  -5   59.03    1.38 
   1   1   5   60.10    1.23 
  -1   1  -5   59.00    1.85 
  -1   1  -5   59.60    1.90 
   1   1   5   60.83    1.16 
  -1   1  -5   59.35    1.16 
  -2  -1  -5   57.18    1.80 
   2  -1   5   58.44    1.28 
   2  -1   5   59.08    1.13 
   2  -1   5   59.35    1.37 
  -2  -1  -5   62.10    1.62 
  -2  -1  -5   59.72    0.97 
   2   1   5   59.35    0.94 
  -2   1  -5   58.46    1.57 
   2   1   5   60.95    1.19 
  -2   1  -5   60.25    1.33 
  -2   1  -5   60.68    1.17 
   2   1   5   59.36    1.25 
  -2   1  -5   60.51    1.16 
  -2   1  -5   59.95    1.81 
  -3  -1  -5   56.36    0.92 
   3  -1   5   57.43    1.40 
   3  -1   5   57.40    1.29 
   3   1   5   55.24    1.16 
  -3   1  -5   56.61    1.70 
   3   1   5   57.38    0.94 
  -3   1  -5   56.05    1.08 
   3   1   5   57.62    1.26 
  -3   1  -5   59.10    1.45 
  -3   1  -5   56.30    1.10 
   4  -1   5    6.31    0.49 
   4  -1   5    6.09    0.53 
  -4  -1  -5    6.52    0.26 
   4  -1   5    6.31    0.43 
  -4  -1  -5    6.10    0.27 
  -4   1  -5    6.18    0.58 
   4   1   5    6.76    0.35 
  -4   1  -5    6.84    0.30 
  -4   1  -5    7.30    0.63 
  -4   1  -5    6.73    0.32 
  -4   1  -5    5.29    0.65 
   5  -1   5   86.80    1.69 
   5  -1   5   88.47    1.63 
  -5  -1  -5   88.74    1.38 
  -5   1  -5   93.15    1.43 
  -5   1  -5   94.09    1.88 
   5   1   5   91.12    1.50 
  -5   1  -5   95.42    1.53 
  -5   1  -5   93.72    1.82 
   6  -1   5   21.91    0.83 
  -6  -1  -5   23.08    0.51 
  -6  -1  -5   22.45    0.45 
  -6  -1  -5   23.39    0.85 
   6  -1   5   23.04    0.78 
  -6  -1  -5   23.07    0.50 
  -6  -1  -5   23.73    0.55 
  -6   1  -5   29.37    1.03 
  -6   1  -5   25.53    0.65 
  -6   1  -5   24.76    0.59 
  -6   1  -5   24.27    0.61 
  -6   1  -5   24.58    0.58 
  -6   1  -5   25.25    0.63 
  -6   1  -5   26.07    0.65 
  -6   1  -5   24.80    0.48 
  -6   1  -5   24.64    0.55 
  -6   1  -5   25.56    0.63 
  -6   1  -5   24.92    0.57 
  -7  -1  -5   59.92    1.01 
  -7  -1  -5   60.35    0.81 
  -7  -1  -5   60.11    0.81 
   7  -1   5   60.52    1.34 
   7  -1   5   60.17    1.46 
  -7  -1  -5   59.83    0.93 
  -7  -1  -5   61.09    1.46 
  -7   1  -5   62.38    1.12 
  -7   1  -5   61.50    1.03 
  -7   1  -5   61.83    1.48 
  -7   1  -5   62.26    0.66 
  -7   1  -5   63.06    0.93 
  -7   1  -5   62.43    1.09 
  -7   1  -5   62.01    1.10 
  -7   1  -5   62.06    0.99 
  -8  -1  -5   12.36    0.66 
  -8  -1  -5   10.21    0.27 
   8  -1   5   12.05    0.67 
  -8  -1  -5   11.29    0.30 
  -8  -1  -5   11.47    0.25 
  -8   1  -5   11.51    0.32 
  -8   1  -5   11.53    0.34 
  -8   1  -5   11.20    0.37 
  -8   1  -5   11.33    0.35 
  -8   1  -5   10.88    0.35 
  -8   1  -5   11.21    0.56 
  -9  -1  -5   10.92    0.22 
  -9  -1  -5   10.65    0.47 
  -9   1  -5   11.36    0.29 
  -9   1  -5   11.30    0.25 
 -12  -2   5   10.35    0.32 
 -12  -2   5   10.39    0.12 
 -12   2   5   10.27    0.26 
 -12   2   5    9.78    0.28 
 -12   2   5   10.08    0.27 
 -11  -2   5   14.73    0.46 
 -11  -2   5   14.62    0.17 
  11  -2  -5   14.30    0.49 
 -11   2   5   16.46    0.46 
 -11   2   5   17.20    0.45 
 -11   2   5   16.72    0.45 
 -11   2   5   16.26    0.45 
 -11   2   5   16.82    0.44 
 -10  -2   5    9.85    0.22 
  10  -2  -5    9.32    0.49 
 -10  -2   5    9.38    0.28 
  10  -2  -5    9.44    0.46 
 -10  -2   5    9.77    0.44 
 -10  -2   5    9.62    0.19 
 -10   2   5    9.85    0.42 
 -10   2   5    9.25    0.32 
 -10   2   5    9.63    0.27 
 -10   2   5    9.33    0.40 
 -10   2   5    9.37    0.49 
 -10   2   5    9.78    0.30 
 -10   2   5    9.45    0.31 
 -10   2   5    9.67    0.41 
 -10   2   5   10.13    0.27 
 -10   2   5    9.83    0.41 
 -10   2   5    8.51    0.50 
   9  -2  -5    2.02    0.32 
  -9  -2   5    1.77    0.21 
   9  -2  -5    1.63    0.33 
  -9  -2   5    1.85    0.39 
  -9  -2   5    1.59    0.17 
  -9  -2   5    1.63    0.14 
  -9   2   5    1.88    0.27 
  -9   2   5    2.09    0.20 
  -9   2   5    2.13    0.42 
  -9   2   5    1.81    0.30 
  -9   2   5    2.11    0.31 
  -9   2   5    2.29    0.35 
  -9   2   5    2.08    0.32 
  -9   2   5    1.58    0.30 
  -9   2   5    2.94    0.34 
  -9   2   5    1.92    0.36 
  -9   2   5    2.09    0.42 
   8  -2  -5   39.28    0.87 
  -8  -2   5   39.66    0.58 
  -8  -2   5   39.42    0.96 
   8  -2  -5   38.71    0.91 
  -8   2   5   43.18    1.08 
  -8   2   5   42.88    1.09 
   7  -2  -5   95.49    1.63 
   7  -2  -5   92.29    2.47 
  -7  -2   5   95.93    1.48 
   7  -2  -5   95.76    1.57 
   7  -2  -5   96.28    2.21 
  -7  -2   5   97.22    1.08 
  -7  -2   5   94.42    1.67 
  -7   2   5   95.75    1.78 
  -7   2   5   91.77    1.89 
  -7   2   5   99.32    1.73 
  -7   2   5  101.03    1.86 
   7   2  -5   97.67    1.53 
  -7   2   5  101.04    2.21 
  -7   2   5   96.29    1.77 
   6  -2  -5   73.77    1.87 
   6  -2  -5   68.66    1.99 
  -6  -2   5   71.52    0.83 
  -6  -2   5   69.66    0.85 
  -6  -2   5   72.59    1.32 
   6  -2  -5   69.01    1.78 
  -6   2   5   73.71    1.41 
   6   2  -5   75.02    1.28 
  -6   2   5   74.64    1.51 
  -6   2   5   77.00    1.41 
  -6   2   5   73.07    1.59 
  -6   2   5   73.68    1.54 
  -6   2   5   75.09    1.53 
  -6   2   5   71.69    1.80 
  -5  -2   5    9.12    0.38 
   5  -2  -5    9.12    0.71 
   5  -2  -5   10.07    0.68 
  -5  -2   5    9.62    0.29 
   5  -2  -5   10.23    0.77 
  -5   2   5    9.66    0.45 
   5   2  -5   11.55    0.47 
   5   2  -5   10.18    0.60 
  -5   2   5   10.85    0.54 
  -5   2   5   10.03    0.40 
  -5   2   5   10.30    0.45 
   5   2  -5    8.22    0.64 
  -5   2   5   10.39    0.53 
  -5   2   5   10.88    0.62 
  -4  -2   5    0.59    0.22 
   4  -2  -5   -0.10    0.52 
  -4  -2   5   -0.04    0.12 
   4  -2  -5    0.11    0.42 
   4  -2  -5    0.17    0.35 
  -4  -2   5    0.20    0.16 
   4  -2  -5    0.13    0.28 
   4  -2  -5    0.22    0.54 
   4  -2  -5    0.39    0.30 
  -4   2   5    0.76    0.32 
   4   2  -5    0.28    0.21 
  -4   2   5    0.40    0.23 
  -4   2   5    0.44    0.26 
  -4   2   5    0.46    0.16 
   4   2  -5    0.04    0.25 
  -4   2   5    0.25    0.27 
  -4   2   5   -0.04    0.22 
  -4   2   5    0.10    0.19 
   4   2  -5    0.09    0.25 
   3  -2  -5   20.48    1.24 
   3  -2  -5   18.18    0.88 
  -3  -2   5   17.89    0.50 
  -3  -2   5   18.84    0.66 
   3  -2  -5   19.11    0.94 
   3  -2  -5   18.99    0.78 
  -3  -2   5   18.80    0.52 
  -3  -2   5   19.46    0.57 
  -3  -2   5   18.59    0.72 
   3  -2  -5   18.28    0.60 
   3  -2  -5   18.45    1.02 
   3  -2  -5   20.81    1.22 
  -3   2   5   19.04    0.54 
  -3   2   5   18.32    0.68 
  -3   2   5   18.85    0.82 
  -3   2   5   19.06    0.75 
  -3   2   5   19.04    0.58 
   3   2  -5   18.10    0.78 
   3   2  -5   19.93    0.82 
  -3   2   5   19.01    0.67 
  -3   2   5   18.90    0.63 
   3   2  -5   18.86    0.53 
  -2  -2   5    5.96    0.37 
  -2  -2   5    5.77    0.39 
  -2  -2   5    5.82    0.41 
  -2  -2   5    5.58    0.34 
   2  -2  -5    6.79    0.86 
   2  -2  -5    5.98    0.35 
   2  -2  -5    6.09    0.79 
  -2  -2   5    5.48    0.45 
  -2  -2   5    6.00    0.36 
   2  -2  -5    6.39    0.80 
   2  -2  -5    5.97    0.33 
   2   2  -5    6.42    0.53 
  -2   2   5    6.74    0.44 
   2   2  -5    5.92    0.60 
  -2   2   5    7.01    0.58 
  -2   2   5    6.84    0.39 
  -2   2   5    6.38    0.33 
  -1  -2   5   46.96    0.93 
   1  -2  -5   45.34    1.58 
  -1  -2   5   44.53    1.00 
   1  -2  -5   46.20    0.92 
  -1  -2   5   45.69    0.85 
  -1  -2   5   45.90    1.08 
   1  -2  -5   45.96    0.91 
  -1  -2   5   45.44    1.22 
   1  -2  -5   42.83    1.71 
  -1  -2   5   47.59    1.08 
  -1  -2   5   45.81    1.20 
   1  -2  -5   45.72    1.76 
  -1   2   5   49.28    1.04 
   1   2  -5   48.47    1.29 
   1   2  -5   50.96    1.39 
  -1   2   5   49.27    1.13 
   1   2  -5   49.79    1.32 
   0  -2   5  292.10    3.93 
   0  -2   5  284.78    4.70 
   0  -2  -5  292.12    5.55 
   0  -2   5  296.92    4.98 
   0  -2  -5  287.58    4.34 
   0  -2   5  302.01    4.45 
   0  -2   5  290.85    4.46 
   0  -2  -5  290.51    5.10 
   0  -2  -5  290.82    4.13 
   0  -2   5  275.16    4.09 
   0  -2  -5  293.09    5.51 
   0  -2   5  280.52    4.84 
   0   2  -5  308.17    4.44 
   0   2  -5  299.76    4.68 
   0   2  -5  301.54    5.48 
   0   2   5  306.99    4.51 
   0   2   5  307.45    3.38 
   0   2  -5  310.66    5.82 
   0   2  -5  293.18    4.91 
   0   2   5  306.57    4.14 
   0   2  -5  304.71    4.56 
   0   2  -5  302.11    5.68 
   1  -2   5   54.73    1.13 
   1  -2   5   55.83    1.55 
   1  -2   5   54.95    1.32 
   1  -2   5   56.88    1.34 
   1  -2   5   57.34    1.46 
   1  -2   5   56.01    1.08 
  -1  -2  -5   56.32    0.94 
  -1  -2  -5   57.44    1.59 
  -1  -2  -5   55.30    1.88 
   1  -2   5   55.97    1.25 
  -1   2  -5   62.72    1.92 
  -1   2  -5   55.05    2.00 
   1   2   5   63.48    1.22 
  -1   2  -5   61.84    1.66 
   1   2   5   58.57    1.26 
   1   2   5   61.12    0.95 
  -1   2  -5   61.77    1.27 
  -1   2  -5   61.95    1.79 
  -1   2  -5   59.59    1.46 
  -1   2  -5   60.65    1.29 
   2  -2   5    5.42    0.38 
   2  -2   5    5.14    0.44 
   2  -2   5    4.87    0.35 
   2  -2   5    4.71    0.44 
  -2  -2  -5    4.82    0.33 
   2   2   5    5.86    0.41 
  -2   2  -5    6.17    0.40 
  -2   2  -5    5.97    0.39 
   2   2   5    6.04    0.30 
  -2   2  -5    6.01    0.46 
  -2   2  -5    5.34    0.75 
  -2   2  -5    6.53    0.64 
  -2   2  -5    4.92    0.52 
   2   2   5    5.50    0.38 
   3  -2   5   16.86    0.77 
   3  -2   5   16.03    0.80 
   3  -2   5   17.00    0.67 
   3  -2   5   16.17    0.62 
   3  -2   5   16.42    0.71 
  -3  -2  -5   17.13    0.39 
  -3   2  -5   16.86    0.71 
   3   2   5   17.81    0.49 
  -3   2  -5   18.19    0.62 
  -3   2  -5   17.20    0.88 
  -3   2  -5   17.63    0.89 
  -3   2  -5   18.04    0.60 
  -3   2  -5   16.01    0.83 
  -3   2  -5   18.57    1.10 
   4  -2   5    4.11    0.43 
  -4  -2  -5    4.45    0.29 
   4  -2   5    3.04    0.50 
  -4  -2  -5    4.06    0.24 
   4  -2   5    4.24    0.39 
  -4   2  -5    4.99    0.63 
  -4   2  -5    3.96    0.29 
  -4   2  -5    3.87    0.30 
  -4   2  -5    3.73    0.60 
  -4   2  -5    4.10    0.55 
  -4   2  -5    4.90    0.55 
   4   2   5    4.25    0.28 
  -4   2  -5    4.19    0.30 
   5  -2   5   20.54    0.82 
  -5  -2  -5   19.97    0.48 
   5  -2   5   20.14    0.78 
   5  -2   5   20.42    0.74 
  -5  -2  -5   19.70    0.48 
  -5   2  -5   20.46    0.58 
  -5   2  -5   20.07    0.86 
  -5   2  -5   21.60    0.95 
  -6  -2  -5    1.90    0.41 
   6  -2   5    1.78    0.43 
   6  -2   5    1.91    0.48 
  -6  -2  -5    1.56    0.19 
  -6  -2  -5    1.94    0.20 
   6  -2   5    2.61    0.51 
  -6  -2  -5    1.34    0.20 
  -6   2  -5    1.92    0.21 
  -6   2  -5    1.75    0.28 
  -6   2  -5    2.36    0.44 
  -6   2  -5    2.73    0.46 
  -6   2  -5    1.83    0.21 
  -6   2  -5    1.93    0.30 
  -6   2  -5    2.66    0.37 
  -6   2  -5    2.01    0.27 
  -6   2  -5    1.73    0.41 
  -6   2  -5    2.06    0.29 
  -6   2  -5    1.71    0.29 
  -6   2  -5    1.69    0.29 
  -6   2  -5    2.60    0.32 
  -7  -2  -5    3.30    0.46 
   7  -2   5    4.18    0.53 
  -7  -2  -5    4.39    0.21 
   7  -2   5    4.32    0.56 
  -7  -2  -5    4.14    0.19 
  -7  -2  -5    4.12    0.17 
  -7   2  -5    4.37    0.29 
  -7   2  -5    4.99    0.22 
  -7   2  -5    4.14    0.33 
  -7   2  -5    4.81    0.31 
  -7   2  -5    4.97    0.27 
  -7   2  -5    4.68    0.47 
  -7   2  -5    4.66    0.32 
  -7   2  -5    4.74    0.36 
  -7   2  -5    4.68    0.29 
  -7   2  -5    4.76    0.21 
  -7   2  -5    4.71    0.24 
   8  -2   5    4.63    0.47 
  -8  -2  -5    3.95    0.16 
  -8  -2  -5    4.28    0.42 
  -8  -2  -5    4.04    0.11 
  -8   2  -5    4.40    0.40 
  -8   2  -5    3.96    0.24 
  -8   2  -5    4.54    0.27 
  -8   2  -5    4.21    0.24 
  -8   2  -5    4.29    0.24 
  -9  -2  -5    2.60    0.06 
  11  -3  -5   18.75    0.46 
 -11  -3   5   18.80    0.18 
 -11   3   5   18.53    0.47 
 -11   3   5   18.76    0.41 
 -11   3   5   18.45    0.46 
 -10  -3   5    5.65    0.10 
  10  -3  -5    5.08    0.41 
  10  -3  -5    5.81    0.34 
  10  -3  -5    5.81    0.45 
 -10   3   5    5.95    0.31 
 -10   3   5    5.68    0.25 
 -10   3   5    6.16    0.30 
 -10   3   5    5.98    0.35 
 -10   3   5    5.83    0.30 
 -10   3   5    5.29    0.35 
 -10   3   5    5.75    0.35 
  -9  -3   5    6.44    0.18 
   9  -3  -5    6.08    0.35 
  -9  -3   5    6.33    0.23 
  -9  -3   5    6.36    0.13 
   9  -3  -5    6.52    0.45 
   9  -3  -5    6.88    1.09 
   9  -3  -5    6.12    0.42 
  -9   3   5    7.10    0.31 
  -9   3   5    7.09    0.54 
  -9   3   5    6.81    0.48 
  -9   3   5    7.13    0.35 
  -9   3   5    6.64    0.39 
  -9   3   5    6.53    0.46 
  -9   3   5    7.07    0.35 
  -9   3   5    6.63    0.45 
  -9   3   5    7.19    0.41 
   8  -3  -5   53.21    2.00 
   8  -3  -5   54.55    1.16 
   8  -3  -5   56.58    1.14 
  -8  -3   5   55.25    0.85 
  -8  -3   5   55.85    0.70 
  -8  -3   5   54.45    0.70 
   8  -3  -5   54.25    0.93 
   8  -3  -5   52.12    1.77 
   8  -3  -5   53.86    1.37 
  -8   3   5   55.96    0.91 
  -8   3   5   57.71    1.16 
  -8   3   5   57.49    1.16 
  -8   3   5   57.04    1.01 
  -8   3   5   57.38    1.03 
  -8   3   5   56.28    1.33 
  -8   3   5   56.03    1.16 
  -8   3   5   58.04    1.23 
   7  -3  -5  156.94    3.16 
   7  -3  -5  149.66    2.38 
   7  -3  -5  153.53    2.32 
  -7  -3   5  150.85    2.17 
  -7  -3   5  149.79    1.55 
   7  -3  -5  148.87    3.42 
  -7   3   5  165.07    2.85 
  -7   3   5  155.08    2.58 
  -7   3   5  160.43    2.68 
  -7   3   5  163.83    3.02 
  -7   3   5  160.15    2.79 
  -6  -3   5    7.33    0.32 
   6  -3  -5    9.88    0.89 
  -6  -3   5    8.36    0.28 
   6  -3  -5    7.86    0.42 
   6  -3  -5    7.83    0.84 
   6  -3  -5    7.90    0.44 
  -6  -3   5    7.91    0.43 
   6  -3  -5    8.28    0.90 
  -6   3   5    8.29    0.47 
   6   3  -5    7.64    0.43 
  -6   3   5    7.82    0.64 
  -6   3   5    8.93    0.56 
  -6   3   5    7.40    0.53 
  -6   3   5    7.97    0.57 
  -6   3   5    9.11    0.56 
  -5  -3   5   16.59    0.55 
   5  -3  -5   18.11    0.98 
   5  -3  -5   16.77    1.02 
  -5  -3   5   16.72    0.34 
   5  -3  -5   17.78    1.14 
   5  -3  -5   16.76    0.50 
   5  -3  -5   17.65    1.17 
  -5  -3   5   16.67    0.49 
  -5   3   5   19.80    0.83 
  -5   3   5   17.39    0.91 
  -5   3   5   20.24    0.63 
  -5   3   5   19.25    0.83 
  -5   3   5   19.49    0.69 
   5   3  -5   19.08    0.61 
  -5   3   5   19.19    0.71 
   4  -3  -5   10.67    0.97 
   4  -3  -5   10.03    1.10 
  -4  -3   5    8.93    0.33 
   4  -3  -5    8.90    0.96 
  -4  -3   5    8.59    0.38 
   4  -3  -5    9.25    0.49 
   4  -3  -5    8.57    0.76 
   4   3  -5    9.52    0.64 
   4   3  -5   11.22    0.46 
  -4   3   5   10.44    0.54 
  -4   3   5    9.53    0.45 
  -4   3   5   10.46    0.53 
  -4   3   5    9.20    0.57 
  -4   3   5   10.11    0.71 
  -4   3   5   10.19    0.58 
   4   3  -5   10.07    0.64 
  -4   3   5   10.77    0.67 
  -3  -3   5   73.87    1.31 
   3  -3  -5   74.99    1.46 
   3  -3  -5   74.71    1.47 
  -3  -3   5   73.80    1.60 
   3  -3  -5   74.38    2.14 
  -3  -3   5   74.97    1.25 
   3  -3  -5   74.73    2.43 
  -3   3   5   86.36    1.72 
   3   3  -5   83.90    1.82 
   3   3  -5   83.50    1.91 
  -3   3   5   82.94    1.48 
  -3   3   5   83.62    1.56 
   3   3  -5   83.14    1.34 
  -3   3   5   85.72    1.88 
   2  -3  -5   58.18    1.91 
  -2  -3   5   57.42    1.11 
  -2  -3   5   60.76    1.29 
   2  -3  -5   62.39    2.20 
   2  -3  -5   58.63    1.18 
  -2  -3   5   59.91    1.16 
  -2  -3   5   55.04    1.42 
  -2  -3   5   58.31    1.17 
   2  -3  -5   60.83    1.20 
  -2   3   5   64.42    1.23 
   2   3  -5   62.05    1.68 
   2   3  -5   64.12    1.54 
  -2   3   5   65.43    1.49 
  -2   3   5   64.93    1.37 
   1  -3  -5   33.50    0.75 
  -1  -3   5   34.24    0.92 
  -1  -3   5   33.42    0.82 
   1  -3  -5   34.29    0.76 
  -1  -3   5   36.15    1.14 
   1  -3  -5   32.60    1.50 
  -1  -3   5   33.58    0.95 
   1  -3  -5   34.25    1.40 
  -1  -3   5   33.54    0.86 
   1   3  -5   36.09    1.10 
  -1   3   5   38.16    0.97 
   1   3  -5   37.21    1.29 
  -1   3   5   36.70    1.05 
   1   3  -5   38.03    1.18 
   0  -3   5   81.40    1.43 
   0  -3   5   80.02    1.96 
   0  -3   5   78.56    1.62 
   0  -3  -5   79.17    2.31 
   0  -3  -5   82.77    1.35 
   0  -3   5   81.90    1.69 
   0  -3   5   83.17    1.52 
   0  -3   5   81.10    1.77 
   0   3  -5   91.18    1.84 
   0   3  -5   89.31    2.03 
   0   3   5   89.67    1.80 
   0   3  -5   91.46    1.95 
   0   3   5   91.97    1.34 
   0   3   5   89.70    1.64 
   0   3  -5   90.19    2.18 
   1  -3   5    7.94    0.55 
  -1  -3  -5    8.01    0.44 
  -1  -3  -5    7.93    0.73 
   1  -3   5    8.13    0.57 
   1  -3   5    8.64    0.64 
   1  -3   5    8.22    0.50 
   1  -3   5    7.68    0.51 
   1  -3   5    8.60    0.46 
   1  -3   5    7.87    0.47 
  -1   3  -5    9.92    0.70 
  -1   3  -5    9.24    0.55 
   1   3   5    7.77    0.43 
   1   3   5    9.00    0.51 
   1   3   5    8.90    0.37 
  -1   3  -5    8.40    0.75 
  -1   3  -5   10.05    0.67 
  -1   3  -5    9.48    0.78 
  -1   3  -5    8.80    0.71 
   2  -3   5   24.04    1.00 
   2  -3   5   24.66    0.77 
   2  -3   5   23.65    1.00 
   2  -3   5   23.25    0.82 
  -2  -3  -5   23.31    0.54 
   2  -3   5   23.27    0.79 
  -2  -3  -5   23.58    0.50 
   2  -3   5   23.81    0.96 
  -2   3  -5   25.09    1.13 
  -2   3  -5   27.38    1.37 
  -2   3  -5   26.74    0.83 
  -2   3  -5   27.96    1.03 
   2   3   5   27.89    0.64 
  -2   3  -5   26.96    0.88 
  -2   3  -5   27.34    0.98 
  -2   3  -5   23.97    1.12 
  -3  -3  -5    1.92    0.31 
   3  -3   5    1.45    0.34 
   3  -3   5    2.27    0.42 
  -3  -3  -5    1.71    0.20 
   3  -3   5    2.50    0.38 
   3  -3   5    1.54    0.38 
  -3   3  -5    2.25    0.34 
  -3   3  -5    3.05    0.61 
  -3   3  -5    2.83    0.66 
  -3   3  -5    2.09    0.35 
  -3   3  -5    2.39    0.54 
  -3   3  -5    2.06    0.47 
  -3   3  -5    1.97    0.47 
   3   3   5    2.06    0.25 
   4  -3   5   39.13    1.10 
   4  -3   5   39.89    1.19 
   4  -3   5   40.72    1.13 
   4  -3   5   39.35    1.04 
  -4  -3  -5   40.09    0.75 
  -4  -3  -5   40.80    0.70 
  -4   3  -5   44.93    1.09 
  -4   3  -5   44.42    1.21 
  -4   3  -5   47.32    1.22 
  -4   3  -5   45.58    1.41 
  -4   3  -5   46.97    1.45 
  -4   3  -5   42.29    1.42 
  -5  -3  -5    2.21    0.46 
  -5  -3  -5    2.45    0.19 
   5  -3   5    2.17    0.52 
   5  -3   5    2.35    0.51 
   5  -3   5    1.55    0.42 
   5  -3   5    2.41    0.37 
   5  -3   5    2.02    0.45 
  -5  -3  -5    2.71    0.24 
   5  -3   5    2.01    0.48 
   5  -3   5    3.19    0.49 
  -5  -3  -5    2.66    0.20 
  -5   3  -5    2.38    0.29 
  -5   3  -5    2.21    0.34 
  -5   3  -5    3.16    0.52 
  -5   3  -5    3.05    0.38 
  -5   3  -5    3.51    0.56 
  -5   3  -5    3.13    0.49 
  -5   3  -5    2.54    0.34 
  -5   3  -5    2.58    0.31 
  -5   3  -5    2.75    0.30 
  -5   3  -5    2.98    0.27 
  -5   3  -5    3.16    0.37 
  -5   3  -5    2.46    0.30 
  -5   3  -5    3.42    0.54 
  -6  -3  -5    1.12    0.18 
   6  -3   5    1.64    0.31 
  -6  -3  -5    1.08    0.15 
  -6  -3  -5    1.67    0.45 
   6  -3   5    0.67    0.33 
   6  -3   5    0.65    0.42 
   6  -3   5    1.71    0.43 
   6  -3   5    0.82    0.44 
   6  -3   5    1.03    0.39 
  -6  -3  -5    0.98    0.13 
  -6   3  -5    1.27    0.32 
  -6   3  -5    1.03    0.24 
  -6   3  -5    1.91    0.36 
  -6   3  -5    0.76    0.24 
  -6   3  -5    0.86    0.35 
  -6   3  -5    0.89    0.26 
  -6   3  -5    1.15    0.16 
  -6   3  -5    0.98    0.09 
  -6   3  -5    1.08    0.34 
  -6   3  -5    1.37    0.29 
  -6   3  -5    0.78    0.20 
  -6   3  -5    1.18    0.25 
  -6   3  -5    0.65    0.25 
   7  -3   5    2.88    0.52 
  -7  -3  -5    2.06    0.09 
  -7  -3  -5    2.05    0.43 
   7  -3   5    2.28    0.43 
   7  -3   5    1.66    0.37 
   7  -3   5    1.74    0.33 
  -7   3  -5    2.51    0.31 
  -7   3  -5    2.13    0.27 
  -7   3  -5    2.67    0.28 
  -7   3  -5    2.86    0.30 
  -7   3  -5    2.25    0.22 
  -7   3  -5    2.07    0.17 
  -7   3  -5    2.35    0.26 
  -7   3  -5    2.33    0.31 
  -7   3  -5    2.28    0.24 
  -7   3  -5    2.41    0.36 
  -7   3  -5    2.61    0.38 
  -8  -3  -5    1.73    0.06 
   8  -3   5    1.85    0.46 
   8  -3   5    1.05    0.19 
  -8   3  -5    1.74    0.21 
  -8   3  -5    2.00    0.21 
  -8   3  -5    1.79    0.22 
 -10  -4   5    7.11    0.09 
  10  -4  -5    7.10    0.49 
  10  -4  -5    7.09    0.29 
 -10   4   5    7.37    0.34 
 -10   4   5    7.75    0.30 
 -10   4   5    8.14    0.24 
 -10   4   5    7.88    0.32 
 -10   4   5    7.81    0.31 
 -10   4   5    7.64    0.34 
 -10   4   5    7.36    0.35 
   9  -4  -5   10.90    0.39 
   9  -4  -5    9.95    0.44 
   9  -4  -5   10.48    1.07 
   9  -4  -5   10.93    0.63 
  -9  -4   5   10.53    0.15 
   9  -4  -5   10.28    0.50 
  -9   4   5   11.47    0.34 
  -9   4   5   11.27    0.46 
  -9   4   5   11.24    0.49 
  -9   4   5   10.97    0.22 
  -9   4   5   12.16    0.45 
  -9   4   5   11.07    0.57 
  -9   4   5   11.65    0.44 
  -8  -4   5   15.22    0.29 
   8  -4  -5   14.96    0.60 
  -8  -4   5   14.85    0.21 
   8  -4  -5   13.87    0.43 
  -8  -4   5   14.83    0.24 
  -8  -4   5   15.70    0.35 
   8  -4  -5   15.34    1.18 
   8  -4  -5   12.23    0.54 
   8  -4  -5   15.52    0.78 
  -8   4   5   17.63    0.64 
  -8   4   5   16.20    0.49 
  -8   4   5   17.34    0.63 
  -8   4   5   17.15    0.65 
  -8   4   5   17.21    0.75 
  -8   4   5   17.20    0.53 
  -7  -4   5   11.25    0.27 
  -7  -4   5   11.28    0.31 
   7  -4  -5   11.97    0.41 
   7  -4  -5   10.52    0.97 
  -7  -4   5   11.17    0.35 
   7  -4  -5   10.72    0.74 
   7  -4  -5   11.02    1.08 
   7  -4  -5   12.11    0.56 
  -7   4   5   12.21    0.71 
  -7   4   5   13.61    0.69 
  -7   4   5   11.93    0.54 
  -7   4   5   13.09    0.58 
  -7   4   5   13.30    1.04 
  -7   4   5   12.17    0.62 
  -7   4   5   12.40    0.64 
  -7   4   5   11.72    1.18 
   6  -4  -5   17.22    1.45 
   6  -4  -5   17.10    1.20 
  -6  -4   5   18.98    0.43 
  -6  -4   5   18.88    0.50 
   6  -4  -5   19.22    0.71 
   6  -4  -5   19.30    1.11 
  -6   4   5   20.03    0.91 
  -6   4   5   20.68    0.66 
  -6   4   5   20.72    0.76 
  -6   4   5   21.23    0.75 
  -6   4   5   21.41    0.84 
   5  -4  -5   26.23    1.44 
  -5  -4   5   23.67    0.72 
   5  -4  -5   25.35    1.16 
   5  -4  -5   24.76    1.46 
  -5  -4   5   25.01    0.63 
   5  -4  -5   24.77    1.50 
  -5   4   5   28.40    0.90 
  -5   4   5   27.94    0.92 
  -5   4   5   28.32    0.79 
  -5   4   5   26.25    1.05 
  -4  -4   5   13.26    0.46 
   4  -4  -5   13.35    0.61 
   4  -4  -5   13.25    1.12 
   4  -4  -5   14.08    1.08 
   4  -4  -5   12.89    1.09 
   4  -4  -5   13.40    0.59 
   4  -4  -5   12.51    0.98 
  -4  -4   5   13.36    0.38 
  -4   4   5   15.02    0.66 
  -4   4   5   15.35    0.50 
  -4   4   5   15.32    0.53 
  -4   4   5   16.12    0.62 
  -4   4   5   15.73    0.71 
   4   4  -5   15.12    0.59 
  -3  -4   5   69.86    1.27 
   3  -4  -5   68.49    1.47 
   3  -4  -5   65.89    1.97 
   3  -4  -5   69.34    1.43 
   3  -4  -5   70.46    2.23 
  -3  -4   5   68.95    1.37 
  -3  -4   5   68.82    1.40 
   3  -4  -5   68.61    2.52 
   3  -4  -5   66.84    2.16 
  -3  -4   5   68.84    1.06 
  -3   4   5   76.58    1.36 
  -3   4   5   77.60    1.67 
  -3   4   5   77.99    1.36 
  -3   4   5   75.75    1.94 
  -3   4   5   78.50    1.58 
  -3   4   5   79.57    1.53 
   3   4  -5   75.69    1.92 
   2  -4  -5    7.31    0.86 
  -2  -4   5    7.95    0.43 
   2  -4  -5    7.52    0.39 
  -2  -4   5    7.34    0.32 
  -2  -4   5    7.47    0.52 
   2  -4  -5    8.02    1.03 
  -2  -4   5    8.19    0.54 
  -2  -4   5    7.61    0.58 
   2  -4  -5    7.04    0.94 
   2  -4  -5    8.21    0.42 
   2  -4  -5    8.07    0.99 
   2  -4  -5    6.51    0.37 
  -2   4   5    8.62    0.47 
   2   4  -5    8.65    0.35 
  -2   4   5    8.68    0.43 
   2   4  -5    8.31    0.74 
  -2   4   5    8.65    0.59 
   1  -4  -5   27.44    0.62 
  -1  -4   5   27.15    0.74 
   1  -4  -5   25.98    0.70 
   1  -4  -5   26.95    1.40 
  -1  -4   5   25.27    0.88 
  -1  -4   5   27.56    0.76 
  -1  -4   5   26.60    1.08 
  -1  -4   5   26.61    0.87 
   1  -4  -5   24.95    1.31 
  -1  -4   5   25.50    0.87 
   1  -4  -5   26.38    1.54 
  -1  -4   5   26.19    0.76 
  -1   4   5   29.00    0.74 
   1   4  -5   28.74    1.21 
  -1   4   5   30.72    1.05 
   1   4  -5   30.10    0.66 
   1   4  -5   30.07    1.06 
   1   4  -5   30.77    0.68 
   0  -4   5   43.30    1.43 
   0  -4  -5   44.92    1.58 
   0  -4   5   43.95    1.24 
   0  -4   5   45.79    1.22 
   0  -4  -5   44.91    0.98 
   0  -4  -5   43.98    0.92 
   0  -4  -5   44.00    1.51 
   0  -4   5   45.11    1.15 
   0  -4   5   45.79    1.12 
   0  -4   5   44.30    1.22 
   0   4  -5   49.80    0.92 
   0   4  -5   49.69    0.92 
   0   4  -5   51.04    1.35 
   0   4  -5   49.65    1.51 
   0   4  -5   48.95    1.45 
   0   4  -5   47.97    1.61 
   1  -4   5  145.95    2.86 
  -1  -4  -5  144.13    1.84 
   1  -4   5  149.34    2.74 
  -1  -4  -5  145.81    2.18 
   1  -4   5  137.31    2.69 
   1  -4   5  142.01    2.61 
   1  -4   5  149.04    2.74 
  -1   4  -5  170.39    3.10 
  -1   4  -5  169.89    2.40 
  -1   4  -5  164.14    3.20 
  -1   4  -5  172.03    2.38 
  -1   4  -5  168.76    2.93 
   2  -4   5   12.37    0.68 
  -2  -4  -5   10.73    0.40 
   2  -4   5    9.99    0.71 
   2  -4   5   11.87    0.76 
   2  -4   5   11.25    0.58 
  -2   4  -5   13.37    0.81 
  -2   4  -5   12.72    0.81 
  -2   4  -5   13.99    0.99 
  -2   4  -5   12.53    0.63 
   3  -4   5    2.62    0.56 
   3  -4   5    3.95    0.48 
  -3  -4  -5    3.37    0.32 
  -3  -4  -5    3.47    0.26 
   3  -4   5    4.22    0.63 
   3  -4   5    4.03    0.62 
  -3   4  -5    4.14    0.59 
  -3   4  -5    4.23    0.41 
  -3   4  -5    3.02    0.69 
  -3   4  -5    4.46    0.56 
  -3   4  -5    4.29    0.69 
  -4  -4  -5    7.48    0.31 
  -4  -4  -5    7.18    0.31 
  -4  -4  -5    7.47    0.26 
   4  -4   5    7.14    0.42 
   4  -4   5    7.27    0.66 
   4  -4   5    8.11    0.68 
   4  -4   5    6.11    0.53 
  -4  -4  -5    7.57    0.34 
  -4  -4  -5    7.48    0.55 
   4  -4   5    7.28    0.71 
  -4   4  -5    8.96    0.56 
  -4   4  -5   11.96    1.12 
  -4   4  -5    8.61    0.77 
  -4   4  -5    9.65    0.66 
  -4   4  -5    9.31    0.63 
  -4   4  -5    9.57    0.81 
  -4   4  -5    8.97    0.51 
  -4   4  -5    8.60    0.47 
  -4   4  -5    8.38    0.72 
   5  -4   5    3.80    0.52 
   5  -4   5    3.24    0.36 
   5  -4   5    4.16    0.46 
  -5  -4  -5    3.64    0.18 
   5  -4   5    3.78    0.66 
  -5  -4  -5    3.58    0.42 
  -5  -4  -5    3.55    0.21 
  -5  -4  -5    3.69    0.21 
   5  -4   5    3.36    0.63 
  -5   4  -5    4.24    0.42 
  -5   4  -5    3.55    0.58 
  -5   4  -5    3.99    0.62 
  -5   4  -5    4.32    0.31 
  -5   4  -5    4.10    0.40 
  -5   4  -5    4.40    0.33 
  -5   4  -5    3.37    0.46 
  -5   4  -5    4.21    0.37 
  -5   4  -5    3.89    0.49 
   6  -4   5    6.25    0.68 
  -6  -4  -5    6.44    0.13 
   6  -4   5    6.26    0.39 
   6  -4   5    5.95    0.51 
   6  -4   5    6.93    0.69 
   6  -4   5    7.04    0.71 
  -6   4  -5    6.29    0.46 
  -6   4  -5    7.04    0.27 
  -6   4  -5    6.71    0.39 
  -6   4  -5    6.99    0.40 
  -6   4  -5    7.69    0.38 
  -6   4  -5    7.09    0.19 
  -6   4  -5    7.07    0.41 
   7  -4   5    0.52    0.32 
   7  -4   5    0.41    0.37 
   7  -4   5    1.08    0.33 
  -7  -4  -5    0.52    0.05 
   7  -4   5    0.68    0.16 
  -7   4  -5    0.48    0.14 
  -7   4  -5    0.44    0.15 
  -7   4  -5    1.12    0.24 
  -7   4  -5    0.49    0.22 
  -7   4  -5    0.83    0.17 
  -7   4  -5    0.79    0.19 
  -7   4  -5    0.46    0.14 
  -7   4  -5    0.74    0.18 
   9  -5  -5    6.63    0.47 
   9  -5  -5    6.38    0.43 
   9  -5  -5    4.93    0.62 
  -9  -5   5    5.97    0.08 
  -9   5   5    7.34    0.21 
  -9   5   5    7.25    0.34 
  -9   5   5    7.03    0.32 
   8  -5  -5    3.53    0.51 
   8  -5  -5    2.96    0.47 
   8  -5  -5    1.74    0.58 
  -8  -5   5    3.20    0.08 
  -8   5   5    3.12    0.32 
  -8   5   5    3.35    0.24 
  -8   5   5    3.51    0.31 
  -8   5   5    3.37    0.30 
  -8   5   5    2.87    0.32 
  -7  -5   5    0.97    0.17 
  -7  -5   5    1.07    0.12 
   7  -5  -5    1.52    0.64 
   7  -5  -5    1.11    0.34 
   7  -5  -5    1.56    0.45 
  -7  -5   5    1.52    0.19 
  -7   5   5    0.79    0.33 
  -7   5   5    1.18    0.23 
  -7   5   5    0.88    0.26 
  -7   5   5    1.05    0.35 
  -7   5   5    0.83    0.50 
   6  -5  -5    2.37    0.48 
  -6  -5   5    1.94    0.24 
   6  -5  -5    0.93    0.75 
  -6  -5   5    2.22    0.20 
  -6  -5   5    2.27    0.24 
   6  -5  -5    1.99    0.51 
  -6  -5   5    2.26    0.22 
   6  -5  -5    2.01    0.39 
   6  -5  -5    2.80    0.70 
  -6   5   5    2.45    0.34 
  -6   5   5    2.45    0.43 
  -6   5   5    2.16    0.51 
  -6   5   5    2.75    0.32 
  -6   5   5    4.93    1.02 
  -6   5   5    3.08    0.47 
  -5  -5   5   33.69    0.74 
   5  -5  -5   28.19    1.51 
   5  -5  -5   34.64    1.71 
  -5  -5   5   32.43    0.66 
  -5  -5   5   32.40    0.55 
   5  -5  -5   32.72    0.90 
   5  -5  -5   32.07    0.79 
   5  -5  -5   34.99    1.59 
  -5   5   5   40.64    1.21 
  -5   5   5   40.39    0.73 
  -5   5   5   42.01    1.10 
  -5   5   5   41.88    1.16 
  -5   5   5   40.56    1.03 
  -5   5   5   42.46    1.18 
  -4  -5   5   49.46    0.89 
   4  -5  -5   47.93    0.93 
   4  -5  -5   47.64    1.11 
  -4  -5   5   48.41    0.52 
   4  -5  -5   48.05    1.80 
  -4  -5   5   48.03    0.78 
   4  -5  -5   47.55    1.08 
  -4  -5   5   47.34    0.89 
   4  -5  -5   48.91    1.02 
  -4  -5   5   47.81    0.90 
  -4  -5   5   48.74    0.98 
   4  -5  -5   49.58    2.04 
   4  -5  -5   49.82    1.98 
  -4   5   5   59.24    1.47 
  -4   5   5   60.01    1.13 
  -4   5   5   60.50    0.99 
  -4   5   5   62.28    1.14 
  -4   5   5   60.78    1.45 
  -4   5   5   60.43    1.31 
  -4   5   5   59.37    1.42 
  -3  -5   5    3.42    0.22 
  -3  -5   5    3.74    0.35 
   3  -5  -5    3.02    0.36 
  -3  -5   5    3.44    0.21 
   3  -5  -5    3.53    0.43 
   3  -5  -5    2.96    0.38 
   3  -5  -5    3.45    0.41 
  -3  -5   5    3.63    0.32 
   3  -5  -5    3.73    0.92 
   3  -5  -5    3.30    0.49 
  -3  -5   5    2.92    0.30 
   3  -5  -5    2.63    0.35 
   3  -5  -5    2.80    0.30 
   3  -5  -5    3.24    0.28 
   3  -5  -5    3.51    0.89 
  -3  -5   5    2.94    0.35 
  -3  -5   5    2.54    0.36 
   3  -5  -5    3.21    0.88 
  -3  -5   5    3.22    0.34 
  -3  -5   5    3.38    0.26 
   3  -5  -5    2.29    0.39 
   3  -5  -5    3.06    0.34 
  -3  -5   5    2.95    0.26 
  -3   5   5    3.65    0.33 
  -3   5   5    3.63    0.32 
  -3   5   5    3.11    0.45 
   3   5  -5    3.94    0.28 
  -3   5   5    4.25    0.46 
  -3   5   5    3.95    0.58 
   3   5  -5    3.76    0.30 
  -3   5   5    3.51    0.36 
  -2  -5   5   12.66    0.67 
   2  -5  -5   14.17    0.58 
  -2  -5   5   14.45    0.68 
  -2  -5   5   14.92    0.55 
   2  -5  -5   14.69    1.20 
   2  -5  -5   14.90    1.24 
   2  -5  -5   16.02    0.62 
   2   5  -5   16.29    0.51 
  -2   5   5   16.27    0.70 
   2   5  -5   16.27    0.50 
  -2   5   5   16.98    0.58 
  -2   5   5   16.82    0.58 
   1  -5  -5    0.21    0.20 
   1  -5  -5   -0.69    0.56 
  -1  -5   5    0.11    0.18 
  -1  -5   5    0.07    0.29 
  -1  -5   5   -0.10    0.20 
  -1  -5   5    0.15    0.28 
   1  -5  -5    0.48    0.52 
   1   5  -5    0.49    0.19 
  -1   5   5    0.24    0.23 
  -1   5   5    0.58    0.24 
   1   5  -5    0.50    0.19 
   1   5  -5    0.88    0.42 
   0  -5   5   40.64    0.78 
   0  -5   5   40.08    0.73 
   0  -5  -5   40.34    0.70 
   0  -5   5   42.44    1.24 
   0  -5   5   39.76    1.12 
   0  -5  -5   40.93    0.88 
   0  -5   5   39.91    1.14 
   0  -5   5   38.99    0.95 
   0  -5   5   40.12    0.98 
   0  -5  -5   40.11    0.85 
   0  -5  -5   40.83    0.91 
   0  -5   5   41.88    0.97 
   0  -5  -5   37.76    0.86 
   0  -5   5   41.11    1.22 
   0  -5  -5   38.86    0.86 
   0  -5  -5   40.38    0.81 
   0  -5  -5   40.14    0.62 
   0  -5   5   40.02    1.04 
   0  -5  -5   40.67    0.83 
   0  -5   5   41.19    0.95 
   0  -5  -5   40.46    0.71 
   0   5   5   51.37    1.06 
   0   5  -5   47.35    1.50 
   0   5  -5   49.61    0.87 
   0   5  -5   50.29    0.96 
   0   5  -5   49.07    1.20 
   0   5   5   50.04    1.05 
   0   5  -5   52.38    1.39 
   0   5  -5   50.33    0.96 
  -1  -5  -5   30.38    0.69 
  -1  -5  -5   31.03    0.42 
  -1  -5  -5   30.69    0.46 
   1  -5   5   30.58    0.99 
  -1  -5  -5   30.82    0.68 
   1  -5   5   29.69    0.84 
  -1  -5  -5   30.87    0.39 
  -1  -5  -5   29.91    0.61 
   1  -5   5   33.02    1.15 
  -1  -5  -5   31.61    0.72 
  -1  -5  -5   31.92    0.74 
   1  -5   5   30.88    0.89 
   1  -5   5   31.69    0.79 
   1  -5   5   30.51    1.02 
   1  -5   5   31.66    1.11 
   1  -5   5   27.52    1.10 
  -1  -5  -5   31.43    0.75 
  -1   5  -5   38.21    1.01 
  -1   5  -5   38.22    1.27 
  -1   5  -5   38.42    0.73 
  -1   5  -5   37.81    0.78 
  -1   5  -5   38.90    0.81 
  -1   5  -5   36.27    1.11 
  -1   5  -5   40.17    1.34 
   2  -5   5   47.72    1.06 
  -2  -5  -5   45.82    0.83 
   2  -5   5   44.23    1.05 
   2  -5   5   46.68    1.37 
   2  -5   5   45.46    1.88 
   2  -5   5   46.10    1.24 
  -2  -5  -5   45.50    0.91 
   2  -5   5   43.50    2.33 
  -2  -5  -5   46.62    0.85 
  -2  -5  -5   46.08    0.74 
   2  -5   5   46.95    1.20 
   2  -5   5   45.71    1.39 
  -2   5  -5   56.06    0.85 
  -2   5  -5   56.64    1.49 
  -2   5  -5   55.58    1.39 
  -2   5  -5   55.75    1.21 
  -2   5  -5   54.11    1.50 
  -2   5  -5   55.63    1.38 
   3  -5   5    6.39    0.73 
  -3  -5  -5    6.86    0.36 
   3  -5   5    6.96    0.66 
  -3  -5  -5    7.32    0.28 
  -3  -5  -5    6.85    0.32 
   3  -5   5    8.17    0.98 
   3  -5   5    4.98    0.80 
   3  -5   5    6.68    0.73 
  -3  -5  -5    6.38    0.31 
   3  -5   5    6.34    0.55 
   3  -5   5    6.44    0.68 
  -3   5  -5    8.67    0.55 
  -3   5  -5    7.64    0.55 
  -3   5  -5    7.63    0.55 
  -3   5  -5    8.81    0.49 
  -3   5  -5    8.02    0.39 
  -3   5  -5    8.09    0.58 
  -3   5  -5    6.39    1.12 
   4  -5   5   12.61    1.10 
   4  -5   5   11.67    0.72 
  -4  -5  -5   11.64    0.34 
   4  -5   5   11.02    0.73 
  -4  -5  -5   11.35    0.26 
  -4  -5  -5   12.11    0.34 
   4  -5   5   11.28    0.67 
   4  -5   5    9.42    1.02 
  -4   5  -5   12.75    0.57 
  -4   5  -5   13.18    0.64 
  -4   5  -5   12.23    0.46 
  -4   5  -5   12.20    0.63 
  -4   5  -5   11.68    0.78 
  -4   5  -5   12.53    0.70 
  -4   5  -5   12.13    1.02 
   5  -5   5    3.11    0.49 
   5  -5   5    2.36    0.68 
  -5  -5  -5    3.29    0.10 
   5  -5   5    3.22    0.56 
   5  -5   5    4.19    0.56 
  -5  -5  -5    2.97    0.17 
   5  -5   5    2.89    0.66 
  -5   5  -5    3.73    0.39 
  -5   5  -5    3.80    0.27 
  -5   5  -5    3.20    0.29 
  -5   5  -5    2.97    0.32 
  -5   5  -5    3.48    0.26 
  -5   5  -5    4.09    0.29 
   6  -5   5    7.11    0.44 
  -6  -5  -5    7.16    0.10 
   6  -5   5    7.43    0.62 
   6  -5   5    6.04    0.81 
   6  -5   5    7.71    0.48 
   6  -5   5    7.32    0.45 
  -6   5  -5    9.03    0.33 
  -6   5  -5    9.66    0.25 
  -6   5  -5    9.41    0.36 
  -7  -6   5   13.81    0.25 
   7  -6  -5   13.66    0.35 
   7  -6  -5   13.66    0.48 
  -7   6   5   17.86    0.56 
  -6  -6   5    4.76    0.23 
   6  -6  -5    4.73    0.40 
   6  -6  -5    4.54    0.37 
   6  -6  -5    3.95    0.35 
  -6  -6   5    4.44    0.15 
   6  -6  -5    4.52    0.27 
   6  -6  -5    4.18    0.25 
  -6   6   5    4.89    0.49 
  -6   6   5    4.95    0.77 
  -6   6   5    5.38    0.42 
  -6   6   5    6.20    0.87 
   5  -6  -5    1.89    0.21 
   5  -6  -5    2.33    0.37 
  -5  -6   5    2.25    0.22 
  -5  -6   5    2.45    0.19 
   5  -6  -5    2.17    0.25 
   5  -6  -5    1.93    0.36 
  -5  -6   5    2.22    0.21 
   5  -6  -5    1.80    0.36 
  -5   6   5    2.27    0.50 
  -5   6   5    3.31    0.50 
  -5   6   5    2.10    0.56 
  -5   6   5    2.79    0.20 
   4  -6  -5    1.82    0.37 
   4  -6  -5    1.49    0.18 
   4  -6  -5    1.54    0.23 
  -4  -6   5    1.90    0.27 
   4  -6  -5    1.75    0.38 
   4  -6  -5    1.15    0.33 
  -4  -6   5    1.47    0.24 
   4  -6  -5    1.30    0.69 
  -4  -6   5    1.21    0.17 
  -4  -6   5    1.41    0.24 
   4  -6  -5    1.54    0.29 
   4  -6  -5    1.06    0.61 
   4  -6  -5    1.46    0.27 
  -4   6   5    1.92    0.26 
  -4   6   5    2.15    0.50 
  -4   6   5    2.49    0.49 
  -4   6   5    1.99    0.26 
  -4   6   5    1.44    0.25 
   3  -6  -5    9.03    0.47 
  -3  -6   5    8.13    0.39 
  -3  -6   5    8.77    0.38 
  -3  -6   5    8.55    0.38 
   3  -6  -5    8.67    0.44 
   3  -6  -5    9.08    0.34 
   3  -6  -5    8.65    0.29 
  -3  -6   5    7.97    0.47 
   3  -6  -5    7.44    0.82 
   3  -6  -5    8.88    0.40 
   3  -6  -5    8.43    0.38 
  -3  -6   5    8.55    0.14 
  -3  -6   5    8.24    0.37 
   3  -6  -5    9.56    0.50 
   3  -6  -5    8.66    0.99 
  -3  -6   5    8.96    0.33 
   3  -6  -5    8.23    0.51 
   3  -6  -5    8.65    0.49 
   3  -6  -5    8.15    0.46 
  -3   6   5   10.53    0.67 
  -3   6   5   11.60    0.45 
  -3   6   5   11.06    0.43 
  -3   6   5   10.41    0.65 
  -3   6   5   11.15    0.46 
   3   6  -5   10.16    0.38 
   3   6  -5   10.37    0.40 
  -2  -6   5    6.43    0.46 
   2  -6  -5    7.06    0.44 
   2  -6  -5    6.57    0.44 
  -2  -6   5    6.65    0.27 
   2  -6  -5    6.19    0.32 
   2  -6  -5    6.46    0.33 
  -2  -6   5    6.56    0.20 
   2  -6  -5    6.59    0.42 
  -2  -6   5    5.43    0.50 
   2  -6  -5    7.53    0.45 
   2  -6  -5    6.64    0.19 
   2  -6  -5    6.72    0.39 
  -2  -6   5    6.87    0.25 
   2  -6  -5    7.00    0.43 
   2  -6  -5    7.25    0.89 
  -2  -6   5    6.71    0.23 
   2  -6  -5    6.67    0.29 
   2  -6  -5    6.90    0.41 
  -2  -6   5    6.41    0.40 
  -2  -6   5    6.85    0.40 
  -2  -6   5    7.31    0.42 
  -2  -6   5    6.75    0.39 
  -2   6   5    7.33    0.39 
  -2   6   5    7.92    0.41 
   2   6  -5    7.89    0.38 
   2   6  -5    8.60    0.37 
   1  -6  -5    5.00    0.26 
   1  -6  -5    4.63    0.35 
  -1  -6   5    4.90    0.29 
  -1  -6   5    4.82    0.41 
   1  -6  -5    4.95    0.21 
  -1  -6   5    4.78    0.24 
  -1  -6   5    5.10    0.49 
   1  -6  -5    4.62    0.37 
  -1  -6   5    5.48    0.31 
  -1  -6   5    5.16    0.38 
  -1  -6   5    4.98    0.42 
   1  -6  -5    4.66    0.36 
  -1  -6   5    5.26    0.42 
   1  -6  -5    4.47    0.38 
   1  -6  -5    4.91    0.24 
   1  -6  -5    4.67    0.40 
   1  -6  -5    4.90    0.19 
   1  -6  -5    4.36    0.36 
   1  -6  -5    4.67    0.38 
  -1  -6   5    5.30    0.42 
  -1   6   5    6.07    0.39 
   1   6  -5    6.20    0.32 
  -1   6   5    6.30    0.37 
   1   6  -5    5.71    0.34 
   0  -6  -5    1.34    0.23 
   0  -6  -5    1.20    0.25 
   0  -6   5    0.71    0.37 
   0  -6   5    1.51    0.23 
   0  -6  -5    0.95    0.22 
   0  -6   5    1.18    0.27 
   0  -6   5    1.24    0.40 
   0  -6   5    0.27    0.24 
   0  -6   5    0.89    0.27 
   0  -6  -5    0.77    0.21 
   0  -6   5    1.31    0.21 
   0  -6   5    1.02    0.23 
   0  -6  -5    1.06    0.21 
   0  -6  -5    1.06    0.09 
   0  -6  -5    1.09    0.23 
   0  -6   5    1.80    0.37 
   0  -6   5    1.25    0.26 
   0  -6   5    0.58    0.28 
   0   6  -5    1.57    0.28 
   0   6  -5    1.13    0.37 
   0   6  -5    1.59    0.33 
   0   6   5    1.08    0.27 
   0   6  -5    1.78    0.24 
   0   6  -5    1.56    0.26 
   0   6   5    1.65    0.26 
   1  -6   5    1.66    0.28 
   1  -6   5    1.07    0.27 
  -1  -6  -5    1.75    0.23 
  -1  -6  -5    1.77    0.25 
  -1  -6  -5    2.17    0.23 
   1  -6   5    2.03    0.18 
   1  -6   5    2.22    0.49 
  -1  -6  -5    1.63    0.29 
   1  -6   5    2.18    0.54 
  -1  -6  -5    1.83    0.23 
   1  -6   5    2.17    0.24 
   1  -6   5    2.45    0.43 
   1  -6   5    1.75    0.43 
  -1   6  -5    2.38    0.45 
  -1   6  -5    2.41    0.25 
  -1   6  -5    2.74    0.26 
  -1   6  -5    1.97    0.56 
  -1   6  -5    2.46    0.23 
   2  -6   5    5.71    0.45 
   2  -6   5    6.16    0.30 
  -2  -6  -5    5.97    0.31 
   2  -6   5    6.46    0.46 
   2  -6   5    6.09    0.49 
   2  -6   5    5.63    0.27 
  -2  -6  -5    6.12    0.25 
  -2  -6  -5    6.11    0.31 
  -2   6  -5    7.94    0.26 
  -2   6  -5    7.10    0.51 
  -2   6  -5    8.18    0.68 
  -2   6  -5    8.16    0.48 
   3  -6   5   13.04    0.53 
   3  -6   5   13.01    0.36 
  -3  -6  -5   14.13    0.36 
  -3  -6  -5   13.61    0.26 
   3  -6   5   14.25    0.53 
   3  -6   5   13.94    0.51 
   3  -6   5   13.37    0.37 
  -3   6  -5   17.67    0.97 
  -3   6  -5   17.18    0.61 
  -3   6  -5   15.13    0.60 
  -3   6  -5   15.01    1.32 
  -3   6  -5   19.94    0.60 
   4  -6   5   17.29    0.38 
  -4  -6  -5   17.31    0.32 
   4  -6   5   16.19    0.49 
  -4   6  -5   20.72    0.55 
  -4  -7   5    1.06    0.25 
   4  -7  -5    0.99    0.12 
   4  -7  -5    1.20    0.23 
   4  -7  -5    0.54    0.12 
   4  -7  -5    0.80    0.18 
   4  -7  -5    0.84    0.11 
   4  -7  -5    0.40    0.14 
  -4  -7   5    0.75    0.12 
  -4  -7   5    0.85    0.15 
   4  -7  -5    1.12    0.25 
   4  -7  -5    0.58    0.19 
  -4   7   5    1.01    0.29 
   3  -7  -5    4.58    0.14 
   3  -7  -5    4.62    0.15 
  -3  -7   5    4.49    0.19 
   3  -7  -5    5.16    0.29 
   3  -7  -5    4.97    0.30 
   3  -7  -5    4.62    0.13 
   3  -7  -5    4.70    0.28 
   3  -7  -5    4.32    0.39 
  -3  -7   5    4.32    0.24 
   3  -7  -5    4.59    0.33 
  -3  -7   5    4.10    0.32 
  -3   7   5    5.91    0.37 
  -3   7   5    5.59    0.23 
  -2  -7   5    6.03    0.39 
  -2  -7   5    5.38    0.32 
   2  -7  -5    6.33    0.28 
   2  -7  -5    5.64    0.29 
  -2  -7   5    5.89    0.26 
   2  -7  -5    5.43    0.30 
   2  -7  -5    5.21    0.34 
   2  -7  -5    6.00    0.29 
  -2  -7   5    5.62    0.24 
  -2   7   5    6.69    0.27 
   2   7  -5    6.78    0.26 
  -2   7   5    5.71    0.43 
   1  -7  -5    5.88    0.28 
   1  -7  -5    5.42    0.27 
   1  -7  -5    5.68    0.25 
   1  -7  -5    6.62    0.36 
  -1  -7   5    5.56    0.28 
  -1  -7   5    5.80    0.39 
  -1  -7   5    5.68    0.30 
   1  -7  -5    5.58    0.28 
  -1  -7   5    5.73    0.29 
   1   7  -5    6.53    0.39 
   1   7  -5    6.76    0.24 
  -1   7   5    7.40    0.31 
   0  -7   5   19.02    0.29 
   0  -7   5   19.11    0.46 
   0  -7   5   19.15    0.55 
   0  -7  -5   19.55    0.47 
   0  -7  -5   18.70    0.43 
   0  -7   5   18.97    0.26 
   0  -7  -5   19.24    0.44 
   0  -7   5   18.98    0.44 
   0  -7   5   18.54    0.26 
   0  -7  -5   18.92    0.36 
   0   7  -5   22.83    0.41 
   0   7  -5   23.30    0.60 
   1  -7   5    4.52    0.27 
   1  -7   5    3.97    0.35 
   1  -7   5    3.82    0.16 
   1  -7   5    4.09    0.15 
   1  -7   5    3.95    0.17 
  -1  -7  -5    3.95    0.26 
  -1  -7  -5    3.87    0.16 
  -1  -7  -5    4.09    0.21 
  -1   7  -5    4.12    0.27 
 -12   0   6    0.81    0.12 
 -12   0   6    1.20    0.16 
 -12   0   6    0.47    0.21 
 -11   0   6   26.45    0.66 
 -11   0   6   25.89    0.46 
 -11   0   6   26.24    0.55 
 -10   0   6    5.65    0.31 
 -10   0   6    5.83    0.41 
 -10   0   6    5.99    0.30 
 -10   0   6    5.92    0.27 
 -10   0   6    5.53    0.41 
  -9   0   6    5.94    0.19 
  -9   0   6    6.52    0.34 
  -9   0   6    6.19    0.31 
  -9   0   6    5.79    0.21 
  -9   0   6    5.75    0.43 
  -9   0   6    5.86    0.12 
  -9   0   6    5.94    0.34 
  -9   0   6    5.24    0.51 
  -9   0   6    5.86    0.22 
  -9   0   6    5.58    0.36 
  -8   0   6    4.16    0.43 
  -8   0   6    3.85    0.30 
  -7   0   6   10.99    0.47 
  -7   0   6   10.83    0.39 
  -7   0   6   10.56    0.50 
   7   0  -6   10.53    0.82 
   6   0  -6   53.83    1.61 
  -6   0   6   55.69    1.34 
   6   0  -6   54.87    1.53 
  -6   0   6   56.58    1.15 
  -6   0   6   55.12    1.14 
  -5   0   6    0.76    0.21 
  -5   0   6    1.29    0.28 
  -5   0   6    0.74    0.24 
   5   0  -6    1.11    0.36 
  -5   0   6    0.96    0.24 
   5   0  -6    0.92    0.36 
  -5   0   6    1.03    0.27 
  -5   0   6    1.00    0.22 
  -4   0   6   53.24    1.15 
   4   0  -6   51.76    1.51 
  -4   0   6   52.42    0.99 
   4   0  -6   52.99    1.44 
  -4   0   6   52.63    1.31 
  -4   0   6   54.26    1.15 
  -4   0   6   54.64    1.18 
  -4   0   6   51.30    1.36 
  -3   0   6   -0.07    0.23 
  -3   0   6   -0.06    0.23 
  -3   0   6    0.15    0.22 
   3   0  -6    0.98    0.35 
   3   0  -6    0.14    0.30 
  -3   0   6   -0.04    0.20 
  -3   0   6   -0.22    0.19 
   3   0  -6    0.47    0.63 
  -3   0   6   -0.13    0.20 
  -3   0   6    0.23    0.17 
  -2   0   6   35.28    1.01 
  -2   0   6   33.20    0.89 
  -2   0   6   32.53    0.71 
   2   0  -6   36.00    1.21 
   2   0  -6   31.08    1.12 
  -2   0   6   33.11    0.84 
  -2   0   6   33.78    1.03 
   2   0  -6   30.89    1.44 
  -2   0   6   33.13    0.90 
  -2   0   6   33.98    0.75 
   2   0  -6   34.53    1.68 
  -2   0   6   33.42    0.90 
   2   0  -6   36.69    1.14 
   2   0  -6   34.31    1.63 
   1   0  -6   42.32    1.33 
  -1   0   6   42.33    1.17 
   1   0  -6   44.93    1.80 
  -1   0   6   41.96    1.23 
  -1   0   6   41.52    1.04 
   1   0  -6   41.68    0.92 
   1   0  -6   42.55    1.71 
   1   0  -6   43.38    1.30 
  -1   0   6   42.52    0.84 
   1   0  -6   40.66    0.92 
   1   0  -6   39.96    1.17 
   1   0  -6   42.26    1.57 
  -1   0   6   41.86    0.93 
  -1   0   6   41.67    1.05 
   0   0  -6   10.15    0.86 
   0   0  -6   10.88    0.54 
   0   0   6    9.91    0.48 
   0   0  -6   10.02    0.41 
   0   0  -6   10.35    0.95 
   0   0  -6    9.43    0.67 
   0   0   6    9.23    0.40 
   0   0   6    9.86    0.44 
   0   0  -6   10.17    0.98 
   0   0   6    9.96    0.51 
   0   0  -6    9.60    0.39 
   1   0   6    0.43    0.19 
  -1   0  -6    0.55    0.44 
  -1   0  -6    0.49    0.15 
   1   0   6    0.44    0.22 
  -1   0  -6    0.47    0.16 
  -1   0  -6    0.25    0.46 
  -1   0  -6    0.48    0.33 
   1   0   6    0.66    0.21 
  -2   0  -6    1.15    0.41 
   2   0   6    1.23    0.30 
  -2   0  -6    1.08    0.17 
   2   0   6    1.47    0.38 
  -2   0  -6    1.37    0.20 
  -2   0  -6    0.51    0.42 
   3   0   6  188.24    3.21 
  -3   0  -6  184.03    2.58 
  -3   0  -6  166.26    2.76 
  -3   0  -6  189.67    3.16 
  -3   0  -6  180.06    3.14 
  -4   0  -6    6.20    0.37 
  -4   0  -6    6.43    0.51 
  -4   0  -6    5.57    0.31 
  -5   0  -6   82.48    1.38 
  -5   0  -6   82.57    1.14 
  -6   0  -6    0.43    0.15 
  -6   0  -6    0.28    0.15 
  -6   0  -6    0.13    0.26 
  -6   0  -6    0.28    0.14 
  -6   0  -6    0.34    0.15 
  -6   0  -6    0.17    0.06 
  -6   0  -6    0.19    0.13 
  -6   0  -6    0.06    0.15 
  -7   0  -6   55.23    0.98 
  -7   0  -6   57.04    1.34 
  -7   0  -6   56.59    0.81 
  -7   0  -6   56.61    0.91 
  -8   0  -6    4.99    0.19 
  -8   0  -6    4.95    0.22 
  -8   0  -6    4.64    0.44 
 -12  -1   6    9.12    0.35 
 -12  -1   6    8.54    0.22 
 -12   1   6    8.66    0.27 
 -12   1   6    8.52    0.25 
 -12   1   6    8.73    0.30 
 -12   1   6    9.03    0.37 
 -11  -1   6    9.39    0.43 
 -11  -1   6    9.39    0.23 
  11  -1  -6    9.30    0.44 
 -11  -1   6    9.24    0.30 
  11  -1  -6    9.04    0.43 
 -11   1   6    9.04    0.37 
 -11   1   6    9.02    0.33 
 -11   1   6    8.64    0.33 
 -11   1   6    9.05    0.31 
 -11   1   6    8.69    0.39 
 -11   1   6    9.48    0.31 
 -10  -1   6    1.52    0.32 
  10  -1  -6    0.94    0.24 
 -10  -1   6    0.90    0.22 
 -10  -1   6    1.21    0.18 
  10  -1  -6    1.20    0.25 
 -10  -1   6    1.28    0.26 
 -10  -1   6    1.38    0.20 
 -10   1   6    0.92    0.19 
 -10   1   6    0.98    0.12 
 -10   1   6    1.05    0.11 
 -10   1   6    1.61    0.31 
 -10   1   6    1.13    0.23 
 -10   1   6    1.38    0.32 
 -10   1   6    1.01    0.11 
 -10   1   6    1.56    0.22 
 -10   1   6    1.24    0.27 
   9  -1  -6    4.04    0.42 
  -9  -1   6    3.58    0.37 
  -9  -1   6    3.59    0.39 
   9  -1  -6    3.44    0.33 
  -9  -1   6    3.83    0.28 
  -9  -1   6    3.62    0.25 
  -9   1   6    3.90    0.31 
  -9   1   6    4.12    0.25 
  -9   1   6    3.76    0.47 
  -9   1   6    4.26    0.44 
  -9   1   6    4.22    0.35 
  -9   1   6    4.10    0.31 
  -9   1   6    3.79    0.35 
  -9   1   6    4.51    0.27 
  -9   1   6    3.56    0.41 
   8  -1  -6   18.64    0.55 
  -8  -1   6   19.01    0.68 
   8  -1  -6   19.35    0.61 
  -8   1   6   19.39    0.71 
  -8   1   6   19.52    0.65 
  -7  -1   6   23.49    0.47 
  -7  -1   6   24.13    0.70 
   7  -1  -6   22.45    1.16 
  -7  -1   6   22.70    0.56 
   7  -1  -6   23.56    0.60 
  -7   1   6   24.51    0.76 
   7   1  -6   23.68    0.79 
  -7   1   6   23.77    0.62 
  -7   1   6   23.93    0.74 
  -7   1   6   23.77    0.87 
  -6  -1   6    0.07    0.15 
  -6  -1   6    0.27    0.19 
   6  -1  -6    0.28    0.44 
   6  -1  -6    0.12    0.28 
   6  -1  -6    0.36    0.37 
   6   1  -6    0.12    0.22 
  -6   1   6    0.47    0.24 
  -6   1   6    0.44    0.24 
   6   1  -6    0.13    0.28 
  -6   1   6    1.02    0.28 
  -6   1   6    0.39    0.20 
   6   1  -6    0.08    0.32 
  -6   1   6    0.15    0.18 
   5  -1  -6  146.54    2.79 
  -5  -1   6  145.76    2.25 
  -5  -1   6  146.59    2.34 
  -5  -1   6  143.76    2.67 
   5  -1  -6  152.50    3.10 
   5  -1  -6  147.80    2.77 
  -5   1   6  156.37    2.61 
  -5   1   6  155.71    2.36 
   5   1  -6  155.45    2.18 
  -5   1   6  154.55    2.65 
  -5   1   6  157.64    2.94 
   5   1  -6  151.54    2.83 
  -5   1   6  153.14    2.38 
  -5   1   6  152.59    2.74 
   5   1  -6  154.88    3.03 
  -4  -1   6    7.03    0.39 
  -4  -1   6    6.57    0.34 
  -4  -1   6    7.75    0.42 
  -4  -1   6    7.37    0.49 
  -4  -1   6    7.22    0.33 
  -4  -1   6    6.37    0.41 
  -4  -1   6    6.83    0.36 
   4  -1  -6    7.70    0.60 
   4  -1  -6    7.86    0.77 
   4  -1  -6    5.64    0.59 
   4   1  -6    7.32    0.64 
  -4   1   6    7.34    0.45 
  -4   1   6    6.04    0.48 
  -4   1   6    6.80    0.49 
  -4   1   6    6.97    0.35 
  -4   1   6    6.64    0.35 
  -4   1   6    7.34    0.51 
  -4   1   6    7.13    0.41 
   4   1  -6    5.62    0.54 
  -3  -1   6    1.57    0.31 
  -3  -1   6    1.61    0.32 
   3  -1  -6    2.22    0.77 
  -3  -1   6    1.95    0.27 
   3  -1  -6    0.99    0.61 
  -3  -1   6    1.56    0.30 
  -3  -1   6    1.47    0.29 
  -3  -1   6    1.74    0.33 
  -3  -1   6    1.98    0.29 
   3  -1  -6    1.99    0.71 
   3  -1  -6    2.25    0.45 
   3  -1  -6    2.39    0.41 
  -3   1   6    1.64    0.33 
  -3   1   6    1.78    0.38 
   3   1  -6    1.25    0.35 
   3   1  -6    1.74    0.39 
  -3   1   6    1.59    0.32 
  -3   1   6    1.54    0.36 
  -3   1   6    1.18    0.28 
   3   1  -6    2.02    0.52 
  -3   1   6    1.36    0.28 
  -3   1   6    1.71    0.26 
  -3   1   6    1.63    0.25 
   2  -1  -6  199.14    4.56 
   2  -1  -6  202.99    4.55 
  -2  -1   6  199.20    3.29 
   2  -1  -6  206.10    3.14 
   2  -1  -6  197.38    3.20 
   2  -1  -6  198.30    4.24 
   2  -1  -6  205.62    3.69 
  -2  -1   6  203.56    3.39 
  -2  -1   6  205.89    2.82 
  -2  -1   6  202.03    3.23 
  -2  -1   6  202.68    3.53 
  -2  -1   6  202.16    3.60 
  -2  -1   6  202.42    2.95 
   2   1  -6  204.51    4.54 
  -2   1   6  206.92    3.01 
  -2   1   6  203.22    3.47 
  -2   1   6  207.61    3.65 
   2   1  -6  206.29    3.60 
  -2   1   6  206.97    2.88 
  -2   1   6  207.23    3.29 
   2   1  -6  205.67    3.36 
  -2   1   6  206.89    3.02 
   2   1  -6  202.98    3.41 
   2   1  -6  206.91    3.67 
  -2   1   6  202.65    3.65 
  -1  -1   6   96.11    1.86 
   1  -1  -6   96.89    2.89 
  -1  -1   6   99.93    1.74 
   1  -1  -6   98.47    1.68 
  -1  -1   6   95.64    2.05 
   1  -1  -6   96.22    1.86 
  -1  -1   6   94.18    1.53 
   1  -1  -6   95.23    1.66 
   1  -1  -6  100.53    2.80 
  -1  -1   6   94.40    1.87 
   1  -1  -6   95.44    2.47 
  -1  -1   6   95.62    1.87 
  -1  -1   6   99.14    1.64 
  -1  -1   6   91.85    2.04 
   1   1  -6  103.51    2.73 
   1   1  -6  103.36    2.09 
   1   1  -6   98.40    1.99 
   1   1  -6   99.03    2.86 
  -1   1   6   99.59    1.87 
   1   1  -6  101.64    2.64 
  -1   1   6  102.48    1.61 
   1   1  -6  100.94    2.13 
  -1   1   6  101.00    1.74 
  -1   1   6   98.92    1.67 
   1   1  -6  102.45    2.29 
   0  -1  -6  133.31    3.22 
   0  -1   6  137.22    2.06 
   0  -1  -6  140.75    2.22 
   0  -1   6  131.16    2.38 
   0  -1   6  134.66    2.66 
   0  -1  -6  132.71    2.45 
   0  -1   6  131.74    2.49 
   0  -1   6  134.16    2.23 
   0  -1  -6  133.72    3.00 
   0  -1  -6  128.13    3.35 
   0  -1  -6  138.18    2.14 
   0  -1   6  133.36    2.14 
   0   1   6  140.10    2.13 
   0   1   6  141.02    2.23 
   0   1  -6  136.42    2.35 
   0   1  -6  140.04    2.88 
   0   1  -6  143.97    3.52 
   0   1  -6  138.47    2.32 
   0   1   6  143.73    2.43 
   0   1  -6  139.17    2.38 
   0   1  -6  138.88    3.15 
   0   1  -6  137.45    3.33 
   0   1  -6  138.61    2.55 
  -1  -1  -6   19.63    0.94 
   1  -1   6   21.12    0.81 
   1  -1   6   21.47    0.68 
  -1  -1  -6   21.32    0.52 
  -1  -1  -6   21.43    1.08 
  -1  -1  -6   21.94    0.54 
   1  -1   6   21.57    0.64 
   1  -1   6   22.11    0.77 
  -1   1  -6   22.38    0.71 
  -1   1  -6   24.05    1.10 
   1   1   6   22.30    0.70 
  -1   1  -6   23.69    0.68 
   1   1   6   23.27    0.80 
  -1   1  -6   21.80    1.22 
  -1   1  -6   23.23    0.65 
  -1   1  -6   22.45    0.89 
   2  -1   6   38.69    0.92 
   2  -1   6   36.42    1.11 
  -2  -1  -6   38.72    1.31 
   2  -1   6   38.35    1.09 
   2   1   6   39.18    0.99 
   2   1   6   38.22    1.07 
  -2   1  -6   38.65    1.51 
  -2   1  -6   37.15    1.30 
  -2   1  -6   37.04    1.29 
   2   1   6   39.17    0.81 
  -2   1  -6   38.88    0.90 
  -2   1  -6   36.18    1.06 
  -2   1  -6   38.86    1.26 
  -2   1  -6   38.10    0.87 
  -3  -1  -6   78.74    1.20 
  -3  -1  -6   78.30    1.28 
  -3  -1  -6   78.34    1.59 
   3  -1   6   80.32    1.52 
   3  -1   6   77.85    1.83 
  -3   1  -6   83.58    1.49 
   3   1   6   80.51    1.69 
  -3   1  -6   81.63    2.25 
  -3   1  -6   79.18    1.85 
  -3   1  -6   80.57    1.85 
  -3   1  -6   80.63    1.91 
  -3   1  -6   80.51    1.35 
   3   1   6   82.15    1.63 
  -3   1  -6   79.51    1.42 
   3   1   6   81.95    1.33 
   4  -1   6   12.75    0.67 
   4  -1   6   13.78    0.72 
  -4  -1  -6   13.78    0.43 
  -4  -1  -6   13.53    0.37 
  -4   1  -6   14.31    0.85 
  -4   1  -6   14.54    0.47 
  -4   1  -6   13.74    0.75 
   4   1   6   14.53    0.57 
   5  -1   6    9.72    0.62 
  -5  -1  -6   10.16    0.38 
   5  -1   6   10.01    0.64 
  -5   1  -6    9.90    0.47 
  -5   1  -6   10.09    0.40 
  -5   1  -6   10.09    0.57 
   6  -1   6    5.01    0.55 
  -6  -1  -6    4.60    0.24 
  -6  -1  -6    4.87    0.51 
  -6  -1  -6    3.87    0.27 
   6  -1   6    5.53    0.58 
  -6  -1  -6    4.93    0.28 
  -6   1  -6    4.10    0.32 
  -6   1  -6    4.23    0.30 
  -6   1  -6    4.76    0.32 
  -6   1  -6    5.00    0.21 
  -6   1  -6    4.55    0.30 
  -6   1  -6    4.69    0.29 
  -6   1  -6    4.62    0.50 
  -6   1  -6    4.36    0.33 
  -6   1  -6    4.65    0.31 
  -6   1  -6    4.63    0.20 
  -6   1  -6    4.49    0.23 
  -6   1  -6    4.93    0.28 
  -6   1  -6    4.46    0.27 
  -7  -1  -6   18.08    0.36 
  -7  -1  -6   18.22    0.42 
   7  -1   6   17.54    0.71 
  -7  -1  -6   17.96    0.41 
  -7  -1  -6   18.96    0.77 
  -7  -1  -6   17.54    0.44 
   7  -1   6   17.78    0.69 
  -7   1  -6   18.55    0.44 
  -7   1  -6   17.75    0.46 
  -7   1  -6   18.21    0.47 
  -7   1  -6   18.24    0.71 
  -7   1  -6   18.16    0.49 
  -7   1  -6   17.54    0.49 
  -7   1  -6   18.45    0.43 
  -7   1  -6   17.97    0.47 
  -8  -1  -6   12.16    0.21 
  -8  -1  -6   12.09    0.53 
  -8  -1  -6   12.07    0.29 
  -8   1  -6   13.04    0.31 
  -8   1  -6   13.24    0.53 
  -8   1  -6   13.29    0.35 
 -12  -2   6    9.85    0.12 
 -12   2   6   10.27    0.27 
  11  -2  -6    4.99    0.36 
 -11  -2   6    4.98    0.17 
 -11  -2   6    4.99    0.32 
 -11   2   6    5.42    0.28 
 -11   2   6    5.64    0.28 
 -11   2   6    5.59    0.28 
 -11   2   6    5.83    0.36 
  10  -2  -6    9.35    0.49 
 -10  -2   6    9.25    0.22 
 -10  -2   6    9.55    0.30 
 -10  -2   6    8.98    0.25 
  10  -2  -6    9.51    0.46 
 -10   2   6    9.91    0.40 
 -10   2   6   10.15    0.29 
 -10   2   6   10.17    0.42 
 -10   2   6   10.60    0.50 
 -10   2   6   10.15    0.46 
 -10   2   6   10.06    0.29 
 -10   2   6    9.58    0.36 
 -10   2   6    9.88    0.45 
  -9  -2   6    3.75    0.25 
   9  -2  -6    3.90    0.42 
  -9  -2   6    3.06    0.34 
  -9  -2   6    3.66    0.22 
  -9  -2   6    3.67    0.21 
   9  -2  -6    3.93    0.34 
  -9   2   6    3.70    0.40 
  -9   2   6    3.91    0.37 
  -9   2   6    3.45    0.37 
  -9   2   6    3.66    0.36 
  -9   2   6    4.17    0.25 
  -9   2   6    3.33    0.37 
  -9   2   6    3.43    0.27 
  -9   2   6    4.01    0.34 
  -9   2   6    3.43    0.38 
  -9   2   6    3.48    0.43 
  -8  -2   6   26.88    0.80 
   8  -2  -6   26.70    0.70 
   8  -2  -6   26.79    1.34 
  -8  -2   6   26.25    0.61 
   8  -2  -6   26.54    0.75 
  -8  -2   6   26.73    0.48 
  -8   2   6   23.84    0.65 
  -8   2   6   26.64    0.85 
  -8   2   6   27.42    0.82 
   7  -2  -6   83.71    2.21 
  -7  -2   6   89.36    1.40 
  -7  -2   6   85.25    1.58 
   7  -2  -6   84.65    1.52 
   7  -2  -6   84.90    1.46 
  -7   2   6   87.42    1.76 
  -7   2   6   87.63    1.77 
   7   2  -6   86.30    1.55 
  -7   2   6   90.13    1.69 
  -7   2   6   90.14    1.74 
  -7   2   6   93.29    1.84 
  -6  -2   6    4.70    0.27 
  -6  -2   6    4.74    0.28 
   6  -2  -6    5.08    0.68 
   6  -2  -6    3.90    0.29 
   6  -2  -6    2.78    0.74 
   6  -2  -6    6.13    0.81 
  -6  -2   6    5.68    0.38 
  -6   2   6    4.93    0.40 
  -6   2   6    4.66    0.44 
  -6   2   6    5.24    0.41 
  -6   2   6    4.80    0.41 
  -6   2   6    4.94    0.36 
  -6   2   6    4.92    0.46 
   6   2  -6    5.01    0.41 
  -6   2   6    4.45    0.52 
   5  -2  -6   46.98    1.70 
   5  -2  -6   48.47    1.50 
  -5  -2   6   46.89    0.97 
   5  -2  -6   48.99    1.62 
   5  -2  -6   47.49    1.50 
  -5  -2   6   46.17    0.76 
  -5  -2   6   45.25    0.96 
  -5   2   6   49.55    1.11 
  -5   2   6   50.91    1.29 
  -5   2   6   50.60    0.99 
  -5   2   6   51.20    1.43 
   5   2  -6   49.92    1.06 
  -5   2   6   50.16    1.10 
   5   2  -6   48.65    1.39 
   5   2  -6   51.18    1.57 
  -5   2   6   51.37    1.27 
  -5   2   6   53.06    1.24 
   4  -2  -6    5.00    0.64 
  -4  -2   6    2.92    0.20 
  -4  -2   6    4.09    0.31 
  -4  -2   6    3.74    0.26 
   4  -2  -6    3.87    0.52 
   4  -2  -6    3.79    0.68 
  -4  -2   6    3.27    0.36 
   4  -2  -6    3.99    0.83 
   4  -2  -6    4.68    0.86 
  -4   2   6    3.31    0.40 
   4   2  -6    4.46    0.58 
   4   2  -6    4.20    0.52 
   4   2  -6    4.03    0.36 
  -4   2   6    4.27    0.34 
  -4   2   6    3.75    0.46 
  -4   2   6    3.56    0.42 
  -4   2   6    3.65    0.38 
  -4   2   6    4.15    0.34 
  -3  -2   6   26.45    0.74 
  -3  -2   6   28.15    0.72 
  -3  -2   6   26.88    0.88 
   3  -2  -6   28.96    1.66 
   3  -2  -6   28.04    0.76 
  -3  -2   6   26.53    0.67 
  -3  -2   6   26.77    0.74 
   3  -2  -6   27.51    0.76 
  -3  -2   6   26.69    0.66 
   3  -2  -6   26.54    1.44 
   3   2  -6   29.38    1.16 
  -3   2   6   27.66    0.83 
  -3   2   6   27.15    0.87 
  -3   2   6   27.03    0.89 
  -3   2   6   28.08    0.68 
   3   2  -6   27.44    1.01 
  -3   2   6   27.79    0.75 
  -2  -2   6    1.86    0.34 
  -2  -2   6    2.22    0.38 
   2  -2  -6    2.02    0.71 
  -2  -2   6    1.67    0.25 
   2  -2  -6    2.17    0.26 
  -2  -2   6    2.12    0.26 
   2  -2  -6    2.00    0.76 
  -2  -2   6    2.65    0.36 
  -2  -2   6    2.65    0.27 
   2  -2  -6    1.99    0.27 
  -2   2   6    2.86    0.39 
  -2   2   6    2.13    0.36 
  -2   2   6    2.30    0.30 
  -2   2   6    2.14    0.29 
   2   2  -6    2.41    0.49 
   2   2  -6    1.63    0.42 
   2   2  -6    2.00    0.41 
   1  -2  -6   22.18    1.29 
   1  -2  -6   20.76    1.13 
   1  -2  -6   21.42    0.58 
  -1  -2   6   21.07    0.57 
  -1  -2   6   20.70    0.73 
  -1  -2   6   21.20    0.76 
  -1  -2   6   20.11    0.61 
  -1  -2   6   21.24    0.69 
  -1  -2   6   22.34    0.87 
   1  -2  -6   20.63    0.58 
  -1  -2   6   21.33    0.58 
   1   2  -6   22.79    0.90 
   1   2  -6   22.67    1.04 
   1   2  -6   22.58    0.96 
  -1   2   6   22.78    0.64 
  -1   2   6   22.87    0.73 
  -1   2   6   24.52    0.83 
   1   2  -6   23.74    0.98 
   0  -2   6   82.86    1.78 
   0  -2  -6   84.46    2.48 
   0  -2   6   84.35    1.45 
   0  -2   6   84.79    1.98 
   0  -2  -6   84.30    1.39 
   0  -2  -6   85.67    1.46 
   0  -2   6   85.02    1.55 
   0  -2   6   82.45    1.77 
   0  -2   6   82.98    1.80 
   0  -2  -6   83.67    2.13 
   0   2  -6   95.26    2.71 
   0   2   6   93.09    1.83 
   0   2   6   90.37    1.67 
   0   2  -6   94.48    2.23 
   0   2  -6   89.16    2.38 
   0   2  -6   89.83    2.02 
   0   2  -6   90.04    1.99 
   0   2  -6   91.93    1.82 
   1  -2   6   11.98    0.60 
   1  -2   6   13.36    0.66 
   1  -2   6   13.39    0.52 
   1  -2   6   13.30    0.65 
   1  -2   6   13.53    0.69 
  -1  -2  -6   13.20    0.81 
   1  -2   6   13.23    0.57 
  -1  -2  -6   13.53    0.85 
   1   2   6   13.95    0.47 
  -1   2  -6   16.02    1.10 
   1   2   6   14.14    0.57 
  -1   2  -6   14.06    0.58 
  -1   2  -6   14.52    0.57 
   1   2   6   13.58    0.61 
  -1   2  -6   15.00    0.66 
  -1   2  -6   14.54    0.98 
  -1   2  -6   13.94    0.78 
  -1   2  -6   13.41    0.76 
   2  -2   6    1.65    0.33 
   2  -2   6    1.87    0.33 
  -2  -2  -6    1.80    0.19 
   2  -2   6    1.88    0.44 
   2  -2   6    1.49    0.38 
   2  -2   6    1.46    0.39 
  -2  -2  -6    1.79    0.30 
  -2  -2  -6    1.85    0.52 
   2  -2   6    1.78    0.39 
  -2   2  -6    2.37    0.53 
   2   2   6    2.27    0.33 
  -2   2  -6    2.40    0.60 
   2   2   6    1.85    0.27 
  -2   2  -6    1.85    0.48 
  -2   2  -6    2.02    0.49 
  -2   2  -6    2.32    0.32 
  -2   2  -6    1.48    0.52 
  -2   2  -6    1.72    0.50 
   2   2   6    2.25    0.37 
  -2   2  -6    1.96    0.30 
  -3  -2  -6   11.16    0.36 
   3  -2   6   10.65    0.61 
  -3  -2  -6   10.81    0.37 
   3  -2   6   10.00    0.62 
   3  -2   6   11.52    0.56 
   3  -2   6   10.84    0.66 
   3  -2   6   10.66    0.63 
  -3   2  -6   10.64    0.48 
  -3   2  -6   11.32    0.73 
   3   2   6   10.73    0.43 
  -3   2  -6   12.01    0.50 
  -3   2  -6   11.27    0.82 
  -3   2  -6   11.23    0.64 
  -3   2  -6   10.88    0.79 
   4  -2   6   11.26    0.59 
  -4  -2  -6   11.15    0.39 
   4  -2   6   11.24    0.67 
   4  -2   6   11.04    0.65 
  -4   2  -6   12.32    0.84 
  -4   2  -6   10.23    0.43 
  -4   2  -6   11.09    0.79 
  -5  -2  -6   47.91    0.81 
   5  -2   6   47.58    1.27 
  -5  -2  -6   47.18    1.29 
  -5  -2  -6   47.34    0.78 
   5  -2   6   47.62    1.26 
  -5  -2  -6   47.53    0.86 
  -5  -2  -6   47.62    0.73 
   5  -2   6   46.72    1.21 
   5  -2   6   47.54    1.27 
  -5   2  -6   51.47    1.33 
  -5   2  -6   49.96    0.74 
  -5   2  -6   49.51    1.02 
  -5   2  -6   50.30    0.97 
  -5   2  -6   50.82    1.04 
  -5   2  -6   49.67    0.82 
  -5   2  -6   49.84    0.98 
  -5   2  -6   48.73    1.03 
  -5   2  -6   50.32    0.92 
  -5   2  -6   50.58    1.33 
  -5   2  -6   49.46    1.37 
  -5   2  -6   50.17    1.01 
  -5   2  -6   49.28    0.77 
  -6  -2  -6    0.91    0.34 
  -6  -2  -6    0.60    0.13 
  -6  -2  -6    0.24    0.12 
  -6  -2  -6    0.48    0.12 
   6  -2   6    0.75    0.41 
  -6  -2  -6    0.55    0.15 
   6  -2   6    0.50    0.37 
  -6   2  -6    0.77    0.19 
  -6   2  -6    0.75    0.22 
  -6   2  -6    0.68    0.18 
  -6   2  -6    0.74    0.16 
  -6   2  -6    0.58    0.26 
  -6   2  -6    0.63    0.18 
  -6   2  -6    0.59    0.14 
  -6   2  -6    0.65    0.19 
  -6   2  -6    0.32    0.15 
  -6   2  -6    0.07    0.24 
  -6   2  -6    0.20    0.21 
   7  -2   6    0.05    0.30 
  -7  -2  -6    0.32    0.27 
  -7  -2  -6    0.18    0.10 
  -7  -2  -6    0.17    0.08 
   7  -2   6    0.50    0.31 
  -7   2  -6    0.43    0.23 
  -7   2  -6    0.05    0.06 
  -7   2  -6    0.29    0.07 
  -7   2  -6   -0.10    0.13 
  -7   2  -6    0.10    0.14 
  -7   2  -6    0.33    0.07 
  -7   2  -6    0.19    0.15 
  -7   2  -6    0.27    0.16 
  -8  -2  -6   25.05    0.69 
  -8   2  -6   25.06    0.68 
  -8   2  -6   25.78    0.52 
  -8   2  -6   26.20    0.48 
  11  -3  -6   22.20    0.45 
  11  -3  -6   21.66    0.66 
 -11  -3   6   22.03    0.21 
 -11   3   6   24.54    0.55 
 -11   3   6   24.87    0.46 
 -11   3   6   24.47    0.55 
 -11   3   6   24.67    0.26 
  10  -3  -6   22.47    0.65 
 -10  -3   6   21.84    0.25 
 -10  -3   6   21.74    0.38 
  10  -3  -6   21.76    0.53 
  10  -3  -6   20.05    0.80 
  10  -3  -6   23.39    0.69 
 -10   3   6   23.36    0.60 
 -10   3   6   22.67    0.65 
 -10   3   6   24.05    0.63 
 -10   3   6   22.66    0.59 
 -10   3   6   22.71    0.51 
 -10   3   6   23.31    0.45 
 -10   3   6   23.33    0.52 
  -9  -3   6    1.41    0.19 
  -9  -3   6    1.53    0.13 
   9  -3  -6    0.91    0.27 
   9  -3  -6    2.05    0.28 
   9  -3  -6    1.43    0.34 
   9  -3  -6    1.34    0.38 
   9  -3  -6    1.32    0.64 
  -9  -3   6    1.60    0.17 
  -9   3   6    1.75    0.27 
  -9   3   6    1.95    0.26 
  -9   3   6    2.02    0.38 
  -9   3   6    1.37    0.26 
  -9   3   6    2.20    0.32 
  -9   3   6    2.33    0.38 
  -9   3   6    1.70    0.34 
  -9   3   6    1.89    0.34 
  -9   3   6    1.36    0.11 
  -9   3   6    2.64    0.39 
  -9   3   6    1.48    0.31 
   8  -3  -6   59.80    1.21 
   8  -3  -6   59.30    0.97 
  -8  -3   6   57.98    0.93 
   8  -3  -6   59.12    2.06 
   8  -3  -6   59.48    1.15 
  -8  -3   6   57.20    0.78 
  -8  -3   6   58.28    0.77 
   8  -3  -6   56.27    1.91 
  -8  -3   6   59.22    1.01 
   8  -3  -6   58.59    1.44 
  -8   3   6   65.22    1.45 
  -8   3   6   64.52    1.25 
  -8   3   6   62.00    1.37 
  -8   3   6   60.21    1.28 
  -8   3   6   63.47    0.99 
  -8   3   6   62.45    1.09 
  -8   3   6   62.72    1.08 
  -8   3   6   61.61    1.27 
  -8   3   6   63.59    1.20 
  -8   3   6   63.05    1.29 
   7  -3  -6   13.79    1.11 
   7  -3  -6   13.12    0.55 
   7  -3  -6   13.56    1.16 
  -7  -3   6   13.05    0.44 
  -7  -3   6   13.95    0.37 
   7  -3  -6   13.42    0.54 
  -7  -3   6   12.84    0.57 
  -7   3   6   12.96    0.67 
  -7   3   6   14.76    0.72 
  -7   3   6   13.75    0.65 
  -7   3   6   13.58    0.57 
  -7   3   6   12.92    0.58 
  -6  -3   6    3.93    0.29 
  -6  -3   6    4.58    0.36 
   6  -3  -6    4.06    0.88 
   6  -3  -6    4.72    0.39 
   6  -3  -6    4.35    0.32 
   6  -3  -6    4.21    0.75 
  -6   3   6    4.64    0.48 
  -6   3   6    4.93    0.44 
  -6   3   6    4.46    0.47 
   6   3  -6    4.95    0.43 
  -6   3   6    4.83    0.50 
  -6   3   6    4.87    0.42 
  -6   3   6    4.84    0.50 
   5  -3  -6    8.28    0.85 
   5  -3  -6    5.91    0.96 
   5  -3  -6    6.62    0.81 
  -5  -3   6    6.97    0.43 
   5  -3  -6    7.56    0.94 
  -5  -3   6    7.01    0.30 
  -5  -3   6    6.31    0.34 
  -5   3   6    8.34    0.58 
  -5   3   6    7.15    0.66 
  -5   3   6    7.47    0.42 
  -5   3   6    7.96    0.54 
  -5   3   6    6.16    0.51 
   5   3  -6    6.68    0.43 
  -5   3   6    7.41    0.49 
   4  -3  -6   26.76    1.38 
   4  -3  -6   26.33    0.84 
  -4  -3   6   26.13    0.74 
   4  -3  -6   26.19    1.48 
   4  -3  -6   26.81    1.48 
  -4  -3   6   26.46    0.58 
  -4  -3   6   25.63    0.72 
  -4  -3   6   26.53    0.72 
  -4  -3   6   25.63    0.66 
   4  -3  -6   25.49    1.65 
  -4   3   6   30.58    0.87 
  -4   3   6   27.99    0.86 
  -4   3   6   27.96    1.03 
  -4   3   6   28.68    0.77 
   4   3  -6   28.38    1.07 
  -4   3   6   29.31    1.00 
   4   3  -6   27.59    1.14 
  -4   3   6   28.32    0.69 
  -3  -3   6   21.69    0.82 
  -3  -3   6   20.44    0.67 
  -3  -3   6   19.97    0.67 
  -3  -3   6   19.62    0.58 
   3  -3  -6   20.68    0.66 
  -3  -3   6   21.06    0.56 
   3  -3  -6   23.16    1.40 
   3  -3  -6   21.60    1.47 
   3  -3  -6   21.54    0.70 
   3  -3  -6   19.40    1.26 
   3  -3  -6   20.65    1.16 
   3  -3  -6   21.22    1.36 
  -3   3   6   23.73    0.86 
   3   3  -6   24.83    0.99 
   3   3  -6   23.13    1.05 
  -3   3   6   23.30    0.91 
  -3   3   6   23.68    0.70 
  -3   3   6   24.21    0.76 
  -3   3   6   23.14    0.83 
   2  -3  -6    0.91    0.60 
  -2  -3   6    0.53    0.21 
  -2  -3   6    1.04    0.26 
   2  -3  -6    0.79    0.57 
   2  -3  -6    1.14    0.69 
  -2  -3   6    0.49    0.27 
  -2  -3   6    0.74    0.24 
   2  -3  -6    0.57    0.18 
   2  -3  -6    0.67    0.69 
   2  -3  -6    0.61    0.19 
  -2  -3   6    0.88    0.29 
  -2  -3   6    0.95    0.32 
  -2  -3   6    0.74    0.23 
   2   3  -6    0.70    0.38 
  -2   3   6    0.74    0.24 
  -2   3   6    0.83    0.23 
   2   3  -6    0.44    0.31 
  -2   3   6    0.74    0.24 
   2   3  -6    1.18    0.39 
  -1  -3   6   18.40    0.73 
   1  -3  -6   18.55    0.53 
  -1  -3   6   18.16    0.71 
   1  -3  -6   18.86    0.53 
  -1  -3   6   18.09    0.68 
  -1  -3   6   18.18    0.63 
   1  -3  -6   20.63    1.35 
  -1  -3   6   18.83    0.90 
  -1  -3   6   19.34    0.74 
  -1  -3   6   19.83    0.68 
   1  -3  -6   18.37    1.15 
   1  -3  -6   18.53    1.17 
   1   3  -6   19.18    0.90 
   1   3  -6   19.53    0.93 
   1   3  -6   18.81    0.91 
  -1   3   6   19.53    0.81 
   1   3  -6   18.94    1.03 
   1   3  -6   17.81    0.99 
  -1   3   6   20.12    0.74 
   0  -3  -6   22.97    0.59 
   0  -3   6   22.33    1.02 
   0  -3  -6   23.40    1.18 
   0  -3   6   24.88    0.70 
   0  -3   6   23.67    0.82 
   0  -3  -6   22.39    0.53 
   0  -3   6   23.94    0.88 
   0  -3  -6   24.53    1.29 
   0  -3   6   24.94    0.88 
   0  -3   6   22.46    0.81 
   0  -3   6   23.74    0.74 
   0  -3   6   23.26    0.76 
   0  -3   6   24.58    0.80 
   0   3  -6   26.25    0.58 
   0   3   6   24.20    0.79 
   0   3  -6   23.38    1.12 
   0   3  -6   26.21    1.04 
   0   3  -6   28.14    1.16 
   0   3  -6   26.57    1.19 
   0   3  -6   25.50    0.91 
   0   3   6   26.73    0.93 
  -1  -3  -6    9.23    0.73 
   1  -3   6   10.28    0.65 
   1  -3   6   10.19    0.58 
   1  -3   6   10.63    0.56 
  -1  -3  -6   10.57    0.49 
   1  -3   6   10.32    0.77 
   1  -3   6   10.39    0.66 
   1  -3   6    9.77    0.69 
   1  -3   6   11.55    0.55 
  -1  -3  -6   10.38    0.40 
  -1   3  -6   12.28    0.80 
   1   3   6   10.54    0.45 
  -1   3  -6   11.23    0.66 
  -1   3  -6   11.48    0.74 
   1   3   6   10.62    0.60 
  -1   3  -6   10.92    0.84 
  -1   3  -6   12.29    0.97 
  -1   3  -6   12.22    1.14 
   2  -3   6   31.20    0.99 
   2  -3   6   30.93    0.91 
   2  -3   6   30.65    0.90 
   2  -3   6   29.71    0.87 
  -2  -3  -6   30.25    0.59 
  -2  -3  -6   30.98    0.68 
   2  -3   6   31.49    1.18 
  -2   3  -6   31.59    0.95 
  -2   3  -6   33.60    0.98 
  -2   3  -6   33.80    1.36 
  -2   3  -6   32.91    1.05 
  -2   3  -6   33.36    1.32 
  -2   3  -6   35.10    1.17 
   2   3   6   33.12    0.77 
  -2   3  -6   32.88    0.95 
   3  -3   6   37.17    1.07 
   3  -3   6   37.28    1.15 
   3  -3   6   37.18    1.00 
  -3  -3  -6   36.94    0.76 
   3  -3   6   36.85    1.04 
  -3   3  -6   43.84    1.45 
  -3   3  -6   42.26    0.99 
  -3   3  -6   43.20    1.51 
  -3   3  -6   41.93    1.24 
  -3   3  -6   44.53    1.54 
  -3   3  -6   43.78    1.11 
   4  -3   6   19.78    0.89 
  -4  -3  -6   19.39    0.80 
   4  -3   6   19.69    0.89 
  -4  -3  -6   19.46    0.48 
   4  -3   6   18.73    0.75 
  -4  -3  -6   18.57    0.43 
   4  -3   6   18.41    0.74 
  -4  -3  -6   19.36    0.50 
  -4  -3  -6   18.84    0.48 
   4  -3   6   18.95    0.99 
   4  -3   6   19.91    0.62 
   4  -3   6   18.96    0.81 
  -4   3  -6   20.97    0.69 
  -4   3  -6   20.43    0.62 
  -4   3  -6   21.89    0.86 
  -4   3  -6   22.13    0.71 
  -4   3  -6   19.19    0.95 
  -4   3  -6   20.54    0.56 
  -4   3  -6   22.00    0.68 
  -4   3  -6   20.61    0.95 
  -4   3  -6   21.38    0.99 
  -4   3  -6   21.19    0.65 
  -5  -3  -6    3.04    0.21 
   5  -3   6    3.39    0.58 
   5  -3   6    2.92    0.70 
   5  -3   6    2.78    0.50 
   5  -3   6    3.36    0.40 
   5  -3   6    3.97    0.49 
   5  -3   6    3.93    0.63 
  -5  -3  -6    3.38    0.23 
  -5  -3  -6    3.43    0.25 
  -5  -3  -6    3.76    0.43 
  -5   3  -6    3.80    0.28 
  -5   3  -6    3.48    0.58 
  -5   3  -6    3.74    0.27 
  -5   3  -6    3.90    0.41 
  -5   3  -6    4.14    0.61 
  -5   3  -6    3.41    0.38 
  -5   3  -6    3.61    0.44 
  -5   3  -6    4.34    0.33 
  -5   3  -6    3.57    0.35 
  -5   3  -6    3.80    0.38 
   6  -3   6    0.43    0.39 
   6  -3   6    1.79    0.43 
   6  -3   6    0.91    0.32 
  -6  -3  -6    0.72    0.12 
  -6  -3  -6    0.63    0.10 
  -6  -3  -6    0.45    0.25 
   6  -3   6    0.69    0.25 
  -6  -3  -6    0.80    0.18 
   6  -3   6    1.00    0.39 
   6  -3   6    0.60    0.40 
  -6   3  -6    0.79    0.20 
  -6   3  -6    0.84    0.22 
  -6   3  -6    1.10    0.24 
  -6   3  -6    0.45    0.26 
  -6   3  -6    0.41    0.18 
  -6   3  -6    0.47    0.17 
  -6   3  -6    0.83    0.12 
  -6   3  -6    1.30    0.25 
  -6   3  -6    0.63    0.30 
  -6   3  -6    1.01    0.18 
  -6   3  -6    0.94    0.27 
   7  -3   6   11.70    0.68 
   7  -3   6   10.29    0.54 
  -7  -3  -6   10.85    0.17 
   7  -3   6   10.86    0.40 
  -7  -3  -6   10.80    0.50 
  -7   3  -6   11.98    0.42 
  -7   3  -6   11.78    0.38 
  -7   3  -6   11.73    0.24 
  -7   3  -6   11.96    0.51 
  -7   3  -6   11.61    0.24 
  -7   3  -6   12.08    0.36 
  -7   3  -6   11.65    0.36 
  -7   3  -6   11.61    0.23 
  -7   3  -6   11.59    0.28 
  -7   3  -6   11.65    0.38 
 -10  -4   6    2.42    0.07 
  10  -4  -6    2.60    0.44 
  10  -4  -6    2.41    0.21 
  10  -4  -6    2.91    0.37 
 -10   4   6    2.42    0.26 
 -10   4   6    2.91    0.26 
 -10   4   6    2.55    0.25 
 -10   4   6    2.67    0.28 
 -10   4   6    2.40    0.22 
 -10   4   6    2.66    0.28 
 -10   4   6    2.52    0.20 
   9  -4  -6    4.07    0.37 
   9  -4  -6    4.59    0.52 
   9  -4  -6    4.17    0.30 
  -9  -4   6    3.97    0.10 
  -9  -4   6    4.14    0.18 
  -9   4   6    4.31    0.32 
  -9   4   6    4.16    0.35 
  -9   4   6    4.47    0.26 
  -9   4   6    4.33    0.18 
  -9   4   6    4.61    0.43 
  -8  -4   6   50.41    0.65 
   8  -4  -6   51.41    0.81 
  -8  -4   6   50.90    0.67 
   8  -4  -6   51.14    1.27 
   8  -4  -6   51.38    1.96 
  -8  -4   6   50.10    0.79 
  -8   4   6   56.53    1.37 
  -8   4   6   56.56    1.16 
  -8   4   6   55.76    0.92 
  -8   4   6   55.88    1.01 
  -8   4   6   54.13    1.19 
  -8   4   6   56.29    1.14 
   7  -4  -6   35.16    1.06 
  -7  -4   6   35.81    0.67 
   7  -4  -6   36.05    0.64 
  -7  -4   6   35.88    0.56 
  -7  -4   6   36.14    0.73 
  -7  -4   6   35.43    0.60 
   7  -4  -6   37.52    1.68 
   7  -4  -6   35.10    1.46 
  -7   4   6   41.63    1.19 
  -7   4   6   40.81    2.11 
  -7   4   6   40.01    0.94 
  -7   4   6   39.50    1.94 
  -7   4   6   39.48    1.09 
  -6  -4   6    3.95    0.38 
  -6  -4   6    3.42    0.28 
   6  -4  -6    3.49    0.42 
   6  -4  -6    4.35    1.13 
   6  -4  -6    3.61    0.29 
   6  -4  -6    4.38    1.05 
  -6  -4   6    3.84    0.23 
  -6  -4   6    4.45    0.30 
   6  -4  -6    4.01    0.65 
   6  -4  -6    4.75    0.61 
  -6   4   6    4.78    0.77 
  -6   4   6    4.36    0.67 
  -6   4   6    4.06    0.54 
  -6   4   6    4.68    0.48 
  -6   4   6    4.90    0.43 
  -6   4   6    4.69    0.59 
  -6   4   6    4.99    0.42 
   5  -4  -6   15.82    1.44 
  -5  -4   6   13.67    0.26 
   5  -4  -6   14.46    1.24 
  -5  -4   6   13.92    0.57 
  -5  -4   6   13.73    0.48 
   5  -4  -6   12.27    1.25 
   5  -4  -6   13.90    0.64 
   5  -4  -6   13.30    0.62 
  -5   4   6   15.86    0.72 
  -5   4   6   15.27    0.58 
  -5   4   6   15.53    0.72 
  -5   4   6   15.56    0.63 
  -5   4   6   15.09    0.80 
   4  -4  -6   17.36    1.33 
  -4  -4   6   17.59    0.58 
   4  -4  -6   19.04    1.44 
   4  -4  -6   18.98    1.35 
  -4  -4   6   17.91    0.49 
   4  -4  -6   17.72    0.65 
  -4   4   6   20.85    0.60 
  -4   4   6   20.72    0.74 
  -4   4   6   20.33    0.86 
  -4   4   6   20.27    0.78 
  -4   4   6   20.08    0.61 
   3  -4  -6    0.16    0.59 
  -3  -4   6    0.86    0.28 
   3  -4  -6   -0.05    0.66 
  -3  -4   6    0.70    0.27 
  -3  -4   6    0.39    0.19 
   3  -4  -6    1.05    0.29 
   3  -4  -6    0.96    0.66 
  -3   4   6    0.90    0.35 
  -3   4   6    0.42    0.23 
  -3   4   6    0.73    0.28 
  -3   4   6    0.64    0.25 
   3   4  -6    0.80    0.19 
  -3   4   6    0.76    0.25 
   3   4  -6    1.18    0.25 
  -2  -4   6    8.43    0.44 
   2  -4  -6   10.26    1.15 
  -2  -4   6    8.24    0.55 
   2  -4  -6    8.56    0.42 
  -2  -4   6    8.38    0.55 
  -2  -4   6    8.46    0.38 
   2  -4  -6    8.45    1.05 
   2  -4  -6    9.16    0.40 
   2  -4  -6    9.10    0.96 
   2  -4  -6    8.70    0.42 
  -2   4   6   10.86    0.53 
   2   4  -6    9.90    0.38 
  -2   4   6   10.51    0.50 
   2   4  -6   10.28    0.40 
  -2   4   6    9.60    0.49 
   1  -4  -6    4.33    0.33 
   1  -4  -6    4.87    0.94 
  -1  -4   6    3.93    0.45 
  -1  -4   6    4.43    0.42 
   1  -4  -6    4.36    0.97 
  -1  -4   6    4.71    0.53 
  -1  -4   6    4.84    0.52 
  -1  -4   6    4.63    0.40 
  -1   4   6    4.81    0.39 
   1   4  -6    5.02    0.30 
   1   4  -6    4.58    0.30 
   1   4  -6    4.65    0.72 
   1   4  -6    4.68    0.58 
  -1   4   6    5.13    0.39 
   0  -4   6  110.70    2.12 
   0  -4   6  111.72    2.21 
   0  -4  -6  107.70    2.54 
   0  -4  -6  106.12    2.59 
   0  -4   6  106.45    2.21 
   0  -4   6  113.34    2.37 
   0  -4  -6  109.94    1.78 
   0  -4  -6  109.59    1.67 
   0   4  -6  122.23    2.58 
   0   4  -6  122.57    1.84 
   0   4  -6  122.81    2.39 
   0   4   6  121.79    1.96 
   0   4  -6  122.22    2.63 
   0   4   6  123.93    2.01 
   0   4  -6  123.17    1.83 
  -1  -4  -6    9.31    0.44 
   1  -4   6    9.80    0.71 
   1  -4   6    8.60    0.72 
   1  -4   6   10.31    0.69 
   1  -4   6    9.68    0.68 
  -1  -4  -6    9.17    0.40 
   1  -4   6    9.15    0.56 
  -1   4  -6   10.43    0.41 
  -1   4  -6   10.16    0.37 
  -1   4  -6    9.76    0.45 
  -1   4  -6   10.06    0.61 
  -1   4  -6   11.45    0.87 
  -1   4  -6   10.43    0.79 
  -1   4  -6    9.98    0.97 
   2  -4   6    9.67    0.61 
   2  -4   6   10.30    0.72 
  -2  -4  -6    9.59    0.39 
  -2  -4  -6    9.81    0.40 
   2  -4   6    9.85    0.88 
   2  -4   6    9.13    0.70 
   2  -4   6   10.31    0.79 
   2  -4   6    9.99    0.65 
   2  -4   6    9.60    0.43 
   2  -4   6   10.35    0.79 
  -2  -4  -6    9.58    0.37 
  -2  -4  -6    9.68    0.39 
   2  -4   6    9.64    0.65 
   2  -4   6   10.10    0.86 
  -2  -4  -6    9.74    0.17 
  -2   4  -6   11.88    0.77 
  -2   4  -6   12.10    0.66 
  -2   4  -6   12.02    0.76 
  -2   4  -6   11.48    0.37 
  -2   4  -6   11.29    0.96 
  -2   4  -6   11.14    0.54 
  -2   4  -6   10.96    0.49 
  -2   4  -6   10.78    0.90 
  -2   4  -6   11.26    0.61 
   3  -4   6   28.11    0.99 
   3  -4   6   27.85    1.05 
   3  -4   6   28.27    0.62 
   3  -4   6   29.63    0.91 
  -3  -4  -6   27.77    0.53 
   3  -4   6   28.40    1.09 
  -3  -4  -6   28.40    0.62 
   3  -4   6   27.26    0.91 
   3  -4   6   29.28    1.60 
  -3  -4  -6   28.03    0.65 
   3  -4   6   29.76    1.01 
  -3   4  -6   31.04    1.01 
  -3   4  -6   31.90    1.29 
  -3   4  -6   32.98    1.63 
  -3   4  -6   32.86    2.04 
  -3   4  -6   31.58    0.80 
  -3   4  -6   30.87    0.82 
  -3   4  -6   32.87    0.96 
  -3   4  -6   34.46    1.33 
  -3   4  -6   32.82    1.09 
  -4  -4  -6   26.88    0.56 
  -4  -4  -6   26.83    0.46 
   4  -4   6   28.05    0.96 
   4  -4   6   27.56    1.03 
  -4  -4  -6   27.46    0.55 
   4  -4   6   28.29    1.04 
   4  -4   6   27.04    1.04 
   4  -4   6   27.11    0.61 
   4  -4   6   23.79    1.74 
  -4  -4  -6   26.70    0.59 
  -4   4  -6   29.88    0.95 
  -4   4  -6   30.24    0.79 
  -4   4  -6   29.46    0.83 
  -4   4  -6   29.93    1.11 
  -4   4  -6   31.13    0.76 
  -4   4  -6   28.98    1.10 
   5  -4   6    4.03    0.67 
   5  -4   6    3.94    0.32 
  -5  -4  -6    4.09    0.19 
  -5  -4  -6    3.78    0.15 
   5  -4   6    5.43    0.77 
  -5  -4  -6    3.96    0.20 
   5  -4   6    3.33    0.64 
   5  -4   6    4.10    0.54 
  -5   4  -6    4.87    0.58 
  -5   4  -6    4.69    0.43 
  -5   4  -6    4.69    0.54 
  -5   4  -6    3.89    0.33 
  -5   4  -6    3.75    0.35 
  -5   4  -6    3.93    0.26 
  -5   4  -6    4.08    0.25 
  -5   4  -6    4.11    0.33 
   6  -4   6    5.38    0.60 
   6  -4   6    5.73    0.53 
   6  -4   6    5.13    0.56 
   6  -4   6    5.42    0.29 
  -6  -4  -6    5.55    0.11 
  -6   4  -6    6.29    0.30 
  -6   4  -6    6.27    0.32 
  -6   4  -6    6.57    0.20 
  -6   4  -6    6.05    0.36 
  -6   4  -6    6.14    0.34 
  -6   4  -6    6.82    0.43 
  -6   4  -6    6.63    0.31 
  -6   4  -6    6.62    0.34 
  -6   4  -6    6.84    0.27 
   9  -5  -6    3.24    0.33 
  -9  -5   6    3.10    0.06 
   9  -5  -6    4.15    0.41 
  -9   5   6    3.45    0.18 
  -9   5   6    3.54    0.27 
  -8  -5   6    2.86    0.16 
   8  -5  -6    2.23    0.44 
   8  -5  -6    2.30    0.47 
   8  -5  -6    2.89    0.42 
  -8   5   6    2.51    0.30 
  -8   5   6    2.90    0.27 
  -8   5   6    3.06    0.29 
  -8   5   6    2.97    0.29 
  -8   5   6    3.10    0.35 
   7  -5  -6   46.45    1.92 
  -7  -5   6   45.16    0.66 
  -7  -5   6   44.97    0.59 
  -7  -5   6   45.37    0.72 
   7  -5  -6   44.61    1.14 
   7  -5  -6   44.28    1.02 
  -7   5   6   49.46    2.07 
  -7   5   6   54.32    1.22 
  -7   5   6   51.41    1.00 
  -6  -5   6   47.29    0.83 
   6  -5  -6   48.58    2.04 
  -6  -5   6   47.77    0.89 
   6  -5  -6   46.43    2.07 
   6  -5  -6   47.65    1.10 
   6  -5  -6   47.78    1.92 
  -6  -5   6   47.62    0.70 
  -6   5   6   56.40    1.22 
  -6   5   6   57.02    1.31 
  -6   5   6   58.47    2.92 
  -6   5   6   56.39    1.40 
  -5  -5   6   15.68    0.46 
  -5  -5   6   16.38    0.50 
  -5  -5   6   15.85    0.40 
   5  -5  -6   15.60    0.64 
   5  -5  -6   14.56    1.46 
   5  -5  -6   16.99    1.46 
   5  -5  -6   15.45    0.65 
  -5  -5   6   15.44    0.45 
   5  -5  -6   16.08    0.56 
  -5   5   6   17.38    0.81 
  -5   5   6   18.31    0.76 
  -5   5   6   18.46    0.46 
  -5   5   6   18.15    0.76 
  -4  -5   6   21.49    0.31 
  -4  -5   6   21.19    0.48 
  -4  -5   6   21.36    0.58 
   4  -5  -6   20.71    0.70 
   4  -5  -6   21.82    1.54 
  -4  -5   6   21.32    0.59 
  -4  -5   6   22.12    0.64 
   4  -5  -6   23.25    1.51 
   4  -5  -6   21.82    0.75 
   4  -5  -6   21.57    0.59 
   4  -5  -6   21.47    0.66 
  -4  -5   6   21.76    0.34 
  -4  -5   6   21.69    0.38 
  -4  -5   6   21.40    0.58 
   4  -5  -6   21.39    0.64 
  -4  -5   6   20.68    0.32 
   4  -5  -6   21.88    0.73 
   4  -5  -6   21.55    0.54 
  -4   5   6   27.25    0.70 
  -4   5   6   26.10    0.69 
  -4   5   6   26.42    0.93 
   4   5  -6   27.39    0.64 
  -4   5   6   27.76    0.99 
  -4   5   6   27.18    0.63 
  -4   5   6   27.11    0.96 
  -4   5   6   26.12    0.85 
  -3  -5   6   47.73    0.71 
   3  -5  -6   49.37    1.12 
  -3  -5   6   48.33    0.84 
   3  -5  -6   48.20    0.82 
   3  -5  -6   51.49    1.84 
   3  -5  -6   47.86    1.01 
   3  -5  -6   48.95    1.00 
  -3  -5   6   48.46    0.99 
  -3  -5   6   47.73    0.81 
  -3  -5   6   47.01    0.94 
   3  -5  -6   47.88    0.94 
  -3  -5   6   47.64    1.02 
  -3  -5   6   45.87    1.04 
   3  -5  -6   47.74    0.79 
   3  -5  -6   46.46    1.06 
   3  -5  -6   47.09    1.09 
  -3  -5   6   46.86    0.99 
   3  -5  -6   47.36    1.92 
  -3  -5   6   47.79    0.81 
   3  -5  -6   47.25    1.04 
   3   5  -6   60.45    1.10 
  -3   5   6   60.37    1.17 
   3   5  -6   59.71    1.07 
  -3   5   6   58.39    1.45 
  -3   5   6   59.10    1.05 
  -3   5   6   59.73    1.15 
  -3   5   6   58.70    1.31 
  -3   5   6   58.77    1.47 
  -2  -5   6    3.60    0.43 
   2  -5  -6    4.05    0.45 
  -2  -5   6    3.68    0.51 
   2  -5  -6    3.78    0.37 
   2  -5  -6    4.49    0.44 
  -2  -5   6    3.51    0.34 
   2  -5  -6    3.26    0.41 
  -2  -5   6    3.76    0.45 
   2  -5  -6    4.08    0.36 
  -2  -5   6    5.12    0.44 
   2  -5  -6    4.02    0.35 
  -2  -5   6    3.61    0.48 
   2  -5  -6    3.94    0.40 
   2  -5  -6    4.03    0.28 
  -2  -5   6    3.67    0.27 
  -2  -5   6    3.66    0.33 
  -2  -5   6    3.83    0.40 
  -2  -5   6    3.91    0.25 
   2  -5  -6    3.86    0.18 
   2  -5  -6    3.69    0.29 
   2  -5  -6    3.77    0.41 
   2  -5  -6    4.89    0.96 
   2  -5  -6    4.84    0.98 
  -2  -5   6    4.51    0.49 
  -2   5   6    4.62    0.40 
   2   5  -6    4.55    0.32 
  -2   5   6    4.46    0.43 
   2   5  -6    4.82    0.32 
  -2   5   6    4.33    0.36 
   1  -5  -6    8.13    0.45 
   1  -5  -6    8.22    0.25 
  -1  -5   6    8.10    0.62 
   1  -5  -6    8.45    0.43 
  -1  -5   6    8.37    0.51 
   1  -5  -6    8.45    0.92 
   1  -5  -6    7.92    0.45 
   1  -5  -6    8.31    0.52 
  -1  -5   6    8.36    0.54 
   1  -5  -6    8.32    0.32 
  -1  -5   6    8.78    0.69 
   1  -5  -6    8.93    0.45 
   1  -5  -6    8.28    0.36 
   1  -5  -6    8.18    0.37 
  -1  -5   6    7.34    0.49 
  -1  -5   6    8.18    0.32 
   1  -5  -6    7.64    0.47 
  -1  -5   6    8.27    0.56 
  -1  -5   6    7.99    0.47 
   1  -5  -6    8.72    0.44 
  -1  -5   6    8.36    0.36 
   1   5  -6   10.38    0.78 
   1   5  -6    9.97    0.40 
  -1   5   6   11.36    0.53 
   1   5  -6   10.31    0.43 
  -1   5   6   11.04    0.50 
   1   5  -6   10.41    0.89 
   0  -5   6   36.04    1.10 
   0  -5   6   34.93    0.94 
   0  -5   6   35.14    0.68 
   0  -5   6   38.07    1.22 
   0  -5   6   33.18    0.92 
   0  -5  -6   34.98    0.76 
   0  -5  -6   35.32    0.54 
   0  -5  -6   36.52    0.73 
   0  -5  -6   35.14    0.60 
   0  -5  -6   35.46    0.83 
   0  -5  -6   34.54    0.78 
   0  -5   6   35.27    0.96 
   0  -5   6   34.85    1.13 
   0  -5   6   35.24    0.71 
   0  -5  -6   33.99    0.75 
   0  -5   6   35.00    0.89 
   0  -5  -6   36.10    0.82 
   0  -5  -6   34.99    0.62 
   0  -5  -6   35.32    0.48 
   0  -5   6   35.51    0.83 
   0  -5  -6   34.66    0.82 
   0   5  -6   42.21    1.39 
   0   5  -6   42.71    1.08 
   0   5  -6   42.69    0.77 
   0   5  -6   45.60    1.32 
   0   5   6   43.33    0.97 
   0   5   6   42.76    0.96 
   0   5  -6   42.36    1.41 
   0   5  -6   42.65    0.88 
   0   5  -6   40.40    0.84 
  -1  -5  -6   17.45    0.51 
  -1  -5  -6   17.01    0.53 
  -1  -5  -6   17.00    0.22 
  -1  -5  -6   15.84    0.49 
   1  -5   6   16.26    0.85 
   1  -5   6   16.53    0.84 
  -1  -5  -6   16.64    0.53 
  -1  -5  -6   17.21    0.50 
   1  -5   6   17.31    0.71 
  -1  -5  -6   16.82    0.46 
   1  -5   6   16.13    0.68 
   1  -5   6   16.64    0.80 
   1  -5   6   17.23    0.74 
  -1   5  -6   20.14    0.74 
  -1   5  -6   20.22    0.54 
  -1   5  -6   20.00    0.46 
  -1   5  -6   20.20    0.94 
   2  -5   6   12.17    0.57 
   2  -5   6   11.52    0.77 
   2  -5   6   10.91    0.88 
   2  -5   6   12.19    0.67 
  -2  -5  -6   12.53    0.42 
   2  -5   6   11.19    0.72 
  -2  -5  -6   12.65    0.37 
   2  -5   6   12.13    0.64 
   2  -5   6   10.68    0.58 
  -2  -5  -6   11.91    0.39 
  -2   5  -6   15.88    0.67 
  -2   5  -6   14.23    0.36 
  -2   5  -6   14.35    0.92 
  -2   5  -6   13.69    0.73 
  -2   5  -6   14.19    0.66 
   3  -5   6    4.98    0.66 
   3  -5   6    5.53    0.71 
   3  -5   6    6.82    0.57 
  -3  -5  -6    6.50    0.26 
   3  -5   6    6.26    0.51 
   3  -5   6    5.55    0.61 
   3  -5   6    6.50    0.55 
  -3  -5  -6    5.94    0.32 
  -3  -5  -6    6.45    0.30 
  -3  -5  -6    6.35    0.30 
  -3   5  -6    6.94    0.53 
  -3   5  -6    5.92    0.45 
  -3   5  -6    5.02    0.67 
  -3   5  -6    6.23    0.37 
  -3   5  -6    6.82    0.34 
  -4  -5  -6    1.86    0.19 
  -4  -5  -6    1.91    0.14 
   4  -5   6    2.70    0.46 
   4  -5   6    2.04    0.61 
   4  -5   6    1.64    0.46 
   4  -5   6    2.15    0.48 
   4  -5   6    2.07    0.48 
  -4   5  -6    2.06    0.40 
  -4   5  -6    2.02    0.23 
  -4   5  -6    2.52    0.33 
   5  -5   6    3.11    0.45 
  -5  -5  -6    3.12    0.09 
   5  -5   6    3.79    0.43 
   5  -5   6    2.44    0.42 
   5  -5   6    3.30    0.39 
   5  -5   6    4.17    0.44 
  -5   5  -6    4.43    0.23 
  -5   5  -6    4.70    0.17 
  -5   5  -6    5.04    0.32 
  -5   5  -6    4.75    0.26 
  -5   5  -6    5.19    0.36 
   7  -6  -6    2.04    0.18 
   7  -6  -6    1.94    0.16 
  -7  -6   6    1.77    0.12 
  -7   6   6    2.26    0.26 
  -6  -6   6   21.69    0.33 
   6  -6  -6   21.53    0.60 
   6  -6  -6   21.91    0.41 
   6  -6  -6   21.27    0.42 
  -6  -6   6   21.30    0.42 
   6  -6  -6   21.13    0.58 
  -6   6   6   24.92    1.36 
  -6   6   6   23.82    1.31 
  -6   6   6   25.10    0.60 
  -6   6   6   26.96    0.77 
   5  -6  -6   33.96    0.79 
   5  -6  -6   33.95    0.56 
  -5  -6   6   34.72    0.63 
   5  -6  -6   34.09    0.84 
  -5  -6   6   35.17    0.53 
   5  -6  -6   34.04    0.74 
   5  -6  -6   33.88    0.54 
  -5   6   6   40.40    0.93 
  -5   6   6   40.24    1.57 
  -5   6   6   40.41    0.59 
  -5   6   6   40.11    1.04 
  -4  -6   6   16.55    0.47 
   4  -6  -6   16.42    0.55 
  -4  -6   6   15.80    0.47 
   4  -6  -6   16.25    0.58 
  -4  -6   6   16.11    0.56 
   4  -6  -6   16.21    0.57 
   4  -6  -6   16.02    0.40 
   4  -6  -6   16.59    0.56 
   4  -6  -6   16.84    0.60 
   4  -6  -6   16.87    0.37 
   4  -6  -6   17.88    0.56 
  -4  -6   6   16.48    0.38 
  -4  -6   6   16.50    0.44 
   4   6  -6   19.85    0.50 
  -4   6   6   20.08    0.48 
   4   6  -6   20.58    0.52 
  -4   6   6   19.99    0.69 
  -4   6   6   20.37    0.54 
   3  -6  -6   15.47    0.46 
  -3  -6   6   14.98    0.47 
   3  -6  -6   14.21    0.53 
   3  -6  -6   15.21    0.42 
   3  -6  -6   14.89    0.54 
   3  -6  -6   15.05    0.52 
  -3  -6   6   14.84    0.46 
   3  -6  -6   15.35    0.62 
   3  -6  -6   14.83    0.36 
   3  -6  -6   14.72    0.54 
  -3  -6   6   14.94    0.21 
  -3  -6   6   14.43    0.55 
   3  -6  -6   14.55    0.53 
   3  -6  -6   14.97    0.30 
   3   6  -6   18.04    0.50 
  -3   6   6   18.88    0.51 
   3   6  -6   19.91    0.51 
  -3   6   6   18.34    0.55 
  -3   6   6   17.42    0.74 
  -3   6   6   18.02    0.52 
  -3   6   6   18.52    0.78 
  -2  -6   6    7.04    0.25 
   2  -6  -6    7.25    0.43 
   2  -6  -6    7.13    0.25 
  -2  -6   6    6.94    0.25 
  -2  -6   6    6.91    0.38 
  -2  -6   6    7.03    0.38 
  -2  -6   6    6.97    0.44 
  -2  -6   6    7.05    0.39 
   2  -6  -6    6.73    0.28 
   2  -6  -6    7.09    0.41 
   2  -6  -6    6.78    0.41 
  -2  -6   6    7.83    0.54 
   2  -6  -6    6.93    0.36 
   2  -6  -6    7.13    0.41 
   2  -6  -6    7.47    0.43 
  -2  -6   6    6.94    0.20 
   2  -6  -6    6.58    0.28 
   2  -6  -6    7.15    0.42 
  -2  -6   6    6.93    0.22 
  -2  -6   6    5.58    0.34 
  -2   6   6    8.40    0.39 
  -2   6   6    8.46    0.42 
   2   6  -6    8.68    0.38 
  -2   6   6    8.55    0.40 
   2   6  -6    8.91    0.36 
   1  -6  -6    3.57    0.31 
  -1  -6   6    3.97    0.23 
   1  -6  -6    4.29    0.32 
   1  -6  -6    3.80    0.15 
   1  -6  -6    3.56    0.34 
   1  -6  -6    3.92    0.31 
  -1  -6   6    3.76    0.37 
   1  -6  -6    3.51    0.32 
  -1  -6   6    3.41    0.28 
  -1  -6   6    4.05    0.47 
  -1  -6   6    3.72    0.35 
   1  -6  -6    3.72    0.15 
  -1  -6   6    3.78    0.49 
   1  -6  -6    3.99    0.33 
   1  -6  -6    3.98    0.19 
   1  -6  -6    3.81    0.14 
   1  -6  -6    4.15    0.34 
  -1  -6   6    4.06    0.38 
  -1  -6   6    3.34    0.40 
  -1  -6   6    3.83    0.29 
  -1   6   6    4.61    0.32 
   1   6  -6    4.82    0.31 
  -1   6   6    4.49    0.32 
   1   6  -6    5.16    0.46 
   1   6  -6    5.39    0.62 
   1   6  -6    4.15    0.28 
   1   6  -6    4.82    0.29 
   0  -6   6   36.48    0.87 
   0  -6  -6   37.17    0.75 
   0  -6   6   36.68    0.62 
   0  -6   6   38.31    0.81 
   0  -6   6   37.14    0.56 
   0  -6   6   37.70    0.87 
   0  -6  -6   35.84    0.84 
   0  -6   6   37.08    0.72 
   0  -6   6   35.62    0.82 
   0  -6  -6   36.81    0.67 
   0  -6  -6   37.47    0.73 
   0  -6  -6   37.76    0.71 
   0  -6   6   37.44    1.02 
   0  -6  -6   36.77    0.78 
   0  -6  -6   35.79    0.75 
   0   6  -6   43.76    0.69 
   0   6   6   42.84    0.89 
   0   6  -6   42.33    0.99 
   0   6  -6   43.39    0.82 
   0   6   6   44.01    0.87 
   1  -6   6   12.80    0.55 
   1  -6   6   11.13    0.58 
   1  -6   6   11.23    0.52 
   1  -6   6   11.98    0.23 
  -1  -6  -6   11.87    0.43 
  -1  -6  -6   12.50    0.40 
  -1  -6  -6   12.54    0.44 
   1  -6   6   11.83    0.49 
  -1  -6  -6   12.26    0.33 
   1  -6   6   11.96    0.32 
  -1  -6  -6   12.09    0.34 
  -1   6  -6   16.95    0.65 
  -1   6  -6   15.65    0.99 
  -1   6  -6   15.01    0.37 
   2  -6   6    9.50    0.51 
   2  -6   6   10.23    0.27 
  -2  -6  -6   10.04    0.27 
   2  -6   6    9.80    0.47 
   2  -6   6   10.11    0.32 
  -2  -6  -6   10.69    0.33 
  -2   6  -6   13.21    0.46 
  -2   6  -6   11.89    0.51 
  -2   6  -6   11.91    0.55 
  -2   6  -6   11.92    1.16 
   3  -6   6    8.54    0.25 
  -3  -6  -6    8.78    0.15 
   3  -6   6    9.01    0.41 
   3  -6   6    8.22    0.28 
  -3  -6  -6    8.64    0.26 
  -3   6  -6   10.22    0.42 
  -3   6  -6    9.98    0.45 
   2  -7  -6    4.55    0.29 
   2  -7  -6    4.50    0.23 
   2  -7  -6    4.39    0.23 
 -12   0   7    2.46    0.18 
 -12   0   7    2.34    0.14 
 -12   0   7    2.36    0.24 
 -11   0   7    2.86    0.31 
 -11   0   7    2.50    0.19 
 -11   0   7    2.47    0.25 
 -10   0   7   11.06    0.35 
 -10   0   7   11.51    0.41 
 -10   0   7   11.27    0.49 
 -10   0   7   11.21    0.42 
 -10   0   7   10.08    0.52 
 -10   0   7   10.73    0.39 
  -9   0   7   15.96    0.50 
  -9   0   7   16.57    0.33 
  -9   0   7   16.86    0.66 
  -9   0   7   16.48    0.41 
  -9   0   7   16.55    0.55 
  -9   0   7   16.54    0.61 
  -9   0   7   16.56    0.53 
  -9   0   7   16.65    0.36 
  -9   0   7   16.53    0.44 
  -9   0   7   16.69    0.34 
   8   0  -7   14.93    0.53 
  -8   0   7   15.23    0.44 
   8   0  -7   15.20    0.49 
  -8   0   7   15.42    0.62 
  -7   0   7    1.26    0.30 
  -7   0   7    0.99    0.26 
   7   0  -7    0.96    0.19 
   7   0  -7    0.90    0.19 
   7   0  -7    1.12    0.26 
  -6   0   7    7.76    0.54 
  -6   0   7    9.16    0.47 
   6   0  -7    9.54    0.74 
   6   0  -7    8.50    0.83 
  -6   0   7    8.77    0.43 
  -6   0   7    8.97    0.44 
  -6   0   7    8.22    0.37 
  -6   0   7    7.71    0.34 
   6   0  -7    8.26    0.33 
  -5   0   7    7.42    0.46 
  -5   0   7    6.88    0.47 
  -5   0   7    7.24    0.40 
  -5   0   7    7.35    0.44 
   5   0  -7    6.52    0.66 
  -5   0   7    7.94    0.45 
   5   0  -7    7.73    0.74 
  -5   0   7    6.57    0.37 
  -5   0   7    6.57    0.51 
  -4   0   7    0.51    0.26 
  -4   0   7    0.14    0.27 
   4   0  -7    0.30    0.32 
  -4   0   7   -0.21    0.18 
   4   0  -7   -0.25    0.28 
  -4   0   7   -0.02    0.23 
  -4   0   7   -0.27    0.24 
  -3   0   7    0.95    0.25 
   3   0  -7    2.18    0.49 
  -3   0   7    1.01    0.30 
  -3   0   7    0.99    0.28 
   3   0  -7    1.86    0.80 
  -3   0   7    1.19    0.37 
   3   0  -7    1.64    0.50 
   3   0  -7    0.52    0.37 
  -3   0   7    1.65    0.39 
  -3   0   7    0.77    0.20 
   2   0  -7   50.72    1.57 
  -2   0   7   53.28    1.07 
   2   0  -7   53.32    2.14 
  -2   0   7   54.40    1.28 
  -2   0   7   53.12    1.43 
   2   0  -7   54.75    1.57 
   2   0  -7   52.57    1.50 
   2   0  -7   50.15    1.94 
  -2   0   7   53.00    1.02 
  -2   0   7   53.92    1.29 
   2   0  -7   51.97    1.44 
  -2   0   7   52.65    1.19 
   1   0  -7   33.32    1.15 
   1   0  -7   36.02    1.76 
  -1   0   7   32.69    0.82 
   1   0  -7   31.48    1.52 
  -1   0   7   30.97    0.90 
  -1   0   7   32.44    0.99 
   1   0  -7   32.59    0.81 
  -1   0   7   32.00    1.27 
  -1   0   7   32.21    0.77 
   1   0  -7   32.99    0.85 
   1   0  -7   34.08    1.07 
   0   0   7   20.95    0.74 
   0   0  -7   21.81    0.64 
   0   0  -7   21.13    0.89 
   0   0  -7   22.20    1.30 
   0   0   7   20.90    0.81 
   0   0  -7   21.40    0.65 
   0   0   7   21.19    0.63 
   0   0   7   20.70    0.66 
   0   0  -7   23.93    1.18 
  -1   0  -7   63.89    1.81 
   1   0   7   66.86    1.60 
  -1   0  -7   69.60    2.25 
  -1   0  -7   64.88    1.83 
  -1   0  -7   67.01    1.85 
   1   0   7   66.51    1.26 
  -1   0  -7   68.03    1.29 
   1   0   7   66.91    1.48 
  -1   0  -7   68.66    1.58 
  -1   0  -7   65.72    1.26 
  -2   0  -7  114.63    2.76 
  -2   0  -7  114.28    1.74 
  -2   0  -7  111.20    1.86 
  -2   0  -7  110.13    1.74 
  -2   0  -7   96.85    2.29 
  -2   0  -7  112.40    2.39 
   2   0   7  112.37    2.25 
  -2   0  -7  113.89    2.41 
   2   0   7  111.60    1.91 
   3   0   7   96.67    1.83 
   3   0   7   98.15    1.80 
  -3   0  -7  100.93    1.61 
  -3   0  -7   99.96    2.17 
  -3   0  -7   98.36    2.03 
  -4   0  -7   60.71    1.04 
   4   0   7   59.52    1.38 
  -4   0  -7   59.38    1.11 
   4   0   7   60.78    1.33 
  -5   0  -7    1.48    0.20 
   5   0   7    0.63    0.33 
  -5   0  -7    1.25    0.21 
   5   0   7    0.81    0.35 
  -5   0  -7    0.79    0.21 
  -5   0  -7    0.86    0.15 
  -5   0  -7    0.64    0.26 
  -5   0  -7    0.76    0.15 
  -5   0  -7    0.53    0.17 
  -5   0  -7    1.17    0.27 
  -5   0  -7    1.10    0.25 
  -5   0  -7    1.19    0.28 
  -5   0  -7    0.83    0.10 
  -6   0  -7    0.29    0.14 
  -6   0  -7    0.23    0.31 
  -6   0  -7    0.35    0.14 
  -6   0  -7    0.01    0.16 
  -6   0  -7    0.02    0.13 
  -6   0  -7   -0.17    0.13 
  -6   0  -7    0.13    0.15 
  -7   0  -7    2.56    0.19 
  -7   0  -7    2.58    0.40 
  -7   0  -7    2.48    0.20 
  -8   0  -7    3.67    0.17 
  -8   0  -7    3.68    0.14 
  -8   0  -7    3.76    0.36 
 -12  -1   7   13.88    0.37 
 -12  -1   7   13.63    0.28 
 -12   1   7   15.21    0.31 
 -12   1   7   14.90    0.42 
 -12   1   7   15.37    0.38 
 -12   1   7   15.21    0.36 
  11  -1  -7    3.72    0.37 
 -11  -1   7    3.92    0.17 
 -11  -1   7    3.90    0.22 
 -11  -1   7    4.14    0.36 
  11  -1  -7    3.95    0.34 
 -11   1   7    3.98    0.25 
 -11   1   7    3.62    0.29 
 -11   1   7    4.07    0.25 
 -11   1   7    3.65    0.34 
 -11   1   7    3.87    0.26 
 -11   1   7    3.83    0.30 
  10  -1  -7   23.96    0.69 
  10  -1  -7   23.60    0.64 
 -10  -1   7   23.30    0.62 
 -10  -1   7   23.31    0.54 
 -10  -1   7   21.76    0.44 
 -10   1   7   23.83    0.58 
 -10   1   7   23.45    0.37 
 -10   1   7   23.84    0.63 
 -10   1   7   23.35    0.70 
 -10   1   7   22.62    0.62 
 -10   1   7   23.55    0.60 
 -10   1   7   23.26    0.43 
 -10   1   7   23.57    0.36 
  -9  -1   7    4.08    0.40 
  -9  -1   7    4.17    0.34 
  -9  -1   7    4.02    0.33 
   9  -1  -7    3.76    0.34 
  -9  -1   7    4.08    0.27 
  -9  -1   7    3.67    0.32 
   9  -1  -7    3.85    0.39 
  -9   1   7    3.22    0.35 
  -9   1   7    4.41    0.35 
  -9   1   7    4.39    0.47 
  -9   1   7    4.26    0.36 
  -9   1   7    4.75    0.45 
  -9   1   7    4.57    0.28 
  -9   1   7    4.08    0.33 
  -9   1   7    4.12    0.42 
  -9   1   7    4.54    0.35 
  -8  -1   7   48.98    1.13 
   8  -1  -7   47.68    1.04 
  -8  -1   7   48.26    0.68 
   8  -1  -7   49.27    0.99 
  -8   1   7   52.03    1.15 
  -8   1   7   49.79    1.15 
   7  -1  -7   91.26    1.53 
   7  -1  -7   89.14    2.30 
   7  -1  -7   90.56    1.47 
  -7  -1   7   90.66    1.49 
  -7  -1   7   89.88    1.23 
  -7  -1   7   89.13    1.65 
  -7   1   7   97.03    1.73 
  -7   1   7   94.45    1.79 
  -7   1   7   95.73    1.75 
   6  -1  -7   29.91    1.36 
  -6  -1   7   31.02    0.74 
  -6  -1   7   31.67    0.82 
   6  -1  -7   29.22    1.32 
   6  -1  -7   30.97    0.69 
   6   1  -7   31.17    0.67 
  -6   1   7   30.54    0.89 
   6   1  -7   30.98    1.28 
  -6   1   7   32.19    0.92 
  -6   1   7   30.00    1.06 
  -6   1   7   32.65    0.82 
  -6   1   7   32.20    0.79 
  -6   1   7   32.78    0.93 
  -5  -1   7   35.74    0.88 
  -5  -1   7   38.64    0.85 
  -5  -1   7   33.60    1.05 
  -5  -1   7   35.76    0.83 
   5  -1  -7   36.66    1.39 
  -5  -1   7   36.48    0.78 
   5  -1  -7   37.37    1.34 
   5  -1  -7   34.93    1.58 
  -5   1   7   41.05    1.11 
  -5   1   7   41.72    0.97 
  -5   1   7   40.75    1.07 
   5   1  -7   39.95    1.47 
   5   1  -7   41.44    1.31 
  -5   1   7   41.38    1.08 
  -5   1   7   41.94    1.11 
  -5   1   7   39.71    1.21 
  -4  -1   7   37.98    0.95 
   4  -1  -7   37.92    1.41 
  -4  -1   7   38.19    0.84 
  -4  -1   7   36.46    0.92 
  -4  -1   7   37.12    0.83 
   4  -1  -7   41.75    1.41 
  -4  -1   7   37.09    0.97 
  -4  -1   7   36.96    1.11 
  -4   1   7   38.73    1.17 
  -4   1   7   39.11    0.83 
   4   1  -7   38.75    1.43 
  -4   1   7   38.57    1.04 
  -4   1   7   39.62    1.13 
  -4   1   7   39.47    1.09 
   4   1  -7   38.52    1.30 
   4   1  -7   38.48    1.42 
  -4   1   7   38.92    0.90 
  -4   1   7   39.52    1.10 
   3  -1  -7    5.09    0.83 
  -3  -1   7    5.87    0.49 
   3  -1  -7    6.29    1.02 
  -3  -1   7    5.46    0.41 
   3  -1  -7    5.71    0.67 
  -3  -1   7    4.90    0.38 
  -3  -1   7    5.84    0.45 
  -3  -1   7    5.15    0.32 
  -3  -1   7    5.43    0.36 
   3  -1  -7    5.93    0.66 
  -3   1   7    6.33    0.47 
  -3   1   7    6.30    0.51 
  -3   1   7    5.79    0.45 
   3   1  -7    6.46    0.73 
   3   1  -7    5.68    0.58 
  -3   1   7    6.03    0.48 
  -3   1   7    5.94    0.38 
   3   1  -7    6.07    0.64 
   3   1  -7    4.55    0.61 
  -3   1   7    6.20    0.38 
  -3   1   7    5.73    0.47 
   2  -1  -7   12.86    0.49 
   2  -1  -7   14.47    0.54 
   2  -1  -7   14.51    1.12 
  -2  -1   7   14.03    0.71 
  -2  -1   7   13.30    0.52 
  -2  -1   7   13.48    0.63 
  -2  -1   7   14.17    0.59 
   2  -1  -7   12.82    0.80 
  -2  -1   7   13.53    0.49 
  -2  -1   7   14.47    0.62 
   2  -1  -7   13.26    1.21 
  -2   1   7   14.49    0.63 
   2   1  -7   12.55    0.77 
   2   1  -7   14.05    0.84 
   2   1  -7   14.02    0.84 
  -2   1   7   14.53    0.61 
   2   1  -7   14.99    0.90 
  -2   1   7   15.41    0.51 
  -2   1   7   14.20    0.55 
  -1  -1   7   25.15    0.87 
   1  -1  -7   25.36    1.07 
  -1  -1   7   25.51    0.98 
   1  -1  -7   26.11    1.38 
  -1  -1   7   24.54    0.90 
  -1  -1   7   27.64    0.88 
   1  -1  -7   29.11    1.57 
   1  -1  -7   24.58    0.69 
  -1  -1   7   26.45    0.71 
  -1  -1   7   25.95    0.74 
   1  -1  -7   27.37    0.72 
  -1   1   7   25.26    0.86 
  -1   1   7   25.24    0.71 
   1   1  -7   27.45    1.18 
  -1   1   7   26.62    0.69 
  -1   1   7   25.89    0.81 
   1   1  -7   27.81    1.39 
   1   1  -7   27.27    1.50 
   1   1  -7   26.29    1.07 
   1   1  -7   25.86    1.01 
   0  -1  -7   12.69    0.47 
   0  -1  -7   12.90    0.96 
   0  -1   7   13.38    0.75 
   0  -1  -7   12.68    0.47 
   0  -1   7   12.82    0.59 
   0  -1  -7   11.50    0.76 
   0  -1  -7   15.81    1.23 
   0  -1   7   12.89    0.62 
   0  -1   7   12.51    0.51 
   0   1   7   11.49    0.50 
   0   1  -7   13.03    0.66 
   0   1  -7   12.13    0.99 
   0   1  -7   11.49    0.73 
   0   1  -7   12.18    0.52 
   0   1   7   11.16    0.60 
   0   1  -7   12.32    1.07 
   0   1   7   12.22    0.53 
   0   1  -7   11.92    0.48 
   0   1  -7   11.18    0.88 
   1  -1   7    1.61    0.42 
  -1  -1  -7    1.42    0.21 
  -1  -1  -7    1.24    0.47 
   1  -1   7    1.48    0.30 
   1  -1   7    0.88    0.26 
  -1  -1  -7    1.36    0.67 
  -1  -1  -7    1.46    0.47 
   1  -1   7    1.36    0.37 
  -1  -1  -7    1.38    0.43 
   1  -1   7    0.97    0.26 
  -1   1  -7    1.30    0.27 
  -1   1  -7    1.73    0.56 
  -1   1  -7    2.40    0.51 
  -1   1  -7    1.55    0.30 
  -1   1  -7    1.71    0.59 
  -1   1  -7    1.58    0.47 
  -1   1  -7    1.94    0.55 
   1   1   7    1.53    0.30 
  -2  -1  -7   35.58    1.22 
   2  -1   7   34.58    0.93 
   2  -1   7   35.46    0.89 
  -2  -1  -7   35.28    1.15 
  -2  -1  -7   35.72    0.75 
   2  -1   7   33.52    1.15 
  -2   1  -7   36.34    1.35 
  -2   1  -7   36.45    0.89 
  -2   1  -7   37.32    0.90 
  -2   1  -7   39.15    1.35 
  -2   1  -7   37.30    1.07 
   2   1   7   36.16    1.12 
   2   1   7   35.43    0.93 
  -2   1  -7   37.91    1.57 
  -2   1  -7   36.39    1.32 
   3  -1   7    5.72    0.53 
   3  -1   7    4.95    0.45 
   3  -1   7    5.15    0.56 
  -3  -1  -7    4.90    0.38 
  -3  -1  -7    5.20    0.29 
  -3   1  -7    5.59    0.34 
  -3   1  -7    5.05    0.69 
  -3   1  -7    4.40    0.65 
  -3   1  -7    5.41    0.30 
   4  -1   7   32.76    0.98 
  -4  -1  -7   32.44    0.55 
  -4  -1  -7   32.26    0.71 
   4  -1   7   32.53    1.00 
  -4   1  -7   37.33    0.88 
  -4   1  -7   36.12    0.82 
  -4   1  -7   35.28    1.10 
  -4   1  -7   35.48    1.14 
  -5  -1  -7   17.40    0.50 
  -5  -1  -7   17.82    0.50 
  -5  -1  -7   17.97    0.50 
  -5  -1  -7   17.70    0.76 
   5  -1   7   17.69    0.77 
   5  -1   7   17.42    0.76 
  -5  -1  -7   16.93    0.47 
  -5  -1  -7   17.44    0.42 
  -5   1  -7   17.97    0.55 
  -5   1  -7   16.96    0.52 
  -5   1  -7   17.30    0.47 
  -5   1  -7   17.26    0.52 
  -5   1  -7   17.14    0.52 
  -5   1  -7   18.02    0.56 
  -5   1  -7   17.54    0.72 
  -5   1  -7   17.04    0.40 
  -5   1  -7   17.26    0.48 
  -6  -1  -7    8.72    0.35 
  -6  -1  -7    8.95    0.32 
   6  -1   7    9.87    0.59 
  -6  -1  -7    9.18    0.33 
   6  -1   7    8.63    0.62 
  -6  -1  -7    8.74    0.56 
  -6   1  -7    9.23    0.19 
  -6   1  -7    8.97    0.22 
  -6   1  -7    9.29    0.39 
  -6   1  -7    8.86    0.35 
  -6   1  -7    9.15    0.21 
  -6   1  -7    9.30    0.55 
  -6   1  -7    9.25    0.38 
  -6   1  -7    9.54    0.39 
   7  -1   7   18.25    0.68 
  -7  -1  -7   18.69    0.41 
  -7  -1  -7   18.46    0.34 
  -7  -1  -7   18.04    0.67 
  -7   1  -7   18.18    0.43 
  -7   1  -7   17.48    0.42 
  -7   1  -7   17.77    0.39 
  -7   1  -7   17.30    0.62 
  -7   1  -7   18.09    0.42 
 -11  -2   7    3.14    0.17 
  11  -2  -7    3.22    0.33 
 -11   2   7    3.79    0.27 
 -11   2   7    3.54    0.23 
 -11   2   7    3.20    0.31 
 -11   2   7    3.05    0.27 
  10  -2  -7    3.07    0.36 
 -10  -2   7    3.21    0.20 
 -10  -2   7    3.11    0.17 
 -10  -2   7    3.02    0.21 
  10  -2  -7    3.64    0.41 
 -10   2   7    3.45    0.25 
 -10   2   7    2.95    0.35 
 -10   2   7    2.81    0.25 
 -10   2   7    3.06    0.38 
 -10   2   7    2.92    0.32 
 -10   2   7    3.51    0.28 
 -10   2   7    3.35    0.31 
 -10   2   7    3.63    0.33 
   9  -2  -7    5.39    0.43 
   9  -2  -7    5.45    0.40 
  -9  -2   7    5.34    0.27 
  -9  -2   7    5.58    0.25 
  -9  -2   7    5.58    0.30 
   9  -2  -7    4.96    1.08 
  -9  -2   7    5.45    0.43 
  -9   2   7    6.06    0.33 
  -9   2   7    5.63    0.46 
  -9   2   7    6.29    0.36 
  -9   2   7    6.08    0.41 
  -9   2   7    5.95    0.50 
  -9   2   7    6.13    0.48 
  -9   2   7    6.04    0.49 
  -9   2   7    6.25    0.28 
  -9   2   7    6.16    0.39 
   8  -2  -7   13.93    0.53 
  -8  -2   7   13.70    0.58 
   8  -2  -7   12.54    1.05 
  -8  -2   7   14.25    0.46 
   8  -2  -7   13.85    1.52 
  -8  -2   7   13.50    0.37 
   8  -2  -7   14.54    0.57 
  -8  -2   7   13.90    0.45 
  -8  -2   7   13.82    0.46 
  -8   2   7   14.54    0.46 
  -8   2   7   14.85    0.47 
  -8   2   7   14.87    0.58 
  -8   2   7   13.27    0.53 
  -8   2   7   15.36    0.66 
  -8   2   7   14.06    0.54 
  -8   2   7   15.68    0.67 
  -8   2   7   15.54    0.69 
  -8   2   7   13.94    0.48 
  -7  -2   7   72.46    0.92 
  -7  -2   7   72.93    1.29 
  -7  -2   7   72.84    1.43 
   7  -2  -7   75.18    2.13 
   7  -2  -7   73.36    1.35 
   7  -2  -7   71.03    2.47 
   7  -2  -7   73.65    1.30 
  -7   2   7   72.85    1.62 
  -7   2   7   73.44    1.56 
  -7   2   7   75.14    1.57 
  -6  -2   7   94.17    1.67 
  -6  -2   7   92.26    1.26 
   6  -2  -7   91.41    1.48 
   6  -2  -7   93.64    2.39 
   6  -2  -7   89.52    2.58 
  -6  -2   7   92.53    1.54 
   6  -2  -7   92.24    1.56 
  -6   2   7  101.52    2.02 
  -6   2   7   99.39    2.07 
  -6   2   7   96.24    1.93 
  -6   2   7  100.48    1.79 
   5  -2  -7  128.06    3.00 
   5  -2  -7  128.24    3.13 
   5  -2  -7  129.89    1.92 
  -5  -2   7  127.80    2.15 
  -5  -2   7  127.28    1.99 
  -5  -2   7  130.62    2.10 
   5  -2  -7  126.86    3.62 
  -5   2   7  133.11    2.50 
  -5   2   7  131.74    2.23 
  -5   2   7  130.98    2.39 
   5   2  -7  129.05    2.93 
  -5   2   7  130.54    2.19 
  -5   2   7  135.37    2.59 
   5   2  -7  132.73    1.91 
  -5   2   7  137.11    2.85 
  -5   2   7  132.36    2.05 
  -5   2   7  132.66    2.49 
  -4  -2   7   11.40    0.45 
  -4  -2   7   10.80    0.51 
   4  -2  -7   10.61    1.06 
  -4  -2   7   11.24    0.61 
   4  -2  -7   11.44    1.24 
   4  -2  -7   11.58    0.90 
  -4  -2   7   11.91    0.44 
  -4  -2   7   11.60    0.47 
  -4  -2   7   10.46    0.49 
   4  -2  -7   10.84    1.28 
   4   2  -7   11.13    0.83 
   4   2  -7   10.65    0.71 
  -4   2   7   12.68    0.59 
  -4   2   7   12.44    0.74 
  -4   2   7   12.92    0.50 
  -4   2   7   12.31    0.55 
  -4   2   7   11.93    0.66 
  -4   2   7   12.20    0.63 
   3  -2  -7   24.78    1.63 
   3  -2  -7   25.32    0.74 
   3  -2  -7   24.62    1.47 
  -3  -2   7   25.53    0.79 
   3  -2  -7   25.82    1.36 
  -3  -2   7   25.22    0.69 
  -3  -2   7   25.59    0.67 
   3  -2  -7   24.31    1.52 
  -3  -2   7   24.32    0.77 
   3  -2  -7   25.33    0.77 
  -3  -2   7   25.50    0.95 
  -3  -2   7   24.84    0.80 
  -3  -2   7   25.98    0.75 
  -3   2   7   28.49    0.79 
   3   2  -7   28.84    1.13 
  -3   2   7   27.95    0.86 
  -3   2   7   29.47    1.00 
   3   2  -7   27.92    1.29 
  -3   2   7   26.45    0.89 
   3   2  -7   27.32    1.13 
  -3   2   7   27.39    0.98 
  -3   2   7   28.50    0.76 
  -2  -2   7   65.87    1.28 
  -2  -2   7   66.02    1.40 
   2  -2  -7   67.65    2.47 
   2  -2  -7   66.91    2.30 
   2  -2  -7   63.88    2.13 
   2  -2  -7   65.15    1.32 
   2  -2  -7   64.88    1.32 
  -2  -2   7   67.01    1.52 
  -2  -2   7   64.72    1.44 
  -2  -2   7   66.50    1.22 
  -2  -2   7   67.67    1.43 
   2  -2  -7   63.25    2.20 
  -2  -2   7   65.69    1.70 
  -2   2   7   71.59    1.62 
  -2   2   7   68.19    1.31 
   2   2  -7   67.52    1.79 
   2   2  -7   70.73    1.78 
  -2   2   7   68.55    1.48 
   2   2  -7   68.55    1.87 
  -2   2   7   70.41    1.36 
   2   2  -7   69.88    1.75 
  -1  -2   7   82.43    1.75 
  -1  -2   7   83.82    1.59 
  -1  -2   7   84.75    1.81 
   1  -2  -7   80.60    2.30 
  -1  -2   7   84.38    1.74 
   1  -2  -7   84.74    2.78 
   1  -2  -7   87.32    2.44 
   1  -2  -7   82.90    1.52 
  -1  -2   7   83.26    1.46 
  -1  -2   7   81.97    1.67 
   1  -2  -7   83.24    2.37 
  -1  -2   7   84.04    1.85 
  -1  -2   7   85.60    1.58 
   1  -2  -7   83.43    1.96 
   1  -2  -7   85.29    1.55 
  -1  -2   7   82.96    2.06 
  -1   2   7   86.40    1.75 
   1   2  -7   87.68    2.27 
   1   2  -7   87.70    2.18 
   1   2  -7   87.71    2.03 
   1   2  -7   87.33    2.09 
  -1   2   7   89.89    1.90 
   1   2  -7   88.48    2.51 
   1   2  -7   88.54    1.89 
  -1   2   7   88.85    1.58 
   0  -2   7   90.29    1.72 
   0  -2  -7   88.15    1.44 
   0  -2   7   90.55    1.98 
   0  -2  -7   84.69    2.23 
   0  -2  -7   88.04    1.53 
   0  -2   7   87.76    1.71 
   0  -2  -7   86.95    2.53 
   0  -2   7   87.71    2.20 
   0  -2  -7   88.63    2.29 
   0  -2   7   87.20    1.57 
   0  -2   7   85.44    1.98 
   0  -2  -7   90.78    2.46 
   0   2  -7   92.20    2.85 
   0   2  -7   94.77    1.88 
   0   2  -7   90.87    2.05 
   0   2  -7   89.18    2.38 
   0   2   7   96.21    1.80 
   0   2  -7   94.14    2.19 
   0   2   7   96.18    1.99 
   0   2  -7   94.93    2.55 
  -1  -2  -7    7.56    0.84 
   1  -2   7    7.90    0.51 
   1  -2   7    7.69    0.51 
  -1  -2  -7    7.69    0.85 
   1  -2   7    7.31    0.60 
  -1  -2  -7    7.37    0.35 
   1  -2   7    7.73    0.49 
   1  -2   7    6.72    0.51 
   1  -2   7    7.84    0.60 
  -1   2  -7    6.98    0.50 
  -1   2  -7    8.27    0.85 
   1   2   7    7.96    0.56 
  -1   2  -7    8.38    0.48 
  -1   2  -7    8.03    0.68 
  -1   2  -7    7.91    0.44 
  -1   2  -7    7.17    0.67 
  -1   2  -7    8.30    0.85 
  -1   2  -7    7.52    0.96 
   1   2   7    8.01    0.52 
  -1   2  -7    6.65    0.78 
  -2  -2  -7   28.50    0.65 
   2  -2   7   26.58    0.88 
   2  -2   7   27.26    0.83 
   2  -2   7   27.01    0.89 
  -2  -2  -7   27.65    0.68 
   2  -2   7   28.25    0.85 
   2  -2   7   27.04    0.95 
  -2   2  -7   30.87    0.89 
  -2   2  -7   29.78    1.27 
  -2   2  -7   30.69    0.85 
  -2   2  -7   31.00    1.05 
  -2   2  -7   29.64    1.21 
  -2   2  -7   31.47    1.28 
   3  -2   7   23.81    0.85 
  -3  -2  -7   22.98    0.47 
   3  -2   7   23.77    0.93 
   3  -2   7   22.64    0.90 
   3  -2   7   23.66    0.83 
  -3  -2  -7   22.64    0.58 
   3  -2   7   22.10    0.81 
  -3   2  -7   25.51    1.19 
  -3   2  -7   24.19    1.08 
  -3   2  -7   25.57    1.13 
  -3   2  -7   25.71    0.73 
  -3   2  -7   24.42    0.73 
   4  -2   7   12.21    0.76 
  -4  -2  -7   12.23    0.42 
   4  -2   7   12.24    0.83 
  -4  -2  -7   12.52    0.43 
   4  -2   7   12.85    0.68 
  -4  -2  -7   12.68    0.38 
   4  -2   7   14.04    0.68 
  -4  -2  -7   12.45    0.40 
  -4  -2  -7   12.15    0.69 
   4  -2   7   12.72    0.66 
  -4   2  -7   13.46    0.39 
  -4   2  -7   14.06    0.43 
  -4   2  -7   13.05    0.84 
  -4   2  -7   13.81    0.51 
  -4   2  -7   12.71    0.53 
  -4   2  -7   12.60    0.68 
  -4   2  -7   13.56    0.80 
  -4   2  -7   14.13    0.57 
  -4   2  -7   13.11    0.52 
   5  -2   7   13.48    0.66 
   5  -2   7   13.57    0.72 
  -5  -2  -7   13.31    0.43 
  -5  -2  -7   13.98    0.42 
  -5  -2  -7   13.29    0.36 
  -5  -2  -7   12.64    0.66 
  -5   2  -7   12.51    0.65 
  -5   2  -7   13.92    0.67 
  -5   2  -7   13.46    0.53 
  -5   2  -7   13.06    0.49 
  -5   2  -7   13.44    0.38 
  -5   2  -7   13.64    0.67 
  -5   2  -7   13.11    0.47 
  -5   2  -7   13.86    0.48 
  -5   2  -7   13.48    0.49 
  -5   2  -7   13.44    0.46 
  -5   2  -7   13.41    0.32 
   6  -2   7   21.12    0.74 
   6  -2   7   20.13    0.76 
  -6  -2  -7   20.71    0.45 
  -6  -2  -7   20.41    0.38 
  -6  -2  -7   20.10    0.47 
  -6  -2  -7   21.39    0.74 
  -6   2  -7   21.48    0.74 
  -6   2  -7   21.53    0.39 
  -6   2  -7   21.61    0.43 
  -6   2  -7   21.56    0.37 
  -6   2  -7   21.21    0.55 
  -6   2  -7   22.21    0.46 
  -6   2  -7   21.93    0.54 
  -6   2  -7   21.50    0.57 
  -6   2  -7   20.44    0.56 
  -6   2  -7   22.02    0.56 
  -7  -2  -7    7.44    0.23 
   7  -2   7    7.26    0.36 
  -7  -2  -7    7.91    0.44 
  -7   2  -7    7.25    0.26 
  -7   2  -7    7.81    0.31 
  -7   2  -7    7.87    0.29 
  -7   2  -7    7.32    0.42 
  11  -3  -7    2.45    0.35 
  11  -3  -7    2.38    0.20 
 -11  -3   7    2.37    0.08 
 -11   3   7    2.26    0.08 
 -11   3   7    2.41    0.22 
 -11   3   7    2.28    0.07 
 -11   3   7    2.22    0.22 
  10  -3  -7    5.94    0.55 
  10  -3  -7    5.99    0.31 
 -10  -3   7    6.09    0.21 
  10  -3  -7    5.37    0.40 
 -10   3   7    6.36    0.25 
 -10   3   7    6.25    0.37 
 -10   3   7    6.17    0.37 
 -10   3   7    7.03    0.34 
 -10   3   7    6.41    0.35 
 -10   3   7    7.20    0.37 
 -10   3   7    6.03    0.24 
 -10   3   7    6.18    0.37 
   9  -3  -7   20.24    0.61 
  -9  -3   7   19.32    0.44 
   9  -3  -7   19.92    1.47 
   9  -3  -7   19.75    0.50 
   9  -3  -7   19.86    0.66 
   9  -3  -7   18.69    0.80 
  -9  -3   7   19.06    0.36 
  -9  -3   7   19.13    0.39 
  -9   3   7   18.02    0.69 
  -9   3   7   20.30    0.44 
  -9   3   7   20.46    0.64 
  -9   3   7   20.61    0.68 
  -9   3   7   20.40    0.49 
  -9   3   7   20.87    0.62 
  -9   3   7   20.08    0.64 
  -9   3   7   20.38    0.64 
  -9   3   7   20.05    0.35 
  -9   3   7   19.59    0.49 
   8  -3  -7   36.60    1.15 
  -8  -3   7   37.26    0.72 
  -8  -3   7   37.55    0.63 
  -8  -3   7   38.06    0.61 
  -8  -3   7   38.50    0.78 
   8  -3  -7   37.87    0.74 
   8  -3  -7   38.17    0.86 
   8  -3  -7   40.09    0.97 
   8  -3  -7   38.46    1.80 
   8  -3  -7   37.57    1.61 
  -8  -3   7   38.91    0.98 
  -8   3   7   41.03    0.79 
  -8   3   7   39.86    0.93 
  -8   3   7   41.58    0.85 
  -8   3   7   40.74    0.78 
  -8   3   7   40.58    0.94 
  -8   3   7   41.80    0.99 
  -8   3   7   41.57    1.02 
  -8   3   7   41.16    1.11 
  -8   3   7   41.70    1.01 
   7  -3  -7    5.55    0.70 
  -7  -3   7    4.56    0.32 
   7  -3  -7    4.73    0.38 
  -7  -3   7    4.61    0.33 
  -7  -3   7    5.12    0.25 
   7  -3  -7    5.67    1.19 
   7  -3  -7    5.05    0.41 
  -7  -3   7    4.62    0.31 
  -7  -3   7    4.79    0.41 
   7  -3  -7    4.79    0.31 
  -7   3   7    4.21    0.41 
  -7   3   7    5.29    0.59 
  -7   3   7    4.56    0.73 
  -7   3   7    6.12    0.58 
  -7   3   7    5.02    0.32 
  -7   3   7    5.59    0.86 
  -7   3   7    4.59    0.44 
  -7   3   7    5.10    0.49 
  -7   3   7    4.10    0.46 
   6  -3  -7    0.59    0.27 
  -6  -3   7    0.66    0.25 
  -6  -3   7    0.31    0.11 
   6  -3  -7    0.48    0.25 
  -6  -3   7    0.42    0.18 
   6  -3  -7    0.97    0.77 
   6  -3  -7    0.45    0.55 
  -6   3   7    0.96    0.36 
  -6   3   7    0.26    0.27 
  -6   3   7    0.51    0.31 
  -6   3   7    0.52    0.28 
  -6   3   7    0.49    0.24 
  -6   3   7    0.60    0.32 
  -5  -3   7    0.45    0.20 
   5  -3  -7    0.48    0.63 
  -5  -3   7    1.28    0.26 
   5  -3  -7    1.31    0.89 
  -5  -3   7    0.74    0.24 
  -5   3   7    0.72    0.23 
  -5   3   7    0.80    0.28 
  -5   3   7    0.95    0.31 
  -5   3   7    1.31    0.42 
   4  -3  -7    9.51    1.12 
   4  -3  -7    8.48    1.20 
   4  -3  -7    7.89    1.03 
  -4  -3   7    8.81    0.44 
   4  -3  -7    8.35    0.51 
   4  -3  -7    8.56    1.12 
   4  -3  -7    8.61    0.48 
  -4  -3   7    8.51    0.40 
  -4  -3   7    7.75    0.50 
  -4  -3   7    8.22    0.47 
  -4   3   7    9.89    0.46 
  -4   3   7    9.79    0.50 
   4   3  -7   10.33    0.39 
  -4   3   7    9.33    0.44 
  -4   3   7   10.15    0.65 
  -4   3   7    9.60    0.55 
  -4   3   7    9.79    0.58 
   4   3  -7    9.75    0.40 
  -3  -3   7   45.02    1.13 
   3  -3  -7   43.14    2.25 
  -3  -3   7   43.82    0.95 
  -3  -3   7   43.54    1.34 
   3  -3  -7   45.39    1.87 
   3  -3  -7   46.17    2.01 
  -3  -3   7   45.96    1.00 
   3  -3  -7   45.99    1.07 
  -3  -3   7   43.34    1.10 
   3  -3  -7   45.02    1.77 
  -3  -3   7   46.78    1.02 
   3  -3  -7   45.58    1.08 
  -3  -3   7   44.36    1.11 
  -3  -3   7   44.05    0.96 
  -3   3   7   52.66    1.21 
   3   3  -7   51.79    0.97 
  -3   3   7   50.86    1.05 
  -3   3   7   51.37    1.28 
  -3   3   7   52.33    1.13 
   3   3  -7   50.68    0.93 
  -3   3   7   52.31    1.05 
   3   3  -7   51.24    1.70 
  -2  -3   7    9.66    0.57 
   2  -3  -7    9.92    0.44 
  -2  -3   7    8.49    0.53 
   2  -3  -7    9.49    0.44 
  -2  -3   7    9.59    0.66 
  -2  -3   7    9.73    0.50 
  -2  -3   7    9.82    0.53 
   2  -3  -7   10.00    1.07 
  -2  -3   7    9.41    0.56 
   2  -3  -7    8.94    1.19 
  -2  -3   7    9.26    0.48 
   2  -3  -7    8.50    1.01 
   2  -3  -7    8.90    1.07 
  -2   3   7   10.33    0.65 
   2   3  -7   10.35    0.72 
   2   3  -7   11.01    0.40 
   2   3  -7   10.56    0.37 
   2   3  -7   12.10    0.87 
  -2   3   7   10.30    0.51 
  -2   3   7   11.58    0.54 
  -2   3   7   10.46    0.48 
   2   3  -7   11.28    0.99 
  -1  -3   7   47.18    1.22 
   1  -3  -7   48.33    0.97 
  -1  -3   7   46.55    1.11 
  -1  -3   7   46.71    1.19 
  -1  -3   7   47.04    1.52 
  -1  -3   7   49.87    1.23 
   1  -3  -7   46.53    1.66 
  -1  -3   7   47.47    1.30 
   1  -3  -7   46.71    1.77 
   1  -3  -7   47.10    0.98 
  -1  -3   7   47.95    1.26 
   1  -3  -7   48.18    0.91 
   1  -3  -7   43.99    2.02 
  -1   3   7   53.62    1.11 
   1   3  -7   51.98    0.97 
   1   3  -7   51.72    1.67 
  -1   3   7   53.14    1.16 
   1   3  -7   52.60    0.95 
   1   3  -7   52.86    1.82 
   1   3  -7   53.79    1.41 
  -1   3   7   52.80    1.43 
   1   3  -7   53.75    1.56 
   0  -3   7  101.25    2.12 
   0  -3   7   99.23    2.17 
   0  -3   7   99.37    1.86 
   0  -3   7   95.44    1.96 
   0  -3   7   97.63    1.99 
   0  -3  -7   97.41    1.59 
   0  -3   7   95.96    1.86 
   0  -3  -7   95.94    2.42 
   0  -3   7   96.53    1.97 
   0  -3   7   92.97    1.71 
   0  -3  -7   95.75    2.48 
   0   3  -7  107.79    2.37 
   0   3   7  103.75    1.83 
   0   3  -7  109.83    2.86 
   0   3  -7  109.32    2.12 
   0   3  -7  111.20    2.36 
   0   3   7  104.48    1.80 
   0   3  -7  105.77    1.62 
   0   3  -7  106.37    1.61 
  -1  -3  -7   32.81    0.76 
   1  -3   7   33.30    1.18 
  -1  -3  -7   32.94    0.75 
   1  -3   7   32.41    0.93 
   1  -3   7   33.33    1.01 
   1  -3   7   32.60    0.99 
  -1   3  -7   36.93    1.11 
  -1   3  -7   35.45    1.22 
  -1   3  -7   39.87    1.32 
  -1   3  -7   36.11    1.52 
  -2  -3  -7   26.68    0.54 
   2  -3   7   26.40    0.95 
   2  -3   7   25.36    0.86 
   2  -3   7   25.96    1.11 
  -2  -3  -7   25.33    0.65 
   2  -3   7   26.54    0.87 
   2  -3   7   25.68    0.88 
  -2   3  -7   29.60    1.32 
  -2   3  -7   27.79    0.89 
  -2   3  -7   28.94    0.78 
  -2   3  -7   29.20    1.24 
  -2   3  -7   29.92    1.09 
  -2   3  -7   29.14    1.29 
   3  -3   7   12.13    0.88 
  -3  -3  -7   12.12    0.43 
   3  -3   7   11.13    0.50 
   3  -3   7   10.87    0.63 
  -3  -3  -7   11.28    0.41 
  -3  -3  -7   11.86    0.38 
  -3  -3  -7   11.28    0.42 
   3  -3   7   12.56    0.69 
   3  -3   7   11.41    0.61 
   3  -3   7   11.76    0.72 
   3  -3   7   11.04    0.90 
  -3   3  -7   11.55    0.73 
  -3   3  -7   13.07    0.57 
  -3   3  -7   11.30    0.80 
  -3   3  -7   13.13    0.96 
  -3   3  -7   12.42    0.70 
  -3   3  -7   10.81    0.91 
  -3   3  -7   12.75    0.90 
  -3   3  -7   12.96    0.51 
  -3   3  -7   12.45    0.73 
  -3   3  -7   12.77    0.59 
   4  -3   7   22.64    0.84 
  -4  -3  -7   21.02    0.51 
   4  -3   7   20.98    0.89 
  -4  -3  -7   21.19    0.46 
   4  -3   7   20.90    0.61 
  -4  -3  -7   20.91    0.53 
   4  -3   7   20.85    0.91 
   4  -3   7   20.43    0.75 
   4  -3   7   20.05    1.03 
  -4   3  -7   24.14    0.67 
  -4   3  -7   23.90    0.68 
  -4   3  -7   22.67    0.68 
  -4   3  -7   22.57    0.68 
  -4   3  -7   23.34    0.58 
  -4   3  -7   23.59    1.06 
  -4   3  -7   23.08    0.54 
  -4   3  -7   22.91    0.68 
  -4   3  -7   24.61    0.91 
  -4   3  -7   23.76    1.02 
  -5  -3  -7   30.67    0.88 
   5  -3   7   30.98    0.68 
   5  -3   7   31.59    0.90 
  -5  -3  -7   30.52    0.51 
   5  -3   7   30.76    0.87 
  -5  -3  -7   30.67    0.57 
  -5  -3  -7   30.67    0.49 
   5  -3   7   30.12    0.90 
   5  -3   7   30.21    1.07 
   5  -3   7   30.58    1.06 
  -5   3  -7   34.51    0.73 
  -5   3  -7   35.22    0.79 
  -5   3  -7   34.68    0.79 
  -5   3  -7   35.17    0.57 
  -5   3  -7   35.82    0.82 
  -5   3  -7   34.89    1.03 
  -5   3  -7   34.77    0.98 
  -5   3  -7   35.08    0.62 
  -5   3  -7   34.95    0.79 
   6  -3   7    6.96    0.60 
   6  -3   7    7.33    0.36 
   6  -3   7    6.07    0.51 
  -6  -3  -7    6.75    0.42 
  -6  -3  -7    6.78    0.24 
  -6   3  -7    7.31    0.31 
  -6   3  -7    7.90    0.45 
  -6   3  -7    7.54    0.33 
  -6   3  -7    7.53    0.29 
  -6   3  -7    7.41    0.22 
  -6   3  -7    7.60    0.35 
  -6   3  -7    7.82    0.33 
  -6   3  -7    7.48    0.34 
  -6   3  -7    7.47    0.36 
  10  -4  -7    1.63    0.28 
  10  -4  -7    1.78    0.14 
  10  -4  -7    1.85    0.35 
 -10  -4   7    1.76    0.06 
 -10   4   7    1.56    0.17 
 -10   4   7    2.03    0.20 
 -10   4   7    1.33    0.23 
 -10   4   7    1.14    0.23 
 -10   4   7    1.25    0.23 
 -10   4   7    1.53    0.19 
 -10   4   7    1.63    0.22 
   9  -4  -7    0.31    0.26 
   9  -4  -7    0.05    0.10 
  -9  -4   7    0.15    0.09 
   9  -4  -7    0.40    0.29 
  -9   4   7    0.18    0.08 
  -9   4   7    0.35    0.21 
  -9   4   7    0.36    0.22 
  -9   4   7    0.23    0.15 
  -9   4   7    0.04    0.14 
   8  -4  -7   24.73    0.47 
  -8  -4   7   24.41    0.50 
  -8  -4   7   23.26    0.46 
   8  -4  -7   24.13    0.82 
  -8  -4   7   24.13    0.40 
   8  -4  -7   22.16    1.33 
   8  -4  -7   21.54    1.14 
  -8  -4   7   23.16    0.52 
  -8   4   7   26.78    0.74 
  -8   4   7   27.19    0.58 
  -8   4   7   27.91    0.73 
  -8   4   7   26.84    0.76 
  -8   4   7   27.21    0.64 
  -8   4   7   28.03    0.92 
   7  -4  -7   63.86    2.08 
  -7  -4   7   63.96    1.12 
  -7  -4   7   64.32    0.87 
   7  -4  -7   62.37    0.89 
   7  -4  -7   66.57    2.28 
  -7  -4   7   62.15    1.30 
  -7  -4   7   62.97    1.02 
   7  -4  -7   63.02    1.41 
  -7   4   7   71.94    1.37 
  -7   4   7   75.39    3.12 
  -7   4   7   71.75    1.69 
  -7   4   7   74.09    2.76 
  -7   4   7   72.25    1.59 
   6  -4  -7   10.10    0.69 
  -6  -4   7    8.71    0.40 
   6  -4  -7    9.73    0.54 
  -6  -4   7    9.16    0.41 
   6  -4  -7    9.28    0.63 
  -6  -4   7    8.90    0.32 
  -6  -4   7    9.78    0.50 
   6  -4  -7    9.94    1.09 
  -6  -4   7   10.07    0.40 
  -6   4   7   11.22    0.68 
  -6   4   7    9.94    0.55 
  -6   4   7   10.78    0.53 
  -6   4   7   11.38    0.62 
  -6   4   7   11.02    0.74 
  -6   4   7   10.70    0.88 
  -5  -4   7    1.06    0.17 
  -5  -4   7    1.68    0.26 
   5  -4  -7    4.24    1.18 
  -5  -4   7    1.54    0.22 
   5  -4  -7    1.81    0.71 
   5  -4  -7    1.59    0.35 
   5  -4  -7    1.56    0.96 
   5  -4  -7    2.39    0.82 
   5  -4  -7    1.68    0.37 
  -5  -4   7    1.50    0.23 
  -5  -4   7    1.53    0.16 
   5  -4  -7    1.78    0.82 
  -5  -4   7    1.28    0.30 
  -5  -4   7    1.41    0.22 
  -5  -4   7    1.37    0.26 
  -5  -4   7    1.25    0.24 
   5  -4  -7    2.28    0.51 
  -5  -4   7    1.43    0.19 
  -5   4   7    1.47    0.38 
  -5   4   7    1.90    0.42 
  -5   4   7    1.48    0.31 
  -5   4   7    1.55    0.39 
  -5   4   7    1.83    0.50 
  -5   4   7    2.06    0.42 
  -5   4   7    1.96    0.34 
  -5   4   7    1.37    0.33 
   4  -4  -7   15.03    1.42 
   4  -4  -7   15.38    1.38 
   4  -4  -7   15.97    0.64 
   4  -4  -7   15.30    0.61 
   4  -4  -7   16.29    1.25 
  -4  -4   7   16.36    0.55 
  -4  -4   7   13.40    0.63 
  -4  -4   7   15.35    0.49 
  -4   4   7   16.96    0.56 
  -4   4   7   17.53    0.80 
  -4   4   7   17.12    0.65 
   4   4  -7   17.67    0.54 
  -4   4   7   17.40    0.57 
  -4   4   7   17.75    0.75 
   4   4  -7   18.06    0.50 
  -3  -4   7    7.39    0.45 
  -3  -4   7    7.28    0.53 
   3  -4  -7    7.71    1.14 
   3  -4  -7    7.90    1.10 
   3  -4  -7    6.07    0.48 
   3  -4  -7    7.65    0.44 
   3  -4  -7    6.74    1.22 
  -3  -4   7    7.02    0.52 
  -3   4   7    8.34    0.46 
  -3   4   7    8.33    0.55 
  -3   4   7    7.89    0.51 
  -3   4   7    8.80    0.45 
   3   4  -7    8.37    0.37 
  -3   4   7    6.41    0.62 
   3   4  -7    8.30    0.37 
  -2  -4   7   61.08    1.24 
  -2  -4   7   60.92    1.41 
  -2  -4   7   60.32    1.24 
   2  -4  -7   65.29    2.27 
  -2  -4   7   60.54    1.43 
   2  -4  -7   62.32    1.25 
   2  -4  -7   63.99    2.18 
   2  -4  -7   62.47    1.20 
   2   4  -7   72.49    1.23 
  -2   4   7   74.10    1.53 
  -2   4   7   71.88    1.40 
   2   4  -7   73.14    1.25 
   2   4  -7   73.84    1.80 
  -2   4   7   73.47    1.37 
  -1  -4   7    5.95    0.52 
   1  -4  -7    6.19    0.39 
  -1  -4   7    6.33    0.43 
   1  -4  -7    7.02    1.03 
  -1  -4   7    6.16    0.55 
   1  -4  -7    6.60    1.06 
  -1  -4   7    5.35    0.51 
  -1  -4   7    6.12    0.57 
  -1   4   7    6.40    0.44 
   1   4  -7    7.15    0.71 
  -1   4   7    6.96    0.47 
   1   4  -7    6.69    0.36 
   1   4  -7    7.45    0.35 
   1   4  -7    6.62    0.84 
   1   4  -7    6.67    0.82 
   0  -4  -7   95.44    1.65 
   0  -4   7   98.25    2.04 
   0  -4  -7   97.28    1.64 
   0  -4   7   95.50    1.93 
   0  -4  -7   94.36    1.42 
   0  -4   7   97.12    2.22 
   0  -4  -7   96.00    1.49 
   0  -4  -7   98.09    1.25 
   0  -4   7   96.91    1.72 
   0  -4   7   97.07    3.76 
   0  -4   7  100.84    2.10 
   0  -4   7   95.92    2.06 
   0  -4  -7   96.07    1.41 
   0  -4   7   94.75    1.60 
   0  -4  -7   95.42    1.61 
   0  -4  -7   97.14    1.13 
   0  -4  -7   93.83    1.50 
   0  -4   7   97.39    3.54 
   0  -4   7   94.61    1.83 
   0  -4   7   94.94    1.96 
   0   4   7  111.91    1.86 
   0   4  -7  110.46    2.20 
   0   4  -7  111.39    2.46 
   0   4  -7  108.39    1.69 
   0   4   7  113.68    1.89 
   0   4  -7  112.78    1.50 
   0   4  -7  102.61    2.31 
   0   4  -7  114.73    2.49 
   0   4  -7  113.98    1.72 
   1  -4   7   79.17    3.20 
   1  -4   7   77.16    1.67 
   1  -4   7   75.42    1.64 
   1  -4   7   72.15    1.95 
  -1  -4  -7   78.32    1.07 
   1  -4   7   81.55    3.32 
  -1  -4  -7   78.04    0.95 
  -1  -4  -7   79.42    1.33 
   1  -4   7   78.73    1.45 
  -1  -4  -7   78.30    1.14 
   1  -4   7   78.25    1.78 
  -1  -4  -7   79.70    1.37 
   1  -4   7   80.05    1.88 
  -1  -4  -7   78.07    1.04 
  -1  -4  -7   78.05    1.09 
   1  -4   7   77.11    1.85 
  -1  -4  -7   75.93    1.25 
  -1  -4  -7   78.29    1.26 
   1  -4   7   78.03    1.60 
  -1  -4  -7   78.12    0.84 
  -1  -4  -7   79.15    1.38 
  -1   4  -7   93.25    2.01 
  -1   4  -7   92.59    2.06 
  -1   4  -7   86.51    1.84 
  -1   4  -7   91.06    2.53 
  -1   4  -7   88.94    1.20 
  -1   4  -7   87.67    1.55 
  -1   4  -7   86.64    1.66 
  -1   4  -7   88.45    1.86 
   2  -4   7   24.58    1.18 
   2  -4   7   24.08    0.84 
  -2  -4  -7   24.62    0.62 
   2  -4   7   25.02    0.91 
   2  -4   7   24.53    1.64 
  -2  -4  -7   24.32    0.59 
  -2  -4  -7   24.70    0.61 
   2  -4   7   23.60    0.96 
   2  -4   7   24.87    0.86 
  -2  -4  -7   25.28    0.59 
   2  -4   7   25.30    0.92 
  -2  -4  -7   25.28    0.54 
  -2   4  -7   32.58    1.69 
  -2   4  -7   29.42    1.03 
  -2   4  -7   28.45    0.75 
  -2   4  -7   28.98    1.09 
  -2   4  -7   29.82    1.29 
  -2   4  -7   28.16    1.03 
  -2   4  -7   29.03    0.79 
  -2   4  -7   27.87    0.98 
  -2   4  -7   28.48    0.90 
   3  -4   7   10.22    0.66 
   3  -4   7   10.71    0.38 
   3  -4   7   10.33    0.85 
   3  -4   7    9.49    0.71 
  -3  -4  -7   10.10    0.37 
   3  -4   7   10.85    0.69 
   3  -4   7    9.31    0.67 
  -3  -4  -7   10.05    0.37 
  -3  -4  -7    9.93    0.31 
  -3   4  -7   10.98    0.48 
  -3   4  -7   10.68    0.92 
  -3   4  -7   11.22    0.70 
  -3   4  -7    9.55    0.78 
  -3   4  -7   11.31    0.63 
  -3   4  -7   11.17    0.55 
  -3   4  -7    9.98    0.87 
   4  -4   7   11.95    0.87 
  -4  -4  -7   12.23    0.35 
  -4  -4  -7   11.56    0.34 
   4  -4   7   12.59    0.66 
   4  -4   7   12.07    0.36 
   4  -4   7   12.34    0.69 
  -4  -4  -7   12.01    0.30 
  -4  -4  -7   11.76    0.37 
   4  -4   7   12.09    0.70 
  -4   4  -7   13.69    0.62 
  -4   4  -7   13.81    0.49 
  -4   4  -7   14.05    0.80 
  -4   4  -7   14.26    0.78 
  -4   4  -7   14.34    0.54 
  -4   4  -7   13.83    0.41 
  -4   4  -7   14.22    0.42 
  -4   4  -7   13.75    0.50 
   5  -4   7    3.87    0.54 
   5  -4   7    4.74    0.54 
   5  -4   7    4.19    0.25 
   5  -4   7    3.87    0.48 
  -5  -4  -7    4.18    0.21 
   5  -4   7    4.81    0.49 
  -5   4  -7    4.74    0.31 
  -5   4  -7    4.30    0.28 
  -5   4  -7    4.86    0.42 
  -5   4  -7    4.51    0.33 
  -5   4  -7    4.49    0.21 
  -5   4  -7    4.52    0.30 
   6  -4   7    0.57    0.25 
  -6   4  -7    0.49    0.13 
  -6   4  -7    0.65    0.11 
  -6   4  -7    0.44    0.09 
  -6   4  -7    0.41    0.09 
  -8  -5   7    4.15    0.18 
   8  -5  -7    3.64    0.43 
  -8   5   7    3.16    0.32 
  -8   5   7    3.95    0.28 
  -8   5   7    3.81    0.26 
  -8   5   7    3.80    0.26 
  -8   5   7    4.00    0.28 
   7  -5  -7   23.99    0.78 
  -7  -5   7   24.07    0.40 
  -7  -5   7   24.10    0.49 
  -7   5   7   28.37    0.82 
  -7   5   7   25.80    1.13 
  -6  -5   7    2.03    0.24 
  -6  -5   7    2.50    0.24 
   6  -5  -7    1.24    0.62 
  -6  -5   7    1.99    0.19 
   6  -5  -7    0.07    0.68 
   6  -5  -7    1.73    0.36 
  -6   5   7    3.13    0.50 
  -6   5   7    3.16    0.93 
  -6   5   7    2.35    0.42 
  -6   5   7    2.14    0.96 
   5  -5  -7   22.34    1.36 
  -5  -5   7   24.19    0.55 
  -5  -5   7   23.38    0.62 
   5  -5  -7   23.88    0.65 
   5  -5  -7   24.44    0.73 
   5  -5  -7   23.77    0.74 
   5  -5  -7   23.02    1.56 
  -5  -5   7   24.36    0.59 
  -5  -5   7   24.30    0.58 
  -5  -5   7   23.43    0.49 
  -5   5   7   26.94    1.76 
  -5   5   7   26.87    0.87 
  -5   5   7   26.88    0.84 
  -5   5   7   27.62    0.55 
   5   5  -7   29.09    0.65 
  -5   5   7   27.63    0.97 
   4  -5  -7    2.31    0.27 
   4  -5  -7    2.25    0.25 
  -4  -5   7    2.47    0.16 
  -4  -5   7    2.26    0.28 
   4  -5  -7    1.99    0.43 
   4  -5  -7    2.49    0.35 
  -4  -5   7    2.18    0.17 
  -4  -5   7    2.05    0.20 
  -4  -5   7    2.22    0.16 
  -4  -5   7    2.46    0.31 
  -4  -5   7    2.27    0.24 
   4  -5  -7    2.39    0.35 
   4  -5  -7    2.86    0.88 
   4  -5  -7    2.54    0.42 
   4  -5  -7    1.88    0.40 
  -4  -5   7    1.92    0.35 
  -4  -5   7    2.07    0.37 
  -4  -5   7    2.70    0.34 
   4  -5  -7    3.74    1.02 
  -4   5   7    2.52    0.52 
  -4   5   7    2.92    0.31 
   4   5  -7    2.94    0.28 
  -4   5   7    2.99    0.30 
  -4   5   7    2.91    0.51 
  -4   5   7    2.79    0.35 
   4   5  -7    2.27    0.28 
   3  -5  -7    2.69    0.83 
  -3  -5   7    3.41    0.29 
  -3  -5   7    3.96    0.38 
   3  -5  -7    3.59    0.34 
  -3  -5   7    3.63    0.40 
   3  -5  -7    3.80    0.41 
   3  -5  -7    3.66    0.38 
   3  -5  -7    2.36    0.70 
  -3  -5   7    3.07    0.30 
   3  -5  -7    3.40    0.47 
  -3  -5   7    4.01    0.38 
  -3  -5   7    3.28    0.54 
  -3  -5   7    3.29    0.38 
  -3  -5   7    3.77    0.36 
   3  -5  -7    3.30    0.38 
   3  -5  -7    3.29    0.41 
   3  -5  -7    3.48    0.37 
   3  -5  -7    3.01    0.27 
  -3  -5   7    3.65    0.25 
   3  -5  -7    3.41    0.21 
  -3  -5   7    3.11    0.40 
  -3   5   7    3.65    0.40 
   3   5  -7    4.20    0.29 
  -3   5   7    3.51    0.36 
  -3   5   7    3.84    0.54 
  -3   5   7    3.97    0.36 
   3   5  -7    4.21    0.32 
  -3   5   7    4.48    0.62 
  -2  -5   7   15.33    0.73 
   2  -5  -7   15.77    0.57 
  -2  -5   7   15.26    0.57 
  -2  -5   7   16.11    0.60 
  -2  -5   7   14.99    0.41 
  -2  -5   7   15.20    0.54 
   2  -5  -7   15.38    0.54 
  -2  -5   7   15.54    0.49 
   2  -5  -7   15.17    0.57 
  -2  -5   7   15.67    0.61 
   2  -5  -7   15.21    0.48 
  -2  -5   7   15.08    0.60 
   2  -5  -7   14.91    0.56 
   2  -5  -7   15.28    0.41 
  -2  -5   7   14.82    0.70 
  -2  -5   7   15.32    0.36 
   2  -5  -7   15.92    1.10 
   2  -5  -7   15.28    0.34 
   2  -5  -7   14.05    1.16 
   2  -5  -7   15.04    0.51 
   2  -5  -7   14.17    0.60 
   2  -5  -7   15.02    0.57 
  -2  -5   7   15.28    0.69 
   2   5  -7   18.63    0.55 
   2   5  -7   18.89    0.52 
  -2   5   7   19.93    0.63 
  -2   5   7   18.87    0.62 
  -1  -5   7    9.91    0.64 
   1  -5  -7   10.55    0.47 
   1  -5  -7    9.67    0.42 
   1  -5  -7    9.54    0.49 
   1  -5  -7   10.24    0.36 
  -1  -5   7    9.23    0.46 
   1  -5  -7    9.86    0.35 
  -1  -5   7    9.67    0.37 
  -1  -5   7    9.35    0.55 
  -1  -5   7   10.02    0.33 
   1  -5  -7   12.04    0.62 
  -1  -5   7    9.43    0.70 
  -1  -5   7   11.08    0.68 
   1  -5  -7    9.81    0.49 
   1  -5  -7    8.96    0.43 
  -1  -5   7    9.82    0.49 
  -1  -5   7   10.44    0.52 
   1  -5  -7    8.84    0.43 
  -1  -5   7    9.77    0.63 
   1  -5  -7    9.86    0.31 
   1  -5  -7    9.19    0.46 
   1   5  -7   11.12    0.43 
   1   5  -7   12.24    0.91 
   1   5  -7   11.47    0.39 
  -1   5   7   11.52    0.52 
   1   5  -7   11.76    0.42 
   1   5  -7   11.14    0.63 
  -1   5   7   12.21    0.52 
   0  -5   7    9.63    0.65 
   0  -5  -7    9.42    0.23 
   0  -5   7    9.83    0.63 
   0  -5  -7    9.16    0.40 
   0  -5  -7    8.78    0.42 
   0  -5  -7    9.08    0.41 
   0  -5  -7    9.52    0.27 
   0  -5   7    9.18    0.50 
   0  -5   7   10.16    0.40 
   0  -5   7    9.45    0.38 
   0  -5  -7    9.43    0.26 
   0  -5   7    9.92    0.56 
   0  -5  -7    9.41    0.21 
   0  -5  -7    9.32    0.44 
   0  -5   7    9.31    0.58 
   0  -5  -7   10.01    0.42 
   0  -5  -7    9.32    0.21 
   0  -5   7    9.39    0.71 
   0  -5   7    9.74    0.52 
   0  -5  -7    9.15    0.41 
   0   5  -7   11.21    0.40 
   0   5  -7   11.85    0.38 
   0   5   7   11.65    0.52 
   0   5   7   12.13    0.52 
   0   5  -7   11.13    0.77 
   0   5  -7   10.90    0.41 
   1  -5   7    2.73    0.47 
   1  -5   7    1.83    0.48 
  -1  -5  -7    2.68    0.26 
  -1  -5  -7    3.10    0.29 
  -1  -5  -7    2.87    0.27 
   1  -5   7    2.05    0.52 
   1  -5   7    2.48    0.30 
  -1  -5  -7    2.70    0.27 
  -1  -5  -7    2.77    0.27 
   1  -5   7    2.79    0.49 
   1  -5   7    1.16    0.37 
  -1  -5  -7    2.93    0.29 
   1  -5   7    2.28    0.44 
  -1   5  -7    3.58    0.43 
  -1   5  -7    3.57    0.23 
   1   5   7    3.98    0.38 
  -1   5  -7    3.12    0.58 
  -1   5  -7    3.48    0.43 
  -1   5  -7    3.36    0.55 
   2  -5   7   11.09    0.58 
  -2  -5  -7   10.97    0.32 
   2  -5   7   11.13    0.58 
  -2  -5  -7   10.36    0.37 
   2  -5   7   11.31    0.73 
  -2  -5  -7   11.12    0.37 
   2  -5   7   11.11    0.56 
  -2   5  -7   14.22    0.62 
  -2   5  -7   12.85    0.49 
  -2   5  -7   13.89    0.67 
  -2   5  -7   13.22    1.08 
  -3  -5  -7    0.22    0.12 
   3  -5   7    0.58    0.27 
   3  -5   7    0.49    0.23 
  -3  -5  -7    0.48    0.13 
  -3   5  -7    0.28    0.25 
  -3   5  -7    0.28    0.18 
   4  -5   7    0.09    0.19 
  -4  -5  -7    0.26    0.10 
   4  -5   7    0.22    0.20 
  -4   5  -7    0.11    0.13 
  -4   5  -7    0.24    0.11 
  -4   5  -7   -0.04    0.16 
  -4   5  -7    0.25    0.18 
  -6  -6   7    3.85    0.19 
   6  -6  -7    4.02    0.20 
   6  -6  -7    3.53    0.32 
  -6  -6   7    3.52    0.14 
  -6  -6   7    3.90    0.31 
  -6   6   7    4.79    0.55 
  -6   6   7    3.91    0.37 
  -6   6   7    4.35    0.27 
   5  -6  -7    8.60    0.40 
  -5  -6   7    9.22    0.25 
   5  -6  -7    9.13    0.42 
   5  -6  -7    8.65    0.40 
   5  -6  -7    8.89    0.37 
   5  -6  -7    8.68    0.25 
  -5  -6   7    7.91    0.41 
  -5  -6   7    9.15    0.30 
  -5   6   7   11.10    0.48 
  -5   6   7   10.78    0.56 
   4  -6  -7    3.72    0.16 
  -4  -6   7    3.46    0.36 
  -4  -6   7    4.27    0.27 
   4  -6  -7    3.70    0.32 
   4  -6  -7    3.09    0.35 
   4  -6  -7    3.72    0.21 
   4  -6  -7    3.96    0.37 
   4  -6  -7    3.73    0.35 
  -4  -6   7    2.94    0.20 
   4  -6  -7    3.93    0.31 
  -4  -6   7    4.03    0.24 
  -4  -6   7    3.80    0.26 
   4  -6  -7    4.38    0.34 
   4  -6  -7    3.63    0.24 
  -4   6   7    4.59    0.26 
  -4   6   7    4.29    0.86 
  -4   6   7    4.59    0.47 
   4   6  -7    3.80    0.25 
   3  -6  -7   23.34    0.69 
  -3  -6   7   23.25    0.55 
   3  -6  -7   22.96    0.52 
  -3  -6   7   23.33    0.26 
  -3  -6   7   23.03    0.55 
  -3  -6   7   23.70    0.69 
   3  -6  -7   24.37    0.51 
   3  -6  -7   23.29    0.49 
   3  -6  -7   23.28    0.62 
   3  -6  -7   24.09    0.65 
   3  -6  -7   23.71    0.42 
   3  -6  -7   23.11    0.61 
   3  -6  -7   23.01    0.59 
  -3  -6   7   23.24    0.64 
   3  -6  -7   23.38    0.61 
   3   6  -7   29.83    0.64 
  -3   6   7   28.59    0.66 
  -3   6   7   28.84    0.58 
  -3   6   7   29.37    0.84 
   2  -6  -7   16.01    0.34 
  -2  -6   7   15.12    0.61 
   2  -6  -7   15.67    0.31 
  -2  -6   7   15.69    0.27 
  -2  -6   7   15.83    0.30 
   2  -6  -7   15.79    0.48 
  -2  -6   7   15.90    0.31 
   2  -6  -7   15.75    0.49 
  -2  -6   7   15.73    0.33 
  -2  -6   7   15.90    0.49 
   2  -6  -7   15.76    0.45 
  -2  -6   7   15.38    0.50 
   2  -6  -7   15.82    0.48 
   2  -6  -7   15.55    0.26 
   2  -6  -7   15.47    0.29 
  -2  -6   7   15.79    0.50 
   2  -6  -7   15.31    0.49 
   2  -6  -7   15.57    0.50 
  -2  -6   7   15.69    0.48 
   2   6  -7   17.60    0.42 
   2   6  -7   18.39    0.48 
  -2   6   7   18.86    0.54 
  -2   6   7   18.15    0.47 
  -1  -6   7   -0.06    0.19 
   1  -6  -7    0.04    0.16 
  -1  -6   7   -0.08    0.17 
   1  -6  -7    0.18    0.15 
  -1  -6   7    0.28    0.15 
   1  -6  -7    0.03    0.17 
  -1  -6   7    0.53    0.32 
  -1  -6   7    0.04    0.13 
   1  -6  -7    0.53    0.18 
  -1  -6   7   -0.04    0.11 
  -1  -6   7   -0.28    0.27 
   1  -6  -7    0.13    0.04 
  -1  -6   7    0.18    0.19 
  -1  -6   7    0.29    0.15 
   1  -6  -7    0.10    0.17 
   1   6  -7    0.19    0.14 
   1   6  -7    0.10    0.16 
  -1   6   7   -0.02    0.16 
   1   6  -7    0.44    0.22 
   0  -6  -7    0.89    0.15 
   0  -6   7    0.90    0.24 
   0  -6   7    0.80    0.20 
   0  -6   7    0.44    0.23 
   0  -6  -7    0.97    0.19 
   0  -6  -7    1.21    0.23 
   0  -6   7    1.02    0.20 
   0  -6   7    0.49    0.21 
   0  -6  -7    0.73    0.16 
   0  -6   7    0.97    0.15 
   0  -6   7    0.89    0.31 
   0  -6  -7    1.06    0.23 
   0  -6  -7    1.01    0.23 
   0  -6   7    1.03    0.24 
   0   6  -7    1.36    0.32 
   0   6  -7    1.08    0.18 
   0   6  -7    0.93    0.42 
  -1  -6  -7    6.31    0.28 
   1  -6   7    6.31    0.25 
   1  -6   7    6.33    0.32 
   1  -6   7    6.99    0.36 
   1  -6   7    6.83    0.39 
  -1  -6  -7    6.03    0.33 
   1  -6   7    6.46    0.24 
  -1  -6  -7    6.69    0.24 
   1  -6   7    5.78    0.43 
  -1   6  -7    5.88    0.91 
  -1   6  -7    5.66    0.68 
  -1   6  -7    6.87    0.35 
  -1   6  -7    7.00    0.45 
  -1   6  -7    6.87    0.40 
   2  -6   7    9.41    0.25 
   2  -6   7    9.52    0.39 
  -2  -6  -7    9.72    0.34 
  -2  -6  -7    9.12    0.28 
  -2  -6  -7    9.42    0.21 
  -2   6  -7   10.47    0.46 
  -2   6  -7   11.88    0.60 
 -12   0   8    1.90    0.20 
 -12   0   8    1.45    0.21 
 -12   0   8    1.66    0.15 
 -11   0   8    0.62    0.19 
 -11   0   8    1.08    0.18 
 -11   0   8    1.22    0.26 
 -11   0   8    0.44    0.14 
 -10   0   8    9.99    0.40 
 -10   0   8    9.80    0.33 
 -10   0   8    9.65    0.38 
 -10   0   8   10.01    0.39 
 -10   0   8    9.75    0.49 
  10   0  -8    9.43    0.43 
  10   0  -8    9.74    0.46 
 -10   0   8    9.85    0.48 
   9   0  -8    8.75    0.42 
  -9   0   8    8.95    0.33 
  -9   0   8    8.51    0.43 
  -9   0   8    9.27    0.29 
   9   0  -8    9.45    0.47 
  -9   0   8    9.48    0.47 
  -9   0   8    9.77    0.53 
  -9   0   8    9.04    0.40 
  -9   0   8    9.39    0.27 
  -9   0   8    9.47    0.48 
  -9   0   8    9.13    0.36 
   8   0  -8   18.13    0.61 
  -8   0   8   17.27    0.51 
  -8   0   8   15.42    0.57 
  -8   0   8   17.37    0.51 
  -8   0   8   18.36    0.68 
   8   0  -8   17.78    0.56 
  -8   0   8   17.24    0.62 
   7   0  -8   45.93    0.91 
  -7   0   8   45.45    1.07 
   7   0  -8   45.06    0.99 
  -6   0   8   21.16    0.73 
   6   0  -8   22.01    0.56 
  -6   0   8   21.65    0.68 
  -6   0   8   22.59    0.63 
   6   0  -8   22.40    0.58 
  -6   0   8   22.11    0.66 
   5   0  -8  159.80    3.49 
  -5   0   8  158.76    2.75 
  -5   0   8  158.31    2.77 
   5   0  -8  150.68    3.64 
  -5   0   8  157.19    3.17 
  -5   0   8  158.62    2.86 
  -5   0   8  157.60    2.68 
   5   0  -8  154.47    2.22 
  -5   0   8  158.31    2.48 
   4   0  -8  228.26    4.80 
  -4   0   8  239.49    4.41 
   4   0  -8  240.64    4.60 
  -4   0   8  238.56    3.52 
  -4   0   8  240.62    3.97 
   4   0  -8  240.64    4.24 
  -4   0   8  236.05    3.62 
  -4   0   8  238.19    4.09 
   4   0  -8  243.77    4.27 
  -4   0   8  238.43    3.80 
  -4   0   8  238.40    3.99 
  -3   0   8    0.32    0.26 
  -3   0   8    0.51    0.30 
   3   0  -8   -0.21    0.35 
  -3   0   8   -0.05    0.26 
  -3   0   8    0.35    0.21 
   3   0  -8   -0.34    0.40 
   3   0  -8    0.02    0.34 
   3   0  -8    0.04    0.46 
   3   0  -8   -0.31    0.64 
  -3   0   8    0.51    0.33 
   3   0  -8   -0.09    0.53 
  -3   0   8    0.14    0.18 
   2   0  -8   75.21    2.50 
   2   0  -8   70.01    2.29 
   2   0  -8   71.53    1.74 
  -2   0   8   73.97    1.90 
  -2   0   8   74.06    1.33 
  -2   0   8   73.63    1.42 
   2   0  -8   72.87    1.54 
   2   0  -8   75.31    2.05 
   2   0  -8   74.10    2.65 
  -2   0   8   76.36    1.73 
   2   0  -8   75.50    1.99 
  -2   0   8   73.33    1.67 
  -2   0   8   73.78    1.49 
   1   0  -8   28.49    0.95 
   1   0  -8   27.95    1.57 
  -1   0   8   28.53    0.81 
   1   0  -8   28.57    0.79 
   1   0  -8   28.86    1.20 
  -1   0   8   29.13    0.75 
  -1   0   8   30.01    1.03 
   1   0  -8   30.13    0.83 
  -1   0   8   27.26    0.85 
   1   0  -8   29.00    1.18 
   1   0  -8   28.40    1.49 
   1   0  -8   28.76    1.43 
  -1   0   8   27.98    0.95 
   1   0  -8   30.69    1.57 
   0   0   8   85.30    1.58 
   0   0  -8   87.70    2.70 
   0   0  -8   82.53    2.26 
   0   0   8   83.41    1.72 
   0   0  -8   85.70    1.61 
   0   0   8   86.16    1.98 
   0   0  -8   85.20    1.63 
   0   0  -8   86.42    2.34 
   0   0  -8   82.98    2.36 
   0   0   8   84.14    1.57 
   0   0   8   83.72    1.62 
   0   0  -8   86.80    1.95 
  -1   0  -8    3.32    0.65 
   1   0   8    3.87    0.40 
   1   0   8    3.78    0.48 
  -1   0  -8    3.24    0.75 
  -1   0  -8    3.46    0.30 
  -1   0  -8    4.06    0.78 
  -1   0  -8    3.29    0.31 
   1   0   8    3.55    0.41 
  -1   0  -8    3.42    0.27 
   2   0   8   40.18    1.08 
  -2   0  -8   44.25    1.51 
   2   0   8   41.99    1.14 
  -2   0  -8   41.17    0.91 
  -2   0  -8   40.68    0.85 
   2   0   8   40.75    1.06 
  -2   0  -8   42.05    1.38 
   3   0   8   39.85    1.07 
  -3   0  -8   40.78    0.90 
  -3   0  -8   40.67    1.30 
   3   0   8   40.68    1.11 
  -3   0  -8   40.15    1.19 
  -4   0  -8   14.52    0.51 
  -4   0  -8   14.22    0.43 
  -4   0  -8   13.88    0.50 
  -4   0  -8   13.96    0.45 
  -4   0  -8   13.20    0.46 
  -4   0  -8   13.30    0.49 
   4   0   8   13.90    0.73 
   4   0   8   14.38    0.69 
  -4   0  -8   13.95    0.41 
  -4   0  -8   13.55    0.65 
  -4   0  -8   13.92    0.47 
  -4   0  -8   14.10    0.36 
  -5   0  -8    2.37    0.28 
   5   0   8    2.34    0.52 
  -5   0  -8    2.00    0.27 
  -5   0  -8    2.21    0.12 
   5   0   8    1.89    0.44 
  -5   0  -8    1.88    0.42 
  -5   0  -8    2.07    0.24 
  -5   0  -8    1.77    0.26 
  -5   0  -8    2.15    0.26 
  -6   0  -8   11.11    0.35 
  -6   0  -8   10.78    0.32 
  -6   0  -8   10.93    0.32 
   6   0   8   10.53    0.58 
  -6   0  -8   11.14    0.54 
  -6   0  -8   10.81    0.35 
  -7   0  -8   11.03    0.47 
  -7   0  -8   10.60    0.28 
  -7   0  -8   10.64    0.26 
 -12   1   8    7.88    0.28 
  11  -1  -8    4.33    0.34 
 -11  -1   8    4.16    0.33 
 -11  -1   8    4.28    0.22 
 -11  -1   8    3.95    0.18 
 -11   1   8    4.60    0.30 
 -11   1   8    4.63    0.28 
 -11   1   8    4.48    0.26 
 -11   1   8    4.21    0.31 
 -11   1   8    4.59    0.28 
 -11   1   8    4.82    0.27 
  10  -1  -8   11.08    0.49 
 -10  -1   8   10.82    0.33 
  10  -1  -8   10.59    0.44 
 -10  -1   8   11.03    0.38 
 -10  -1   8   11.62    0.37 
 -10   1   8   11.56    0.31 
 -10   1   8   11.45    0.26 
 -10   1   8   11.32    0.45 
 -10   1   8   11.53    0.27 
 -10   1   8   11.23    0.49 
 -10   1   8   10.73    0.41 
 -10   1   8   11.23    0.44 
 -10   1   8   11.27    0.46 
  -9  -1   8    0.54    0.19 
  -9  -1   8    0.34    0.17 
  -9  -1   8    0.13    0.20 
  -9  -1   8    0.53    0.23 
   9  -1  -8    0.25    0.24 
   9  -1  -8    0.59    0.21 
  -9  -1   8    0.40    0.06 
  -9   1   8    0.77    0.27 
  -9   1   8    0.41    0.10 
  -9   1   8    0.49    0.24 
  -9   1   8    0.29    0.20 
  -9   1   8    0.96    0.20 
  -9   1   8    0.37    0.21 
  -9   1   8    0.30    0.22 
  -9   1   8    1.03    0.25 
  -9   1   8    0.45    0.21 
  -9   1   8    0.37    0.24 
  -8  -1   8   17.79    0.35 
  -8  -1   8   17.89    0.58 
  -8  -1   8   18.01    0.43 
  -8  -1   8   17.88    0.57 
  -8  -1   8   18.38    0.46 
  -8  -1   8   17.45    0.52 
   8  -1  -8   18.96    0.64 
   8  -1  -8   17.89    0.57 
  -8  -1   8   17.19    0.65 
  -8  -1   8   17.44    0.42 
  -8   1   8   18.33    0.64 
  -8   1   8   18.10    0.47 
  -8   1   8   18.09    0.58 
   8   1  -8   18.46    0.55 
  -8   1   8   19.25    0.66 
  -8   1   8   17.69    0.58 
  -8   1   8   17.60    0.67 
  -8   1   8   18.91    0.42 
  -8   1   8   18.87    0.68 
  -8   1   8   19.03    0.66 
  -7  -1   8   19.07    0.66 
   7  -1  -8   18.94    0.62 
  -7  -1   8   20.06    0.59 
  -7  -1   8   20.07    0.62 
   7  -1  -8   20.16    0.58 
  -7  -1   8   18.87    0.52 
  -7   1   8   20.48    0.67 
   7   1  -8   19.93    0.53 
  -7   1   8   20.22    0.69 
  -7   1   8   19.89    0.73 
   7   1  -8   20.93    0.56 
  -6  -1   8   20.11    0.67 
  -6  -1   8   20.02    0.59 
   6  -1  -8   19.68    0.63 
   6  -1  -8   20.37    0.56 
   6  -1  -8   20.28    1.50 
  -6   1   8   21.63    0.80 
   6   1  -8   20.66    0.55 
  -6   1   8   20.74    0.79 
  -6   1   8   22.01    0.69 
   6   1  -8   22.41    0.59 
  -6   1   8   21.84    0.80 
   5  -1  -8   28.06    0.65 
   5  -1  -8   29.12    1.53 
  -5  -1   8   28.80    0.85 
  -5  -1   8   27.76    0.69 
  -5  -1   8   28.23    0.76 
  -5  -1   8   26.53    0.98 
  -5  -1   8   28.01    0.76 
  -5  -1   8   30.32    0.77 
   5  -1  -8   29.83    1.37 
  -5   1   8   31.95    0.97 
   5   1  -8   30.89    0.68 
   5   1  -8   32.38    1.43 
  -5   1   8   31.10    0.97 
  -5   1   8   32.45    1.07 
  -5   1   8   32.03    1.18 
  -5   1   8   31.80    0.86 
   5   1  -8   31.03    1.35 
  -5   1   8   33.10    1.03 
  -4  -1   8    8.60    0.46 
  -4  -1   8    8.64    0.52 
   4  -1  -8   10.74    0.91 
   4  -1  -8    8.10    0.76 
  -4  -1   8    8.97    0.64 
  -4  -1   8    7.86    0.51 
   4  -1  -8    7.89    0.35 
  -4  -1   8    8.43    0.42 
  -4  -1   8    8.34    0.49 
   4  -1  -8    9.02    1.25 
   4  -1  -8    7.39    1.12 
   4   1  -8    7.93    1.11 
  -4   1   8    8.65    0.56 
  -4   1   8    8.82    0.54 
  -4   1   8    7.83    0.64 
  -4   1   8    8.08    0.63 
   4   1  -8    8.76    0.33 
   4   1  -8    8.19    0.78 
  -4   1   8    7.54    0.41 
   4   1  -8    8.95    0.72 
  -4   1   8    8.19    0.47 
   4   1  -8    8.29    0.77 
   3  -1  -8   79.37    3.04 
  -3  -1   8   82.42    1.70 
   3  -1  -8   80.63    2.03 
  -3  -1   8   82.16    1.53 
  -3  -1   8   85.67    1.82 
   3  -1  -8   80.39    2.24 
  -3  -1   8   80.30    1.75 
   3  -1  -8   82.74    2.72 
  -3  -1   8   83.49    2.07 
  -3  -1   8   80.92    1.51 
   3  -1  -8   77.58    2.49 
   3  -1  -8   78.33    1.64 
   3   1  -8   84.07    2.49 
   3   1  -8   87.83    2.11 
  -3   1   8   84.08    1.92 
  -3   1   8   87.25    2.13 
  -3   1   8   85.75    1.51 
   3   1  -8   86.54    2.17 
  -3   1   8   84.90    1.61 
   3   1  -8   85.77    2.11 
  -3   1   8   85.88    1.89 
   3   1  -8   88.56    2.34 
  -3   1   8   86.20    1.68 
  -2  -1   8    8.57    0.56 
   2  -1  -8    6.16    0.96 
  -2  -1   8    6.22    0.47 
  -2  -1   8    6.54    0.61 
  -2  -1   8    6.58    0.39 
   2  -1  -8    6.23    0.40 
   2  -1  -8    7.60    1.09 
   2  -1  -8    6.40    1.11 
   2  -1  -8    5.44    0.74 
   2  -1  -8    6.57    1.09 
   2  -1  -8    5.56    0.65 
  -2  -1   8    6.21    0.46 
   2  -1  -8    7.53    0.42 
  -2  -1   8    6.56    0.51 
   2  -1  -8    5.53    0.87 
  -2   1   8    5.67    0.50 
  -2   1   8    6.82    0.43 
   2   1  -8    8.39    1.07 
   2   1  -8    6.47    0.71 
   2   1  -8    7.61    0.84 
   2   1  -8    5.75    0.80 
  -2   1   8    6.06    0.50 
   2   1  -8    5.83    0.85 
   2   1  -8    5.43    0.67 
  -2   1   8    6.33    0.44 
  -2   1   8    6.79    0.50 
   1  -1  -8    1.70    0.49 
   1  -1  -8    2.07    0.28 
  -1  -1   8    1.93    0.43 
   1  -1  -8    3.73    0.90 
   1  -1  -8    2.74    0.81 
  -1  -1   8    2.02    0.40 
  -1  -1   8    2.82    0.48 
  -1  -1   8    1.79    0.42 
  -1  -1   8    1.95    0.34 
   1  -1  -8    2.36    0.30 
   1  -1  -8    3.30    0.88 
   1  -1  -8    1.72    0.63 
  -1   1   8    2.43    0.35 
  -1   1   8    1.89    0.39 
   1   1  -8    2.93    0.74 
  -1   1   8    2.36    0.33 
   1   1  -8    1.98    0.52 
   1   1  -8    2.28    0.36 
  -1   1   8    2.24    0.38 
  -1   1   8    1.98    0.33 
  -1   1   8    2.17    0.47 
   1   1  -8    3.62    0.69 
   1   1  -8    1.25    0.69 
   1   1  -8    1.92    0.49 
   1   1  -8    2.27    0.73 
   0  -1  -8    0.34    0.15 
   0  -1   8    0.04    0.22 
   0  -1  -8    0.40    0.48 
   0  -1  -8   -0.01    0.17 
   0  -1  -8    0.39    0.62 
   0  -1  -8    0.14    0.58 
   0  -1   8   -0.06    0.24 
   0  -1  -8    0.02    0.16 
   0  -1  -8    0.15    0.51 
   0  -1   8   -0.33    0.23 
   0  -1   8    0.02    0.26 
   0  -1   8    0.04    0.28 
   0   1  -8    0.31    0.55 
   0   1  -8    0.13    0.44 
   0   1   8    0.08    0.22 
   0   1  -8   -0.35    0.37 
   0   1   8    0.04    0.28 
   0   1  -8    1.24    0.56 
   0   1   8    0.50    0.24 
   0   1  -8    0.39    0.60 
   0   1  -8   -0.16    0.18 
   0   1  -8    0.07    0.18 
   0   1  -8    0.90    0.53 
   1  -1   8   43.55    1.02 
  -1  -1  -8   44.95    1.48 
  -1  -1  -8   43.40    0.91 
  -1  -1  -8   43.64    1.54 
  -1  -1  -8   43.43    0.88 
   1  -1   8   42.65    1.11 
   1  -1   8   42.38    1.15 
   1  -1   8   45.34    1.07 
   1  -1   8   41.11    1.10 
  -1   1  -8   44.06    1.61 
   1   1   8   46.51    1.13 
  -1   1  -8   44.99    1.60 
   1   1   8   46.42    1.25 
  -1   1  -8   47.17    1.11 
  -1   1  -8   48.72    1.39 
  -1   1  -8   43.61    1.61 
  -1   1  -8   47.18    1.10 
  -2  -1  -8  184.71    2.72 
  -2  -1  -8  184.36    3.35 
   2  -1   8  185.44    2.89 
   2  -1   8  184.46    2.95 
   2  -1   8  186.15    2.96 
   2  -1   8  182.44    3.22 
  -2  -1  -8  187.94    3.29 
  -2   1  -8  198.02    3.73 
   2   1   8  190.74    3.03 
  -2   1  -8  191.32    3.14 
  -2   1  -8  190.34    3.61 
  -2   1  -8  191.12    3.64 
   2   1   8  191.40    2.97 
  -3  -1  -8   45.83    0.94 
  -3  -1  -8   46.53    0.81 
  -3  -1  -8   46.10    0.95 
  -3  -1  -8   46.07    0.88 
  -3  -1  -8   46.15    0.87 
   3  -1   8   48.11    1.18 
  -3  -1  -8   46.71    0.86 
  -3  -1  -8   46.79    0.82 
   3  -1   8   45.96    1.15 
   3  -1   8   47.44    1.18 
  -3  -1  -8   46.49    0.94 
  -3  -1  -8   46.50    0.70 
  -3  -1  -8   48.23    0.96 
  -3   1  -8   46.74    0.98 
  -3   1  -8   46.80    0.79 
   3   1   8   48.66    1.23 
  -3   1  -8   47.30    1.01 
  -3   1  -8   46.05    0.75 
  -3   1  -8   47.61    0.92 
   3   1   8   47.65    1.15 
  -3   1  -8   47.18    1.45 
  -3   1  -8   47.39    1.23 
  -3   1  -8   47.58    1.42 
  -3   1  -8   47.70    0.98 
  -3   1  -8   47.23    0.99 
  -4  -1  -8    7.22    0.33 
  -4  -1  -8    7.59    0.36 
  -4  -1  -8    8.00    0.38 
   4  -1   8    7.49    0.59 
   4  -1   8    8.23    0.58 
  -4  -1  -8    7.63    0.20 
  -4  -1  -8    7.83    0.55 
   4  -1   8    7.60    0.57 
  -4  -1  -8    7.72    0.37 
  -4  -1  -8    7.45    0.19 
  -4  -1  -8    7.52    0.22 
  -4  -1  -8    7.27    0.36 
  -4  -1  -8    8.22    0.38 
  -4   1  -8    8.35    0.64 
  -4   1  -8    7.58    0.25 
  -4   1  -8    8.46    0.58 
  -4   1  -8    7.48    0.56 
  -4   1  -8    8.15    0.41 
   4   1   8    7.96    0.67 
  -4   1  -8    7.54    0.30 
  -4   1  -8    7.90    0.41 
  -4   1  -8    7.45    0.38 
  -4   1  -8    7.83    0.40 
  -4   1  -8    7.79    0.39 
  -4   1  -8    7.85    0.38 
   4   1   8    7.85    0.56 
  -4   1  -8    7.61    0.42 
  -5  -1  -8    1.20    0.30 
   5  -1   8    1.88    0.49 
  -5  -1  -8    1.08    0.24 
   5  -1   8    1.73    0.42 
  -5  -1  -8    0.63    0.16 
  -5  -1  -8    1.20    0.22 
  -5  -1  -8    1.24    0.20 
  -5  -1  -8    1.24    0.20 
  -5   1  -8    1.08    0.18 
  -5   1  -8    1.35    0.40 
  -5   1  -8    1.16    0.17 
  -5   1  -8    1.29    0.25 
  -5   1  -8    1.51    0.26 
  -5   1  -8    1.04    0.18 
  -5   1  -8    1.59    0.26 
  -5   1  -8    1.18    0.26 
  -5   1  -8    1.36    0.30 
  -5   1  -8    1.63    0.23 
  -6  -1  -8   -0.04    0.23 
   6  -1   8    0.09    0.29 
  -6  -1  -8    0.03    0.12 
  -6  -1  -8    0.07    0.11 
  -6   1  -8    0.36    0.16 
  -6   1  -8    0.01    0.13 
  -6   1  -8    0.08    0.14 
  -6   1  -8    0.04    0.19 
  -7  -1  -8   40.80    0.51 
  -7  -1  -8   41.12    0.60 
  -7  -1  -8   40.25    0.91 
  -7   1  -8   47.82    1.01 
 -11  -2   8    7.50    0.14 
 -11  -2   8    7.47    0.22 
  11  -2  -8    7.46    0.30 
 -11   2   8    7.59    0.32 
 -11   2   8    7.65    0.27 
 -11   2   8    8.08    0.33 
 -11   2   8    7.51    0.33 
  10  -2  -8   26.62    0.57 
  10  -2  -8   26.13    0.69 
 -10  -2   8   26.78    0.53 
  10  -2  -8   26.60    0.75 
 -10  -2   8   26.94    0.45 
 -10   2   8   27.79    0.66 
 -10   2   8   27.41    0.57 
 -10   2   8   27.61    0.48 
 -10   2   8   27.95    0.60 
 -10   2   8   28.36    0.68 
 -10   2   8   27.91    0.69 
 -10   2   8   27.65    0.69 
   9  -2  -8   29.91    0.64 
  -9  -2   8   30.28    0.63 
   9  -2  -8   31.08    0.80 
   9  -2  -8   30.76    0.77 
  -9  -2   8   30.54    0.55 
  -9  -2   8   31.79    0.94 
   9  -2  -8   29.22    1.76 
  -9   2   8   31.72    0.62 
  -9   2   8   32.80    0.57 
  -9   2   8   31.95    0.87 
  -9   2   8   32.31    0.83 
  -9   2   8   33.26    0.80 
  -9   2   8   31.37    0.89 
  -9   2   8   32.55    0.82 
  -9   2   8   31.90    0.80 
  -9   2   8   33.54    0.70 
  -8  -2   8   19.98    0.69 
  -8  -2   8   20.27    0.46 
  -8  -2   8   19.60    0.57 
   8  -2  -8   19.60    0.64 
   8  -2  -8   19.17    0.77 
   8  -2  -8   19.04    0.50 
  -8  -2   8   19.88    0.53 
   8  -2  -8   20.69    1.58 
  -8  -2   8   19.24    0.55 
   8  -2  -8   19.58    0.60 
  -8   2   8   20.38    0.72 
  -8   2   8   22.16    0.83 
  -8   2   8   20.48    0.65 
  -8   2   8   20.83    0.55 
  -8   2   8   21.05    0.66 
  -8   2   8   20.94    0.57 
  -8   2   8   21.66    0.69 
  -8   2   8   20.57    0.57 
  -8   2   8   20.48    0.73 
  -7  -2   8  100.54    1.85 
   7  -2  -8  104.69    1.71 
   7  -2  -8  105.13    3.04 
  -7  -2   8  103.80    1.72 
  -7  -2   8  104.97    1.35 
   7  -2  -8  104.18    1.76 
  -7   2   8  101.54    1.98 
  -7   2   8  103.02    2.01 
  -7   2   8   97.71    2.05 
  -7   2   8   98.14    1.82 
  -6  -2   8    3.63    0.34 
  -6  -2   8    3.95    0.40 
  -6  -2   8    4.37    0.36 
  -6  -2   8    3.59    0.38 
   6  -2  -8    3.52    0.37 
  -6  -2   8    3.57    0.38 
   6  -2  -8    3.71    0.31 
   6  -2  -8    3.42    0.82 
  -6   2   8    4.67    0.53 
   6   2  -8    4.03    0.30 
  -6   2   8    3.96    0.44 
  -6   2   8    4.31    0.50 
   6   2  -8    4.14    0.28 
  -5  -2   8   44.49    1.00 
   5  -2  -8   43.78    1.81 
   5  -2  -8   43.09    0.93 
  -5  -2   8   42.31    0.94 
   5  -2  -8   45.69    0.92 
  -5  -2   8   43.61    1.07 
   5  -2  -8   43.72    2.23 
   5   2  -8   47.08    0.92 
  -5   2   8   47.89    1.13 
  -5   2   8   48.79    1.03 
  -5   2   8   48.44    1.13 
  -5   2   8   47.74    1.33 
   5   2  -8   48.88    0.91 
  -5   2   8   47.34    1.38 
  -5   2   8   47.91    1.37 
  -4  -2   8   33.74    0.83 
  -4  -2   8   32.61    0.94 
   4  -2  -8   33.89    1.01 
  -4  -2   8   33.25    1.15 
   4  -2  -8   34.26    1.94 
   4  -2  -8   31.06    1.80 
  -4  -2   8   34.76    0.99 
  -4  -2   8   32.78    0.86 
   4  -2  -8   33.89    1.60 
   4  -2  -8   32.98    2.15 
  -4  -2   8   34.57    0.87 
  -4  -2   8   32.85    0.79 
  -4   2   8   37.87    1.20 
   4   2  -8   36.62    0.77 
  -4   2   8   36.11    0.98 
   4   2  -8   38.24    1.42 
  -4   2   8   34.05    1.21 
  -4   2   8   39.33    1.02 
   4   2  -8   37.70    0.75 
  -4   2   8   35.55    0.90 
   3  -2  -8    2.50    0.34 
  -3  -2   8    2.93    0.44 
  -3  -2   8    2.63    0.42 
   3  -2  -8    1.62    0.76 
  -3  -2   8    2.71    0.46 
   3  -2  -8    2.66    0.89 
   3  -2  -8    3.52    0.97 
   3  -2  -8    3.51    0.91 
  -3  -2   8    2.65    0.39 
   3  -2  -8    3.48    0.63 
   3  -2  -8    3.42    0.36 
   3  -2  -8    3.71    0.99 
  -3  -2   8    2.52    0.28 
  -3  -2   8    3.41    0.40 
  -3  -2   8    2.75    0.37 
  -3   2   8    3.11    0.38 
  -3   2   8    3.71    0.45 
   3   2  -8    3.26    0.68 
   3   2  -8    3.07    0.25 
  -3   2   8    2.98    0.35 
   3   2  -8    3.01    0.23 
  -3   2   8    3.43    0.39 
   3   2  -8    1.59    0.43 
   3   2  -8    1.67    0.60 
  -3   2   8    3.69    0.48 
   3   2  -8    2.44    0.60 
   2  -2  -8    8.01    1.14 
  -2  -2   8   10.37    0.53 
  -2  -2   8   10.01    0.72 
   2  -2  -8   10.21    1.32 
   2  -2  -8   10.23    0.47 
  -2  -2   8   10.67    0.63 
   2  -2  -8   11.50    1.19 
  -2  -2   8    9.48    0.65 
  -2  -2   8   10.07    0.59 
   2  -2  -8   10.36    0.91 
   2  -2  -8   10.38    1.08 
  -2  -2   8    9.83    0.54 
  -2  -2   8    9.98    0.61 
   2  -2  -8    9.31    0.44 
  -2  -2   8   10.10    0.54 
  -2   2   8   10.92    0.52 
   2   2  -8    9.55    0.82 
  -2   2   8    9.14    0.59 
   2   2  -8   10.36    0.44 
  -2   2   8   10.75    0.55 
  -2   2   8    9.94    0.64 
  -2   2   8   10.40    0.46 
   2   2  -8   10.83    0.37 
   2   2  -8    9.72    0.87 
   2   2  -8   11.27    0.76 
  -2   2   8   10.58    0.59 
   2   2  -8   10.50    1.00 
   1  -2  -8   14.50    1.33 
   1  -2  -8   12.91    0.48 
   1  -2  -8   13.52    0.51 
  -1  -2   8   13.43    0.72 
   1  -2  -8   13.01    1.18 
   1  -2  -8   12.82    1.20 
  -1  -2   8   12.77    0.61 
   1  -2  -8   12.90    0.48 
  -1  -2   8   15.91    0.67 
  -1  -2   8   11.29    0.65 
  -1  -2   8   14.26    0.73 
  -1  -2   8   12.60    0.53 
  -1  -2   8   12.63    0.84 
  -1   2   8   13.83    0.64 
   1   2  -8   13.15    0.40 
  -1   2   8   13.41    0.57 
   1   2  -8   13.84    0.97 
   1   2  -8   13.40    0.94 
   1   2  -8   15.23    0.96 
   1   2  -8   12.55    0.43 
  -1   2   8   14.58    0.58 
   1   2  -8   12.88    0.79 
   1   2  -8   13.59    1.11 
   0  -2   8   34.06    1.00 
   0  -2   8   36.38    1.02 
   0  -2  -8   34.34    1.54 
   0  -2  -8   34.85    0.78 
   0  -2  -8   34.65    0.80 
   0  -2   8   34.51    0.91 
   0  -2  -8   33.57    1.45 
   0  -2   8   35.90    1.18 
   0   2  -8   36.40    1.27 
   0   2  -8   37.24    1.66 
   0   2  -8   34.81    1.50 
   0   2   8   37.24    0.95 
   0   2  -8   37.18    1.31 
   0   2   8   35.30    0.97 
   0   2  -8   35.07    1.05 
   0   2  -8   36.27    1.09 
   1  -2   8   43.21    1.06 
  -1  -2  -8   42.57    1.50 
   1  -2   8   43.89    1.11 
   1  -2   8   44.02    1.20 
  -1  -2  -8   42.45    0.90 
  -1  -2  -8   40.06    1.37 
   1  -2   8   41.62    1.12 
   1  -2   8   42.70    1.02 
   1   2   8   46.79    1.10 
  -1   2  -8   56.31    1.97 
  -1   2  -8   45.67    1.59 
  -1   2  -8   44.42    1.64 
  -1   2  -8   47.67    1.17 
  -1   2  -8   47.04    1.38 
   1   2   8   47.12    1.15 
   2  -2   8    5.35    0.56 
  -2  -2  -8    6.19    0.45 
   2  -2   8    5.78    0.59 
  -2  -2  -8    5.24    0.34 
   2  -2   8    5.33    0.51 
   2  -2   8    5.18    0.52 
   2  -2   8    5.34    0.57 
   2   2   8    5.06    0.46 
  -2   2  -8    5.86    0.69 
   2   2   8    6.27    0.55 
  -2   2  -8    4.91    0.41 
  -2   2  -8    6.06    0.80 
  -2   2  -8    5.20    0.79 
  -2   2  -8    4.90    0.57 
  -2   2  -8    5.28    0.38 
  -3  -2  -8    7.54    0.21 
   3  -2   8    8.04    0.50 
   3  -2   8    7.76    0.57 
  -3  -2  -8    7.55    0.38 
  -3  -2  -8    7.40    0.34 
  -3  -2  -8    7.37    0.37 
   3  -2   8    7.64    0.70 
  -3  -2  -8    7.82    0.38 
  -3  -2  -8    7.62    0.24 
   3  -2   8    7.05    0.59 
   3  -2   8    8.21    0.68 
   3  -2   8    8.32    0.56 
  -3  -2  -8    8.10    0.21 
   3  -2   8    8.39    0.79 
   3  -2   8    7.66    0.59 
  -3  -2  -8    8.20    0.37 
  -3  -2  -8    7.92    0.38 
  -3   2  -8    6.66    0.69 
  -3   2  -8    8.01    0.36 
  -3   2  -8    7.72    0.50 
  -3   2  -8    7.03    0.42 
  -3   2  -8    8.12    0.42 
  -3   2  -8    7.83    0.52 
  -3   2  -8    8.13    0.37 
  -3   2  -8    8.43    0.46 
  -3   2  -8    7.68    0.75 
  -3   2  -8    8.61    0.42 
   4  -2   8   23.51    0.99 
   4  -2   8   25.25    0.83 
  -4  -2  -8   25.79    0.57 
  -4  -2  -8   24.91    0.60 
  -4  -2  -8   24.54    0.56 
   4  -2   8   25.01    0.99 
  -4  -2  -8   24.33    0.59 
   4  -2   8   24.29    0.67 
  -4  -2  -8   24.70    0.51 
   4  -2   8   24.87    0.88 
   4  -2   8   24.37    0.82 
  -4   2  -8   26.56    0.55 
  -4   2  -8   26.81    0.69 
  -4   2  -8   26.55    0.65 
  -4   2  -8   26.48    0.50 
  -4   2  -8   26.74    0.69 
  -4   2  -8   26.39    0.72 
  -4   2  -8   26.56    0.96 
  -4   2  -8   26.25    0.65 
  -4   2  -8   26.13    0.69 
  -4   2  -8   26.45    0.87 
  -4   2  -8   26.28    0.41 
  -4   2  -8   27.96    1.02 
   5  -2   8   21.82    0.79 
  -5  -2  -8   22.33    0.51 
   5  -2   8   22.36    0.96 
  -5  -2  -8   22.65    0.44 
   5  -2   8   22.57    0.75 
   5  -2   8   22.69    0.60 
  -5  -2  -8   22.05    0.72 
  -5  -2  -8   22.09    0.53 
  -5   2  -8   24.44    0.45 
  -5   2  -8   23.82    0.79 
  -5   2  -8   24.28    0.53 
  -5   2  -8   24.69    0.60 
  -5   2  -8   23.63    0.53 
  -5   2  -8   23.63    0.58 
  -5   2  -8   24.29    0.67 
  -5   2  -8   24.16    0.62 
  -5   2  -8   23.89    0.62 
  -6  -2  -8   29.75    0.43 
  -6  -2  -8   29.71    0.53 
  -6  -2  -8   29.36    0.75 
   6  -2   8   29.57    0.60 
  -6   2  -8   28.81    0.61 
  -6   2  -8   29.82    0.79 
  -6   2  -8   29.28    0.33 
  -6   2  -8   29.24    0.55 
  -6   2  -8   28.77    0.57 
  -6   2  -8   29.64    0.60 
 -10  -3   8    0.18    0.07 
  10  -3  -8    0.33    0.14 
 -10  -3   8    0.40    0.11 
  10  -3  -8   -0.04    0.25 
 -10   3   8    0.20    0.15 
 -10   3   8    0.31    0.17 
 -10   3   8    0.18    0.16 
 -10   3   8    0.73    0.22 
 -10   3   8    0.26    0.18 
 -10   3   8    0.28    0.20 
 -10   3   8    0.35    0.16 
   9  -3  -8    5.77    0.40 
   9  -3  -8    6.24    1.11 
  -9  -3   8    5.50    0.22 
  -9  -3   8    5.63    0.27 
  -9  -3   8    5.65    0.26 
   9  -3  -8    4.50    0.35 
   9  -3  -8    5.19    0.31 
   9  -3  -8    6.24    0.58 
  -9   3   8    5.41    0.40 
  -9   3   8    5.89    0.43 
  -9   3   8    5.57    0.43 
  -9   3   8    5.62    0.46 
  -9   3   8    5.84    0.36 
  -9   3   8    5.83    0.31 
  -9   3   8    5.67    0.32 
  -9   3   8    5.68    0.41 
   8  -3  -8   16.05    1.39 
   8  -3  -8   16.05    0.46 
  -8  -3   8   16.18    0.38 
   8  -3  -8   16.09    0.82 
   8  -3  -8   14.84    0.51 
   8  -3  -8   15.06    0.59 
  -8  -3   8   16.39    0.48 
  -8  -3   8   16.02    0.62 
  -8  -3   8   17.83    0.47 
  -8   3   8   17.72    0.59 
  -8   3   8   17.83    0.73 
  -8   3   8   17.97    0.55 
  -8   3   8   17.60    0.67 
  -8   3   8   17.55    0.50 
  -8   3   8   17.56    0.63 
  -8   3   8   17.77    0.63 
  -8   3   8   17.19    0.62 
  -7  -3   8   10.49    0.18 
  -7  -3   8   10.48    0.51 
   7  -3  -8   11.89    1.35 
  -7  -3   8   10.11    0.42 
  -7  -3   8    9.95    0.34 
  -7  -3   8    9.74    0.41 
   7  -3  -8   11.77    0.75 
  -7  -3   8   10.32    0.42 
  -7   3   8   11.61    0.56 
  -7   3   8   10.58    0.64 
  -7   3   8   10.73    0.55 
  -7   3   8   10.66    0.65 
  -7   3   8   10.72    0.53 
  -7   3   8   10.63    0.99 
  -7   3   8   10.79    0.84 
  -6  -3   8    4.38    0.35 
  -6  -3   8    4.68    0.35 
  -6  -3   8    4.40    0.22 
  -6  -3   8    4.23    0.25 
   6  -3  -8    5.46    0.63 
  -6  -3   8    4.62    0.27 
  -6  -3   8    4.70    0.43 
  -6  -3   8    4.62    0.36 
  -6  -3   8    4.20    0.35 
  -6  -3   8    4.10    0.38 
  -6  -3   8    4.57    0.28 
   6  -3  -8    4.59    0.41 
  -6  -3   8    4.30    0.21 
   6  -3  -8    4.31    1.07 
   6  -3  -8    4.27    1.33 
  -6   3   8    4.99    0.61 
  -6   3   8    5.26    0.47 
   6   3  -8    5.53    0.33 
  -6   3   8    4.33    0.64 
  -6   3   8    5.40    0.49 
  -6   3   8    4.94    0.46 
   6   3  -8    5.73    0.33 
  -6   3   8    5.59    0.58 
  -6   3   8    6.00    1.05 
  -5  -3   8    5.96    0.41 
   5  -3  -8    5.40    0.45 
  -5  -3   8    6.54    0.46 
  -5  -3   8    5.42    0.38 
  -5  -3   8    5.02    0.36 
  -5  -3   8    5.28    0.46 
   5  -3  -8    5.81    1.15 
   5  -3  -8    6.48    1.18 
   5  -3  -8    4.95    1.19 
  -5   3   8    5.55    0.39 
  -5   3   8    6.00    0.47 
  -5   3   8    7.19    0.51 
  -5   3   8    6.09    0.54 
  -5   3   8    6.64    0.48 
   5   3  -8    6.29    0.35 
   5   3  -8    6.45    0.34 
   4  -3  -8   46.03    2.19 
  -4  -3   8   42.80    0.95 
   4  -3  -8   42.43    1.09 
   4  -3  -8   43.85    2.04 
  -4  -3   8   41.20    1.09 
  -4  -3   8   44.28    1.08 
   4  -3  -8   42.65    1.97 
  -4  -3   8   44.34    1.05 
  -4   3   8   50.57    1.20 
   4   3  -8   49.45    0.96 
  -4   3   8   49.13    1.43 
  -4   3   8   50.73    1.26 
  -4   3   8   47.67    1.09 
  -4   3   8   47.30    1.00 
   4   3  -8   49.43    0.92 
  -4   3   8   49.30    1.04 
  -3  -3   8    0.47    0.34 
  -3  -3   8    0.17    0.22 
  -3  -3   8    0.83    0.29 
  -3  -3   8    0.56    0.23 
   3  -3  -8    0.68    0.78 
  -3  -3   8    0.09    0.27 
   3  -3  -8    0.28    0.21 
   3  -3  -8    0.71    0.80 
   3  -3  -8    0.56    0.71 
  -3   3   8    0.57    0.30 
  -3   3   8    0.57    0.25 
   3   3  -8    0.65    0.45 
  -3   3   8    0.84    0.30 
  -3   3   8    0.81    0.25 
   3   3  -8    0.81    0.20 
  -3   3   8    0.70    0.25 
   3   3  -8    0.92    0.23 
  -2  -3   8   18.06    0.78 
  -2  -3   8   16.55    0.76 
   2  -3  -8   18.56    1.37 
  -2  -3   8   17.26    0.67 
   2  -3  -8   19.09    1.49 
   2  -3  -8   18.06    1.30 
  -2  -3   8   15.41    0.64 
   2  -3  -8   17.07    0.57 
  -2  -3   8   17.10    0.73 
   2   3  -8   19.12    0.98 
   2   3  -8   18.94    1.16 
   2   3  -8   19.60    0.54 
  -2   3   8   19.45    0.79 
  -2   3   8   18.79    0.66 
  -2   3   8   18.53    0.63 
   2   3  -8   19.25    0.51 
  -2   3   8   18.95    0.71 
   2   3  -8   20.94    1.10 
   1  -3  -8   39.89    0.83 
  -1  -3   8   41.21    1.15 
   1  -3  -8   39.56    1.74 
   1  -3  -8   40.14    0.92 
  -1  -3   8   39.87    1.10 
  -1  -3   8   38.68    1.22 
  -1  -3   8   38.39    1.16 
   1  -3  -8   40.50    1.69 
  -1  -3   8   41.62    1.08 
   1   3  -8   46.79    1.55 
  -1   3   8   43.94    1.03 
   1   3  -8   46.11    1.33 
  -1   3   8   43.87    1.07 
   1   3  -8   44.50    0.86 
   1   3  -8   44.55    0.84 
   1   3  -8   42.08    1.50 
  -1   3   8   44.07    1.03 
   0  -3   8  103.69    2.19 
   0  -3   8  106.01    2.06 
   0  -3   8  104.71    2.15 
   0  -3  -8  107.01    2.44 
   0  -3  -8  106.74    1.77 
   0  -3   8  107.50    2.39 
   0  -3  -8  112.08    2.70 
   0  -3   8  106.99    2.01 
   0  -3   8  106.54    2.05 
   0   3  -8  114.46    1.92 
   0   3   8  115.96    1.95 
   0   3   8  118.65    1.99 
   0   3  -8  116.66    2.51 
   0   3  -8  114.71    2.21 
   0   3  -8  117.20    3.22 
   1  -3   8   24.84    1.02 
   1  -3   8   24.64    1.07 
  -1  -3  -8   25.32    0.63 
   1  -3   8   24.67    0.92 
  -1  -3  -8   23.98    0.65 
   1  -3   8   25.23    0.90 
  -1  -3  -8   24.00    0.54 
   1  -3   8   23.90    0.59 
   1  -3   8   24.56    1.62 
   1  -3   8   24.00    0.84 
  -1  -3  -8   23.15    0.65 
  -1  -3  -8   24.20    0.64 
   1  -3   8   24.33    1.05 
  -1  -3  -8   24.30    0.62 
  -1  -3  -8   25.04    0.65 
  -1  -3  -8   25.18    0.47 
  -1  -3  -8   24.22    0.53 
   1  -3   8   24.48    0.81 
  -1  -3  -8   24.83    0.63 
   1  -3   8   23.65    0.93 
  -1   3  -8   26.81    0.75 
  -1   3  -8   27.94    1.28 
  -1   3  -8   27.08    0.90 
  -1   3  -8   27.30    1.02 
  -1   3  -8   25.50    1.30 
   1   3   8   27.10    0.84 
  -1   3  -8   27.51    0.74 
  -1   3  -8   28.29    1.13 
  -1   3  -8   28.08    1.40 
   1   3   8   28.17    0.82 
  -1   3  -8   26.97    0.96 
  -2  -3  -8    7.93    0.38 
  -2  -3  -8    8.13    0.21 
  -2  -3  -8    8.19    0.40 
  -2  -3  -8    8.18    0.21 
  -2  -3  -8    7.71    0.35 
   2  -3   8    7.48    0.74 
  -2  -3  -8    8.42    0.37 
   2  -3   8    7.42    0.54 
   2  -3   8    8.60    0.42 
  -2  -3  -8    8.85    0.24 
   2  -3   8    8.07    0.71 
  -2  -3  -8    7.02    0.38 
   2  -3   8    8.36    0.63 
   2  -3   8    7.70    0.79 
  -2  -3  -8    8.43    0.40 
  -2   3  -8    9.80    0.82 
  -2   3  -8    8.32    0.81 
  -2   3  -8    8.09    0.88 
  -2   3  -8    7.61    0.98 
  -2   3  -8    8.86    0.63 
  -2   3  -8    8.37    0.55 
  -2   3  -8    8.65    0.70 
  -2   3  -8    9.16    0.47 
   3  -3   8   12.41    0.75 
  -3  -3  -8   11.06    0.39 
  -3  -3  -8   11.68    0.41 
   3  -3   8   11.81    0.63 
   3  -3   8   11.80    0.73 
  -3  -3  -8   11.88    0.38 
   3  -3   8   11.58    0.45 
  -3  -3  -8   11.26    0.41 
  -3  -3  -8   11.82    0.40 
   3  -3   8   11.95    0.81 
  -3   3  -8   13.78    0.83 
  -3   3  -8   13.56    0.53 
  -3   3  -8   13.34    0.55 
  -3   3  -8   13.89    0.45 
  -3   3  -8   13.36    0.86 
  -3   3  -8   12.59    0.66 
  -3   3  -8   13.66    0.56 
   4  -3   8    0.97    0.22 
  -4  -3  -8    0.64    0.16 
   4  -3   8    1.29    0.34 
   4  -3   8    0.49    0.30 
   4  -3   8    0.61    0.31 
  -4  -3  -8    1.13    0.18 
   4  -3   8    0.68    0.42 
  -4  -3  -8    0.59    0.15 
  -4   3  -8    1.20    0.43 
  -4   3  -8    0.60    0.18 
  -4   3  -8    0.80    0.37 
  -4   3  -8    0.61    0.19 
  -4   3  -8    0.85    0.18 
  -4   3  -8    0.78    0.26 
  -4   3  -8    0.46    0.21 
  -4   3  -8    1.02    0.25 
  -4   3  -8    0.78    0.19 
   5  -3   8    9.11    0.36 
  -5  -3  -8    9.32    0.29 
   5  -3   8    9.58    0.52 
   5  -3   8    9.58    0.69 
  -5  -3  -8    9.08    0.23 
  -5   3  -8    9.02    0.47 
  -5   3  -8   10.50    0.34 
  -5   3  -8    9.71    0.38 
  -5   3  -8    9.63    0.37 
  -5   3  -8   10.37    0.40 
  -5   3  -8   10.46    0.37 
  -5   3  -8    9.97    0.37 
  -5   3  -8   10.06    0.39 
  -5   3  -8   10.33    0.29 
   6  -3   8    2.53    0.50 
   6  -3   8    1.59    0.40 
   6  -3   8    2.45    0.22 
  -6   3  -8    1.88    0.23 
  -6   3  -8    2.06    0.19 
  -6   3  -8    2.08    0.10 
  -6   3  -8    2.10    0.18 
  -9  -4   8    8.55    0.25 
   9  -4  -8    8.48    0.49 
  -9  -4   8    8.67    0.17 
   9  -4  -8    9.10    0.75 
  -9   4   8    8.67    0.37 
  -9   4   8    9.30    0.43 
  -9   4   8    8.69    0.29 
  -9   4   8    8.92    0.35 
   8  -4  -8   43.97    2.24 
  -8  -4   8   46.02    0.81 
  -8  -4   8   44.37    0.75 
   8  -4  -8   46.46    1.07 
  -8  -4   8   46.10    0.63 
  -8   4   8   50.57    1.06 
  -8   4   8   50.02    0.82 
  -8   4   8   51.42    1.00 
  -8   4   8   49.33    0.94 
  -8   4   8   50.17    1.02 
  -8   4   8   49.81    0.88 
  -7  -4   8   19.87    0.51 
   7  -4  -8   20.39    0.76 
  -7  -4   8   19.19    0.45 
  -7  -4   8   19.15    0.53 
  -7  -4   8   19.89    0.42 
  -7   4   8   22.49    0.64 
  -7   4   8   22.27    0.80 
  -7   4   8   21.76    1.01 
  -7   4   8   20.24    1.35 
  -7   4   8   21.25    0.80 
  -6  -4   8    4.28    0.30 
   6  -4  -8    4.13    0.83 
  -6  -4   8    4.43    0.33 
  -6  -4   8    4.87    0.28 
   6  -4  -8    5.14    0.54 
   6  -4  -8    4.12    0.43 
   6  -4  -8    2.88    0.90 
  -6  -4   8    4.88    0.34 
  -6  -4   8    4.70    0.11 
  -6  -4   8    5.07    0.33 
  -6   4   8    5.84    0.41 
  -6   4   8    4.60    0.61 
  -6   4   8    6.75    1.23 
  -6   4   8    4.98    0.57 
   6   4  -8    5.41    0.31 
  -5  -4   8    8.88    0.52 
  -5  -4   8    9.40    0.46 
  -5  -4   8    9.02    0.29 
  -5  -4   8    9.65    0.43 
  -5  -4   8   10.13    0.46 
  -5  -4   8    9.60    0.26 
   5  -4  -8   10.69    0.54 
   5  -4  -8    9.53    0.49 
  -5  -4   8    9.57    0.38 
   5  -4  -8    8.63    1.36 
  -5  -4   8    9.26    0.44 
  -5  -4   8    9.70    0.32 
   5  -4  -8    9.90    0.99 
   5  -4  -8    8.99    1.18 
  -5  -4   8    9.23    0.41 
   5  -4  -8    9.89    0.87 
  -5  -4   8    9.85    0.28 
   5   4  -8   11.37    0.41 
  -5   4   8   11.54    0.70 
   5   4  -8   11.26    0.42 
  -5   4   8   12.15    0.84 
  -5   4   8   10.59    0.53 
  -5   4   8   11.64    0.40 
  -5   4   8   10.17    0.58 
  -5   4   8   11.31    0.60 
  -4  -4   8    9.08    0.55 
   4  -4  -8    8.00    1.17 
  -4  -4   8    9.33    0.45 
   4  -4  -8   10.02    0.51 
  -4  -4   8    8.93    0.38 
  -4  -4   8    9.22    0.43 
  -4  -4   8    8.48    0.53 
  -4  -4   8    8.38    0.46 
   4  -4  -8    8.12    1.24 
  -4  -4   8    8.89    0.48 
   4  -4  -8    9.29    0.50 
  -4  -4   8    8.89    0.37 
  -4  -4   8    9.84    0.50 
   4  -4  -8    9.20    0.55 
  -4  -4   8    9.08    0.32 
  -4  -4   8    8.14    0.25 
  -4   4   8   10.06    0.63 
  -4   4   8   10.09    0.64 
  -4   4   8   10.29    0.46 
  -4   4   8   10.44    0.73 
   4   4  -8   11.23    0.43 
  -4   4   8   10.49    0.48 
  -4   4   8    9.90    0.55 
  -4   4   8    9.28    0.46 
   4   4  -8   10.56    0.43 
  -3  -4   8   24.99    0.74 
  -3  -4   8   24.17    0.46 
  -3  -4   8   23.64    0.62 
  -3  -4   8   22.48    0.80 
  -3  -4   8   23.80    0.70 
  -3  -4   8   23.72    0.54 
   3  -4  -8   24.31    0.74 
   3  -4  -8   22.49    0.53 
  -3  -4   8   23.39    0.84 
  -3  -4   8   22.75    0.73 
   3  -4  -8   24.70    1.56 
   3  -4  -8   23.36    0.55 
   3  -4  -8   23.72    0.62 
   3  -4  -8   23.26    0.73 
  -3  -4   8   23.74    0.73 
   3  -4  -8   24.64    0.73 
   3  -4  -8   23.42    0.63 
   3  -4  -8   23.84    0.69 
  -3  -4   8   23.62    0.49 
  -3  -4   8   23.33    0.70 
   3  -4  -8   25.91    1.60 
  -3  -4   8   23.04    0.84 
  -3   4   8   27.03    0.69 
  -3   4   8   27.49    0.93 
  -3   4   8   28.34    0.85 
  -3   4   8   26.89    1.01 
  -3   4   8   26.62    0.88 
   3   4  -8   25.48    1.12 
  -3   4   8   28.43    0.76 
   3   4  -8   26.93    0.66 
  -3   4   8   27.50    0.77 
   3   4  -8   28.32    0.67 
  -2  -4   8   29.44    0.80 
   2  -4  -8   28.35    0.68 
  -2  -4   8   28.52    1.04 
  -2  -4   8   28.32    0.80 
  -2  -4   8   27.14    0.77 
  -2  -4   8   28.29    0.63 
   2  -4  -8   29.61    0.74 
  -2  -4   8   28.35    0.94 
   2  -4  -8   27.45    0.77 
  -2  -4   8   29.03    0.96 
   2  -4  -8   28.02    0.54 
   2  -4  -8   29.52    1.56 
   2  -4  -8   27.67    0.74 
   2  -4  -8   27.28    0.79 
   2  -4  -8   27.72    0.77 
   2  -4  -8   28.10    0.53 
  -2  -4   8   28.17    0.62 
  -2  -4   8   27.71    0.83 
   2  -4  -8   29.86    1.57 
  -2  -4   8   28.12    0.86 
   2   4  -8   33.03    1.46 
   2   4  -8   32.44    0.93 
   2   4  -8   33.40    0.69 
   2   4  -8   34.10    0.73 
  -2   4   8   32.58    0.88 
   2   4  -8   29.88    1.12 
  -2   4   8   33.08    0.93 
  -2   4   8   33.47    0.85 
  -2   4   8   33.60    1.03 
   2   4  -8   32.79    0.73 
  -1  -4   8    3.53    0.50 
   1  -4  -8    3.26    0.35 
   1  -4  -8    4.34    0.96 
  -1  -4   8    3.54    0.52 
  -1  -4   8    3.53    0.49 
  -1  -4   8    2.81    0.50 
   1  -4  -8    3.19    0.32 
   1  -4  -8    2.81    0.38 
   1  -4  -8    3.26    0.37 
   1  -4  -8    2.84    0.25 
  -1  -4   8    2.86    0.50 
   1  -4  -8    3.08    0.34 
   1  -4  -8    4.05    0.90 
   1  -4  -8    3.39    0.37 
   1  -4  -8    3.00    0.32 
  -1  -4   8    3.50    0.35 
   1  -4  -8    2.88    0.20 
   1  -4  -8    3.25    0.37 
  -1  -4   8    3.21    0.59 
  -1  -4   8    3.67    0.51 
  -1  -4   8    3.27    0.33 
   1   4  -8    3.80    0.43 
   1   4  -8    4.15    0.28 
   1   4  -8    4.24    0.59 
  -1   4   8    3.27    0.41 
   1   4  -8    3.66    0.30 
   1   4  -8    3.90    0.74 
   1   4  -8    3.60    0.31 
   1   4  -8    3.21    0.76 
  -1   4   8    3.99    0.39 
   0  -4  -8   41.45    0.83 
   0  -4  -8   41.53    0.72 
   0  -4   8   41.62    0.98 
   0  -4   8   40.57    1.25 
   0  -4  -8   40.99    0.90 
   0  -4   8   43.29    1.29 
   0  -4  -8   42.72    0.84 
   0  -4   8   41.70    1.13 
   0  -4  -8   41.84    0.74 
   0  -4  -8   41.00    0.90 
   0  -4  -8   41.09    0.88 
   0  -4   8   42.18    1.16 
   0  -4  -8   42.38    0.64 
   0  -4   8   40.35    1.02 
   0  -4   8   41.55    1.13 
   0  -4  -8   42.10    0.87 
   0  -4   8   38.50    1.95 
   0  -4   8   39.43    1.64 
   0  -4  -8   40.78    0.82 
   0   4  -8   50.44    1.49 
   0   4   8   47.67    1.07 
   0   4   8   46.59    1.04 
   0   4  -8   44.98    1.42 
   0   4  -8   48.18    1.12 
   0   4  -8   47.15    0.77 
  -1  -4  -8    7.92    0.39 
  -1  -4  -8    8.15    0.39 
  -1  -4  -8    8.62    0.37 
  -1  -4  -8    8.38    0.19 
  -1  -4  -8    8.26    0.20 
  -1  -4  -8    8.36    0.19 
   1  -4   8    7.96    1.01 
   1  -4   8    9.83    0.98 
  -1  -4  -8    8.48    0.38 
   1  -4   8    8.20    0.63 
   1  -4   8    8.74    0.60 
   1  -4   8    8.57    0.66 
  -1  -4  -8    8.05    0.39 
  -1  -4  -8    9.16    0.38 
   1  -4   8    8.14    0.66 
   1  -4   8    8.07    0.68 
   1   4   8    8.90    0.49 
  -1   4  -8    8.52    0.74 
  -1   4  -8    8.75    0.40 
  -1   4  -8    9.36    0.61 
  -1   4  -8    8.09    0.63 
  -1   4  -8    8.70    0.59 
   1   4   8    9.84    0.52 
  -1   4  -8    8.77    0.48 
  -2  -4  -8    0.42    0.14 
   2  -4   8    0.25    0.33 
   2  -4   8    0.62    0.55 
   2  -4   8    0.49    0.28 
   2  -4   8    0.62    0.31 
  -2  -4  -8    0.62    0.17 
   2  -4   8    0.59    0.31 
  -2  -4  -8    0.56    0.19 
  -2  -4  -8    0.96    0.21 
   2  -4   8    0.20    0.36 
  -2  -4  -8    0.94    0.23 
  -2   4  -8    0.28    0.24 
  -2   4  -8    1.09    0.55 
  -2   4  -8    0.93    0.26 
  -2   4  -8    1.41    0.70 
  -2   4  -8    1.40    0.31 
  -2   4  -8    1.32    0.57 
  -3  -4  -8    0.12    0.10 
  -3  -4  -8    0.17    0.13 
   3  -4   8    0.21    0.37 
   3  -4   8   -0.03    0.30 
   3  -4   8    0.00    0.34 
  -3  -4  -8   -0.01    0.12 
   3  -4   8   -0.06    0.41 
   3  -4   8    0.10    0.27 
  -3   4  -8    0.16    0.19 
  -3   4  -8    0.15    0.25 
  -3   4  -8    0.18    0.20 
  -3   4  -8   -0.12    0.22 
  -4  -4  -8    9.06    0.23 
  -4  -4  -8    9.15    0.29 
   4  -4   8    9.10    0.84 
   4  -4   8    8.82    0.50 
   4  -4   8    8.99    0.59 
   4  -4   8    9.04    0.58 
   4  -4   8    9.46    0.94 
  -4   4  -8   10.49    0.40 
  -4   4  -8   10.47    0.44 
  -4   4  -8   10.17    0.50 
  -4   4  -8   10.26    0.31 
  -4   4  -8   10.52    0.25 
   5  -4   8   10.07    0.72 
   5  -4   8   10.72    0.50 
   5  -4   8   10.71    0.89 
  -5   4  -8   12.98    0.34 
  -5   4  -8   13.40    0.40 
  -8  -5   8    5.38    0.19 
   8  -5  -8    5.64    0.39 
  -8   5   8    5.81    0.26 
  -8   5   8    5.86    0.25 
   7  -5  -8   19.79    0.65 
  -7  -5   8   20.24    0.42 
  -7  -5   8   20.42    0.35 
  -7   5   8   23.12    0.69 
  -6  -5   8    6.18    0.38 
   6  -5  -8    6.30    0.45 
  -6  -5   8    6.00    0.23 
  -6  -5   8    5.94    0.30 
   6  -5  -8    6.16    0.38 
  -6  -5   8    5.97    0.26 
  -6  -5   8    6.55    0.30 
  -6   5   8    7.91    1.04 
  -6   5   8    7.56    0.54 
  -6   5   8    5.48    0.96 
  -6   5   8    7.02    0.44 
   5  -5  -8    0.37    0.22 
   5  -5  -8    0.81    0.17 
  -5  -5   8    0.43    0.18 
  -5  -5   8    0.53    0.15 
   5  -5  -8    0.55    0.22 
   5  -5  -8   -0.06    0.66 
   5  -5  -8    0.67    0.20 
  -5  -5   8    0.31    0.16 
  -5  -5   8    0.62    0.16 
  -5  -5   8    0.53    0.17 
  -5  -5   8    0.37    0.23 
   5  -5  -8    0.33    0.16 
   5  -5  -8    0.14    0.81 
  -5   5   8    0.57    0.15 
  -5   5   8    1.08    0.62 
  -5   5   8    0.53    0.28 
  -5   5   8    0.52    0.34 
   5   5  -8    0.67    0.18 
   5   5  -8    0.46    0.16 
  -5   5   8    0.36    0.22 
   4  -5  -8   13.58    0.51 
   4  -5  -8   12.18    1.19 
  -4  -5   8   13.38    0.54 
  -4  -5   8   13.63    0.25 
  -4  -5   8   13.49    0.27 
   4  -5  -8   13.76    0.38 
  -4  -5   8   14.09    0.29 
  -4  -5   8   13.57    0.45 
  -4  -5   8   13.24    0.45 
   4  -5  -8   12.66    0.57 
  -4  -5   8   13.12    0.65 
   4  -5  -8   13.12    0.34 
  -4  -5   8   14.10    0.50 
  -4  -5   8   13.51    0.31 
  -4  -5   8   13.79    0.48 
   4  -5  -8   13.77    0.58 
   4  -5  -8   13.31    1.15 
   4  -5  -8   12.55    0.52 
   4  -5  -8   13.35    0.49 
   4   5  -8   15.60    0.48 
  -4   5   8   15.93    0.53 
   4   5  -8   15.85    0.46 
  -4   5   8   16.53    0.47 
  -4   5   8   15.88    0.71 
  -4   5   8   16.10    0.70 
  -3  -5   8    5.45    0.29 
   3  -5  -8    5.50    0.28 
  -3  -5   8    5.60    0.42 
  -3  -5   8    5.72    0.28 
   3  -5  -8    5.19    0.42 
   3  -5  -8    5.96    0.39 
   3  -5  -8    5.14    0.32 
   3  -5  -8    6.51    0.49 
  -3  -5   8    5.56    0.42 
  -3  -5   8    5.78    0.42 
  -3  -5   8    5.43    0.37 
   3  -5  -8    4.26    0.94 
   3  -5  -8    5.20    0.43 
  -3  -5   8    4.45    0.48 
   3  -5  -8    5.29    0.35 
   3  -5  -8    5.50    0.26 
   3  -5  -8    6.07    0.99 
   3  -5  -8    5.39    0.38 
  -3  -5   8    5.66    0.26 
  -3  -5   8    5.44    0.36 
   3  -5  -8    5.08    0.41 
  -3   5   8    7.06    0.57 
   3   5  -8    6.67    0.33 
   3   5  -8    6.61    0.33 
  -3   5   8    6.88    0.39 
  -3   5   8    6.47    0.40 
  -3   5   8    7.13    0.58 
  -3   5   8    6.86    0.42 
  -2  -5   8   23.99    0.55 
  -2  -5   8   24.82    0.68 
   2  -5  -8   24.04    0.55 
   2  -5  -8   22.68    0.67 
  -2  -5   8   23.58    0.85 
   2  -5  -8   24.66    0.71 
   2  -5  -8   23.62    0.63 
  -2  -5   8   23.95    0.65 
   2  -5  -8   23.74    0.67 
   2  -5  -8   24.05    0.48 
  -2  -5   8   25.06    0.50 
  -2  -5   8   24.22    0.69 
  -2  -5   8   22.15    0.80 
  -2  -5   8   25.09    0.77 
  -2  -5   8   23.88    0.43 
   2  -5  -8   23.83    0.64 
   2  -5  -8   23.92    0.54 
  -2  -5   8   24.21    0.69 
   2  -5  -8   26.50    0.70 
   2  -5  -8   24.10    0.36 
   2  -5  -8   24.40    0.60 
  -2  -5   8   20.64    0.82 
   2  -5  -8   24.19    1.14 
  -2   5   8   27.88    0.93 
  -2   5   8   26.93    0.65 
  -2   5   8   28.26    0.72 
   2   5  -8   26.44    0.61 
   2   5  -8   27.39    0.63 
   2   5  -8   27.11    0.78 
   2   5  -8   28.38    0.58 
   2   5  -8   26.19    1.16 
  -2   5   8   28.85    0.73 
  -1  -5   8    4.01    0.39 
  -1  -5   8    4.06    0.21 
  -1  -5   8    4.14    0.52 
   1  -5  -8    3.91    0.37 
   1  -5  -8    3.69    0.37 
   1  -5  -8    3.81    0.31 
   1  -5  -8    3.47    0.32 
   1  -5  -8    3.42    0.34 
  -1  -5   8    4.06    0.43 
  -1  -5   8    4.17    0.41 
  -1  -5   8    3.94    0.49 
  -1  -5   8    3.63    0.52 
  -1  -5   8    3.77    0.26 
   1  -5  -8    3.69    0.35 
   1  -5  -8    3.75    0.23 
  -1  -5   8    3.58    0.53 
   1  -5  -8    4.12    0.20 
   1  -5  -8    4.21    0.20 
   1  -5  -8    3.87    0.18 
   1  -5  -8    3.50    0.30 
  -1   5   8    4.63    0.35 
   1   5  -8    4.25    0.28 
   1   5  -8    5.26    0.67 
  -1   5   8    4.90    0.40 
   1   5  -8    4.24    0.43 
   1   5  -8    4.39    0.28 
   1   5  -8    4.52    0.28 
   0  -5  -8    3.26    0.11 
   0  -5  -8    3.60    0.30 
   0  -5   8    4.25    0.55 
   0  -5  -8    3.00    0.28 
   0  -5   8    3.26    0.31 
   0  -5   8    3.42    0.48 
   0  -5   8    3.87    0.55 
   0  -5   8    3.21    0.39 
   0  -5  -8    3.64    0.32 
   0  -5  -8    3.00    0.29 
   0  -5  -8    2.93    0.28 
   0  -5  -8    3.41    0.28 
   0  -5   8    3.06    0.27 
   0  -5   8    3.29    0.42 
   0   5  -8    3.95    0.40 
   0   5  -8    4.68    0.68 
   0   5  -8    3.98    0.23 
   0   5  -8    4.17    0.55 
   0   5   8    3.84    0.35 
   0   5   8    3.76    0.36 
   1  -5   8    1.64    0.26 
  -1  -5  -8    2.27    0.24 
  -1  -5  -8    1.88    0.24 
  -1  -5  -8    2.15    0.25 
   1  -5   8    2.28    0.40 
  -1  -5  -8    1.96    0.22 
  -1  -5  -8    2.50    0.27 
   1  -5   8    2.74    0.41 
   1  -5   8    2.07    0.39 
  -1  -5  -8    1.66    0.22 
   1  -5   8    2.02    0.25 
  -1   5  -8    2.11    0.39 
  -1   5  -8    3.08    0.44 
   1   5   8    2.37    0.32 
  -1   5  -8    2.63    0.36 
   1   5   8    1.93    0.30 
  -1   5  -8    3.81    0.92 
  -1   5  -8    2.75    0.67 
  -2  -5  -8    1.98    0.23 
  -2  -5  -8    1.87    0.25 
   2  -5   8    1.51    0.37 
  -2  -5  -8    2.32    0.19 
   2  -5   8    2.22    0.41 
  -2   5  -8    1.81    0.35 
  -2   5  -8    2.17    0.36 
  -2   5  -8    1.67    0.27 
   3  -5   8    7.41    0.40 
  -3  -5  -8    7.93    0.18 
  -3  -5  -8    8.06    0.25 
   3  -5   8    7.78    0.39 
  -3   5  -8    8.97    0.26 
  -3   5  -8    8.68    0.28 
  -3   5  -8    9.07    0.32 
  -3   5  -8    9.03    0.40 
   5  -6  -8    0.74    0.17 
   5  -6  -8    0.74    0.13 
   5  -6  -8    0.45    0.16 
  -5  -6   8    0.62    0.17 
   5  -6  -8    0.75    0.09 
   5  -6  -8    0.79    0.16 
  -5  -6   8    0.76    0.13 
  -5  -6   8    0.54    0.11 
  -5   6   8    0.43    0.31 
  -5   6   8    1.03    0.50 
  -5   6   8    1.18    0.28 
  -5   6   8    0.66    0.21 
   4  -6  -8   14.28    0.45 
  -4  -6   8   14.83    0.33 
   4  -6  -8   16.30    0.38 
   4  -6  -8   13.96    0.43 
   4  -6  -8   15.02    0.33 
   4  -6  -8   14.58    0.45 
   4  -6  -8   14.52    0.30 
  -4  -6   8   14.24    0.43 
   4  -6  -8   14.84    0.46 
  -4  -6   8   15.10    0.36 
   4  -6  -8   14.83    0.47 
   4  -6  -8   14.83    0.42 
  -4  -6   8   13.90    0.47 
  -4   6   8   17.59    0.99 
  -4   6   8   17.29    0.54 
  -4   6   8   17.55    0.33 
   3  -6  -8   13.41    0.42 
   3  -6  -8   12.44    0.40 
   3  -6  -8   12.57    0.22 
  -3  -6   8   12.80    0.37 
   3  -6  -8   12.78    0.41 
   3  -6  -8   12.71    0.24 
  -3  -6   8   12.15    0.46 
  -3  -6   8   11.90    0.38 
   3  -6  -8   12.80    0.40 
   3  -6  -8   12.66    0.26 
   3  -6  -8   12.07    0.46 
   3  -6  -8   12.54    0.28 
   3  -6  -8   12.55    0.43 
  -3  -6   8   13.09    0.40 
  -3   6   8   14.67    0.37 
  -3   6   8   15.44    0.58 
   3   6  -8   15.10    0.35 
   2  -6  -8    0.70    0.17 
  -2  -6   8    0.43    0.22 
   2  -6  -8    0.97    0.21 
  -2  -6   8    0.66    0.16 
  -2  -6   8    0.51    0.17 
   2  -6  -8    0.84    0.07 
  -2  -6   8    0.34    0.16 
  -2  -6   8    0.57    0.20 
  -2  -6   8    0.67    0.10 
   2  -6  -8    0.57    0.16 
  -2  -6   8    0.86    0.12 
  -2  -6   8    0.88    0.12 
   2  -6  -8    0.83    0.21 
   2  -6  -8    0.65    0.21 
   2  -6  -8    0.30    0.14 
   2  -6  -8    0.68    0.16 
  -2   6   8    0.99    0.21 
  -2   6   8    0.71    0.27 
   2   6  -8    0.58    0.17 
   2   6  -8    0.48    0.12 
   1  -6  -8    2.81    0.23 
  -1  -6   8    3.26    0.29 
   1  -6  -8    2.80    0.26 
  -1  -6   8    3.17    0.28 
  -1  -6   8    3.41    0.31 
   1  -6  -8    2.69    0.21 
  -1  -6   8    3.36    0.19 
  -1  -6   8    3.07    0.17 
   1  -6  -8    2.94    0.24 
  -1  -6   8    2.85    0.35 
   1  -6  -8    2.98    0.25 
  -1  -6   8    2.59    0.26 
  -1  -6   8    3.01    0.19 
   1   6  -8    3.51    0.36 
  -1   6   8    3.75    0.26 
   1   6  -8    3.55    0.18 
   1   6  -8    3.99    0.32 
   1   6  -8    4.44    0.57 
   0  -6   8    0.39    0.12 
   0  -6  -8    1.18    0.24 
   0  -6  -8    1.27    0.20 
   0  -6  -8    0.86    0.16 
   0  -6   8    0.47    0.15 
   0  -6  -8    0.83    0.18 
   0  -6   8    0.86    0.18 
   0  -6   8    0.82    0.20 
   0  -6   8    0.83    0.15 
   0   6  -8    0.96    0.24 
   0   6  -8    0.89    0.50 
   0   6  -8    1.22    0.47 
   0   6  -8    1.45    0.30 
   0   6  -8    0.53    0.19 
 -11   0   9    8.78    0.28 
 -11   0   9    9.34    0.27 
 -11   0   9    8.22    0.31 
 -11   0   9    7.85    0.29 
 -11   0   9    8.63    0.34 
 -11   0   9    7.41    0.32 
 -10   0   9    4.98    0.35 
 -10   0   9    6.40    0.34 
 -10   0   9    6.41    0.34 
  10   0  -9    5.88    0.38 
  10   0  -9    6.42    0.35 
 -10   0   9    6.17    0.34 
 -10   0   9    6.62    0.36 
  -9   0   9    0.40    0.24 
   9   0  -9    0.30    0.20 
   9   0  -9    0.59    0.23 
  -9   0   9    0.20    0.09 
  -9   0   9    0.46    0.18 
  -9   0   9    0.52    0.22 
  -9   0   9    0.72    0.22 
  -9   0   9    0.20    0.22 
  -9   0   9    0.21    0.23 
  -9   0   9    0.66    0.19 
  -8   0   9    6.13    0.42 
  -8   0   9    6.75    0.43 
  -8   0   9    6.53    0.40 
  -8   0   9    6.58    0.42 
  -8   0   9    6.35    0.27 
  -8   0   9    6.28    0.41 
  -8   0   9    6.31    0.43 
  -8   0   9    6.27    0.55 
   8   0  -9    6.93    0.40 
   8   0  -9    7.26    0.46 
  -7   0   9   14.52    0.46 
  -7   0   9   13.25    0.57 
  -7   0   9   14.18    0.49 
   7   0  -9   13.61    0.49 
   7   0  -9   12.75    0.54 
   6   0  -9   23.61    1.71 
   6   0  -9   23.71    0.67 
   6   0  -9   24.98    0.61 
   6   0  -9   23.30    0.59 
  -6   0   9   23.46    0.73 
   6   0  -9   23.14    1.29 
  -6   0   9   20.76    0.77 
  -5   0   9   30.55    0.93 
   5   0  -9   29.80    1.75 
   5   0  -9   29.12    0.66 
   5   0  -9   29.25    1.62 
  -5   0   9   29.61    0.97 
  -5   0   9   31.42    0.83 
  -5   0   9   30.91    0.98 
   5   0  -9   29.42    1.47 
   5   0  -9   32.14    1.46 
   5   0  -9   29.20    0.69 
  -4   0   9   18.33    0.75 
  -4   0   9   18.03    0.85 
  -4   0   9   17.46    0.78 
   4   0  -9   18.08    1.19 
   4   0  -9   18.53    0.52 
  -4   0   9   18.71    0.66 
   4   0  -9   19.65    1.11 
   4   0  -9   17.57    1.28 
  -4   0   9   17.36    0.63 
   4   0  -9   18.06    0.50 
   3   0  -9   88.94    2.48 
  -3   0   9   85.07    1.70 
   3   0  -9   89.36    2.16 
  -3   0   9   88.86    1.66 
  -3   0   9   92.30    2.07 
   3   0  -9   86.24    2.33 
  -3   0   9   87.16    1.97 
   3   0  -9   87.51    2.95 
  -3   0   9   87.69    2.26 
  -3   0   9   87.40    1.56 
   3   0  -9   87.58    1.39 
  -2   0   9    2.16    0.35 
  -2   0   9    2.21    0.46 
  -2   0   9    2.25    0.45 
   2   0  -9    1.25    0.59 
   2   0  -9    2.31    0.59 
  -2   0   9    1.62    0.40 
   2   0  -9    1.25    0.76 
   2   0  -9    1.98    0.82 
   2   0  -9    1.78    0.54 
   2   0  -9    2.35    0.31 
  -2   0   9    2.33    0.34 
  -2   0   9    2.25    0.44 
   1   0  -9   20.07    1.00 
  -1   0   9   20.31    0.80 
   1   0  -9   18.95    1.15 
  -1   0   9   19.63    0.68 
  -1   0   9   19.16    0.73 
   1   0  -9   19.71    0.69 
   1   0  -9   18.38    1.25 
  -1   0   9   21.17    0.78 
   1   0  -9   19.66    0.71 
   1   0  -9   19.28    1.33 
  -1   0   9   19.94    0.68 
   0   0   9    4.15    0.50 
   0   0  -9    4.72    0.80 
   0   0  -9    3.26    0.73 
   0   0  -9    4.18    0.35 
   0   0   9    4.05    0.39 
   0   0  -9    3.76    0.66 
   0   0   9    3.13    0.47 
   0   0   9    4.25    0.50 
   0   0  -9    4.22    0.87 
   0   0   9    4.48    0.46 
   1   0   9    0.17    0.25 
  -1   0  -9    0.20    0.49 
   1   0   9   -0.31    0.25 
  -1   0  -9    0.29    0.47 
   1   0   9    0.38    0.43 
   1   0   9    0.36    0.36 
  -1   0  -9    0.24    0.18 
   2   0   9  110.52    1.96 
  -2   0  -9  111.99    2.40 
  -2   0  -9  107.65    1.80 
  -2   0  -9  108.75    1.38 
   2   0   9  109.30    2.05 
   2   0   9  107.44    1.99 
  -2   0  -9  105.89    1.43 
  -2   0  -9  107.88    1.77 
  -2   0  -9  105.91    1.65 
  -2   0  -9  108.78    1.80 
  -2   0  -9  109.70    1.82 
  -2   0  -9  107.38    1.45 
  -2   0  -9  108.04    2.33 
  -2   0  -9  108.84    1.71 
  -3   0  -9   10.52    0.62 
  -3   0  -9   11.26    0.46 
  -3   0  -9   11.03    0.47 
  -3   0  -9   10.96    0.41 
  -3   0  -9   11.13    0.49 
   3   0   9   10.72    0.70 
  -3   0  -9   11.16    0.45 
  -3   0  -9   11.19    0.47 
  -3   0  -9   11.48    0.34 
   3   0   9   10.73    0.63 
  -3   0  -9   11.05    0.47 
  -3   0  -9   11.17    0.27 
  -3   0  -9   10.81    0.41 
   4   0   9    0.26    0.29 
  -4   0  -9    0.10    0.10 
  -4   0  -9   -0.06    0.18 
   4   0   9    0.12    0.34 
  -4   0  -9    0.16    0.13 
  -4   0  -9   -0.06    0.19 
  -4   0  -9    0.02    0.17 
  -4   0  -9    0.09    0.12 
  -4   0  -9   -0.12    0.21 
  -4   0  -9    0.00    0.14 
  -4   0  -9   -0.03    0.16 
  -4   0  -9   -0.02    0.09 
  -5   0  -9    2.91    0.39 
  -5   0  -9    2.99    0.24 
  -5   0  -9    3.82    0.26 
   5   0   9    3.81    0.53 
  -5   0  -9    3.53    0.24 
  -5   0  -9    3.60    0.25 
  -6   0  -9    4.57    0.20 
  -6   0  -9    3.75    0.32 
  -6   0  -9    4.71    0.23 
 -11  -1   9    4.10    0.21 
 -11  -1   9    4.28    0.27 
 -11  -1   9    4.06    0.18 
 -11   1   9    4.34    0.26 
 -11   1   9    4.98    0.30 
 -11   1   9    4.39    0.24 
 -11   1   9    4.47    0.26 
  10  -1  -9    4.88    0.34 
 -10  -1   9    4.84    0.25 
 -10  -1   9    5.02    0.29 
 -10  -1   9    4.65    0.35 
 -10  -1   9    4.90    0.29 
 -10  -1   9    4.51    0.25 
  10  -1  -9    4.90    0.36 
  10   1  -9    5.11    0.36 
 -10   1   9    5.25    0.34 
 -10   1   9    4.45    0.31 
 -10   1   9    5.21    0.35 
 -10   1   9    4.95    0.19 
 -10   1   9    5.10    0.20 
 -10   1   9    5.83    0.38 
  10   1  -9    4.81    0.32 
 -10   1   9    5.19    0.38 
 -10   1   9    5.13    0.23 
  -9  -1   9    4.54    0.31 
   9  -1  -9    4.63    0.40 
  -9  -1   9    4.61    0.40 
   9  -1  -9    4.16    0.34 
  -9  -1   9    4.44    0.33 
  -9  -1   9    4.77    0.16 
  -9  -1   9    4.54    0.29 
   9   1  -9    4.88    0.33 
  -9   1   9    4.97    0.37 
  -9   1   9    5.07    0.41 
  -9   1   9    4.75    0.40 
  -9   1   9    4.72    0.27 
  -9   1   9    4.52    0.19 
  -9   1   9    4.83    0.35 
  -9   1   9    5.52    0.40 
  -9   1   9    4.57    0.37 
   9   1  -9    4.36    0.38 
  -8  -1   9   35.49    0.67 
   8  -1  -9   35.94    0.87 
  -8  -1   9   35.75    0.83 
   8  -1  -9   36.49    0.82 
  -8  -1   9   36.67    0.69 
  -8  -1   9   33.91    0.87 
   8  -1  -9   35.26    1.84 
  -8  -1   9   36.16    0.58 
  -8  -1   9   36.61    0.83 
  -8  -1   9   37.01    0.67 
  -8  -1   9   36.83    0.94 
  -8  -1   9   36.26    0.81 
  -8   1   9   38.32    0.65 
  -8   1   9   36.77    0.92 
   8   1  -9   37.35    0.88 
  -8   1   9   36.44    0.83 
  -8   1   9   38.20    0.68 
   8   1  -9   34.87    0.77 
  -8   1   9   37.77    0.88 
  -8   1   9   38.31    0.80 
  -8   1   9   35.97    0.87 
   7  -1  -9  118.83    1.85 
  -7  -1   9  116.57    1.89 
  -7  -1   9  117.50    1.89 
  -7  -1   9  114.42    2.01 
   7  -1  -9  120.67    1.91 
   7  -1  -9  118.93    3.33 
   7  -1  -9  117.94    1.59 
  -7  -1   9  116.81    1.77 
  -7  -1   9  123.84    2.01 
  -7  -1   9  116.81    1.73 
   7  -1  -9  119.39    2.17 
  -7  -1   9  118.44    1.42 
  -7  -1   9  117.27    2.04 
  -7  -1   9  119.55    1.93 
  -7  -1   9  117.64    1.95 
  -7   1   9  119.69    1.96 
  -7   1   9  117.90    2.18 
   7   1  -9  123.76    1.85 
  -7   1   9  121.70    1.83 
  -7   1   9  117.67    2.08 
  -7   1   9  121.78    2.22 
  -7   1   9  120.59    1.97 
  -7   1   9  118.58    1.60 
  -7   1   9  119.30    1.80 
  -7   1   9  119.81    2.03 
   7   1  -9  120.34    1.83 
   6  -1  -9   48.25    2.10 
   6  -1  -9   43.59    0.88 
  -6  -1   9   41.78    0.96 
  -6  -1   9   43.44    1.02 
   6  -1  -9   42.59    0.93 
  -6  -1   9   43.40    1.10 
   6   1  -9   49.49    0.94 
  -6   1   9   46.62    1.22 
   6   1  -9   45.54    0.94 
  -6   1   9   46.55    1.13 
   6   1  -9   47.42    1.84 
  -6   1   9   46.68    1.10 
  -6   1   9   46.78    1.29 
  -5  -1   9   36.76    0.90 
  -5  -1   9   34.57    1.00 
   5  -1  -9   35.28    0.75 
   5  -1  -9   34.09    1.86 
   5  -1  -9   36.74    1.53 
  -5  -1   9   35.58    0.92 
   5  -1  -9   34.97    0.83 
  -5   1   9   38.15    1.10 
  -5   1   9   36.51    1.16 
  -5   1   9   39.24    1.15 
   5   1  -9   39.40    1.81 
  -5   1   9   36.83    0.95 
   5   1  -9   36.27    0.80 
   5   1  -9   37.99    0.78 
   5   1  -9   37.38    1.53 
  -4  -1   9    4.58    0.49 
   4  -1  -9    6.15    1.25 
  -4  -1   9    4.92    0.41 
  -4  -1   9    4.63    0.48 
  -4  -1   9    4.24    0.42 
   4  -1  -9    3.31    0.76 
   4  -1  -9    6.41    0.82 
  -4   1   9    4.85    0.42 
  -4   1   9    4.53    0.54 
   4   1  -9    4.49    0.30 
  -4   1   9    4.66    0.40 
  -4   1   9    5.14    0.58 
   4   1  -9    4.69    0.78 
   4   1  -9    3.93    0.87 
   4   1  -9    4.53    0.33 
   4   1  -9    4.88    0.78 
  -4   1   9    4.82    0.45 
   3  -1  -9    9.92    0.80 
   3  -1  -9    9.54    1.34 
  -3  -1   9    9.62    0.61 
   3  -1  -9    8.91    0.98 
  -3  -1   9    9.56    0.63 
   3  -1  -9   10.96    1.14 
  -3  -1   9   10.62    0.59 
   3  -1  -9    8.09    1.25 
  -3  -1   9    9.14    0.52 
   3  -1  -9   10.33    0.55 
  -3  -1   9    9.86    0.62 
  -3  -1   9   11.15    0.69 
   3   1  -9   12.17    0.99 
   3   1  -9   10.01    0.83 
  -3   1   9    9.72    0.55 
   3   1  -9    8.66    0.38 
   3   1  -9    9.12    0.37 
  -3   1   9    9.85    0.53 
  -3   1   9   10.00    0.52 
   3   1  -9    9.48    1.02 
  -3   1   9    9.80    0.52 
  -3   1   9    9.86    0.65 
   2  -1  -9    5.15    0.43 
  -2  -1   9    4.42    0.40 
   2  -1  -9    3.22    0.79 
   2  -1  -9    4.46    1.14 
  -2  -1   9    4.38    0.50 
   2  -1  -9    4.01    0.39 
  -2  -1   9    3.58    0.44 
   2  -1  -9    4.81    0.94 
   2  -1  -9    3.56    0.77 
  -2  -1   9    4.11    0.55 
  -2  -1   9    3.38    0.46 
   2   1  -9    4.62    0.64 
  -2   1   9    4.11    0.42 
  -2   1   9    3.74    0.42 
  -2   1   9    3.72    0.47 
  -2   1   9    4.00    0.41 
  -2   1   9    4.51    0.51 
   2   1  -9    4.76    0.96 
   2   1  -9    3.89    0.81 
   2   1  -9    2.75    0.76 
   1  -1  -9   13.91    0.57 
   1  -1  -9   13.45    1.19 
   1  -1  -9   13.88    1.18 
  -1  -1   9   13.36    0.68 
   1  -1  -9   13.92    1.20 
   1  -1  -9   13.15    0.86 
  -1  -1   9   13.06    0.56 
  -1  -1   9   13.48    0.76 
   1  -1  -9   13.61    0.54 
  -1  -1   9   13.42    0.65 
   1   1  -9   13.82    1.17 
  -1   1   9   13.20    0.62 
  -1   1   9   13.58    0.65 
   1   1  -9   13.33    0.74 
   1   1  -9   14.58    0.94 
  -1   1   9   12.41    0.62 
   1   1  -9   12.45    1.07 
   1   1  -9   13.59    0.90 
  -1   1   9   14.23    0.62 
   1   1  -9   12.86    0.62 
  -1   1   9   13.50    0.59 
   0  -1   9    6.24    0.48 
   0  -1   9    5.34    0.54 
   0  -1  -9    5.58    0.75 
   0  -1   9    5.71    0.47 
   0  -1   9    6.78    0.59 
   0  -1  -9    5.17    0.91 
   0  -1  -9    5.88    0.87 
   0  -1   9    5.64    0.51 
   0  -1  -9    5.61    0.36 
   0   1  -9    5.19    0.81 
   0   1   9    6.73    0.56 
   0   1   9    7.61    0.51 
   0   1  -9    5.38    0.81 
   0   1  -9    7.43    0.73 
   0   1  -9    5.44    0.79 
   0   1   9    6.60    0.58 
   0   1  -9    6.35    0.44 
   0   1   9    7.50    0.48 
  -1  -1  -9   26.96    0.70 
   1  -1   9   28.02    0.86 
   1  -1   9   28.75    0.99 
   1  -1   9   27.01    0.85 
   1  -1   9   26.87    0.91 
  -1  -1  -9   25.73    1.11 
   1  -1   9   28.58    0.99 
  -1  -1  -9   26.06    1.17 
   1   1   9   28.59    0.94 
  -1   1  -9   28.28    0.81 
   1   1   9   29.16    0.91 
  -1   1  -9   29.06    1.34 
  -1   1  -9   29.64    1.37 
   1   1   9   28.87    0.88 
  -1   1  -9   30.16    1.38 
  -1   1  -9   29.07    0.79 
   2  -1   9   26.25    0.73 
   2  -1   9   27.10    0.97 
   2  -1   9   25.98    1.08 
  -2  -1  -9   23.73    0.92 
  -2  -1  -9   26.92    0.62 
  -2  -1  -9   26.87    0.68 
  -2  -1  -9   26.60    0.68 
  -2  -1  -9   25.96    0.68 
  -2  -1  -9   26.73    0.44 
   2  -1   9   28.52    0.89 
  -2  -1  -9   26.50    0.65 
   2  -1   9   26.36    0.85 
  -2  -1  -9   26.99    0.52 
  -2  -1  -9   27.35    1.02 
  -2  -1  -9   26.72    0.67 
   2  -1   9   27.49    0.93 
  -2  -1  -9   26.62    0.63 
   2   1   9   29.81    0.89 
  -2   1  -9   28.53    1.18 
  -2   1  -9   27.28    0.73 
  -2   1  -9   27.79    0.78 
  -2   1  -9   28.28    0.58 
  -2   1  -9   27.81    0.61 
  -2   1  -9   28.30    0.77 
  -2   1  -9   28.38    0.70 
  -2   1  -9   29.56    1.18 
  -2   1  -9   28.66    0.73 
   2   1   9   29.63    0.97 
  -3  -1  -9   14.15    0.47 
   3  -1   9   13.48    0.55 
   3  -1   9   12.39    0.62 
  -3  -1  -9   13.81    0.48 
  -3  -1  -9   14.20    0.48 
   3  -1   9   15.70    0.77 
  -3  -1  -9   14.32    0.41 
  -3  -1  -9   14.34    0.38 
  -3  -1  -9   14.05    0.49 
  -3  -1  -9   14.62    0.37 
  -3  -1  -9   14.44    0.32 
  -3  -1  -9   14.20    0.30 
  -3  -1  -9   13.71    0.45 
   3  -1   9   15.19    0.74 
  -3   1  -9   15.26    0.85 
  -3   1  -9   14.68    0.52 
  -3   1  -9   15.02    0.51 
  -3   1  -9   15.18    0.54 
  -3   1  -9   14.94    0.42 
   3   1   9   15.24    0.73 
  -3   1  -9   15.14    0.66 
  -3   1  -9   15.04    0.38 
  -3   1  -9   14.82    0.50 
  -3   1  -9   15.47    0.81 
   3   1   9   14.77    0.64 
  -3   1  -9   15.38    0.53 
  -4  -1  -9   20.40    0.55 
  -4  -1  -9   20.48    0.54 
  -4  -1  -9   19.75    0.48 
  -4  -1  -9   19.09    0.52 
  -4  -1  -9   20.05    0.52 
   4  -1   9   19.66    0.60 
   4  -1   9   20.53    0.78 
  -4  -1  -9   21.14    0.51 
   4  -1   9   20.05    0.72 
  -4   1  -9   21.30    0.59 
  -4   1  -9   20.98    0.49 
  -4   1  -9   21.28    0.57 
  -4   1  -9   21.60    0.59 
  -4   1  -9   20.82    0.49 
   4   1   9   20.34    0.76 
  -4   1  -9   21.96    0.43 
  -4   1  -9   20.26    0.56 
  -4   1  -9   21.77    0.57 
  -4   1  -9   20.88    0.76 
   4   1   9   20.20    0.70 
   5  -1   9    4.31    0.34 
   5  -1   9    4.45    0.48 
  -5  -1  -9    3.93    0.21 
  -5  -1  -9    4.01    0.40 
  -5  -1  -9    4.00    0.25 
  -5  -1  -9    4.02    0.24 
  -5  -1  -9    4.53    0.24 
  -5   1  -9    4.55    0.40 
  -5   1  -9    4.11    0.28 
  -5   1  -9    4.00    0.28 
  -5   1  -9    4.01    0.12 
  -5   1  -9    3.90    0.28 
  -6  -1  -9    3.69    0.22 
  -6  -1  -9    4.04    0.18 
  -6  -1  -9    4.33    0.16 
  -6   1  -9    4.30    0.32 
 -11  -2   9    7.39    0.15 
  11  -2  -9    7.55    0.26 
  11  -2  -9    7.54    0.46 
 -11  -2   9    7.32    0.22 
 -11   2   9    7.01    0.30 
 -11   2   9    7.89    0.22 
 -11   2   9    8.36    0.31 
 -11   2   9    8.10    0.29 
  10  -2  -9    3.19    0.35 
  10  -2  -9    3.77    0.30 
  10  -2  -9    3.92    0.54 
 -10  -2   9    3.90    0.19 
 -10  -2   9    3.96    0.23 
 -10   2   9    3.86    0.33 
 -10   2   9    3.59    0.21 
 -10   2   9    3.18    0.30 
 -10   2   9    3.62    0.35 
 -10   2   9    3.27    0.23 
 -10   2   9    3.21    0.33 
 -10   2   9    4.04    0.33 
 -10   2   9    3.56    0.27 
 -10   2   9    3.74    0.25 
  -9  -2   9   25.84    0.57 
   9  -2  -9   25.75    0.71 
   9  -2  -9   26.84    0.57 
  -9  -2   9   25.34    0.55 
   9  -2  -9   25.38    0.91 
   9  -2  -9   26.03    1.61 
   9  -2  -9   26.25    0.66 
  -9  -2   9   26.47    0.51 
  -9   2   9   27.98    0.78 
  -9   2   9   27.58    0.60 
  -9   2   9   27.49    0.72 
  -9   2   9   27.90    0.75 
  -9   2   9   26.60    0.70 
  -9   2   9   28.26    0.56 
  -9   2   9   27.90    0.72 
  -9   2   9   27.67    0.50 
  -8  -2   9   37.64    0.76 
   8  -2  -9   38.79    1.89 
   8  -2  -9   38.11    0.82 
   8  -2  -9   37.30    0.70 
  -8  -2   9   37.93    0.95 
  -8  -2   9   38.85    0.81 
  -8  -2   9   37.92    0.66 
  -8  -2   9   37.51    0.82 
   8  -2  -9   39.07    1.03 
   8  -2  -9   37.71    0.89 
  -8   2   9   42.06    1.01 
   8   2  -9   41.59    0.84 
  -8   2   9   44.24    1.16 
  -8   2   9   43.50    1.04 
   8   2  -9   41.98    0.84 
  -8   2   9   41.28    0.94 
  -8   2   9   42.17    0.82 
  -8   2   9   40.55    0.78 
  -8   2   9   42.73    0.97 
  -8   2   9   42.71    0.76 
  -7  -2   9   23.70    0.54 
  -7  -2   9   23.98    0.53 
   7  -2  -9   22.96    1.65 
  -7  -2   9   24.79    0.75 
   7  -2  -9   24.53    0.56 
   7  -2  -9   22.36    0.79 
  -7  -2   9   23.82    0.69 
  -7  -2   9   22.13    0.55 
  -7  -2   9   23.65    0.65 
  -7  -2   9   23.20    0.65 
   7  -2  -9   24.59    0.71 
  -7  -2   9   24.40    0.67 
   7  -2  -9   24.59    0.64 
  -7   2   9   26.65    0.81 
  -7   2   9   24.94    0.82 
   7   2  -9   26.84    0.66 
  -7   2   9   24.97    0.84 
   7   2  -9   25.64    0.64 
  -7   2   9   25.46    0.59 
  -7   2   9   24.17    0.86 
  -6  -2   9    3.70    0.28 
  -6  -2   9    3.60    0.39 
  -6  -2   9    3.55    0.36 
   6  -2  -9    4.40    0.39 
  -6  -2   9    2.63    0.35 
   6  -2  -9    3.77    0.49 
  -6  -2   9    3.60    0.35 
  -6  -2   9    3.22    0.38 
  -6  -2   9    2.78    0.42 
  -6  -2   9    3.91    0.26 
   6  -2  -9    3.41    0.30 
  -6  -2   9    3.83    0.40 
  -6  -2   9    3.09    0.43 
  -6  -2   9    3.82    0.42 
   6  -2  -9    3.08    0.36 
  -6  -2   9    3.25    0.50 
   6  -2  -9    4.01    0.91 
  -6   2   9    3.46    0.86 
  -6   2   9    3.92    0.57 
  -6   2   9    4.56    0.46 
   6   2  -9    4.18    0.33 
  -6   2   9    3.56    0.43 
   6   2  -9    4.49    0.32 
  -6   2   9    3.72    0.59 
  -6   2   9    5.74    1.25 
  -6   2   9    4.00    0.51 
  -5  -2   9   73.77    1.54 
  -5  -2   9   74.60    1.56 
  -5  -2   9   74.27    1.43 
  -5  -2   9   73.69    1.39 
   5  -2  -9   73.30    2.09 
   5  -2  -9   74.44    3.01 
   5  -2  -9   76.41    2.49 
   5  -2  -9   72.58    1.40 
   5   2  -9   78.77    1.33 
  -5   2   9   80.75    1.60 
  -5   2   9   78.59    1.59 
   5   2  -9   81.56    2.14 
  -5   2   9   77.78    1.91 
  -5   2   9   81.62    1.57 
  -5   2   9   78.41    1.54 
   5   2  -9   78.82    1.35 
   4  -2  -9    7.70    1.29 
   4  -2  -9    7.02    0.73 
   4  -2  -9    5.72    0.96 
  -4  -2   9    5.97    0.51 
   4  -2  -9    5.60    1.13 
  -4  -2   9    6.59    0.39 
  -4  -2   9    6.07    0.42 
  -4  -2   9    6.24    0.54 
  -4  -2   9    6.13    0.51 
   4   2  -9    6.61    1.04 
  -4   2   9    8.14    0.73 
  -4   2   9    7.21    0.55 
  -4   2   9    6.87    0.46 
   4   2  -9    7.52    0.37 
   4   2  -9    7.51    0.36 
   4   2  -9    6.78    0.84 
  -4   2   9    6.94    0.49 
  -3  -2   9   10.14    0.61 
   3  -2  -9    9.54    0.51 
  -3  -2   9    8.62    0.60 
  -3  -2   9    9.16    0.56 
   3  -2  -9    7.32    1.04 
   3  -2  -9    7.95    1.19 
   3  -2  -9    8.30    0.84 
   3  -2  -9    9.14    1.31 
  -3  -2   9    8.72    0.59 
  -3  -2   9    8.73    0.53 
   3   2  -9    8.21    0.76 
  -3   2   9    9.66    0.46 
   3   2  -9    9.14    0.39 
  -3   2   9    9.41    0.58 
   3   2  -9    7.88    1.07 
  -3   2   9   10.00    0.53 
   3   2  -9   10.80    0.89 
  -3   2   9    9.42    0.62 
  -3   2   9    8.57    0.51 
   3   2  -9    8.88    0.38 
   2  -2  -9   11.82    0.53 
   2  -2  -9   12.06    1.31 
   2  -2  -9   12.19    1.19 
  -2  -2   9   11.92    0.66 
  -2  -2   9   12.15    0.72 
  -2  -2   9   11.65    0.67 
   2  -2  -9   12.68    0.98 
   2  -2  -9   12.10    1.21 
  -2  -2   9   12.44    0.62 
  -2  -2   9   11.42    0.68 
   2   2  -9   12.87    0.43 
   2   2  -9   11.92    0.93 
  -2   2   9   13.26    0.65 
  -2   2   9   12.02    0.56 
  -2   2   9   13.11    0.60 
   2   2  -9   12.44    1.02 
  -2   2   9   12.98    0.60 
   2   2  -9   10.79    0.78 
  -2   2   9   12.02    0.69 
   2   2  -9   12.62    0.43 
   1  -2  -9    7.33    1.06 
  -1  -2   9    6.79    0.60 
  -1  -2   9    5.62    0.55 
  -1  -2   9    6.29    0.59 
  -1  -2   9    6.55    0.46 
  -1  -2   9    6.33    0.56 
   1  -2  -9    6.40    0.36 
   1  -2  -9    5.06    1.13 
  -1  -2   9    6.05    0.53 
   1  -2  -9    5.39    0.84 
  -1   2   9    6.77    0.47 
  -1   2   9    6.21    0.49 
   1   2  -9    7.09    0.63 
   1   2  -9    7.45    0.88 
   1   2  -9    6.54    0.96 
  -1   2   9    6.58    0.53 
   1   2  -9    6.38    0.40 
   1   2  -9    6.30    0.75 
  -1   2   9    5.80    0.60 
   0  -2   9   44.37    1.11 
   0  -2  -9   44.92    0.97 
   0  -2  -9   45.05    1.56 
   0  -2   9   44.43    1.13 
   0  -2   9   46.01    1.20 
   0  -2  -9   46.42    1.71 
   0  -2   9   47.31    1.44 
   0  -2   9   46.43    1.20 
   0   2   9   48.10    1.15 
   0   2  -9   50.31    1.73 
   0   2  -9   50.61    1.28 
   0   2  -9   51.20    1.42 
   0   2  -9   50.42    1.52 
   0   2  -9   50.90    1.09 
   0   2   9   50.86    1.14 
   0   2  -9   53.45    1.97 
   0   2   9   51.07    1.19 
  -1  -2  -9    6.32    0.23 
  -1  -2  -9    6.59    0.37 
   1  -2   9    5.60    0.56 
   1  -2   9    6.63    0.45 
  -1  -2  -9    6.42    0.40 
  -1  -2  -9    5.51    0.38 
  -1  -2  -9    6.80    0.39 
   1  -2   9    6.86    0.62 
  -1  -2  -9    5.94    0.69 
  -1  -2  -9    5.95    0.40 
  -1  -2  -9    6.39    0.37 
   1  -2   9    6.55    0.52 
   1  -2   9    4.84    0.76 
   1  -2   9    6.52    0.62 
  -1  -2  -9    6.30    0.39 
  -1  -2  -9    6.19    0.35 
  -1  -2  -9    6.42    0.29 
  -1  -2  -9    6.50    0.67 
   1  -2   9    6.93    0.63 
  -1   2  -9    7.33    0.88 
  -1   2  -9    6.31    0.78 
  -1   2  -9    7.29    0.78 
  -1   2  -9    6.76    0.40 
  -1   2  -9    6.81    0.50 
  -1   2  -9    7.12    0.71 
   1   2   9    7.72    0.54 
   1   2   9    7.30    0.59 
  -1   2  -9    7.42    0.79 
  -1   2  -9    6.43    0.49 
  -1   2  -9    7.10    0.70 
  -2  -2  -9   12.90    0.46 
  -2  -2  -9   13.07    0.38 
   2  -2   9   12.97    0.74 
  -2  -2  -9   13.40    0.47 
   2  -2   9   12.92    0.90 
  -2  -2  -9   13.41    0.44 
   2  -2   9   12.85    0.61 
  -2  -2  -9   13.47    0.49 
   2  -2   9   12.57    0.61 
   2  -2   9   13.79    0.52 
  -2  -2  -9   12.66    0.29 
  -2  -2  -9   13.14    0.48 
  -2  -2  -9   13.00    0.46 
   2  -2   9   12.96    0.72 
  -2  -2  -9   12.69    0.45 
   2  -2   9   13.02    0.72 
  -2  -2  -9   13.09    0.32 
   2  -2   9   12.32    0.68 
  -2  -2  -9   12.85    0.35 
  -2   2  -9   12.91    0.64 
  -2   2  -9   13.15    0.95 
  -2   2  -9   13.35    0.59 
  -2   2  -9   13.43    0.95 
   2   2   9   14.20    0.65 
  -2   2  -9   13.28    0.45 
  -2   2  -9   12.90    0.55 
   2   2   9   13.57    0.61 
  -2   2  -9   13.50    0.54 
  -2   2  -9   14.47    0.54 
  -3  -2  -9   65.97    1.16 
  -3  -2  -9   63.29    1.06 
   3  -2   9   62.92    1.06 
   3  -2   9   62.89    1.49 
  -3  -2  -9   61.30    1.00 
  -3  -2  -9   62.38    1.05 
   3  -2   9   62.22    1.35 
   3  -2   9   62.62    1.39 
  -3  -2  -9   62.41    1.09 
  -3  -2  -9   63.20    1.13 
   3  -2   9   62.76    1.58 
  -3  -2  -9   62.54    0.94 
   3  -2   9   62.96    1.30 
  -3  -2  -9   62.66    0.61 
  -3   2  -9   64.81    1.43 
  -3   2  -9   64.50    0.95 
  -3   2  -9   63.65    1.56 
  -3   2  -9   63.59    1.11 
   3   2   9   62.29    1.26 
  -3   2  -9   62.22    1.61 
  -3   2  -9   63.66    1.18 
  -3   2  -9   62.33    1.17 
  -3   2  -9   63.82    1.22 
  -3   2  -9   65.50    0.91 
   3   2   9   65.81    1.32 
  -3   2  -9   63.43    1.20 
  -4  -2  -9   24.20    0.50 
   4  -2   9   24.31    0.89 
   4  -2   9   23.21    0.71 
  -4  -2  -9   22.39    0.55 
  -4  -2  -9   22.39    0.54 
   4  -2   9   22.46    0.77 
  -4  -2  -9   23.48    0.55 
  -4  -2  -9   23.50    0.52 
  -4  -2  -9   23.08    0.45 
  -4   2  -9   25.97    0.48 
   4   2   9   25.09    0.73 
  -4   2  -9   26.68    0.63 
  -4   2  -9   26.28    0.59 
  -4   2  -9   25.59    0.39 
  -4   2  -9   27.08    0.66 
  -4   2  -9   25.63    0.62 
  -4   2  -9   25.77    0.58 
  -4   2  -9   25.62    0.65 
  -4   2  -9   25.84    0.56 
  -4   2  -9   23.58    0.76 
  -5  -2  -9    1.12    0.17 
   5  -2   9    2.28    0.47 
  -5  -2  -9    1.21    0.19 
  -5  -2  -9    1.57    0.21 
   5  -2   9    1.89    0.26 
  -5   2  -9    1.85    0.13 
  -5   2  -9    1.85    0.11 
  -5   2  -9    1.88    0.24 
  -5   2  -9    1.74    0.27 
  -5   2  -9    1.75    0.24 
  -5   2  -9    1.93    0.13 
  -5   2  -9    1.85    0.15 
  -5   2  -9    1.40    0.23 
  -5   2  -9    2.01    0.26 
  -5   2  -9    1.88    0.30 
 -10  -3   9    4.11    0.19 
  10  -3  -9    4.30    0.40 
  10  -3  -9    3.92    0.20 
 -10  -3   9    4.14    0.13 
  10  -3  -9    4.29    0.47 
 -10   3   9    5.36    0.33 
 -10   3   9    4.72    0.31 
 -10   3   9    4.84    0.25 
 -10   3   9    4.82    0.29 
 -10   3   9    4.86    0.30 
 -10   3   9    4.68    0.23 
 -10   3   9    5.08    0.32 
  -9  -3   9   10.45    0.34 
   9  -3  -9   10.02    0.30 
  -9  -3   9    9.80    0.27 
   9  -3  -9   10.96    0.58 
   9  -3  -9    8.43    1.02 
  -9   3   9   10.24    0.47 
  -9   3   9   11.79    0.33 
  -9   3   9   11.73    0.38 
  -9   3   9   12.03    0.51 
  -9   3   9   10.78    0.43 
  -9   3   9   11.26    0.47 
   8  -3  -9    1.25    0.61 
   8  -3  -9    1.09    0.34 
   8  -3  -9    1.27    0.67 
  -8  -3   9    1.53    0.24 
   8  -3  -9    1.44    0.24 
  -8  -3   9    0.87    0.22 
  -8  -3   9    1.49    0.24 
  -8  -3   9    0.95    0.21 
  -8   3   9    1.05    0.20 
  -8   3   9    1.42    0.27 
  -8   3   9    1.54    0.30 
  -8   3   9    1.66    0.34 
  -8   3   9    2.00    0.47 
  -8   3   9    1.07    0.28 
  -8   3   9    1.87    0.42 
   7  -3  -9    1.31    0.70 
  -7  -3   9    1.80    0.29 
   7  -3  -9    1.62    0.24 
   7  -3  -9    1.87    0.40 
  -7  -3   9    1.88    0.13 
  -7  -3   9    1.67    0.28 
  -7  -3   9    2.04    0.28 
   7  -3  -9    0.11    0.58 
  -7  -3   9    1.43    0.22 
  -7  -3   9    1.40    0.23 
  -7   3   9    2.90    0.47 
  -7   3   9    3.01    0.51 
   7   3  -9    1.93    0.27 
  -7   3   9    1.64    0.47 
   7   3  -9    2.29    0.29 
  -7   3   9    1.96    0.51 
  -7   3   9    1.96    0.40 
  -6  -3   9    3.24    0.37 
  -6  -3   9    2.33    0.25 
   6  -3  -9    3.10    0.25 
   6  -3  -9    4.11    1.20 
  -6  -3   9    2.76    0.32 
  -6  -3   9    3.55    0.21 
   6  -3  -9    3.01    0.37 
  -6  -3   9    2.79    0.37 
  -6  -3   9    3.09    0.36 
  -6  -3   9    2.77    0.28 
   6  -3  -9    3.13    0.70 
  -6  -3   9    3.05    0.26 
  -6  -3   9    2.90    0.38 
  -6  -3   9    3.06    0.21 
   6  -3  -9    3.71    0.55 
  -6   3   9    3.45    0.61 
  -6   3   9    3.12    0.45 
  -6   3   9    3.32    0.40 
   6   3  -9    3.56    0.31 
  -6   3   9    5.18    1.33 
  -6   3   9    4.01    0.54 
   6   3  -9    4.05    0.33 
  -6   3   9    3.50    0.88 
   5  -3  -9   24.79    1.44 
  -5  -3   9   23.01    0.45 
   5  -3  -9   21.82    0.80 
  -5  -3   9   23.62    0.51 
   5  -3  -9   23.10    1.66 
  -5  -3   9   23.57    0.76 
  -5  -3   9   23.00    0.65 
  -5  -3   9   23.56    0.60 
  -5  -3   9   23.19    0.65 
  -5  -3   9   23.44    0.78 
  -5  -3   9   23.31    0.60 
   5  -3  -9   22.81    0.71 
   5  -3  -9   22.07    1.82 
  -5  -3   9   22.98    0.77 
  -5  -3   9   23.49    0.75 
  -5  -3   9   23.31    0.71 
  -5  -3   9   22.71    0.72 
   5  -3  -9   22.41    0.63 
  -5  -3   9   24.36    0.69 
   5   3  -9   25.29    0.63 
  -5   3   9   25.27    0.56 
  -5   3   9   24.32    1.02 
  -5   3   9   24.48    1.04 
  -5   3   9   25.72    0.85 
  -5   3   9   28.55    1.68 
  -5   3   9   23.61    0.72 
  -5   3   9   25.30    0.85 
  -5   3   9   24.39    0.98 
   5   3  -9   25.81    0.64 
  -5   3   9   25.05    0.88 
  -5   3   9   25.33    0.72 
   4  -3  -9   44.77    0.92 
   4  -3  -9   46.17    2.05 
  -4  -3   9   46.14    1.00 
   4  -3  -9   44.60    2.25 
   4  -3  -9   47.80    1.06 
  -4  -3   9   44.75    1.07 
  -4  -3   9   47.45    1.20 
  -4  -3   9   44.75    0.77 
  -4  -3   9   44.46    1.13 
  -4  -3   9   44.50    0.72 
   4  -3  -9   47.12    2.13 
  -4  -3   9   44.58    1.02 
  -4  -3   9   44.06    0.94 
   4  -3  -9   44.87    2.01 
   4  -3  -9   42.58    1.03 
   4  -3  -9   41.08    2.05 
  -4  -3   9   44.62    1.00 
  -4  -3   9   45.74    1.01 
  -4   3   9   53.55    1.30 
  -4   3   9   51.74    1.16 
  -4   3   9   51.90    1.09 
  -4   3   9   50.89    0.94 
   4   3  -9   55.55    1.03 
  -4   3   9   52.50    1.40 
  -4   3   9   52.51    1.29 
   4   3  -9   53.06    1.66 
   4   3  -9   53.09    0.99 
   3  -3  -9   40.47    1.93 
  -3  -3   9   33.08    0.85 
   3  -3  -9   32.83    0.79 
   3  -3  -9   33.13    1.34 
  -3  -3   9   32.87    0.92 
  -3  -3   9   32.93    0.71 
  -3  -3   9   32.20    0.66 
  -3  -3   9   33.29    0.83 
   3  -3  -9   32.71    1.71 
   3  -3  -9   35.76    1.80 
  -3  -3   9   31.88    1.01 
   3  -3  -9   32.99    0.88 
  -3  -3   9   32.59    0.88 
  -3  -3   9   34.79    1.04 
  -3  -3   9   31.30    0.93 
   3  -3  -9   32.82    0.85 
  -3  -3   9   34.35    0.96 
   3  -3  -9   32.65    0.72 
   3  -3  -9   32.22    0.85 
  -3  -3   9   35.12    1.08 
  -3   3   9   36.38    1.17 
   3   3  -9   36.83    0.78 
   3   3  -9   37.11    0.71 
  -3   3   9   37.95    0.83 
   3   3  -9   37.99    1.57 
  -3   3   9   37.17    0.98 
  -3   3   9   37.81    1.09 
  -3   3   9   37.39    1.07 
  -3   3   9   36.99    0.91 
  -3   3   9   38.44    0.91 
   3   3  -9   38.98    0.82 
   3   3  -9   38.10    1.37 
   3   3  -9   35.68    0.97 
  -2  -3   9    2.34    0.50 
  -2  -3   9    2.32    0.46 
   2  -3  -9    2.23    0.29 
   2  -3  -9    2.02    0.34 
  -2  -3   9    2.04    0.60 
  -2  -3   9    0.94    0.34 
   2  -3  -9    1.23    0.26 
   2  -3  -9    1.50    0.32 
  -2  -3   9    0.93    0.36 
   2  -3  -9    1.59    0.36 
   2  -3  -9    2.43    0.82 
  -2  -3   9    1.90    0.51 
   2  -3  -9    1.96    0.41 
  -2  -3   9    1.78    0.45 
  -2  -3   9    2.33    0.48 
   2  -3  -9    2.27    0.73 
  -2  -3   9    2.48    0.47 
   2  -3  -9    1.65    0.38 
  -2  -3   9    1.96    0.36 
   2  -3  -9    1.51    0.26 
  -2  -3   9    2.99    0.37 
   2  -3  -9    1.66    0.27 
   2   3  -9    1.95    0.41 
   2   3  -9    3.00    0.57 
  -2   3   9    2.19    0.42 
   2   3  -9    2.25    0.59 
   2   3  -9    2.76    0.26 
  -2   3   9    2.10    0.37 
   2   3  -9    2.48    0.28 
   2   3  -9    2.94    0.79 
  -2   3   9    2.75    0.50 
   2   3  -9    2.31    0.28 
  -2   3   9    1.75    0.38 
  -2   3   9    2.34    0.50 
  -2   3   9    2.31    0.39 
   1  -3  -9   20.54    0.48 
  -1  -3   9   21.43    0.88 
   1  -3  -9   21.22    0.42 
   1  -3  -9   20.60    0.45 
   1  -3  -9   18.14    1.30 
   1  -3  -9   21.79    0.67 
  -1  -3   9   20.07    0.93 
   1  -3  -9   21.14    1.23 
   1  -3  -9   21.84    0.64 
  -1  -3   9   21.56    0.88 
   1  -3  -9   21.13    0.60 
  -1  -3   9   19.88    1.54 
   1  -3  -9   20.96    0.64 
  -1  -3   9   21.40    0.75 
  -1  -3   9   20.34    0.79 
  -1  -3   9   21.68    0.81 
  -1  -3   9   21.47    0.88 
   1  -3  -9   20.99    0.60 
   1  -3  -9   20.87    0.55 
  -1  -3   9   20.57    0.79 
   1  -3  -9   20.25    0.65 
   1  -3  -9   20.73    0.62 
  -1  -3   9   23.86    1.50 
  -1   3   9   23.60    0.76 
   1   3  -9   24.13    0.52 
   1   3  -9   25.20    0.77 
   1   3  -9   23.84    1.44 
  -1   3   9   24.39    0.81 
   1   3  -9   23.50    1.15 
  -1   3   9   23.52    0.72 
   1   3  -9   23.35    0.66 
   1   3  -9   22.69    1.11 
   1   3  -9   23.56    0.95 
   0  -3  -9   37.56    0.73 
   0  -3  -9   37.84    0.76 
   0  -3  -9   38.52    0.87 
   0  -3  -9   37.45    0.82 
   0  -3   9   37.75    1.04 
   0  -3  -9   37.42    0.85 
   0  -3  -9   39.88    1.31 
   0  -3  -9   34.52    1.55 
   0  -3  -9   38.10    0.86 
   0  -3   9   39.38    2.13 
   0  -3   9   37.39    1.05 
   0  -3  -9   38.19    0.85 
   0  -3   9   38.35    1.16 
   0  -3   9   37.87    1.17 
   0  -3  -9   36.39    0.79 
   0  -3  -9   38.23    0.76 
   0  -3  -9   37.17    0.62 
   0  -3   9   36.43    1.09 
   0  -3   9   39.01    1.22 
   0  -3  -9   37.54    0.55 
   0   3   9   43.90    1.04 
   0   3  -9   44.85    1.18 
   0   3  -9   44.21    1.47 
   0   3  -9   44.51    0.98 
   0   3   9   43.38    1.08 
   0   3  -9   43.77    1.02 
   0   3  -9   43.59    1.34 
   0   3  -9   44.12    0.68 
   0   3  -9   47.06    1.90 
   1  -3   9   24.91    0.96 
  -1  -3  -9   25.28    0.49 
  -1  -3  -9   24.59    0.63 
  -1  -3  -9   25.97    0.52 
  -1  -3  -9   25.37    0.41 
   1  -3   9   24.27    0.97 
   1  -3   9   24.96    1.42 
  -1  -3  -9   24.75    0.44 
  -1  -3  -9   25.50    0.67 
   1  -3   9   25.01    0.87 
  -1  -3  -9   24.97    0.59 
  -1  -3  -9   25.71    0.66 
  -1  -3  -9   24.89    0.63 
  -1  -3  -9   23.99    0.59 
   1  -3   9   25.46    0.79 
   1  -3   9   24.90    0.88 
  -1  -3  -9   26.03    0.67 
  -1   3  -9   27.41    0.72 
  -1   3  -9   28.34    0.86 
   1   3   9   25.40    0.80 
  -1   3  -9   26.81    0.73 
  -1   3  -9   26.86    1.61 
  -1   3  -9   27.20    0.91 
  -1   3  -9   28.05    1.50 
   1   3   9   27.73    0.80 
  -1   3  -9   29.18    1.31 
  -2  -3  -9    8.81    0.14 
   2  -3   9    8.89    0.70 
  -2  -3  -9    8.58    0.39 
  -2  -3  -9    8.77    0.39 
   2  -3   9    9.22    0.95 
   2  -3   9    9.09    0.70 
   2  -3   9    8.79    0.37 
   2  -3   9    9.10    0.58 
   2  -3   9    8.58    0.70 
  -2  -3  -9    8.71    0.36 
  -2  -3  -9    9.07    0.38 
  -2  -3  -9    8.88    0.37 
  -2  -3  -9    8.09    0.37 
  -2  -3  -9    8.98    0.37 
  -2   3  -9   10.88    0.82 
   2   3   9   10.61    0.53 
  -2   3  -9   10.26    0.44 
   2   3   9    9.06    0.49 
  -2   3  -9   10.86    0.86 
  -2   3  -9    9.33    0.49 
  -2   3  -9    9.34    0.56 
  -2   3  -9    9.79    0.50 
   3  -3   9    2.49    0.51 
  -3  -3  -9    2.43    0.24 
  -3  -3  -9    2.85    0.23 
   3  -3   9    3.55    0.60 
   3  -3   9    2.80    0.56 
   3  -3   9    2.39    0.27 
  -3  -3  -9    2.70    0.24 
  -3  -3  -9    2.64    0.25 
   3  -3   9    3.01    0.67 
  -3  -3  -9    2.60    0.25 
  -3   3  -9    3.11    0.35 
  -3   3  -9    2.48    0.25 
  -3   3  -9    2.86    0.40 
  -3   3  -9    3.06    0.30 
  -3   3  -9    3.24    0.25 
  -4  -3  -9    2.67    0.18 
  -4  -3  -9    2.58    0.23 
   4  -3   9    2.34    0.53 
   4  -3   9    2.68    0.23 
   4  -3   9    2.47    0.42 
   4  -3   9    2.48    0.48 
  -4   3  -9    2.80    0.16 
  -4   3  -9    1.93    0.28 
  -4   3  -9    2.53    0.24 
  -4   3  -9    2.34    0.20 
  -4   3  -9    2.16    0.27 
  -4   3  -9    2.86    0.38 
  -4   3  -9    3.31    0.26 
  -4   3  -9    2.90    0.28 
  -4   3  -9    2.67    0.25 
   9  -4  -9   10.03    0.69 
  -9  -4   9   10.32    0.26 
  -9  -4   9   10.20    0.18 
   9  -4  -9   10.05    0.39 
  -9   4   9   11.58    0.36 
  -9   4   9   11.51    0.41 
  -9   4   9   11.75    0.27 
   8  -4  -9    9.25    0.98 
   8  -4  -9   11.12    0.50 
  -8  -4   9   11.06    0.27 
   8  -4  -9   11.63    0.75 
  -8  -4   9   10.98    0.32 
  -8   4   9   11.59    0.46 
  -8   4   9   11.46    0.47 
  -8   4   9   11.72    0.38 
  -8   4   9   12.58    0.37 
  -8   4   9   12.13    0.41 
  -8   4   9   11.82    0.44 
  -7  -4   9   11.67    0.46 
   7  -4  -9   11.68    0.54 
  -7  -4   9   11.79    0.35 
  -7  -4   9   11.00    0.38 
   7  -4  -9   11.34    0.75 
  -7  -4   9   12.29    0.42 
  -7  -4   9   11.31    0.31 
   7  -4  -9   11.08    1.01 
   7   4  -9   13.50    0.41 
   7   4  -9   13.06    0.43 
  -7   4   9   13.71    0.61 
  -7   4   9   12.66    0.45 
   6  -4  -9    9.41    0.88 
  -6  -4   9    8.01    0.38 
  -6  -4   9    7.09    0.46 
   6  -4  -9    8.07    0.46 
   6  -4  -9    8.33    1.25 
  -6  -4   9    7.98    0.38 
  -6  -4   9    8.58    0.40 
   6  -4  -9    7.29    0.56 
  -6  -4   9    7.85    0.16 
  -6   4   9    8.78    0.67 
  -6   4   9    8.22    1.10 
  -6   4   9    8.62    0.57 
  -6   4   9    9.27    1.29 
   6   4  -9    8.73    0.36 
   6   4  -9    8.78    0.37 
  -5  -4   9   44.97    0.56 
  -5  -4   9   44.13    0.93 
  -5  -4   9   44.99    0.87 
  -5  -4   9   44.77    0.72 
  -5  -4   9   44.80    1.03 
  -5  -4   9   45.18    0.72 
   5  -4  -9   44.85    0.88 
  -5  -4   9   44.36    0.90 
   5  -4  -9   46.28    2.05 
   5  -4  -9   45.11    1.00 
   5  -4  -9   45.64    1.04 
  -5  -4   9   45.33    0.63 
  -5  -4   9   44.88    0.90 
   5  -4  -9   44.58    1.97 
  -5  -4   9   44.23    0.97 
  -5   4   9   53.01    1.21 
   5   4  -9   52.24    0.97 
  -5   4   9   53.89    1.26 
  -5   4   9   54.20    1.40 
  -5   4   9   53.25    0.82 
  -5   4   9   54.60    2.37 
   5   4  -9   52.25    0.99 
  -4  -4   9   14.22    0.63 
   4  -4  -9   15.66    0.54 
  -4  -4   9   15.49    0.40 
  -4  -4   9   15.68    0.58 
   4  -4  -9   16.20    1.34 
  -4  -4   9   15.55    0.45 
  -4  -4   9   15.82    0.55 
  -4  -4   9   16.41    0.57 
  -4  -4   9   15.17    0.56 
  -4  -4   9   15.79    0.64 
   4  -4  -9   14.08    1.38 
   4  -4  -9   15.68    0.59 
   4  -4  -9   16.22    0.62 
  -4  -4   9   16.17    0.59 
   4  -4  -9   15.10    0.45 
  -4  -4   9   15.36    0.45 
  -4  -4   9   13.22    0.63 
  -4  -4   9   15.40    0.31 
   4  -4  -9   16.86    0.49 
  -4   4   9   17.16    0.56 
   4   4  -9   17.81    0.51 
  -4   4   9   17.67    0.52 
   4   4  -9   18.13    0.53 
  -4   4   9   17.79    0.80 
  -4   4   9   17.76    0.73 
  -3  -4   9   61.22    1.41 
  -3  -4   9   60.76    1.05 
   3  -4  -9   61.02    1.16 
  -3  -4   9   62.08    1.24 
  -3  -4   9   61.58    0.90 
   3  -4  -9   62.17    0.94 
   3  -4  -9   64.70    2.12 
   3  -4  -9   61.54    1.06 
  -3  -4   9   60.95    1.41 
   3  -4  -9   62.41    2.16 
  -3  -4   9   60.71    1.19 
   3  -4  -9   61.73    1.24 
   3  -4  -9   61.82    0.90 
   3  -4  -9   63.48    1.23 
  -3  -4   9   60.43    0.92 
  -3  -4   9   61.65    1.16 
  -3  -4   9   62.89    1.23 
  -3  -4   9   60.99    1.41 
   3  -4  -9   61.89    1.23 
  -3  -4   9   62.05    1.16 
   3  -4  -9   62.40    1.10 
   3  -4  -9   61.49    1.24 
   3   4  -9   70.23    1.42 
  -3   4   9   70.36    1.12 
  -3   4   9   72.03    1.29 
   3   4  -9   70.98    2.04 
   3   4  -9   69.77    1.19 
  -3   4   9   71.92    1.56 
  -3   4   9   70.89    1.57 
   3   4  -9   71.13    1.07 
  -3   4   9   69.13    1.29 
   3   4  -9   70.57    1.21 
   2  -4  -9   11.45    0.44 
   2  -4  -9   11.54    0.36 
   2  -4  -9   11.55    0.43 
  -2  -4   9   11.39    0.45 
   2  -4  -9   10.76    0.49 
   2  -4  -9   10.68    0.31 
  -2  -4   9   11.47    0.57 
  -2  -4   9   12.11    0.68 
   2  -4  -9   11.78    0.49 
  -2  -4   9   12.54    0.71 
  -2  -4   9   11.15    0.52 
  -2  -4   9   11.06    0.39 
   2  -4  -9   12.96    1.19 
  -2  -4   9   11.10    0.40 
   2  -4  -9   12.15    0.48 
  -2  -4   9   11.83    0.56 
   2  -4  -9   11.30    1.03 
  -2  -4   9   12.50    0.68 
   2  -4  -9   11.49    0.48 
   2  -4  -9   11.64    0.52 
   2  -4  -9   12.10    0.47 
  -2   4   9   13.91    0.57 
   2   4  -9   13.57    0.41 
  -2   4   9   12.93    0.69 
   2   4  -9   13.59    0.43 
  -2   4   9   13.57    0.55 
   2   4  -9   13.33    0.93 
   2   4  -9   12.58    0.61 
   2   4  -9   13.39    0.45 
  -2   4   9   12.97    0.52 
  -2   4   9   13.15    0.92 
  -1  -4   9    7.49    0.39 
   1  -4  -9    7.11    0.39 
   1  -4  -9    6.75    0.83 
  -1  -4   9    6.85    0.59 
   1  -4  -9    7.10    0.42 
   1  -4  -9    7.55    0.42 
   1  -4  -9    7.70    0.33 
  -1  -4   9    7.17    0.51 
  -1  -4   9    7.50    0.53 
   1  -4  -9    8.19    0.43 
  -1  -4   9    7.46    0.51 
   1  -4  -9    7.19    0.41 
   1  -4  -9    7.80    0.29 
   1  -4  -9    7.56    0.41 
   1  -4  -9    7.42    0.34 
  -1  -4   9    8.07    0.57 
  -1  -4   9    7.90    0.60 
   1  -4  -9    7.24    0.19 
  -1  -4   9    6.81    0.59 
   1  -4  -9    7.82    0.41 
  -1   4   9    7.91    0.47 
   1   4  -9    8.99    0.53 
   1   4  -9    8.75    0.81 
   1   4  -9    8.05    0.40 
  -1   4   9    7.76    0.47 
   1   4  -9    8.13    0.31 
   0  -4  -9   36.46    0.84 
   0  -4  -9   35.76    0.46 
   0  -4  -9   36.12    0.59 
   0  -4   9   37.11    0.99 
   0  -4  -9   35.66    0.75 
   0  -4   9   35.14    0.82 
   0  -4  -9   35.12    0.73 
   0  -4  -9   36.42    0.80 
   0  -4   9   37.94    0.98 
   0  -4   9   36.65    0.92 
   0  -4  -9   36.70    0.78 
   0  -4   9   34.65    1.15 
   0  -4   9   33.16    1.10 
   0  -4   9   36.16    1.02 
   0  -4  -9   35.76    0.76 
   0  -4  -9   35.76    0.57 
   0  -4  -9   35.40    0.72 
   0  -4  -9   35.63    0.52 
   0   4   9   42.25    0.93 
   0   4   9   44.26    0.97 
   0   4  -9   38.15    1.70 
   0   4  -9   40.91    1.09 
   0   4  -9   40.56    0.60 
   0   4  -9   39.50    1.13 
   0   4  -9   41.26    0.94 
   0   4  -9   41.88    1.12 
  -1  -4  -9    3.78    0.28 
   1  -4   9    3.28    0.52 
   1  -4   9    3.61    0.51 
   1  -4   9    3.01    0.58 
  -1  -4  -9    4.26    0.30 
  -1  -4  -9    3.33    0.27 
  -1  -4  -9    3.58    0.30 
  -1  -4  -9    3.29    0.28 
   1  -4   9    4.00    0.43 
  -1  -4  -9    3.98    0.28 
   1  -4   9    3.39    0.34 
  -1  -4  -9    3.52    0.25 
  -1   4  -9    4.60    0.45 
  -1   4  -9    5.09    0.72 
  -1   4  -9    4.17    0.35 
   1   4   9    4.28    0.38 
  -1   4  -9    4.45    0.47 
  -1   4  -9    4.14    0.70 
   1   4   9    4.17    0.36 
  -2  -4  -9    0.23    0.13 
   2  -4   9    0.08    0.26 
   2  -4   9   -0.27    0.28 
  -2  -4  -9    0.16    0.13 
   2  -4   9   -0.16    0.38 
   2  -4   9    0.05    0.23 
   2  -4   9   -0.32    0.26 
  -2  -4  -9    0.36    0.14 
  -2  -4  -9    0.38    0.14 
  -2  -4  -9    0.01    0.12 
  -2   4  -9    0.00    0.20 
   2   4   9    0.06    0.20 
  -2   4  -9    0.21    0.17 
  -2   4  -9    0.14    0.16 
   3  -4   9    0.81    0.40 
   3  -4   9    0.50    0.23 
   3  -4   9    0.37    0.26 
   3  -4   9    0.77    0.24 
  -3  -4  -9    0.74    0.12 
  -3  -4  -9    0.90    0.19 
  -3  -4  -9    0.98    0.20 
   3  -4   9    0.50    0.38 
  -3   4  -9    1.01    0.19 
  -3   4  -9    0.38    0.13 
  -3   4  -9    1.11    0.29 
  -3   4  -9    0.38    0.16 
  -3   4  -9    0.56    0.13 
  -7  -5   9    0.02    0.13 
  -7  -5   9    0.08    0.08 
   7  -5  -9    0.10    0.09 
   7  -5  -9    0.19    0.11 
  -7  -5   9    0.37    0.10 
   7  -5  -9    0.29    0.14 
  -7   5   9    0.17    0.15 
  -7   5   9    0.07    0.16 
  -6  -5   9   16.31    0.34 
  -6  -5   9   16.01    0.47 
   6  -5  -9   16.04    0.37 
   6  -5  -9   16.14    0.54 
   6  -5  -9   16.21    0.34 
  -6  -5   9   15.90    0.36 
   6  -5  -9   16.14    0.48 
  -6  -5   9   15.76    0.40 
  -6   5   9   16.67    1.19 
  -6   5   9   17.79    0.64 
  -6   5   9   17.68    0.97 
  -6   5   9   18.39    0.52 
   5  -5  -9    1.44    0.13 
   5  -5  -9    1.52    0.19 
   5  -5  -9    1.61    0.29 
   5  -5  -9    1.45    0.26 
  -5  -5   9    1.49    0.24 
  -5  -5   9    1.46    0.33 
  -5  -5   9    1.20    0.23 
   5  -5  -9    1.59    0.32 
  -5  -5   9    3.01    0.43 
  -5   5   9    1.89    0.38 
   5   5  -9    1.82    0.22 
  -5   5   9    2.54    0.48 
   4  -5  -9    1.18    0.21 
  -4  -5   9    1.51    0.27 
  -4  -5   9    1.19    0.26 
  -4  -5   9    0.98    0.15 
   4  -5  -9    1.18    0.27 
  -4  -5   9    0.93    0.27 
   4  -5  -9    1.35    0.34 
   4  -5  -9    0.97    0.22 
  -4  -5   9    1.22    0.23 
   4  -5  -9    1.12    0.18 
   4  -5  -9    1.44    0.33 
  -4  -5   9    1.35    0.11 
   4  -5  -9    1.54    0.22 
  -4  -5   9    1.27    0.28 
   4  -5  -9    0.83    0.22 
  -4  -5   9    1.13    0.13 
  -4   5   9    1.41    0.23 
  -4   5   9    1.47    0.22 
  -4   5   9    0.68    0.53 
  -4   5   9    1.32    0.30 
   4   5  -9    1.07    0.24 
   4   5  -9    1.50    0.22 
   4   5  -9    1.50    0.23 
   3  -5  -9    1.88    0.32 
  -3  -5   9    2.68    0.43 
   3  -5  -9    2.13    0.31 
   3  -5  -9    2.02    0.31 
   3  -5  -9    2.30    0.24 
   3  -5  -9    1.98    0.32 
  -3  -5   9    2.05    0.19 
  -3  -5   9    2.30    0.32 
  -3  -5   9    2.28    0.31 
  -3  -5   9    2.28    0.30 
  -3  -5   9    2.68    0.34 
   3  -5  -9    1.31    0.30 
  -3  -5   9    2.93    0.40 
   3  -5  -9    2.41    0.15 
  -3  -5   9    2.10    0.22 
   3  -5  -9    2.48    0.32 
   3  -5  -9    2.30    0.21 
  -3  -5   9    2.29    0.22 
   3  -5  -9    2.36    0.26 
  -3   5   9    2.55    0.26 
   3   5  -9    2.88    0.25 
   3   5  -9    2.66    0.23 
   3   5  -9    3.01    0.37 
  -3   5   9    3.10    0.28 
   3   5  -9    2.90    0.26 
  -3   5   9    2.90    0.30 
  -3   5   9    3.10    0.49 
  -2  -5   9   11.49    0.36 
   2  -5  -9   11.65    0.33 
  -2  -5   9   11.83    0.25 
   2  -5  -9   11.51    0.43 
  -2  -5   9   11.60    0.46 
  -2  -5   9   12.66    0.60 
   2  -5  -9   11.49    0.45 
   2  -5  -9   12.16    0.45 
   2  -5  -9   11.64    0.45 
   2  -5  -9   11.92    0.48 
  -2  -5   9   12.55    0.47 
   2  -5  -9   12.22    0.46 
  -2  -5   9   12.29    0.51 
   2  -5  -9   11.87    0.31 
  -2  -5   9   11.66    0.48 
   2  -5  -9   11.52    0.28 
   2  -5  -9   11.74    0.39 
  -2  -5   9   12.19    0.33 
   2   5  -9   14.32    0.36 
  -2   5   9   13.65    0.46 
  -2   5   9   14.17    0.45 
   2   5  -9   12.99    0.41 
  -2   5   9   14.66    0.67 
   2   5  -9   14.76    0.56 
  -2   5   9   13.72    0.48 
   1  -5  -9    6.35    0.13 
   1  -5  -9    6.35    0.14 
  -1  -5   9    5.93    0.48 
   1  -5  -9    6.36    0.31 
  -1  -5   9    6.92    0.26 
  -1  -5   9    6.14    0.36 
   1  -5  -9    6.29    0.33 
   1  -5  -9    6.93    0.33 
   1  -5  -9    6.85    0.35 
   1  -5  -9    6.78    0.36 
   1  -5  -9    5.71    0.12 
  -1  -5   9    6.17    0.44 
   1  -5  -9    6.91    0.32 
  -1  -5   9    6.68    0.39 
  -1  -5   9    7.04    0.41 
  -1  -5   9    6.03    0.30 
   1   5  -9    7.52    0.25 
  -1   5   9    7.56    0.39 
   1   5  -9    8.37    0.49 
  -1   5   9    7.92    0.39 
   1   5  -9    7.92    0.42 
   1   5  -9    8.43    0.71 
   0  -5  -9    4.59    0.28 
   0  -5  -9    4.17    0.27 
   0  -5  -9    4.60    0.29 
   0  -5   9    4.67    0.19 
   0  -5  -9    5.08    0.32 
   0  -5   9    4.51    0.38 
   0  -5  -9    4.91    0.25 
   0  -5   9    4.26    0.25 
   0  -5   9    4.53    0.40 
   0   5  -9    4.57    0.78 
   0   5  -9    4.72    0.39 
   0   5  -9    4.76    0.40 
   0   5  -9    5.46    0.34 
   1  -5   9    4.52    0.23 
   1  -5   9    4.22    0.32 
  -1  -5  -9    4.46    0.26 
   1  -5   9    3.91    0.31 
  -1  -5  -9    4.20    0.23 
   1  -5   9    4.77    0.36 
  -1  -5  -9    4.72    0.22 
   1  -5   9    4.40    0.21 
  -1   5  -9    4.43    0.39 
  -1   5  -9    4.67    0.37 
  -1   5  -9    4.87    0.37 
   2  -5   9    0.88    0.16 
  -2  -5  -9    1.18    0.16 
  -2  -5  -9    1.01    0.13 
 -11   0  10   14.36    0.35 
 -11   0  10   14.59    0.35 
 -11   0  10   14.05    0.32 
 -11   0  10   14.97    0.37 
 -11   0  10   13.54    0.30 
 -10   0  10    2.24    0.27 
 -10   0  10    1.96    0.27 
  10   0 -10    1.16    0.27 
 -10   0  10    2.08    0.26 
  -9   0  10   -0.01    0.17 
   9   0 -10    0.21    0.22 
   9   0 -10   -0.12    0.19 
  -9   0  10    0.00    0.19 
  -9   0  10    0.22    0.18 
  -9   0  10    0.27    0.09 
  -9   0  10   -0.20    0.21 
   8   0 -10   27.81    0.74 
  -8   0  10   26.32    0.66 
  -8   0  10   26.43    0.72 
  -8   0  10   27.94    0.81 
  -8   0  10   26.45    0.68 
  -8   0  10   24.48    0.69 
  -8   0  10   26.76    0.47 
   8   0 -10   26.19    0.66 
  -8   0  10   25.61    0.64 
   7   0 -10   27.36    1.45 
  -7   0  10   27.03    0.58 
   7   0 -10   28.49    0.75 
  -7   0  10   28.06    0.71 
  -7   0  10   28.48    0.85 
  -7   0  10   27.71    0.75 
  -7   0  10   26.99    0.79 
   7   0 -10   27.51    0.59 
   7   0 -10   27.92    0.69 
  -7   0  10   27.66    0.81 
   7   0 -10   30.07    1.77 
   6   0 -10    0.95    0.81 
  -6   0  10   -0.03    0.28 
  -6   0  10    0.91    0.23 
  -6   0  10    1.09    0.24 
   6   0 -10    0.04    0.61 
  -6   0  10    0.37    0.31 
  -6   0  10    0.89    0.33 
   6   0 -10    1.15    0.36 
  -6   0  10    0.89    0.32 
   6   0 -10    1.02    0.21 
  -6   0  10    0.47    0.28 
   6   0 -10    1.43    0.33 
  -6   0  10    0.33    0.21 
   6   0 -10    0.78    0.72 
   6   0 -10    1.33    0.29 
  -5   0  10   90.07    1.72 
   5   0 -10   93.69    2.76 
  -5   0  10   90.31    1.92 
   5   0 -10   91.15    1.56 
   5   0 -10   94.75    2.44 
   5   0 -10   92.80    1.47 
  -5   0  10   92.62    2.00 
   5   0 -10   89.18    2.59 
  -5   0  10   87.48    1.74 
   4   0 -10   21.43    1.71 
  -4   0  10   20.91    0.79 
   4   0 -10   20.93    0.63 
   4   0 -10   21.78    1.11 
   4   0 -10   22.63    1.29 
  -4   0  10   21.76    0.89 
   4   0 -10   21.29    1.39 
  -4   0  10   22.96    0.93 
  -4   0  10   21.38    0.78 
  -3   0  10   27.18    0.83 
   3   0 -10   28.29    1.78 
  -3   0  10   29.23    0.90 
  -3   0  10   27.78    1.05 
   3   0 -10   26.65    1.15 
  -3   0  10   26.51    0.85 
  -3   0  10   25.59    0.78 
   3   0 -10   27.79    1.36 
   3   0 -10   27.06    0.77 
   3   0 -10   27.36    1.40 
  -2   0  10   29.51    0.85 
   2   0 -10   30.79    1.58 
  -2   0  10   30.57    0.94 
   2   0 -10   28.52    0.86 
   2   0 -10   29.28    0.82 
   2   0 -10   29.75    1.66 
   2   0 -10   32.70    1.35 
   2   0 -10   27.54    1.42 
  -2   0  10   29.45    0.94 
  -2   0  10   30.07    0.88 
   2   0 -10   29.60    1.17 
  -2   0  10   30.64    1.11 
   1   0 -10   -0.25    0.30 
  -1   0  10   -0.05    0.36 
   1   0 -10   -0.04    0.23 
   1   0 -10    0.05    0.44 
   1   0 -10    0.00    0.16 
  -1   0  10   -0.09    0.28 
   1   0 -10    0.10    0.58 
   1   0 -10   -0.19    0.21 
  -1   0  10   -0.13    0.25 
   1   0 -10    0.31    0.60 
  -1   0  10    0.09    0.31 
   1   0 -10    0.12    0.20 
  -1   0  10    0.05    0.25 
  -1   0  10    0.42    0.28 
   1   0 -10   -0.73    0.55 
   1   0 -10    0.03    0.35 
   1   0 -10    0.36    0.29 
   0   0 -10   15.61    0.60 
   0   0 -10   15.28    1.01 
   0   0 -10   15.43    0.47 
   0   0  10   17.25    0.80 
   0   0 -10   16.41    0.61 
   0   0 -10   14.98    0.62 
   0   0 -10   15.54    0.59 
   0   0  10   16.38    0.71 
   0   0 -10   16.12    0.54 
   0   0 -10   17.28    1.16 
   0   0  10   15.79    0.64 
   0   0 -10   16.06    0.46 
   0   0  10   15.38    0.88 
   0   0  10   15.98    0.74 
   0   0  10   16.16    0.73 
   0   0 -10   11.63    0.97 
   0   0  10   15.63    0.65 
  -1   0 -10    2.87    0.76 
  -1   0 -10    2.34    0.27 
  -1   0 -10    2.13    0.41 
  -1   0 -10    2.26    0.31 
   1   0  10    1.79    0.39 
  -1   0 -10    2.49    0.30 
  -1   0 -10    2.47    0.24 
  -1   0 -10    2.14    0.36 
   1   0  10    1.79    0.41 
   1   0  10    1.21    0.33 
   1   0  10    1.76    0.33 
  -1   0 -10    1.16    0.55 
  -1   0 -10    1.98    0.37 
   1   0  10    2.19    0.55 
  -1   0 -10    2.08    0.34 
   1   0  10    2.62    0.42 
  -2   0 -10   10.88    0.46 
  -2   0 -10   11.63    0.31 
  -2   0 -10   11.09    0.78 
   2   0  10   11.54    0.70 
  -2   0 -10   11.18    0.47 
   2   0  10   10.10    0.56 
  -2   0 -10   10.85    0.44 
  -2   0 -10   11.23    0.51 
  -2   0 -10   10.44    0.69 
   2   0  10   11.54    0.62 
  -2   0 -10   11.36    0.37 
  -2   0 -10   11.82    0.44 
   2   0  10   11.21    0.66 
  -3   0 -10    0.17    0.16 
  -3   0 -10    0.44    0.18 
  -3   0 -10    0.46    0.16 
  -3   0 -10    0.18    0.11 
  -3   0 -10    0.12    0.14 
  -3   0 -10    0.38    0.16 
  -3   0 -10    0.55    0.20 
  -3   0 -10    0.26    0.16 
   3   0  10    0.44    0.34 
   3   0  10    0.25    0.30 
   3   0  10    0.21    0.26 
   4   0  10    3.60    0.36 
  -4   0 -10    2.76    0.06 
  -4   0 -10    2.99    0.21 
  -4   0 -10    3.48    0.27 
  -4   0 -10    3.04    0.21 
   4   0  10    3.32    0.37 
  -5   0 -10   20.36    0.39 
  11  -1 -10    0.54    0.11 
 -11  -1  10    0.39    0.10 
 -11  -1  10    0.75    0.13 
 -11  -1  10    0.50    0.13 
 -11   1  10    0.55    0.13 
 -11   1  10    0.55    0.13 
 -11   1  10    0.58    0.13 
 -11   1  10    0.35    0.09 
 -10  -1  10    1.80    0.20 
  10  -1 -10    1.57    0.27 
  10  -1 -10    1.28    0.24 
 -10  -1  10    1.10    0.24 
 -10  -1  10    1.68    0.21 
 -10  -1  10    1.95    0.22 
 -10  -1  10    1.48    0.24 
 -10   1  10    1.73    0.28 
 -10   1  10    1.86    0.31 
 -10   1  10    1.30    0.29 
 -10   1  10    1.55    0.13 
 -10   1  10    1.52    0.16 
 -10   1  10    1.60    0.25 
 -10   1  10    2.03    0.23 
 -10   1  10    1.80    0.15 
  10   1 -10    1.24    0.26 
   9  -1 -10   25.56    0.72 
   9  -1 -10   25.71    0.65 
   9  -1 -10   27.69    1.74 
  -9  -1  10   25.74    0.65 
   9  -1 -10   26.54    0.79 
  -9  -1  10   26.01    0.33 
  -9  -1  10   27.14    0.63 
   9  -1 -10   25.92    0.55 
  -9   1  10   26.36    0.76 
  -9   1  10   26.94    0.51 
  -9   1  10   27.17    0.71 
  -9   1  10   28.40    0.62 
   9   1 -10   27.53    0.71 
  -9   1  10   27.38    0.64 
  -9   1  10   27.58    0.72 
   9   1 -10   26.96    0.65 
  -9   1  10   28.38    0.70 
  -9   1  10   26.94    0.67 
   8  -1 -10   18.79    0.56 
  -8  -1  10   19.29    0.59 
   8  -1 -10   18.63    0.72 
  -8  -1  10   18.75    0.58 
  -8  -1  10   19.51    0.65 
  -8  -1  10   19.57    0.49 
  -8  -1  10   20.10    0.60 
  -8  -1  10   18.59    0.48 
  -8  -1  10   18.88    0.67 
   8  -1 -10   19.42    0.63 
   8  -1 -10   20.52    1.65 
   8  -1 -10   19.26    0.48 
  -8   1  10   19.71    0.69 
  -8   1  10   20.96    0.69 
   8   1 -10   19.75    0.62 
  -8   1  10   19.19    0.39 
  -8   1  10   19.94    0.65 
  -8   1  10   19.66    0.53 
  -8   1  10   19.14    0.46 
  -8   1  10   19.36    0.65 
   8   1 -10   20.13    0.57 
  -7  -1  10   89.33    1.68 
   7  -1 -10   90.44    1.55 
  -7  -1  10   89.69    1.59 
  -7  -1  10   90.90    1.14 
  -7  -1  10   89.76    1.52 
  -7  -1  10   88.20    1.58 
   7  -1 -10   90.38    2.44 
   7  -1 -10   90.36    1.74 
   7  -1 -10   90.65    1.26 
  -7  -1  10   88.42    1.65 
  -7  -1  10   89.80    1.51 
  -7  -1  10   90.03    1.55 
   7  -1 -10   89.94    1.48 
   7  -1 -10   93.49    2.90 
  -7  -1  10   90.52    1.41 
  -7   1  10   92.69    1.43 
   7   1 -10   92.56    1.49 
  -7   1  10   92.46    1.73 
  -7   1  10   91.13    1.76 
   7   1 -10   95.25    1.49 
  -7   1  10   92.30    1.46 
  -7   1  10   93.69    1.32 
  -7   1  10   91.01    1.59 
   7   1 -10   93.68    2.53 
  -7   1  10   90.38    1.66 
  -6  -1  10    0.58    0.22 
  -6  -1  10    0.02    0.34 
   6  -1 -10    0.14    0.53 
  -6  -1  10    0.02    0.17 
   6  -1 -10    0.24    0.30 
   6  -1 -10    0.50    0.20 
  -6  -1  10   -0.04    0.27 
   6  -1 -10    1.07    0.72 
   6  -1 -10    0.27    0.21 
  -6  -1  10    0.77    0.28 
  -6  -1  10    0.02    0.24 
   6  -1 -10    0.10    0.15 
  -6  -1  10    0.34    0.32 
  -6  -1  10   -0.13    0.25 
   6   1 -10    0.28    0.59 
   6   1 -10    0.40    0.20 
  -6   1  10    0.40    0.49 
  -6   1  10    0.23    0.32 
  -6   1  10   -0.19    0.26 
  -6   1  10   -0.43    0.28 
   6   1 -10    0.51    0.19 
   6   1 -10    0.81    0.77 
  -6   1  10   -0.06    0.27 
  -6   1  10    0.42    0.33 
  -6   1  10    0.49    0.29 
  -6   1  10    0.63    0.29 
  -5  -1  10    6.50    0.52 
  -5  -1  10    6.70    0.58 
   5  -1 -10    7.05    0.31 
  -5  -1  10    7.58    0.45 
  -5  -1  10    7.51    0.54 
   5  -1 -10    7.60    0.59 
  -5  -1  10    7.87    0.62 
  -5  -1  10    7.05    0.45 
   5  -1 -10    7.01    0.94 
  -5  -1  10    6.82    0.57 
   5  -1 -10    8.06    1.14 
   5  -1 -10    7.42    1.30 
   5  -1 -10    7.30    0.43 
  -5  -1  10    6.58    0.58 
   5  -1 -10    7.98    0.89 
  -5  -1  10    6.78    0.52 
   5   1 -10    7.57    0.39 
  -5   1  10    7.08    0.63 
  -5   1  10    7.57    0.54 
  -5   1  10    8.43    0.74 
  -5   1  10    7.21    0.53 
   5   1 -10    6.90    0.56 
  -5   1  10    9.22    1.24 
   5   1 -10    8.09    0.38 
   5   1 -10    8.12    0.96 
   5   1 -10    7.68    0.98 
  -5   1  10    7.97    0.51 
  -5   1  10    7.96    0.63 
  -5   1  10    8.44    1.29 
   5   1 -10    8.49    1.29 
   5   1 -10    7.58    0.39 
   4  -1 -10    5.49    1.01 
  -4  -1  10    4.95    0.41 
   4  -1 -10    5.23    1.30 
  -4  -1  10    5.39    0.50 
   4  -1 -10    5.80    0.81 
   4  -1 -10    6.47    1.00 
  -4  -1  10    5.62    0.50 
  -4  -1  10    5.62    0.54 
  -4  -1  10    4.94    0.48 
  -4   1  10    6.18    0.54 
  -4   1  10    6.57    0.59 
   4   1 -10    4.47    0.89 
   4   1 -10    5.62    0.33 
  -4   1  10    5.64    0.41 
   4   1 -10    5.98    0.34 
   4   1 -10    5.70    0.82 
  -4   1  10    5.52    0.47 
  -4   1  10    5.90    0.51 
   4   1 -10    6.10    1.03 
   3  -1 -10    2.74    0.98 
   3  -1 -10    3.34    0.83 
   3  -1 -10    3.55    0.38 
   3  -1 -10    2.83    0.79 
  -3  -1  10    2.82    0.48 
   3  -1 -10    4.61    1.03 
  -3  -1  10    3.17    0.48 
  -3  -1  10    4.46    0.54 
   3  -1 -10    3.36    0.34 
   3  -1 -10    4.01    1.01 
  -3  -1  10    4.05    0.57 
  -3  -1  10    4.08    0.52 
  -3   1  10    3.62    0.42 
   3   1 -10    3.74    0.64 
  -3   1  10    3.64    0.39 
   3   1 -10    5.05    0.90 
   3   1 -10    5.20    1.20 
  -3   1  10    3.39    0.44 
   3   1 -10    3.98    0.32 
  -3   1  10    2.80    0.54 
  -3   1  10    3.35    0.44 
   3   1 -10    3.44    0.36 
   3   1 -10    5.43    1.00 
   2  -1 -10    9.20    1.18 
   2  -1 -10    6.37    0.44 
  -2  -1  10    5.59    0.48 
  -2  -1  10    6.66    0.62 
  -2  -1  10    6.75    0.48 
   2  -1 -10    6.27    0.95 
  -2  -1  10    6.96    0.57 
   2  -1 -10    6.12    0.80 
  -2  -1  10    5.59    0.42 
   2  -1 -10    6.22    1.03 
   2  -1 -10    6.30    0.42 
   2   1 -10    6.94    0.86 
   2   1 -10    6.11    0.84 
  -2   1  10    6.66    0.46 
  -2   1  10    7.79    0.58 
  -2   1  10    6.51    0.45 
   2   1 -10    6.35    0.40 
   2   1 -10    6.06    0.64 
  -2   1  10    5.70    0.50 
  -2   1  10    7.04    0.53 
   2   1 -10    5.87    1.05 
   1  -1 -10   48.48    0.87 
  -1  -1  10   49.09    1.34 
   1  -1 -10   49.82    1.80 
  -1  -1  10   46.41    1.15 
  -1  -1  10   47.89    1.10 
   1  -1 -10   48.33    1.10 
  -1  -1  10   47.55    1.12 
   1  -1 -10   50.16    1.91 
   1  -1 -10   49.05    1.06 
  -1  -1  10   47.93    0.87 
   1  -1 -10   48.70    0.83 
   1  -1 -10   46.21    0.99 
  -1  -1  10   49.05    1.46 
  -1  -1  10   48.99    1.20 
  -1  -1  10   48.74    1.23 
  -1  -1  10   47.05    1.37 
   1  -1 -10   47.95    1.04 
   1  -1 -10   47.82    1.67 
   1  -1 -10   48.95    1.10 
   1  -1 -10   48.12    0.92 
   1   1 -10   50.29    1.95 
   1   1 -10   48.86    1.86 
  -1   1  10   50.30    1.19 
   1   1 -10   52.10    1.79 
  -1   1  10   50.31    1.42 
  -1   1  10   50.50    1.11 
  -1   1  10   51.55    1.27 
   1   1 -10   48.19    2.48 
  -1   1  10   49.86    0.97 
   1   1 -10   50.91    1.08 
   1   1 -10   50.78    1.09 
   1   1 -10   49.72    1.21 
   1   1 -10   53.67    1.57 
  -1   1  10   52.89    1.18 
  -1   1  10   49.05    1.22 
   0  -1  10    1.72    0.47 
   0  -1 -10    1.31    0.59 
   0  -1  10    1.98    0.47 
   0  -1 -10    0.63    0.25 
   0  -1  10    0.99    0.33 
   0  -1  10    0.45    0.25 
   0  -1 -10    1.08    0.23 
   0  -1 -10    1.13    0.23 
   0  -1 -10    1.51    0.62 
   0  -1 -10    0.61    0.23 
   0  -1  10    1.31    0.31 
   0  -1  10    0.25    0.49 
   0  -1 -10    1.39    0.37 
   0  -1 -10    0.92    0.22 
   0  -1 -10    0.81    0.23 
   0  -1  10    0.93    0.31 
   0  -1 -10    1.14    0.22 
   0  -1 -10    1.16    0.25 
   0  -1  10    0.78    0.29 
   0   1  10    2.08    0.56 
   0   1 -10    1.19    0.26 
   0   1  10    1.14    0.32 
   0   1 -10    1.13    0.64 
   0   1  10    0.36    0.25 
   0   1 -10    1.03    0.54 
   0   1  10    0.67    0.56 
   0   1 -10    0.76    0.42 
   0   1 -10    1.18    0.31 
   0   1 -10    1.16    0.43 
   0   1 -10    0.72    0.47 
   0   1 -10    0.51    0.23 
   0   1  10    0.90    0.29 
   0   1  10    0.80    0.37 
   0   1 -10    1.12    0.58 
  -1  -1 -10   13.20    0.47 
   1  -1  10   12.58    0.68 
   1  -1  10   12.69    0.62 
   1  -1  10   12.96    0.57 
   1  -1  10   12.92    0.90 
  -1  -1 -10   13.54    0.49 
  -1  -1 -10   13.46    0.52 
  -1  -1 -10   13.18    0.49 
   1  -1  10   12.78    0.72 
   1  -1  10   12.47    0.60 
  -1  -1 -10   12.76    0.83 
  -1  -1 -10   13.21    0.38 
  -1  -1 -10   13.11    0.34 
  -1  -1 -10   12.70    0.95 
  -1  -1 -10   13.26    0.50 
  -1  -1 -10   12.97    0.52 
   1  -1  10   14.25    0.73 
  -1  -1 -10   13.30    0.43 
  -1   1 -10   13.81    0.55 
  -1   1 -10   13.15    0.40 
  -1   1 -10   13.79    1.00 
  -1   1 -10   14.08    0.49 
  -1   1 -10   13.41    0.52 
  -1   1 -10   14.11    0.57 
  -1   1 -10   14.25    0.60 
  -1   1 -10   13.89    0.98 
  -1   1 -10   14.03    0.42 
  -1   1 -10   13.83    0.46 
   1   1  10   14.30    0.63 
   1   1  10   12.68    0.62 
  -2  -1 -10    5.07    0.24 
  -2  -1 -10    4.78    0.29 
   2  -1  10    4.75    0.51 
  -2  -1 -10    5.10    0.35 
  -2  -1 -10    5.04    0.38 
  -2  -1 -10    5.04    0.32 
  -2  -1 -10    4.27    0.29 
   2  -1  10    5.28    0.44 
   2  -1  10    4.80    0.46 
  -2  -1 -10    4.70    0.36 
  -2  -1 -10    4.96    0.36 
   2  -1  10    3.63    0.72 
   2  -1  10    4.46    0.55 
  -2  -1 -10    4.42    0.35 
  -2   1 -10    5.70    0.37 
   2   1  10    5.55    0.47 
  -2   1 -10    5.16    0.23 
  -2   1 -10    4.20    0.39 
  -2   1 -10    5.01    0.63 
  -2   1 -10    5.76    0.28 
   2   1  10    5.31    0.51 
  -2   1 -10    5.85    0.42 
  -2   1 -10    4.58    0.37 
  -2   1 -10    4.74    0.69 
  -2   1 -10    5.61    0.44 
   3  -1  10   10.68    0.74 
  -3  -1 -10   11.26    0.20 
  -3  -1 -10   11.29    0.42 
   3  -1  10   11.16    0.59 
  -3  -1 -10   11.11    0.20 
  -3  -1 -10   11.39    0.21 
  -3  -1 -10   11.32    0.41 
   3  -1  10   11.34    0.46 
  -3  -1 -10   11.91    0.40 
  -3  -1 -10   11.25    0.41 
   3  -1  10   10.92    0.52 
  -3  -1 -10   12.36    0.41 
  -3   1 -10   11.96    0.39 
   3   1  10   12.81    0.59 
  -3   1 -10   11.49    0.33 
  -3   1 -10   12.56    0.46 
  -3   1 -10   12.17    0.45 
  -3   1 -10   11.71    0.44 
  -3   1 -10   12.18    0.39 
  -3   1 -10   12.37    0.49 
  -3   1 -10   12.29    0.47 
   3   1  10   12.24    0.55 
  -3   1 -10   11.92    0.24 
  -4  -1 -10    2.74    0.21 
  -4  -1 -10    2.91    0.20 
  -4  -1 -10    3.06    0.20 
  -4  -1 -10    2.03    0.20 
  -4  -1 -10    2.39    0.24 
  -4  -1 -10    3.12    0.24 
   4  -1  10    3.06    0.34 
   4  -1  10    1.90    0.37 
  -4  -1 -10    2.75    0.22 
  -4   1 -10    2.84    0.24 
  -4   1 -10    2.62    0.12 
  -4   1 -10    2.16    0.34 
  -4   1 -10    2.97    0.28 
  -4   1 -10    2.75    0.27 
  -4   1 -10    2.68    0.13 
  -4   1 -10    2.62    0.16 
  -4   1 -10    3.31    0.26 
  -4   1 -10    2.74    0.14 
  -4   1 -10    2.41    0.28 
  10  -2 -10    6.04    0.48 
 -10  -2  10    4.62    0.29 
 -10  -2  10    5.46    0.24 
 -10  -2  10    4.79    0.20 
  10  -2 -10    5.16    0.25 
 -10   2  10    5.29    0.20 
 -10   2  10    5.43    0.19 
 -10   2  10    5.33    0.32 
 -10   2  10    5.47    0.31 
 -10   2  10    5.29    0.31 
 -10   2  10    5.62    0.32 
 -10   2  10    5.30    0.35 
 -10   2  10    5.55    0.25 
   9  -2 -10    4.75    0.25 
   9  -2 -10    4.90    0.54 
  -9  -2  10    4.36    0.28 
  -9  -2  10    4.70    0.28 
  -9  -2  10    4.71    0.32 
  -9  -2  10    4.30    0.24 
   9  -2 -10    4.27    0.35 
  -9   2  10    5.15    0.35 
  -9   2  10    4.48    0.22 
   9   2 -10    4.44    0.33 
  -9   2  10    4.16    0.35 
   9   2 -10    3.56    0.29 
  -9   2  10    4.54    0.37 
  -9   2  10    4.68    0.40 
  -9   2  10    4.44    0.37 
  -9   2  10    4.71    0.25 
   8  -2 -10    5.25    1.27 
  -8  -2  10    5.77    0.32 
  -8  -2  10    5.36    0.37 
   8  -2 -10    5.72    0.51 
   8  -2 -10    4.93    0.29 
  -8  -2  10    6.09    0.37 
   8  -2 -10    5.57    0.37 
  -8  -2  10    5.67    0.18 
  -8   2  10    6.33    0.35 
   8   2 -10    5.90    0.33 
  -8   2  10    6.42    0.50 
  -8   2  10    6.29    0.41 
   8   2 -10    5.68    0.33 
  -8   2  10    6.32    0.49 
  -8   2  10    5.56    0.44 
  -8   2  10    5.42    0.32 
  -7  -2  10   12.88    0.42 
  -7  -2  10   11.74    0.46 
  -7  -2  10   11.85    0.53 
  -7  -2  10   10.94    0.40 
  -7  -2  10   11.94    0.60 
   7  -2 -10   14.73    1.41 
   7  -2 -10   12.61    0.39 
   7  -2 -10   12.53    0.59 
  -7  -2  10   12.37    0.39 
  -7  -2  10   12.01    0.50 
  -7  -2  10   11.63    0.53 
  -7  -2  10   12.11    0.58 
  -7  -2  10   11.88    0.51 
  -7   2  10   11.93    0.64 
   7   2 -10   13.42    0.48 
  -7   2  10   13.56    0.62 
  -7   2  10   13.01    0.64 
  -7   2  10   13.68    0.56 
   7   2 -10   13.45    0.46 
  -7   2  10   13.47    0.59 
  -6  -2  10    6.63    0.50 
  -6  -2  10    6.84    0.50 
  -6  -2  10    7.04    0.49 
   6  -2 -10    6.83    0.51 
  -6  -2  10    6.96    0.41 
  -6  -2  10    7.15    0.54 
  -6  -2  10    7.18    0.40 
  -6  -2  10    6.45    0.45 
  -6  -2  10    7.10    0.44 
   6  -2 -10    7.69    1.13 
   6  -2 -10    6.82    0.90 
  -6  -2  10    6.63    0.29 
  -6  -2  10    6.43    0.49 
  -6  -2  10    6.50    0.41 
   6  -2 -10    6.75    0.41 
   6  -2 -10    6.56    0.29 
   6   2 -10    7.18    0.39 
  -6   2  10    5.66    0.80 
   6   2 -10    8.20    0.40 
   6   2 -10    7.70    0.96 
  -6   2  10    6.92    0.48 
  -6   2  10    9.80    1.28 
  -6   2  10    7.57    0.49 
  -6   2  10    6.79    0.54 
  -6   2  10    7.40    0.63 
   5  -2 -10    7.44    1.00 
  -5  -2  10    6.30    0.43 
  -5  -2  10    6.21    0.35 
  -5  -2  10    6.98    0.54 
  -5  -2  10    7.01    0.47 
   5  -2 -10    6.65    0.32 
  -5  -2  10    7.09    0.43 
  -5  -2  10    6.87    0.53 
   5  -2 -10    6.67    0.50 
   5  -2 -10    8.21    1.28 
  -5  -2  10    6.49    0.42 
   5  -2 -10    7.57    0.46 
  -5  -2  10    6.42    0.53 
  -5  -2  10    6.84    0.55 
  -5  -2  10    6.64    0.57 
  -5  -2  10    6.53    0.47 
   5  -2 -10    5.73    0.73 
  -5   2  10    7.45    0.48 
  -5   2  10    6.46    0.72 
  -5   2  10    7.21    0.74 
   5   2 -10    7.86    0.90 
   5   2 -10    7.60    0.40 
   5   2 -10    6.62    1.12 
   5   2 -10    6.31    0.39 
  -5   2  10    8.61    0.77 
   5   2 -10    7.11    0.36 
  -5   2  10    7.81    0.49 
  -5   2  10    7.81    0.52 
  -5   2  10    7.49    0.70 
  -4  -2  10   26.05    0.61 
   4  -2 -10   29.66    1.84 
  -4  -2  10   27.70    0.95 
  -4  -2  10   26.30    0.88 
  -4  -2  10   25.01    0.77 
   4  -2 -10   25.63    0.66 
   4  -2 -10   26.40    1.41 
   4  -2 -10   25.55    0.75 
   4  -2 -10   27.66    1.73 
  -4  -2  10   26.11    1.01 
  -4  -2  10   26.00    0.94 
  -4  -2  10   26.39    0.71 
  -4  -2  10   25.15    0.79 
   4  -2 -10   27.05    1.66 
   4  -2 -10   25.70    1.37 
   4  -2 -10   24.22    1.80 
  -4  -2  10   25.54    0.73 
  -4  -2  10   26.14    0.85 
   4  -2 -10   26.31    0.76 
  -4  -2  10   25.69    0.86 
  -4   2  10   28.22    0.82 
  -4   2  10   27.30    0.76 
   4   2 -10   31.53    1.56 
  -4   2  10   27.96    0.64 
   4   2 -10   27.35    1.24 
  -4   2  10   27.89    1.08 
  -4   2  10   29.43    1.03 
   4   2 -10   29.96    0.67 
  -4   2  10   28.47    0.88 
   4   2 -10   27.31    1.34 
  -4   2  10   26.15    1.05 
   4   2 -10   29.25    0.60 
   4   2 -10   29.74    0.70 
  -4   2  10   27.60    0.88 
   4   2 -10   28.82    0.88 
  -3  -2  10    1.99    0.38 
   3  -2 -10    1.67    0.31 
  -3  -2  10    2.10    0.42 
  -3  -2  10    1.12    0.31 
   3  -2 -10    2.79    1.05 
   3  -2 -10    1.36    0.34 
   3  -2 -10    1.74    0.43 
   3  -2 -10    1.34    0.80 
  -3  -2  10    1.46    0.38 
   3  -2 -10    1.70    0.76 
  -3  -2  10    2.29    0.47 
  -3  -2  10    1.24    0.42 
   3  -2 -10    1.96    0.35 
  -3  -2  10    2.19    0.53 
   3  -2 -10    1.92    0.66 
  -3  -2  10    1.75    0.34 
  -3  -2  10    1.31    0.60 
  -3  -2  10    2.14    0.47 
  -3  -2  10    1.71    0.46 
   3  -2 -10    1.06    0.58 
  -3  -2  10    2.24    0.50 
  -3   2  10    1.11    0.41 
   3   2 -10    0.73    0.42 
   3   2 -10    1.89    0.65 
   3   2 -10    1.68    0.28 
   3   2 -10    2.69    0.27 
  -3   2  10    2.27    0.30 
   3   2 -10    3.25    0.89 
  -3   2  10    1.69    0.45 
  -3   2  10    2.41    0.48 
   3   2 -10    1.90    0.28 
  -3   2  10    1.30    0.34 
   3   2 -10    0.74    0.28 
  -3   2  10    1.51    0.34 
  -3   2  10    1.76    0.38 
  -2  -2  10   13.67    0.77 
   2  -2 -10   13.55    1.31 
   2  -2 -10   13.91    0.45 
  -2  -2  10   14.31    0.65 
   2  -2 -10   14.30    1.21 
  -2  -2  10   14.72    1.32 
  -2  -2  10   14.12    0.70 
  -2  -2  10   13.96    0.75 
  -2  -2  10   13.88    0.75 
   2  -2 -10   13.78    0.53 
  -2  -2  10   13.79    0.79 
   2  -2 -10   14.49    0.59 
   2  -2 -10   13.05    0.57 
  -2  -2  10   13.77    0.62 
   2  -2 -10   13.76    0.43 
   2  -2 -10   10.04    1.05 
  -2  -2  10   14.19    0.81 
   2  -2 -10   14.53    0.52 
  -2  -2  10   13.01    1.23 
  -2  -2  10   13.60    0.75 
  -2   2  10   15.80    0.67 
   2   2 -10   16.17    1.03 
  -2   2  10   15.04    0.65 
   2   2 -10   15.36    1.27 
   2   2 -10   14.51    0.39 
  -2   2  10   16.08    0.73 
   2   2 -10   15.60    1.05 
   2   2 -10   14.82    0.70 
   2   2 -10   15.14    0.65 
   2   2 -10   12.88    0.76 
   2   2 -10   15.02    0.54 
  -2   2  10   14.11    0.54 
  -2   2  10   13.95    0.81 
  -2   2  10   15.39    0.60 
  -2   2  10   15.91    0.75 
  -1  -2  10    0.18    0.35 
   1  -2 -10    0.02    0.15 
  -1  -2  10    0.06    0.25 
  -1  -2  10   -0.08    0.33 
  -1  -2  10    0.23    0.40 
  -1  -2  10    0.08    0.29 
   1  -2 -10    0.04    0.16 
   1  -2 -10    0.11    0.13 
   1  -2 -10    0.06    0.23 
   1  -2 -10    0.25    0.21 
   1  -2 -10    0.04    0.52 
  -1  -2  10   -0.34    0.38 
   1  -2 -10    0.06    0.18 
   1  -2 -10    0.07    0.19 
   1  -2 -10    0.22    0.16 
  -1  -2  10    0.08    0.25 
   1  -2 -10    0.18    0.73 
  -1  -2  10    0.39    0.34 
   1  -2 -10   -0.03    0.23 
   1   2 -10    0.19    0.27 
   1   2 -10   -0.10    0.25 
  -1   2  10   -0.11    0.24 
  -1   2  10    0.24    0.39 
   1   2 -10    0.10    0.32 
   1   2 -10   -0.22    0.37 
   1   2 -10    0.03    0.26 
  -1   2  10   -0.05    0.29 
  -1   2  10   -0.28    0.26 
  -1   2  10    0.31    0.29 
  -1   2  10    0.02    0.27 
   1   2 -10    0.21    0.54 
   0  -2 -10  131.12    2.09 
   0  -2 -10  126.83    1.90 
   0  -2 -10  133.35    1.63 
   0  -2 -10  134.67    2.83 
   0  -2 -10  130.48    2.05 
   0  -2 -10  131.75    1.90 
   0  -2  10  131.87    2.37 
   0  -2 -10  130.01    1.87 
   0  -2 -10  131.95    1.86 
   0  -2  10  134.00    2.43 
   0  -2 -10  134.57    1.56 
   0  -2  10  131.00    2.19 
   0  -2  10  132.08    2.43 
   0  -2 -10  132.72    2.76 
   0  -2 -10  131.71    2.10 
   0  -2  10  130.45    2.59 
   0  -2  10  132.24    4.58 
   0  -2  10  131.61    1.69 
   0  -2 -10  129.64    2.05 
   0  -2  10  130.79    2.21 
   0   2 -10  132.09    2.29 
   0   2  10  143.69    2.30 
   0   2 -10  145.18    2.29 
   0   2  10  142.50    2.24 
   0   2 -10  141.02    3.04 
   0   2 -10  140.07    2.68 
   0   2  10  139.44    2.41 
   0   2 -10  131.36    4.90 
   0   2 -10  139.82    3.05 
   0   2 -10  141.32    2.51 
   0   2 -10  143.26    4.83 
   1  -2  10    0.34    0.34 
  -1  -2 -10    1.14    0.25 
   1  -2  10    1.66    0.46 
  -1  -2 -10    1.29    0.29 
  -1  -2 -10    0.96    0.23 
   1  -2  10    0.69    0.31 
  -1  -2 -10    1.60    0.24 
   1  -2  10    0.68    0.45 
  -1  -2 -10    1.71    0.27 
   1  -2  10    0.54    0.23 
  -1  -2 -10    1.68    0.21 
  -1  -2 -10    1.33    0.25 
  -1  -2 -10    1.31    0.29 
  -1  -2 -10    1.36    0.28 
  -1  -2 -10    1.53    0.32 
   1   2  10    1.39    0.37 
  -1   2 -10    0.86    0.49 
   1   2  10    0.63    0.26 
  -1   2 -10    0.76    0.22 
  -1   2 -10    0.80    0.53 
  -1   2 -10    0.71    0.23 
  -1   2 -10    1.46    0.33 
  -2  -2 -10    7.43    0.36 
   2  -2  10    7.29    0.59 
  -2  -2 -10    7.74    0.21 
  -2  -2 -10    7.65    0.19 
   2  -2  10    7.40    0.53 
  -2  -2 -10    7.54    0.19 
  -2  -2 -10    8.19    0.37 
  -2  -2 -10    6.63    0.34 
   2  -2  10    8.01    0.54 
  -2  -2 -10    7.56    0.36 
  -2  -2 -10    7.64    0.31 
   2  -2  10    7.24    0.71 
   2  -2  10    8.11    0.42 
  -2  -2 -10    7.99    0.37 
  -2   2 -10    7.72    0.41 
  -2   2 -10    8.34    0.43 
  -2   2 -10    7.71    0.41 
   2   2  10    7.65    0.53 
  -2   2 -10    7.23    0.41 
  -2   2 -10    7.51    0.71 
   2   2  10    8.33    0.48 
  -2   2 -10    8.14    0.32 
  -2   2 -10    8.03    0.69 
  -2   2 -10    8.32    0.30 
   3  -2  10    0.00    0.34 
   3  -2  10    0.05    0.20 
  -3  -2 -10    0.38    0.14 
  -3  -2 -10    0.12    0.11 
  -3  -2 -10    0.12    0.15 
  -3  -2 -10    0.09    0.16 
  -3  -2 -10    0.06    0.16 
   3  -2  10    0.55    0.30 
  -3  -2 -10    0.32    0.15 
  -3   2 -10    0.27    0.15 
  -3   2 -10    0.03    0.16 
  -3   2 -10    0.23    0.10 
  -3   2 -10    0.41    0.16 
  -3   2 -10    0.42    0.20 
  -3   2 -10    0.34    0.20 
  -3   2 -10    0.32    0.15 
  -3   2 -10    0.22    0.20 
  -3   2 -10    0.44    0.18 
   3   2  10    0.11    0.26 
  -4  -2 -10   12.62    0.30 
  -4  -2 -10   12.60    0.35 
   4  -2  10   12.58    0.37 
  -4  -2 -10   12.44    0.35 
   4  -2  10   13.94    0.63 
   4  -2  10   12.39    0.98 
  -4   2 -10   13.45    0.25 
  -4   2 -10   13.34    0.39 
  -4   2 -10   13.21    0.29 
  -4   2 -10   13.24    0.26 
  -4   2 -10   14.29    0.40 
  -4   2 -10   13.37    0.40 
  -4   2 -10   13.80    0.32 
  -4   2 -10   13.16    0.47 
  -4   2 -10   13.67    0.40 
  -4   2 -10   13.23    0.43 
  -9  -3  10   11.07    0.39 
  -9  -3  10   11.12    0.26 
   9  -3 -10   10.55    1.08 
  -9  -3  10   10.97    0.33 
   9  -3 -10   11.24    0.54 
  -9   3  10   11.73    0.28 
  -9   3  10   11.14    0.40 
  -9   3  10   11.55    0.42 
  -9   3  10   12.55    0.47 
  -9   3  10   11.63    0.42 
  -9   3  10   11.06    0.32 
   8  -3 -10    2.55    0.24 
  -8  -3  10    3.50    0.26 
  -8  -3  10    3.22    0.26 
   8  -3 -10    3.39    0.46 
  -8  -3  10    3.01    0.21 
  -8  -3  10    3.45    0.26 
  -8  -3  10    3.51    0.34 
   8   3 -10    3.45    0.27 
  -8   3  10    3.54    0.43 
  -8   3  10    3.51    0.34 
  -8   3  10    3.81    0.39 
  -8   3  10    3.45    0.27 
  -8   3  10    3.61    0.29 
  -7  -3  10   18.87    0.27 
  -7  -3  10   18.91    0.60 
   7  -3 -10   19.56    0.75 
  -7  -3  10   18.91    0.53 
  -7  -3  10   18.78    0.56 
  -7   3  10   21.42    0.76 
   7   3 -10   22.17    0.58 
  -7   3  10   20.56    0.80 
   7   3 -10   20.93    0.56 
  -7   3  10   21.24    0.63 
  -6  -3  10    8.78    0.33 
  -6  -3  10    8.41    0.43 
  -6  -3  10    8.43    0.46 
  -6  -3  10    8.85    0.45 
  -6  -3  10    7.90    0.41 
   6  -3 -10    8.29    0.60 
  -6  -3  10    8.52    0.53 
   6  -3 -10   10.44    1.18 
   6  -3 -10   10.53    0.97 
   6  -3 -10    7.71    0.44 
  -6  -3  10    8.18    0.31 
  -6   3  10   10.13    0.60 
  -6   3  10    9.06    0.45 
   6   3 -10    8.04    0.33 
  -6   3  10    7.70    1.06 
  -6   3  10    9.73    0.67 
   6   3 -10    9.37    0.42 
  -5  -3  10   42.83    1.07 
   5  -3 -10   43.88    2.08 
  -5  -3  10   45.08    0.64 
  -5  -3  10   43.44    0.94 
  -5  -3  10   43.91    1.06 
   5  -3 -10   46.27    1.00 
   5  -3 -10   43.17    1.96 
   5  -3 -10   39.99    2.29 
   5  -3 -10   42.58    2.00 
  -5  -3  10   43.74    0.83 
  -5  -3  10   44.07    0.90 
  -5  -3  10   42.67    0.92 
  -5  -3  10   45.72    0.98 
  -5  -3  10   45.30    0.82 
  -5  -3  10   45.29    0.98 
  -5  -3  10   43.32    0.90 
  -5  -3  10   43.14    0.69 
   5   3 -10   50.56    0.96 
  -5   3  10   49.59    1.15 
   5   3 -10   51.39    0.95 
  -5   3  10   50.10    2.13 
  -5   3  10   49.41    1.20 
  -5   3  10   50.79    1.33 
  -4  -3  10   14.52    0.62 
  -4  -3  10   14.17    0.59 
   4  -3 -10   14.95    1.30 
  -4  -3  10   15.00    0.70 
   4  -3 -10   14.50    0.69 
   4  -3 -10   14.11    0.51 
   4  -3 -10   14.71    1.28 
  -4  -3  10   14.68    0.55 
   4  -3 -10   14.75    0.57 
   4  -3 -10   14.49    0.61 
  -4  -3  10   15.13    0.54 
  -4  -3  10   15.12    0.42 
  -4  -3  10   14.78    0.66 
  -4  -3  10   14.95    0.73 
  -4  -3  10   15.02    0.59 
  -4  -3  10   15.57    0.69 
  -4   3  10   17.09    0.86 
   4   3 -10   16.17    0.47 
  -4   3  10   16.12    0.72 
   4   3 -10   15.27    1.17 
  -4   3  10   16.35    0.49 
   4   3 -10   15.88    0.68 
   4   3 -10   16.76    0.53 
   4   3 -10   15.96    0.45 
  -3  -3  10    6.97    0.52 
  -3  -3  10    6.78    0.54 
  -3  -3  10    6.00    0.46 
   3  -3 -10    6.95    0.42 
  -3  -3  10    7.04    0.43 
   3  -3 -10    7.94    0.46 
  -3  -3  10    5.69    0.51 
   3  -3 -10    6.66    0.35 
  -3  -3  10    6.80    0.57 
   3  -3 -10    6.79    0.48 
   3  -3 -10    6.07    1.32 
  -3  -3  10    7.03    0.36 
   3  -3 -10    6.14    1.16 
   3  -3 -10    6.71    0.35 
  -3  -3  10    6.78    0.36 
   3  -3 -10    7.49    0.43 
   3  -3 -10    6.69    0.42 
  -3  -3  10    5.60    0.55 
  -3  -3  10    5.82    0.48 
   3  -3 -10    6.78    0.33 
  -3  -3  10    6.40    0.56 
   3   3 -10    7.86    0.34 
  -3   3  10    7.93    0.71 
  -3   3  10    7.99    0.46 
   3   3 -10    8.23    0.38 
  -3   3  10    8.36    0.48 
   3   3 -10    5.98    0.87 
   3   3 -10    7.43    0.53 
  -3   3  10    7.89    0.60 
  -3   3  10    7.16    0.43 
   3   3 -10    7.02    0.34 
  -2  -3  10    3.80    0.54 
   2  -3 -10    3.30    0.32 
   2  -3 -10    3.49    0.43 
  -2  -3  10    3.65    0.43 
   2  -3 -10    2.73    0.36 
  -2  -3  10    3.47    0.54 
   2  -3 -10    3.86    0.36 
  -2  -3  10    3.40    0.55 
   2  -3 -10    3.39    0.38 
   2  -3 -10    3.73    0.31 
   2  -3 -10    3.51    0.36 
   2  -3 -10    3.68    0.24 
   2  -3 -10    2.99    0.25 
  -2  -3  10    3.67    0.50 
   2  -3 -10    3.27    0.89 
  -2  -3  10    3.91    0.59 
  -2  -3  10    3.65    0.45 
   2  -3 -10    4.12    0.93 
  -2   3  10    4.21    0.40 
   2   3 -10    4.24    0.47 
  -2   3  10    3.61    0.44 
   2   3 -10    2.96    0.71 
  -2   3  10    3.55    0.44 
   2   3 -10    4.17    0.29 
  -2   3  10    3.45    0.54 
  -2   3  10    3.97    0.66 
   2   3 -10    4.03    0.27 
   1  -3 -10    0.38    0.21 
   1  -3 -10    0.35    0.15 
  -1  -3  10    0.30    0.30 
   1  -3 -10    0.69    0.65 
   1  -3 -10   -0.05    0.41 
   1  -3 -10    0.64    0.22 
  -1  -3  10    0.12    0.42 
   1  -3 -10    0.46    0.24 
  -1  -3  10    0.22    0.27 
  -1  -3  10    0.25    0.26 
  -1  -3  10    0.05    0.33 
  -1  -3  10    0.29    0.23 
   1  -3 -10    0.24    0.23 
  -1  -3  10    0.18    0.36 
   1  -3 -10    0.31    0.15 
   1  -3 -10    0.17    0.11 
   1  -3 -10    0.38    0.23 
  -1  -3  10    0.76    0.40 
   1  -3 -10    0.34    0.18 
  -1   3  10   -0.02    0.32 
   1   3 -10    0.28    0.36 
  -1   3  10    0.97    0.32 
   1   3 -10    0.22    0.22 
  -1   3  10    0.80    0.27 
   1   3 -10   -0.25    0.29 
   1   3 -10    0.10    0.24 
   1   3 -10    0.25    0.12 
  -1   3  10    0.32    0.25 
   0  -3  10   20.69    1.45 
   0  -3  10   19.39    1.30 
   0  -3 -10   19.93    0.57 
   0  -3 -10   19.78    0.51 
   0  -3 -10   20.24    0.40 
   0  -3  10   19.90    0.83 
   0  -3 -10   19.88    0.59 
   0  -3  10   20.28    0.84 
   0  -3 -10   19.31    0.54 
   0  -3  10   19.97    0.76 
   0  -3 -10   19.58    0.59 
   0  -3  10   19.24    0.78 
   0  -3 -10   20.07    0.47 
   0  -3 -10   20.29    0.57 
   0  -3  10   19.46    0.67 
   0  -3 -10   19.02    0.47 
   0  -3 -10   20.02    0.59 
   0   3 -10   23.70    1.27 
   0   3 -10   20.95    0.64 
   0   3  10   21.44    0.69 
   0   3 -10   19.29    1.37 
   0   3 -10   21.44    0.62 
   0   3  10   22.51    0.71 
   0   3 -10   21.97    0.77 
  -1  -3 -10   66.97    0.70 
   1  -3  10   66.02    1.34 
  -1  -3 -10   66.44    1.07 
  -1  -3 -10   66.45    1.22 
   1  -3  10   66.65    1.43 
   1  -3  10   65.75    1.54 
  -1  -3 -10   67.52    0.87 
   1  -3  10   67.24    2.86 
  -1  -3 -10   67.74    1.16 
  -1  -3 -10   66.64    1.19 
  -1  -3 -10   65.70    0.77 
   1  -3  10   70.39    3.02 
  -1  -3 -10   67.62    1.09 
  -1  -3 -10   67.42    1.10 
  -1   3 -10   69.58    1.36 
  -1   3 -10   66.38    1.25 
   1   3  10   68.08    1.29 
  -1   3 -10   69.68    1.79 
   2  -3  10    4.70    0.54 
  -2  -3 -10    4.50    0.29 
  -2  -3 -10    4.39    0.25 
   2  -3  10    4.03    0.55 
   2  -3  10    4.42    0.46 
   2  -3  10    5.85    0.97 
  -2  -3 -10    4.45    0.29 
  -2  -3 -10    4.57    0.25 
   2  -3  10    4.88    0.80 
  -2  -3 -10    4.23    0.27 
  -2  -3 -10    4.37    0.27 
  -2   3 -10    4.64    0.34 
  -2   3 -10    5.37    0.34 
  -2   3 -10    4.25    0.36 
  -2   3 -10    4.34    0.26 
  -2   3 -10    4.22    0.23 
   2   3  10    3.75    0.36 
  -2   3 -10    4.51    0.35 
   3  -3  10    5.92    0.47 
   3  -3  10    4.25    0.73 
   3  -3  10    5.67    0.41 
   3  -3  10    5.36    0.49 
   3  -3  10    5.39    0.85 
  -3  -3 -10    5.61    0.26 
  -3  -3 -10    5.55    0.23 
  -3  -3 -10    5.46    0.25 
  -3   3 -10    5.41    0.30 
  -3   3 -10    6.11    0.30 
  -3   3 -10    5.85    0.25 
  -3   3 -10    5.74    0.21 
  -3   3 -10    6.01    0.31 
  -3   3 -10    5.59    0.32 
  -3   3 -10    6.22    0.36 
  -8  -4  10    0.70    0.13 
  -8  -4  10    0.44    0.12 
  -8  -4  10    0.39    0.16 
  -8   4  10    0.70    0.19 
  -8   4  10    0.49    0.14 
  -8   4  10    0.75    0.17 
  -8   4  10    0.59    0.20 
  -7  -4  10    1.39    0.18 
  -7  -4  10    1.28    0.19 
  -7  -4  10    1.57    0.22 
  -7  -4  10    0.58    0.19 
  -7   4  10    2.00    0.39 
   6  -4 -10   16.58    0.53 
  -6  -4  10   16.02    0.18 
  -6  -4  10   17.07    0.52 
  -6  -4  10   16.33    0.45 
  -6  -4  10   16.57    0.53 
  -6  -4  10   13.65    0.48 
   6   4 -10   21.50    0.55 
  -6   4  10   20.49    0.66 
   6   4 -10   19.52    0.53 
  -6   4  10   20.09    0.73 
  -6   4  10   20.79    1.36 
  -6   4  10   20.46    1.29 
  -5  -4  10   57.65    0.65 
   5  -4 -10   56.99    1.14 
   5  -4 -10   57.22    0.90 
  -5  -4  10   57.82    0.74 
  -5  -4  10   58.01    0.99 
  -5  -4  10   58.12    1.00 
   5  -4 -10   56.95    1.12 
  -5  -4  10   58.36    1.01 
  -5  -4  10   56.01    1.08 
  -5  -4  10   58.77    0.84 
  -5  -4  10   57.65    0.83 
  -5  -4  10   57.26    1.03 
  -5  -4  10   57.52    1.06 
  -5   4  10   69.59    1.42 
  -5   4  10   72.90    2.97 
  -5   4  10   69.05    1.58 
   5   4 -10   70.88    1.02 
  -5   4  10   71.68    2.23 
   5   4 -10   69.61    1.17 
   4  -4 -10    7.18    1.11 
   4  -4 -10    7.35    0.43 
  -4  -4  10    7.64    0.43 
  -4  -4  10    7.92    0.40 
   4  -4 -10    7.84    0.29 
   4  -4 -10    7.03    0.43 
  -4  -4  10    7.73    0.50 
  -4  -4  10    6.74    0.20 
   4  -4 -10    7.26    0.40 
  -4  -4  10    7.37    0.39 
   4  -4 -10    6.91    0.44 
  -4  -4  10    7.09    0.54 
  -4  -4  10    7.31    0.34 
   4  -4 -10    7.31    0.27 
  -4  -4  10    7.35    0.28 
  -4  -4  10    7.06    0.40 
   4  -4 -10    6.54    1.07 
  -4  -4  10    6.63    0.31 
   4   4 -10    7.44    0.87 
   4   4 -10    8.18    0.50 
  -4   4  10    8.54    0.61 
   4   4 -10    8.36    0.36 
  -4   4  10    8.34    0.52 
   4   4 -10    8.22    0.37 
  -4   4  10    8.46    0.35 
   4   4 -10    8.36    0.32 
  -4   4  10    7.22    1.02 
   3  -4 -10    7.56    0.39 
  -3  -4  10    7.29    0.42 
   3  -4 -10    6.70    0.91 
  -3  -4  10    7.69    0.46 
  -3  -4  10    7.46    0.53 
   3  -4 -10    7.15    1.01 
  -3  -4  10    7.10    0.30 
   3  -4 -10    7.34    0.44 
  -3  -4  10    7.42    0.27 
  -3  -4  10    8.39    0.51 
   3  -4 -10    7.45    0.45 
  -3  -4  10    6.79    0.34 
   3  -4 -10    7.12    0.29 
   3  -4 -10    7.17    0.42 
  -3  -4  10    7.13    0.43 
  -3  -4  10    7.39    0.35 
   3  -4 -10    8.07    0.26 
  -3  -4  10    7.79    0.53 
   3  -4 -10    7.45    0.41 
   3  -4 -10    7.98    0.41 
  -3   4  10    8.37    0.41 
  -3   4  10    8.78    0.40 
   3   4 -10    8.69    0.79 
  -3   4  10    9.74    0.62 
  -3   4  10    8.96    0.44 
   3   4 -10    8.80    0.32 
  -3   4  10    8.11    0.58 
   3   4 -10    8.70    0.49 
   3   4 -10    8.24    0.34 
   3   4 -10    8.08    0.36 
   2  -4 -10    0.21    0.23 
   2  -4 -10   -0.01    0.12 
  -2  -4  10    0.05    0.23 
   2  -4 -10    0.06    0.20 
   2  -4 -10    0.07    0.16 
  -2  -4  10    0.37    0.20 
   2  -4 -10    0.22    0.14 
  -2  -4  10    0.00    0.25 
  -2  -4  10    0.11    0.15 
   2  -4 -10   -0.08    0.22 
   2  -4 -10    0.17    0.15 
  -2  -4  10    0.46    0.28 
   2  -4 -10    0.13    0.18 
  -2  -4  10    0.11    0.28 
   2  -4 -10    0.05    0.16 
   2  -4 -10    0.12    0.09 
  -2  -4  10    0.20    0.16 
  -2  -4  10    0.48    0.29 
  -2  -4  10    0.30    0.24 
   2  -4 -10   -0.15    0.19 
   2   4 -10    0.17    0.13 
  -2   4  10   -0.49    0.26 
  -2   4  10    0.01    0.27 
   2   4 -10    0.34    0.32 
  -2   4  10   -0.05    0.23 
  -2   4  10    0.41    0.22 
   2   4 -10   -0.02    0.22 
   2   4 -10    0.15    0.16 
  -2   4  10    0.00    0.22 
  -1  -4  10    4.23    0.49 
  -1  -4  10    3.56    0.43 
  -1  -4  10    4.21    0.29 
   1  -4 -10    3.53    0.21 
   1  -4 -10    3.87    0.17 
   1  -4 -10    3.87    0.31 
   1  -4 -10    3.98    0.29 
  -1  -4  10    3.82    0.26 
   1  -4 -10    3.79    0.35 
   1  -4 -10    3.93    0.19 
   1  -4 -10    3.32    0.34 
  -1  -4  10    3.03    0.39 
   1  -4 -10    3.44    0.30 
   1  -4 -10    3.55    0.23 
   1  -4 -10    3.04    0.32 
  -1  -4  10    3.82    0.41 
   1  -4 -10    3.58    0.33 
  -1  -4  10    3.10    0.34 
  -1   4  10    4.52    0.39 
   1   4 -10    4.32    0.49 
  -1   4  10    4.91    0.39 
   1   4 -10    4.02    0.19 
   1   4 -10    4.62    0.39 
  -1   4  10    4.23    0.38 
   1   4 -10    3.67    0.41 
   0  -4  10   11.31    0.53 
   0  -4 -10   11.29    0.37 
   0  -4  10   11.78    0.41 
   0  -4  10   11.05    0.49 
   0  -4 -10   11.23    0.17 
   0  -4 -10   11.19    0.41 
   0  -4 -10   11.00    0.40 
   0  -4  10   11.74    0.51 
   0  -4 -10   10.87    0.39 
   0  -4 -10   11.18    0.40 
   0  -4  10   11.26    0.56 
   0   4 -10   10.22    0.77 
   0   4  10   13.26    0.50 
   0   4 -10   12.59    0.46 
   0   4 -10   13.48    0.90 
   0   4 -10   13.07    0.52 
   1  -4  10   10.04    0.48 
  -1  -4 -10   10.11    0.30 
  -1  -4 -10    9.73    0.35 
  -1  -4 -10   10.34    0.35 
  -1  -4 -10   10.12    0.31 
  -1  -4 -10   10.41    0.37 
  -1  -4 -10   10.10    0.32 
   1  -4  10   10.36    0.50 
  -1  -4 -10    9.87    0.36 
  -1   4 -10   10.85    0.44 
  -1   4 -10   11.29    0.46 
   2  -4  10    2.43    0.34 
   2  -4  10    3.33    0.35 
  -2  -4 -10    3.48    0.22 
  -2  -4 -10    3.31    0.19 
  -2  -4 -10    2.99    0.21 
  -2   4 -10    3.56    0.16 
  -2   4 -10    3.27    0.27 
  -2   4 -10    2.74    0.30 
  -2   4 -10    3.29    0.19 
   6  -5 -10    7.14    0.20 
  -6  -5  10    7.66    0.30 
  -6   5  10    8.10    0.41 
  -5  -5  10    1.90    0.29 
   5  -5 -10    1.36    0.17 
   5  -5 -10    1.85    0.28 
   5  -5 -10    2.02    0.25 
   5  -5 -10    2.13    0.26 
  -5  -5  10    2.05    0.24 
   5  -5 -10    2.12    0.14 
  -5  -5  10    1.88    0.21 
   5  -5 -10    2.41    0.18 
  -5   5  10    2.32    0.38 
   5   5 -10    2.61    0.19 
  -5   5  10    2.16    0.67 
  -5   5  10    2.67    0.35 
  -5   5  10    2.30    0.65 
   4  -5 -10    2.10    0.24 
   4  -5 -10    1.96    0.26 
   4  -5 -10    2.28    0.30 
   4  -5 -10    2.16    0.25 
  -4  -5  10    1.92    0.30 
   4  -5 -10    2.03    0.18 
  -4  -5  10    2.03    0.24 
  -4  -5  10    1.97    0.09 
  -4  -5  10    2.52    0.36 
   4  -5 -10    2.18    0.25 
   4  -5 -10    2.36    0.27 
   4  -5 -10    2.08    0.16 
  -4  -5  10    2.62    0.22 
  -4  -5  10    1.95    0.22 
   4  -5 -10    1.92    0.19 
  -4  -5  10    2.14    0.23 
  -4   5  10    2.47    0.38 
   4   5 -10    2.62    0.33 
   4   5 -10    2.70    0.19 
  -4   5  10    2.36    0.42 
  -4   5  10    2.97    0.18 
   3  -5 -10    7.29    0.23 
  -3  -5  10    7.05    0.22 
   3  -5 -10    7.36    0.34 
  -3  -5  10    7.08    0.33 
   3  -5 -10    7.12    0.38 
  -3  -5  10    7.20    0.23 
   3  -5 -10    7.24    0.34 
   3  -5 -10    7.32    0.33 
  -3  -5  10    7.71    0.46 
   3  -5 -10    7.45    0.35 
  -3  -5  10    6.95    0.32 
   3  -5 -10    6.97    0.21 
  -3  -5  10    6.58    0.35 
  -3  -5  10    6.81    0.20 
   3  -5 -10    6.95    0.21 
  -3  -5  10    7.19    0.34 
   3  -5 -10    6.98    0.33 
   3   5 -10    8.43    0.41 
  -3   5  10    7.88    0.46 
   3   5 -10    8.14    0.24 
  -3   5  10    7.75    0.28 
  -3   5  10    7.31    0.86 
  -2  -5  10    3.22    0.21 
   2  -5 -10    3.11    0.27 
   2  -5 -10    3.20    0.11 
  -2  -5  10    3.22    0.28 
   2  -5 -10    3.35    0.27 
  -2  -5  10    3.03    0.28 
  -2  -5  10    3.25    0.18 
   2  -5 -10    2.94    0.25 
  -2  -5  10    3.25    0.22 
   2  -5 -10    3.10    0.26 
   2  -5 -10    3.70    0.33 
  -2  -5  10    3.47    0.30 
   2  -5 -10    3.32    0.26 
  -2  -5  10    3.99    0.38 
   2  -5 -10    3.16    0.10 
  -2  -5  10    3.08    0.27 
   2   5 -10    3.93    0.33 
  -2   5  10    4.07    0.38 
   2   5 -10    3.24    0.41 
  -2   5  10    3.64    0.28 
   2   5 -10    3.65    0.16 
   1  -5 -10    1.41    0.22 
  -1  -5  10    1.64    0.13 
   1  -5 -10    1.33    0.22 
  -1  -5  10    1.60    0.20 
   1  -5 -10    1.50    0.26 
   1  -5 -10    1.82    0.19 
  -1  -5  10    1.59    0.27 
  -1  -5  10    1.44    0.16 
  -1  -5  10    1.31    0.30 
   1  -5 -10    1.35    0.17 
   1   5 -10    2.18    0.31 
   1   5 -10    1.46    0.22 
   1   5 -10    1.54    0.43 
   1   5 -10    0.74    0.37 
  -1   5  10    1.24    0.24 
 -10   0  11   23.68    0.54 
 -10   0  11   24.47    0.49 
  10   0 -11   23.93    0.45 
 -10   0  11   23.08    0.52 
   9   0 -11    0.13    0.14 
   9   0 -11   -0.08    0.19 
  -9   0  11    0.06    0.07 
  -9   0  11   -0.06    0.18 
  -9   0  11    0.17    0.14 
  -9   0  11    0.08    0.15 
  -9   0  11    0.54    0.16 
  -9   0  11   -0.03    0.24 
  -9   0  11   -0.19    0.20 
  -8   0  11   70.82    1.25 
  -8   0  11   70.18    1.35 
   8   0 -11   70.11    1.02 
  -8   0  11   70.03    0.86 
  -8   0  11   68.76    1.22 
  -8   0  11   69.86    1.34 
   8   0 -11   67.43    1.39 
   8   0 -11   68.97    1.19 
   8   0 -11   68.68    1.24 
  -8   0  11   70.78    1.12 
  -8   0  11   69.11    1.10 
  -8   0  11   69.19    1.12 
   8   0 -11   69.72    2.27 
  -7   0  11   17.86    0.67 
  -7   0  11   18.27    0.70 
   7   0 -11   18.01    1.47 
  -7   0  11   17.41    0.69 
  -7   0  11   16.55    0.68 
  -7   0  11   17.18    0.45 
  -7   0  11   17.00    0.48 
  -7   0  11   17.00    0.60 
   7   0 -11   17.02    0.70 
   7   0 -11   16.89    0.44 
   7   0 -11   16.71    0.51 
  -7   0  11   17.02    0.40 
   7   0 -11   16.56    0.57 
   6   0 -11    8.03    0.34 
  -6   0  11    7.15    0.54 
  -6   0  11    7.86    0.57 
  -6   0  11    6.68    0.42 
  -6   0  11    7.02    0.50 
  -6   0  11    7.00    0.55 
   6   0 -11    6.76    0.56 
   6   0 -11    8.44    1.23 
   6   0 -11    7.97    0.46 
   6   0 -11    7.15    0.36 
  -5   0  11   21.45    1.28 
  -5   0  11   22.15    0.85 
  -5   0  11   19.25    0.74 
   5   0 -11   21.76    0.77 
   5   0 -11   21.10    1.31 
   5   0 -11   21.06    1.13 
   5   0 -11   22.51    1.28 
  -5   0  11   20.70    0.77 
  -5   0  11   22.58    0.78 
   5   0 -11   21.53    0.47 
  -5   0  11   22.41    0.77 
   4   0 -11    2.06    0.40 
   4   0 -11    1.15    0.49 
   4   0 -11    3.45    0.69 
   4   0 -11    2.12    0.46 
   4   0 -11    1.81    0.71 
  -4   0  11    2.14    0.45 
  -4   0  11    2.35    0.43 
  -4   0  11    2.76    0.56 
   4   0 -11    2.35    0.63 
   4   0 -11    2.32    0.22 
  -4   0  11    2.34    0.95 
  -4   0  11    2.21    0.55 
  -4   0  11    2.52    0.47 
  -4   0  11    2.46    0.91 
   3   0 -11    0.90    0.28 
  -3   0  11    2.40    0.51 
   3   0 -11    1.10    0.60 
  -3   0  11    1.69    0.46 
   3   0 -11    3.19    0.91 
  -3   0  11    1.15    0.29 
  -3   0  11    1.22    0.38 
   3   0 -11    1.63    0.35 
  -3   0  11    2.21    0.90 
  -3   0  11    1.30    0.37 
   3   0 -11    1.52    0.48 
  -3   0  11    1.37    0.33 
   3   0 -11    1.77    0.76 
   3   0 -11    1.85    0.35 
   3   0 -11    1.01    0.27 
   2   0 -11    4.75    0.75 
  -2   0  11    3.03    0.54 
   2   0 -11    3.58    0.69 
   2   0 -11    3.99    0.91 
  -2   0  11    2.98    0.64 
   2   0 -11    2.85    0.60 
   2   0 -11    3.11    0.33 
   2   0 -11    3.84    0.40 
  -2   0  11    2.46    0.30 
   2   0 -11    3.89    1.06 
  -2   0  11    2.86    0.44 
  -2   0  11    3.18    1.00 
  -2   0  11    3.47    0.52 
   2   0 -11    3.12    0.42 
  -2   0  11    2.81    0.37 
  -1   0  11   15.32    0.51 
  -1   0  11   16.19    0.71 
   1   0 -11   15.32    0.50 
   1   0 -11   15.06    0.60 
  -1   0  11   14.91    0.65 
   1   0 -11   16.88    1.21 
   1   0 -11   14.84    0.61 
   1   0 -11   14.71    0.56 
   1   0 -11   16.47    1.10 
  -1   0  11   15.31    0.90 
   0   0 -11    9.95    0.38 
   0   0  11    9.80    0.49 
   0   0 -11   10.55    0.94 
   0   0 -11    9.49    0.46 
   0   0 -11    9.66    0.90 
   0   0  11    9.88    0.80 
   0   0  11   10.90    0.66 
   0   0 -11    9.45    0.35 
   0   0  11   10.07    0.56 
   0   0 -11    9.73    0.50 
   0   0 -11   10.15    0.45 
   0   0 -11   10.36    0.34 
   0   0  11    9.81    0.45 
   0   0 -11   10.09    0.49 
  -1   0 -11   -0.03    0.16 
  -1   0 -11    0.04    0.17 
   1   0  11    0.07    0.29 
  -1   0 -11   -0.08    0.16 
   1   0  11    0.34    0.23 
  -1   0 -11   -0.01    0.14 
   1   0  11    0.09    0.22 
  -1   0 -11   -0.02    0.35 
  -1   0 -11   -0.24    0.14 
  -1   0 -11   -0.10    0.11 
  -1   0 -11    0.04    0.20 
  -1   0 -11    0.01    0.13 
   1   0  11    0.05    0.37 
  -1   0 -11   -0.14    0.20 
   1   0  11   -0.50    0.26 
  -1   0 -11    0.60    0.40 
  -1   0 -11    0.06    0.17 
  -2   0 -11    0.05    0.13 
   2   0  11    0.08    0.33 
   2   0  11    0.16    0.22 
  -2   0 -11    0.48    0.20 
  -2   0 -11    0.28    0.15 
   2   0  11   -0.03    0.28 
  -2   0 -11    0.00    0.14 
  -2   0 -11    0.14    0.09 
  -2   0 -11    0.14    0.20 
  -2   0 -11    0.32    0.16 
   2   0  11   -0.20    0.18 
  -2   0 -11    0.22    0.10 
  -2   0 -11   -0.03    0.13 
  -3   0 -11    0.03    0.13 
   3   0  11    0.14    0.16 
  -3   0 -11    0.13    0.04 
  -3   0 -11    0.47    0.12 
   3   0  11    0.40    0.30 
  -3   0 -11    0.47    0.14 
  -3   0 -11    0.05    0.18 
  -3   0 -11    0.19    0.09 
  -3   0 -11    0.28    0.15 
  -3   0 -11    0.46    0.14 
 -10  -1  11   26.93    0.49 
  10  -1 -11   26.40    0.72 
 -10  -1  11   26.03    0.52 
 -10  -1  11   26.61    0.54 
 -10  -1  11   24.81    0.53 
 -10  -1  11   27.54    0.44 
  10  -1 -11   26.34    0.45 
 -10   1  11   28.55    0.54 
 -10   1  11   28.83    0.34 
 -10   1  11   28.62    0.60 
 -10   1  11   29.07    0.61 
 -10   1  11   28.90    0.57 
  -9  -1  11   17.96    0.48 
   9  -1 -11   18.50    0.42 
   9  -1 -11   17.41    0.61 
  -9  -1  11   18.37    0.49 
   9  -1 -11   17.36    0.52 
  -9  -1  11   17.97    0.23 
  -9   1  11   17.61    0.48 
   9   1 -11   16.79    0.50 
  -9   1  11   16.97    0.51 
  -9   1  11   17.85    0.38 
  -9   1  11   16.65    0.50 
  -9   1  11   17.64    0.46 
  -9   1  11   18.08    0.59 
  -9   1  11   18.18    0.53 
  -8  -1  11   10.47    0.36 
  -8  -1  11   10.70    0.46 
   8  -1 -11   10.27    0.34 
  -8  -1  11   10.57    0.34 
  -8  -1  11    9.86    0.45 
   8  -1 -11   10.32    0.53 
  -8  -1  11   10.51    0.50 
  -8  -1  11   10.57    0.42 
   8  -1 -11   10.16    1.14 
   8  -1 -11   10.49    0.46 
  -8   1  11   10.68    0.54 
  -8   1  11   11.76    0.45 
   8   1 -11   11.33    0.35 
  -8   1  11   10.78    0.51 
  -8   1  11   10.34    0.53 
   8   1 -11   11.07    0.46 
  -8   1  11   10.62    0.33 
  -8   1  11   11.01    0.45 
   8   1 -11   11.24    0.42 
  -7  -1  11   50.82    1.05 
  -7  -1  11   50.34    1.02 
  -7  -1  11   51.35    1.16 
   7  -1 -11   51.62    1.12 
   7  -1 -11   51.62    1.02 
   7  -1 -11   47.62    1.85 
  -7  -1  11   51.19    0.99 
  -7  -1  11   51.15    1.02 
  -7  -1  11   51.12    0.93 
  -7  -1  11   50.61    1.13 
  -7  -1  11   51.71    0.91 
   7  -1 -11   51.65    0.79 
  -7  -1  11   51.57    0.71 
  -7   1  11   52.58    1.12 
   7   1 -11   51.30    2.02 
   7   1 -11   54.10    1.00 
   7   1 -11   54.40    0.86 
   7   1 -11   54.72    1.21 
   7   1 -11   55.37    1.07 
  -7   1  11   54.89    0.94 
  -7   1  11   54.00    0.88 
  -7   1  11   56.00    1.18 
  -6  -1  11   -0.04    0.24 
   6  -1 -11   -0.31    0.27 
  -6  -1  11    0.45    0.20 
  -6  -1  11   -0.15    0.21 
  -6  -1  11    0.36    0.35 
   6  -1 -11    0.04    0.23 
   6  -1 -11   -0.03    0.57 
  -6  -1  11   -0.39    0.26 
  -6  -1  11    0.48    0.27 
   6  -1 -11    0.18    0.14 
  -6  -1  11    0.02    0.16 
  -6  -1  11    0.48    0.29 
  -6   1  11    0.53    0.32 
   6   1 -11   -0.07    0.26 
   6   1 -11    0.41    0.59 
   6   1 -11    0.07    0.15 
  -6   1  11   -0.05    0.30 
   6   1 -11    0.17    0.19 
   6   1 -11   -0.04    0.22 
  -6   1  11   -0.26    0.32 
  -6   1  11    0.20    0.23 
  -5  -1  11    3.84    0.47 
  -5  -1  11    4.01    0.35 
   5  -1 -11    3.55    0.33 
   5  -1 -11    4.22    0.94 
  -5  -1  11    3.94    0.47 
  -5  -1  11    3.72    0.54 
  -5  -1  11    4.50    0.52 
   5  -1 -11    3.26    0.23 
  -5  -1  11    3.78    0.31 
  -5  -1  11    3.69    0.46 
   5  -1 -11    3.34    0.68 
  -5  -1  11    3.96    0.49 
   5  -1 -11    3.42    0.50 
   5  -1 -11    4.08    0.44 
   5   1 -11    3.41    0.28 
  -5   1  11    3.48    0.76 
   5   1 -11    4.69    1.05 
   5   1 -11    4.56    0.49 
   5   1 -11    4.05    0.30 
  -5   1  11    3.70    0.47 
  -5   1  11    3.72    0.64 
   5   1 -11    2.75    0.72 
  -5   1  11    3.93    0.43 
  -5   1  11    4.50    1.07 
   5   1 -11    3.96    0.31 
  -4  -1  11   23.00    0.69 
  -4  -1  11   22.07    0.73 
   4  -1 -11   22.58    0.81 
   4  -1 -11   22.76    1.23 
   4  -1 -11   23.00    0.66 
  -4  -1  11   23.18    0.79 
   4  -1 -11   22.38    0.68 
  -4  -1  11   22.66    0.75 
  -4  -1  11   24.07    0.90 
   4  -1 -11   21.20    1.64 
  -4  -1  11   22.24    1.28 
  -4  -1  11   20.95    0.84 
  -4  -1  11   22.91    0.86 
   4   1 -11   22.88    0.48 
   4   1 -11   24.13    1.25 
  -4   1  11   23.88    0.99 
  -4   1  11   22.33    0.87 
  -4   1  11   23.11    0.69 
  -4   1  11   23.44    0.76 
  -4   1  11   23.47    1.23 
   4   1 -11   23.02    1.33 
   4   1 -11   23.19    0.75 
  -4   1  11   23.19    0.79 
   3  -1 -11    1.61    0.85 
   3  -1 -11    2.01    0.56 
  -3  -1  11    2.16    0.84 
   3  -1 -11    2.00    0.79 
  -3  -1  11    1.45    0.28 
   3  -1 -11    2.15    0.31 
   3  -1 -11    1.66    0.49 
  -3  -1  11    1.77    0.54 
  -3  -1  11    1.59    0.42 
  -3  -1  11    1.70    0.36 
  -3  -1  11    2.06    0.56 
   3  -1 -11    1.01    0.53 
  -3  -1  11    1.54    0.32 
  -3  -1  11    2.01    0.87 
  -3  -1  11    2.24    0.50 
   3  -1 -11    2.30    0.43 
  -3   1  11    3.03    1.01 
   3   1 -11    0.98    0.49 
   3   1 -11    2.38    0.41 
   3   1 -11    1.64    0.22 
  -3   1  11    1.76    0.44 
  -3   1  11    0.85    0.23 
  -3   1  11    1.71    0.32 
   3   1 -11    1.39    0.33 
   3   1 -11    1.48    0.42 
   3   1 -11    1.92    0.60 
   3   1 -11    2.01    0.33 
  -3   1  11    1.07    0.36 
  -3   1  11    3.21    0.69 
   3   1 -11    1.67    0.60 
  -3   1  11    1.56    0.33 
   2  -1 -11   34.17    0.71 
  -2  -1  11   32.56    1.11 
  -2  -1  11   32.93    0.92 
   2  -1 -11   36.17    1.63 
   2  -1 -11   35.20    0.86 
  -2  -1  11   31.72    1.39 
   2  -1 -11   35.51    1.62 
   2  -1 -11   34.22    0.87 
   2  -1 -11   33.77    0.87 
  -2  -1  11   34.02    0.88 
  -2  -1  11   33.32    1.08 
  -2  -1  11   32.39    0.99 
  -2  -1  11   33.76    2.02 
  -2  -1  11   33.19    0.92 
  -2   1  11   36.29    1.00 
  -2   1  11   35.52    0.71 
   2   1 -11   35.04    1.61 
   2   1 -11   35.75    0.86 
   2   1 -11   34.48    0.83 
  -2   1  11   35.04    1.07 
  -2   1  11   36.07    0.90 
   2   1 -11   37.00    0.99 
  -2   1  11   37.76    1.05 
   2   1 -11   32.77    1.75 
   1  -1 -11   10.67    0.37 
   1  -1 -11   12.31    1.09 
   1  -1 -11   11.53    1.06 
  -1  -1  11   11.13    0.61 
  -1  -1  11   10.73    0.77 
  -1  -1  11   10.93    1.13 
   1  -1 -11   11.35    0.45 
   1  -1 -11   12.53    0.54 
   1  -1 -11    9.91    0.52 
   1  -1 -11   10.70    0.38 
  -1  -1  11   11.04    0.40 
  -1  -1  11   11.07    0.75 
  -1  -1  11   11.78    0.59 
   1  -1 -11   11.06    0.39 
   1  -1 -11   11.06    0.52 
   1  -1 -11   11.25    0.51 
   1   1 -11   10.66    0.46 
   1   1 -11   10.86    1.06 
  -1   1  11   10.68    0.45 
  -1   1  11    9.98    0.57 
  -1   1  11   10.34    0.67 
  -1   1  11   10.28    0.57 
   1   1 -11   12.63    1.01 
   1   1 -11   11.46    0.76 
  -1   1  11   10.68    0.52 
   1   1 -11   10.54    0.39 
   1   1 -11   11.18    0.57 
   0  -1 -11    0.27    0.20 
   0  -1 -11   -0.03    0.13 
   0  -1 -11    0.16    0.13 
   0  -1  11    0.21    0.25 
   0  -1 -11    0.19    0.44 
   0  -1 -11    0.29    0.08 
   0  -1 -11    0.26    0.22 
   0  -1 -11    0.59    0.23 
   0  -1  11    0.34    0.17 
   0  -1 -11    0.34    0.23 
   0  -1 -11   -0.10    0.45 
   0  -1 -11    0.48    0.14 
   0  -1  11    0.68    0.37 
   0  -1 -11    0.09    0.24 
   0  -1 -11    0.31    0.18 
   0  -1 -11    0.33    0.23 
   0  -1  11    0.57    0.28 
   0   1 -11    0.12    0.18 
   0   1  11    0.34    0.32 
   0   1 -11    0.18    0.18 
   0   1  11    0.12    0.25 
   0   1 -11    0.32    0.15 
   0   1 -11    0.31    0.50 
   0   1 -11    0.38    0.17 
   0   1  11    0.37    0.34 
   0   1 -11    1.66    0.50 
   0   1  11    0.52    0.23 
   0   1  11    0.18    0.28 
   0   1 -11    0.09    0.24 
  -1  -1 -11   11.17    0.40 
  -1  -1 -11   11.47    0.46 
  -1  -1 -11   11.10    0.36 
   1  -1  11   10.64    0.60 
  -1  -1 -11   10.56    0.44 
  -1  -1 -11   11.16    0.46 
  -1  -1 -11   11.12    0.45 
   1  -1  11   11.42    0.69 
  -1  -1 -11   11.39    0.49 
   1  -1  11   10.58    0.52 
  -1  -1 -11   11.08    0.39 
   1  -1  11   10.93    0.41 
  -1  -1 -11   11.05    0.39 
  -1  -1 -11   11.26    0.32 
  -1   1 -11   11.60    0.51 
  -1   1 -11   11.27    0.36 
  -1   1 -11   11.77    0.32 
   1   1  11   11.46    0.55 
   1   1  11    9.76    0.67 
  -1   1 -11   11.46    0.46 
  -1   1 -11   11.29    0.44 
  -1   1 -11   11.21    0.83 
   1   1  11   10.94    0.50 
   1   1  11   11.38    0.47 
  -1   1 -11   12.78    0.81 
   1   1  11   10.24    0.64 
  -1   1 -11   11.19    0.48 
  -2  -1 -11    3.08    0.27 
   2  -1  11    3.13    0.52 
  -2  -1 -11    3.08    0.22 
  -2  -1 -11    2.84    0.15 
  -2  -1 -11    2.92    0.18 
  -2  -1 -11    2.99    0.27 
  -2  -1 -11    3.45    0.15 
   2  -1  11    3.06    0.28 
  -2  -1 -11    2.97    0.15 
   2  -1  11    2.88    0.36 
  -2  -1 -11    2.80    0.28 
  -2  -1 -11    3.37    0.29 
  -2  -1 -11    3.21    0.29 
  -2   1 -11    2.98    0.30 
   2   1  11    3.24    0.32 
  -2   1 -11    2.95    0.32 
  -2   1 -11    3.20    0.26 
  -2   1 -11    2.81    0.26 
  -2   1 -11    3.19    0.24 
  -2   1 -11    3.13    0.36 
   2   1  11    2.98    0.39 
  -2   1 -11    3.29    0.32 
  -2   1 -11    3.04    0.18 
   3  -1  11    3.58    0.42 
  -3  -1 -11    3.53    0.23 
   3  -1  11    3.91    0.26 
  -3  -1 -11    3.37    0.23 
  -3  -1 -11    3.12    0.20 
  -3  -1 -11    2.83    0.21 
  -3  -1 -11    3.51    0.22 
  -3   1 -11    3.54    0.25 
  -3   1 -11    3.01    0.28 
  -3   1 -11    3.52    0.14 
  -3   1 -11    3.34    0.25 
  -3   1 -11    3.67    0.22 
  -3   1 -11    3.61    0.18 
  -3   1 -11    3.66    0.17 
  -3   1 -11    3.53    0.15 
  -3   1 -11    4.20    0.26 
   3   1  11    3.69    0.30 
  -9  -2  11    5.93    0.28 
  -9  -2  11    5.97    0.27 
  -9  -2  11    6.00    0.30 
   9  -2 -11    5.96    0.22 
   9  -2 -11    6.34    0.49 
   9  -2 -11    6.22    0.64 
  -9  -2  11    6.04    0.25 
  -9   2  11    5.97    0.36 
  -9   2  11    5.73    0.38 
  -9   2  11    5.99    0.33 
  -9   2  11    5.60    0.33 
  -9   2  11    6.28    0.36 
  -9   2  11    5.93    0.16 
  -9   2  11    5.96    0.26 
  -9   2  11    6.37    0.33 
  -8  -2  11   11.40    0.41 
   8  -2 -11   10.37    0.85 
   8  -2 -11   11.48    0.63 
  -8  -2  11   10.87    0.42 
  -8  -2  11   11.54    0.49 
  -8   2  11   12.09    0.30 
  -8   2  11   12.97    0.55 
  -8   2  11   11.65    0.47 
  -8   2  11   12.78    0.50 
  -8   2  11   12.39    0.36 
   8   2 -11   11.82    0.41 
   8   2 -11   13.36    0.49 
  -7  -2  11    4.19    0.28 
  -7  -2  11    4.32    0.38 
  -7  -2  11    3.85    0.38 
  -7  -2  11    3.95    0.32 
   7  -2 -11    5.41    0.64 
   7  -2 -11    4.13    0.47 
  -7  -2  11    4.68    0.42 
  -7  -2  11    4.30    0.27 
   7  -2 -11    4.32    0.21 
   7  -2 -11    1.68    0.55 
  -7  -2  11    4.85    0.37 
  -7  -2  11    3.81    0.42 
  -7   2  11    4.53    0.35 
  -7   2  11    4.34    0.42 
   7   2 -11    5.22    0.32 
  -7   2  11    5.50    0.50 
   7   2 -11    4.16    0.28 
  -7   2  11    4.34    0.44 
   7   2 -11    4.34    0.30 
  -7   2  11    4.10    0.34 
  -6  -2  11   25.76    0.81 
   6  -2 -11   25.45    0.75 
  -6  -2  11   24.38    0.67 
  -6  -2  11   26.34    0.64 
  -6  -2  11   25.84    0.71 
  -6  -2  11   26.31    0.80 
  -6  -2  11   25.05    0.75 
  -6  -2  11   25.72    0.46 
   6  -2 -11   27.17    1.44 
  -6  -2  11   25.38    0.59 
  -6  -2  11   25.02    0.80 
  -6  -2  11   25.90    0.68 
  -6   2  11   26.65    0.73 
  -6   2  11   26.28    0.86 
  -6   2  11   27.39    1.54 
   6   2 -11   26.98    0.64 
   6   2 -11   26.38    1.42 
   6   2 -11   26.84    0.57 
   6   2 -11   26.33    0.80 
   6   2 -11   26.35    0.63 
   5  -2 -11    4.15    0.43 
  -5  -2  11    4.45    0.40 
  -5  -2  11    3.44    0.48 
  -5  -2  11    3.16    0.48 
  -5  -2  11    3.94    0.47 
   5  -2 -11    4.04    0.37 
   5  -2 -11    4.56    1.14 
   5  -2 -11    4.22    0.59 
  -5  -2  11    4.05    0.52 
   5  -2 -11    3.96    0.84 
  -5  -2  11    3.49    0.44 
  -5  -2  11    4.17    0.35 
  -5  -2  11    3.75    0.30 
  -5  -2  11    3.98    0.42 
  -5   2  11    4.33    0.85 
   5   2 -11    4.12    0.45 
  -5   2  11    4.16    1.11 
   5   2 -11    5.04    0.97 
   5   2 -11    4.24    0.34 
  -5   2  11    3.83    0.38 
   5   2 -11    4.00    0.33 
  -5   2  11    3.43    0.52 
  -5   2  11    4.36    0.59 
   5   2 -11    4.16    0.31 
  -4  -2  11    0.44    0.28 
  -4  -2  11    0.87    0.33 
   4  -2 -11    0.51    0.24 
   4  -2 -11    0.10    0.62 
   4  -2 -11    0.03    0.19 
   4  -2 -11    0.38    0.41 
  -4  -2  11    0.58    0.26 
  -4  -2  11    0.45    0.26 
   4  -2 -11    0.15    0.78 
   4  -2 -11    0.25    0.20 
  -4  -2  11    0.46    0.18 
  -4  -2  11   -0.15    0.30 
  -4  -2  11    0.20    0.36 
  -4  -2  11    0.39    0.26 
   4   2 -11    0.55    0.46 
  -4   2  11    0.21    0.35 
   4   2 -11    0.28    0.24 
  -4   2  11    0.59    0.18 
   4   2 -11    0.63    0.20 
   4   2 -11    0.52    0.17 
  -4   2  11    0.21    0.33 
   4   2 -11    0.53    0.18 
  -4   2  11    0.20    0.57 
  -4   2  11    0.36    0.27 
  -3  -2  11   18.40    0.83 
   3  -2 -11   18.09    0.53 
  -3  -2  11   17.43    0.73 
   3  -2 -11   19.23    1.43 
   3  -2 -11   18.99    1.44 
  -3  -2  11   17.17    0.73 
   3  -2 -11   17.30    0.57 
  -3  -2  11   17.76    0.75 
  -3  -2  11   18.74    0.73 
  -3  -2  11   18.09    0.59 
   3  -2 -11   16.51    0.64 
  -3  -2  11   17.81    0.69 
   3   2 -11   19.03    0.78 
   3   2 -11   19.71    0.71 
   3   2 -11   19.47    1.08 
  -3   2  11   19.41    0.53 
  -3   2  11   19.80    0.86 
  -3   2  11   19.99    0.76 
   3   2 -11   19.59    0.45 
   2  -2 -11   24.14    0.64 
  -2  -2  11   24.14    0.78 
  -2  -2  11   23.96    0.92 
  -2  -2  11   24.40    0.90 
   2  -2 -11   25.42    1.31 
   2  -2 -11   24.38    0.52 
  -2  -2  11   24.82    0.96 
  -2  -2  11   24.43    1.38 
   2  -2 -11   24.25    0.61 
   2  -2 -11   24.06    0.70 
  -2  -2  11   24.46    0.81 
   2  -2 -11   23.92    0.69 
  -2  -2  11   23.01    1.58 
   2  -2 -11   25.03    1.41 
   2  -2 -11   23.14    0.50 
   2   2 -11   26.28    0.85 
  -2   2  11   26.77    0.90 
   2   2 -11   25.86    0.73 
  -2   2  11   26.07    0.64 
  -2   2  11   26.09    0.96 
   2   2 -11   25.77    1.19 
   2   2 -11   27.89    1.04 
  -2   2  11   27.19    0.73 
  -2   2  11   26.09    0.77 
  -1  -2  11    4.60    0.46 
   1  -2 -11    5.06    0.29 
   1  -2 -11    4.92    0.37 
   1  -2 -11    3.87    0.37 
   1  -2 -11    4.18    0.78 
   1  -2 -11    4.73    0.14 
  -1  -2  11    4.68    0.59 
   1  -2 -11    4.75    0.28 
   1  -2 -11    4.56    0.39 
   1  -2 -11    5.00    0.39 
  -1  -2  11    5.12    0.65 
  -1  -2  11    5.16    0.87 
   1  -2 -11    4.76    0.25 
  -1  -2  11    4.36    0.89 
   1  -2 -11    4.81    0.83 
  -1  -2  11    4.59    0.54 
   1  -2 -11    5.32    0.36 
   1  -2 -11    5.54    0.35 
   1   2 -11    3.50    0.55 
   1   2 -11    4.91    0.81 
  -1   2  11    4.93    0.59 
   1   2 -11    3.80    0.63 
  -1   2  11    5.04    0.46 
   1   2 -11    4.78    0.38 
  -1   2  11    4.77    0.39 
   1   2 -11    4.28    0.31 
  -1   2  11    5.62    0.57 
   1   2 -11    4.61    0.50 
  -1   2  11    4.61    0.40 
   0  -2 -11   10.21    0.67 
   0  -2 -11   13.25    0.35 
   0  -2 -11   13.19    0.48 
   0  -2 -11   12.73    0.24 
   0  -2  11   12.91    0.63 
   0  -2  11   12.78    0.70 
   0  -2 -11   12.58    0.46 
   0  -2 -11   13.01    0.40 
   0  -2  11   13.52    1.20 
   0  -2  11   11.57    0.60 
   0  -2 -11   13.58    0.50 
   0  -2 -11   13.19    0.40 
   0  -2 -11   13.24    0.40 
   0  -2 -11   13.18    0.44 
   0  -2 -11   12.71    0.45 
   0   2  11   12.45    0.47 
   0   2  11   13.95    0.54 
   0   2 -11   13.52    0.97 
   0   2 -11   13.69    0.57 
   0   2  11   13.18    0.59 
   0   2  11   14.58    0.70 
   0   2  11   13.88    0.75 
   0   2 -11   14.71    0.95 
   0   2 -11   14.05    0.50 
  -1  -2 -11    9.41    0.36 
  -1  -2 -11   10.00    0.40 
  -1  -2 -11    9.87    0.25 
  -1  -2 -11   10.11    0.41 
  -1  -2 -11   10.05    0.27 
   1  -2  11   10.33    0.66 
  -1  -2 -11    9.85    0.40 
   1  -2  11    9.68    0.67 
  -1  -2 -11    9.93    0.34 
   1  -2  11    9.73    0.58 
   1  -2  11   10.92    0.58 
  -1  -2 -11    9.94    0.22 
  -1  -2 -11   10.32    0.25 
  -1  -2 -11   10.04    0.39 
   1   2  11   10.93    0.52 
  -1   2 -11   10.30    0.45 
   1   2  11   10.52    0.47 
  -1   2 -11   10.77    0.33 
   1   2  11   10.22    0.41 
  -1   2 -11   10.49    0.43 
  -1   2 -11   11.00    0.35 
   2  -2  11    4.56    0.21 
  -2  -2 -11    4.41    0.27 
  -2  -2 -11    4.30    0.26 
  -2  -2 -11    4.01    0.27 
   2  -2  11    3.95    0.48 
  -2  -2 -11    4.48    0.27 
  -2  -2 -11    4.12    0.24 
   2  -2  11    4.21    0.38 
   2  -2  11    4.32    0.43 
   2  -2  11    4.27    0.48 
  -2   2 -11    4.56    0.21 
  -2   2 -11    4.26    0.29 
   2   2  11    4.78    0.34 
  -2   2 -11    4.97    0.29 
  -2   2 -11    4.72    0.34 
  -2   2 -11    4.79    0.30 
  -2   2 -11    4.98    0.27 
  -2   2 -11    4.38    0.31 
  -3  -2 -11    2.41    0.18 
   3  -2  11    2.22    0.33 
  -3   2 -11    2.70    0.17 
  -3   2 -11    2.72    0.19 
  -3   2 -11    2.69    0.27 
  -3   2 -11    2.94    0.24 
  -3   2 -11    2.67    0.14 
  -9   3  11    2.01    0.26 
   8  -3 -11    8.80    0.44 
   8  -3 -11    9.87    0.73 
   8  -3 -11    9.36    0.69 
  -8  -3  11    9.03    0.30 
  -8  -3  11    9.06    0.38 
  -8  -3  11    8.90    0.34 
  -8  -3  11    9.12    0.26 
  -8  -3  11    8.62    0.29 
  -8   3  11    9.44    0.25 
  -8   3  11    9.76    0.40 
  -8   3  11    9.35    0.37 
  -8   3  11    9.66    0.30 
  -8   3  11    9.64    0.45 
  -7  -3  11    1.29    0.12 
   7  -3 -11    1.43    0.45 
  -7  -3  11    1.26    0.26 
  -7  -3  11    1.30    0.25 
  -7  -3  11    1.85    0.35 
   7  -3 -11    1.92    0.34 
   7  -3 -11    0.96    0.44 
  -7   3  11    1.23    0.26 
   7   3 -11    1.08    0.22 
  -7   3  11    1.66    0.39 
  -6  -3  11   -0.14    0.22 
  -6  -3  11    0.43    0.20 
   6  -3 -11    0.21    0.25 
   6  -3 -11    0.22    0.19 
  -6  -3  11    0.24    0.08 
  -6  -3  11    0.29    0.14 
  -6  -3  11    0.14    0.18 
  -6  -3  11    0.08    0.13 
  -6  -3  11    0.15    0.16 
  -6  -3  11    0.26    0.20 
  -6   3  11    0.38    0.42 
  -6   3  11    0.19    0.27 
   6   3 -11    0.31    0.20 
   6   3 -11    0.22    0.18 
   6   3 -11    0.66    0.18 
  -6   3  11    0.16    0.19 
  -5  -3  11   46.40    0.92 
  -5  -3  11   44.45    0.58 
  -5  -3  11   45.75    0.90 
  -5  -3  11   44.67    0.80 
   5  -3 -11   37.94    1.94 
  -5  -3  11   46.47    1.07 
  -5  -3  11   43.97    0.95 
  -5  -3  11   43.49    0.76 
  -5  -3  11   44.50    0.69 
  -5  -3  11   44.46    0.91 
  -5  -3  11   45.19    0.83 
   5  -3 -11   43.85    0.93 
   5   3 -11   48.63    0.76 
  -5   3  11   48.23    1.07 
   5   3 -11   51.15    1.08 
   5   3 -11   50.95    1.70 
   5   3 -11   47.89    0.89 
  -5   3  11   49.70    2.29 
   5   3 -11   49.08    0.92 
  -5   3  11   47.27    2.72 
  -5   3  11   49.13    1.21 
  -4  -3  11   57.11    1.23 
   4  -3 -11   57.17    0.96 
  -4  -3  11   57.50    0.81 
  -4  -3  11   55.90    1.03 
  -4  -3  11   57.31    0.87 
  -4  -3  11   57.12    1.09 
  -4  -3  11   56.79    1.30 
   4  -3 -11   57.33    1.12 
   4  -3 -11   57.97    2.06 
   4  -3 -11   58.54    1.98 
  -4  -3  11   57.03    1.04 
  -4  -3  11   57.87    1.16 
   4  -3 -11   58.39    1.14 
  -4  -3  11   54.97    1.03 
   4  -3 -11   57.54    0.94 
  -4  -3  11   57.51    1.14 
   4  -3 -11   56.69    0.86 
   4   3 -11   61.49    1.78 
  -4   3  11   65.61    1.36 
   4   3 -11   61.56    1.06 
   4   3 -11   61.05    1.07 
   4   3 -11   63.57    0.90 
  -4   3  11   60.65    2.65 
  -4   3  11   63.46    0.90 
  -4   3  11   63.98    1.49 
   4   3 -11   62.55    1.25 
  -3  -3  11    5.92    0.58 
  -3  -3  11    6.99    0.57 
   3  -3 -11    5.88    0.39 
  -3  -3  11    6.63    0.32 
   3  -3 -11    6.03    0.23 
   3  -3 -11    5.54    0.36 
  -3  -3  11    5.88    0.42 
  -3  -3  11    6.91    0.49 
  -3  -3  11    6.35    0.41 
  -3  -3  11    5.91    0.52 
  -3  -3  11    5.92    0.46 
   3  -3 -11    5.81    0.29 
   3  -3 -11    6.27    0.40 
   3  -3 -11    6.20    1.01 
   3  -3 -11    6.69    0.42 
   3  -3 -11    5.79    0.41 
  -3   3  11    7.80    0.38 
  -3   3  11    7.11    0.42 
  -3   3  11    6.61    0.47 
   3   3 -11    7.08    0.28 
  -3   3  11    8.05    0.70 
   3   3 -11    5.06    0.67 
   3   3 -11    7.42    0.48 
  -2  -3  11   10.05    0.56 
   2  -3 -11   10.56    0.43 
  -2  -3  11   10.28    0.39 
  -2  -3  11   10.41    0.51 
  -2  -3  11   10.02    0.36 
  -2  -3  11   10.42    0.44 
   2  -3 -11    9.89    0.47 
   2  -3 -11    9.73    0.42 
   2  -3 -11   10.04    0.38 
   2  -3 -11   10.35    0.44 
  -2  -3  11   10.39    0.65 
   2  -3 -11   10.03    0.32 
  -2  -3  11   10.77    0.69 
  -2  -3  11   10.51    0.56 
   2  -3 -11   10.28    0.32 
   2  -3 -11   10.35    0.28 
  -2  -3  11   10.66    0.54 
   2  -3 -11   10.55    0.48 
   2  -3 -11    8.96    0.81 
   2  -3 -11    9.73    0.45 
   2   3 -11   12.06    0.49 
  -2   3  11   11.07    0.45 
  -2   3  11   11.83    0.58 
   2   3 -11   11.04    0.73 
   2   3 -11   10.86    0.58 
  -2   3  11   11.49    0.46 
   2   3 -11   11.65    0.70 
  -2   3  11   11.35    0.48 
  -2   3  11   12.30    0.71 
   2   3 -11   11.51    0.30 
   1  -3 -11   20.22    0.57 
   1  -3 -11   19.85    0.48 
   1  -3 -11   19.68    0.56 
   1  -3 -11   20.08    0.58 
   1  -3 -11   19.49    0.59 
  -1  -3  11   18.70    0.63 
   1  -3 -11   19.95    0.40 
  -1  -3  11   19.09    0.67 
   1  -3 -11   20.16    0.54 
   1  -3 -11   19.75    0.52 
  -1  -3  11   21.43    0.76 
   1  -3 -11   19.54    0.47 
   1  -3 -11   19.60    0.46 
  -1   3  11   21.01    0.63 
  -1   3  11   20.47    0.80 
   1   3 -11   21.51    0.72 
  -1   3  11   21.60    0.55 
   1   3 -11   19.92    1.24 
   1   3 -11   21.56    0.59 
  -1   3  11   21.14    0.61 
   0  -3  11   44.07    0.94 
   0  -3 -11   44.22    0.78 
   0  -3 -11   43.62    0.84 
   0  -3 -11   43.90    0.51 
   0  -3  11   44.52    1.63 
   0  -3  11   42.43    1.09 
   0  -3 -11   44.53    0.76 
   0  -3 -11   42.94    0.80 
   0  -3 -11   44.34    0.63 
   0  -3 -11   42.71    0.78 
   0  -3 -11   43.61    0.56 
   0  -3 -11   44.71    0.84 
   0  -3 -11   43.56    0.60 
   0   3 -11   50.57    1.06 
   0   3  11   48.44    0.83 
   0   3  11   46.86    0.97 
  -1  -3 -11    8.31    0.29 
   1  -3  11    9.42    0.53 
  -1  -3 -11    8.57    0.33 
  -1  -3 -11    8.13    0.32 
   1  -3  11    8.33    0.69 
  -1  -3 -11    8.40    0.28 
   1  -3  11    9.29    0.46 
  -1  -3 -11    7.82    0.30 
  -1   3 -11    9.23    0.30 
  -1   3 -11    9.74    0.29 
   1   3  11   10.14    0.38 
  -1   3 -11    9.66    0.33 
  -1   3 -11    9.74    0.36 
  -1   3 -11    9.31    0.41 
  -2  -3 -11    1.65    0.17 
   2  -3  11    2.60    0.36 
   2  -3  11    1.86    0.39 
   2  -3  11    1.84    0.37 
  -2   3 -11    1.81    0.25 
  -2   3 -11    2.10    0.15 
   7  -4 -11    6.61    0.24 
  -7  -4  11    5.83    0.26 
  -7   4  11    5.63    0.27 
  -7   4  11    6.37    0.31 
  -7   4  11    6.30    0.32 
   6  -4 -11   12.78    0.47 
  -6  -4  11   13.04    0.43 
   6  -4 -11   12.83    0.31 
  -6  -4  11   14.56    0.38 
  -6  -4  11   12.67    0.35 
   6  -4 -11   13.45    0.33 
   6   4 -11   15.54    0.36 
  -6   4  11   16.00    0.60 
  -5  -4  11   14.83    0.37 
  -5  -4  11   13.77    0.42 
   5  -4 -11   14.17    0.28 
   5  -4 -11   13.94    0.34 
   5  -4 -11   14.11    0.48 
  -5  -4  11   13.60    0.55 
  -5  -4  11   14.15    0.28 
  -5  -4  11   13.72    0.41 
  -5  -4  11   14.14    0.23 
   5  -4 -11   14.48    0.46 
  -5  -4  11   14.38    0.47 
  -5   4  11   16.48    1.15 
  -5   4  11   14.92    1.38 
  -5   4  11   16.10    0.63 
  -5   4  11   16.24    0.53 
   5   4 -11   16.65    0.36 
   5   4 -11   16.50    0.54 
  -4  -4  11    7.86    0.23 
  -4  -4  11    7.78    0.30 
   4  -4 -11    8.05    0.41 
  -4  -4  11    8.29    0.42 
  -4  -4  11    8.13    0.46 
   4  -4 -11    8.24    0.39 
  -4  -4  11    8.04    0.37 
  -4  -4  11    6.92    0.35 
   4  -4 -11    7.80    0.23 
  -4  -4  11    8.66    0.37 
   4  -4 -11    7.90    0.38 
   4  -4 -11    7.98    0.38 
   4  -4 -11    6.94    0.32 
  -4  -4  11    7.89    0.30 
   4   4 -11    8.93    0.27 
  -4   4  11    8.55    0.25 
  -4   4  11    8.63    0.62 
  -4   4  11    8.83    0.46 
  -4   4  11    9.73    0.58 
   4   4 -11    9.23    0.45 
  -3  -4  11    2.88    0.31 
   3  -4 -11    3.33    0.20 
  -3  -4  11    2.69    0.21 
   3  -4 -11    2.81    0.12 
   3  -4 -11    2.95    0.27 
  -3  -4  11    3.24    0.34 
  -3  -4  11    3.13    0.30 
  -3  -4  11    2.91    0.34 
   3  -4 -11    2.86    0.31 
   3  -4 -11    3.10    0.31 
   3  -4 -11    2.69    0.29 
  -3  -4  11    2.78    0.28 
  -3  -4  11    3.04    0.16 
  -3  -4  11    2.81    0.25 
   3  -4 -11    2.86    0.28 
   3  -4 -11    2.85    0.23 
  -3  -4  11    3.99    0.36 
   3  -4 -11    2.95    0.31 
   3  -4 -11    2.99    0.22 
   3   4 -11    3.73    0.55 
  -3   4  11    3.97    0.46 
  -3   4  11    4.59    0.78 
   3   4 -11    4.18    0.22 
   3   4 -11    3.45    0.32 
  -3   4  11    3.87    0.27 
   2  -4 -11    1.38    0.27 
   2  -4 -11    1.54    0.15 
  -2  -4  11    1.42    0.29 
  -2  -4  11    0.73    0.19 
   2  -4 -11    1.34    0.17 
  -2  -4  11    1.74    0.40 
   2  -4 -11    1.43    0.26 
   2  -4 -11    1.17    0.25 
   2  -4 -11    1.16    0.22 
  -2  -4  11    1.07    0.26 
   2  -4 -11    1.60    0.28 
   2  -4 -11    1.09    0.25 
   2  -4 -11    1.31    0.17 
  -2  -4  11    1.40    0.21 
  -2   4  11    1.47    0.26 
  -2   4  11    2.38    0.44 
   2   4 -11    1.41    0.34 
   2   4 -11    2.27    0.52 
   2   4 -11    1.98    0.53 
   2   4 -11    1.65    0.30 
   1  -4 -11   17.72    0.47 
   1  -4 -11   17.93    0.39 
  -1  -4  11   18.30    0.52 
  -1  -4  11   17.80    0.34 
  -1  -4  11   18.12    0.37 
   1  -4 -11   17.91    0.41 
   1  -4 -11   17.90    0.22 
   1  -4 -11   17.52    0.51 
   1  -4 -11   17.70    0.44 
   1  -4 -11   18.02    0.46 
  -1  -4  11   17.46    0.52 
  -1  -4  11   18.16    0.52 
   1  -4 -11   17.91    0.44 
  -1   4  11   20.14    0.44 
  -1   4  11   19.29    0.65 
   1   4 -11   20.07    0.91 
   1   4 -11   20.85    0.50 
   1   4 -11   20.56    0.62 
   1   4 -11   18.65    1.05 
   0  -4 -11   18.34    0.38 
   0  -4 -11   18.60    0.43 
   0  -4  11   17.99    0.36 
   0  -4 -11   19.06    0.43 
   0  -4 -11   18.54    0.41 
   0  -4 -11   18.52    0.38 
   0  -4  11   18.47    0.36 
   0  -4  11   18.74    0.52 
   0   4  11   23.50    0.47 
   0   4 -11   22.42    0.59 
   9   0 -12   24.02    0.63 
  -9   0  12   23.60    0.60 
  -9   0  12   23.02    0.55 
  -9   0  12   23.40    0.50 
   9   0 -12   23.18    0.42 
  -9   0  12   23.09    0.36 
  -9   0  12   22.71    0.52 
  -9   0  12   22.93    0.32 
  -9   0  12   23.04    0.32 
  -8   0  12    5.91    0.41 
  -8   0  12    6.85    0.36 
  -8   0  12    6.55    0.30 
   8   0 -12    5.98    0.26 
  -8   0  12    6.40    0.37 
   8   0 -12    6.38    0.41 
  -8   0  12    5.86    0.36 
  -7   0  12    8.34    0.45 
   7   0 -12    9.62    0.52 
  -7   0  12    8.03    0.48 
  -7   0  12    8.31    0.31 
  -7   0  12    8.00    0.47 
   7   0 -12    7.92    0.39 
   7   0 -12    8.23    0.28 
  -6   0  12    3.27    0.42 
  -6   0  12    2.93    0.33 
   6   0 -12    3.86    0.56 
   6   0 -12    3.03    0.44 
  -6   0  12    3.46    0.42 
   6   0 -12    2.35    0.49 
   6   0 -12    3.01    0.23 
  -6   0  12    4.57    0.55 
  -6   0  12    3.03    0.43 
   6   0 -12    2.87    0.82 
  -5   0  12    0.44    0.29 
  -5   0  12    0.46    0.28 
   5   0 -12    0.14    0.25 
   5   0 -12    0.06    0.25 
  -5   0  12   -0.11    0.29 
   5   0 -12   -0.02    0.11 
   5   0 -12    0.17    0.41 
   5   0 -12    0.27    0.32 
  -5   0  12    0.43    0.30 
  -5   0  12   -0.02    0.29 
   4   0 -12    1.64    0.74 
   4   0 -12    3.30    0.74 
   4   0 -12    3.79    0.52 
  -4   0  12    2.28    0.56 
  -4   0  12    2.59    0.76 
  -4   0  12    2.30    0.38 
  -4   0  12    2.79    0.44 
  -4   0  12    2.39    0.55 
   4   0 -12    2.38    0.42 
  -3   0  12    0.43    0.61 
   3   0 -12    0.72    0.44 
  -3   0  12    0.28    0.26 
  -3   0  12    0.66    0.35 
  -3   0  12    0.88    0.50 
  -3   0  12    0.11    0.31 
   3   0 -12    0.61    0.36 
   3   0 -12    0.88    0.68 
   3   0 -12    0.87    0.28 
   2   0 -12    5.25    0.86 
   2   0 -12    7.31    0.46 
   2   0 -12    7.24    0.41 
  -2   0  12    7.77    0.69 
  -2   0  12    6.51    0.48 
   2   0 -12    7.25    0.48 
  -2   0  12    6.62    0.58 
   2   0 -12    6.50    0.80 
  -1   0  12    2.29    0.55 
  -1   0  12    2.34    0.71 
   1   0 -12    2.53    0.21 
  -1   0  12    2.53    0.50 
   1   0 -12    2.44    0.24 
   1   0 -12    2.14    0.59 
   1   0 -12    2.35    0.35 
   1   0 -12    2.49    0.63 
  -1   0  12    2.64    0.27 
   1   0 -12    2.34    0.36 
   1   0 -12    2.66    0.23 
   0   0 -12    1.74    0.31 
   0   0 -12    2.25    0.22 
   0   0  12    2.53    0.27 
   0   0 -12    2.12    0.21 
   0   0 -12    2.44    0.34 
   0   0 -12    2.05    0.25 
   0   0  12    1.83    0.46 
   0   0  12    1.55    0.72 
   0   0 -12    1.67    0.33 
   0   0 -12    1.84    0.28 
  -1   0 -12    0.16    0.17 
  -1   0 -12    0.14    0.16 
  -1   0 -12   -0.10    0.13 
   1   0  12    0.12    0.14 
  -1   0 -12    0.09    0.09 
  -1   0 -12   -0.19    0.16 
  -1   0 -12    0.01    0.14 
   1   0  12   -0.14    0.25 
  -1   0 -12    0.06    0.19 
   1   0  12    0.23    0.49 
  -1   0 -12    0.17    0.14 
  -1   0 -12    0.04    0.12 
   2   0  12   25.66    1.31 
  -2   0 -12   25.48    0.51 
   2   0  12   24.99    0.44 
   2   0  12   25.18    0.67 
  -2   0 -12   25.54    0.49 
  -2   0 -12   21.85    0.53 
  -2   0 -12   25.39    0.29 
  -2   0 -12   25.91    0.47 
   9  -1 -12    0.36    0.09 
  -9  -1  12    0.43    0.11 
  -9  -1  12    0.34    0.16 
   9  -1 -12    0.45    0.30 
   9  -1 -12    0.61    0.25 
  -9   1  12    0.22    0.19 
   9   1 -12   -0.05    0.10 
   9   1 -12    0.33    0.17 
  -9   1  12    0.17    0.17 
  -9   1  12    0.16    0.09 
  -9   1  12    0.26    0.16 
  -9   1  12    0.14    0.14 
  -9   1  12    0.21    0.14 
  -8  -1  12    9.34    0.28 
  -8  -1  12    8.69    0.30 
  -8  -1  12    8.88    0.36 
  -8  -1  12    9.46    0.25 
   8  -1 -12    9.20    0.26 
  -8  -1  12    9.13    0.23 
   8  -1 -12    9.14    0.45 
   8  -1 -12    8.40    0.70 
  -8  -1  12   10.01    0.40 
  -8  -1  12    9.42    0.47 
   8   1 -12    9.51    0.48 
  -8   1  12    9.90    0.44 
  -8   1  12    9.97    0.40 
  -8   1  12    9.47    0.25 
  -8   1  12    9.67    0.43 
  -8   1  12    9.64    0.39 
   8   1 -12    9.63    0.31 
   7  -1 -12   18.21    0.36 
  -7  -1  12   18.01    0.31 
   7  -1 -12   19.29    0.94 
  -7  -1  12   17.64    0.59 
  -7  -1  12   17.78    0.60 
  -7  -1  12   17.51    0.58 
  -7  -1  12   18.15    0.48 
  -7  -1  12   17.37    0.53 
   7  -1 -12   18.25    0.61 
  -7  -1  12   18.23    0.46 
   7   1 -12   18.07    0.62 
   7   1 -12   17.87    0.55 
   7   1 -12   17.61    0.40 
  -7   1  12   18.39    0.59 
  -7   1  12   18.95    0.61 
  -7   1  12   18.09    0.42 
  -7   1  12   18.33    0.44 
   6  -1 -12   27.62    1.42 
   6  -1 -12   25.01    0.71 
  -6  -1  12   27.44    0.76 
  -6  -1  12   25.51    0.73 
  -6  -1  12   26.40    0.53 
  -6  -1  12   25.87    0.78 
  -6   1  12   27.20    0.59 
   6   1 -12   25.80    0.49 
  -6   1  12   26.75    0.70 
  -6   1  12   27.05    0.76 
  -6   1  12   26.74    0.69 
   6   1 -12   25.77    0.65 
   6   1 -12   26.56    0.78 
  -6   1  12   28.42    0.77 
   6   1 -12   25.03    1.26 
  -5  -1  12    6.46    0.47 
   5  -1 -12    5.71    0.61 
  -5  -1  12    6.38    0.57 
  -5  -1  12    6.08    0.48 
  -5  -1  12    5.70    0.50 
   5  -1 -12    5.74    0.43 
  -5  -1  12    5.95    0.35 
  -5  -1  12    5.99    0.53 
   5  -1 -12    6.79    1.03 
   5   1 -12    6.39    0.25 
   5   1 -12    5.36    0.77 
  -5   1  12    6.00    0.61 
   5   1 -12    6.23    0.85 
   5   1 -12    5.98    0.47 
  -5   1  12    6.30    0.50 
  -5   1  12    6.11    0.80 
  -5   1  12    4.72    0.40 
   4  -1 -12    7.58    0.54 
  -4  -1  12    8.91    0.55 
  -4  -1  12    9.26    0.56 
  -4  -1  12    9.69    0.63 
  -4  -1  12    9.26    0.53 
   4  -1 -12    8.42    0.42 
   4  -1 -12    8.05    0.98 
  -4  -1  12    9.48    0.58 
  -4  -1  12    9.62    0.66 
   4  -1 -12    7.91    0.79 
  -4   1  12    7.63    1.04 
   4   1 -12    9.10    0.28 
   4   1 -12    9.35    0.59 
   4   1 -12    8.62    0.49 
   4   1 -12    5.97    0.70 
  -4   1  12    9.15    0.64 
  -4   1  12    8.55    0.52 
  -4   1  12    8.94    1.16 
   4   1 -12    8.71    0.65 
   3  -1 -12   37.44    0.84 
   3  -1 -12   39.26    1.53 
   3  -1 -12   37.89    0.88 
  -3  -1  12   37.41    0.86 
  -3  -1  12   38.00    1.11 
  -3  -1  12   37.69    1.79 
  -3  -1  12   37.83    0.91 
  -3  -1  12   37.81    1.41 
  -3  -1  12   36.34    1.02 
   3   1 -12   40.67    0.90 
  -3   1  12   40.85    1.20 
   3   1 -12   41.31    1.05 
   3   1 -12   38.11    1.96 
  -3   1  12   41.58    1.08 
  -3   1  12   41.36    1.68 
   3   1 -12   44.02    1.94 
  -2  -1  12   24.65    1.54 
  -2  -1  12   25.07    0.87 
  -2  -1  12   22.90    0.74 
   2  -1 -12   24.56    0.69 
  -2  -1  12   22.39    1.49 
   2  -1 -12   23.71    0.50 
   2  -1 -12   23.64    0.50 
   2  -1 -12   23.22    1.22 
  -2  -1  12   22.75    0.70 
   2  -1 -12   24.06    1.21 
   2  -1 -12   23.35    0.56 
  -2   1  12   26.61    0.83 
   2   1 -12   26.08    1.28 
  -2   1  12   25.56    0.86 
  -2   1  12   30.00    1.75 
   2   1 -12   25.78    0.78 
   2   1 -12   25.06    0.64 
  -2   1  12   25.55    0.93 
  -2   1  12   25.79    0.54 
   2   1 -12   24.04    1.21 
   1  -1 -12    0.86    0.21 
   1  -1 -12    1.09    0.19 
  -1  -1  12    1.74    0.91 
  -1  -1  12    1.03    0.50 
   1  -1 -12    0.99    0.23 
  -1  -1  12    1.23    0.29 
   1  -1 -12    0.55    0.23 
   1  -1 -12    0.86    0.21 
  -1  -1  12    0.96    0.29 
   1  -1 -12    1.19    0.10 
   1  -1 -12    0.55    0.17 
  -1  -1  12    0.95    0.23 
  -1   1  12    2.02    0.54 
   1   1 -12    0.53    0.20 
  -1   1  12    1.10    0.29 
  -1   1  12    1.39    0.31 
   1   1 -12    1.25    0.26 
   1   1 -12    1.21    0.30 
   1   1 -12    1.00    0.25 
   0  -1 -12   29.00    0.49 
   0  -1  12   30.28    0.91 
   0  -1 -12   29.90    0.67 
   0  -1  12   29.41    0.83 
   0  -1 -12   29.44    0.39 
   0  -1 -12   28.70    0.69 
   0  -1 -12   29.20    0.57 
   0  -1 -12   29.75    0.67 
   0  -1  12   30.67    0.99 
   0  -1 -12   30.13    0.68 
   0  -1 -12   29.52    0.57 
   0  -1  12   26.01    0.92 
   0  -1  12   30.18    1.74 
   0  -1 -12   31.77    0.64 
   0  -1 -12   30.68    0.58 
   0   1 -12   31.64    0.52 
   0   1  12   31.97    0.61 
   0   1 -12   31.37    0.74 
   0   1 -12   32.62    0.54 
   0   1 -12   33.10    0.74 
   0   1 -12   30.78    0.58 
   0   1  12   32.98    0.92 
  -1  -1 -12    2.85    0.27 
   1  -1  12    2.95    0.20 
  -1  -1 -12    2.51    0.26 
  -1  -1 -12    2.74    0.16 
  -1  -1 -12    2.82    0.26 
   1  -1  12    2.79    0.43 
  -1  -1 -12    3.01    0.15 
  -1  -1 -12    2.88    0.18 
  -1  -1 -12    3.07    0.14 
   1  -1  12    2.95    0.43 
  -1  -1 -12    2.25    0.22 
  -1  -1 -12    2.58    0.27 
  -1  -1 -12    2.49    0.26 
   1  -1  12    2.70    0.48 
  -1   1 -12    2.46    0.22 
   1   1  12    2.66    0.44 
   1   1  12    3.01    0.26 
  -1   1 -12    2.68    0.28 
  -1   1 -12    2.45    0.17 
  -1   1 -12    2.55    0.26 
  -1   1 -12    2.79    0.14 
  -1   1 -12    2.49    0.24 
  -1   1 -12    3.20    0.21 
  -1   1 -12    2.77    0.28 
  -2  -1 -12   14.44    0.37 
   2  -1  12   14.21    0.49 
  -2  -1 -12   14.83    0.35 
  -2  -1 -12   14.42    0.38 
  -2   1 -12   15.84    0.30 
  -2   1 -12   15.98    0.41 
   2   1  12   16.28    0.37 
  -2   1 -12   15.52    0.29 
  -2   1 -12   15.43    0.26 
   8  -2 -12    3.34    0.39 
  -8  -2  12    3.43    0.23 
  -8  -2  12    3.22    0.25 
   8  -2 -12    3.36    0.56 
  -8   2  12    3.50    0.29 
  -8   2  12    3.53    0.20 
  -8   2  12    3.63    0.32 
  -8   2  12    3.20    0.27 
   8   2 -12    3.82    0.21 
  -7  -2  12   17.24    0.41 
  -7  -2  12   16.86    0.47 
  -7  -2  12   16.76    0.58 
  -7  -2  12   16.51    0.48 
  -7  -2  12   16.80    0.31 
  -7  -2  12   17.03    0.36 
   7  -2 -12   17.04    1.01 
  -7  -2  12   16.44    0.53 
   7  -2 -12   16.06    0.56 
   7  -2 -12   20.26    1.13 
  -7  -2  12   16.92    0.34 
  -7   2  12   17.80    0.50 
  -7   2  12   16.61    0.42 
   7   2 -12   17.79    0.59 
   7   2 -12   17.56    0.39 
  -7   2  12   17.47    0.45 
  -7   2  12   17.49    0.54 
  -6  -2  12   28.38    0.77 
   6  -2 -12   24.39    1.29 
  -6  -2  12   25.93    0.37 
  -6  -2  12   26.27    0.69 
  -6  -2  12   26.77    0.67 
  -6  -2  12   26.35    0.63 
  -6  -2  12   26.80    0.55 
  -6  -2  12   26.92    0.65 
  -6  -2  12   26.57    0.56 
   6  -2 -12   27.51    1.16 
   6  -2 -12   27.34    0.73 
  -6   2  12   28.00    0.80 
   6   2 -12   28.58    0.50 
   6   2 -12   28.45    0.75 
  -6   2  12   27.94    0.63 
   5  -2 -12    6.89    0.37 
  -5  -2  12    8.39    0.52 
  -5  -2  12    7.70    0.28 
  -5  -2  12    7.68    0.48 
  -5  -2  12    7.60    0.41 
  -5  -2  12    7.36    0.42 
   5   2 -12    7.72    0.27 
  -5   2  12    7.49    0.72 
  -5   2  12    8.65    0.58 
  -5   2  12    8.17    0.46 
   5   2 -12    7.37    0.37 
   5   2 -12    8.50    0.46 
  -5   2  12    7.51    1.01 
  -4  -2  12    7.03    0.39 
  -4  -2  12    7.72    0.35 
  -4  -2  12    7.41    0.47 
   4  -2 -12    6.76    0.46 
   4  -2 -12    6.28    0.38 
  -4  -2  12    6.74    0.51 
  -4  -2  12    6.80    0.47 
  -4   2  12    7.27    0.59 
   4   2 -12    7.67    0.26 
   4   2 -12    7.87    0.45 
  -4   2  12    7.76    0.98 
   4   2 -12    7.01    0.54 
  -4   2  12    7.90    0.63 
  -4   2  12    7.20    1.18 
   4   2 -12    8.28    0.70 
   3  -2 -12   21.88    0.46 
   3  -2 -12   21.74    0.45 
  -3  -2  12   21.75    0.50 
  -3  -2  12   20.49    0.64 
   3  -2 -12   22.09    0.64 
   3  -2 -12   20.58    0.51 
  -3  -2  12   22.11    0.68 
  -3  -2  12   21.79    0.66 
  -3  -2  12   22.38    0.69 
   3  -2 -12   22.60    0.61 
  -3   2  12   22.91    1.36 
   3   2 -12   23.62    0.64 
  -3   2  12   23.81    0.78 
   3   2 -12   23.91    0.76 
   3   2 -12   26.78    1.36 
  -3   2  12   24.05    0.91 
   3   2 -12   25.12    1.48 
  -3   2  12   24.38    0.48 
  -2  -2  12   14.76    0.63 
   2  -2 -12   15.52    0.52 
   2  -2 -12   15.41    0.45 
   2  -2 -12   15.81    0.55 
  -2  -2  12   15.68    0.60 
   2  -2 -12   15.28    0.49 
   2  -2 -12   15.66    0.52 
  -2  -2  12   15.45    0.56 
   2  -2 -12   15.65    0.34 
   2   2 -12   17.43    0.96 
  -2   2  12   19.65    1.56 
   2   2 -12   16.57    0.64 
   2   2 -12   15.84    0.96 
   2   2 -12   16.29    0.49 
  -2   2  12   16.43    0.45 
  -2   2  12   15.02    0.52 
  -2   2  12   16.30    0.70 
   1  -2 -12    2.69    0.28 
   1  -2 -12    2.12    0.18 
   1  -2 -12    2.73    0.25 
  -1  -2  12    2.30    0.43 
   1  -2 -12    2.66    0.32 
   1  -2 -12    2.15    0.30 
  -1  -2  12    2.60    0.43 
   1  -2 -12    2.18    0.29 
   1  -2 -12    2.58    0.32 
   1  -2 -12    2.70    0.25 
  -1  -2  12    2.01    0.49 
   1  -2 -12    2.37    0.12 
   1  -2 -12    2.18    0.28 
  -1   2  12    2.75    0.29 
   1   2 -12    2.44    0.28 
  -1   2  12    2.50    0.49 
  -1   2  12    2.78    0.34 
   1   2 -12    2.49    0.29 
   0  -2  12    2.11    0.51 
   0  -2 -12    2.36    0.18 
   0  -2 -12    2.93    0.29 
   0  -2 -12    2.48    0.28 
   0  -2  12    2.23    0.44 
   0  -2 -12    2.05    0.24 
   0  -2 -12    2.02    0.14 
   0  -2 -12    2.36    0.14 
   0  -2 -12    2.29    0.27 
   0  -2  12    2.43    0.37 
   0  -2 -12    2.61    0.28 
   0  -2  12    2.76    0.35 
   0  -2  12    2.19    0.66 
   0  -2 -12    2.38    0.15 
   0  -2 -12    2.39    0.26 
   0   2 -12    2.09    0.22 
   0   2 -12    2.66    0.34 
   0   2 -12    2.52    0.23 
   0   2  12    1.69    0.45 
   0   2 -12    2.39    0.22 
   0   2  12    2.68    0.28 
  -1  -2 -12   26.35    0.50 
  -1  -2 -12   25.96    0.54 
   1  -2  12   27.23    0.64 
  -1  -2 -12   25.68    0.54 
   1  -2  12   26.31    0.73 
   1  -2  12   24.99    1.35 
  -1  -2 -12   25.83    0.47 
   1  -2  12   25.53    1.14 
  -1  -2 -12   25.72    0.49 
  -1   2 -12   26.69    0.58 
  -1   2 -12   26.13    0.39 
   1   2  12   26.24    0.72 
   1   2  12   26.14    0.48 
  -7  -3  12    5.20    0.31 
  -7  -3  12    5.36    0.25 
  -7  -3  12    5.47    0.23 
   7   3 -12    5.93    0.21 
  -7   3  12    5.99    0.24 
  -7   3  12    5.78    0.25 
  -7   3  12    6.17    0.30 
  -6  -3  12    2.33    0.30 
  -6  -3  12    2.34    0.11 
  -6  -3  12    2.61    0.26 
  -6  -3  12    3.16    0.38 
  -6  -3  12    2.11    0.27 
   6  -3 -12    2.06    0.17 
  -6  -3  12    2.43    0.16 
  -6  -3  12    2.33    0.13 
   6   3 -12    2.35    0.20 
   6   3 -12    3.02    0.31 
  -6   3  12    2.44    0.34 
   5  -3 -12   17.69    0.47 
  -5  -3  12   17.43    0.51 
   5  -3 -12   17.20    0.53 
  -5  -3  12   17.62    0.58 
  -5  -3  12   17.51    0.48 
   5  -3 -12   17.66    0.37 
  -5  -3  12   18.19    0.39 
  -5  -3  12   17.37    0.41 
   5  -3 -12   17.71    0.36 
  -5  -3  12   16.59    0.47 
   5   3 -12   20.51    0.38 
  -5   3  12   19.79    1.04 
  -5   3  12   19.72    1.29 
  -5   3  12   21.81    0.71 
   5   3 -12   19.91    0.58 
  -5   3  12   19.91    0.56 
  -4  -3  12    0.43    0.17 
  -4  -3  12    0.34    0.13 
  -4  -3  12    0.36    0.11 
   4  -3 -12    0.40    0.10 
  -4  -3  12    0.22    0.19 
   4  -3 -12    0.27    0.18 
   4  -3 -12    0.62    0.13 
  -4  -3  12    0.21    0.16 
  -4  -3  12    0.65    0.24 
  -4  -3  12    0.83    0.22 
   4  -3 -12    0.62    0.19 
   4   3 -12    0.34    0.19 
  -4   3  12    0.24    0.23 
  -4   3  12    0.26    0.34 
  -4   3  12    0.77    0.27 
   4   3 -12    0.62    0.36 
   4   3 -12    0.44    0.09 
  -4   3  12    0.40    0.66 
  -3  -3  12    4.95    0.24 
   3  -3 -12    4.31    0.28 
   3  -3 -12    5.16    0.35 
  -3  -3  12    5.55    0.37 
   3  -3 -12    4.94    0.28 
   3  -3 -12    4.92    0.23 
   3  -3 -12    5.26    0.20 
   3  -3 -12    5.12    0.34 
  -3  -3  12    4.47    0.35 
  -3  -3  12    4.17    0.39 
   3  -3 -12    5.18    0.34 
   3  -3 -12    5.08    0.30 
  -3   3  12    4.94    0.41 
   3   3 -12    6.85    0.74 
  -3   3  12    5.68    0.25 
  -3   3  12    5.85    0.52 
  -3   3  12    5.46    0.68 
   3   3 -12    4.95    0.42 
   3   3 -12    6.11    0.37 
   3   3 -12    6.73    0.74 
  -2  -3  12   10.30    0.45 
  -2  -3  12   10.43    0.44 
   2  -3 -12   10.62    0.37 
   2  -3 -12   10.59    0.40 
   2  -3 -12   10.49    0.39 
   2  -3 -12   10.51    0.27 
   2  -3 -12   11.07    0.41 
  -2  -3  12   10.75    0.31 
  -2  -3  12   10.03    0.40 
   2  -3 -12    9.32    0.28 
   2  -3 -12   10.96    0.42 
   2  -3 -12   10.46    0.35 
   2  -3 -12   10.43    0.31 
   2   3 -12   10.19    0.72 
  -2   3  12   12.18    1.04 
   2   3 -12   10.63    0.60 
  -2   3  12   10.32    0.50 
   2   3 -12    9.34    0.43 
  -2   3  12   10.91    0.32 
   2   3 -12   10.83    0.37 
  -1  -3  12    4.47    0.33 
  -1  -3  12    4.23    0.25 
   1  -3 -12    4.00    0.29 
   1  -3 -12    3.80    0.13 
   1  -3 -12    4.04    0.15 
   1  -3 -12    5.23    0.31 
  -1  -3  12    4.23    0.35 
   1  -3 -12    3.93    0.26 
   1  -3 -12    4.37    0.27 
   1  -3 -12    3.94    0.26 
  -1  -3  12    4.31    0.24 
   1  -3 -12    4.13    0.27 
   1  -3 -12    4.13    0.13 
   1  -3 -12    4.19    0.11 
   1   3 -12    4.95    0.35 
  -1   3  12    4.71    0.46 
  -1   3  12    5.42    0.29 
   0  -3 -12    3.92    0.23 
   0  -3 -12    4.71    0.24 
   0  -3  12    4.30    0.34 
   0  -3  12    4.31    0.36 
   0  -3 -12    4.43    0.24 
   0  -3 -12    4.30    0.24 
   0   3  12    5.90    0.27 
   0   3 -12    5.78    0.22 
  -8   0  13    8.97    0.34 
  -8   0  13    9.02    0.27 
   8   0 -13    9.04    0.37 
   7   0 -13   97.86    1.58 
   7   0 -13   87.25    3.69 
  -7   0  13   95.05    1.35 
  -7   0  13  101.15    1.50 
  -7   0  13   96.66    1.53 
   6   0 -13   12.44    0.90 
  -6   0  13   13.52    0.35 
  -6   0  13   14.06    0.47 
   6   0 -13   14.13    0.93 
  -6   0  13   13.26    0.50 
   6   0 -13   13.09    0.46 
  -6   0  13   13.29    0.48 
   5   0 -13    0.82    0.23 
  -5   0  13    1.35    0.34 
  -5   0  13    1.92    0.30 
  -5   0  13    1.08    0.20 
  -5   0  13    0.83    0.19 
   5   0 -13    1.25    0.50 
   5   0 -13    1.38    0.27 
  -5   0  13    1.31    0.26 
   5   0 -13    0.80    0.30 
  -4   0  13    3.69    0.42 
  -4   0  13    3.90    0.36 
   4   0 -13    3.55    0.38 
   3   0 -13   -0.10    0.13 
  -3   0  13   -0.16    0.25 
  -3   0  13   -0.27    0.29 
   2   0 -13    0.23    0.19 
  -2   0  13    0.51    0.27 
   2   0 -13    0.34    0.12 
   2   0 -13    0.64    0.15 
  -2   0  13    0.68    0.36 
  -2   0  13    0.65    0.49 
  -2   0  13    1.00    0.26 
  -1   0  13   15.62    1.15 
  -1   0  13   15.50    1.07 
  -1   0  13   16.03    0.56 
  -1   0  13   15.84    0.59 
   1   0 -13   15.73    0.29 
   1   0 -13   15.54    0.43 
   1   0 -13   15.38    0.47 
   0   0 -13    9.28    0.25 
   0   0 -13    9.89    0.22 
   0   0  13    9.74    0.43 
   0   0 -13    9.94    0.34 
   0   0  13   10.77    0.83 
  -7  -1  13    7.68    0.33 
  -7  -1  13    8.31    0.37 
  -7  -1  13    9.17    0.37 
  -7  -1  13    8.47    0.28 
  -7  -1  13    9.22    0.39 
   7  -1 -13    7.88    0.68 
   7  -1 -13    7.82    0.54 
  -7  -1  13    8.77    0.27 
   7   1 -13    9.11    0.58 
  -7   1  13    9.26    0.40 
  -7   1  13    8.07    0.38 
  -7   1  13    9.31    0.25 
   7   1 -13    9.12    0.22 
  -6  -1  13    5.04    0.35 
   6  -1 -13    4.77    0.50 
  -6  -1  13    4.52    0.37 
  -6  -1  13    4.86    0.35 
  -6  -1  13    4.05    0.28 
  -6  -1  13    4.81    0.20 
   6   1 -13    5.02    0.40 
  -6   1  13    4.70    0.28 
  -6   1  13    4.12    0.23 
  -6   1  13    4.65    0.34 
   6   1 -13    4.67    0.38 
  -6   1  13    4.70    0.30 
  -5  -1  13   13.70    0.36 
  -5  -1  13   13.68    0.49 
  -5  -1  13   13.33    0.53 
  -5  -1  13   12.78    0.49 
  -5   1  13   14.39    0.57 
   5   1 -13   15.70    0.62 
   5   1 -13   17.32    1.10 
   5   1 -13   15.74    1.13 
   5   1 -13   15.40    0.53 
  -4  -1  13    2.56    0.32 
   4  -1 -13    2.45    0.26 
  -4  -1  13    2.45    0.28 
  -4  -1  13    2.12    0.37 
  -4  -1  13    2.76    0.31 
  -4  -1  13    2.65    0.36 
   4   1 -13    2.48    0.31 
   4   1 -13    2.34    0.42 
   4   1 -13    1.98    0.47 
  -4   1  13    1.82    0.41 
   4   1 -13    2.53    0.41 
  -4   1  13    2.34    0.52 
   3  -1 -13    6.56    0.25 
  -3  -1  13    6.33    0.39 
   3  -1 -13    6.76    0.32 
   3  -1 -13    6.92    0.42 
   3  -1 -13    6.23    0.22 
  -3  -1  13    5.75    0.42 
  -3   1  13    7.25    0.45 
  -3   1  13    7.34    0.51 
   3   1 -13    6.51    0.38 
  -3   1  13    6.12    0.73 
  -3   1  13    6.75    0.88 
  -2  -1  13   11.61    0.54 
   2  -1 -13   12.12    0.44 
   2  -1 -13   12.10    0.42 
   2  -1 -13   11.31    0.27 
  -2  -1  13   11.01    0.42 
   2  -1 -13   12.19    0.38 
  -2   1  13   11.95    0.55 
  -2   1  13   11.30    1.05 
   2   1 -13   11.94    0.32 
   2   1 -13   11.25    0.32 
   2   1 -13   11.71    0.41 
  -2   1  13   12.73    0.54 
   1  -1 -13    1.05    0.18 
  -1  -1  13    0.97    0.41 
   1  -1 -13    1.20    0.21 
  -1  -1  13    0.80    0.23 
   1  -1 -13    1.11    0.17 
   1  -1 -13    1.00    0.21 
   1  -1 -13    1.28    0.25 
   1  -1 -13    1.00    0.20 
   1  -1 -13    0.99    0.19 
   1  -1 -13    1.14    0.19 
  -1  -1  13    1.51    0.33 
   1  -1 -13    1.02    0.15 
   1   1 -13    1.25    0.16 
   1   1 -13    1.19    0.10 
  -1   1  13    0.92    0.26 
  -1   1  13    1.47    0.66 
   1   1 -13    0.52    0.18 
  -1   1  13    1.48    0.40 
  -6  -2  13    4.34    0.21 
  -6  -2  13    4.09    0.28 
  -6  -2  13    4.69    0.31 
  -6  -2  13    4.73    0.29 
  -6  -2  13    4.41    0.22 
   6   2 -13    4.30    0.31 
  -6   2  13    4.88    0.31 
  -6   2  13    4.49    0.26 
   6   2 -13    4.35    0.31 
   6   2 -13    4.25    0.16 
   6   2 -13    4.64    0.34 
  -6   2  13    4.51    0.25 
  -5  -2  13    4.16    0.31 
  -5  -2  13    4.35    0.34 
  -5  -2  13    4.09    0.17 
  -5  -2  13    4.49    0.36 
   5  -2 -13    3.87    0.18 
  -5  -2  13    3.84    0.24 
  -5   2  13    4.57    0.37 
   5   2 -13    3.95    0.52 
   5   2 -13    4.60    0.35 
   5   2 -13    4.75    0.36 
   4  -2 -13    8.20    0.36 
  -4  -2  13    8.88    0.39 
  -4  -2  13    8.56    0.26 
   4  -2 -13    8.31    0.33 
  -4  -2  13    8.15    0.40 
  -4  -2  13    8.63    0.38 
   4  -2 -13    8.55    0.20 
   4  -2 -13    9.23    0.26 
   4   2 -13    9.54    0.38 
  -4   2  13    9.70    0.51 
   4   2 -13    9.61    0.44 
  -4   2  13    9.88    0.39 
  -4   2  13   10.16    0.85 
   4   2 -13   10.06    0.69 
   4   2 -13    8.77    0.69 
   3  -2 -13   21.53    0.52 
   3  -2 -13   20.38    0.44 
   3  -2 -13   21.68    0.35 
   3  -2 -13   22.27    0.54 
   3  -2 -13   21.80    0.51 
  -3  -2  13   20.89    0.41 
  -3  -2  13   22.05    0.56 
  -3  -2  13   22.05    0.54 
   3  -2 -13   19.53    0.51 
  -3   2  13   23.91    0.75 
  -3   2  13   23.53    1.48 
  -3   2  13   23.92    1.22 
   3   2 -13   23.99    0.62 
  -3   2  13   23.10    0.60 
   2  -2 -13    5.15    0.19 
   2  -2 -13    4.56    0.22 
  -2  -2  13    4.87    0.26 
   2  -2 -13    5.08    0.28 
  -2  -2  13    5.05    0.36 
  -2  -2  13    4.63    0.32 
   2  -2 -13    4.67    0.35 
   2  -2 -13    4.80    0.29 
   2  -2 -13    4.84    0.22 
  -2   2  13    6.53    0.81 
  -2   2  13    4.89    0.50 
  -2   2  13    5.38    0.42 
   2   2 -13    4.47    0.27 
   2   2 -13    4.82    0.29 
   0   0   0    0.00    0.00 
;
_shelx_hkl_checksum              2151
#END Tags that were not found in dictionaries
loop_
_space_group_symop_operation_xyz
'x, y, z'
'-x, y+1/2, -z'
loop_
_atom_site_label
_atom_site_type_symbol
_atom_site_fract_x
_atom_site_fract_y
_atom_site_fract_z
_atom_site_U_iso_or_equiv
_atom_site_adp_type
_atom_site_occupancy
_atom_site_site_symmetry_order
_atom_site_calc_flag
_atom_site_refinement_flags_posn
_atom_site_refinement_flags_adp
C1 C 0.1024(2) 0.3662(3) 0.76098(18) 0.0144(4) Uani 1 1 d . .
C2 C 0.2063(2) 0.5221(3) 0.84244(18) 0.0151(4) Uani 1 1 d . .
C3 C 0.3483(2) 0.5064(3) 0.84091(18) 0.0164(4) Uani 1 1 d . .
C4 C 0.4393(2) 0.6673(4) 0.89420(18) 0.0185(4) Uani 1 1 d . .
H4 H 0.4111 0.7790 0.9335 0.022 Uiso 1 1 calc R U
C5 C 0.5704(2) 0.6643(4) 0.88992(19) 0.0214(5) Uani 1 1 d . .
H5 H 0.6316 0.7755 0.9237 0.026 Uiso 1 1 calc R U
C6 C 0.6112(2) 0.4958(4) 0.8354(2) 0.0218(5) Uani 1 1 d . .
H6 H 0.7015 0.4917 0.8332 0.026 Uiso 1 1 calc R U
C7 C 0.5228(2) 0.3347(4) 0.78446(19) 0.0205(5) Uani 1 1 d . .
H7 H 0.5532 0.2208 0.7485 0.025 Uiso 1 1 calc R U
C8 C 0.3888(2) 0.3370(4) 0.78516(18) 0.0171(4) Uani 1 1 d . .
C9 C 0.2916(2) 0.1633(3) 0.72621(19) 0.0189(4) Uani 1 1 d . .
H9A H 0.3414 0.0299 0.7457 0.023 Uiso 1 1 calc R U
H9B H 0.2590 0.1812 0.6355 0.023 Uiso 1 1 calc R U
C10 C 0.1684(2) 0.1535(3) 0.76911(19) 0.0175(4) Uani 1 1 d . .
H10A H 0.1008 0.0540 0.7170 0.021 Uiso 1 1 calc R U
H10B H 0.1978 0.1034 0.8555 0.021 Uiso 1 1 calc R U
C11 C 0.0468(2) 0.6443(4) 0.6075(2) 0.0208(5) Uani 1 1 d . .
H11A H -0.0189 0.6950 0.6446 0.031 Uiso 1 1 calc R U
H11B H 0.0095 0.6636 0.5179 0.031 Uiso 1 1 calc R U
H11C H 0.1324 0.7220 0.6414 0.031 Uiso 1 1 calc R U
C12 C -0.0300(2) 0.3664(3) 0.79353(18) 0.0154(4) Uani 1 1 d . .
H12 H -0.0633 0.5130 0.7844 0.019 Uiso 1 1 calc R U
C13 C -0.0084(2) 0.3049(3) 0.92561(19) 0.0176(4) Uani 1 1 d . .
H13 H -0.0864 0.3045 0.9504 0.021 Uiso 1 1 calc R U
C14 C -0.1446(2) 0.2373(3) 0.70465(19) 0.0159(4) Uani 1 1 d . .
C15 C -0.1687(2) 0.0345(4) 0.7337(2) 0.0202(4) Uani 1 1 d . .
H15 H -0.1133 -0.0247 0.8098 0.024 Uiso 1 1 calc R U
C16 C -0.2733(2) -0.0817(4) 0.6518(2) 0.0241(5) Uani 1 1 d . .
H16 H -0.2903 -0.2187 0.6732 0.029 Uiso 1 1 calc R U
C17 C -0.3528(2) 0.0014(4) 0.5392(2) 0.0252(5) Uani 1 1 d . .
H17 H -0.4230 -0.0792 0.4828 0.030 Uiso 1 1 calc R U
C18 C -0.3294(2) 0.2025(4) 0.5096(2) 0.0236(5) Uani 1 1 d . .
H18 H -0.3835 0.2600 0.4325 0.028 Uiso 1 1 calc R U
C19 C -0.2270(2) 0.3205(4) 0.59192(19) 0.0189(4) Uani 1 1 d . .
H19 H -0.2129 0.4593 0.5714 0.023 Uiso 1 1 calc R U
O1 O 0.07237(14) 0.4292(2) 0.63487(13) 0.0164(3) Uani 1 1 d . .
O2 O 0.17196(15) 0.6587(3) 0.89812(14) 0.0221(4) Uani 1 1 d . .
O3 O 0.09907(15) 0.2562(3) 1.00215(14) 0.0230(4) Uani 1 1 d . .
loop_
_atom_site_aniso_label
_atom_site_aniso_U_11
_atom_site_aniso_U_22
_atom_site_aniso_U_33
_atom_site_aniso_U_23
_atom_site_aniso_U_13
_atom_site_aniso_U_12
C1 0.0139(9) 0.0152(10) 0.0140(9) 0.0005(8) 0.0046(7) -0.0002(8)
C2 0.0165(9) 0.0161(10) 0.0134(9) 0.0009(8) 0.0062(8) 0.0001(9)
C3 0.0151(10) 0.0196(11) 0.0136(9) 0.0020(8) 0.0039(7) 0.0007(8)
C4 0.0180(10) 0.0209(11) 0.0170(9) -0.0012(9) 0.0065(8) -0.0004(9)
C5 0.0167(10) 0.0270(11) 0.0183(9) -0.0003(9) 0.0030(8) -0.0031(9)
C6 0.0132(9) 0.0314(13) 0.0216(11) 0.0037(9) 0.0069(8) 0.0021(9)
C7 0.0185(10) 0.0248(12) 0.0189(9) 0.0017(9) 0.0074(8) 0.0055(9)
C8 0.0167(10) 0.0195(10) 0.0146(9) 0.0025(8) 0.0048(7) 0.0029(8)
C9 0.0186(10) 0.0168(10) 0.0219(10) -0.0011(9) 0.0078(8) 0.0043(9)
C10 0.0179(10) 0.0158(10) 0.0195(10) -0.0006(9) 0.0071(8) 0.0003(8)
C11 0.0213(11) 0.0189(11) 0.0233(10) 0.0049(10) 0.0090(9) 0.0017(9)
C12 0.0148(10) 0.0154(10) 0.0164(10) -0.0002(8) 0.0057(7) 0.0016(8)
C13 0.0169(10) 0.0187(11) 0.0190(10) -0.0024(8) 0.0082(8) -0.0026(8)
C14 0.0122(9) 0.0200(10) 0.0172(10) -0.0027(8) 0.0074(8) 0.0010(8)
C15 0.0188(10) 0.0212(11) 0.0216(10) 0.0019(9) 0.0082(8) 0.0007(9)
C16 0.0236(11) 0.0202(11) 0.0319(12) -0.0045(9) 0.0140(9) -0.0053(9)
C17 0.0178(10) 0.0337(13) 0.0255(11) -0.0115(10) 0.0091(9) -0.0077(9)
C18 0.0165(10) 0.0359(14) 0.0181(10) -0.0013(9) 0.0054(8) 0.0001(9)
C19 0.0166(10) 0.0228(11) 0.0185(10) 0.0023(9) 0.0077(8) 0.0012(8)
O1 0.0189(7) 0.0161(7) 0.0147(7) 0.0011(6) 0.0066(5) -0.0004(6)
O2 0.0195(8) 0.0226(8) 0.0271(8) -0.0088(7) 0.0119(6) -0.0029(6)
O3 0.0183(7) 0.0326(9) 0.0169(7) 0.0012(7) 0.0043(6) 0.0017(7)
loop_
_atom_type_symbol
_atom_type_description
_atom_type_scat_dispersion_real
_atom_type_scat_dispersion_imag
_atom_type_scat_source
C C 0.0181 0.0091 'International Tables Vol C Tables 4.2.6.8 and 6.1.1.4'
H H 0.0000 0.0000 'International Tables Vol C Tables 4.2.6.8 and 6.1.1.4'
O O 0.0492 0.0322 'International Tables Vol C Tables 4.2.6.8 and 6.1.1.4'
loop_
_geom_angle_atom_site_label_1
_geom_angle_atom_site_label_2
_geom_angle_atom_site_label_3
_geom_angle
O1 C1 C10 104.72(16)
O1 C1 C2 107.25(16)
C10 C1 C2 109.99(16)
O1 C1 C12 109.96(15)
C10 C1 C12 114.01(16)
C2 C1 C12 110.56(16)
O2 C2 C3 121.98(19)
O2 C2 C1 121.55(18)
C3 C2 C1 116.29(17)
C4 C3 C8 120.93(19)
C4 C3 C2 118.14(18)
C8 C3 C2 120.92(18)
C5 C4 C3 120.2(2)
C5 C4 H4 119.9
C3 C4 H4 119.9
C4 C5 C6 119.0(2)
C4 C5 H5 120.5
C6 C5 H5 120.5
C7 C6 C5 121.10(19)
C7 C6 H6 119.5
C5 C6 H6 119.5
C6 C7 C8 120.8(2)
C6 C7 H7 119.6
C8 C7 H7 119.6
C7 C8 C3 117.9(2)
C7 C8 C9 120.49(19)
C3 C8 C9 121.62(18)
C8 C9 C10 113.24(17)
C8 C9 H9A 108.9
C10 C9 H9A 108.9
C8 C9 H9B 108.9
C10 C9 H9B 108.9
H9A C9 H9B 107.7
C1 C10 C9 110.80(17)
C1 C10 H10A 109.5
C9 C10 H10A 109.5
C1 C10 H10B 109.5
C9 C10 H10B 109.5
H10A C10 H10B 108.1
O1 C11 H11A 109.5
O1 C11 H11B 109.5
H11A C11 H11B 109.5
O1 C11 H11C 109.5
H11A C11 H11C 109.5
H11B C11 H11C 109.5
C13 C12 C14 110.17(17)
C13 C12 C1 113.90(16)
C14 C12 C1 113.23(16)
C13 C12 H12 106.3
C14 C12 H12 106.3
C1 C12 H12 106.3
O3 C13 C12 125.80(19)
O3 C13 H13 117.1
C12 C13 H13 117.1
C15 C14 C19 118.7(2)
C15 C14 C12 120.95(19)
C19 C14 C12 120.38(19)
C16 C15 C14 120.4(2)
C16 C15 H15 119.8
C14 C15 H15 119.8
C17 C16 C15 120.4(2)
C17 C16 H16 119.8
C15 C16 H16 119.8
C18 C17 C16 119.6(2)
C18 C17 H17 120.2
C16 C17 H17 120.2
C17 C18 C19 120.3(2)
C17 C18 H18 119.9
C19 C18 H18 119.9
C18 C19 C14 120.7(2)
C18 C19 H19 119.7
C14 C19 H19 119.7
C11 O1 C1 117.23(16)
loop_
_geom_bond_atom_site_label_1
_geom_bond_atom_site_label_2
_geom_bond_distance
C1 O1 1.437(2)
C1 C10 1.524(3)
C1 C2 1.539(3)
C1 C12 1.549(3)
C2 O2 1.214(3)
C2 C3 1.490(3)
C3 C4 1.398(3)
C3 C8 1.403(3)
C4 C5 1.384(3)
C4 H4 0.9500
C5 C6 1.393(3)
C5 H5 0.9500
C6 C7 1.380(3)
C6 H6 0.9500
C7 C8 1.400(3)
C7 H7 0.9500
C8 C9 1.507(3)
C9 C10 1.528(3)
C9 H9A 0.9900
C9 H9B 0.9900
C10 H10A 0.9900
C10 H10B 0.9900
C11 O1 1.427(3)
C11 H11A 0.9800
C11 H11B 0.9800
C11 H11C 0.9800
C12 C13 1.514(3)
C12 C14 1.527(3)
C12 H12 1.0000
C13 O3 1.207(3)
C13 H13 0.9500
C14 C15 1.394(3)
C14 C19 1.397(3)
C15 C16 1.392(3)
C15 H15 0.9500
C16 C17 1.386(3)
C16 H16 0.9500
C17 C18 1.384(4)
C17 H17 0.9500
C18 C19 1.387(3)
C18 H18 0.9500
C19 H19 0.9500
