#------------------------------------------------------------------------------
#$Date: 2016-03-22 22:03:50 +0200 (Tue, 22 Mar 2016) $
#$Revision: 179031 $
#$URL: svn://www.crystallography.net/cod/cif/4/12/29/4122934.cif $
#------------------------------------------------------------------------------
#
# This file is available in the Crystallography Open Database (COD),
# http://www.crystallography.net/
#
# All data on this site have been placed in the public domain by the
# contributors.
#
data_4122934
loop_
_publ_author_name
'Li, Jian'
'Yang, Peng'
'Yao, Ming'
'Deng, Jun'
'Li, Ang'
_publ_section_title
;
 Total Synthesis of Rubriflordilactone A.
;
_journal_name_full               'Journal of the American Chemical Society'
_journal_page_first              141113160240003
_journal_paper_doi               10.1021/ja5092563
_journal_year                    2014
_chemical_formula_sum            'C17 H17 Br O3'
_chemical_formula_weight         349.21
_chemical_name_systematic
; 
 ? 
;
_space_group_crystal_system      triclinic
_space_group_IT_number           2
_space_group_name_Hall           '-P 1'
_space_group_name_H-M_alt        'P -1'
_symmetry_space_group_name_Hall  '-P 1'
_symmetry_space_group_name_H-M   'P -1'
_atom_sites_solution_hydrogens   geom
_audit_creation_method           SHELXL-2013
_cell_angle_alpha                104.136(4)
_cell_angle_beta                 94.884(5)
_cell_angle_gamma                93.828(5)
_cell_formula_units_Z            2
_cell_length_a                   6.7558(15)
_cell_length_b                   8.971(2)
_cell_length_c                   12.667(3)
_cell_measurement_reflns_used    1300
_cell_measurement_temperature    293(2)
_cell_measurement_theta_max      44.318
_cell_measurement_theta_min      6.077
_cell_volume                     738.7(3)
_computing_cell_refinement       'Bruker SMART'
_computing_data_collection       'Bruker SMART'
_computing_data_reduction        'Bruker SHELXTL'
_computing_molecular_graphics    'Bruker SHELXTL'
_computing_publication_material  'Bruker SHELXTL'
_computing_structure_refinement  'SHELXL-2013 (Sheldrick, 2013)'
_computing_structure_solution    'Bruker SHELXTL'
_diffrn_ambient_temperature      293(2)
_diffrn_measured_fraction_theta_full 1.009
_diffrn_measured_fraction_theta_max 1.011
_diffrn_measurement_device_type  'CCD area detector'
_diffrn_measurement_method       'phi and omega scans'
_diffrn_radiation_type           MoK\a
_diffrn_radiation_wavelength     0.71073
_diffrn_reflns_av_R_equivalents  0.0252
_diffrn_reflns_av_unetI/netI     0.0538
_diffrn_reflns_Laue_measured_fraction_full 1.009
_diffrn_reflns_Laue_measured_fraction_max 1.011
_diffrn_reflns_limit_h_max       7
_diffrn_reflns_limit_h_min       -8
_diffrn_reflns_limit_k_max       10
_diffrn_reflns_limit_k_min       -9
_diffrn_reflns_limit_l_max       15
_diffrn_reflns_limit_l_min       -15
_diffrn_reflns_number            4252
_diffrn_reflns_point_group_measured_fraction_full 1.009
_diffrn_reflns_point_group_measured_fraction_max 1.011
_diffrn_reflns_theta_full        25.242
_diffrn_reflns_theta_max         25.499
_diffrn_reflns_theta_min         2.351
_exptl_absorpt_coefficient_mu    2.790
_exptl_absorpt_correction_T_max  0.7457
_exptl_absorpt_correction_T_min  0.6047
_exptl_absorpt_correction_type   multi-scan
_exptl_absorpt_process_details   sadabs
_exptl_crystal_colour            colorless
_exptl_crystal_density_diffrn    1.570
_exptl_crystal_description       prismatic
_exptl_crystal_F_000             356
_exptl_crystal_size_max          0.176
_exptl_crystal_size_mid          0.145
_exptl_crystal_size_min          0.113
_refine_diff_density_max         1.109
_refine_diff_density_min         -0.355
_refine_diff_density_rms         0.118
_refine_ls_extinction_method     none
_refine_ls_goodness_of_fit_ref   1.039
_refine_ls_hydrogen_treatment    constr
_refine_ls_matrix_type           full
_refine_ls_number_parameters     193
_refine_ls_number_reflns         2711
_refine_ls_number_restraints     0
_refine_ls_restrained_S_all      1.039
_refine_ls_R_factor_all          0.0740
_refine_ls_R_factor_gt           0.0608
_refine_ls_shift/su_max          0.000
_refine_ls_shift/su_mean         0.000
_refine_ls_structure_factor_coef Fsqd
_refine_ls_weighting_details
'w=1/[\s^2^(Fo^2^)+(0.0961P)^2^+2.0348P] where P=(Fo^2^+2Fc^2^)/3'
_refine_ls_weighting_scheme      calc
_refine_ls_wR_factor_gt          0.1748
_refine_ls_wR_factor_ref         0.1835
_reflns_Friedel_coverage         0.000
_reflns_number_gt                2184
_reflns_number_total             2711
_reflns_threshold_expression     'I > 2\s(I)'
_cod_data_source_file            ja5092563_si_002.cif
_cod_data_source_block           cd214602
_cod_database_code               4122934
#BEGIN Tags that were not found in dictionaries:
_shelx_space_group_comment
; 
The symmetry employed for this shelxl refinement is uniquely defined 
by the following loop, which should always be used as a source of 
symmetry information in preference to the above space-group names. 
They are only intended as comments. 
;
_shelxl_version_number           2013-4
_shelx_res_file
; 
TITL cd214602 P-1 
CELL  0.71073    6.7558    8.9710   12.6670   104.136    94.884    93.828 
ZERR  2           0.0015    0.0020    0.0030     0.004     0.005     0.005 
LATT 1 
SFAC C  H  O  Br 
UNIT 34 34 6 2 
omit 0 0 1 
OMIT  -3   3   4 
OMIT      1  -5   4 
OMIT      1  -2   2 
OMIT     -1   2   4 
OMIT  -3.00  51.00 
L.S. 10 
ACTA 
BOND $H 
FMAP 2 
PLAN 0 
HTAB C12 Br1_$2 
HTAB C10 O3_$1 
HTAB C12 Br1_$2 
HTAB C10 O3_$1 
HTAB C12 Br1_$2 
HTAB C10 O3_$1 
HTAB C12 Br1_$2 
EQIV $2 -x+1, -y+1, -z+1 
HTAB C10 O3_$1 
EQIV $1 x-1, y, z 
HTAB C12 Br1_$2 
EQIV $2 -x+1, -y+1, -z+1 
HTAB C10 O3_$1 
EQIV $1 x-1, y, z 
twin -1 0 0 0 -1 0 0.382 0.709 1 
conf 
htab 
mpla c1 > c6 
wpdb -1 
CONF 
HTAB C10 O3_$1 
HTAB C12 Br1_$2 
HTAB C10 O3_$1 
HTAB C12 Br1_$2 
HTAB C10 O3_$1 
HTAB C12 Br1_$2 
WGHT    0.096100    2.034800 
BASF   0.00768 
FVAR       0.21098 
BR1   4    0.366998    0.715076    0.301891    11.00000    0.06160    0.05660 = 
         0.03875    0.00828   -0.00597    0.00375 
O1    3    0.786933    0.895975    0.760680    11.00000    0.03152    0.05959 = 
         0.04009    0.01799    0.00087   -0.00585 
O2    3    0.992485    0.753925    0.903566    11.00000    0.03377    0.06402 = 
         0.04498    0.02254    0.00678    0.00869 
O3    3    1.208683    0.746941    1.046009    11.00000    0.03695    0.08428 = 
         0.05372    0.01896   -0.00707    0.00217 
C1    1    0.422036    0.707433    0.526667    11.00000    0.03542    0.03984 = 
         0.03911    0.01019    0.00025    0.00797 
C2    1    0.506436    0.756402    0.443959    11.00000    0.04107    0.04902 = 
         0.03635    0.01005   -0.00022    0.00951 
C3    1    0.688077    0.844950    0.466986    11.00000    0.04590    0.05633 = 
         0.04043    0.02219    0.01028    0.00274 
AFIX  43 
H3    2    0.746219    0.874613    0.410454    11.00000   -1.20000 
AFIX   0 
C4    1    0.784600    0.890110    0.571073    11.00000    0.03451    0.05604 = 
         0.04627    0.01807    0.00872   -0.00189 
AFIX  43 
H4    2    0.903854    0.953028    0.585497    11.00000   -1.20000 
AFIX   0 
C5    1    0.700896    0.840076    0.655031    11.00000    0.03005    0.04455 = 
         0.03398    0.01275    0.00247    0.00526 
C6    1    0.525418    0.748109    0.630695    11.00000    0.03071    0.03674 = 
         0.04226    0.01404    0.00794    0.00394 
C7    1    0.408121    0.695704    0.711744    11.00000    0.03058    0.03965 = 
         0.03983    0.01698    0.00764    0.00381 
AFIX  13 
H7    2    0.454476    0.598308    0.721621    11.00000   -1.20000 
AFIX   0 
C8    1    0.197373    0.663747    0.653540    11.00000    0.03345    0.06340 = 
         0.05456    0.01965    0.00832   -0.00328 
AFIX  23 
H8A   2    0.124174    0.754279    0.672723    11.00000   -1.20000 
H8B   2    0.125875    0.578683    0.673130    11.00000   -1.20000 
AFIX   0 
C9    1    0.223439    0.622546    0.531039    11.00000    0.03893    0.05086 = 
         0.04990    0.01027   -0.00192    0.00129 
AFIX  23 
H9A   2    0.226206    0.512070    0.502829    11.00000   -1.20000 
H9B   2    0.116981    0.657790    0.489527    11.00000   -1.20000 
AFIX   0 
C10   1    0.458153    0.821765    0.821659    11.00000    0.03254    0.05244 = 
         0.03862    0.01723    0.00731    0.00633 
AFIX  13 
H10   2    0.405480    0.782583    0.880420    11.00000   -1.20000 
AFIX   0 
C11   1    0.686881    0.850550    0.845583    11.00000    0.04298    0.04179 = 
         0.03221    0.01226    0.00234    0.00248 
AFIX  13 
H11   2    0.715354    0.935515    0.911689    11.00000   -1.20000 
AFIX   0 
C12   1    0.784308    0.711379    0.869831    11.00000    0.03648    0.04211 = 
         0.03807    0.00693    0.00249    0.00094 
AFIX  13 
H12   2    0.766635    0.624913    0.804352    11.00000   -1.20000 
AFIX   0 
C13   1    0.710444    0.661100    0.964187    11.00000    0.03430    0.05167 = 
         0.06345    0.02514    0.00039   -0.00031 
AFIX  43 
H13   2    0.578924    0.626095    0.967404    11.00000   -1.20000 
AFIX   0 
C14   1    0.857193    0.672893    1.043003    11.00000    0.04200    0.04514 = 
         0.04731    0.01823    0.01095    0.00933 
C15   1    1.040910    0.726942    1.003846    11.00000    0.03572    0.04695 = 
         0.03977    0.01161    0.00341    0.00190 
C16   1    0.856323    0.640992    1.152087    11.00000    0.06002    0.08730 = 
         0.05236    0.03247    0.01915    0.02294 
AFIX 137 
H16A  2    0.722604    0.609682    1.163161    11.00000   -1.50000 
H16B  2    0.905602    0.732620    1.207547    11.00000   -1.50000 
H16C  2    0.940197    0.559959    1.156391    11.00000   -1.50000 
AFIX   0 
C17   1    0.369657    0.972485    0.819521    11.00000    0.04552    0.05775 = 
         0.05307    0.01340    0.01346    0.01142 
AFIX 137 
H17A  2    0.412329    1.047886    0.887044    11.00000   -1.50000 
H17B  2    0.226722    0.955700    0.810595    11.00000   -1.50000 
H17C  2    0.414017    1.009079    0.759573    11.00000   -1.50000 
AFIX   0 
HKLF 4 
  
REM  cd214602 P-1 
REM R1 =  0.0608 for    2184 Fo > 4sig(Fo)  and  0.0740 for all    2711 data 
REM    193 parameters refined using      0 restraints 
  
END 
  
WGHT      0.0959      2.0226 
  
REM Instructions for potential hydrogen bonds 
HTAB C10 O3_$1 
HTAB C12 Br1_$2 
  
REM Highest difference peak  1.109,  deepest hole -0.355,  1-sigma level  0.118 
Q1    1   1.0089  0.9866  0.6976  11.00000  0.05    1.11 
Q2    1   0.9553  0.9949  0.5797  11.00000  0.05    1.04 
Q3    1   0.2577  0.5847  0.7005  11.00000  0.05    0.92 
Q4    1   0.2453  0.6550  0.3164  11.00000  0.05    0.63 
Q5    1   0.4539  0.7508  0.3571  11.00000  0.05    0.50 
Q6    1   0.8689  0.8830  0.6997  11.00000  0.05    0.49 
Q7    1   0.4597  0.7143  0.6798  11.00000  0.05    0.43 
Q8    1   0.7638  0.7498  1.0354  11.00000  0.05    0.42 
Q9    1   0.8825  0.7230  0.8960  11.00000  0.05    0.39 
Q10   1   0.4642  0.7416  0.7782  11.00000  0.05    0.39 
Q11   1   0.3712  0.6691  0.7110  11.00000  0.05    0.39 
Q12   1   0.8774  0.6396  1.0860  11.00000  0.05    0.35 
Q13   1   1.0060  0.8359  0.9563  11.00000  0.05    0.35 
Q14   1   0.7447  0.8458  0.6083  11.00000  0.05    0.34 
Q15   1   0.4349  0.6946  0.4655  11.00000  0.05    0.32 
Q16   1   0.7095  0.8825  0.5264  11.00000  0.05    0.32 
Q17   1   0.9756  1.0555  0.8646  11.00000  0.05    0.32 
Q18   1   0.7287  0.6950  0.9142  11.00000  0.05    0.31 
Q19   1   1.1209  0.5623  1.2197  11.00000  0.05    0.31 
Q20   1   0.6518  0.9826  0.9818  11.00000  0.05    0.31 
;
_shelx_res_checksum              72053
_shelx_hkl_file
; 
  -1   0   0  159.85    5.99 
  -2   0   0   59.66    2.29 
  -3   0   0   10.85    0.53 
  -4   0   0    1.59    0.22 
  -5   0   0   25.26    1.15 
  -6   0   0    3.31    0.42 
  -7   0   0    4.63    0.69 
  -7   0   0    4.72    0.52 
  -8   0   0    0.21    0.47 
  -8   1   0   -0.22    0.46 
  -7   1   0    1.35    0.47 
  -6   1   0   22.48    1.07 
  -6   1   0   21.94    1.32 
  -5   1   0    2.78    0.46 
  -5   1   0    3.64    0.34 
  -4   1   0   30.42    1.14 
  -4   1   0   21.26    1.27 
  -3   1   0   77.35    3.13 
  -3   1   0   69.45    2.80 
  -2   1   0  126.03    5.25 
  -2   1   0  130.19    4.82 
  -1   1   0   31.13    1.19 
  -1   1   0   30.59    1.32 
   0   1   0   -0.81    0.05 
   0   1   0   -0.61    0.08 
   1   1   0    2.24    0.15 
   1   1   0    2.58    0.17 
   2   1   0  171.39    6.47 
  -3  -1   0  129.15    4.95 
  -4  -1   0    0.20    0.16 
  -5  -1   0   10.42    0.63 
  -6  -1   0   27.77    1.34 
  -7  -1   0    2.77    0.45 
  -8  -1   0    0.79    0.53 
  -8   2   0    1.21    0.58 
  -7   2   0    0.33    0.44 
  -6   2   0    1.77    0.46 
  -5   2   0    8.85    0.51 
  -5   2   0    7.84    0.70 
  -4   2   0    4.05    0.44 
  -4   2   0    4.14    0.30 
  -3   2   0   29.14    1.17 
  -3   2   0   28.43    1.36 
  -2   2   0   89.74    3.74 
  -2   2   0   89.71    3.41 
  -1   2   0  524.60   19.44 
  -1   2   0  517.60   20.96 
   0   2   0  904.45   37.39 
   0   2   0  962.26   34.75 
   1   2   0   14.04    0.68 
   1   2   0   14.56    0.63 
   2   2   0    9.85    0.50 
   3   2   0    4.46    0.34 
  -5  -2   0    4.71    0.46 
  -6  -2   0   17.28    0.98 
  -7  -2   0    1.15    0.40 
  -8  -2   0   -0.55    0.31 
  -8   3   0    1.83    0.66 
  -7   3   0    2.35    0.62 
  -6   3   0    7.19    0.78 
  -5   3   0    2.33    0.27 
  -5   3   0    2.78    0.50 
  -4   3   0   28.86    1.20 
  -4   3   0   27.56    1.43 
  -3   3   0   13.98    0.63 
  -3   3   0   13.46    0.79 
  -2   3   0   42.57    1.94 
  -2   3   0   44.37    1.71 
  -1   3   0   90.48    3.83 
  -1   3   0   92.06    3.48 
   0   3   0  152.30    6.21 
   0   3   0  151.35    5.73 
   1   3   0  162.74    6.06 
   1   3   0  156.91    6.53 
   2   3   0   31.10    1.40 
   2   3   0   30.58    1.31 
   3   3   0    1.90    0.26 
   4   3   0   17.02    0.89 
  -5  -3   0   27.22    1.33 
  -6  -3   0    7.94    0.67 
  -7  -3   0    0.21    0.37 
  -8  -3   0    0.52    0.44 
  -8   4   0    0.85    0.61 
  -7   4   0    0.70    0.52 
  -6   4   0    2.39    0.57 
  -5   4   0   26.95    1.49 
  -4   4   0   15.65    0.71 
  -4   4   0   14.64    0.93 
  -3   4   0    0.46    0.12 
  -3   4   0    0.13    0.21 
  -2   4   0  330.86   12.30 
  -2   4   0  325.82   13.37 
  -1   4   0   86.22    3.32 
  -1   4   0   86.88    3.69 
   0   4   0   34.27    1.51 
   0   4   0   31.41    1.35 
   1   4   0    0.70    0.18 
   1   4   0    0.75    0.16 
   2   4   0    3.09    0.30 
   2   4   0    3.49    0.35 
   3   4   0   46.93    1.98 
   4   4   0    0.15    0.20 
  -5  -4   0    1.05    0.34 
  -6  -4   0    7.35    0.68 
  -7  -4   0    1.44    0.47 
  -8  -4   0    2.63    0.59 
  -8   5   0    1.06    0.67 
  -7   5   0    1.33    0.59 
  -6   5   0    0.31    0.42 
  -5   5   0   -0.33    0.32 
  -4   5   0    3.77    0.54 
  -3   5   0    8.06    0.69 
  -3   5   0    8.08    0.43 
  -2   5   0   29.53    1.24 
  -2   5   0   30.50    1.52 
  -1   5   0   12.39    0.60 
  -1   5   0   11.81    0.76 
   0   5   0   89.47    3.39 
   0   5   0   83.89    3.71 
   1   5   0   80.29    3.14 
   1   5   0   78.17    3.40 
   2   5   0    1.08    0.24 
   2   5   0    1.15    0.22 
   3   5   0    3.24    0.42 
   3   5   0    2.56    0.36 
   4   5   0   28.30    1.38 
  -5  -5   0   20.84    1.21 
  -6  -5   0    0.32    0.35 
  -7  -5   0    0.91    0.45 
  -8   6   0   -0.18    0.44 
  -7   6   0    0.51    0.52 
  -6   6   0    0.70    0.49 
  -5   6   0   11.38    0.96 
  -4   6   0    0.72    0.41 
  -3   6   0   29.24    1.56 
  -3   6   0   27.78    1.19 
  -2   6   0   56.81    2.63 
  -2   6   0   55.36    2.23 
  -1   6   0    2.27    0.41 
  -1   6   0    2.16    0.25 
   0   6   0    1.06    0.27 
   0   6   0    0.69    0.19 
   1   6   0    2.92    0.32 
   1   6   0    3.13    0.40 
   2   6   0   13.65    0.79 
   2   6   0   15.39    0.89 
   3   6   0   14.99    0.90 
   3   6   0   13.26    0.82 
   4   6   0    3.13    0.45 
  -6  -6   0    1.33    0.43 
  -7  -6   0    3.24    0.60 
  -7   7   0    0.23    0.51 
  -6   7   0    0.35    0.49 
  -5   7   0    0.53    0.44 
  -4   7   0    1.36    0.49 
  -3   7   0    8.97    0.86 
  -2   7   0    0.56    0.37 
  -2   7   0    0.39    0.16 
  -1   7   0   13.72    0.92 
  -1   7   0   12.15    0.68 
   0   7   0   33.93    1.53 
   0   7   0   36.11    1.77 
   1   7   0   11.65    0.80 
   1   7   0   11.85    0.70 
   2   7   0    0.43    0.25 
   2   7   0    0.56    0.30 
   3   7   0   15.27    1.01 
   3   7   0   18.35    0.99 
   4   7   0   12.82    0.87 
   5   7   0    1.42    0.42 
  -6  -7   0   -0.10    0.37 
  -7   8   0   -0.30    0.42 
  -6   8   0    0.37    0.55 
  -5   8   0    0.54    0.49 
  -4   8   0    4.84    0.73 
  -3   8   0    9.73    0.91 
  -2   8   0    7.55    0.50 
  -2   8   0    8.10    0.83 
  -1   8   0    2.20    0.48 
  -1   8   0    2.13    0.32 
   0   8   0    0.71    0.36 
   0   8   0    0.57    0.23 
   1   8   0   10.11    0.78 
   1   8   0   10.08    0.67 
   2   8   0    5.24    0.62 
   2   8   0    4.88    0.53 
   3   8   0    2.52    0.44 
   3   8   0    2.45    0.49 
   4   8   0    1.03    0.38 
  -5  -8   0    0.52    0.42 
  -6   9   0    0.27    0.47 
  -5   9   0    0.46    0.52 
  -4   9   0    1.38    0.54 
  -3   9   0    1.11    0.50 
  -2   9   0    4.74    0.74 
  -1   9   0    6.77    0.78 
  -1   9   0    6.93    0.55 
   0   9   0    5.42    0.73 
   0   9   0    6.40    0.54 
   1   9   0    1.62    0.45 
   1   9   0    0.98    0.32 
   2   9   0    2.11    0.44 
   2   9   0    2.31    0.50 
   3   9   0    7.64    0.75 
   3   9   0    6.42    0.76 
   4   9   0    0.57    0.35 
  -5  -9   0    0.25    0.35 
  -5  10   0    0.44    0.49 
  -4  10   0    0.49    0.49 
  -3  10   0    1.23    0.53 
  -2  10   0    1.67    0.52 
  -1  10   0   -0.27    0.36 
   0  10   0    1.04    0.49 
   0  10   0    0.46    0.28 
   1  10   0    2.25    0.45 
   1  10   0    2.23    0.53 
   2  10   0   -0.02    0.30 
   2  10   0    0.09    0.34 
   3  10   0    0.42    0.39 
   3  10   0   -0.06    0.34 
  -3  11   0    0.36    0.46 
  -2  11   0    3.58    0.72 
  -1  11   0    1.61    0.58 
   0  11   0    0.47    0.42 
   1  11   0    0.61    0.36 
   1  11   0    0.06    0.37 
   2  11   0    1.12    0.43 
   2  11   0    2.06    0.51 
   2  11  -1    0.06    0.34 
   2  11  -1    0.20    0.33 
   1  11  -1    1.49    0.52 
   1  11  -1    1.35    0.41 
   0  11  -1    0.71    0.34 
   0  11  -1    0.17    0.37 
  -1  11  -1    0.23    0.41 
  -2  11  -1    0.50    0.46 
  -3  11  -1    1.02    0.55 
   4  10  -1    1.06    0.45 
   3  10  -1    0.37    0.38 
   3  10  -1    0.03    0.33 
   2  10  -1    0.55    0.34 
   2  10  -1   -0.09    0.31 
   1  10  -1    0.04    0.27 
   1  10  -1   -0.12    0.32 
   0  10  -1    1.35    0.46 
   0  10  -1    0.70    0.32 
  -1  10  -1    2.68    0.57 
  -1  10  -1    3.09    0.43 
  -2  10  -1    1.23    0.49 
  -3  10  -1    0.27    0.42 
  -4  10  -1    0.39    0.48 
  -5  10  -1    0.67    0.49 
   5   9  -1    0.47    0.38 
   4   9  -1    2.73    0.55 
   3   9  -1    1.67    0.47 
   3   9  -1    1.82    0.42 
   2   9  -1    0.38    0.34 
   2   9  -1    0.35    0.29 
   1   9  -1    5.75    0.65 
   1   9  -1    4.43    0.50 
   0   9  -1    3.17    0.43 
   0   9  -1    2.75    0.53 
  -1   9  -1    1.37    0.44 
  -1   9  -1    0.93    0.28 
  -2   9  -1    4.05    0.67 
  -3   9  -1    5.48    0.77 
  -4   9  -1    0.63    0.49 
  -5   9  -1    2.33    0.62 
  -6   9  -1    0.34    0.51 
  -6  -8   1    0.76    0.47 
   5   8  -1   -0.24    0.28 
   4   8  -1    1.49    0.40 
   3   8  -1    0.25    0.30 
   3   8  -1    0.31    0.29 
   2   8  -1    3.29    0.48 
   2   8  -1    2.45    0.39 
   1   8  -1    3.06    0.48 
   1   8  -1    2.79    0.39 
   0   8  -1    5.63    0.49 
   0   8  -1    5.30    0.62 
  -1   8  -1    3.90    0.57 
  -1   8  -1    3.40    0.39 
  -2   8  -1    0.16    0.36 
  -2   8  -1    0.65    0.22 
  -3   8  -1    0.02    0.37 
  -4   8  -1    0.95    0.48 
  -5   8  -1    2.00    0.60 
  -6   8  -1    0.97    0.52 
  -7   8  -1    0.29    0.51 
  -6  -7   1    0.59    0.44 
   5   7  -1    2.44    0.47 
   4   7  -1    2.91    0.47 
   3   7  -1    0.57    0.28 
   3   7  -1    0.84    0.31 
   2   7  -1   10.50    0.75 
   2   7  -1    9.81    0.67 
   1   7  -1    9.56    0.61 
   1   7  -1    7.83    0.67 
   0   7  -1    2.08    0.40 
   0   7  -1    1.42    0.27 
  -1   7  -1    5.62    0.61 
  -1   7  -1    4.68    0.40 
  -2   7  -1   14.90    1.00 
  -2   7  -1   14.59    0.76 
  -3   7  -1    3.15    0.31 
  -3   7  -1    3.13    0.56 
  -4   7  -1    0.41    0.39 
  -5   7  -1    4.16    0.67 
  -6   7  -1    1.57    0.56 
  -7   7  -1   -0.24    0.45 
  -7  -6   1    1.13    0.48 
  -6  -6   1    0.23    0.39 
   5   6  -1    1.76    0.39 
   4   6  -1    2.99    0.44 
   3   6  -1    7.71    0.59 
   3   6  -1    7.06    0.60 
   2   6  -1    2.75    0.36 
   2   6  -1    1.90    0.30 
   1   6  -1   47.93    1.98 
   1   6  -1   45.37    2.12 
   0   6  -1   16.35    0.91 
   0   6  -1   15.98    0.81 
  -1   6  -1   20.22    0.98 
  -1   6  -1   22.94    1.19 
  -2   6  -1    8.60    0.49 
  -2   6  -1    7.81    0.71 
  -3   6  -1    2.24    0.25 
  -3   6  -1    1.70    0.43 
  -4   6  -1   27.20    1.51 
  -5   6  -1   -0.42    0.29 
  -6   6  -1    2.88    0.64 
  -7   6  -1    0.79    0.52 
  -8   6  -1    0.45    0.56 
  -7  -5   1    0.66    0.43 
  -6  -5   1    3.37    0.55 
   5   5  -1    6.72    0.61 
   4   5  -1    1.70    0.33 
   3   5  -1    4.46    0.46 
   3   5  -1    5.98    0.48 
   2   5  -1   81.82    3.25 
   2   5  -1   80.81    3.48 
   1   5  -1   27.81    1.26 
   1   5  -1   24.43    1.16 
   0   5  -1    3.77    0.31 
   0   5  -1    3.67    0.38 
  -1   5  -1   18.08    0.95 
  -1   5  -1   16.20    0.79 
  -2   5  -1   17.80    0.80 
  -2   5  -1   16.67    0.99 
  -3   5  -1    1.29    0.34 
  -3   5  -1    2.29    0.24 
  -4   5  -1    0.02    0.13 
  -4   5  -1    0.01    0.31 
  -5   5  -1    2.54    0.51 
  -6   5  -1    4.22    0.68 
  -7   5  -1   -0.72    0.39 
  -8   5  -1    0.68    0.52 
  -8  -4   1    1.57    0.50 
  -7  -4   1   -0.19    0.34 
  -6  -4   1    0.25    0.32 
   5   4  -1    3.42    0.44 
   4   4  -1   32.75    1.50 
   3   4  -1    3.06    0.33 
  -3  -4   1    4.07    0.29 
   2   4  -1   12.69    0.66 
   2   4  -1   12.46    0.69 
  -2  -4   1   12.61    0.60 
   1   4  -1   42.31    1.89 
   1   4  -1   44.22    1.77 
   0   4  -1   10.23    0.52 
   0   4  -1    9.86    0.57 
  -1   4  -1  186.78    6.99 
  -1   4  -1  182.85    7.59 
  -2   4  -1   21.87    0.98 
  -2   4  -1   23.73    1.15 
  -3   4  -1   25.91    1.30 
  -3   4  -1   25.50    1.10 
  -4   4  -1   29.00    1.54 
  -4   4  -1   31.80    1.33 
  -5   4  -1   15.86    0.81 
  -5   4  -1   16.21    1.05 
  -6   4  -1    9.52    0.88 
  -7   4  -1    0.81    0.52 
  -8   4  -1    0.07    0.56 
  -8  -3   1   -0.28    0.40 
  -7  -3   1    4.99    0.60 
  -6  -3   1    4.30    0.53 
   4   3  -1    1.51    0.27 
   3   3  -1   48.31    1.99 
   2   3  -1  245.57    9.25 
   2   3  -1  242.57    9.94 
  -2  -3   1  246.81   10.04 
   1   3  -1    6.16    0.37 
   1   3  -1    6.34    0.36 
  -1  -3   1    6.23    0.32 
   0   3  -1  121.65    4.94 
   0   3  -1  119.06    4.58 
  -1   3  -1    1.97    0.25 
  -1   3  -1    1.85    0.18 
  -2   3  -1    0.90    0.15 
  -2   3  -1    0.71    0.19 
  -3   3  -1    3.68    0.28 
  -3   3  -1    3.51    0.37 
  -4   3  -1   21.63    1.13 
  -4   3  -1   20.49    0.95 
  -5   3  -1    5.80    0.61 
  -5   3  -1    5.27    0.42 
  -6   3  -1    0.80    0.41 
  -7   3  -1    0.20    0.45 
  -8   3  -1    1.54    0.65 
  -7  -2   1    1.67    0.40 
  -6  -2   1    1.96    0.37 
  -5  -2   1    3.70    0.41 
   4   2  -1   69.01    2.77 
   3   2  -1    0.65    0.16 
   2   2  -1   69.08    2.69 
   1   2  -1  136.85    5.10 
   1   2  -1  133.83    5.47 
  -1  -2   1  133.32    5.53 
   0   2  -1  110.05    4.53 
   0   2  -1  112.52    4.21 
  -1   2  -1  479.34   19.35 
  -1   2  -1  483.44   17.98 
  -2   2  -1   98.94    3.80 
  -2   2  -1  100.33    4.13 
  -3   2  -1   41.40    1.85 
  -3   2  -1   40.65    1.65 
  -4   2  -1    4.40    0.33 
  -4   2  -1    3.94    0.45 
  -5   2  -1   19.69    1.14 
  -5   2  -1   19.03    0.92 
  -6   2  -1   13.03    0.73 
  -6   2  -1   12.89    0.96 
  -7   2  -1    2.47    0.60 
  -8   2  -1    0.25    0.50 
  -8  -1   1    2.54    0.63 
  -7  -1   1    7.53    0.64 
  -6  -1   1    4.38    0.45 
  -5  -1   1   12.23    0.68 
  -4  -1   1   51.87    2.12 
   3   1  -1  131.40    5.02 
   2   1  -1   88.79    3.39 
   1   1  -1    5.69    0.28 
   0   1  -1    1.91    0.12 
   0   1  -1    1.90    0.11 
   0  -1   1    2.04    0.13 
   0  -1   1    1.98    0.11 
  -1   1  -1   12.69    0.58 
  -1   1  -1   12.11    0.53 
  -2   1  -1   51.56    2.00 
  -3   1  -1    0.54    0.13 
  -4   1  -1   67.68    2.68 
  -5   1  -1    9.74    0.59 
  -6   1  -1    0.13    0.24 
  -6   1  -1   -0.01    0.35 
  -7   1  -1    0.61    0.41 
  -7   1  -1    0.21    0.30 
  -8   1  -1    1.16    0.58 
  -8   0   1    0.69    0.50 
  -7   0   1    1.40    0.49 
  -6   0   1   13.14    0.94 
  -6   0   1   12.96    0.72 
  -5   0   1    4.20    0.35 
  -4   0   1   21.44    0.95 
  -3   0   1    2.85    0.22 
   2   0  -1   56.35    2.16 
   1   0  -1  636.97   23.61 
  -1   0   1  628.46   25.36 
   0   0  -1    3.42    0.16 
   0   0   1    3.29    0.16 
  -1   0  -1    3.37    0.19 
  -2   0  -1   84.31    3.23 
  -3   0  -1    8.79    0.47 
  -4   0  -1    1.26    0.23 
  -5   0  -1   11.49    0.65 
  -6   0  -1    8.92    0.65 
  -7   0  -1    3.42    0.48 
  -8   0  -1    0.83    0.53 
  -9   1   1    0.75    0.60 
  -8   1   1    5.25    0.84 
  -7   1   1   10.29    0.94 
  -6   1   1    0.35    0.19 
  -6   1   1    0.24    0.35 
  -5   1   1    0.31    0.31 
  -5   1   1    0.70    0.20 
  -4   1   1  109.24    4.54 
  -4   1   1  104.92    4.08 
  -3   1   1   23.71    0.98 
  -3   1   1   25.61    1.18 
  -2   1   1   29.40    1.14 
  -2   1   1   29.71    1.32 
  -1   1   1    3.38    0.25 
   0   1   1    7.30    0.36 
   0   1   1    7.17    0.31 
   0   1   1    6.98    0.32 
  -1  -1  -1  264.80    9.78 
   1   1   1  257.48   10.52 
  -2  -1  -1    4.57    0.31 
  -3  -1  -1   43.24    1.77 
  -4  -1  -1   46.75    1.95 
  -5  -1  -1    7.63    0.57 
  -6  -1  -1    0.66    0.31 
  -7  -1  -1    2.17    0.46 
  -8  -1  -1    1.55    0.46 
  -8   2   1    0.32    0.56 
  -7   2   1    0.12    0.44 
  -6   2   1   14.06    1.02 
  -5   2   1    3.93    0.51 
  -5   2   1    4.36    0.32 
  -4   2   1    3.80    0.46 
  -4   2   1    4.58    0.29 
  -3   2   1   12.70    0.56 
  -3   2   1   12.86    0.74 
  -2   2   1  234.68    9.55 
  -2   2   1  235.03    8.79 
  -1   2   1 1000.00   36.69 
  -1   2   1  970.07   39.49 
   0   2   1  114.42    4.22 
   0   2   1  109.27    4.58 
   1   2   1  114.04    4.22 
   1   2   1  107.15    4.54 
   2   2   1   27.25    1.14 
   2   2   1   26.22    1.23 
  -3  -2  -1    0.27    0.16 
  -4  -2  -1    0.83    0.22 
  -5  -2  -1   19.87    1.05 
  -6  -2  -1    3.63    0.48 
  -7  -2  -1    1.45    0.43 
  -8  -2  -1    1.00    0.48 
  -8   3   1    1.69    0.66 
  -7   3   1    9.76    0.98 
  -6   3   1    0.51    0.40 
  -5   3   1    7.83    0.72 
  -4   3   1   24.44    1.29 
  -4   3   1   24.90    1.03 
  -3   3   1   11.85    0.75 
  -3   3   1   13.16    0.55 
  -2   3   1    1.72    0.12 
  -2   3   1    1.61    0.27 
  -1   3   1   35.92    1.41 
  -1   3   1   36.19    1.64 
   0   3   1   42.88    1.65 
   0   3   1   40.38    1.82 
   1   3   1   70.82    3.03 
   1   3   1   72.34    2.80 
   2   3   1    9.17    0.51 
   2   3   1    6.19    0.45 
   3   3   1   16.19    0.82 
  -4  -3  -1   15.27    0.85 
  -5  -3  -1   17.78    0.99 
  -6  -3  -1    0.46    0.34 
  -7  -3  -1    4.07    0.59 
  -8  -3  -1   -0.48    0.38 
  -8   4   1    0.40    0.61 
  -7   4   1    0.51    0.49 
  -6   4   1    1.80    0.51 
  -5   4   1    1.65    0.42 
  -4   4   1    3.62    0.50 
  -4   4   1    3.57    0.23 
  -3   4   1   69.40    3.12 
  -3   4   1   72.14    2.71 
  -2   4   1   46.70    2.17 
  -2   4   1   47.81    1.84 
  -1   4   1   67.52    2.61 
  -1   4   1   67.47    2.94 
   0   4   1   35.46    1.58 
   0   4   1   32.94    1.39 
   1   4   1   26.06    1.13 
   1   4   1   26.10    1.25 
   2   4   1    9.86    0.62 
   2   4   1    9.74    0.57 
   3   4   1    4.43    0.47 
  -4  -4  -1   -0.03    0.25 
  -5  -4  -1   10.95    0.77 
  -6  -4  -1    0.45    0.36 
  -7  -4  -1    0.19    0.38 
  -8   5   1   -0.02    0.62 
  -7   5   1    1.13    0.62 
  -6   5   1    5.14    0.76 
  -5   5   1    5.85    0.70 
  -4   5   1    3.32    0.53 
  -3   5   1    2.26    0.45 
  -3   5   1    3.00    0.21 
  -2   5   1    0.97    0.33 
  -2   5   1    1.11    0.15 
  -1   5   1  181.38    6.93 
  -1   5   1  184.89    7.62 
   0   5   1   23.30    1.03 
   0   5   1   23.87    1.20 
   2   5   1    8.68    0.56 
   2   5   1    8.52    0.60 
   3   5   1    8.72    0.61 
   3   5   1    8.89    0.65 
   4   5   1   12.02    0.77 
  -5  -5  -1    0.13    0.29 
  -6  -5  -1    3.30    0.56 
  -7  -5  -1    0.76    0.45 
  -8   6   1    0.02    0.62 
  -7   6   1    1.64    0.66 
  -6   6   1    2.42    0.59 
  -5   6   1    1.39    0.48 
  -4   6   1   18.82    1.22 
  -3   6   1   63.15    2.94 
  -2   6   1    9.76    0.51 
  -2   6   1    9.04    0.78 
  -1   6   1    3.71    0.52 
  -1   6   1    3.36    0.29 
   0   6   1    9.08    0.67 
   0   6   1    8.33    0.51 
   1   6   1    9.04    0.58 
   1   6   1   10.37    0.69 
   2   6   1    8.17    0.68 
   2   6   1    8.52    0.58 
   3   6   1    2.42    0.39 
   3   6   1    3.34    0.48 
   4   6   1    0.50    0.29 
  -5  -6  -1    5.64    0.64 
  -6  -6  -1    0.34    0.37 
  -7  -6  -1    0.29    0.43 
  -7   7   1    0.21    0.49 
  -6   7   1    1.76    0.60 
  -5   7   1    3.12    0.64 
  -4   7   1    2.86    0.59 
  -3   7   1    0.31    0.39 
  -2   7   1    3.60    0.62 
  -2   7   1    4.26    0.33 
  -1   7   1   49.66    2.06 
  -1   7   1   50.69    2.42 
   0   7   1    4.89    0.59 
   0   7   1    4.24    0.39 
   1   7   1    2.46    0.35 
   1   7   1    2.31    0.44 
   2   7   1    4.55    0.48 
   2   7   1    5.31    0.60 
   3   7   1    4.92    0.61 
   3   7   1    5.01    0.54 
   4   7   1    2.05    0.42 
  -5  -7  -1    1.79    0.45 
  -6  -7  -1    0.30    0.41 
  -6   8   1   -0.28    0.49 
  -5   8   1    3.85    0.69 
  -4   8   1    9.50    0.98 
  -3   8   1   11.43    1.02 
  -2   8   1    1.72    0.49 
  -1   8   1    0.09    0.34 
  -1   8   1    0.04    0.17 
   0   8   1    3.30    0.39 
   0   8   1    3.25    0.56 
   1   8   1    1.69    0.33 
   1   8   1    2.23    0.46 
   2   8   1    0.27    0.33 
   2   8   1    0.35    0.28 
   3   8   1    2.08    0.42 
   3   8   1    2.42    0.50 
   4   8   1    0.06    0.35 
  -5  -8  -1    1.25    0.44 
  -6   9   1    1.71    0.63 
  -5   9   1    0.96    0.55 
  -4   9   1    0.44    0.48 
  -3   9   1    2.54    0.62 
  -2   9   1    3.62    0.66 
  -1   9   1    6.10    0.78 
   0   9   1    0.07    0.23 
   0   9   1    0.06    0.38 
   1   9   1    2.93    0.43 
   1   9   1    2.98    0.56 
   2   9   1    5.40    0.60 
   2   9   1    4.33    0.66 
   3   9   1    0.76    0.42 
   3   9   1    0.15    0.31 
  -4  -9  -1   -0.34    0.34 
  -5  10   1    1.66    0.56 
  -4  10   1    2.23    0.62 
  -3  10   1    2.94    0.67 
  -2  10   1    0.11    0.41 
  -1  10   1    0.54    0.45 
   0  10   1    1.66    0.52 
   0  10   1    2.59    0.43 
   1  10   1   -0.47    0.31 
   1  10   1    0.21    0.30 
   2  10   1   -0.20    0.29 
   2  10   1   -0.36    0.36 
   3  10   1    1.31    0.43 
   3  10   1    1.34    0.47 
  -3  11   1    1.71    0.53 
  -2  11   1    0.47    0.43 
  -1  11   1   -0.16    0.43 
   0  11   1    0.74    0.43 
   1  11   1    1.12    0.40 
   1  11   1    1.60    0.52 
   2  11  -2    1.54    0.45 
   1  11  -2    0.21    0.31 
   1  11  -2    0.03    0.32 
   0  11  -2    0.28    0.37 
   0  11  -2    0.28    0.32 
  -1  11  -2    0.70    0.47 
  -2  11  -2    2.20    0.58 
  -3  11  -2    1.09    0.53 
  -4  11  -2    0.33    0.39 
   4  10  -2   -0.03    0.37 
   3  10  -2    0.10    0.26 
   3  10  -2   -0.08    0.31 
   2  10  -2    0.37    0.33 
   2  10  -2    0.04    0.31 
   1  10  -2    0.07    0.32 
   1  10  -2    0.27    0.29 
   0  10  -2    5.58    0.71 
   0  10  -2    5.58    0.59 
  -1  10  -2    1.65    0.49 
  -1  10  -2    1.88    0.39 
  -2  10  -2    0.58    0.42 
  -3  10  -2    0.92    0.50 
  -4  10  -2    1.43    0.56 
  -5  10  -2    0.20    0.42 
   5   9  -2    0.38    0.39 
   4   9  -2    0.80    0.40 
   3   9  -2    5.34    0.63 
   3   9  -2    6.22    0.67 
   2   9  -2    2.69    0.47 
   2   9  -2    3.25    0.48 
   1   9  -2    0.00    0.25 
   1   9  -2    0.00    0.28 
   0   9  -2    1.19    0.34 
   0   9  -2    1.63    0.43 
  -1   9  -2    6.09    0.71 
  -1   9  -2    6.19    0.55 
  -2   9  -2    4.33    0.66 
  -2   9  -2    3.30    0.41 
  -3   9  -2    0.40    0.41 
  -4   9  -2    1.71    0.58 
  -5   9  -2    0.35    0.46 
  -6   9  -2   -0.67    0.42 
   6   8  -2    0.30    0.34 
   5   8  -2    3.29    0.56 
   4   8  -2    0.34    0.33 
   3   8  -2    0.37    0.28 
   3   8  -2    0.19    0.26 
   2   8  -2    2.09    0.40 
   2   8  -2    2.14    0.42 
   1   8  -2   11.92    0.76 
   1   8  -2   11.76    0.82 
   0   8  -2   16.96    1.05 
   0   8  -2   17.24    0.94 
  -1   8  -2    0.13    0.20 
  -1   8  -2   -0.20    0.29 
  -2   8  -2    8.83    0.82 
  -2   8  -2    8.19    0.59 
  -3   8  -2    4.34    0.41 
  -3   8  -2    4.14    0.64 
  -4   8  -2    1.75    0.52 
  -5   8  -2   -0.11    0.40 
  -6   8  -2    2.47    0.65 
  -7   8  -2    2.15    0.62 
   6   7  -2    1.39    0.43 
   5   7  -2    0.14    0.34 
   4   7  -2    4.08    0.52 
   3   7  -2    9.46    0.64 
   3   7  -2    7.00    0.61 
   2   7  -2    4.57    0.49 
   2   7  -2    3.68    0.44 
   1   7  -2    3.12    0.41 
   1   7  -2    2.85    0.38 
   0   7  -2   10.30    0.64 
   0   7  -2   10.67    0.72 
  -1   7  -2   28.19    1.46 
  -1   7  -2   26.60    1.25 
  -2   7  -2    3.40    0.55 
  -2   7  -2    3.36    0.35 
  -3   7  -2    5.43    0.42 
  -3   7  -2    5.24    0.65 
  -4   7  -2    5.55    0.69 
  -5   7  -2    3.33    0.62 
  -6   7  -2    0.19    0.46 
  -7   7  -2   -0.04    0.48 
  -7  -6   2   -0.50    0.37 
   6   6  -2    0.58    0.34 
   5   6  -2    7.89    0.72 
   4   6  -2    0.59    0.27 
   3   6  -2    0.35    0.22 
   3   6  -2    0.21    0.24 
   2   6  -2   20.06    1.03 
   2   6  -2   20.53    1.05 
   1   6  -2   14.06    0.76 
   1   6  -2   13.50    0.78 
   0   6  -2    7.96    0.50 
   0   6  -2    7.38    0.56 
  -1   6  -2    5.22    0.41 
  -1   6  -2    6.61    0.56 
  -2   6  -2   22.24    1.02 
  -2   6  -2   21.90    1.21 
  -3   6  -2    5.45    0.60 
  -3   6  -2    5.48    0.42 
  -4   6  -2    0.08    0.32 
  -4   6  -2    0.20    0.16 
  -5   6  -2    0.84    0.43 
  -6   6  -2    4.48    0.72 
  -7   6  -2    3.40    0.73 
  -8   6  -2   -0.03    0.47 
  -7  -5   2    1.95    0.48 
   6   5  -2    0.75    0.33 
   5   5  -2    8.01    0.68 
   4   5  -2    8.55    0.63 
   3   5  -2   10.41    0.65 
  -3  -5   2   10.60    0.59 
   2   5  -2    3.38    0.34 
   2   5  -2    2.77    0.33 
  -2  -5   2    2.87    0.24 
   1   5  -2    0.78    0.19 
   1   5  -2    1.12    0.21 
   0   5  -2   56.49    2.48 
   0   5  -2   57.56    2.31 
  -1   5  -2    9.05    0.52 
  -1   5  -2    9.85    0.65 
  -2   5  -2    6.02    0.55 
  -2   5  -2    7.60    0.45 
  -3   5  -2   14.78    0.73 
  -3   5  -2   13.43    0.85 
  -4   5  -2   16.49    0.82 
  -4   5  -2   15.43    0.98 
  -5   5  -2   12.36    0.91 
  -6   5  -2    0.75    0.45 
  -7   5  -2    3.37    0.69 
  -8   5  -2    1.28    0.59 
  -8  -4   2    0.05    0.41 
  -7  -4   2   -0.22    0.35 
  -6  -4   2    4.03    0.56 
   5   4  -2   15.63    0.92 
   4   4  -2    0.06    0.19 
  -4  -4   2   -0.05    0.20 
   3   4  -2   11.88    0.65 
  -3  -4   2   10.98    0.60 
   2   4  -2   84.62    3.54 
   2   4  -2   86.63    3.34 
  -2  -4   2   82.49    3.53 
   1   4  -2   18.25    0.88 
   1   4  -2   18.65    0.85 
  -1  -4   2   18.34    0.84 
   0   4  -2    0.05    0.10 
   0   4  -2    0.07    0.12 
  -1   4  -2   90.07    3.78 
  -1   4  -2   89.27    3.48 
  -2   4  -2  165.13    6.36 
  -2   4  -2  168.97    6.89 
  -3   4  -2   13.65    0.81 
  -3   4  -2   14.36    0.71 
  -4   4  -2   21.72    1.01 
  -4   4  -2   20.28    1.16 
  -5   4  -2   12.99    0.96 
  -5   4  -2   15.19    0.80 
  -6   4  -2    3.72    0.63 
  -7   4  -2    1.73    0.58 
  -8   4  -2   -0.13    0.47 
  -8  -3   2    4.71    0.62 
  -7  -3   2    1.29    0.41 
  -6  -3   2    0.18    0.29 
   5   3  -2    7.48    0.57 
   4   3  -2    5.63    0.44 
   3   3  -2   63.25    2.54 
   2   3  -2    9.10    0.50 
   1   3  -2   44.26    1.82 
  -1  -3   2   46.44    1.94 
   0   3  -2   88.73    3.42 
  -1   3  -2    1.51    0.21 
  -1   3  -2    1.22    0.17 
  -2   3  -2    5.09    0.34 
  -2   3  -2    4.32    0.37 
  -3   3  -2   30.81    1.30 
  -3   3  -2   29.83    1.43 
  -4   3  -2   43.40    1.84 
  -4   3  -2   45.55    2.09 
  -5   3  -2   15.67    1.02 
  -5   3  -2   16.58    0.85 
  -6   3  -2    4.36    0.44 
  -6   3  -2    4.64    0.67 
  -7   3  -2    4.82    0.73 
  -8   3  -2    0.91    0.55 
  -8  -2   2    0.47    0.51 
  -7  -2   2    0.52    0.33 
  -6  -2   2    0.49    0.28 
   5   2  -2    8.03    0.54 
   4   2  -2   27.32    1.22 
   3   2  -2   32.67    1.36 
   2   2  -2   72.85    2.83 
   1   2  -2    3.32    0.20 
   1   2  -2    3.32    0.23 
  -1  -2   2    3.85    0.26 
   0   2  -2   12.61    0.59 
   0   2  -2   13.71    0.60 
   0  -2   2   12.55    0.62 
  -1   2  -2  288.10   11.61 
  -2   2  -2   68.25    2.85 
  -2   2  -2   67.05    2.64 
  -3   2  -2   11.73    0.60 
  -3   2  -2   11.84    0.70 
  -4   2  -2   45.30    2.13 
  -4   2  -2   46.77    1.90 
  -5   2  -2   20.39    1.21 
  -5   2  -2   21.30    1.01 
  -6   2  -2    0.25    0.26 
  -6   2  -2    0.37    0.35 
  -7   2  -2   -0.11    0.43 
  -8   2  -2   -0.06    0.49 
  -8  -1   2    1.91    0.56 
  -7  -1   2    0.31    0.30 
  -7  -1   2    0.12    0.44 
  -6  -1   2    0.92    0.29 
  -5  -1   2    9.55    0.58 
   4   1  -2   11.05    0.58 
   3   1  -2   33.26    1.36 
   2   1  -2  271.83   10.19 
   1   1  -2  197.63    7.44 
  -1  -1   2  199.37    8.15 
   0   1  -2    9.58    0.40 
   0   1  -2    9.23    0.42 
   0  -1   2    8.72    0.46 
  -1   1  -2    2.50    0.20 
  -2   1  -2   77.94    3.01 
  -3   1  -2  222.67    8.41 
  -4   1  -2    7.05    0.46 
  -5   1  -2    4.00    0.39 
  -6   1  -2    7.12    0.58 
  -7   1  -2    3.40    0.65 
  -7   1  -2    4.13    0.53 
  -8   1  -2    0.35    0.47 
  -8   0   2    0.68    0.53 
  -7   0   2    4.54    0.68 
  -6   0   2   -0.01    0.18 
  -6   0   2    0.15    0.33 
  -4   0   2   38.20    1.56 
  -4   0   2   38.18    1.77 
   3   0  -2  153.10    5.72 
  -3   0   2  149.94    6.23 
   2   0  -2   55.35    2.10 
  -2   0   2   54.58    2.31 
   1   0  -2   73.12    2.82 
  -1   0   2   75.67    3.05 
   0   0  -2   13.88    0.58 
   0   0   2   13.90    0.64 
   0   0   2   14.32    0.61 
  -1   0  -2  169.90    6.40 
  -2   0  -2   39.56    1.59 
  -3   0  -2    4.95    0.35 
  -4   0  -2   65.61    2.64 
  -5   0  -2   22.09    1.09 
  -6   0  -2    0.05    0.26 
  -7   0  -2    1.13    0.38 
  -8   0  -2    1.91    0.46 
  -8   0  -2    1.24    0.56 
  -9   1   2   -0.20    0.60 
  -8   1   2    0.72    0.53 
  -7   1   2    0.53    0.46 
  -6   1   2    0.77    0.42 
  -5   1   2   41.14    2.00 
  -5   1   2   42.73    1.71 
  -4   1   2    8.22    0.62 
  -4   1   2    8.14    0.41 
  -3   1   2    1.10    0.11 
  -3   1   2    1.40    0.24 
  -2   1   2  137.66    5.64 
  -1   1   2   75.58    3.14 
   0  -1  -2   80.49    3.05 
   0   1   2   80.49    3.31 
  -2  -1  -2  108.65    4.17 
  -3  -1  -2  152.46    5.84 
  -4  -1  -2    8.03    0.54 
  -5  -1  -2   15.42    0.87 
  -6  -1  -2    2.09    0.43 
  -7  -1  -2    1.49    0.43 
  -8  -1  -2    0.66    0.44 
  -8   2   2    0.29    0.53 
  -7   2   2    3.29    0.64 
  -6   2   2    2.84    0.55 
  -5   2   2    1.62    0.41 
  -4   2   2   28.19    1.41 
  -4   2   2   28.45    1.13 
  -3   2   2   95.14    4.02 
  -2   2   2   19.83    0.98 
   1  -2  -2  140.53    5.09 
  -1   2   2  130.42    5.58 
   0   2   2    5.31    0.28 
   0   2   2    4.71    0.34 
  -1  -2  -2   21.86    0.97 
   1   2   2   23.61    1.06 
  -2  -2  -2    0.59    0.16 
  -3  -2  -2   18.18    0.88 
  -4  -2  -2   37.48    1.66 
  -5  -2  -2    1.61    0.35 
  -6  -2  -2    0.09    0.31 
  -7  -2  -2    2.20    0.47 
  -8  -2  -2    2.39    0.56 
  -8   3   2    0.06    0.58 
  -7   3   2    3.79    0.71 
  -6   3   2    2.28    0.53 
  -5   3   2   29.08    1.56 
  -4   3   2    0.21    0.30 
  -3   3   2   23.03    1.19 
  -2   3   2   65.07    2.84 
  -1   3   2    1.68    0.13 
  -1   3   2    1.41    0.27 
   0   3   2   22.56    0.94 
   0   3   2   18.80    0.89 
   0   3   2   22.41    1.04 
   1   3   2   79.48    3.06 
   1   3   2   77.15    3.32 
  -2  -3  -2   44.71    2.02 
   2   3   2   53.71    2.19 
  -3  -3  -2   12.38    0.70 
  -4  -3  -2   13.92    0.81 
  -5  -3  -2   26.30    1.34 
  -6  -3  -2    3.40    0.52 
  -7  -3  -2    0.15    0.39 
  -8  -3  -2   -0.51    0.38 
  -8   4   2    0.20    0.60 
  -7   4   2    0.13    0.51 
  -6   4   2    0.16    0.43 
  -5   4   2    4.47    0.60 
  -4   4   2   23.12    1.28 
  -3   4   2   47.19    2.20 
  -2   4   2   23.58    0.95 
  -2   4   2   24.30    1.26 
  -1   4   2   62.98    2.43 
  -1   4   2   61.99    2.76 
   0   4   2   12.72    0.58 
   0   4   2   12.51    0.60 
   0   4   2   11.35    0.71 
   1   4   2   10.41    0.61 
   1   4   2    8.82    0.53 
   2   4   2    9.29    0.56 
   2   4   2   10.39    0.65 
  -3  -4  -2   35.82    1.61 
   3   4   2   35.39    1.73 
  -4  -4  -2   21.00    1.11 
  -5  -4  -2   -0.08    0.27 
  -6  -4  -2    0.16    0.33 
  -7  -4  -2    3.37    0.62 
  -8   5   2    0.71    0.66 
  -7   5   2    5.25    0.85 
  -6   5   2    2.05    0.57 
  -5   5   2    6.38    0.74 
  -4   5   2    7.64    0.73 
  -3   5   2    8.86    0.76 
  -2   5   2   29.63    1.12 
  -2   5   2   23.28    1.40 
  -1   5   2    4.08    0.48 
  -1   5   2    3.89    0.29 
   0   5   2    0.82    0.18 
   0   5   2    0.89    0.12 
   0   5   2    0.56    0.25 
   1   5   2   27.07    1.20 
   1   5   2   25.44    1.32 
   2   5   2    8.23    0.64 
   2   5   2    9.58    0.58 
  -3  -5  -2    0.92    0.31 
   3   5   2    0.65    0.29 
  -4  -5  -2    4.29    0.50 
  -5  -5  -2    5.76    0.62 
  -6  -5  -2    2.40    0.51 
  -7  -5  -2    0.09    0.41 
  -7   6   2   -0.31    0.56 
  -6   6   2    0.96    0.57 
  -5   6   2    2.93    0.63 
  -4   6   2    9.37    0.88 
  -3   6   2    1.36    0.49 
  -2   6   2    0.96    0.38 
  -2   6   2    0.89    0.15 
  -1   6   2   11.60    0.62 
  -1   6   2   12.86    0.87 
   0   6   2    7.03    0.66 
   0   6   2    8.39    0.50 
   1   6   2    0.57    0.22 
   1   6   2    0.70    0.31 
   2   6   2   16.69    0.89 
   2   6   2   15.57    0.98 
   3   6   2    9.64    0.68 
   3   6   2    9.02    0.77 
  -4  -6  -2    2.92    0.47 
  -5  -6  -2    0.69    0.40 
  -6  -6  -2    0.88    0.44 
  -7   7   2    2.03    0.75 
  -6   7   2    0.58    0.53 
  -5   7   2    0.89    0.54 
  -4   7   2    0.50    0.44 
  -3   7   2    4.80    0.66 
  -2   7   2   13.39    1.00 
  -1   7   2   13.69    0.72 
  -1   7   2   13.74    0.98 
   0   7   2   14.73    1.01 
   0   7   2   15.24    0.81 
   1   7   2    8.51    0.61 
   1   7   2    7.58    0.73 
   2   7   2    0.84    0.28 
   2   7   2    1.33    0.39 
   3   7   2    0.03    0.30 
   3   7   2   -0.22    0.24 
  -4  -7  -2    4.77    0.59 
  -5  -7  -2    1.02    0.42 
  -6  -7  -2    0.36    0.40 
  -6   8   2   -0.21    0.46 
  -5   8   2    1.89    0.60 
  -4   8   2    5.50    0.80 
  -3   8   2    0.14    0.38 
  -2   8   2    3.35    0.60 
  -1   8   2    3.99    0.40 
  -1   8   2    4.05    0.62 
   0   8   2    1.42    0.32 
   0   8   2    1.39    0.45 
   1   8   2    0.56    0.36 
   1   8   2    1.00    0.30 
   2   8   2    8.02    0.79 
   2   8   2    6.93    0.61 
   3   8   2    1.92    0.48 
  -4  -8  -2    0.37    0.34 
  -5  -8  -2    0.60    0.38 
  -5   9   2    0.48    0.48 
  -4   9   2    0.73    0.50 
  -3   9   2    0.67    0.46 
  -2   9   2    1.32    0.50 
  -1   9   2    2.23    0.56 
   0   9   2    3.05    0.59 
   0   9   2    3.37    0.46 
   1   9   2    1.46    0.48 
   1   9   2    2.14    0.40 
   2   9   2    0.46    0.32 
   2   9   2    0.46    0.38 
  -3  -9  -2    0.25    0.35 
   3   9   2    0.89    0.44 
  -4  -9  -2    1.25    0.42 
  -4  10   2   -0.16    0.39 
  -3  10   2    1.11    0.50 
  -2  10   2    1.68    0.57 
  -1  10   2    0.70    0.49 
   0  10   2    0.85    0.46 
   1  10   2    0.14    0.30 
   1  10   2    0.14    0.45 
   2  10   2    1.72    0.44 
   2  10   2    1.06    0.46 
  -3 -10  -2    0.01    0.30 
   3  10   2    0.17    0.34 
  -2  11   2    0.46    0.41 
  -1  11   2    0.16    0.42 
   0  11   2    0.66    0.43 
   2  11  -3    0.28    0.36 
   1  11  -3   -0.01    0.31 
   0  11  -3    0.91    0.37 
  -1  11  -3    0.37    0.31 
  -1  11  -3    0.62    0.41 
  -2  11  -3    0.04    0.38 
  -3  11  -3    1.55    0.57 
  -4  11  -3    0.76    0.49 
   4  10  -3    0.60    0.42 
   3  10  -3    0.00    0.32 
   2  10  -3    1.92    0.45 
   1  10  -3    1.34    0.39 
   1  10  -3    1.21    0.40 
   0  10  -3    1.38    0.40 
   0  10  -3    1.59    0.45 
  -1  10  -3    2.51    0.52 
  -1  10  -3    2.25    0.42 
  -2  10  -3    2.28    0.57 
  -2  10  -3    1.30    0.34 
  -3  10  -3    2.98    0.62 
  -4  10  -3    0.65    0.45 
  -5  10  -3    1.26    0.54 
   5   9  -3   -0.16    0.32 
   4   9  -3    3.94    0.62 
   3   9  -3    1.05    0.38 
   3   9  -3    1.47    0.37 
   2   9  -3    0.36    0.30 
   2   9  -3    0.42    0.30 
   1   9  -3    2.32    0.44 
   1   9  -3    2.32    0.42 
   0   9  -3    1.64    0.36 
   0   9  -3    0.90    0.37 
  -1   9  -3    2.15    0.48 
  -1   9  -3    1.75    0.36 
  -2   9  -3    0.37    0.27 
  -2   9  -3    0.06    0.36 
  -3   9  -3    4.28    0.67 
  -4   9  -3    0.65    0.49 
  -5   9  -3    0.20    0.48 
  -6   9  -3   -0.14    0.46 
   6   8  -3    0.30    0.33 
   5   8  -3    0.27    0.34 
   4   8  -3    0.83    0.35 
   3   8  -3    0.73    0.32 
   3   8  -3    0.65    0.28 
   2   8  -3    1.20    0.32 
   2   8  -3    1.54    0.37 
   1   8  -3    1.92    0.38 
   1   8  -3    1.67    0.35 
   0   8  -3    1.13    0.29 
   0   8  -3    0.77    0.31 
  -1   8  -3   12.41    0.77 
  -1   8  -3   13.65    0.93 
  -2   8  -3    9.42    0.63 
  -2   8  -3    9.01    0.82 
  -3   8  -3    1.97    0.51 
  -3   8  -3    2.34    0.35 
  -4   8  -3    2.25    0.57 
  -5   8  -3    2.92    0.63 
  -6   8  -3    0.95    0.50 
  -7   8  -3    0.38    0.45 
   6   7  -3   -0.17    0.30 
   5   7  -3    1.75    0.41 
   4   7  -3    5.09    0.56 
   3   7  -3   -0.09    0.22 
   3   7  -3    0.03    0.24 
   2   7  -3    5.37    0.47 
   2   7  -3    4.06    0.47 
   1   7  -3   12.69    0.76 
   1   7  -3   12.95    0.76 
   0   7  -3    8.53    0.59 
   0   7  -3    8.25    0.60 
  -1   7  -3    0.08    0.19 
  -1   7  -3    0.21    0.28 
  -2   7  -3   12.35    0.88 
  -2   7  -3   10.71    0.66 
  -3   7  -3    9.19    0.59 
  -3   7  -3    8.16    0.79 
  -4   7  -3   -0.07    0.33 
  -4   7  -3    0.43    0.18 
  -5   7  -3    0.53    0.44 
  -6   7  -3    0.57    0.48 
  -7   7  -3    1.43    0.59 
  -7  -6   3    1.04    0.51 
   6   6  -3    3.80    0.55 
   5   6  -3    0.45    0.31 
   4   6  -3    3.31    0.43 
   3   6  -3    8.53    0.64 
   2   6  -3    6.49    0.46 
   2   6  -3    4.90    0.47 
  -2  -6   3    6.25    0.39 
   1   6  -3    0.71    0.20 
   1   6  -3    0.34    0.19 
   0   6  -3   17.81    0.95 
   0   6  -3   18.20    0.91 
  -1   6  -3   75.44    3.30 
  -1   6  -3   76.18    3.05 
  -2   6  -3   15.50    0.93 
  -2   6  -3   14.82    0.79 
  -4   6  -3    8.28    0.55 
  -4   6  -3    8.06    0.74 
  -5   6  -3    3.40    0.58 
  -6   6  -3    2.83    0.61 
  -7   6  -3    1.96    0.61 
  -7  -5   3    0.77    0.44 
   6   5  -3    1.74    0.41 
   5   5  -3    2.11    0.39 
   4   5  -3    6.27    0.52 
  -4  -5   3    5.68    0.44 
   3   5  -3    1.98    0.32 
  -3  -5   3    2.29    0.30 
   2   5  -3    3.28    0.36 
  -2  -5   3    4.89    0.37 
   1   5  -3   61.37    2.50 
   0   5  -3    9.61    0.55 
  -1   5  -3    1.03    0.26 
  -2   5  -3   30.05    1.29 
  -2   5  -3   27.03    1.39 
  -3   5  -3   16.08    0.93 
  -3   5  -3   15.43    0.81 
  -4   5  -3    1.49    0.39 
  -4   5  -3    1.79    0.31 
  -5   5  -3    1.01    0.40 
  -5   5  -3    1.44    0.31 
  -6   5  -3    3.01    0.59 
  -7   5  -3    3.84    0.69 
  -8   5  -3    0.01    0.42 
  -8  -4   3   -0.16    0.38 
  -7  -4   3    1.33    0.45 
   6   4  -3    6.48    0.61 
   5   4  -3    2.24    0.37 
  -5  -4   3    2.00    0.39 
   4   4  -3   19.82    1.01 
  -4  -4   3   21.25    1.07 
   3   4  -3   11.03    0.63 
  -3  -4   3   10.89    0.62 
   2   4  -3    0.64    0.18 
   2   4  -3    0.67    0.14 
  -2  -4   3    0.48    0.19 
   1   4  -3    0.86    0.18 
   1   4  -3    0.67    0.13 
  -1  -4   3    0.64    0.16 
   0   4  -3  101.40    4.25 
   0   4  -3  104.46    4.00 
  -1   4  -3  102.57    4.32 
  -1   4  -3  105.36    4.05 
  -2   4  -3   16.49    0.80 
  -2   4  -3   16.15    0.86 
  -3   4  -3   15.41    0.90 
  -3   4  -3   17.47    0.85 
  -4   4  -3    0.68    0.22 
  -4   4  -3    1.42    0.37 
  -5   4  -3    1.32    0.28 
  -5   4  -3    0.65    0.37 
  -6   4  -3    1.60    0.37 
  -6   4  -3    1.91    0.50 
  -7   4  -3    6.02    0.85 
  -8   4  -3    1.58    0.59 
  -8  -3   3    0.09    0.48 
  -7  -3   3    0.32    0.34 
   6   3  -3   11.03    0.74 
   5   3  -3    4.69    0.46 
   4   3  -3    0.78    0.19 
   3   3  -3   16.28    0.80 
  -3  -3   3   16.81    0.85 
   2   3  -3    9.03    0.54 
  -2  -3   3   12.14    0.58 
   1   3  -3  114.84    4.70 
   1   3  -3  118.11    4.45 
  -1  -3   3  114.10    4.83 
   0   3  -3   11.08    0.51 
   0  -3   3    9.35    0.54 
  -2   3  -3   46.19    2.04 
  -2   3  -3   47.67    1.93 
  -3   3  -3    9.14    0.53 
  -3   3  -3    7.30    0.52 
  -4   3  -3    0.51    0.26 
  -4   3  -3    0.28    0.19 
  -5   3  -3   21.75    1.23 
  -5   3  -3   19.81    1.03 
  -6   3  -3   16.59    1.14 
  -6   3  -3   17.44    0.97 
  -7   3  -3    0.48    0.44 
  -8   3  -3    0.92    0.55 
  -8  -2   3   -0.19    0.48 
  -7  -2   3    3.69    0.47 
  -7  -2   3    3.35    0.60 
  -6  -2   3    1.52    0.35 
   5   2  -3   21.59    1.04 
   4   2  -3   39.49    1.66 
   3   2  -3   29.78    1.26 
   2   2  -3    3.61    0.26 
  -2  -2   3    3.68    0.32 
   1   2  -3   38.11    1.58 
  -1  -2   3   40.51    1.72 
   0   2  -3  325.96   12.17 
   0   2  -3  330.08   13.04 
   0  -2   3  316.51   13.29 
  -2   2  -3   69.46    2.77 
  -2   2  -3   71.85    2.98 
  -3   2  -3   49.30    2.01 
  -5   2  -3    1.40    0.29 
  -5   2  -3    1.45    0.41 
  -6   2  -3    0.23    0.26 
  -6   2  -3    0.09    0.34 
  -7   2  -3   10.53    0.98 
  -7   2  -3   10.14    0.76 
  -8   2  -3    0.58    0.51 
  -8  -1   3    0.14    0.44 
  -7  -1   3    0.09    0.39 
  -6  -1   3   26.60    1.23 
  -6  -1   3   26.93    1.46 
   5   1  -3    7.25    0.45 
  -5  -1   3    8.13    0.65 
   4   1  -3    3.86    0.30 
   3   1  -3   54.35    2.14 
   2   1  -3    7.46    0.36 
  -2  -1   3    6.88    0.39 
   1   1  -3  247.64    9.13 
  -1  -1   3  233.20    9.98 
  -1  -1   3  248.36    9.78 
   0   1  -3    0.37    0.12 
   0  -1   3    0.62    0.16 
  -1   1  -3  100.33    3.84 
  -2   1  -3   29.29    1.23 
  -3   1  -3    2.71    0.28 
  -4   1  -3    2.00    0.29 
  -5   1  -3   28.64    1.34 
  -6   1  -3   22.88    1.19 
  -7   1  -3    1.80    0.55 
  -7   1  -3    2.11    0.43 
  -8   1  -3    1.78    0.62 
  -8   0   3    0.97    0.55 
  -7   0   3    0.52    0.42 
  -6   0   3    0.29    0.16 
  -6   0   3    0.07    0.33 
  -5   0   3   19.36    1.13 
  -5   0   3   21.86    0.94 
   4   0  -3   21.31    0.92 
  -4   0   3   22.09    1.10 
   3   0  -3    7.44    0.36 
  -3   0   3    7.10    0.49 
   2   0  -3   10.06    0.44 
  -2   0   3    9.88    0.52 
   1   0  -3   34.39    1.34 
  -1   0   3   34.49    1.45 
  -1   0   3   32.98    1.50 
   0   0  -3   41.22    1.63 
   0   0   3   41.55    1.73 
   0   0   3   42.16    1.81 
  -1   0  -3    0.65    0.12 
  -2   0  -3   18.78    0.85 
  -3   0  -3   55.47    2.24 
  -4   0  -3   16.89    0.87 
  -5   0  -3    3.68    0.43 
  -6   0  -3    4.87    0.54 
  -7   0  -3    4.12    0.56 
  -8   0  -3    0.24    0.42 
  -8   1   3   -0.11    0.49 
  -7   1   3    1.80    0.55 
  -6   1   3   26.74    1.49 
  -5   1   3    0.71    0.34 
  -5   1   3    0.14    0.13 
  -4   1   3    2.35    0.36 
  -4   1   3    2.68    0.19 
  -3   1   3   90.29    3.44 
  -3   1   3   92.82    3.85 
  -2   1   3   12.34    0.66 
   1  -1  -3    8.71    0.38 
  -1   1   3    8.30    0.47 
  -1   1   3    8.57    0.49 
   0  -1  -3  154.95    5.88 
   0   1   3  155.39    6.45 
   0   1   3  158.22    6.35 
  -1  -1  -3  230.60    8.66 
   1   1   3  229.83    9.33 
  -2  -1  -3   22.18    0.98 
  -3  -1  -3   53.20    2.18 
  -4  -1  -3   12.44    0.72 
  -5  -1  -3   22.00    1.15 
  -6  -1  -3   11.89    0.84 
  -7  -1  -3    0.94    0.43 
  -8  -1  -3    1.14    0.45 
  -8   2   3    0.80    0.57 
  -7   2   3   -0.02    0.45 
  -6   2   3    2.02    0.49 
  -5   2   3   23.37    1.29 
  -4   2   3   24.81    1.28 
  -3   2   3    9.40    0.63 
  -2   2   3   44.97    2.00 
   1  -2  -3   48.58    1.77 
  -1   2   3   42.64    2.00 
   0  -2  -3   53.41    2.06 
   0   2   3   51.84    2.24 
   0   2   3   53.41    2.27 
  -1  -2  -3    5.64    0.37 
   1   2   3    7.97    0.46 
  -2  -2  -3   44.63    1.87 
   2   2   3   46.45    2.02 
  -3  -2  -3   77.89    3.12 
  -4  -2  -3    8.32    0.60 
  -5  -2  -3    5.87    0.57 
  -6  -2  -3    8.02    0.70 
  -7  -2  -3    3.08    0.54 
  -8  -2  -3    0.79    0.46 
  -8   3   3    1.15    0.62 
  -7   3   3    1.33    0.59 
  -6   3   3   17.61    1.18 
  -5   3   3    1.89    0.47 
  -4   3   3    2.78    0.47 
  -3   3   3   46.42    2.14 
  -2   3   3    3.06    0.40 
   1  -3  -3    0.31    0.08 
  -1   3   3    0.65    0.23 
   0  -3  -3  134.90    5.08 
   0   3   3  132.35    5.53 
   0   3   3  133.04    5.52 
  -1  -3  -3   67.86    2.74 
   1   3   3   70.93    2.99 
  -2  -3  -3   12.01    0.64 
   2   3   3   11.50    0.69 
  -3  -3  -3   29.47    1.35 
  -4  -3  -3   17.74    0.97 
  -5  -3  -3    4.75    0.55 
  -6  -3  -3    0.59    0.36 
  -7  -3  -3    0.56    0.40 
  -8   4   3   -0.30    0.58 
  -7   4   3    0.49    0.56 
  -6   4   3    2.16    0.58 
  -5   4   3    4.28    0.63 
  -4   4   3    1.92    0.45 
  -3   4   3   12.17    0.84 
   2  -4  -3   43.33    1.68 
  -2   4   3   43.52    2.05 
  -1   4   3    3.65    0.43 
   0   4   3    5.94    0.36 
   0   4   3    5.44    0.49 
  -1  -4  -3   14.67    0.76 
   1   4   3   15.22    0.85 
  -2  -4  -3   42.59    1.67 
   2   4   3   33.45    1.77 
  -3  -4  -3    9.65    0.64 
   3   4   3    9.93    0.70 
  -4  -4  -3    0.20    0.25 
  -5  -4  -3    1.69    0.41 
  -6  -4  -3    4.57    0.62 
  -7  -4  -3    0.47    0.45 
  -8   5   3    0.82    0.72 
  -7   5   3    0.39    0.57 
  -6   5   3    1.14    0.57 
  -5   5   3    8.83    0.88 
  -4   5   3   16.40    1.10 
  -3   5   3    8.55    0.79 
  -2   5   3    8.42    0.40 
  -2   5   3    6.08    0.67 
  -1   5   3   11.23    0.56 
   0   5   3   52.92    2.17 
   0   5   3   51.67    2.46 
   0   5   3   55.73    2.29 
   1   5   3    6.84    0.61 
   1   5   3    7.23    0.48 
  -2  -5  -3    0.18    0.22 
   2   5   3   -0.09    0.23 
  -3  -5  -3   19.89    1.08 
   3   5   3   20.93    1.17 
  -4  -5  -3   11.41    0.78 
  -5  -5  -3   -0.26    0.31 
  -6  -5  -3    0.96    0.43 
  -7  -5  -3    0.87    0.51 
  -7   6   3    0.17    0.60 
  -6   6   3    5.95    0.90 
  -5   6   3    0.65    0.49 
  -4   6   3    0.08    0.39 
  -3   6   3    4.83    0.68 
  -2   6   3   32.83    1.75 
  -1   6   3   12.45    0.64 
  -1   6   3   13.82    0.91 
  -1   6   3   11.92    0.67 
   0   6   3    1.11    0.36 
   0   6   3    1.15    0.22 
   1   6   3   22.31    1.24 
   1   6   3   21.24    1.05 
  -2  -6  -3   14.80    0.86 
   2   6   3   14.23    0.94 
  -3  -6  -3    0.48    0.29 
   3   6   3    0.86    0.36 
  -4  -6  -3    2.32    0.44 
  -5  -6  -3    2.07    0.47 
  -6  -6  -3    2.61    0.57 
  -7   7   3   -0.05    0.61 
  -6   7   3   -0.58    0.53 
  -5   7   3    4.78    0.79 
  -4   7   3    3.97    0.70 
  -3   7   3    1.84    0.52 
  -2   7   3    9.34    0.89 
  -1   7   3    1.47    0.24 
  -1   7   3    2.32    0.50 
   0   7   3    8.11    0.77 
   0   7   3    7.16    0.52 
   1   7   3   -0.03    0.28 
   1   7   3    0.71    0.26 
  -2  -7  -3    0.58    0.30 
   2   7   3    0.48    0.35 
  -3  -7  -3    6.10    0.60 
   3   7   3    6.26    0.73 
  -4  -7  -3    1.42    0.42 
  -5  -7  -3    0.00    0.34 
  -6   8   3    0.84    0.65 
  -5   8   3    0.22    0.50 
  -4   8   3    0.00    0.44 
  -3   8   3    1.85    0.58 
  -2   8   3    6.57    0.80 
  -1   8   3    0.32    0.40 
   0   8   3    6.03    0.52 
   0   8   3    5.90    0.73 
   1   8   3    5.96    0.72 
   1   8   3    5.02    0.51 
  -2  -8  -3    0.27    0.30 
   2   8   3   -0.03    0.34 
  -3  -8  -3    0.39    0.32 
   3   8   3    0.14    0.38 
  -4  -8  -3    2.32    0.46 
  -5  -8  -3    1.14    0.39 
  -5   9   3    1.14    0.55 
  -4   9   3    1.28    0.58 
  -3   9   3    0.13    0.45 
  -2   9   3    5.95    0.83 
  -1   9   3    1.99    0.58 
   0   9   3    0.42    0.40 
  -1  -9  -3    0.62    0.35 
   1   9   3    0.77    0.41 
  -2  -9  -3    1.69    0.42 
   2   9   3    1.20    0.47 
  -3  -9  -3    2.54    0.50 
   3   9   3    1.47    0.51 
  -4  -9  -3   -0.53    0.25 
  -4  10   3    0.68    0.48 
  -3  10   3    1.41    0.56 
  -2  10   3   -0.09    0.44 
  -1  10   3    0.13    0.45 
   0  10   3    1.70    0.53 
  -1 -10  -3    0.83    0.34 
   1  10   3    1.56    0.54 
  -2 -10  -3    0.25    0.33 
   2  10   3   -0.02    0.37 
   2  11  -4    0.14    0.37 
   1  11  -4    3.90    0.59 
   0  11  -4    1.57    0.42 
  -1  11  -4    0.34    0.35 
  -2  11  -4    1.57    0.44 
  -3  11  -4    0.95    0.39 
  -4  11  -4    0.13    0.40 
   4  10  -4    0.43    0.37 
   3  10  -4    1.85    0.48 
   2  10  -4    0.02    0.32 
   1  10  -4    6.57    0.69 
   0  10  -4    6.78    0.68 
  -1  10  -4    1.17    0.37 
  -1  10  -4    1.21    0.43 
  -2  10  -4    2.55    0.45 
  -2  10  -4    1.59    0.50 
  -3  10  -4    0.34    0.42 
  -4  10  -4    0.46    0.44 
  -5  10  -4    1.34    0.53 
   5   9  -4    0.53    0.37 
   4   9  -4    0.67    0.37 
   3   9  -4    1.23    0.40 
   2   9  -4    3.38    0.53 
   1   9  -4    7.98    0.68 
   1   9  -4    8.14    0.71 
   0   9  -4    1.27    0.37 
   0   9  -4    1.01    0.31 
  -1   9  -4    3.88    0.49 
  -1   9  -4    3.50    0.55 
  -2   9  -4    5.82    0.57 
  -2   9  -4    6.09    0.72 
  -3   9  -4    0.70    0.30 
  -3   9  -4    0.93    0.47 
  -4   9  -4   -0.18    0.41 
  -5   9  -4    2.29    0.62 
  -6   9  -4    2.02    0.59 
   6   8  -4    0.37    0.35 
   5   8  -4   -0.09    0.33 
   4   8  -4    1.81    0.42 
   3   8  -4    4.09    0.55 
   2   8  -4    1.10    0.29 
   2   8  -4    1.34    0.35 
   1   8  -4   28.02    1.35 
   1   8  -4   25.56    1.35 
   0   8  -4   16.93    0.98 
   0   8  -4   15.49    0.92 
  -1   8  -4    0.38    0.32 
  -1   8  -4    0.78    0.28 
  -2   8  -4    1.78    0.34 
  -2   8  -4    1.76    0.43 
  -3   8  -4    4.94    0.49 
  -3   8  -4    5.61    0.68 
  -4   8  -4    7.97    0.82 
  -5   8  -4    0.63    0.44 
  -6   8  -4    0.99    0.51 
   6   7  -4    0.22    0.35 
   5   7  -4    0.01    0.29 
   4   7  -4    0.17    0.28 
   3   7  -4    6.71    0.62 
   2   7  -4   14.20    0.78 
   1   7  -4    4.84    0.49 
   0   7  -4    1.78    0.33 
   0   7  -4    1.43    0.26 
  -1   7  -4    6.82    0.55 
  -1   7  -4    7.78    0.64 
  -2   7  -4    9.00    0.63 
  -2   7  -4    9.18    0.75 
  -3   7  -4    0.53    0.25 
  -3   7  -4    1.07    0.39 
  -4   7  -4    2.99    0.53 
  -4   7  -4    2.66    0.39 
  -5   7  -4   12.86    1.03 
  -6   7  -4    3.94    0.72 
  -7   7  -4   -0.21    0.45 
   7   6  -4   -0.05    0.31 
   6   6  -4    0.40    0.33 
   5   6  -4    1.89    0.40 
   4   6  -4    2.56    0.42 
   3   6  -4    0.01    0.22 
   2   6  -4    7.10    0.48 
   2   6  -4    7.23    0.57 
  -2  -6   4    8.47    0.51 
   1   6  -4   21.21    1.06 
   1   6  -4   20.71    1.02 
   0   6  -4   22.08    1.08 
   0   6  -4   22.22    1.09 
  -1   6  -4    0.67    0.20 
  -1   6  -4    0.45    0.25 
  -2   6  -4    1.86    0.31 
  -2   6  -4    2.05    0.38 
  -3   6  -4   35.10    1.58 
  -3   6  -4   35.21    1.75 
  -4   6  -4    8.31    0.73 
  -4   6  -4    7.28    0.58 
  -5   6  -4    0.19    0.35 
  -5   6  -4   -0.02    0.24 
  -6   6  -4    6.34    0.79 
  -7   6  -4    0.28    0.48 
   7   5  -4    1.34    0.39 
   6   5  -4    0.29    0.31 
   5   5  -4    0.85    0.31 
   4   5  -4    1.91    0.34 
  -4  -5   4    1.71    0.32 
   3   5  -4   28.57    1.35 
  -3  -5   4   28.79    1.38 
   2   5  -4   45.89    2.01 
   2   5  -4   48.81    1.99 
  -2  -5   4   46.02    2.08 
   1   5  -4   14.73    0.78 
   0   5  -4   54.10    2.23 
   0   5  -4   53.23    2.31 
  -1   5  -4    0.14    0.06 
  -2   5  -4    6.18    0.46 
  -2   5  -4    5.32    0.48 
  -3   5  -4    4.12    0.46 
  -3   5  -4    4.78    0.43 
  -4   5  -4   41.94    1.82 
  -4   5  -4   40.00    1.97 
  -5   5  -4   20.73    1.23 
  -5   5  -4   19.86    1.09 
  -6   5  -4    0.81    0.44 
  -7   5  -4    0.94    0.51 
  -8   5  -4    0.36    0.49 
  -7  -4   4   -0.05    0.39 
   6   4  -4    3.76    0.52 
  -6  -4   4    5.32    0.62 
   5   4  -4    7.22    0.60 
  -5  -4   4    7.92    0.60 
   4   4  -4    0.32    0.21 
  -4  -4   4    0.75    0.28 
   3   4  -4   12.80    0.70 
   2   4  -4   19.24    0.90 
  -2  -4   4   17.80    0.94 
   1   4  -4   51.19    2.13 
   1   4  -4   52.52    2.17 
  -1  -4   4   51.91    2.28 
   0   4  -4   56.87    2.28 
   0   4  -4   54.87    2.35 
  -1   4  -4   14.25    0.72 
  -1   4  -4   13.96    0.73 
  -2   4  -4   47.10    2.07 
  -2   4  -4   46.53    1.97 
  -3   4  -4   52.55    2.17 
  -3   4  -4   50.56    2.31 
  -4   4  -4    8.90    0.63 
  -4   4  -4   10.31    0.73 
  -5   4  -4    0.55    0.28 
  -5   4  -4    0.36    0.34 
  -6   4  -4   19.26    1.07 
  -6   4  -4   17.88    1.20 
  -7   4  -4    4.87    0.76 
  -8   4  -4   -0.12    0.44 
  -8  -3   4   -0.04    0.45 
  -7  -3   4    0.61    0.38 
  -7  -3   4    0.99    0.46 
   6   3  -4    0.25    0.25 
   5   3  -4   10.38    0.66 
   4   3  -4   11.62    0.64 
  -4  -3   4   11.20    0.71 
   3   3  -4   32.32    1.43 
  -3  -3   4   33.91    1.55 
   2   3  -4   22.64    1.03 
  -2  -3   4   23.39    1.12 
   1   3  -4   44.31    1.84 
   1   3  -4   45.29    1.84 
  -1  -3   4   44.51    1.99 
   0   3  -4   75.38    3.04 
   0   3  -4   78.51    3.15 
   0  -3   4   76.45    3.29 
  -1   3  -4   64.68    2.59 
  -1   3  -4   64.74    2.70 
  -2   3  -4    5.93    0.40 
  -2   3  -4    5.91    0.43 
  -3   3  -4   45.94    2.11 
  -3   3  -4   47.97    1.98 
  -4   3  -4   66.84    2.76 
  -4   3  -4   68.38    3.02 
  -5   3  -4   13.61    0.93 
  -5   3  -4   12.94    0.81 
  -6   3  -4    1.34    0.36 
  -6   3  -4    0.38    0.35 
  -7   3  -4    1.37    0.41 
  -7   3  -4    1.22    0.51 
  -8   3  -4   -0.39    0.39 
  -8  -2   4    3.39    0.69 
  -7  -2   4    0.33    0.41 
   6   2  -4    3.07    0.39 
  -6  -2   4    3.23    0.51 
   5   2  -4    0.16    0.16 
   4   2  -4    5.66    0.39 
   3   2  -4    6.56    0.40 
  -3  -2   4    6.19    0.46 
   2   2  -4   36.81    1.44 
  -2  -2   4   32.93    1.57 
   1   2  -4  114.01    4.38 
  -1  -2   4  113.83    4.79 
   0   2  -4    0.99    0.10 
   0   2  -4    1.08    0.18 
   0  -2   4    0.72    0.19 
  -1   2  -4  121.56    4.68 
  -2   2  -4   51.88    2.11 
  -3   2  -4   25.54    1.16 
  -4   2  -4    1.36    0.27 
  -5   2  -4    2.72    0.39 
  -6   2  -4   20.96    1.29 
  -6   2  -4   20.17    1.09 
  -7   2  -4    0.64    0.44 
  -7   2  -4    1.22    0.38 
  -8   2  -4   -0.16    0.43 
  -8  -1   4    0.23    0.53 
  -7  -1   4    4.08    0.63 
  -6  -1   4    0.12    0.33 
  -6  -1   4    0.45    0.22 
   5   1  -4    4.43    0.37 
  -5  -1   4    4.90    0.50 
   4   1  -4   30.44    1.28 
  -4  -1   4   30.94    1.45 
  -3  -1   4    0.64    0.20 
   2   1  -4    0.20    0.07 
  -2  -1   4    0.38    0.18 
  -2  -1   4    0.31    0.12 
   1   1  -4  185.93    6.64 
  -1  -1   4  176.12    7.07 
  -1  -1   4  163.94    7.26 
   0   1  -4  144.90    5.48 
   0  -1   4  142.59    6.00 
  -1   1  -4   29.44    1.24 
  -2   1  -4   42.46    1.74 
  -3   1  -4   64.50    2.60 
  -4   1  -4   39.35    1.71 
  -5   1  -4   13.64    0.82 
  -6   1  -4    0.34    0.30 
  -7   1  -4    3.23    0.52 
  -8   1  -4    0.56    0.48 
  -8   1  -4    0.74    0.41 
  -8   0   4    0.34    0.54 
  -7   0   4    0.54    0.44 
  -6   0   4   -0.07    0.35 
  -5   0   4    1.78    0.39 
   4   0  -4    0.22    0.09 
  -4   0   4    0.58    0.24 
   3   0  -4   25.99    1.07 
  -3   0   4   26.82    1.23 
   2   0  -4  216.40    8.23 
  -2   0   4  218.28    9.09 
  -2   0   4  223.96    8.90 
   1   0  -4   60.46    2.72 
  -1   0   4   76.60    3.03 
  -1   0   4   76.07    2.93 
   0   0  -4   12.48    0.59 
   0   0   4   12.48    0.59 
   0   0   4   12.91    0.67 
  -1   0  -4  178.05    6.76 
   1   0   4  179.05    7.40 
  -2   0  -4  106.95    4.13 
  -4   0  -4   12.14    0.73 
  -5   0  -4   18.22    1.00 
  -6   0  -4    8.15    0.68 
  -7   0  -4    0.58    0.38 
  -8   0  -4    0.50    0.44 
  -8   1   4    0.51    0.54 
  -7   1   4    6.48    0.79 
  -6   1   4    3.52    0.58 
  -5   1   4    9.37    0.74 
  -4   1   4   23.41    0.96 
  -4   1   4   25.08    1.23 
  -3   1   4    2.63    0.33 
  -2   1   4   11.25    0.63 
   1  -1  -4  109.39    4.13 
  -1   1   4  108.93    4.50 
  -1   1   4  109.03    4.58 
   0  -1  -4   57.27    2.25 
   0   1   4   59.20    2.45 
   0   1   4   57.05    2.49 
  -2  -1  -4   54.75    2.21 
  -3  -1  -4   10.98    0.65 
  -4  -1  -4   23.73    1.17 
  -5  -1  -4   15.12    0.92 
  -6  -1  -4    5.69    0.62 
  -7  -1  -4    7.38    0.74 
  -8  -1  -4    0.16    0.46 
  -8   2   4    0.25    0.54 
  -7   2   4    0.32    0.48 
  -6   2   4    0.43    0.40 
  -5   2   4    1.42    0.44 
  -4   2   4    7.55    0.63 
  -3   2   4   43.72    2.00 
  -2   2   4   44.87    2.02 
   1  -2  -4   15.07    0.60 
  -1   2   4   11.63    0.72 
  -1   2   4   13.80    0.71 
   0  -2  -4    6.50    0.36 
   0   2   4    7.24    0.46 
  -1  -2  -4   63.57    2.53 
   1   2   4   63.75    2.72 
   1   2   4   63.85    2.74 
  -2  -2  -4   33.29    1.42 
   2   2   4   32.27    1.52 
  -3  -2  -4    7.43    0.52 
  -4  -2  -4   45.32    2.00 
  -5  -2  -4    6.51    0.60 
  -6  -2  -4    0.63    0.37 
  -7  -2  -4    0.86    0.45 
  -8  -2  -4    0.74    0.49 
  -8   3   4    1.47    0.69 
  -7   3   4    0.49    0.55 
  -6   3   4   11.08    0.97 
  -5   3   4    6.43    0.70 
  -4   3   4   11.50    0.84 
  -3   3   4   19.61    1.10 
  -2   3   4    9.88    0.69 
   1  -3  -4   66.18    2.51 
  -1   3   4   67.13    2.85 
  -1   3   4   61.92    2.80 
   0  -3  -4    2.70    0.23 
   0   3   4    1.70    0.22 
   0   3   4    1.86    0.31 
  -1  -3  -4   24.60    1.09 
   1   3   4   24.25    1.11 
   1   3   4   25.33    1.22 
  -2  -3  -4   61.60    2.49 
   2   3   4   60.06    2.69 
  -3  -3  -4    8.58    0.59 
  -4  -3  -4    9.49    0.71 
  -5  -3  -4    0.24    0.31 
  -6  -3  -4   11.33    0.89 
  -7  -3  -4    2.70    0.58 
  -8   4   4    0.80    0.68 
  -7   4   4    0.36    0.55 
  -6   4   4    3.52    0.68 
  -5   4   4    2.07    0.48 
  -4   4   4   28.33    1.55 
  -3   4   4   13.90    0.92 
   2  -4  -4    8.76    0.40 
  -2   4   4    9.40    0.70 
   1  -4  -4    0.19    0.10 
  -1   4   4    0.48    0.26 
  -1   4   4    0.24    0.16 
   0  -4  -4   31.93    1.32 
   0   4   4   30.95    1.41 
   0   4   4   31.05    1.53 
  -1  -4  -4   39.90    1.68 
   1   4   4   39.61    1.86 
  -2  -4  -4    0.47    0.22 
   2   4   4    0.47    0.28 
  -3  -4  -4   16.53    0.93 
   3   4   4   17.41    1.04 
  -4  -4  -4   17.62    1.02 
  -5  -4  -4    4.84    0.60 
  -6  -4  -4    0.52    0.43 
  -7  -4  -4    1.12    0.46 
  -8   5   4    0.16    0.64 
  -7   5   4    0.59    0.60 
  -6   5   4    2.21    0.66 
  -5   5   4    1.49    0.54 
  -4   5   4    5.19    0.68 
  -3   5   4    2.65    0.54 
  -2   5   4    2.02    0.47 
   1  -5  -4   11.57    0.58 
  -1   5   4   12.27    0.67 
  -1   5   4   10.68    0.81 
   0  -5  -4    0.07    0.15 
   0   5   4    0.15    0.28 
   0   5   4    0.39    0.13 
  -2  -5  -4   40.18    1.78 
   2   5   4   40.61    1.96 
  -3  -5  -4   11.65    0.76 
   3   5   4   11.89    0.84 
  -4  -5  -4    0.72    0.33 
  -5  -5  -4    1.19    0.41 
  -6  -5  -4    1.52    0.52 
  -7   6   4    1.43    0.72 
  -6   6   4    0.41    0.58 
  -5   6   4    0.87    0.56 
  -4   6   4    7.46    0.85 
  -3   6   4    4.25    0.65 
  -2   6   4    0.10    0.38 
   1  -6  -4    6.83    0.45 
  -1   6   4    8.22    0.76 
   0  -6  -4   19.60    0.96 
   0   6   4   20.75    1.22 
  -1  -6  -4    2.01    0.33 
   1   6   4    1.36    0.39 
  -2  -6  -4   10.13    0.68 
   2   6   4    9.38    0.81 
  -3  -6  -4    5.28    0.55 
   3   6   4    4.64    0.63 
  -4  -6  -4    3.12    0.52 
  -5  -6  -4    2.63    0.52 
  -6  -6  -4    0.71    0.46 
  -7   7   4    0.37    0.69 
  -6   7   4    1.87    0.68 
  -5   7   4    3.11    0.78 
  -4   7   4    0.78    0.51 
  -3   7   4    4.36    0.71 
  -2   7   4    0.35    0.41 
  -1   7   4    1.96    0.50 
   0  -7  -4    0.73    0.25 
   0   7   4    0.77    0.38 
  -1  -7  -4    9.01    0.64 
   1   7   4    9.34    0.83 
  -2  -7  -4   21.50    1.14 
   2   7   4   20.97    1.30 
  -3  -7  -4    1.21    0.38 
   3   7   4    1.82    0.49 
  -4  -7  -4    2.13    0.46 
  -5  -7  -4    0.93    0.41 
  -6   8   4   -0.11    0.61 
  -5   8   4    0.47    0.60 
  -4   8   4    2.30    0.71 
  -3   8   4    1.20    0.55 
  -2   8   4    0.27    0.42 
  -1   8   4   10.76    1.00 
   0  -8  -4    5.22    0.50 
   0   8   4    5.11    0.72 
  -1  -8  -4    2.11    0.38 
   1   8   4    1.77    0.46 
  -2  -8  -4    3.41    0.49 
   2   8   4    2.34    0.55 
  -3  -8  -4    2.17    0.46 
   3   8   4    2.11    0.56 
  -4  -8  -4    0.05    0.35 
  -5   9   4   -0.30    0.58 
  -4   9   4    0.49    0.49 
  -3   9   4    1.08    0.53 
  -2   9   4    0.13    0.43 
  -1   9   4    1.43    0.54 
   0   9   4    1.78    0.52 
  -1  -9  -4    4.31    0.54 
   1   9   4    6.29    0.85 
  -2  -9  -4    1.77    0.43 
   2   9   4    1.68    0.53 
  -3  -9  -4   -0.29    0.31 
   3   9   4   -0.19    0.36 
  -3  10   4   -0.20    0.41 
  -2  10   4    0.48    0.49 
  -1  10   4    1.90    0.59 
   0  10   4   -0.28    0.40 
   1  10   4   -0.27    0.37 
   2  11  -5    2.10    0.51 
   1  11  -5    0.50    0.36 
   0  11  -5    0.25    0.36 
  -1  11  -5   -0.06    0.28 
  -2  11  -5    1.48    0.39 
   4  10  -5    1.64    0.46 
   3  10  -5   -0.21    0.31 
   2  10  -5    2.69    0.52 
   1  10  -5    4.59    0.62 
   0  10  -5    2.34    0.46 
  -1  10  -5   -0.01    0.30 
  -2  10  -5    3.16    0.50 
  -3  10  -5    0.06    0.39 
  -4  10  -5    1.13    0.52 
  -5  10  -5   -0.11    0.40 
   5   9  -5   -0.14    0.31 
   4   9  -5    0.90    0.38 
   3   9  -5    0.36    0.35 
   2   9  -5    6.35    0.67 
   1   9  -5    3.42    0.52 
   0   9  -5    2.13    0.42 
  -1   9  -5   10.98    0.76 
  -1   9  -5    9.79    0.81 
  -2   9  -5    0.31    0.36 
  -2   9  -5   -0.11    0.25 
  -3   9  -5    1.13    0.47 
  -3   9  -5    1.07    0.35 
  -4   9  -5    5.10    0.73 
  -5   9  -5    1.66    0.56 
  -6   9  -5    1.10    0.54 
   6   8  -5   -0.11    0.30 
   5   8  -5    2.98    0.55 
   4   8  -5    1.62    0.42 
   3   8  -5    5.86    0.64 
   2   8  -5   21.99    1.21 
   1   8  -5    2.58    0.44 
   1   8  -5    3.72    0.37 
   0   8  -5    0.45    0.17 
   0   8  -5    0.65    0.28 
  -1   8  -5    0.11    0.23 
  -1   8  -5    1.07    0.34 
  -2   8  -5    5.32    0.52 
  -2   8  -5    5.06    0.61 
  -3   8  -5    1.45    0.35 
  -3   8  -5    1.78    0.47 
  -4   8  -5    1.44    0.45 
  -4   8  -5    2.37    0.41 
  -5   8  -5   -0.29    0.39 
  -6   8  -5   -0.24    0.42 
   6   7  -5    0.13    0.34 
   5   7  -5    1.66    0.41 
   4   7  -5    3.34    0.49 
   3   7  -5    3.61    0.48 
   2   7  -5    9.44    0.67 
   2   7  -5    9.19    0.54 
   1   7  -5    1.84    0.25 
   1   7  -5    0.92    0.30 
   0   7  -5   34.39    1.64 
   0   7  -5   36.61    1.66 
  -2   7  -5    3.41    0.43 
  -2   7  -5    4.96    0.53 
  -3   7  -5    4.70    0.50 
  -3   7  -5    5.21    0.60 
  -4   7  -5   15.17    0.90 
  -4   7  -5   14.92    1.02 
  -5   7  -5    3.37    0.63 
  -6   7  -5    0.68    0.50 
  -7   7  -5    0.61    0.50 
   7   6  -5   -0.22    0.29 
   6   6  -5    2.46    0.47 
   5   6  -5    1.49    0.36 
   4   6  -5    1.81    0.38 
   3   6  -5   27.50    1.38 
  -3  -6   5   28.24    1.38 
   2   6  -5   36.60    1.63 
   2   6  -5   34.12    1.56 
  -2  -6   5   35.47    1.65 
   1   6  -5    7.85    0.61 
   1   6  -5    8.88    0.50 
   0   6  -5    2.46    0.35 
   0   6  -5    2.50    0.28 
  -1   6  -5    3.21    0.38 
  -1   6  -5    1.90    0.33 
  -2   6  -5   30.07    1.44 
  -2   6  -5   27.62    1.36 
  -3   6  -5    6.97    0.61 
  -3   6  -5    6.43    0.55 
  -4   6  -5    0.39    0.31 
  -4   6  -5    0.17    0.24 
  -5   6  -5    1.91    0.48 
  -5   6  -5    2.46    0.43 
  -6   6  -5    1.65    0.50 
  -7   6  -5    0.25    0.49 
   7   5  -5   -0.51    0.26 
   6   5  -5    0.02    0.28 
   5   5  -5    2.39    0.40 
  -5  -5   5    1.91    0.42 
   4   5  -5   26.19    1.31 
  -4  -5   5   26.87    1.37 
   3   5  -5   35.86    1.65 
  -3  -5   5   37.61    1.75 
   2   5  -5    3.65    0.39 
  -2  -5   5    3.47    0.40 
   1   5  -5   47.61    2.04 
   1   5  -5   47.73    2.03 
  -1  -5   5   48.75    2.16 
   0   5  -5   27.40    1.25 
   0   5  -5   26.05    1.21 
  -1   5  -5   17.36    0.88 
  -1   5  -5   16.42    0.89 
  -2   5  -5    6.60    0.51 
  -2   5  -5    5.49    0.48 
  -3   5  -5   23.81    1.21 
  -3   5  -5   22.84    1.16 
  -4   5  -5   28.87    1.40 
  -4   5  -5   28.04    1.48 
  -5   5  -5    0.01    0.27 
  -5   5  -5   -0.06    0.32 
  -6   5  -5    0.84    0.46 
  -6   5  -5    0.56    0.36 
  -7   5  -5    0.05    0.45 
   7   4  -5    1.75    0.39 
   6   4  -5    2.96    0.45 
  -6  -4   5    4.34    0.61 
   5   4  -5    5.23    0.50 
  -5  -4   5    6.13    0.60 
   4   4  -5   20.57    1.03 
  -4  -4   5   19.54    1.07 
   3   4  -5   19.37    0.96 
  -3  -4   5   20.01    1.06 
   2   4  -5   29.46    1.28 
  -2  -4   5   26.78    1.36 
   1   4  -5   44.21    1.84 
   1   4  -5   43.56    1.79 
  -1  -4   5   42.00    1.97 
   0   4  -5    6.04    0.35 
   0   4  -5    6.71    0.48 
   0  -4   5    6.07    0.47 
  -1   4  -5   19.53    0.98 
  -1   4  -5   19.89    0.94 
  -2   4  -5   32.87    1.52 
  -2   4  -5   33.65    1.50 
  -3   4  -5    7.13    0.55 
  -3   4  -5    7.35    0.55 
  -4   4  -5    0.01    0.24 
  -4   4  -5    0.35    0.31 
  -5   4  -5   18.88    1.13 
  -5   4  -5   17.44    1.03 
  -6   4  -5   -0.21    0.37 
  -6   4  -5   -0.29    0.28 
  -7   4  -5    0.39    0.48 
  -8   4  -5    2.16    0.62 
  -8  -3   5   -0.16    0.54 
  -7  -3   5    0.14    0.41 
  -7  -3   5    1.02    0.54 
   6   3  -5    0.13    0.24 
  -6  -3   5    0.29    0.36 
  -6  -3   5    0.22    0.41 
   5   3  -5   25.99    1.21 
  -5  -3   5   25.03    1.37 
   4   3  -5   73.20    2.96 
  -4  -3   5   73.40    3.26 
   3   3  -5    6.65    0.45 
  -3  -3   5    6.91    0.54 
   2   3  -5  153.30    5.85 
  -2  -3   5  151.24    6.38 
   1   3  -5  130.77    5.01 
  -1  -3   5  128.39    5.47 
  -1   3  -5    0.28    0.17 
  -1   3  -5   -0.03    0.11 
  -2   3  -5   64.78    2.65 
  -2   3  -5   64.95    2.77 
  -3   3  -5   78.92    3.21 
  -3   3  -5   80.36    3.43 
  -4   3  -5    3.83    0.48 
  -4   3  -5    3.09    0.40 
  -5   3  -5    8.17    0.66 
  -5   3  -5    9.19    0.78 
  -6   3  -5    0.52    0.37 
  -6   3  -5    0.34    0.32 
  -7   3  -5   -0.08    0.33 
  -7   3  -5    0.14    0.42 
  -8   3  -5    0.42    0.45 
  -8  -2   5    2.84    0.59 
  -7  -2   5    6.71    0.74 
   6   2  -5    0.09    0.23 
  -6  -2   5   -0.30    0.31 
   5   2  -5   24.51    1.11 
  -5  -2   5   22.78    1.22 
   4   2  -5   19.14    0.90 
  -4  -2   5   17.71    0.97 
  -4  -2   5   20.20    1.07 
   3   2  -5   49.12    2.00 
  -3  -2   5   48.69    2.24 
  -3  -2   5   50.11    2.11 
   2   2  -5   89.43    3.49 
  -2  -2   5   88.94    3.84 
  -2  -2   5   90.30    3.65 
   1   2  -5   42.73    1.74 
  -1  -2   5   41.36    1.91 
   0   2  -5   57.74    2.36 
   0  -2   5   59.10    2.57 
  -1   2  -5   51.31    2.11 
  -2   2  -5   46.07    1.92 
  -3   2  -5    2.18    0.32 
  -4   2  -5   32.92    1.50 
  -5   2  -5   49.64    2.16 
  -6   2  -5    0.51    0.33 
  -7   2  -5    3.59    0.56 
  -7   2  -5    3.57    0.68 
  -8   2  -5    1.25    0.53 
  -8  -1   5    0.26    0.50 
  -7  -1   5    0.38    0.43 
  -6  -1   5    5.85    0.64 
   5   1  -5   52.65    2.18 
  -5  -1   5   55.48    2.45 
   4   1  -5   15.25    0.73 
  -4  -1   5   16.46    0.87 
   3   1  -5    4.28    0.29 
  -3  -1   5    5.04    0.46 
  -3  -1   5    4.66    0.36 
  -2  -1   5   95.26    4.08 
  -2  -1   5   95.76    3.91 
   1   1  -5   81.00    3.13 
  -1  -1   5   78.24    3.44 
  -1  -1   5   81.27    3.27 
   0   1  -5    0.15    0.11 
   0  -1   5    0.77    0.21 
   0  -1   5    0.42    0.09 
  -1   1  -5   55.30    2.23 
  -2   1  -5  126.39    4.88 
  -3   1  -5   42.71    1.82 
  -4   1  -5    1.07    0.28 
  -5   1  -5    2.15    0.39 
  -6   1  -5    0.81    0.35 
  -7   1  -5    1.23    0.44 
  -8   1  -5    1.09    0.47 
  -8   1  -5    0.56    0.46 
  -8   0   5    2.84    0.67 
  -7   0   5    0.42    0.47 
  -6   0   5    3.00    0.51 
  -5   0   5    8.48    0.68 
   4   0  -5    7.27    0.38 
  -4   0   5    7.46    0.55 
   3   0  -5   81.30    3.13 
  -3   0   5   83.37    3.57 
  -3   0   5   80.61    3.44 
   2   0  -5   33.83    1.40 
  -2   0   5   35.60    1.54 
  -2   0   5   35.20    1.62 
  -1   0   5   49.98    2.11 
  -1   0   5   50.28    2.22 
   0   0  -5  108.97    4.07 
   0   0   5  104.01    4.33 
   0   0   5  104.50    4.48 
  -1   0  -5   18.52    0.84 
   1   0   5   18.28    0.92 
   1   0   5   18.01    0.87 
  -2   0  -5   17.46    0.85 
  -3   0  -5   27.34    1.25 
  -4   0  -5   56.32    2.37 
  -5   0  -5   12.70    0.82 
  -6   0  -5    5.10    0.60 
  -7   0  -5    0.20    0.40 
  -8   0  -5    0.98    0.50 
  -8   1   5    1.08    0.60 
  -7   1   5   11.89    1.02 
  -6   1   5   18.13    1.14 
  -5   1   5    6.54    0.63 
   4  -1  -5   10.08    0.42 
  -4   1   5    8.11    0.66 
   3  -1  -5    6.69    0.31 
  -3   1   5    6.94    0.52 
   2  -1  -5   99.68    3.77 
  -2   1   5  100.13    4.15 
  -2   1   5   97.50    4.23 
   1  -1  -5   27.25    1.11 
  -1   1   5   26.94    1.23 
  -1   1   5   26.15    1.27 
   0  -1  -5   94.25    3.67 
   0   1   5   98.74    3.97 
   0   1   5   93.39    4.05 
  -1  -1  -5  155.54    6.00 
   1   1   5  158.09    6.57 
   1   1   5  158.36    6.46 
  -2  -1  -5   43.83    1.83 
  -3  -1  -5   22.36    1.09 
  -4  -1  -5    6.58    0.57 
  -5  -1  -5    7.54    0.66 
  -6  -1  -5    5.29    0.62 
  -7  -1  -5   -0.19    0.34 
  -8  -1  -5    0.66    0.50 
  -8   2   5    0.70    0.65 
  -7   2   5   -0.22    0.47 
  -6   2   5    1.19    0.48 
  -5   2   5    4.77    0.60 
  -4   2   5   29.63    1.51 
  -3   2   5   65.73    2.90 
   2  -2  -5    4.33    0.25 
  -2   2   5    5.64    0.44 
  -2   2   5    5.11    0.46 
   1  -2  -5  101.93    3.91 
  -1   2   5  102.08    4.34 
  -1   2   5  103.78    4.30 
   0  -2  -5  145.36    5.48 
   0   2   5  145.76    5.95 
   0   2   5  140.48    6.01 
  -1  -2  -5   28.35    1.26 
   1   2   5   29.63    1.34 
   1   2   5   29.05    1.37 
  -2  -2  -5   15.31    0.80 
  -3  -2  -5   94.37    3.77 
  -4  -2  -5   25.54    1.29 
  -5  -2  -5    0.14    0.30 
  -6  -2  -5    2.06    0.47 
  -7  -2  -5   -0.50    0.36 
  -8   3   5    0.04    0.61 
  -7   3   5   10.92    1.05 
  -6   3   5    2.21    0.57 
  -5   3   5    0.41    0.40 
  -4   3   5    4.57    0.58 
  -3   3   5    5.43    0.57 
   2  -3  -5   52.69    2.01 
  -2   3   5   51.82    2.34 
  -2   3   5   52.10    2.38 
   1  -3  -5    4.05    0.28 
  -1   3   5    4.14    0.44 
  -1   3   5    4.43    0.38 
   0  -3  -5  107.59    4.05 
   0   3   5  103.06    4.44 
   0   3   5  103.58    4.43 
  -1  -3  -5   28.89    1.29 
   1   3   5   29.36    1.34 
   1   3   5   29.96    1.43 
  -2  -3  -5   12.54    0.75 
   2   3   5   15.29    0.86 
  -3  -3  -5   40.72    1.82 
  -4  -3  -5    2.79    0.44 
  -5  -3  -5   17.31    1.05 
  -6  -3  -5    1.56    0.48 
  -7  -3  -5    0.54    0.46 
  -8   4   5    0.40    0.65 
  -7   4   5    1.34    0.65 
  -6   4   5   -0.02    0.50 
  -5   4   5    8.02    0.83 
  -4   4   5    8.57    0.82 
  -3   4   5    2.42    0.50 
   2  -4  -5   25.07    1.01 
  -2   4   5   25.55    1.26 
  -2   4   5   24.39    1.36 
   1  -4  -5   58.32    2.30 
  -1   4   5   57.43    2.64 
  -1   4   5   59.39    2.57 
   0  -4  -5   34.38    1.50 
   0   4   5   32.41    1.72 
   0   4   5   39.80    1.65 
  -1  -4  -5    0.09    0.15 
   1   4   5    0.13    0.10 
   1   4   5    0.17    0.25 
  -2  -4  -5   31.34    1.43 
   2   4   5   30.76    1.56 
  -3  -4  -5   30.98    1.45 
   3   4   5   28.51    1.55 
  -4  -4  -5    0.43    0.30 
  -5  -4  -5    1.04    0.41 
  -6  -4  -5    0.92    0.45 
  -7  -4  -5    0.10    0.42 
  -7   5   5    2.28    0.75 
  -6   5   5    0.44    0.55 
  -5   5   5    0.18    0.47 
  -4   5   5    8.19    0.87 
  -3   5   5   14.00    1.02 
  -2   5   5    6.04    0.67 
  -2   5   5    5.26    0.47 
   1  -5  -5   16.25    0.75 
  -1   5   5   16.41    0.85 
  -1   5   5   14.31    0.99 
   0  -5  -5   25.39    1.16 
   0   5   5   26.08    1.41 
  -1  -5  -5   21.98    1.08 
   1   5   5   22.12    1.24 
  -2  -5  -5   11.68    0.73 
   2   5   5   10.62    0.82 
  -3  -5  -5    1.76    0.37 
   3   5   5    2.19    0.46 
  -4  -5  -5    4.76    0.58 
  -5  -5  -5    6.88    0.74 
  -6  -5  -5   -0.07    0.36 
  -7   6   5    0.06    0.62 
  -6   6   5    1.02    0.64 
  -5   6   5    7.87    0.96 
  -4   6   5    2.64    0.62 
  -3   6   5    0.73    0.44 
  -2   6   5   25.14    1.26 
  -2   6   5   24.02    1.45 
   1  -6  -5   24.17    1.08 
  -1   6   5   23.56    1.40 
   0  -6  -5    0.81    0.26 
   0   6   5    0.52    0.34 
  -1  -6  -5    8.83    0.60 
   1   6   5    7.31    0.74 
  -2  -6  -5   10.22    0.71 
   2   6   5    9.78    0.85 
  -3  -6  -5    5.26    0.57 
   3   6   5    5.67    0.70 
  -4  -6  -5    0.62    0.35 
  -5  -6  -5    1.02    0.44 
  -6   7   5   -1.03    0.57 
  -5   7   5    0.35    0.58 
  -4   7   5    3.89    0.75 
  -3   7   5    0.81    0.54 
  -2   7   5    1.08    0.47 
  -1   7   5    1.81    0.53 
   0  -7  -5    5.99    0.50 
   0   7   5    5.08    0.68 
  -1  -7  -5   20.14    1.06 
   1   7   5   19.57    1.24 
  -2  -7  -5    1.57    0.38 
   2   7   5    1.91    0.48 
  -3  -7  -5    4.02    0.55 
   3   7   5    3.83    0.65 
  -4  -7  -5    1.94    0.47 
  -5  -7  -5    0.20    0.34 
  -5   8   5    1.50    0.68 
  -4   8   5    0.67    0.58 
  -3   8   5    4.20    0.79 
  -2   8   5    8.15    0.96 
  -1   8   5   -0.13    0.39 
   0   8   5    1.73    0.51 
  -1  -8  -5    4.26    0.50 
   1   8   5    3.91    0.68 
  -2  -8  -5    0.81    0.35 
   2   8   5    1.07    0.48 
  -3  -8  -5    0.22    0.33 
   3   8   5    0.37    0.42 
  -4  -8  -5    0.20    0.32 
  -4   9   5    1.05    0.66 
  -3   9   5    0.12    0.49 
  -2   9   5    0.53    0.48 
  -1   9   5    1.38    0.53 
   0   9   5    5.30    0.80 
   1   9   5    4.01    0.73 
  -2  -9  -5    1.74    0.42 
   2   9   5    0.83    0.47 
  -2  10   5    1.78    0.63 
  -1  10   5    0.37    0.43 
   0  10   5    0.66    0.46 
   2  11  -6    0.82    0.43 
   1  11  -6    0.35    0.40 
   0  11  -6    0.04    0.32 
  -1  11  -6    0.01    0.34 
  -2  11  -6   -0.22    0.30 
   4  10  -6   -0.18    0.29 
   3  10  -6    0.54    0.39 
   2  10  -6    2.82    0.55 
   1  10  -6    0.30    0.34 
   0  10  -6    2.65    0.50 
  -1  10  -6    2.34    0.47 
  -2  10  -6    0.21    0.31 
  -3  10  -6    0.04    0.29 
  -5  10  -6    0.64    0.43 
   5   9  -6    0.86    0.37 
   4   9  -6    0.08    0.34 
   3   9  -6    0.15    0.38 
   2   9  -6    1.02    0.38 
   1   9  -6    0.34    0.32 
   0   9  -6    3.43    0.52 
  -1   9  -6    1.06    0.35 
  -2   9  -6    4.08    0.53 
  -3   9  -6    5.41    0.58 
  -3   9  -6    4.40    0.64 
  -4   9  -6   -0.05    0.37 
  -5   9  -6   -0.62    0.33 
   6   8  -6    0.66    0.39 
   5   8  -6    0.09    0.31 
   4   8  -6    5.21    0.64 
   3   8  -6   12.23    0.87 
   2   8  -6    0.28    0.29 
   1   8  -6    2.39    0.44 
   0   8  -6    1.05    0.34 
  -1   8  -6    7.11    0.52 
  -1   8  -6    6.16    0.59 
  -2   8  -6    0.19    0.27 
  -2   8  -6    0.28    0.35 
  -3   8  -6    0.78    0.31 
  -3   8  -6    0.21    0.37 
  -4   8  -6    5.37    0.59 
  -4   8  -6    5.54    0.67 
  -5   8  -6    0.71    0.47 
  -6   8  -6   -0.67    0.36 
   6   7  -6    1.63    0.45 
   5   7  -6    1.06    0.38 
   4   7  -6    0.80    0.35 
   3   7  -6   12.43    0.85 
   2   7  -6    0.26    0.25 
  -2  -7   6    0.30    0.25 
   1   7  -6   14.38    0.88 
   0   7  -6    5.68    0.56 
   0   7  -6    7.44    0.46 
  -1   7  -6   11.88    0.73 
  -1   7  -6   11.50    0.77 
  -2   7  -6   13.02    0.83 
  -3   7  -6   10.87    0.79 
  -3   7  -6    9.79    0.74 
  -4   7  -6    1.67    0.45 
  -4   7  -6    0.58    0.30 
  -5   7  -6    1.68    0.42 
  -5   7  -6    1.07    0.46 
  -6   7  -6    3.35    0.65 
  -7   7  -6    0.37    0.51 
   7   6  -6    0.71    0.40 
   6   6  -6    0.82    0.35 
   5   6  -6    0.29    0.30 
   4   6  -6   23.82    1.26 
   3   6  -6   12.21    0.79 
  -3  -6   6   12.48    0.80 
   2   6  -6    6.79    0.59 
  -2  -6   6    7.16    0.58 
   1   6  -6    0.86    0.13 
   1   6  -6    0.92    0.28 
  -1  -6   6    0.54    0.29 
   0   6  -6    1.92    0.35 
   0   6  -6    1.55    0.21 
  -1   6  -6    9.79    0.62 
  -1   6  -6    9.23    0.67 
  -2   6  -6    2.07    0.36 
  -3   6  -6    7.89    0.65 
  -3   6  -6    8.52    0.68 
  -4   6  -6    2.37    0.46 
  -4   6  -6    2.62    0.44 
  -5   6  -6    0.49    0.39 
  -5   6  -6   -0.01    0.29 
  -6   6  -6    0.07    0.39 
  -7   6  -6    2.08    0.61 
   7   5  -6    0.94    0.40 
   6   5  -6    1.14    0.36 
   5   5  -6    4.75    0.54 
  -5  -5   6    7.07    0.65 
   4   5  -6    6.19    0.56 
  -4  -5   6    7.31    0.65 
   3   5  -6    0.57    0.24 
  -3  -5   6    0.06    0.27 
   2   5  -6   14.49    0.82 
  -2  -5   6   14.09    0.85 
   1   5  -6   11.41    0.78 
   1   5  -6   16.12    0.67 
  -1  -5   6   15.02    0.86 
   0   5  -6    0.26    0.20 
   0   5  -6    0.51    0.13 
  -1   5  -6   75.21    3.12 
  -1   5  -6   71.72    3.02 
  -3   5  -6   11.05    0.75 
  -3   5  -6   11.96    0.74 
  -4   5  -6   10.81    0.77 
  -4   5  -6   10.87    0.79 
  -5   5  -6   10.06    0.85 
  -5   5  -6    8.49    0.74 
  -6   5  -6    2.65    0.51 
  -6   5  -6    1.57    0.54 
  -7   5  -6    0.85    0.56 
   7   4  -6    1.38    0.35 
  -7  -4   6    2.17    0.59 
   6   4  -6   -0.06    0.25 
  -6  -4   6   -0.16    0.41 
   5   4  -6    6.54    0.56 
  -5  -4   6    6.92    0.67 
   4   4  -6   14.85    0.82 
  -4  -4   6   13.27    0.86 
   3   4  -6   10.41    0.67 
  -3  -4   6   12.83    0.77 
   2   4  -6    0.40    0.19 
  -2  -4   6    0.64    0.29 
   1   4  -6   12.54    0.70 
  -1  -4   6   12.02    0.76 
   0   4  -6    7.81    0.39 
   0   4  -6    7.75    0.53 
   0  -4   6    7.48    0.56 
  -1   4  -6   14.78    0.83 
  -1   4  -6   16.19    0.77 
  -3   4  -6   20.49    1.05 
  -3   4  -6   18.08    1.00 
  -4   4  -6    8.22    0.66 
  -4   4  -6    8.31    0.68 
  -5   4  -6    1.90    0.43 
  -5   4  -6    1.76    0.41 
  -6   4  -6    0.10    0.37 
  -6   4  -6   -0.17    0.31 
  -7   4  -6    9.60    0.85 
  -7   4  -6   10.15    0.99 
  -8  -3   6    0.69    0.57 
  -7  -3   6   -0.23    0.49 
   6   3  -6    3.66    0.44 
  -6  -3   6    3.24    0.50 
  -6  -3   6    4.20    0.64 
   5   3  -6   38.25    1.74 
  -5  -3   6   41.39    1.86 
  -5  -3   6   39.44    1.99 
   4   3  -6    3.45    0.35 
  -4  -3   6    2.21    0.44 
  -4  -3   6    3.46    0.35 
   3   3  -6   47.05    1.94 
  -3  -3   6   44.11    2.12 
  -3  -3   6   46.46    1.96 
   2   3  -6    4.36    0.37 
  -2  -3   6    4.70    0.47 
   1   3  -6   16.37    0.84 
  -1  -3   6   16.41    0.92 
   0   3  -6    0.44    0.08 
   0   3  -6    0.66    0.20 
   0  -3   6    1.01    0.27 
  -1   3  -6  101.49    4.32 
  -1   3  -6  110.24    4.18 
  -2   3  -6   27.49    1.28 
  -3   3  -6    3.26    0.39 
  -3   3  -6    2.96    0.37 
  -4   3  -6   19.55    1.04 
  -4   3  -6   18.26    1.08 
  -5   3  -6    0.44    0.30 
  -5   3  -6    0.75    0.37 
  -6   3  -6   -0.37    0.32 
  -6   3  -6    0.55    0.35 
  -7   3  -6   -0.01    0.41 
  -7   3  -6    0.38    0.39 
  -8   3  -6   -0.02    0.42 
  -8  -2   6    0.19    0.59 
  -7  -2   6    0.66    0.58 
  -7  -2   6    0.82    0.44 
  -6  -2   6    4.79    0.59 
  -6  -2   6    4.46    0.67 
  -5  -2   6    3.85    0.55 
  -5  -2   6    4.78    0.50 
   4   2  -6    5.64    0.38 
  -4  -2   6    4.52    0.42 
  -4  -2   6    4.25    0.54 
   3   2  -6    3.05    0.29 
  -3  -2   6    2.93    0.27 
  -3  -2   6    2.70    0.39 
  -2  -2   6    1.83    0.17 
   1   2  -6   43.32    1.81 
  -1  -2   6   43.37    2.00 
   0   2  -6   24.44    1.11 
   0  -2   6   23.43    1.20 
  -2   2  -6    7.91    0.55 
  -3   2  -6   26.99    1.28 
  -4   2  -6   17.56    0.96 
  -5   2  -6    4.30    0.51 
  -6   2  -6    8.43    0.74 
  -7   2  -6    4.47    0.63 
  -7   2  -6    4.42    0.74 
  -8   2  -6    0.44    0.42 
  -8   2  -6    1.28    0.49 
  -8  -1   6    0.09    0.48 
  -7  -1   6    0.84    0.47 
  -6  -1   6   22.70    1.28 
   5   1  -6   13.15    0.65 
  -5  -1   6   13.13    0.81 
  -5  -1   6   12.18    0.91 
   4   1  -6   25.35    1.10 
  -4  -1   6   24.39    1.21 
  -4  -1   6   25.86    1.34 
   3   1  -6   78.11    3.03 
  -3  -1   6   77.74    3.42 
  -3  -1   6   76.92    3.25 
   2   1  -6    1.82    0.21 
  -2  -1   6    2.17    0.22 
  -2  -1   6    2.27    0.34 
   1   1  -6   92.25    3.45 
  -1  -1   6   83.66    3.57 
  -1  -1   6   87.77    3.79 
   0   1  -6    7.06    0.45 
   0  -1   6    6.11    0.49 
   0  -1   6    6.47    0.35 
  -1   1  -6  209.89    8.05 
   1  -1   6  213.07    8.81 
  -2   1  -6   17.24    0.87 
  -3   1  -6   12.56    0.73 
  -4   1  -6   11.77    0.76 
  -5   1  -6    3.57    0.47 
  -6   1  -6    0.35    0.33 
  -7   1  -6    0.57    0.41 
  -8   1  -6    2.22    0.60 
  -8   0   6   -0.15    0.47 
  -7   0   6    0.18    0.42 
  -6   0   6    5.76    0.65 
  -5   0   6    6.20    0.59 
   4   0  -6   22.87    0.97 
  -4   0   6   24.10    1.18 
  -4   0   6   21.73    1.26 
  -3   0   6    0.72    0.22 
  -3   0   6    0.53    0.28 
   2   0  -6    8.21    0.44 
  -2   0   6    8.36    0.50 
  -2   0   6    7.85    0.56 
   1   0  -6   44.24    1.83 
  -1   0   6   46.21    1.92 
  -1   0   6   44.08    2.04 
   0   0  -6   59.74    2.37 
   0   0   6   60.04    2.63 
   0   0   6   58.24    2.49 
  -1   0  -6    3.21    0.31 
   1   0   6    4.34    0.41 
   1   0   6    3.80    0.33 
  -2   0  -6   31.14    1.38 
  -3   0  -6   43.17    1.87 
  -4   0  -6    2.19    0.39 
  -5   0  -6   21.67    1.19 
  -6   0  -6    9.19    0.80 
  -7   0  -6    0.10    0.40 
  -8   1   6    0.00    0.52 
  -7   1   6    4.36    0.71 
  -6   1   6   11.34    0.92 
  -5   1   6    2.16    0.46 
  -4   1   6   18.43    1.02 
   3  -1  -6   17.40    0.72 
  -3   1   6   17.25    0.97 
  -3   1   6   17.39    0.95 
   2  -1  -6    6.78    0.34 
  -2   1   6    5.13    0.48 
  -2   1   6    4.53    0.42 
   1  -1  -6    9.88    0.52 
  -1   1   6   10.02    0.64 
  -1   1   6    9.65    0.57 
   0  -1  -6   69.76    2.82 
   0   1   6   72.41    3.14 
   0   1   6   73.78    3.05 
  -1  -1  -6   64.39    2.58 
   1   1   6   64.84    2.77 
   1   1   6   64.09    2.83 
  -2  -1  -6    0.18    0.16 
  -3  -1  -6    2.74    0.37 
  -4  -1  -6    2.78    0.43 
  -5  -1  -6    0.97    0.35 
  -6  -1  -6    0.41    0.37 
  -7  -1  -6    4.05    0.66 
  -8   2   6    1.31    0.69 
  -7   2   6   -0.33    0.47 
  -6   2   6    6.49    0.75 
  -5   2   6   11.75    0.89 
  -4   2   6    8.57    0.72 
  -3   2   6   10.93    0.74 
  -3   2   6   10.39    0.72 
   2  -2  -6   18.91    0.82 
  -2   2   6   19.48    1.03 
  -2   2   6   18.86    1.02 
   1  -2  -6   30.05    1.20 
  -1   2   6   26.82    1.36 
  -1   2   6   29.07    1.40 
   0  -2  -6   12.22    0.63 
   0   2   6   13.29    0.74 
   0   2   6   12.13    0.71 
  -1  -2  -6    8.44    0.53 
   1   2   6    9.09    0.59 
  -2  -2  -6   34.13    1.62 
   2   2   6   40.69    1.77 
  -3  -2  -6    1.90    0.36 
  -4  -2  -6    9.47    0.72 
  -5  -2  -6   10.42    0.83 
  -6  -2  -6    1.63    0.50 
  -7  -2  -6    0.38    0.44 
  -8   3   6    3.51    0.81 
  -7   3   6    2.56    0.76 
  -6   3   6    0.23    0.45 
  -5   3   6    8.06    0.80 
  -4   3   6    6.46    0.70 
  -3   3   6   17.77    1.13 
  -3   3   6   21.16    1.12 
   2  -3  -6    0.15    0.09 
  -2   3   6    0.33    0.26 
  -2   3   6    0.55    0.25 
   1  -3  -6   46.53    1.89 
  -1   3   6   48.46    2.17 
  -1   3   6   47.11    2.14 
   0  -3  -6   26.83    1.17 
   0   3   6   26.26    1.29 
   0   3   6   26.77    1.33 
  -1  -3  -6    2.84    0.32 
   1   3   6    2.10    0.38 
   1   3   6    2.20    0.29 
  -2  -3  -6   -0.03    0.21 
   2   3   6    0.55    0.28 
  -3  -3  -6    0.79    0.31 
  -4  -3  -6   12.31    0.84 
  -5  -3  -6    0.60    0.37 
  -6  -3  -6    3.82    0.65 
  -7  -3  -6    5.33    0.78 
  -8   4   6   -0.91    0.58 
  -7   4   6   -0.15    0.54 
  -6   4   6   10.28    1.01 
  -5   4   6    8.47    0.89 
  -4   4   6    1.59    0.50 
  -3   4   6   11.52    0.88 
  -3   4   6    9.60    0.75 
  -2   4   6   22.27    1.28 
  -2   4   6   22.83    1.19 
   1  -4  -6   19.48    0.87 
  -1   4   6   18.85    1.10 
   0  -4  -6    2.60    0.30 
   0   4   6    2.53    0.43 
   0   4   6    3.58    0.37 
  -1  -4  -6   40.50    1.77 
   1   4   6   41.58    1.98 
   1   4   6   41.39    1.84 
  -2  -4  -6   15.47    0.89 
   2   4   6   16.30    1.00 
  -3  -4  -6    5.70    0.55 
   3   4   6    5.45    0.65 
  -4  -4  -6    6.77    0.66 
  -5  -4  -6    2.11    0.48 
  -6  -4  -6    0.63    0.44 
  -7   5   6    0.24    0.62 
  -6   5   6    0.33    0.57 
  -5   5   6    1.52    0.57 
  -4   5   6    2.30    0.57 
  -3   5   6    2.20    0.56 
  -3   5   6    3.08    0.46 
  -2   5   6    5.84    0.67 
  -2   5   6    5.79    0.53 
   1  -5  -6   22.34    1.01 
  -1   5   6   22.17    1.15 
  -1   5   6   22.24    1.29 
   0  -5  -6    4.00    0.37 
   0   5   6    4.68    0.58 
  -1  -5  -6    1.24    0.30 
   1   5   6    1.23    0.41 
  -2  -5  -6    0.59    0.30 
   2   5   6    1.32    0.41 
  -3  -5  -6    2.39    0.45 
   3   5   6    2.50    0.51 
  -4  -5  -6    8.37    0.77 
  -5  -5  -6    1.40    0.45 
  -6  -5  -6    2.48    0.58 
  -7   6   6    1.51    0.78 
  -6   6   6    3.41    0.81 
  -5   6   6    0.74    0.58 
  -4   6   6    0.70    0.52 
  -3   6   6    7.61    0.88 
  -3   6   6    8.43    0.70 
  -2   6   6    8.41    0.85 
  -1   6   6    0.29    0.39 
   0  -6  -6   12.09    0.72 
   0   6   6   12.16    0.92 
  -1  -6  -6    9.79    0.65 
   1   6   6    8.22    0.83 
  -2  -6  -6    1.70    0.37 
   2   6   6    1.53    0.47 
  -3  -6  -6    0.72    0.34 
   3   6   6    1.19    0.49 
  -4  -6  -6    3.03    0.54 
  -5  -6  -6    1.13    0.42 
  -6   7   6    0.17    0.63 
  -5   7   6    0.75    0.61 
  -4   7   6   -0.13    0.48 
  -3   7   6    0.16    0.51 
  -2   7   6    8.81    0.95 
  -1   7   6    8.83    0.92 
   0   7   6    3.31    0.59 
  -1  -7  -6   -0.21    0.23 
   1   7   6    0.34    0.43 
  -2  -7  -6    1.66    0.38 
   2   7   6    0.90    0.47 
  -3  -7  -6    2.90    0.51 
   3   7   6    2.35    0.57 
  -4  -7  -6    0.37    0.37 
  -5   8   6    0.59    0.65 
  -4   8   6    0.38    0.59 
  -3   8   6    4.94    0.84 
  -2   8   6    0.22    0.48 
  -1   8   6    3.52    0.73 
   0   8   6    3.33    0.66 
  -1  -8  -6    0.68    0.30 
   1   8   6    0.43    0.44 
  -2  -8  -6    1.00    0.36 
   2   8   6    1.00    0.50 
  -3  -8  -6    0.36    0.36 
   3   8   6    0.20    0.40 
  -4   9   6    0.53    0.62 
  -3   9   6    0.87    0.61 
  -2   9   6    2.87    0.74 
  -1   9   6    3.37    0.77 
   0   9   6    1.97    0.56 
   1   9   6    0.68    0.48 
  -2  -9  -6    1.08    0.36 
   2   9   6    2.48    0.60 
   2  11  -7    0.28    0.37 
   1  11  -7    0.64    0.42 
   0  11  -7   -0.03    0.33 
  -1  11  -7   -0.15    0.33 
  -2  11  -7    2.94    0.53 
   4  10  -7    1.05    0.40 
   3  10  -7    1.63    0.49 
   2  10  -7   -0.40    0.33 
   1  10  -7    3.23    0.55 
   0  10  -7    2.26    0.49 
  -1  10  -7    0.15    0.33 
  -2  10  -7    1.19    0.41 
  -3  10  -7    0.92    0.38 
   5   9  -7    0.17    0.30 
   4   9  -7    0.05    0.37 
   3   9  -7    0.35    0.36 
   2   9  -7    0.01    0.32 
   1   9  -7    1.44    0.42 
   0   9  -7    2.02    0.46 
  -1   9  -7    5.83    0.63 
  -2   9  -7    5.06    0.60 
  -3   9  -7    0.86    0.36 
  -4   9  -7   -0.19    0.31 
   6   8  -7    0.09    0.31 
   5   8  -7    1.53    0.45 
   4   8  -7    0.70    0.34 
   3   8  -7    0.06    0.30 
   2   8  -7    1.05    0.38 
   1   8  -7    9.68    0.79 
   0   8  -7    1.68    0.38 
  -1   8  -7   -0.10    0.25 
  -2   8  -7    3.06    0.47 
  -3   8  -7   12.15    0.88 
  -3   8  -7   12.26    0.89 
  -4   8  -7    0.75    0.40 
  -4   8  -7    0.81    0.38 
  -5   8  -7    0.10    0.38 
  -5   8  -7   -0.05    0.32 
  -6   8  -7   -0.09    0.39 
   6   7  -7    0.87    0.38 
   5   7  -7    0.35    0.33 
   4   7  -7   -0.06    0.26 
   3   7  -7    5.27    0.59 
   2   7  -7    1.11    0.34 
  -2  -7   7    1.73    0.36 
   1   7  -7    0.06    0.23 
   0   7  -7   39.31    1.83 
  -1   7  -7   16.81    0.99 
  -2   7  -7    2.53    0.44 
  -2   7  -7    4.54    0.47 
  -3   7  -7    2.83    0.47 
  -3   7  -7    3.48    0.49 
  -4   7  -7    1.37    0.41 
  -4   7  -7    0.56    0.33 
  -5   7  -7    7.50    0.74 
  -5   7  -7   10.90    0.91 
  -6   7  -7    0.35    0.47 
   7   6  -7    0.30    0.31 
   6   6  -7    0.55    0.34 
   5   6  -7    6.28    0.64 
   4   6  -7    0.37    0.31 
  -4  -6   7    0.36    0.41 
   3   6  -7    5.82    0.58 
  -3  -6   7    6.01    0.59 
   2   6  -7    6.60    0.60 
  -2  -6   7    6.50    0.60 
   1   6  -7   16.67    0.96 
  -1  -6   7   17.39    1.00 
   0   6  -7   11.68    0.77 
  -1   6  -7    3.15    0.43 
  -1   6  -7    3.91    0.37 
  -2   6  -7   16.17    0.89 
  -2   6  -7   15.29    0.92 
  -3   6  -7   21.30    1.15 
  -3   6  -7   19.93    1.13 
  -4   6  -7    0.74    0.36 
  -4   6  -7    1.59    0.41 
  -5   6  -7    1.79    0.46 
  -5   6  -7    1.33    0.42 
  -6   6  -7    3.63    0.64 
  -6   6  -7    3.52    0.59 
  -7   6  -7    2.01    0.60 
   7   5  -7    1.48    0.39 
   6   5  -7    0.13    0.28 
   5   5  -7    1.66    0.37 
  -5  -5   7    1.16    0.48 
   4   5  -7    1.61    0.36 
  -4  -5   7    2.09    0.48 
   3   5  -7   11.38    0.74 
  -3  -5   7   11.04    0.80 
   2   5  -7    6.36    0.55 
  -2  -5   7    7.28    0.64 
   1   5  -7   14.19    0.84 
  -1  -5   7   14.58    0.88 
   0   5  -7   80.12    3.25 
   0   5  -7   77.67    3.26 
  -1   5  -7   12.41    0.66 
  -1   5  -7   12.15    0.77 
  -2   5  -7    4.45    0.41 
  -2   5  -7    3.88    0.46 
  -3   5  -7   12.82    0.75 
  -3   5  -7   11.20    0.80 
  -4   5  -7    5.76    0.62 
  -4   5  -7    5.25    0.59 
  -5   5  -7    6.39    0.69 
  -5   5  -7    6.72    0.68 
  -6   5  -7    0.47    0.42 
  -6   5  -7    0.50    0.40 
  -7   5  -7    0.28    0.46 
  -7  -4   7    0.19    0.50 
   6   4  -7    2.64    0.42 
  -6  -4   7    3.63    0.63 
   5   4  -7    3.82    0.46 
  -5  -4   7    3.76    0.56 
   4   4  -7    0.02    0.20 
  -4  -4   7    0.27    0.36 
   3   4  -7   16.38    0.89 
  -3  -4   7   16.42    0.97 
   2   4  -7   13.45    0.76 
  -2  -4   7   13.66    0.87 
   1   4  -7   22.22    1.12 
  -1  -4   7   23.22    1.22 
   0   4  -7    1.23    0.26 
   0  -4   7    1.70    0.35 
  -1   4  -7   35.45    1.68 
  -1   4  -7   39.25    1.64 
  -2   4  -7   26.47    1.22 
  -2   4  -7   24.08    1.26 
  -3   4  -7    1.20    0.33 
  -3   4  -7    0.73    0.25 
  -4   4  -7   -0.05    0.26 
  -4   4  -7   -0.14    0.26 
  -5   4  -7    7.54    0.74 
  -5   4  -7    8.28    0.73 
  -6   4  -7    8.31    0.87 
  -6   4  -7   10.88    0.86 
  -7   4  -7    0.20    0.38 
  -7   4  -7    0.34    0.44 
  -8  -3   7    1.13    0.68 
  -7  -3   7    0.41    0.54 
   6   3  -7   -0.04    0.22 
  -6  -3   7   -0.02    0.46 
   5   3  -7    7.55    0.58 
  -5  -3   7    8.55    0.75 
   4   3  -7    4.73    0.43 
  -4  -3   7    5.78    0.43 
  -4  -3   7    5.75    0.61 
   3   3  -7    4.32    0.40 
  -3  -3   7    4.78    0.32 
  -3  -3   7    5.80    0.58 
   1   3  -7   33.22    1.51 
  -1  -3   7   34.36    1.66 
   0   3  -7  127.26    5.12 
   0  -3   7  134.41    5.60 
  -1   3  -7    1.40    0.28 
  -1   3  -7    2.03    0.21 
  -2   3  -7    0.15    0.20 
  -3   3  -7   53.04    2.30 
  -4   3  -7    8.32    0.68 
  -5   3  -7    0.94    0.38 
  -5   3  -7    0.68    0.35 
  -6   3  -7    3.54    0.56 
  -6   3  -7    3.97    0.66 
  -7   3  -7    3.35    0.68 
  -7   3  -7    3.41    0.58 
  -8  -2   7   -0.41    0.53 
  -7  -2   7    6.42    0.82 
  -6  -2   7    3.45    0.65 
   5   2  -7    0.82    0.17 
  -5  -2   7    1.13    0.30 
  -5  -2   7    0.25    0.41 
  -4  -2   7    2.76    0.33 
   3   2  -7   16.89    0.83 
  -3  -2   7   16.61    0.98 
  -3  -2   7   17.39    0.82 
   2   2  -7   91.14    3.58 
  -2  -2   7   90.30    3.69 
  -2  -2   7   90.59    3.96 
   1   2  -7    4.99    0.41 
  -1  -2   7    4.97    0.51 
   0   2  -7   16.75    0.87 
   0  -2   7   16.78    0.96 
  -1   2  -7   57.69    2.48 
   1  -2   7   61.99    2.71 
  -2   2  -7   23.96    1.17 
  -3   2  -7   -0.28    0.21 
  -4   2  -7   11.53    0.80 
  -5   2  -7   18.96    1.09 
  -6   2  -7   11.64    0.90 
  -7   2  -7   -0.18    0.37 
  -8  -1   7    0.90    0.65 
  -7  -1   7    0.44    0.50 
  -6  -1   7    1.60    0.51 
  -6  -1   7    1.66    0.43 
  -5  -1   7    9.01    0.81 
  -5  -1   7    8.21    0.63 
   4   1  -7   15.12    0.72 
  -4  -1   7   15.32    0.98 
  -4  -1   7   14.76    0.82 
   3   1  -7    2.33    0.24 
  -3  -1   7    2.45    0.41 
  -3  -1   7    1.79    0.27 
   2   1  -7   18.78    0.89 
  -2  -1   7   18.38    0.88 
  -2  -1   7   20.11    1.07 
  -1  -1   7   16.98    0.87 
  -1  -1   7   12.49    0.63 
   0   1  -7   86.54    3.38 
   0  -1   7   82.66    3.49 
   0  -1   7   86.17    3.72 
  -1   1  -7    0.28    0.19 
   1  -1   7    0.04    0.21 
  -2   1  -7   33.16    1.50 
  -3   1  -7   42.38    1.87 
  -4   1  -7    1.36    0.35 
  -5   1  -7   -0.19    0.27 
  -6   1  -7    4.08    0.59 
  -7   1  -7    3.75    0.64 
  -7   0   7    2.92    0.61 
  -6   0   7    0.85    0.48 
  -6   0   7    0.31    0.41 
  -5   0   7    0.75    0.37 
  -5   0   7    1.95    0.48 
   4   0  -7    1.05    0.14 
  -4   0   7    0.67    0.37 
  -4   0   7    0.52    0.29 
   3   0  -7   22.01    0.90 
  -3   0   7   20.06    1.04 
  -3   0   7   18.90    1.12 
   2   0  -7   18.80    0.88 
  -2   0   7   20.00    1.07 
  -2   0   7   19.85    0.96 
   1   0  -7   11.97    0.64 
  -1   0   7   11.59    0.77 
  -1   0   7   12.56    0.64 
   0   0  -7   49.48    1.96 
   0   0   7   46.64    2.17 
   0   0   7   45.39    2.02 
  -1   0  -7   19.57    0.98 
   1   0   7   21.35    1.00 
   1   0   7   20.17    1.08 
  -2   0  -7   23.19    1.12 
  -3   0  -7    7.58    0.59 
  -4   0  -7   36.45    1.71 
  -5   0  -7   12.87    0.90 
  -6   0  -7    1.30    0.45 
  -7   0  -7    0.87    0.47 
  -8   1   7    0.97    0.61 
  -7   1   7    1.31    0.57 
  -6   1   7   -0.12    0.40 
  -5   1   7    7.23    0.75 
  -5   1   7    8.32    0.72 
  -4   1   7    6.41    0.60 
  -4   1   7    6.25    0.64 
   3  -1  -7   12.58    0.55 
  -3   1   7   11.17    0.75 
  -3   1   7   12.25    0.82 
   2  -1  -7   56.28    2.27 
  -2   1   7   57.21    2.58 
  -2   1   7   57.77    2.50 
   1  -1  -7    7.35    0.45 
  -1   1   7    8.28    0.62 
  -1   1   7   10.08    0.56 
   0  -1  -7   31.45    1.37 
   0   1   7   32.89    1.46 
   0   1   7   30.49    1.54 
  -1  -1  -7   30.49    1.26 
   1   1   7   26.57    1.35 
   1   1   7   25.66    1.29 
  -2  -1  -7   57.80    2.41 
  -3  -1  -7   27.00    1.31 
  -4  -1  -7    0.91    0.32 
  -5  -1  -7    0.47    0.35 
  -6  -1  -7    6.98    0.76 
  -7  -1  -7    2.64    0.60 
  -8   2   7    0.52    0.59 
  -7   2   7    1.85    0.64 
  -6   2   7    3.66    0.67 
  -5   2   7    0.32    0.42 
  -4   2   7   14.66    0.96 
  -4   2   7   14.20    0.95 
  -3   2   7    5.77    0.58 
  -3   2   7    7.02    0.63 
   2  -2  -7    0.39    0.13 
  -2   2   7    0.23    0.25 
  -2   2   7    0.31    0.25 
   1  -2  -7    5.28    0.36 
  -1   2   7    4.93    0.49 
  -1   2   7    4.03    0.43 
   0  -2  -7   27.45    1.23 
   0   2   7   27.39    1.39 
   0   2   7   29.54    1.38 
  -1  -2  -7   46.19    1.95 
   1   2   7   45.95    2.12 
   1   2   7   47.16    2.11 
  -3  -2  -7   25.64    1.29 
  -4  -2  -7   23.56    1.26 
  -5  -2  -7    4.05    0.58 
  -6  -2  -7   -0.28    0.35 
  -7  -2  -7    0.28    0.46 
  -8   3   7    3.08    0.76 
  -7   3   7    0.38    0.55 
  -6   3   7    0.34    0.48 
  -5   3   7    1.20    0.50 
  -4   3   7    0.07    0.33 
  -4   3   7   -0.25    0.38 
  -3   3   7    9.46    0.77 
  -3   3   7    9.41    0.77 
  -2   3   7   27.78    1.35 
  -2   3   7   24.24    1.36 
   1  -3  -7   10.97    0.58 
  -1   3   7   12.18    0.76 
  -1   3   7   10.62    0.75 
  -1  -3  -7    9.49    0.63 
   1   3   7   11.12    0.66 
   1   3   7   10.48    0.71 
  -2  -3  -7   28.70    1.39 
   2   3   7   28.97    1.49 
  -3  -3  -7    8.54    0.68 
  -4  -3  -7    6.66    0.67 
  -5  -3  -7    1.80    0.46 
  -6  -3  -7    4.30    0.69 
  -7   4   7    1.41    0.67 
  -6   4   7    0.29    0.55 
  -5   4   7    1.04    0.51 
  -4   4   7   10.76    0.85 
  -4   4   7   12.30    0.98 
  -3   4   7   -0.02    0.37 
  -3   4   7   -0.15    0.30 
  -2   4   7    4.17    0.49 
  -2   4   7    4.37    0.56 
   1  -4  -7    2.60    0.26 
  -1   4   7    2.26    0.45 
  -1   4   7    1.32    0.26 
   0  -4  -7   27.06    1.21 
   0   4   7   26.34    1.32 
   0   4   7   25.64    1.39 
  -1  -4  -7    8.03    0.59 
   1   4   7    7.85    0.71 
  -2  -4  -7    7.70    0.62 
   2   4   7    6.39    0.68 
  -3  -4  -7   16.18    0.98 
   3   4   7   15.68    1.05 
  -4  -4  -7    1.68    0.43 
  -5  -4  -7    0.58    0.40 
  -6  -4  -7   -0.08    0.40 
  -7   5   7    0.09    0.69 
  -6   5   7    0.47    0.57 
  -5   5   7    0.77    0.55 
  -4   5   7    4.65    0.59 
  -4   5   7    3.29    0.66 
  -3   5   7   10.75    0.82 
  -3   5   7   11.09    0.97 
  -2   5   7   14.64    1.02 
  -2   5   7   14.31    0.90 
  -1   5   7    4.29    0.60 
  -1   5   7    4.26    0.44 
   0  -5  -7    0.19    0.20 
   0   5   7    0.39    0.35 
  -1  -5  -7   10.33    0.74 
   1   5   7   11.51    0.86 
  -2  -5  -7    7.51    0.62 
   2   5   7    7.15    0.74 
  -3  -5  -7    0.09    0.28 
   3   5   7   -0.02    0.37 
  -4  -5  -7    8.31    0.78 
  -5  -5  -7    3.87    0.64 
  -6   6   7    0.47    0.65 
  -5   6   7    0.96    0.61 
  -5   6   7    1.31    0.48 
  -4   6   7    2.99    0.55 
  -4   6   7    3.68    0.72 
  -3   6   7   -0.12    0.34 
  -3   6   7   -0.27    0.46 
  -2   6   7    0.33    0.44 
  -1   6   7    6.30    0.77 
   0  -6  -7   10.59    0.73 
   0   6   7   11.30    0.95 
  -1  -6  -7    0.13    0.24 
   1   6   7    0.28    0.40 
  -2  -6  -7    7.92    0.68 
   2   6   7    8.80    0.88 
  -3  -6  -7    4.61    0.58 
   3   6   7    3.31    0.64 
  -4  -6  -7    0.37    0.33 
  -5  -6  -7   -0.09    0.34 
  -6   7   7   -0.16    0.66 
  -6   7   7    1.14    0.48 
  -5   7   7   -0.63    0.31 
  -5   7   7    0.10    0.62 
  -4   7   7    1.09    0.64 
  -3   7   7    3.05    0.71 
  -2   7   7    3.47    0.69 
  -1   7   7    0.20    0.47 
   0   7   7    2.28    0.57 
  -1  -7  -7    1.53    0.36 
   1   7   7    0.95    0.51 
  -2  -7  -7    0.05    0.28 
   2   7   7   -0.01    0.44 
  -3  -7  -7    0.52    0.38 
   3   7   7    0.03    0.46 
  -4  -7  -7    1.50    0.43 
  -4   8   7    1.51    0.68 
  -3   8   7   -0.42    0.52 
  -2   8   7    1.04    0.58 
  -1   8   7    1.47    0.62 
   0   8   7    0.12    0.49 
   1   8   7    0.24    0.53 
  -2  -8  -7    1.78    0.42 
   2   8   7    1.48    0.67 
  -3  -8  -7    1.95    0.47 
   3   8   7    1.10    0.43 
  -3   9   7    0.57    0.63 
  -2   9   7    0.01    0.57 
  -1   9   7   -0.01    0.55 
   0   9   7    1.69    0.61 
   1   9   7    0.38    0.48 
   2  11  -8    0.57    0.45 
   1  11  -8    0.55    0.41 
   0  11  -8    0.12    0.38 
  -1  11  -8    2.07    0.52 
  -2  11  -8    0.19    0.37 
   4  10  -8    0.16    0.33 
   3  10  -8    0.23    0.39 
   2  10  -8    1.93    0.50 
   1  10  -8    0.85    0.44 
   0  10  -8    0.61    0.39 
  -1  10  -8    1.32    0.43 
  -2  10  -8   -0.05    0.30 
  -3  10  -8    0.08    0.34 
   5   9  -8   -0.55    0.26 
   4   9  -8    1.92    0.52 
   3   9  -8    0.60    0.41 
   2   9  -8    0.84    0.39 
   1   9  -8    6.18    0.71 
   0   9  -8    0.98    0.39 
  -1   9  -8    2.65    0.48 
  -2   9  -8    0.31    0.34 
  -3   9  -8    5.26    0.64 
  -4   9  -8    3.23    0.56 
   5   8  -8    0.72    0.40 
   4   8  -8   -0.12    0.30 
   3   8  -8    2.23    0.47 
   2   8  -8    6.83    0.71 
   1   8  -8    0.63    0.34 
   0   8  -8   -0.11    0.26 
  -1   8  -8    5.72    0.62 
  -2   8  -8    5.08    0.60 
  -3   8  -8    0.23    0.32 
  -4   8  -8    0.77    0.37 
  -5   8  -8    2.43    0.51 
   6   7  -8   -0.27    0.29 
   5   7  -8    1.89    0.47 
   4   7  -8    7.06    0.73 
   3   7  -8    0.07    0.26 
  -3  -7   8    0.29    0.36 
   2   7  -8    0.22    0.29 
  -2  -7   8    0.27    0.37 
   1   7  -8   12.38    0.84 
   0   7  -8    1.59    0.38 
  -1   7  -8    0.06    0.26 
  -2   7  -8    2.37    0.44 
  -3   7  -8    3.95    0.54 
  -4   7  -8    8.79    0.78 
  -4   7  -8    9.39    0.81 
  -5   7  -8    0.30    0.37 
  -5   7  -8    1.09    0.46 
  -6   7  -8    0.02    0.41 
   7   6  -8    0.52    0.30 
   6   6  -8    0.77    0.34 
   5   6  -8    0.18    0.30 
   4   6  -8    1.61    0.40 
  -4  -6   8    1.18    0.50 
   3   6  -8    1.63    0.37 
  -3  -6   8    0.81    0.43 
   2   6  -8   10.34    0.77 
  -2  -6   8   10.41    0.79 
   1   6  -8    0.27    0.25 
  -1  -6   8   -0.07    0.36 
   0   6  -8    1.57    0.37 
  -1   6  -8   20.74    1.15 
  -2   6  -8    9.24    0.73 
  -3   6  -8    2.76    0.47 
  -4   6  -8    9.11    0.77 
  -4   6  -8    7.29    0.69 
  -5   6  -8    3.07    0.56 
  -5   6  -8    2.25    0.51 
  -6   6  -8    1.28    0.52 
  -6   6  -8    1.19    0.47 
   6   5  -8    0.99    0.35 
  -6  -5   8    0.64    0.50 
   5   5  -8    3.95    0.52 
  -5  -5   8    4.18    0.66 
   4   5  -8    9.19    0.70 
  -4  -5   8    9.19    0.82 
   3   5  -8    2.75    0.41 
  -3  -5   8    2.28    0.51 
   2   5  -8    6.63    0.58 
  -2  -5   8    6.63    0.65 
   1   5  -8   26.63    1.31 
  -1  -5   8   25.04    1.39 
   0   5  -8    0.25    0.23 
   0  -5   8   -0.19    0.29 
  -1   5  -8    6.91    0.60 
  -2   5  -8   26.10    1.33 
  -2   5  -8   26.17    1.26 
  -3   5  -8    2.99    0.48 
  -3   5  -8    2.52    0.36 
  -4   5  -8   11.26    0.86 
  -4   5  -8   10.05    0.76 
  -5   5  -8    2.77    0.53 
  -5   5  -8    2.12    0.51 
  -6   5  -8    1.13    0.46 
  -6   5  -8    1.97    0.54 
  -7   5  -8    0.46    0.44 
  -7   5  -8    0.60    0.46 
  -7  -4   8    2.39    0.65 
   6   4  -8    3.83    0.48 
  -6  -4   8    3.93    0.66 
   5   4  -8   -0.02    0.25 
  -5  -4   8    0.34    0.41 
   4   4  -8    6.44    0.56 
  -4  -4   8    7.46    0.72 
   3   4  -8    2.86    0.38 
  -3  -4   8    2.47    0.49 
   2   4  -8   21.15    1.09 
  -2  -4   8   20.95    1.20 
   1   4  -8    2.24    0.38 
  -1  -4   8    2.72    0.46 
   0   4  -8   38.80    1.72 
   0  -4   8   35.98    1.84 
  -1   4  -8   30.64    1.31 
  -1   4  -8   27.08    1.40 
  -2   4  -8    8.44    0.53 
  -2   4  -8    7.05    0.63 
  -3   4  -8    4.36    0.54 
  -3   4  -8    5.80    0.49 
  -4   4  -8   23.15    1.26 
  -4   4  -8   22.06    1.25 
  -5   4  -8    5.53    0.65 
  -5   4  -8    5.76    0.66 
  -6   4  -8    0.68    0.43 
  -6   4  -8   -0.10    0.38 
  -7   4  -8    1.70    0.52 
  -7   4  -8    2.00    0.56 
  -8  -3   8    1.71    0.67 
  -7  -3   8   -0.29    0.50 
  -6  -3   8    5.34    0.75 
   5   3  -8   -0.11    0.20 
  -5  -3   8    0.73    0.43 
   4   3  -8    0.93    0.26 
  -4  -3   8    1.44    0.44 
   3   3  -8    0.96    0.23 
  -3  -3   8   -0.25    0.35 
   2   3  -8    8.38    0.55 
  -2  -3   8    7.64    0.69 
   1   3  -8   35.41    1.63 
  -1  -3   8   37.48    1.81 
  -1   3  -8   17.27    0.96 
  -2   3  -8   56.77    2.45 
  -3   3  -8    2.55    0.42 
  -4   3  -8    4.51    0.56 
  -5   3  -8    2.39    0.49 
  -6   3  -8    3.66    0.64 
  -6   3  -8    4.01    0.61 
  -7   3  -8   -0.02    0.40 
  -7   3  -8    0.82    0.47 
  -8  -2   8    0.70    0.64 
  -7  -2   8    1.83    0.66 
  -6  -2   8    0.75    0.52 
   5   2  -8    1.53    0.23 
  -5  -2   8    1.45    0.47 
   3   2  -8    2.43    0.30 
  -3  -2   8    2.70    0.27 
  -3  -2   8    2.38    0.45 
  -2  -2   8    2.37    0.44 
   1   2  -8   49.29    2.07 
  -1  -2   8   47.82    2.28 
   0   2  -8   72.85    2.96 
   0  -2   8   70.96    3.22 
  -1   2  -8    5.13    0.47 
   1  -2   8    4.26    0.51 
  -2   2  -8    5.80    0.52 
  -3   2  -8    2.90    0.43 
  -4   2  -8   22.39    1.21 
  -5   2  -8    1.92    0.46 
  -6   2  -8    2.89    0.56 
  -7   2  -8    1.66    0.53 
  -8  -1   8    0.17    0.63 
  -7  -1   8    0.49    0.55 
  -6  -1   8    7.56    0.85 
  -5  -1   8    1.99    0.55 
  -5  -1   8    1.44    0.33 
   4   1  -8    4.82    0.33 
  -4  -1   8    3.57    0.58 
  -4  -1   8    3.36    0.39 
   3   1  -8    1.31    0.21 
  -3  -1   8    1.16    0.25 
  -3  -1   8    1.22    0.39 
   2   1  -8   35.06    1.46 
  -2  -1   8   34.60    1.45 
  -2  -1   8   28.41    1.63 
   1   1  -8   67.68    2.70 
  -1  -1   8   65.14    2.74 
  -1  -1   8   65.47    2.98 
   0   1  -8   29.95    1.38 
   0  -1   8   30.21    1.53 
   0  -1   8   30.55    1.33 
  -1   1  -8   29.15    1.36 
   1  -1   8   29.80    1.50 
  -2   1  -8   49.79    2.15 
  -3   1  -8    0.82    0.30 
  -4   1  -8    0.20    0.29 
  -5   1  -8   13.77    0.94 
  -6   1  -8    5.20    0.67 
  -7   1  -8   -0.37    0.40 
  -8   0   8    2.15    0.73 
  -7   0   8    1.01    0.57 
  -6   0   8    1.22    0.52 
  -6   0   8    1.18    0.45 
  -5   0   8    3.28    0.50 
  -4   0   8   17.97    1.12 
  -4   0   8   17.55    0.98 
   3   0  -8   11.54    0.56 
  -3   0   8   10.23    0.67 
  -3   0   8   10.52    0.77 
   2   0  -8    7.92    0.51 
  -2   0   8    9.90    0.75 
  -2   0   8    8.95    0.54 
   1   0  -8   83.70    3.34 
  -1   0   8   83.80    3.71 
  -1   0   8   83.52    3.50 
   0   0  -8   46.60    1.93 
   0   0   8   44.32    2.13 
   0   0   8   44.92    1.97 
  -1   0  -8    1.85    0.31 
   1   0   8    2.46    0.39 
  -2   0  -8   14.90    0.84 
  -3   0  -8   10.16    0.70 
  -4   0  -8   10.24    0.78 
  -5   0  -8   -0.04    0.32 
  -6   0  -8    5.88    0.72 
  -7   0  -8    1.09    0.53 
  -8   1   8   -0.08    0.60 
  -7   1   8    0.67    0.57 
  -7   1   8    0.00    0.49 
  -6   1   8    1.46    0.52 
  -6   1   8    1.24    0.56 
  -5   1   8    0.21    0.39 
  -5   1   8    0.16    0.36 
  -4   1   8    4.58    0.61 
  -4   1   8    3.51    0.49 
  -3   1   8   10.41    0.69 
  -3   1   8    9.85    0.76 
   2  -1  -8   32.80    1.34 
  -2   1   8   30.97    1.57 
  -2   1   8   29.07    1.46 
  -1   1   8   18.35    0.94 
  -1   1   8   17.00    1.02 
   0  -1  -8   34.72    1.56 
   0   1   8   36.15    1.75 
   0   1   8   36.59    1.65 
  -1  -1  -8   19.28    0.93 
   1   1   8   17.05    1.00 
   1   1   8   17.91    0.96 
  -2  -1  -8   10.44    0.68 
  -3  -1  -8    0.93    0.32 
  -4  -1  -8    2.45    0.44 
  -5  -1  -8   17.19    1.10 
  -6  -1  -8    0.49    0.43 
  -7  -1  -8    0.37    0.46 
  -8   2   8    0.99    0.69 
  -7   2   8    0.60    0.52 
  -7   2   8    0.27    0.54 
  -6   2   8    5.94    0.78 
  -6   2   8    5.83    0.79 
  -5   2   8    3.46    0.60 
  -5   2   8    2.19    0.54 
  -4   2   8    3.87    0.60 
  -4   2   8    5.49    0.61 
  -3   2   8    0.71    0.34 
  -3   2   8    0.52    0.36 
   2  -2  -8   13.48    0.67 
  -2   2   8   13.47    0.83 
  -2   2   8   13.82    0.89 
   1  -2  -8   45.77    1.94 
  -1   2   8   47.52    2.22 
  -1   2   8   47.76    2.14 
   0  -2  -8    1.44    0.25 
   0   2   8    0.73    0.31 
   0   2   8    1.09    0.28 
  -1  -2  -8    0.52    0.23 
   1   2   8    1.12    0.29 
   1   2   8    0.53    0.28 
  -2  -2  -8   20.06    1.07 
   2   2   8   20.59    1.14 
  -3  -2  -8    9.18    0.70 
  -5  -2  -8    2.77    0.55 
  -6  -2  -8    4.87    0.73 
  -7   3   8    0.99    0.56 
  -7   3   8    1.10    0.65 
  -6   3   8    0.17    0.43 
  -6   3   8    0.39    0.53 
  -5   3   8    0.08    0.42 
  -5   3   8   -0.25    0.36 
  -4   3   8   11.66    0.90 
  -4   3   8    9.29    0.85 
  -3   3   8   24.36    1.34 
  -3   3   8   23.53    1.34 
  -2   3   8    1.96    0.44 
  -2   3   8    2.34    0.44 
   1  -3  -8    1.10    0.21 
  -1   3   8    0.94    0.33 
  -1   3   8    1.48    0.38 
   0  -3  -8   30.38    1.30 
   0   3   8   26.59    1.44 
   0   3   8   28.24    1.44 
  -1  -3  -8   14.83    0.85 
   1   3   8   16.17    0.96 
   1   3   8   15.64    0.89 
  -2  -3  -8    2.44    0.38 
   2   3   8    2.56    0.46 
  -3  -3  -8    9.53    0.75 
  -4  -3  -8   10.58    0.85 
  -5  -3  -8    5.91    0.70 
  -6  -3  -8    1.06    0.48 
  -7   4   8    1.49    0.57 
  -7   4   8    0.34    0.59 
  -6   4   8    2.62    0.64 
  -6   4   8    3.31    0.75 
  -5   4   8    3.86    0.72 
  -5   4   8    3.88    0.62 
  -4   4   8    0.14    0.39 
  -4   4   8    0.36    0.44 
  -3   4   8    1.01    0.44 
  -3   4   8    0.30    0.36 
  -2   4   8    7.12    0.71 
  -2   4   8    6.49    0.64 
   1  -4  -8   12.78    0.70 
  -1   4   8   15.30    0.91 
  -1   4   8   15.03    0.96 
   0  -4  -8   -0.17    0.18 
   0   4   8   -0.08    0.29 
   0   4   8    0.51    0.21 
  -1  -4  -8    6.18    0.53 
   1   4   8    6.12    0.66 
  -2  -4  -8   13.46    0.86 
   2   4   8   13.27    0.93 
  -3  -4  -8    6.10    0.65 
  -4  -4  -8    0.04    0.32 
  -5  -4  -8    3.40    0.60 
  -6   5   8    0.68    0.48 
  -6   5   8    0.71    0.65 
  -5   5   8   -0.11    0.51 
  -5   5   8    0.43    0.43 
  -4   5   8    4.05    0.63 
  -4   5   8    4.53    0.76 
  -3   5   8    7.60    0.73 
  -3   5   8    7.14    0.82 
  -2   5   8    0.42    0.39 
  -2   5   8    0.31    0.37 
  -1   5   8    4.18    0.63 
   0  -5  -8    8.75    0.62 
   0   5   8    9.80    0.85 
  -1  -5  -8    7.55    0.63 
   1   5   8    7.66    0.79 
  -2  -5  -8    0.50    0.32 
   2   5   8   -0.05    0.38 
  -3  -5  -8   11.16    0.89 
   3   5   8   12.22    1.04 
  -4  -5  -8    3.44    0.60 
  -5  -5  -8    0.43    0.38 
  -6   6   8    1.30    0.68 
  -6   6   8    0.56    0.45 
  -5   6   8    0.05    0.56 
  -5   6   8    0.44    0.46 
  -4   6   8    0.22    0.53 
  -4   6   8    0.30    0.39 
  -3   6   8    2.61    0.64 
  -2   6   8    1.16    0.51 
  -1   6   8    1.88    0.55 
   0   6   8    1.33    0.50 
  -1  -6  -8    7.23    0.63 
   1   6   8    5.54    0.75 
  -2  -6  -8    7.20    0.70 
   2   6   8    6.13    0.81 
  -3  -6  -8    0.46    0.37 
   3   6   8    0.17    0.42 
  -4  -6  -8    0.37    0.40 
  -5   7   8    0.83    0.65 
  -4   7   8    2.07    0.66 
  -3   7   8    0.26    0.55 
  -2   7   8    2.08    0.64 
  -1   7   8    4.37    0.76 
   0   7   8    4.38    0.73 
   1   7   8    1.00    0.52 
  -2  -7  -8    1.27    0.41 
   2   7   8    2.37    0.63 
  -3  -7  -8    5.01    0.69 
   3   7   8    4.34    0.75 
  -4   8   8    0.20    0.60 
  -3   8   8    0.67    0.60 
  -2   8   8    0.17    0.60 
  -1   8   8    0.93    0.54 
   0   8   8    0.97    0.54 
   1   8   8    3.83    0.77 
   2   8   8    1.35    0.61 
   1  11  -9    0.56    0.43 
   0  11  -9    0.11    0.38 
  -1  11  -9    0.50    0.41 
  -2  11  -9    1.36    0.48 
   3  10  -9    1.77    0.51 
   2  10  -9    0.58    0.43 
   1  10  -9    0.32    0.40 
   0  10  -9    2.31    0.52 
  -1  10  -9    2.47    0.54 
  -2  10  -9    1.27    0.46 
  -3  10  -9    0.53    0.39 
  -4  10  -9    1.93    0.52 
   4   9  -9    0.35    0.38 
   3   9  -9   -0.02    0.33 
   2   9  -9    3.23    0.58 
   1   9  -9    0.37    0.37 
   0   9  -9    0.22    0.35 
  -1   9  -9    4.90    0.63 
  -2   9  -9    6.61    0.72 
  -3   9  -9    4.32    0.61 
  -4   9  -9    0.60    0.41 
   5   8  -9    0.72    0.40 
   4   8  -9    0.85    0.42 
   3   8  -9    0.37    0.36 
   2   8  -9    1.21    0.41 
   1   8  -9    4.88    0.63 
   0   8  -9   10.12    0.83 
  -1   8  -9    0.61    0.35 
  -2   8  -9    0.06    0.33 
  -3   8  -9    1.54    0.44 
  -4   8  -9    3.36    0.57 
  -5   8  -9    0.06    0.37 
   6   7  -9   -0.13    0.30 
   5   7  -9   -0.23    0.30 
   4   7  -9   -0.11    0.29 
   3   7  -9    3.94    0.58 
  -3  -7   9    5.65    0.67 
   2   7  -9   13.03    0.92 
  -2  -7   9   14.27    0.97 
   1   7  -9    1.69    0.40 
   0   7  -9    1.90    0.42 
  -1   7  -9   10.26    0.83 
  -2   7  -9   23.44    1.30 
  -3   7  -9    8.94    0.78 
  -4   7  -9    3.28    0.56 
  -5   7  -9    1.46    0.46 
  -6   7  -9    0.45    0.43 
   6   6  -9    0.02    0.30 
   5   6  -9    1.56    0.43 
  -5  -6   9    2.66    0.61 
   4   6  -9    3.03    0.49 
  -4  -6   9    3.48    0.64 
   3   6  -9    2.50    0.45 
  -3  -6   9    2.26    0.53 
   2   6  -9   11.86    0.83 
  -2  -6   9   11.81    0.89 
   1   6  -9   13.43    0.89 
  -1  -6   9   14.26    0.98 
   0   6  -9   33.90    1.67 
  -1   6  -9    0.93    0.34 
  -2   6  -9    1.55    0.41 
  -3   6  -9    7.41    0.70 
  -4   6  -9    4.34    0.55 
  -4   6  -9    4.73    0.63 
  -5   6  -9    0.06    0.34 
  -5   6  -9    0.12    0.38 
  -6   6  -9    1.61    0.53 
  -6   6  -9    1.55    0.52 
   6   5  -9    0.45    0.29 
  -6  -5   9    0.55    0.56 
   5   5  -9    1.39    0.37 
  -5  -5   9    1.09    0.55 
   4   5  -9    4.69    0.53 
  -4  -5   9    3.99    0.66 
   3   5  -9    9.16    0.74 
  -3  -5   9   11.62    0.90 
   2   5  -9    8.60    0.69 
  -2  -5   9    7.98    0.77 
   1   5  -9    7.01    0.63 
  -1  -5   9    7.09    0.69 
   0   5  -9    1.15    0.34 
   0  -5   9    1.77    0.48 
  -1   5  -9   18.00    1.06 
  -2   5  -9   23.97    1.29 
  -3   5  -9    5.65    0.51 
  -3   5  -9    6.23    0.66 
  -4   5  -9   16.87    1.08 
  -4   5  -9   16.10    1.02 
  -5   5  -9    1.45    0.47 
  -5   5  -9    1.21    0.42 
  -6   5  -9    0.56    0.43 
  -6   5  -9    0.05    0.40 
  -7  -4   9    0.52    0.55 
  -6  -4   9    0.54    0.54 
   5   4  -9    2.33    0.39 
  -5  -4   9    1.75    0.60 
   4   4  -9    2.45    0.40 
  -4  -4   9    3.39    0.62 
   2   4  -9   40.68    1.86 
  -2  -4   9   41.28    2.05 
   1   4  -9   14.04    0.91 
  -1  -4   9   18.58    1.07 
   0   4  -9   19.78    1.07 
   0  -4   9   18.67    1.15 
  -1   4  -9    0.13    0.25 
  -2   4  -9   11.42    0.66 
  -2   4  -9   11.83    0.82 
  -4   4  -9    0.40    0.35 
  -4   4  -9    0.28    0.29 
  -5   4  -9    1.80    0.47 
  -5   4  -9    2.40    0.53 
  -6   4  -9    5.04    0.72 
  -6   4  -9    4.88    0.70 
  -7   4  -9    0.77    0.44 
  -7   4  -9    2.04    0.57 
  -7  -3   9    0.11    0.55 
  -6  -3   9    0.48    0.46 
   5   3  -9    3.26    0.40 
  -5  -3   9    3.16    0.62 
   4   3  -9   21.15    1.08 
  -4  -3   9   21.58    1.36 
   3   3  -9   11.14    0.71 
  -3  -3   9   12.66    0.90 
   2   3  -9    2.84    0.39 
  -2  -3   9    3.53    0.56 
   1   3  -9    5.59    0.52 
  -1  -3   9    6.75    0.67 
   0   3  -9   30.13    1.45 
   0  -3   9   30.19    1.59 
  -1   3  -9   48.80    2.17 
  -2   3  -9    0.78    0.30 
  -4   3  -9   20.80    1.21 
  -5   3  -9    1.92    0.50 
  -6   3  -9    1.03    0.47 
  -6   3  -9   -0.09    0.39 
  -7   3  -9    1.44    0.52 
  -7   3  -9    0.43    0.49 
  -7  -2   9    0.26    0.56 
  -6  -2   9    1.38    0.58 
  -5  -2   9   11.01    0.94 
   4   2  -9    0.29    0.08 
  -4  -2   9    0.62    0.41 
   3   2  -9    1.34    0.25 
  -3  -2   9    1.71    0.48 
   2   2  -9   48.65    2.03 
  -2  -2   9   45.36    2.28 
   1   2  -9    6.12    0.51 
  -1  -2   9    5.95    0.65 
   0   2  -9    7.08    0.58 
   0  -2   9    7.43    0.68 
   1  -2   9    7.15    0.67 
  -2   2  -9   26.95    1.36 
  -3   2  -9   32.62    1.60 
  -4   2  -9    4.25    0.57 
  -5   2  -9    7.20    0.75 
  -6   2  -9    6.65    0.76 
  -7   2  -9    3.26    0.65 
  -8  -1   9   -0.67    0.59 
  -7  -1   9    1.50    0.67 
  -6  -1   9   -0.13    0.46 
  -5  -1   9    0.14    0.44 
  -4  -1   9    3.92    0.59 
   3   1  -9    7.44    0.48 
  -3  -1   9    8.39    0.76 
   2   1  -9    2.33    0.30 
  -2  -1   9    1.99    0.23 
  -2  -1   9    1.89    0.44 
   1   1  -9   21.47    1.09 
  -1  -1   9   22.50    1.01 
  -1  -1   9   22.10    1.28 
   0   1  -9   50.01    2.15 
   0  -1   9   49.91    2.37 
  -1   1  -9   32.27    1.51 
   1  -1   9   31.95    1.66 
  -2   1  -9   12.25    0.80 
  -3   1  -9    7.43    0.67 
  -4   1  -9   12.46    0.88 
  -5   1  -9    3.58    0.59 
  -6   1  -9   -0.13    0.40 
  -7   1  -9    3.36    0.68 
  -7   0   9    0.69    0.61 
  -6   0   9    1.89    0.61 
  -5   0   9    8.66    0.86 
  -4   0   9    4.78    0.49 
  -4   0   9    3.54    0.58 
   3   0  -9    8.93    0.50 
  -3   0   9    9.71    0.80 
  -3   0   9    9.15    0.61 
   2   0  -9   15.20    0.77 
  -2   0   9   13.97    0.77 
  -2   0   9   14.87    0.97 
   1   0  -9    1.52    0.28 
  -1   0   9    1.77    0.42 
  -1   0   9    1.60    0.26 
   0   0  -9    0.34    0.21 
   0   0   9    0.80    0.21 
   0   0   9    1.21    0.37 
  -1   0  -9   31.67    1.48 
   1   0   9   31.89    1.63 
  -2   0  -9   13.89    0.85 
  -3   0  -9    7.59    0.64 
  -4   0  -9    7.22    0.68 
  -5   0  -9    9.35    0.84 
  -6   0  -9    4.17    0.69 
  -7   1   9    2.64    0.72 
  -6   1   9    0.81    0.50 
  -5   1   9    2.28    0.57 
  -5   1   9    2.00    0.50 
  -4   1   9    0.52    0.32 
  -4   1   9    0.79    0.41 
  -3   1   9    6.21    0.55 
  -3   1   9    5.00    0.62 
  -2   1   9    3.71    0.41 
  -2   1   9    5.09    0.60 
   1  -1  -9   59.73    2.62 
  -1   1   9   67.93    2.81 
  -1   1   9   65.72    2.97 
   0  -1  -9   22.12    1.10 
   0   1   9   21.82    1.26 
   0   1   9   23.66    1.15 
  -2  -1  -9   12.66    0.80 
  -3  -1  -9   10.95    0.76 
  -4  -1  -9   12.37    0.91 
  -5  -1  -9   -0.07    0.35 
  -6  -1  -9    2.06    0.57 
  -7   2   9    0.51    0.49 
  -6   2   9    0.70    0.47 
  -6   2   9    0.69    0.48 
  -5   2   9    0.76    0.46 
  -5   2   9    1.00    0.46 
  -4   2   9    1.91    0.48 
  -4   2   9    2.20    0.46 
  -3   2   9    7.83    0.68 
  -3   2   9    7.05    0.71 
  -2   2   9   15.02    0.99 
  -2   2   9   15.00    0.89 
   1  -2  -9    2.23    0.28 
  -1   2   9    1.61    0.33 
  -1   2   9    1.28    0.42 
   0  -2  -9    8.62    0.57 
   0   2   9    9.29    0.70 
   0   2   9    7.36    0.63 
  -1  -2  -9   48.52    2.07 
   1   2   9   47.60    2.22 
   1   2   9   47.54    2.27 
  -2  -2  -9    1.93    0.37 
   2   2   9    2.65    0.46 
  -3  -2  -9    1.04    0.35 
  -4  -2  -9    5.55    0.65 
  -5  -2  -9    8.79    0.85 
  -6  -2  -9    2.14    0.60 
  -7   3   9    0.19    0.55 
  -7   3   9    0.16    0.47 
  -6   3   9    0.19    0.50 
  -6   3   9   -0.19    0.41 
  -5   3   9    2.74    0.62 
  -5   3   9    2.74    0.62 
  -4   3   9    0.93    0.45 
  -4   3   9    0.38    0.39 
  -3   3   9    4.12    0.57 
  -2   3   9    8.38    0.73 
  -2   3   9    9.23    0.80 
   1  -3  -9   29.49    1.30 
  -1   3   9   28.77    1.48 
  -1   3   9   26.74    1.52 
   0  -3  -9    4.42    0.43 
   0   3   9    5.89    0.61 
   0   3   9    4.24    0.54 
  -1  -3  -9   -0.09    0.21 
   1   3   9    0.51    0.32 
   1   3   9    0.31    0.11 
  -2  -3  -9    4.25    0.52 
   2   3   9    5.19    0.61 
  -3  -3  -9    7.87    0.71 
  -4  -3  -9    3.26    0.55 
  -5  -3  -9    0.90    0.43 
  -7   4   9    0.70    0.47 
  -7   4   9    0.61    0.68 
  -6   4   9    0.38    0.50 
  -6   4   9    1.07    0.62 
  -5   4   9    1.25    0.51 
  -5   4   9    1.85    0.59 
  -4   4   9    0.17    0.46 
  -4   4   9    0.38    0.39 
  -3   4   9    4.82    0.64 
  -3   4   9    5.58    0.69 
  -2   4   9   11.51    0.90 
  -2   4   9   10.10    0.85 
  -1   4   9    4.41    0.58 
  -1   4   9    3.92    0.58 
   0  -4  -9    9.41    0.66 
   0   4   9   11.91    0.84 
   0   4   9   10.87    0.77 
  -1  -4  -9   12.11    0.77 
   1   4   9   11.76    0.88 
  -2  -4  -9   -0.18    0.26 
   2   4   9    0.16    0.39 
  -3  -4  -9    1.26    0.40 
  -4  -4  -9    7.00    0.76 
  -5  -4  -9    5.46    0.72 
  -6   5   9    0.76    0.52 
  -6   5   9    0.12    0.62 
  -5   5   9    3.54    0.64 
  -5   5   9    3.45    0.76 
  -4   5   9   -0.31    0.46 
  -4   5   9    0.32    0.42 
  -3   5   9    4.36    0.64 
  -3   5   9    5.65    0.76 
  -2   5   9    9.28    0.89 
  -2   5   9    8.78    0.81 
  -1   5   9    9.99    0.91 
   0   5   9    0.77    0.42 
  -1  -5  -9    3.15    0.44 
   1   5   9    2.94    0.58 
  -2  -5  -9    6.00    0.64 
   2   5   9    6.19    0.78 
  -3  -5  -9    1.94    0.48 
   3   5   9    1.32    0.55 
  -4  -5  -9    0.38    0.38 
  -5   6   9    1.43    0.67 
  -5   6   9   -0.37    0.39 
  -4   6   9    0.59    0.41 
  -4   6   9    1.01    0.59 
  -3   6   9    4.85    0.79 
  -2   6   9    2.28    0.62 
  -1   6   9    3.53    0.66 
   0   6   9    3.85    0.65 
  -1  -6  -9    2.26    0.43 
   1   6   9    2.24    0.58 
  -2  -6  -9   -0.09    0.31 
   2   6   9    0.34    0.43 
  -3  -6  -9    0.77    0.41 
   3   6   9    0.80    0.54 
  -4   7   9    0.05    0.57 
  -3   7   9    1.01    0.60 
  -2   7   9    2.24    0.67 
  -1   7   9    1.65    0.59 
   0   7   9   -0.29    0.42 
   1   7   9    1.61    0.60 
  -2  -7  -9    1.27    0.39 
   2   7   9    1.70    0.60 
  -2   8   9    0.46    0.61 
  -1   8   9    1.84    0.67 
   0   8   9    0.71    0.59 
   0  11 -10    0.07    0.39 
  -1  11 -10    0.43    0.41 
   3  10 -10   -0.36    0.27 
   2  10 -10    0.29    0.47 
   1  10 -10    1.44    0.49 
   0  10 -10    4.05    0.65 
  -1  10 -10    0.96    0.44 
  -2  10 -10    1.26    0.47 
  -3  10 -10    0.80    0.44 
   4   9 -10    1.01    0.44 
   3   9 -10    0.39    0.37 
   2   9 -10    0.62    0.40 
   1   9 -10   -0.42    0.34 
   0   9 -10    3.70    0.61 
  -1   9 -10    1.86    0.49 
  -2   9 -10   -0.06    0.34 
  -3   9 -10   -0.24    0.35 
  -4   9 -10    0.44    0.40 
   5   8 -10    1.62    0.46 
   4   8 -10    2.16    0.55 
   3   8 -10    0.63    0.40 
   2   8 -10    2.43    0.51 
  -2  -8  10    1.54    0.51 
   1   8 -10   13.68    1.02 
   0   8 -10    3.14    0.56 
  -1   8 -10   -0.23    0.30 
  -2   8 -10    3.93    0.61 
  -3   8 -10   -0.05    0.35 
  -4   8 -10    1.01    0.44 
  -5   8 -10    0.22    0.39 
   6   7 -10    0.00    0.30 
   5   7 -10    0.29    0.34 
   4   7 -10    0.59    0.36 
   3   7 -10    4.04    0.60 
  -3  -7  10    3.40    0.66 
   2   7 -10    0.22    0.32 
  -2  -7  10    0.90    0.47 
   1   7 -10   -0.18    0.27 
   0   7 -10    9.22    0.80 
  -1   7 -10    8.28    0.77 
  -2   7 -10    1.81    0.45 
  -3   7 -10    0.61    0.35 
  -4   7 -10    2.10    0.52 
  -5   7 -10    0.77    0.44 
   6   6 -10    7.54    0.74 
   5   6 -10    1.27    0.42 
  -5  -6  10    1.68    0.60 
   4   6 -10    0.02    0.28 
  -4  -6  10    0.07    0.48 
   3   6 -10    2.41    0.46 
  -3  -6  10    3.13    0.60 
   2   6 -10   12.83    0.87 
  -2  -6  10   11.49    0.97 
   1   6 -10   17.56    1.05 
  -1  -6  10   16.45    1.11 
   0   6 -10    5.45    0.62 
  -1   6 -10    3.85    0.55 
  -2   6 -10   -0.02    0.30 
  -3   6 -10    0.49    0.37 
  -4   6 -10    0.14    0.37 
  -5   6 -10    2.36    0.57 
  -6   6 -10    1.50    0.55 
  -6  -5  10    1.46    0.64 
   5   5 -10    0.33    0.30 
  -5  -5  10   -0.01    0.53 
   4   5 -10    4.43    0.54 
  -4  -5  10    4.46    0.71 
   3   5 -10    3.20    0.48 
  -3  -5  10    3.85    0.66 
   2   5 -10    2.66    0.46 
  -2  -5  10    2.69    0.58 
   1   5 -10    2.28    0.44 
  -1  -5  10    3.28    0.58 
   0   5 -10   19.96    1.15 
   0  -5  10   21.16    1.26 
  -1   5 -10   21.97    1.23 
  -2   5 -10    0.54    0.33 
  -3   5 -10   24.99    1.40 
  -4   5 -10    5.42    0.70 
  -5   5 -10    0.07    0.42 
  -5   5 -10    0.33    0.36 
  -6   5 -10    2.09    0.52 
  -6   5 -10    1.81    0.59 
  -7  -4  10    2.04    0.70 
  -6  -4  10    6.28    0.93 
   5   4 -10    0.58    0.30 
  -5  -4  10    0.80    0.59 
   4   4 -10    0.33    0.25 
  -4  -4  10    0.17    0.48 
   3   4 -10   23.58    1.21 
  -3  -4  10   22.16    1.36 
   2   4 -10   13.23    0.86 
  -2  -4  10   14.61    1.01 
   1   4 -10    4.79    0.55 
  -1  -4  10    5.09    0.65 
   0   4 -10   22.79    1.27 
   0  -4  10   25.45    1.42 
  -1   4 -10    2.92    0.47 
  -2   4 -10    2.72    0.50 
  -3   4 -10    0.96    0.29 
  -3   4 -10    0.44    0.35 
  -4   4 -10    0.69    0.41 
  -4   4 -10    1.25    0.39 
  -5   4 -10    7.85    0.78 
  -5   4 -10    8.55    0.85 
  -6   4 -10    2.48    0.60 
  -6   4 -10    1.82    0.51 
  -7  -3  10    0.66    0.59 
  -6  -3  10   -0.11    0.50 
  -5  -3  10    1.44    0.63 
   4   3 -10    2.69    0.39 
  -4  -3  10    2.12    0.60 
   3   3 -10    0.95    0.30 
  -3  -3  10    1.02    0.50 
   2   3 -10   11.43    0.74 
  -2  -3  10   10.13    0.89 
   1   3 -10   20.51    1.10 
  -1  -3  10   19.93    1.24 
   0   3 -10   34.08    1.65 
   0  -3  10   35.06    1.81 
  -1   3 -10    7.60    0.67 
  -2   3 -10    6.61    0.64 
  -3   3 -10   32.66    1.66 
  -4   3 -10    0.45    0.37 
  -5   3 -10    0.61    0.44 
  -6   3 -10    1.87    0.52 
  -6   3 -10    1.39    0.55 
  -7  -2  10    0.42    0.59 
  -6  -2  10    0.26    0.54 
  -5  -2  10    0.38    0.47 
   4   2 -10    8.30    0.55 
  -4  -2  10    8.47    0.85 
   3   2 -10   36.04    1.67 
  -3  -2  10   40.40    1.99 
   2   2 -10    0.89    0.26 
  -2  -2  10    1.68    0.48 
   1   2 -10    0.08    0.22 
  -1  -2  10    0.60    0.39 
   0   2 -10    4.83    0.52 
   0  -2  10    4.92    0.62 
  -1   2 -10    8.33    0.69 
   1  -2  10    9.09    0.80 
  -2   2 -10   17.09    1.02 
  -3   2 -10    3.46    0.52 
  -4   2 -10    8.58    0.78 
  -5   2 -10    3.29    0.62 
  -6   2 -10    0.80    0.47 
  -7  -1  10   -0.25    0.53 
  -6  -1  10    1.27    0.61 
  -5  -1  10    5.14    0.74 
  -4  -1  10    2.67    0.57 
   3   1 -10    2.29    0.29 
  -3  -1  10    2.07    0.52 
   2   1 -10   39.82    1.80 
  -2  -1  10   42.95    2.12 
   1   1 -10   72.37    3.06 
  -1  -1  10   74.08    3.10 
  -1  -1  10   76.51    3.42 
   0   1 -10    9.59    0.68 
   0  -1  10    7.95    0.78 
  -1   1 -10    7.03    0.62 
   1  -1  10    8.43    0.76 
  -2   1 -10   22.33    1.21 
  -3   1 -10   15.14    0.97 
  -4   1 -10    0.64    0.41 
  -5   1 -10    3.81    0.65 
  -6   1 -10    1.24    0.55 
  -7   0  10    1.09    0.62 
  -6   0  10    0.27    0.52 
  -5   0  10    5.21    0.76 
  -4   0  10   12.63    0.96 
  -3   0  10   20.58    1.28 
   2   0 -10    1.75    0.29 
  -2   0  10    2.09    0.30 
  -2   0  10    2.52    0.53 
   1   0 -10    2.08    0.32 
  -1   0  10    1.11    0.25 
  -1   0  10    1.66    0.48 
   0   0 -10    4.85    0.49 
   0   0  10    4.98    0.63 
   0   0  10    5.34    0.43 
  -1   0 -10   31.00    1.45 
   1   0  10   28.46    1.57 
  -2   0 -10   14.88    0.95 
  -3   0 -10   27.40    1.42 
  -4   0 -10    8.40    0.77 
  -5   0 -10    2.40    0.56 
  -6   0 -10    0.25    0.44 
  -7   1  10    1.07    0.66 
  -6   1  10    0.69    0.51 
  -5   1  10    2.41    0.58 
  -4   1  10    2.56    0.47 
  -4   1  10    2.11    0.52 
  -3   1  10   15.17    0.86 
  -3   1  10   13.63    1.01 
   2  -1 -10   49.98    2.10 
  -2   1  10   50.97    2.45 
  -2   1  10   49.23    2.26 
   1  -1 -10   24.39    1.17 
  -1   1  10   24.59    1.22 
  -1   1  10   22.88    1.37 
   0  -1 -10    0.37    0.24 
   0   1  10    0.26    0.21 
   0   1  10    0.17    0.35 
  -1  -1 -10   11.60    0.81 
   1   1  10   12.63    0.89 
   1   1  10   12.91    0.78 
  -2  -1 -10    6.52    0.60 
  -3  -1 -10    1.69    0.40 
  -4  -1 -10    1.45    0.43 
  -5  -1 -10    2.84    0.54 
  -6  -1 -10    1.03    0.52 
  -7   2  10    0.71    0.58 
  -6   2  10    0.53    0.53 
  -5   2  10    9.39    0.92 
  -5   2  10    9.52    0.84 
  -4   2  10    4.93    0.67 
  -4   2  10    5.93    0.66 
  -3   2  10    2.44    0.53 
  -3   2  10    2.39    0.45 
  -2   2  10    0.28    0.31 
  -2   2  10   -0.36    0.32 
   1  -2 -10    1.09    0.20 
  -1   2  10    0.77    0.40 
  -1   2  10    0.90    0.32 
   0  -2 -10   17.11    0.96 
   0   2  10   16.48    1.06 
   0   2  10   16.80    1.01 
  -1  -2 -10    3.65    0.44 
   1   2  10    3.45    0.54 
   1   2  10    2.88    0.46 
  -2  -2 -10    0.70    0.28 
  -3  -2 -10   22.84    1.27 
  -4  -2 -10    4.90    0.65 
  -5  -2 -10    0.71    0.42 
  -7   3  10    1.11    0.53 
  -6   3  10    2.03    0.60 
  -6   3  10    1.69    0.58 
  -5   3  10    0.71    0.48 
  -5   3  10    0.79    0.49 
  -4   3  10    0.57    0.46 
  -4   3  10    0.32    0.43 
  -3   3  10   24.34    1.44 
  -3   3  10   25.42    1.41 
  -2   3  10   15.56    1.03 
  -2   3  10   17.54    1.13 
  -1   3  10    0.99    0.44 
  -1   3  10    0.68    0.34 
   0   3  10    2.44    0.46 
  -1  -3 -10    9.86    0.72 
   1   3  10   11.17    0.87 
   1   3  10   11.68    0.80 
  -2  -3 -10    6.99    0.66 
   2   3  10    7.75    0.76 
  -3  -3 -10    0.02    0.31 
  -4  -3 -10    3.35    0.58 
  -5  -3 -10    2.02    0.48 
  -6   4  10   -0.41    0.45 
  -6   4  10    0.01    0.55 
  -5   4  10    3.11    0.67 
  -5   4  10    1.29    0.56 
  -4   4  10    2.80    0.61 
  -4   4  10    2.39    0.63 
  -3   4  10    4.74    0.68 
  -3   4  10    4.79    0.69 
  -2   4  10    1.18    0.47 
  -2   4  10    2.57    0.55 
  -1   4  10    9.33    0.85 
  -1   4  10    8.64    0.81 
   0  -4 -10   10.79    0.73 
   0   4  10   13.13    0.94 
  -1  -4 -10    0.91    0.31 
   1   4  10    1.46    0.48 
  -2  -4 -10    2.61    0.48 
   2   4  10    2.75    0.58 
  -3  -4 -10   12.80    0.97 
  -4  -4 -10    3.17    0.59 
  -5   5  10    0.58    0.62 
  -5   5  10    0.18    0.46 
  -4   5  10    5.40    0.84 
  -4   5  10    4.34    0.69 
  -3   5  10    4.55    0.67 
  -3   5  10    4.95    0.75 
  -2   5  10    0.46    0.49 
  -1   5  10    0.67    0.45 
   0   5  10    2.53    0.58 
  -1  -5 -10    3.20    0.48 
   1   5  10    3.56    0.65 
  -2  -5 -10    1.72    0.45 
   2   5  10    1.14    0.49 
  -3  -5 -10    0.45    0.38 
  -4  -5 -10    0.67    0.39 
  -5   6  10    0.85    0.42 
  -5   6  10    0.32    0.57 
  -4   6  10    1.21    0.61 
  -3   6  10    0.12    0.49 
  -2   6  10    7.04    0.91 
  -1   6  10    4.33    0.73 
   0   6  10    1.12    0.54 
   1   6  10    3.30    0.69 
  -2  -6 -10    3.94    0.57 
   2   6  10    3.69    0.73 
  -3  -6 -10    4.10    0.61 
   3   6  10    4.24    0.80 
  -3   7  10    0.80    0.62 
  -2   7  10    0.11    0.55 
  -1   7  10    0.51    0.56 
   0   7  10    2.10    0.66 
   1   7  10    1.36    0.61 
   2  10 -11    1.55    0.52 
   1  10 -11    0.23    0.39 
   0  10 -11   -0.01    0.37 
  -1  10 -11    1.51    0.49 
  -2  10 -11    1.96    0.58 
   4   9 -11    1.06    0.41 
   3   9 -11    0.93    0.43 
   2   9 -11    0.50    0.41 
   1   9 -11    0.62    0.39 
   0   9 -11   -0.09    0.37 
  -1   9 -11    0.04    0.37 
  -2   9 -11   -0.22    0.36 
  -3   9 -11    0.36    0.44 
  -4   9 -11    1.90    0.55 
   4   8 -11    0.46    0.39 
   3   8 -11    1.29    0.48 
   2   8 -11    0.88    0.43 
  -2  -8  11    0.59    0.50 
   1   8 -11    0.45    0.36 
   0   8 -11    3.26    0.57 
  -1   8 -11    8.81    0.85 
  -2   8 -11    0.87    0.42 
  -3   8 -11    6.10    0.75 
  -4   8 -11    3.34    0.63 
   5   7 -11   -0.09    0.31 
   4   7 -11    0.48    0.37 
  -4  -7  11    0.25    0.51 
   3   7 -11    1.45    0.46 
  -3  -7  11    2.70    0.62 
   2   7 -11    2.84    0.55 
  -2  -7  11    3.00    0.63 
   1   7 -11    2.50    0.53 
  -1  -7  11    2.25    0.59 
   0   7 -11    1.22    0.39 
  -1   7 -11    0.35    0.36 
  -2   7 -11    3.58    0.60 
  -3   7 -11    4.00    0.63 
  -4   7 -11    0.01    0.39 
  -5   7 -11    0.95    0.47 
   5   6 -11    0.15    0.31 
  -5  -6  11    0.26    0.56 
   4   6 -11    3.45    0.56 
  -4  -6  11    4.62    0.78 
   3   6 -11    1.19    0.39 
  -3  -6  11    1.40    0.56 
   2   6 -11    5.54    0.65 
  -2  -6  11    5.46    0.75 
   1   6 -11    3.12    0.53 
  -1  -6  11    3.55    0.66 
   0   6 -11   10.18    0.85 
  -1   6 -11    4.14    0.59 
  -2   6 -11    5.89    0.71 
  -3   6 -11    3.22    0.58 
  -4   6 -11    2.15    0.54 
  -5   6 -11    2.06    0.57 
  -6  -5  11    1.40    0.69 
   5   5 -11    0.32    0.30 
  -5  -5  11    1.13    0.66 
   4   5 -11    1.71    0.41 
  -4  -5  11    2.30    0.66 
   3   5 -11    1.99    0.41 
  -3  -5  11    1.51    0.58 
   2   5 -11    1.30    0.38 
  -2  -5  11    0.86    0.49 
   1   5 -11   13.09    0.89 
  -1  -5  11   11.59    0.99 
   0   5 -11    6.21    0.66 
   0  -5  11    7.45    0.80 
  -1   5 -11    3.49    0.54 
  -2   5 -11   12.21    0.94 
  -3   5 -11    0.27    0.37 
  -4   5 -11    1.85    0.52 
  -5   5 -11    4.23    0.72 
  -6   5 -11    1.78    0.59 
  -6  -4  11    1.01    0.70 
  -5  -4  11    2.99    0.74 
   4   4 -11    4.57    0.53 
  -4  -4  11    5.56    0.83 
   3   4 -11    3.68    0.48 
  -3  -4  11    3.86    0.68 
   2   4 -11    1.00    0.32 
  -2  -4  11    0.77    0.48 
   1   4 -11   21.91    1.23 
  -1  -4  11   23.54    1.38 
   0   4 -11    0.98    0.36 
   0  -4  11    1.68    0.52 
  -1   4 -11    3.42    0.53 
  -2   4 -11    8.01    0.76 
  -3   4 -11    0.85    0.43 
  -4   4 -11    4.55    0.68 
  -5   4 -11    1.23    0.52 
  -6   4 -11    1.10    0.53 
  -7  -3  11    0.69    0.61 
  -6  -3  11   -0.31    0.57 
  -5  -3  11    1.29    0.62 
   4   3 -11    1.07    0.32 
  -4  -3  11    1.42    0.56 
   3   3 -11    1.85    0.36 
  -3  -3  11    2.90    0.64 
   2   3 -11    8.33    0.69 
  -2  -3  11    9.53    0.90 
   1   3 -11   22.05    1.20 
  -1  -3  11   22.90    1.38 
   0   3 -11    1.14    0.34 
   0  -3  11    0.49    0.40 
  -1   3 -11   32.42    1.63 
  -2   3 -11    9.20    0.79 
  -3   3 -11    8.00    0.78 
  -4   3 -11    5.79    0.74 
  -5   3 -11    8.86    0.91 
  -6   3 -11    1.66    0.50 
  -6   3 -11    2.43    0.63 
  -7  -2  11    0.55    0.64 
  -6  -2  11    0.92    0.60 
  -5  -2  11    3.62    0.77 
  -4  -2  11   12.91    1.10 
   3   2 -11    0.10    0.22 
  -3  -2  11    0.83    0.49 
   2   2 -11    0.20    0.25 
  -2  -2  11    0.08    0.43 
   1   2 -11   13.86    0.87 
  -1  -2  11   13.57    1.01 
   0   2 -11    0.30    0.29 
   0  -2  11    1.02    0.44 
  -1   2 -11    1.72    0.39 
   1  -2  11    1.82    0.48 
  -2   2 -11    7.42    0.71 
  -3   2 -11    5.24    0.65 
  -4   2 -11    7.39    0.79 
  -5   2 -11    0.55    0.46 
  -6   2 -11    1.95    0.59 
  -7  -1  11    0.78    0.62 
  -6  -1  11    0.42    0.57 
  -5  -1  11   -0.39    0.49 
  -4  -1  11   -0.10    0.47 
   3   1 -11    5.05    0.42 
  -3  -1  11    4.79    0.69 
   2   1 -11   18.72    1.02 
  -2  -1  11   19.47    1.24 
   1   1 -11    2.78    0.41 
  -1  -1  11    2.73    0.56 
   0   1 -11    8.20    0.69 
   0  -1  11    9.63    0.86 
  -1   1 -11   12.50    0.86 
   1  -1  11   13.53    0.97 
  -2   1 -11    2.53    0.45 
  -3   1 -11    5.24    0.63 
  -4   1 -11    8.95    0.86 
  -5   1 -11    6.55    0.82 
  -6   1 -11   -0.59    0.44 
  -7   0  11    0.31    0.58 
  -6   0  11    0.90    0.56 
  -5   0  11    4.72    0.76 
  -4   0  11    3.05    0.65 
  -3   0  11    5.48    0.72 
   2   0 -11    1.15    0.19 
  -2   0  11    1.48    0.49 
   1   0 -11    1.54    0.34 
  -1   0  11    1.43    0.49 
   0   0 -11    1.42    0.33 
   0   0  11    0.82    0.24 
   0   0  11    1.44    0.44 
  -1   0 -11    1.87    0.41 
   1   0  11    2.53    0.54 
  -2   0 -11   26.78    1.41 
  -3   0 -11    7.07    0.75 
  -4   0 -11    1.04    0.43 
  -5   0 -11    0.79    0.49 
  -7   1  11    0.55    0.47 
  -6   1  11   -0.06    0.47 
  -5   1  11    0.02    0.42 
  -4   1  11    4.46    0.71 
  -3   1  11   14.93    1.10 
  -2   1  11   10.30    0.93 
  -2   1  11   10.36    0.67 
   1  -1 -11   13.92    0.84 
  -1   1  11   14.62    0.85 
  -1   1  11   13.32    1.01 
   0  -1 -11   17.52    1.00 
   0   1  11   18.15    1.15 
   0   1  11   17.53    1.00 
  -1  -1 -11    3.83    0.48 
   1   1  11    3.03    0.53 
   1   1  11    2.92    0.46 
  -2  -1 -11   -0.45    0.24 
  -3  -1 -11    5.89    0.66 
  -4  -1 -11    8.70    0.83 
  -5  -1 -11    0.68    0.41 
  -6   2  11    2.50    0.66 
  -5   2  11    0.85    0.51 
  -4   2  11    1.10    0.46 
  -3   2  11    0.99    0.48 
  -3   2  11    1.43    0.42 
  -2   2  11    0.46    0.35 
  -2   2  11    0.96    0.46 
  -1   2  11    6.31    0.61 
  -1   2  11    7.47    0.78 
   0  -2 -11    2.77    0.42 
   0   2  11    3.22    0.57 
   0   2  11    2.33    0.44 
  -1  -2 -11    3.00    0.46 
   1   2  11    2.72    0.49 
   1   2  11    4.02    0.58 
  -2  -2 -11   27.43    1.43 
  -3  -2 -11    1.89    0.46 
  -4  -2 -11   -0.30    0.30 
  -5  -2 -11    1.23    0.45 
  -6   3  11    0.19    0.46 
  -5   3  11    0.18    0.43 
  -4   3  11   10.19    0.89 
  -4   3  11    9.04    0.92 
  -3   3  11    5.11    0.65 
  -3   3  11    4.75    0.74 
  -2   3  11    0.25    0.38 
  -2   3  11    0.25    0.46 
  -1   3  11    5.33    0.64 
  -1   3  11    6.94    0.77 
   0  -3 -11    6.25    0.60 
   0   3  11    5.75    0.67 
   0   3  11    6.98    0.75 
  -1  -3 -11    0.43    0.28 
   1   3  11    0.30    0.38 
  -2  -3 -11    1.29    0.39 
   2   3  11    1.69    0.51 
  -3  -3 -11    3.65    0.58 
  -4  -3 -11    1.20    0.47 
  -5   4  11    0.51    0.54 
  -5   4  11    0.09    0.45 
  -4   4  11   -0.20    0.42 
  -4   4  11    0.48    0.45 
  -3   4  11    0.59    0.46 
  -3   4  11    0.35    0.47 
  -2   4  11    2.74    0.59 
  -2   4  11    2.70    0.57 
  -1   4  11    2.27    0.53 
   0   4  11    1.98    0.53 
  -1  -4 -11    3.02    0.48 
   1   4  11    3.86    0.62 
  -2  -4 -11    9.46    0.79 
   2   4  11    8.09    0.87 
  -3  -4 -11    0.46    0.37 
  -4  -4 -11    1.14    0.41 
  -5   5  11    2.48    0.60 
  -5   5  11    2.00    0.66 
  -4   5  11    4.41    0.77 
  -4   5  11    4.03    0.70 
  -3   5  11    0.21    0.47 
  -2   5  11    0.25    0.50 
  -1   5  11    1.89    0.59 
   0   5  11    1.75    0.56 
   1   5  11    0.33    0.45 
  -2  -5 -11    2.11    0.48 
   2   5  11    2.99    0.62 
  -3  -5 -11    0.75    0.37 
  -4   6  11    0.57    0.58 
  -3   6  11    2.40    0.66 
  -2   6  11    1.53    0.60 
  -1   6  11    0.12    0.49 
   0   6  11    2.59    0.66 
   1   6  11    0.78    0.59 
   1  10 -12    0.57    0.46 
   0  10 -12    0.44    0.45 
  -1  10 -12    0.66    0.46 
   3   9 -12    1.19    0.48 
   2   9 -12    3.79    0.67 
   1   9 -12   -0.20    0.35 
   0   9 -12    0.68    0.44 
  -1   9 -12    1.27    0.48 
  -2   9 -12    1.07    0.48 
  -3   9 -12    1.60    0.53 
   4   8 -12    1.83    0.47 
   3   8 -12    0.94    0.46 
   2   8 -12    1.59    0.50 
  -2  -8  12    1.58    0.60 
   1   8 -12    1.11    0.44 
   0   8 -12    3.11    0.56 
  -1   8 -12   -0.28    0.35 
  -2   8 -12    2.75    0.58 
  -3   8 -12    2.96    0.62 
  -4   8 -12    0.50    0.46 
   5   7 -12    0.21    0.38 
   4   7 -12    0.63    0.39 
  -4  -7  12   -0.01    0.56 
   3   7 -12    2.91    0.55 
  -3  -7  12    2.83    0.65 
   2   7 -12    2.77    0.55 
  -2  -7  12    1.64    0.61 
   1   7 -12    0.02    0.34 
  -1  -7  12    0.06    0.52 
   0   7 -12    1.17    0.42 
  -1   7 -12    1.25    0.47 
  -2   7 -12    4.23    0.66 
  -3   7 -12   -0.22    0.38 
  -4   7 -12    1.82    0.55 
   5   6 -12    1.67    0.43 
  -5  -6  12    2.52    0.74 
   4   6 -12    0.17    0.34 
  -4  -6  12    0.94    0.59 
   3   6 -12   -0.04    0.33 
  -3  -6  12    0.85    0.62 
   2   6 -12    4.35    0.60 
  -2  -6  12    3.51    0.69 
   1   6 -12    3.02    0.54 
  -1  -6  12    3.39    0.69 
   0   6 -12    0.16    0.34 
  -1   6 -12    5.27    0.67 
  -2   6 -12    9.77    0.91 
  -3   6 -12    6.85    0.80 
  -4   6 -12    0.63    0.48 
  -5   6 -12    0.22    0.49 
  -6  -5  12    0.35    0.70 
  -5  -5  12    0.63    0.68 
   4   5 -12    3.96    0.56 
  -4  -5  12    4.22    0.81 
   3   5 -12    4.32    0.59 
  -3  -5  12    6.61    0.84 
   2   5 -12   -0.13    0.24 
  -2  -5  12    0.10    0.51 
   1   5 -12    1.89    0.44 
  -1  -5  12    1.82    0.55 
   0   5 -12    6.98    0.73 
   0  -5  12    9.52    0.91 
  -1   5 -12   10.12    0.87 
  -2   5 -12    0.58    0.38 
  -3   5 -12    7.25    0.82 
  -4   5 -12    7.29    0.86 
  -5   5 -12    1.96    0.60 
  -6  -4  12    0.42    0.70 
  -5  -4  12    1.33    0.71 
   4   4 -12    0.51    0.29 
  -4  -4  12    0.05    0.59 
   3   4 -12    0.57    0.29 
  -3  -4  12    0.82    0.52 
   2   4 -12   11.58    0.86 
  -2  -4  12   12.08    1.08 
   1   4 -12    2.27    0.44 
  -1  -4  12    3.34    0.66 
   0   4 -12    0.95    0.36 
   0  -4  12    1.55    0.57 
  -1   4 -12   12.45    0.94 
  -2   4 -12   10.47    0.91 
  -3   4 -12   11.39    0.99 
  -4   4 -12    0.53    0.48 
  -5   4 -12    2.13    0.62 
  -6  -3  12   -0.14    0.63 
  -5  -3  12    3.83    0.78 
  -4  -3  12    1.24    0.65 
   3   3 -12    0.93    0.32 
  -3  -3  12    0.74    0.55 
   2   3 -12   -0.07    0.25 
  -2  -3  12   -0.30    0.43 
   1   3 -12    3.16    0.49 
  -1  -3  12    3.62    0.67 
   0   3 -12   24.01    1.31 
   0  -3  12   23.52    1.44 
  -1   3 -12    6.22    0.68 
  -2   3 -12    4.26    0.62 
  -3   3 -12   12.55    1.00 
  -4   3 -12    3.66    0.67 
  -5   3 -12    0.54    0.46 
  -6  -2  12   -0.16    0.59 
  -5  -2  12    0.58    0.61 
  -4  -2  12    1.11    0.63 
   3   2 -12    3.78    0.45 
  -3  -2  12    4.68    0.78 
   2   2 -12   14.08    0.89 
  -2  -2  12   13.70    1.07 
   1   2 -12    1.63    0.37 
  -1  -2  12    1.18    0.51 
   0   2 -12    7.82    0.70 
   0  -2  12    6.48    0.79 
  -1   2 -12   15.99    1.02 
  -2   2 -12    9.41    0.83 
  -3   2 -12    4.81    0.66 
  -4   2 -12    0.88    0.43 
  -5   2 -12    4.15    0.73 
  -6  -1  12    0.65    0.58 
  -5  -1  12    3.40    0.78 
  -4  -1  12    1.44    0.56 
  -3  -1  12    0.43    0.48 
   2   1 -12    1.87    0.37 
  -2  -1  12    2.39    0.60 
   1   1 -12   13.53    0.88 
  -1  -1  12   13.70    1.10 
   0   1 -12   25.74    1.37 
   0  -1  12   26.43    1.54 
  -1   1 -12   -0.08    0.29 
   1  -1  12   -0.32    0.37 
  -2   1 -12   11.76    0.91 
  -3   1 -12    8.49    0.82 
  -4   1 -12    4.57    0.69 
  -5   1 -12    0.56    0.50 
  -6   0  12    0.37    0.56 
  -5   0  12    0.35    0.49 
  -4   0  12    2.96    0.67 
  -3   0  12    2.40    0.62 
  -2   0  12    8.34    0.88 
   1   0 -12    0.79    0.31 
  -1   0  12    0.97    0.51 
   0   0 -12   10.28    0.78 
   0   0  12   10.99    0.95 
  -1   0 -12   20.01    1.14 
   1   0  12   18.64    1.24 
  -2   0 -12    3.82    0.57 
  -3   0 -12    0.20    0.36 
  -4   0 -12    3.88    0.67 
  -5   0 -12    4.06    0.73 
  -6   1  12    0.09    0.46 
  -5   1  12    1.07    0.50 
  -4   1  12    2.10    0.60 
  -3   1  12    0.52    0.50 
  -2   1  12    8.69    0.91 
   1  -1 -12    4.58    0.51 
  -1   1  12    6.26    0.77 
   0  -1 -12    2.31    0.42 
   0   1  12    2.04    0.39 
   0   1  12    1.80    0.51 
  -1  -1 -12    2.32    0.44 
   1   1  12    1.31    0.51 
  -2  -1 -12    5.61    0.66 
  -3  -1 -12    6.63    0.79 
  -4  -1 -12    0.55    0.40 
  -5  -1 -12    1.31    0.45 
  -6   2  12    0.66    0.48 
  -5   2  12    0.39    0.49 
  -4   2  12    3.76    0.71 
  -3   2  12    0.59    0.52 
  -2   2  12    0.66    0.52 
  -1   2  12    1.39    0.42 
  -1   2  12    1.23    0.53 
   0  -2 -12   12.87    0.87 
   0   2  12   13.39    1.01 
   0   2  12   13.57    0.92 
  -1  -2 -12   13.48    0.93 
   1   2  12   12.23    0.90 
   1   2  12   12.90    0.99 
  -2  -2 -12    0.63    0.37 
  -3  -2 -12    2.24    0.51 
  -4  -2 -12    4.44    0.67 
  -5   3  12    2.32    0.63 
  -4   3  12    0.39    0.52 
  -3   3  12    1.12    0.54 
  -2   3  12    8.30    0.79 
  -2   3  12   10.54    0.99 
  -1   3  12    1.14    0.48 
  -1   3  12    0.29    0.46 
   0   3  12    0.64    0.39 
   0   3  12    1.08    0.43 
  -1  -3 -12    3.59    0.53 
   1   3  12    3.46    0.62 
  -2  -3 -12    6.16    0.68 
  -3  -3 -12    3.79    0.61 
  -4  -3 -12    0.36    0.36 
  -5   4  12    0.15    0.42 
  -4   4  12    0.69    0.55 
  -3   4  12    0.27    0.49 
  -3   4  12   -0.03    0.45 
  -2   4  12    1.00    0.46 
  -2   4  12    0.39    0.49 
  -1   4  12    2.05    0.60 
   0   4  12    7.36    0.82 
  -1  -4 -12    5.60    0.61 
   1   4  12    4.05    0.66 
  -2  -4 -12    1.38    0.42 
   2   4  12    0.82    0.51 
  -3  -4 -12    1.30    0.42 
  -4   5  12    0.46    0.51 
  -4   5  12    1.19    0.46 
  -3   5  12    0.25    0.51 
  -2   5  12    0.34    0.49 
  -1   5  12    0.51    0.49 
   0   5  12    1.27    0.53 
   1   5  12    4.69    0.75 
  -2  -5 -12    2.40    0.46 
   2   5  12    1.90    0.65 
  -1   6  12    3.64    0.77 
   2   9 -13    0.17    0.36 
   1   9 -13    0.40    0.40 
   0   9 -13    1.79    0.56 
  -1   9 -13    0.33    0.43 
  -2   9 -13   -0.15    0.40 
   3   8 -13    0.19    0.43 
  -3  -8  13    0.37    0.59 
   2   8 -13    0.67    0.42 
  -2  -8  13    0.62    0.58 
   1   8 -13   -0.01    0.37 
   0   8 -13   -0.18    0.33 
  -1   8 -13    1.69    0.55 
  -2   8 -13    1.50    0.52 
  -3   8 -13   -0.08    0.40 
   4   7 -13    0.57    0.42 
  -4  -7  13    0.95    0.65 
   3   7 -13    0.20    0.37 
  -3  -7  13    0.56    0.61 
   2   7 -13    0.88    0.43 
  -2  -7  13    1.28    0.64 
   1   7 -13    7.63    0.82 
   0   7 -13    4.02    0.64 
  -1   7 -13    0.47    0.41 
  -2   7 -13    1.01    0.46 
  -3   7 -13    3.60    0.67 
  -4   7 -13    2.33    0.61 
  -5  -6  13    0.54    0.73 
   4   6 -13    0.72    0.39 
  -4  -6  13    0.73    0.62 
   3   6 -13    2.25    0.50 
  -3  -6  13    3.47    0.78 
   2   6 -13    2.67    0.53 
  -2  -6  13    0.94    0.58 
   1   6 -13    0.50    0.37 
  -1  -6  13    0.49    0.58 
   0   6 -13    1.92    0.50 
  -1   6 -13    3.55    0.60 
  -2   6 -13    1.61    0.52 
  -3   6 -13   -0.19    0.38 
  -4   6 -13    1.92    0.58 
  -5  -5  13    0.88    0.72 
   4   5 -13    1.37    0.42 
  -4  -5  13    1.49    0.72 
   3   5 -13    0.03    0.31 
  -3  -5  13   -0.17    0.53 
   2   5 -13    3.08    0.54 
  -2  -5  13    3.20    0.74 
   1   5 -13    7.73    0.77 
  -1  -5  13    7.19    0.89 
   0   5 -13    1.44    0.43 
   0  -5  13    1.16    0.60 
  -1   5 -13   -0.19    0.33 
  -2   5 -13    2.81    0.55 
  -3   5 -13    4.67    0.73 
  -4   5 -13    0.99    0.53 
  -6  -4  13   -0.02    0.74 
  -5  -4  13    0.00    0.63 
  -4  -4  13   -0.02    0.59 
   3   4 -13    6.20    0.64 
  -3  -4  13    5.56    0.89 
   2   4 -13    1.41    0.40 
  -2  -4  13    0.83    0.57 
   1   4 -13    1.37    0.43 
  -1  -4  13    0.18    0.51 
   0   4 -13    4.67    0.62 
   0  -4  13    4.10    0.77 
  -1   4 -13    6.57    0.74 
  -2   4 -13    3.19    0.61 
  -3   4 -13    1.66    0.50 
  -4   4 -13    6.78    0.87 
  -5   4 -13    1.52    0.60 
  -6  -3  13    2.68    0.84 
  -5  -3  13    2.17    0.80 
  -4  -3  13    0.60    0.63 
   3   3 -13    2.60    0.45 
  -3  -3  13    3.14    0.76 
   2   3 -13    5.32    0.61 
  -2  -3  13    6.04    0.85 
   1   3 -13    8.68    0.75 
  -1  -3  13    7.29    0.89 
   0   3 -13    0.44    0.33 
   0  -3  13    0.70    0.50 
  -1   3 -13    4.76    0.66 
  -2   3 -13    7.28    0.79 
  -3   3 -13    1.60    0.48 
  -4   3 -13    0.07    0.44 
  -5   3 -13    1.59    0.61 
  -6  -2  13    0.55    0.69 
  -5  -2  13    0.78    0.68 
  -4  -2  13    1.67    0.70 
  -3  -2  13    7.19    0.95 
   2   2 -13    0.71    0.30 
  -2  -2  13    1.37    0.55 
   1   2 -13    3.19    0.51 
  -1  -2  13    4.04    0.70 
   0   2 -13    8.39    0.76 
   0  -2  13    7.67    0.87 
  -1   2 -13    5.99    0.70 
  -2   2 -13    0.25    0.36 
  -3   2 -13    5.66    0.75 
  -4   2 -13    9.62    0.96 
  -5   2 -13    0.60    0.51 
  -6  -1  13    3.03    0.87 
  -5  -1  13    0.20    0.63 
  -4  -1  13    0.82    0.59 
  -3  -1  13    1.37    0.57 
   2   1 -13    3.69    0.48 
  -2  -1  13    3.61    0.69 
   1   1 -13    3.20    0.50 
  -1  -1  13    3.49    0.69 
   0   1 -13    1.83    0.43 
   0  -1  13    2.21    0.58 
  -1   1 -13    6.85    0.72 
  -2   1 -13    6.47    0.74 
  -3   1 -13    0.97    0.46 
  -4   1 -13    1.27    0.51 
  -6   0  13    0.07    0.52 
  -5   0  13    1.04    0.60 
  -4   0  13    1.35    0.62 
  -3   0  13    1.94    0.64 
  -2   0  13    2.12    0.60 
   1   0 -13    9.76    0.77 
  -1   0  13    9.33    0.97 
   0   0 -13    7.72    0.71 
   0   0  13    6.64    0.82 
  -1   0 -13    0.17    0.33 
   1   0  13   -0.38    0.43 
  -2   0 -13    2.31    0.52 
  -3   0 -13    7.38    0.81 
  -4   0 -13    4.41    0.69 
  -5   1  13   -0.11    0.55 
  -4   1  13    0.15    0.48 
  -3   1  13    4.93    0.82 
  -2   1  13    2.50    0.66 
  -1   1  13    0.25    0.51 
   0  -1 -13    6.07    0.63 
   0   1  13    5.26    0.76 
  -1  -1 -13    8.24    0.76 
   1   1  13    6.93    0.83 
  -2  -1 -13    5.86    0.71 
  -3  -1 -13    0.44    0.42 
  -4  -1 -13    2.70    0.60 
  -5   2  13    0.55    0.54 
  -4   2  13    1.28    0.59 
  -3   2  13   -0.01    0.52 
  -2   2  13    5.79    0.85 
  -1   2  13   12.21    1.09 
   0  -2 -13    2.29    0.44 
   0   2  13    3.15    0.63 
  -1  -2 -13    0.59    0.37 
   1   2  13    0.83    0.41 
  -2  -2 -13    1.51    0.47 
  -3  -2 -13    4.72    0.73 
  -4   3  13    0.71    0.55 
  -3   3  13    4.41    0.83 
  -2   3  13    0.26    0.52 
  -1   3  13   -0.25    0.47 
   0   3  13    2.41    0.54 
  -1  -3 -13    4.42    0.60 
   1   3  13    3.17    0.59 
  -2  -3 -13    2.84    0.55 
  -3  -3 -13   -0.07    0.34 
  -4   4  13   -0.26    0.44 
  -3   4  13    1.41    0.56 
  -1   4  13    4.17    0.69 
   0   4  13   -0.16    0.42 
   1   4  13    1.13    0.52 
  -2  -4 -13    1.06    0.39 
  -2   5  13   -0.11    0.50 
  -1   5  13    0.71    0.55 
   0   5  13    1.98    0.61 
   2   8 -14   -0.14    0.36 
  -2  -8  14    0.39    0.58 
   1   8 -14    1.12    0.44 
   0   8 -14    2.11    0.54 
  -1   8 -14    1.60    0.53 
  -2   8 -14    0.67    0.49 
   3   7 -14    1.99    0.51 
  -3  -7  14    2.47    0.75 
   2   7 -14    1.65    0.47 
  -2  -7  14    2.03    0.73 
   1   7 -14    1.35    0.48 
   0   7 -14   -0.06    0.39 
  -1   7 -14    2.03    0.53 
  -2   7 -14    1.79    0.54 
  -3   7 -14   -0.41    0.39 
   4   6 -14    0.52    0.36 
  -4  -6  14    2.03    0.73 
   3   6 -14   -0.05    0.33 
  -3  -6  14    0.45    0.61 
   2   6 -14    0.22    0.40 
  -2  -6  14    0.94    0.59 
   1   6 -14    1.29    0.47 
  -1  -6  14    2.18    0.72 
   0   6 -14    2.03    0.53 
  -1   6 -14   -0.13    0.36 
  -2   6 -14    1.00    0.46 
  -3   6 -14    4.74    0.75 
  -5  -5  14    0.70    0.74 
   4   5 -14    0.09    0.26 
  -4  -5  14    1.22    0.70 
   3   5 -14    1.95    0.45 
  -3  -5  14    2.58    0.78 
   2   5 -14    2.90    0.54 
  -2  -5  14    2.05    0.72 
   1   5 -14    0.44    0.39 
  -1  -5  14    0.50    0.56 
   0   5 -14    0.83    0.40 
  -1   5 -14   11.47    1.00 
  -2   5 -14    3.14    0.59 
  -3   5 -14    0.27    0.46 
  -4   5 -14    0.68    0.55 
  -5  -4  14    2.27    0.85 
  -4  -4  14    1.92    0.75 
   3   4 -14    2.07    0.44 
  -3  -4  14    1.74    0.70 
   2   4 -14    1.08    0.41 
  -2  -4  14    2.11    0.70 
   1   4 -14    2.73    0.56 
  -1  -4  14    4.53    0.81 
   0   4 -14    3.65    0.62 
   0  -4  14    2.72    0.70 
  -1   4 -14    0.26    0.37 
  -2   4 -14    4.18    0.66 
  -3   4 -14    7.22    0.88 
  -4   4 -14    1.24    0.56 
  -5  -3  14    0.22    0.69 
  -4  -3  14    2.49    0.81 
  -3  -3  14    0.58    0.66 
   2   3 -14    1.39    0.43 
  -2  -3  14    1.68    0.66 
   1   3 -14    1.16    0.39 
  -1  -3  14    1.11    0.54 
   0   3 -14    5.24    0.68 
   0  -3  14    6.02    0.86 
  -1   3 -14    9.44    0.90 
  -2   3 -14    2.84    0.60 
  -3   3 -14    1.57    0.51 
  -4   3 -14    1.59    0.49 
  -5  -2  14    1.64    0.82 
  -4  -2  14   -0.20    0.62 
  -3  -2  14    3.38    0.76 
   2   2 -14    3.08    0.49 
  -2  -2  14    4.32    0.78 
   1   2 -14    3.18    0.52 
  -1  -2  14    3.03    0.70 
   0   2 -14    2.02    0.48 
   0  -2  14    2.01    0.61 
  -1   2 -14    4.08    0.63 
  -2   2 -14   11.93    1.01 
  -3   2 -14    5.96    0.80 
  -4   2 -14   -0.50    0.34 
  -5  -1  14    1.51    0.66 
  -4  -1  14    5.10    0.89 
  -3  -1  14    2.05    0.64 
  -2  -1  14    0.42    0.53 
   1   1 -14    4.66    0.59 
  -1  -1  14    4.45    0.78 
   0   1 -14    8.41    0.81 
   0  -1  14   10.01    1.01 
  -1   1 -14    4.73    0.67 
  -2   1 -14   -0.17    0.36 
  -3   1 -14    1.57    0.52 
  -4   1 -14    1.47    0.49 
  -5   0  14    0.47    0.49 
  -4   0  14   -0.44    0.50 
  -3   0  14    1.58    0.64 
  -2   0  14    3.93    0.78 
  -1   0  14    5.05    0.80 
   0   0 -14    0.28    0.35 
   0   0  14    0.36    0.48 
  -1   0 -14    4.57    0.65 
  -2   0 -14    7.24    0.80 
  -3   0 -14    2.56    0.57 
  -5   1  14    0.73    0.53 
  -4   1  14    2.57    0.74 
  -3   1  14    0.48    0.54 
  -2   1  14   -0.70    0.49 
  -1   1  14    3.39    0.74 
   0  -1 -14    4.57    0.60 
   0   1  14    5.49    0.80 
  -1  -1 -14    1.75    0.47 
  -2  -1 -14    0.79    0.42 
  -3  -1 -14    5.07    0.72 
  -4   2  14    0.57    0.53 
  -3   2  14    2.87    0.72 
  -2   2  14    2.91    0.74 
  -1   2  14    0.68    0.49 
   0   2  14    3.78    0.72 
  -1  -2 -14    3.02    0.56 
  -2  -2 -14    1.54    0.49 
  -3   3  14    0.49    0.53 
  -2   3  14    0.44    0.51 
   2   7 -15    0.33    0.37 
  -2  -7  15   -0.40    0.58 
   1   7 -15    0.84    0.42 
   0   7 -15    1.08    0.45 
  -1   7 -15    0.76    0.44 
   3   6 -15    0.04    0.35 
  -3  -6  15    0.97    0.71 
   2   6 -15    2.56    0.58 
  -2  -6  15    2.92    0.78 
   1   6 -15    2.93    0.57 
  -1  -6  15    3.42    0.78 
   0   6 -15   -0.11    0.36 
  -1   6 -15    1.84    0.50 
  -2   6 -15    3.06    0.64 
  -4  -5  15    0.40    0.70 
   3   5 -15    0.28    0.33 
  -3  -5  15    0.21    0.68 
   2   5 -15    0.56    0.39 
  -2  -5  15    0.23    0.66 
   1   5 -15    0.98    0.43 
  -1  -5  15    2.45    0.74 
   0   5 -15    3.51    0.62 
  -1   5 -15    0.76    0.43 
  -2   5 -15   -0.28    0.33 
  -3   5 -15   -0.20    0.32 
  -4  -4  15   -0.23    0.67 
  -3  -4  15    3.34    0.86 
   2   4 -15    3.02    0.57 
  -2  -4  15    3.13    0.78 
   1   4 -15    0.29    0.36 
  -1  -4  15    0.29    0.55 
   0   4 -15    0.10    0.37 
   0  -4  15    0.94    0.57 
  -1   4 -15    2.35    0.54 
  -2   4 -15    4.20    0.71 
  -3   4 -15    0.09    0.38 
  -4  -3  15    1.43    0.75 
  -3  -3  15    2.85    0.80 
   2   3 -15    0.26    0.32 
  -2  -3  15    0.41    0.57 
   1   3 -15    3.39    0.59 
  -1  -3  15    4.37    0.79 
   0   3 -15    3.36    0.60 
   0  -3  15    3.85    0.79 
  -1   3 -15    0.59    0.41 
  -2   3 -15    0.37    0.43 
  -3   3 -15    2.08    0.58 
  -4  -2  15    1.02    0.70 
  -3  -2  15    1.34    0.67 
  -2  -2  15    0.88    0.56 
   1   2 -15    0.21    0.32 
  -1  -2  15    0.47    0.51 
   0   2 -15    2.92    0.57 
   0  -2  15    2.85    0.70 
  -1   2 -15    5.71    0.77 
  -2   2 -15    2.47    0.58 
  -3   2 -15    0.32    0.39 
  -4  -1  15    1.11    0.60 
  -3  -1  15    0.36    0.59 
  -2  -1  15    2.01    0.67 
   1   1 -15    2.23    0.46 
  -1  -1  15    2.06    0.64 
   0   1 -15    2.12    0.51 
   0  -1  15    1.62    0.63 
  -1   1 -15    0.50    0.40 
  -2   1 -15    5.29    0.76 
  -3   1 -15    2.27    0.55 
  -4   0  15    1.26    0.61 
  -3   0  15    0.49    0.58 
  -2   0  15    0.88    0.58 
  -1   0  15    1.37    0.61 
   0   0 -15    6.64    0.73 
   0   0  15    6.88    0.92 
  -1   0 -15    3.67    0.60 
  -2   0 -15   -0.46    0.36 
  -3   1  15    0.09    0.50 
  -2   1  15    2.71    0.72 
  -1   1  15    3.39    0.74 
   0   1  15    0.86    0.53 
  -1  -1 -15    2.26    0.53 
  -2  -1 -15    6.02    0.76 
  -3   2  15   -0.21    0.41 
  -2   2  15    0.63    0.56 
  -1   2  15    1.62    0.57 
   1   6 -16    2.46    0.58 
  -1  -6  16    3.43    0.83 
   0   6 -16    5.49    0.77 
   2   5 -16    0.35    0.35 
  -2  -5  16    0.21    0.63 
   1   5 -16    0.51    0.39 
  -1  -5  16    0.22    0.68 
   0   5 -16    0.18    0.38 
  -1   5 -16    0.99    0.45 
  -3  -4  16    0.36    0.70 
   2   4 -16    0.34    0.36 
  -2  -4  16    0.94    0.67 
   1   4 -16    4.22    0.66 
  -1  -4  16    3.59    0.83 
   0   4 -16    6.55    0.79 
  -1   4 -16    1.01    0.51 
  -2   4 -16    1.39    0.47 
  -3  -3  16    0.19    0.66 
  -2  -3  16    2.43    0.66 
   1   3 -16    0.14    0.32 
  -1  -3  16    0.33    0.54 
   0   3 -16    0.97    0.43 
   0  -3  16    1.48    0.59 
  -1   3 -16    0.94    0.48 
  -2   3 -16    0.43    0.39 
  -3  -2  16   -0.21    0.53 
  -2  -2  16    3.53    0.74 
   1   2 -16    3.90    0.57 
  -1  -2  16    3.79    0.77 
   0   2 -16    3.08    0.60 
   0  -2  16    3.32    0.76 
  -1   2 -16    0.79    0.44 
  -2   2 -16    3.37    0.65 
  -3  -1  16    1.78    0.60 
  -2  -1  16    3.64    0.80 
  -1  -1  16    0.89    0.52 
   0   1 -16    0.68    0.40 
   0  -1  16    1.99    0.65 
  -1   1 -16    1.87    0.51 
  -2   0  16    1.56    0.62 
  -1   0  16    4.92    0.81 
   0   0  16   -0.06    0.46 
   0   0   0    0.00    0.00 
;
_shelx_hkl_checksum              55533
#END Tags that were not found in dictionaries
loop_
_space_group_symop_operation_xyz
'x, y, z'
'-x, -y, -z'
loop_
_atom_site_label
_atom_site_type_symbol
_atom_site_fract_x
_atom_site_fract_y
_atom_site_fract_z
_atom_site_U_iso_or_equiv
_atom_site_adp_type
_atom_site_occupancy
_atom_site_site_symmetry_order
_atom_site_calc_flag
_atom_site_refinement_flags_posn
_atom_site_refinement_flags_adp
Br1 Br 0.36700(11) 0.71508(8) 0.30189(5) 0.0537(3) Uani 1 1 d . .
O1 O 0.7869(6) 0.8960(5) 0.7607(3) 0.0434(10) Uani 1 1 d . .
O2 O 0.9925(6) 0.7539(5) 0.9036(4) 0.0457(10) Uani 1 1 d . .
O3 O 1.2087(7) 0.7469(6) 1.0460(4) 0.0589(12) Uani 1 1 d . .
C1 C 0.4220(8) 0.7074(6) 0.5267(5) 0.0381(13) Uani 1 1 d . .
C2 C 0.5064(9) 0.7564(7) 0.4440(5) 0.0423(13) Uani 1 1 d . .
C3 C 0.6881(10) 0.8450(7) 0.4670(5) 0.0455(14) Uani 1 1 d . .
H3 H 0.7462 0.8746 0.4105 0.055 Uiso 1 1 calc R U
C4 C 0.7846(9) 0.8901(8) 0.5711(5) 0.0447(14) Uani 1 1 d . .
H4 H 0.9039 0.9530 0.5855 0.054 Uiso 1 1 calc R U
C5 C 0.7009(8) 0.8401(7) 0.6550(5) 0.0357(12) Uani 1 1 d . .
C6 C 0.5254(8) 0.7481(6) 0.6307(5) 0.0356(12) Uani 1 1 d . .
C7 C 0.4081(8) 0.6957(6) 0.7117(5) 0.0352(12) Uani 1 1 d . .
H7 H 0.4545 0.5983 0.7216 0.042 Uiso 1 1 calc R U
C8 C 0.1974(9) 0.6637(8) 0.6535(6) 0.0498(15) Uani 1 1 d . .
H8A H 0.1242 0.7543 0.6727 0.060 Uiso 1 1 calc R U
H8B H 0.1259 0.5787 0.6731 0.060 Uiso 1 1 calc R U
C9 C 0.2234(9) 0.6225(8) 0.5310(5) 0.0475(15) Uani 1 1 d . .
H9A H 0.2262 0.5121 0.5028 0.057 Uiso 1 1 calc R U
H9B H 0.1170 0.6578 0.4895 0.057 Uiso 1 1 calc R U
C10 C 0.4582(9) 0.8218(7) 0.8217(5) 0.0399(13) Uani 1 1 d . .
H10 H 0.4055 0.7826 0.8804 0.048 Uiso 1 1 calc R U
C11 C 0.6869(9) 0.8505(7) 0.8456(5) 0.0386(13) Uani 1 1 d . .
H11 H 0.7154 0.9355 0.9117 0.046 Uiso 1 1 calc R U
C12 C 0.7843(9) 0.7114(7) 0.8698(5) 0.0396(13) Uani 1 1 d . .
H12 H 0.7666 0.6249 0.8044 0.048 Uiso 1 1 calc R U
C13 C 0.7104(10) 0.6611(7) 0.9642(6) 0.0484(15) Uani 1 1 d . .
H13 H 0.5789 0.6261 0.9674 0.058 Uiso 1 1 calc R U
C14 C 0.8572(9) 0.6729(7) 1.0430(5) 0.0430(14) Uani 1 1 d . .
C15 C 1.0409(9) 0.7269(7) 1.0038(5) 0.0408(13) Uani 1 1 d . .
C16 C 0.8563(12) 0.6410(10) 1.1521(6) 0.0624(19) Uani 1 1 d . .
H16A H 0.7226 0.6097 1.1632 0.094 Uiso 1 1 calc R U
H16B H 0.9056 0.7326 1.2075 0.094 Uiso 1 1 calc R U
H16C H 0.9402 0.5600 1.1564 0.094 Uiso 1 1 calc R U
C17 C 0.3697(10) 0.9725(8) 0.8195(6) 0.0514(16) Uani 1 1 d . .
H17A H 0.4123 1.0479 0.8870 0.077 Uiso 1 1 calc R U
H17B H 0.2267 0.9557 0.8106 0.077 Uiso 1 1 calc R U
H17C H 0.4140 1.0091 0.7596 0.077 Uiso 1 1 calc R U
loop_
_atom_site_aniso_label
_atom_site_aniso_U_11
_atom_site_aniso_U_22
_atom_site_aniso_U_33
_atom_site_aniso_U_23
_atom_site_aniso_U_13
_atom_site_aniso_U_12
Br1 0.0616(5) 0.0566(4) 0.0388(4) 0.0083(3) -0.0060(3) 0.0037(3)
O1 0.032(2) 0.060(3) 0.040(2) 0.0180(19) 0.0009(17) -0.0059(18)
O2 0.034(2) 0.064(3) 0.045(2) 0.023(2) 0.0068(18) 0.0087(19)
O3 0.037(3) 0.084(3) 0.054(3) 0.019(3) -0.007(2) 0.002(2)
C1 0.035(3) 0.040(3) 0.039(3) 0.010(2) 0.000(2) 0.008(2)
C2 0.041(3) 0.049(3) 0.036(3) 0.010(3) 0.000(2) 0.010(3)
C3 0.046(4) 0.056(4) 0.040(3) 0.022(3) 0.010(3) 0.003(3)
C4 0.035(3) 0.056(4) 0.046(3) 0.018(3) 0.009(3) -0.002(3)
C5 0.030(3) 0.045(3) 0.034(3) 0.013(2) 0.002(2) 0.005(2)
C6 0.031(3) 0.037(3) 0.042(3) 0.014(2) 0.008(2) 0.004(2)
C7 0.031(3) 0.040(3) 0.040(3) 0.017(2) 0.008(2) 0.004(2)
C8 0.033(3) 0.063(4) 0.055(4) 0.020(3) 0.008(3) -0.003(3)
C9 0.039(3) 0.051(3) 0.050(4) 0.010(3) -0.002(3) 0.001(3)
C10 0.033(3) 0.052(3) 0.039(3) 0.017(3) 0.007(2) 0.006(2)
C11 0.043(3) 0.042(3) 0.032(3) 0.012(2) 0.002(2) 0.002(2)
C12 0.036(3) 0.042(3) 0.038(3) 0.007(2) 0.002(2) 0.001(2)
C13 0.034(3) 0.052(4) 0.063(4) 0.025(3) 0.000(3) 0.000(3)
C14 0.042(3) 0.045(3) 0.047(3) 0.018(3) 0.011(3) 0.009(3)
C15 0.036(3) 0.047(3) 0.040(3) 0.012(3) 0.003(3) 0.002(3)
C16 0.060(4) 0.087(5) 0.052(4) 0.032(4) 0.019(3) 0.023(4)
C17 0.046(4) 0.058(4) 0.053(4) 0.013(3) 0.013(3) 0.011(3)
loop_
_atom_type_symbol
_atom_type_description
_atom_type_scat_dispersion_real
_atom_type_scat_dispersion_imag
_atom_type_scat_source
C C 0.0033 0.0016 'International Tables Vol C Tables 4.2.6.8 and 6.1.1.4'
H H 0.0000 0.0000 'International Tables Vol C Tables 4.2.6.8 and 6.1.1.4'
O O 0.0106 0.0060 'International Tables Vol C Tables 4.2.6.8 and 6.1.1.4'
Br Br -0.2901 2.4595 'International Tables Vol C Tables 4.2.6.8 and 6.1.1.4'
loop_
_geom_angle_atom_site_label_1
_geom_angle_atom_site_label_2
_geom_angle_atom_site_label_3
_geom_angle
C5 O1 C11 117.2(4)
C15 O2 C12 109.9(4)
C2 C1 C6 118.2(5)
C2 C1 C9 132.6(5)
C6 C1 C9 109.1(5)
C1 C2 C3 119.6(5)
C1 C2 Br1 120.4(5)
C3 C2 Br1 119.8(5)
C4 C3 C2 121.7(6)
C4 C3 H3 119.1
C2 C3 H3 119.1
C3 C4 C5 119.0(5)
C3 C4 H4 120.5
C5 C4 H4 120.5
C6 C5 O1 121.8(5)
C6 C5 C4 118.8(5)
O1 C5 C4 119.2(5)
C5 C6 C1 122.6(5)
C5 C6 C7 125.5(5)
C1 C6 C7 111.4(5)
C6 C7 C8 102.9(5)
C6 C7 C10 106.0(4)
C8 C7 C10 121.1(5)
C6 C7 H7 108.7
C8 C7 H7 108.7
C10 C7 H7 108.7
C7 C8 C9 105.3(5)
C7 C8 H8A 110.7
C9 C8 H8A 110.7
C7 C8 H8B 110.7
C9 C8 H8B 110.7
H8A C8 H8B 108.8
C1 C9 C8 103.1(5)
C1 C9 H9A 111.1
C8 C9 H9A 111.1
C1 C9 H9B 111.1
C8 C9 H9B 111.1
H9A C9 H9B 109.1
C17 C10 C11 109.8(5)
C17 C10 C7 112.9(5)
C11 C10 C7 108.2(5)
C17 C10 H10 108.6
C11 C10 H10 108.6
C7 C10 H10 108.6
O1 C11 C12 107.7(5)
O1 C11 C10 114.8(5)
C12 C11 C10 112.9(5)
O1 C11 H11 107.0
C12 C11 H11 107.0
C10 C11 H11 107.0
O2 C12 C13 103.5(5)
O2 C12 C11 109.2(5)
C13 C12 C11 113.9(5)
O2 C12 H12 110.0
C13 C12 H12 110.0
C11 C12 H12 110.0
C14 C13 C12 110.9(6)
C14 C13 H13 124.5
C12 C13 H13 124.5
C13 C14 C15 107.2(6)
C13 C14 C16 130.8(6)
C15 C14 C16 122.0(6)
O3 C15 O2 121.7(5)
O3 C15 C14 129.9(6)
O2 C15 C14 108.3(5)
C14 C16 H16A 109.5
C14 C16 H16B 109.5
H16A C16 H16B 109.5
C14 C16 H16C 109.5
H16A C16 H16C 109.5
H16B C16 H16C 109.5
C10 C17 H17A 109.5
C10 C17 H17B 109.5
H17A C17 H17B 109.5
C10 C17 H17C 109.5
H17A C17 H17C 109.5
H17B C17 H17C 109.5
loop_
_geom_bond_atom_site_label_1
_geom_bond_atom_site_label_2
_geom_bond_distance
Br1 C2 1.898(6)
O1 C5 1.372(7)
O1 C11 1.442(7)
O2 C15 1.367(7)
O2 C12 1.433(7)
O3 C15 1.194(7)
C1 C2 1.382(9)
C1 C6 1.390(8)
C1 C9 1.510(8)
C2 C3 1.385(9)
C3 C4 1.373(9)
C3 H3 0.9300
C4 C5 1.398(8)
C4 H4 0.9300
C5 C6 1.365(8)
C6 C7 1.492(8)
C7 C8 1.522(8)
C7 C10 1.559(8)
C7 H7 0.9800
C8 C9 1.533(9)
C8 H8A 0.9700
C8 H8B 0.9700
C9 H9A 0.9700
C9 H9B 0.9700
C10 C17 1.520(9)
C10 C11 1.541(8)
C10 H10 0.9800
C11 C12 1.533(8)
C11 H11 0.9800
C12 C13 1.489(9)
C12 H12 0.9800
C13 C14 1.325(9)
C13 H13 0.9300
C14 C15 1.471(9)
C14 C16 1.478(9)
C16 H16A 0.9600
C16 H16B 0.9600
C16 H16C 0.9600
C17 H17A 0.9600
C17 H17B 0.9600
C17 H17C 0.9600
loop_
_geom_hbond_atom_site_label_D
_geom_hbond_atom_site_label_H
_geom_hbond_atom_site_label_A
_geom_hbond_distance_DH
_geom_hbond_distance_HA
_geom_hbond_distance_DA
_geom_hbond_angle_DHA
_geom_hbond_site_symmetry_A
C12 H12 Br1 0.98 3.06 3.930(6) 149.0 2_666
C10 H10 O3 0.98 2.65 3.600(8) 163.9 1_455
C12 H12 Br1 0.98 3.06 3.930(6) 149.0 2_666
C10 H10 O3 0.98 2.65 3.600(8) 163.9 1_455
C12 H12 Br1 0.98 3.06 3.930(6) 149.0 2_666
C10 H10 O3 0.98 2.65 3.600(8) 163.9 1_455
C12 H12 Br1 0.98 3.06 3.930(6) 149.0 2_666
C10 H10 O3 0.98 2.65 3.600(8) 163.9 1_455
C12 H12 Br1 0.98 3.06 3.930(6) 149.0 2_666
C10 H10 O3 0.98 2.65 3.600(8) 163.9 1_455
C10 H10 O3 0.98 2.65 3.600(8) 163.9 1_455
C12 H12 Br1 0.98 3.06 3.930(6) 149.0 2_666
C10 H10 O3 0.98 2.65 3.600(8) 163.9 1_455
C12 H12 Br1 0.98 3.06 3.930(6) 149.0 2_666
C10 H10 O3 0.98 2.65 3.600(8) 163.9 1_455
C12 H12 Br1 0.98 3.06 3.930(6) 149.0 2_666
loop_
_geom_torsion_atom_site_label_1
_geom_torsion_atom_site_label_2
_geom_torsion_atom_site_label_3
_geom_torsion_atom_site_label_4
_geom_torsion
C6 C1 C2 C3 -0.7(9)
C9 C1 C2 C3 174.4(6)
C6 C1 C2 Br1 -176.5(4)
C9 C1 C2 Br1 -1.3(9)
C1 C2 C3 C4 -2.1(10)
Br1 C2 C3 C4 173.6(5)
C2 C3 C4 C5 2.6(10)
C11 O1 C5 C6 1.5(8)
C11 O1 C5 C4 175.3(5)
C3 C4 C5 C6 -0.1(9)
C3 C4 C5 O1 -174.2(6)
O1 C5 C6 C1 171.1(5)
C4 C5 C6 C1 -2.8(9)
O1 C5 C6 C7 -0.8(9)
C4 C5 C6 C7 -174.6(6)
C2 C1 C6 C5 3.2(9)
C9 C1 C6 C5 -173.0(5)
C2 C1 C6 C7 176.1(5)
C9 C1 C6 C7 -0.1(7)
C5 C6 C7 C8 155.4(6)
C1 C6 C7 C8 -17.2(6)
C5 C6 C7 C10 27.3(7)
C1 C6 C7 C10 -145.4(5)
C6 C7 C8 C9 27.2(6)
C10 C7 C8 C9 145.2(5)
C2 C1 C9 C8 -158.2(7)
C6 C1 C9 C8 17.3(7)
C7 C8 C9 C1 -27.4(7)
C6 C7 C10 C17 70.4(6)
C8 C7 C10 C17 -46.0(7)
C6 C7 C10 C11 -51.2(6)
C8 C7 C10 C11 -167.7(5)
C5 O1 C11 C12 95.9(6)
C5 O1 C11 C10 -30.9(7)
C17 C10 C11 O1 -66.5(6)
C7 C10 C11 O1 57.1(6)
C17 C10 C11 C12 169.5(5)
C7 C10 C11 C12 -66.9(6)
C15 O2 C12 C13 2.2(6)
C15 O2 C12 C11 123.9(5)
O1 C11 C12 O2 58.9(6)
C10 C11 C12 O2 -173.3(4)
O1 C11 C12 C13 174.1(5)
C10 C11 C12 C13 -58.2(7)
O2 C12 C13 C14 0.0(7)
C11 C12 C13 C14 -118.4(6)
C12 C13 C14 C15 -2.0(8)
C12 C13 C14 C16 178.2(7)
C12 O2 C15 O3 176.4(6)
C12 O2 C15 C14 -3.5(6)
C13 C14 C15 O3 -176.4(7)
C16 C14 C15 O3 3.4(11)
C13 C14 C15 O2 3.4(7)
C16 C14 C15 O2 -176.8(6)
