#------------------------------------------------------------------------------
#$Date: 2016-03-22 21:55:49 +0200 (Tue, 22 Mar 2016) $
#$Revision: 179028 $
#$URL: svn://www.crystallography.net/cod/cif/4/12/26/4122619.cif $
#------------------------------------------------------------------------------
#
# This file is available in the Crystallography Open Database (COD),
# http://www.crystallography.net/
#
# All data on this site have been placed in the public domain by the
# contributors.
#
data_4122619
loop_
_publ_author_name
'Dohner, Emma R.'
'Jaffe, Adam'
'Bradshaw, Liam R.'
'Karunadasa, Hemamala I.'
_publ_section_title
;
 Intrinsic white-light emission from layered hybrid perovskites.
;
_journal_issue                   38
_journal_name_full               'Journal of the American Chemical Society'
_journal_page_first              13154
_journal_page_last               13157
_journal_paper_doi               10.1021/ja507086b
_journal_volume                  136
_journal_year                    2014
_chemical_formula_moiety         'Cl4 Pb, C6 H18 N2 O2'
_chemical_formula_sum            'C6 H18 Cl4 N2 O2 Pb'
_chemical_formula_weight         499.21
_chemical_name_common            (EDBE)[PbCl4]
_chemical_name_systematic
'2,2'-(ethylenedioxy)bis(ethylammonium) tetrachloroplumbate'
_space_group_crystal_system      monoclinic
_space_group_IT_number           5
_space_group_name_Hall           'C 2y'
_space_group_name_H-M_alt        'C 1 2 1'
_symmetry_cell_setting           monoclinic
_symmetry_Int_Tables_number      5
_symmetry_space_group_name_Hall  'C 2y'
_symmetry_space_group_name_H-M   'C 1 2 1'
_atom_sites_solution_hydrogens   geom
_audit_creation_method           SHELXL-2013
_cell_angle_alpha                90
_cell_angle_beta                 102.481(4)
_cell_angle_gamma                90
_cell_formula_units_Z            2
_cell_length_a                   7.7316(10)
_cell_length_b                   7.5418(10)
_cell_length_c                   13.2928(18)
_cell_measurement_temperature    100(2)
_cell_volume                     756.79(17)
_computing_cell_refinement       APEX2
_computing_data_collection       APEX2
_computing_data_reduction        SAINT
_computing_structure_refinement  'SHELXL-97 (Sheldrick, 2008)'
_computing_structure_solution    'SHELXS-97 (Sheldrick, 2008)'
_diffrn_ambient_temperature      100(2)
_diffrn_measured_fraction_theta_full 0.981
_diffrn_measured_fraction_theta_max 0.983
_diffrn_measurement_device_type  'Bruker D8 Venture'
_diffrn_radiation_monochromator  graphite
_diffrn_radiation_probe          x-ray
_diffrn_radiation_type           MoK\a
_diffrn_radiation_wavelength     0.71073
_diffrn_reflns_av_R_equivalents  0.0443
_diffrn_reflns_av_unetI/netI     0.0252
_diffrn_reflns_Laue_measured_fraction_full 0.981
_diffrn_reflns_Laue_measured_fraction_max 0.983
_diffrn_reflns_limit_h_max       9
_diffrn_reflns_limit_h_min       -8
_diffrn_reflns_limit_k_max       9
_diffrn_reflns_limit_k_min       -9
_diffrn_reflns_limit_l_max       16
_diffrn_reflns_limit_l_min       -16
_diffrn_reflns_number            10361
_diffrn_reflns_point_group_measured_fraction_full 0.985
_diffrn_reflns_point_group_measured_fraction_max 0.986
_diffrn_reflns_theta_full        25.242
_diffrn_reflns_theta_max         25.338
_diffrn_reflns_theta_min         5.305
_diffrn_source                   'fine-focus sealed tube'
_exptl_absorpt_coefficient_mu    11.839
_exptl_absorpt_correction_T_max  0.3322
_exptl_absorpt_correction_T_min  0.2041
_exptl_absorpt_correction_type   multi-scan
_exptl_absorpt_process_details   'SADABS V2008/1 (Bruker AXS Inc.)'
_exptl_crystal_colour            Colorless
_exptl_crystal_density_diffrn    2.191
_exptl_crystal_description       Plate
_exptl_crystal_F_000             468
_exptl_crystal_recrystallization_method
'Ether vapor diffusion into concentrated hydrochloric acid'
_exptl_crystal_size_max          0.150
_exptl_crystal_size_mid          0.100
_exptl_crystal_size_min          0.010
_refine_diff_density_max         2.022
_refine_diff_density_min         -1.705
_refine_diff_density_rms         0.231
_refine_ls_abs_structure_details
;
 Refined as an inversion twin.
;
_refine_ls_abs_structure_Flack   0.483(17)
_refine_ls_extinction_method     none
_refine_ls_goodness_of_fit_ref   1.155
_refine_ls_hydrogen_treatment    constr
_refine_ls_matrix_type           full
_refine_ls_number_parameters     71
_refine_ls_number_reflns         1381
_refine_ls_number_restraints     35
_refine_ls_restrained_S_all      1.142
_refine_ls_R_factor_all          0.0285
_refine_ls_R_factor_gt           0.0285
_refine_ls_shift/su_max          0.000
_refine_ls_shift/su_mean         0.000
_refine_ls_structure_factor_coef Fsqd
_refine_ls_weighting_details
'w=1/[\s^2^(Fo^2^)+(0.0619P)^2^+0.3574P] where P=(Fo^2^+2Fc^2^)/3'
_refine_ls_weighting_scheme      calc
_refine_ls_wR_factor_gt          0.0786
_refine_ls_wR_factor_ref         0.0786
_reflns_Friedel_coverage         0.855
_reflns_Friedel_fraction_full    0.989
_reflns_Friedel_fraction_max     0.989
_reflns_number_gt                1381
_reflns_number_total             1381
_reflns_threshold_expression     'I > 2\s(I)'
_iucr_refine_instructions_details
;
TITL aj41h in C2
CELL 0.71073 7.7316 7.5418 13.2928 90.000 102.481 90.000
ZERR 2.00 0.0010 0.0010 0.0018 0.000 0.004 0.000
LATT -7
SYMM -x, y, -z
SFAC C  N  O  Cl Pb H
UNIT 12  4  4  8  2  36
L.S. 10
ACTA
BOND $H
SIMU
DELU
OMIT -1  -1   1
OMIT -5   1   4
 
FMAP 2
PLAN 10
CONF
TWIN
SIZE 0.10 0.15 0.01
 
TEMP -173
WGHT    0.061900    0.357400
BASF   0.48327
FVAR       0.12474
PB1   5    1.000000    0.817780    0.500000    10.50000    0.01057    0.00949 =
         0.01334    0.00000    0.00270    0.00000
CL1   4    0.831590    1.140437    0.530935    11.00000    0.01678    0.01738 =
         0.02130   -0.00422    0.00017    0.00633
CL2   4    1.059599    0.745661    0.717638    11.00000    0.01780    0.01698 =
         0.01858   -0.00031    0.00317    0.00077
O2    3    0.194077    0.881293    0.093603    11.00000    0.01838    0.03231 =
         0.01853   -0.00157   -0.00357    0.00300
N1    2    0.363935    0.811263    0.301803    11.00000    0.01394    0.02114 =
         0.01379   -0.00600    0.00121   -0.00553
AFIX 137
H1A   6    0.245078    0.830300    0.283138    11.00000   -1.50000
H1B   6    0.407002    0.860655    0.364689    11.00000   -1.50000
H1C   6    0.385678    0.692583    0.304931    11.00000   -1.50000
AFIX   0
C1    1    0.451390    0.892576    0.225185    11.00000    0.01972    0.01822 =
         0.01677    0.00181    0.00829    0.00257
AFIX  23
H1D   6    0.579559    0.864929    0.242971    11.00000   -1.20000
H1E   6    0.437803    1.023011    0.226745    11.00000   -1.20000
AFIX   0
C2    1    0.373004    0.825179    0.118648    11.00000    0.01879    0.02213 =
         0.01926    0.00048    0.00334    0.00929
AFIX  23
H2A   6    0.438516    0.873958    0.068602    11.00000   -1.20000
H2B   6    0.379771    0.694165    0.116921    11.00000   -1.20000
AFIX   0
C3    1    0.093496    0.842236    0.009761    11.00000    0.02652    0.07002 =
         0.01544    0.01870   -0.00015    0.00208
AFIX  23
H3A   6    0.128187    0.721456   -0.007392    11.00000   -1.20000
H3B   6    0.125914    0.922507   -0.042143    11.00000   -1.20000
AFIX   0
HKLF 4 1 1 0 0 0 1 0 0 0 1
 
REM  aj41h in C2
REM R1 =  0.0285 for    1381 Fo > 4sig(Fo)  and  0.0285 for all    1381 data
REM     71 parameters refined using     35 restraints
 
END  
     
WGHT      0.0622      0.2363 

REM Highest difference peak  2.022,  deepest hole -1.705,  1-sigma level  0.231
Q1    1   1.0609  0.8885  0.7172  11.00000  0.05    2.02
Q2    1   0.5000  0.9641  0.5000  10.50000  0.05    1.99
Q3    1   0.6678  0.9953  0.4695  11.00000  0.05    1.97
Q4    1   0.1127  1.0728  0.2547  11.00000  0.05    1.92
Q5    1   1.0000  0.6681  0.5000  10.50000  0.05    1.80
Q6    1   0.2703  0.5682  0.3149  11.00000  0.05    1.78
Q7    1   0.6137  1.0625  0.2544  11.00000  0.05    1.25
Q8    1   1.0000  1.1698  0.5000  10.50000  0.05    1.20
Q9    1   0.2554  0.8165  0.3072  11.00000  0.05    1.18
Q10   1   0.2023  0.7552  0.0926  11.00000  0.05    1.14

;
_cod_data_source_file            ja507086b_si_002.cif
_cod_data_source_block           aj41h
_cod_depositor_comments
'Adding full bibliography for 4122617--4122619.cif.'
_cod_original_sg_symbol_H-M      'C 2'
_cod_database_code               4122619
#BEGIN Tags that were not found in dictionaries:
_shelx_space_group_comment
;
The symmetry employed for this shelxl refinement is uniquely defined
by the following loop, which should always be used as a source of
symmetry information in preference to the above space-group names.
They are only intended as comments.
;
_shelx_estimated_absorpt_t_min   0.270
_shelx_estimated_absorpt_t_max   0.891
_shelxl_version_number           2013-3
_shelx_res_file
;
TITL aj41h in C2
CELL 0.71073 7.7316 7.5418 13.2928 90.000 102.481 90.000
ZERR 2.00 0.0010 0.0010 0.0018 0.000 0.004 0.000
LATT -7
SYMM -x, y, -z
SFAC C  N  O  Cl Pb H
UNIT 12  4  4  8  2  36
L.S. 10
ACTA
BOND $H
SIMU
DELU
OMIT -1  -1   1
OMIT -5   1   4

FMAP 2
PLAN 10
CONF
TWIN
SIZE 0.10 0.15 0.01

TEMP -173
WGHT    0.061900    0.357400
BASF   0.48327
FVAR       0.12474
PB1   5    1.000000    0.817780    0.500000    10.50000    0.01057    0.00949 =
         0.01334    0.00000    0.00270    0.00000
CL1   4    0.831590    1.140437    0.530935    11.00000    0.01678    0.01738 =
         0.02130   -0.00422    0.00017    0.00633
CL2   4    1.059599    0.745661    0.717638    11.00000    0.01780    0.01698 =
         0.01858   -0.00031    0.00317    0.00077
O2    3    0.194077    0.881293    0.093603    11.00000    0.01838    0.03231 =
         0.01853   -0.00157   -0.00357    0.00300
N1    2    0.363935    0.811263    0.301803    11.00000    0.01394    0.02114 =
         0.01379   -0.00600    0.00121   -0.00553
AFIX 137
H1A   6    0.245078    0.830300    0.283138    11.00000   -1.50000
H1B   6    0.407002    0.860655    0.364689    11.00000   -1.50000
H1C   6    0.385678    0.692583    0.304931    11.00000   -1.50000
AFIX   0
C1    1    0.451390    0.892576    0.225185    11.00000    0.01972    0.01822 =
         0.01677    0.00181    0.00829    0.00257
AFIX  23
H1D   6    0.579559    0.864929    0.242971    11.00000   -1.20000
H1E   6    0.437803    1.023011    0.226745    11.00000   -1.20000
AFIX   0
C2    1    0.373004    0.825179    0.118648    11.00000    0.01879    0.02213 =
         0.01926    0.00048    0.00334    0.00929
AFIX  23
H2A   6    0.438516    0.873958    0.068602    11.00000   -1.20000
H2B   6    0.379771    0.694165    0.116921    11.00000   -1.20000
AFIX   0
C3    1    0.093496    0.842236    0.009761    11.00000    0.02652    0.07002 =
         0.01544    0.01870   -0.00015    0.00208
AFIX  23
H3A   6    0.128187    0.721456   -0.007392    11.00000   -1.20000
H3B   6    0.125914    0.922507   -0.042143    11.00000   -1.20000
AFIX   0
HKLF 4 1 1 0 0 0 1 0 0 0 1

REM  aj41h in C2
REM R1 =  0.0285 for    1381 Fo > 4sig(Fo)  and  0.0285 for all    1381 data
REM     71 parameters refined using     35 restraints

END

WGHT      0.0622      0.2363

REM Highest difference peak  2.022,  deepest hole -1.705,  1-sigma level  0.231
Q1    1   1.0609  0.8885  0.7172  11.00000  0.05    2.02
Q2    1   0.5000  0.9641  0.5000  10.50000  0.05    1.99
Q3    1   0.6678  0.9953  0.4695  11.00000  0.05    1.97
Q4    1   0.1127  1.0728  0.2547  11.00000  0.05    1.92
Q5    1   1.0000  0.6681  0.5000  10.50000  0.05    1.80
Q6    1   0.2703  0.5682  0.3149  11.00000  0.05    1.78
Q7    1   0.6137  1.0625  0.2544  11.00000  0.05    1.25
Q8    1   1.0000  1.1698  0.5000  10.50000  0.05    1.20
Q9    1   0.2554  0.8165  0.3072  11.00000  0.05    1.18
Q10   1   0.2023  0.7552  0.0926  11.00000  0.05    1.14
;
_shelx_res_checksum              28047
_shelx_hkl_file
;
   4   0   0   85.18    4.47
   4   0   0   85.98    4.48
   4   0   0   89.02    5.73
   4   0   0   88.64    5.19
   4   0   0   84.54    5.31
   4   0   0   91.11    5.46
   6   0   0  170.25    9.66
   6   0   0  154.85   10.59
   6   0   0  169.03   10.12
   6   0   0  153.97    8.21
   6   0   0  179.73   10.13
   6   0   0  164.24    8.35
   8   0   0   26.55    4.30
   8   0   0   30.43    3.93
   8   0   0   33.20    3.65
   8   0   0   27.73    4.78
   8   0   0   28.04    3.76
   3  -1   0  507.59   25.87
   3  -1   0  429.24   20.56
  -3  -1   0  433.23   24.77
  -3  -1   0  430.30   23.79
   3  -1   0  440.13   19.35
   3  -1   0  436.84   23.86
  -3  -1   0  425.52   20.46
   3  -1   0  438.47   19.34
   3   1   0  422.01   24.78
   3   1   0  412.65   19.38
   3   1   0  437.84   23.52
   3   1   0  437.64   20.52
   3   1   0  448.76   23.94
   3   1   0  424.29   19.38
  -3   1   0  441.24   20.59
   5  -1   0  178.70    8.94
   5  -1   0  170.91   10.42
  -5  -1   0  174.96   10.33
   5  -1   0  184.78   10.64
  -5  -1   0  187.08    8.91
   5  -1   0  176.52   11.35
   5   1   0  182.78    9.04
   5   1   0  180.30   10.14
   5   1   0  189.45   10.68
   5   1   0  185.45   11.31
   5   1   0  171.64   10.80
   7  -1   0   37.34    3.27
   7  -1   0   35.07    3.73
   7  -1   0   35.05    3.36
   7  -1   0   32.76    4.77
   7  -1   0   39.72    4.64
   7   1   0   36.61    3.54
   7   1   0   37.79    5.15
   7   1   0   42.16    4.57
   7   1   0   34.15    3.28
   7   1   0   37.94    3.91
   7   1   0   32.69    3.76
   9  -1   0   56.14    5.27
   9  -1   0   40.98    6.62
   9  -1   0   55.13    7.05
   9  -1   0   47.30    5.25
   9  -1   0   52.31    6.00
   9   1   0   49.06    7.76
   9   1   0   54.62    5.89
   9   1   0   49.33    5.31
   9   1   0   43.91    6.79
   9   1   0   51.12    5.46
  -2  -2   0  454.57   20.35
  -2  -2   0  456.59   21.42
  -2  -2   0  463.17   20.35
   2  -2   0  465.77   20.34
   2  -2   0  483.58   26.93
   2  -2   0  441.67   21.44
  -2  -2   0  407.63   25.79
  -2  -2   0  468.86   24.90
   2   2   0  435.16   25.02
   2   2   0  450.65   25.83
   2   2   0  443.13   20.33
  -2   2   0  471.67   20.34
   2   2   0  466.91   21.45
  -2   2   0  455.05   20.32
  -2   2   0  476.63   21.44
   2   2   0  459.31   20.36
  -4  -2   0  150.63    7.34
  -4  -2   0  155.53    9.71
  -4  -2   0  158.46    9.20
   4  -2   0  158.65    8.02
   4  -2   0  162.92    7.33
   4  -2   0  164.14    7.32
   4  -2   0  156.59    9.28
  -4  -2   0  160.05    8.10
   4   2   0  166.66    7.40
  -4   2   0  157.80    9.85
   4   2   0  158.34    7.37
   4   2   0  164.06    8.32
   4   2   0  159.89    9.75
  -4   2   0  161.57    7.30
  -4   2   0  167.83    8.07
   4   2   0  162.18    8.91
   4   2   0  163.65    8.25
   4   2   0  168.84    9.67
   6  -2   0   71.74    4.52
  -6  -2   0   67.51    4.87
   6  -2   0   55.72    5.99
  -6  -2   0   73.64    4.46
   6  -2   0   62.81    4.80
   6  -2   0   67.57    4.97
   6  -2   0   64.52    4.16
   6   2   0   66.22    4.84
   6   2   0   64.71    3.14
   6   2   0   63.43    5.90
   6   2   0   66.94    4.41
   6   2   0   64.90    5.05
   8  -2   0   80.07    5.48
   8  -2   0   84.27    7.24
   8  -2   0   78.80    5.56
   8  -2   0   77.01    6.24
   8  -2   0   77.00    8.53
   8   2   0   75.07    5.81
   8   2   0   76.46    5.18
   8   2   0   69.41    8.90
   8   2   0   68.57    6.82
   8   2   0   68.54    7.03
   8   2   0   74.60    6.35
   1  -3   0  373.75   16.58
  -1  -3   0  360.59   16.57
  -1  -3   0  358.70   17.42
  -1  -3   0  371.38   20.40
  -1  -3   0  357.61   20.93
  -1  -3   0  374.64   17.51
   1  -3   0  391.51   16.58
  -1  -3   0  367.41   16.57
   1  -3   0  374.73   17.46
   1  -3   0  315.03   20.73
   1  -3   0  390.68   17.28
   1  -3   0  360.23   21.76
   1   3   0  354.86   17.43
   1   3   0  369.30   17.42
   1   3   0  370.22   16.58
   1   3   0  377.26   20.93
   1   3   0  373.29   21.87
   1   3   0  383.67   20.22
   1   3   0  361.32   16.56
  -1   3   0  382.97   17.44
  -1   3   0  378.86   21.84
  -1   3   0  348.34   16.55
  -1   3   0  357.63   16.55
  -3  -3   0  130.56    6.83
   3  -3   0  135.23    6.16
   3  -3   0  131.59    8.31
  -3  -3   0  134.14    6.21
   3  -3   0  125.44    7.67
   3  -3   0  113.73    6.14
   3  -3   0  110.22    6.59
  -3  -3   0  129.90    6.22
  -3  -3   0  136.69    8.13
  -3  -3   0  130.22    7.72
  -3   3   0  145.00    8.35
  -3   3   0  140.87    6.70
   3   3   0  135.11    6.21
   3   3   0  129.51    6.21
   3   3   0  123.50    8.04
   3   3   0  128.31    8.05
   3   3   0  133.61    6.73
   3   3   0  126.01    6.92
  -3   3   0  139.11    6.20
  -3   3   0  132.22    6.15
   5  -3   0  216.22   10.64
  -5  -3   0  219.21    9.75
   5  -3   0  220.12   13.75
   5  -3   0  218.76    9.69
  -5  -3   0  204.86   12.83
   5  -3   0  212.08   12.30
  -5  -3   0  213.94   12.17
  -5  -3   0  213.66   10.75
   5  -3   0  199.69    9.64
   5   3   0  204.01   11.90
   5   3   0  186.45   12.86
   5   3   0  205.51    9.79
  -5   3   0  211.71    9.63
   5   3   0  203.91    9.72
   5   3   0  214.34   11.05
  -5   3   0  222.51   10.72
   5   3   0  220.05   12.94
  -5   3   0  215.24   13.00
   5   3   0  221.30   10.88
   7  -3   0   82.40    6.38
  -7  -3   0   86.95    6.45
   7  -3   0   85.79    5.47
   7  -3   0   70.89    7.86
   7  -3   0   80.97    5.45
   7  -3   0   71.64    6.02
   7   3   0   79.33    4.17
   7   3   0   82.41    6.86
   7   3   0   84.67    3.99
   7   3   0   80.68    6.36
   7   3   0   82.66    5.99
   7   3   0   79.45    6.52
   7   3   0   63.20    8.31
   0  -4   0  262.81   16.23
   0  -4   0  265.35   12.34
   0  -4   0  260.75   15.48
   0  -4   0  269.03   12.37
   0  -4   0  258.22   12.95
   0  -4   0  263.82   13.05
   0  -4   0  291.29   15.27
   0   4   0  274.54   13.01
   0   4   0  276.95   16.30
   0   4   0  271.64   12.36
   0   4   0  250.77   12.32
   0   4   0  273.79   15.49
  -2  -4   0  189.36    8.79
  -2  -4   0  188.33    9.45
   2  -4   0  162.59   10.81
   2  -4   0  190.13    8.80
   2  -4   0  179.61    9.31
  -2  -4   0  190.71   11.23
  -2  -4   0  185.62    8.82
   2  -4   0  165.44   11.44
   2  -4   0  194.25    9.08
  -2  -4   0  185.64   11.20
   2  -4   0  185.35    8.75
  -2  -4   0  190.43    9.49
   2   4   0  177.41   11.17
   2   4   0  186.41    8.80
  -2   4   0  206.97    9.09
  -2   4   0  200.25   11.95
  -2   4   0  196.77    8.78
   2   4   0  179.18    8.77
   2   4   0  193.15    9.56
   2   4   0  193.36   10.83
   2   4   0  188.06   11.75
  -2   4   0  179.85    9.30
  -2   4   0  188.42    8.78
   2   4   0  183.19    9.31
  -4  -4   0  116.69    7.36
   4  -4   0  116.52    7.76
  -4  -4   0  114.12    6.60
  -4  -4   0  121.18    5.90
   4  -4   0  123.14    5.77
   4  -4   0  106.63    6.33
  -4  -4   0  111.43    7.73
  -4  -4   0  117.54    5.83
   4  -4   0  112.00    5.75
  -4   4   0  118.36    5.73
   4   4   0  115.98    5.87
   4   4   0  108.80    6.44
   4   4   0  119.52    7.69
   4   4   0  120.79    7.02
  -4   4   0  123.18    5.83
  -4   4   0  124.25    7.85
   4   4   0  116.66    7.90
   4   4   0  117.53    5.84
  -4   4   0  126.85    6.48
   6  -4   0   85.22    4.60
   6  -4   0   86.23    6.04
   6  -4   0   83.11    5.78
  -6  -4   0   96.74    6.67
  -6  -4   0   92.69    4.79
   6  -4   0   86.85    6.56
  -6  -4   0   99.10    6.17
   6  -4   0   94.91    7.11
   6  -4   0   85.53    4.64
   6   4   0   97.05    6.88
   6   4   0   97.62    4.82
  -6   4   0   99.41    4.59
   6   4   0   95.42    7.14
   6   4   0   90.59    8.12
   6   4   0   92.90    6.24
   6   4   0   93.16    4.97
   8  -4   0   96.66    8.26
   8  -4   0   82.75    6.87
   8  -4   0   88.76    7.72
   8  -4   0  100.08    8.58
   8   4   0   93.31    7.98
   8   4   0   89.21   11.55
   8   4   0   87.56    8.88
   1  -5   0   79.79    4.68
   1  -5   0   77.24    4.35
  -1  -5   0   80.42    4.91
   1  -5   0   80.56    4.83
   1  -5   0   85.18    4.50
  -1  -5   0   82.69    4.99
   1  -5   0   82.22    5.38
  -1  -5   0   85.06    6.31
  -1  -5   0   82.51    4.51
  -1  -5   0   80.71    5.60
   1  -5   0   79.44    5.75
  -1  -5   0   83.62    5.03
  -1  -5   0   82.20    4.41
   1  -5   0   85.59    5.78
  -1   5   0   79.08    4.36
   1   5   0   81.70    5.20
  -1   5   0   84.01    5.43
  -1   5   0   86.53    4.86
  -1   5   0   88.79    4.84
  -1   5   0   87.82    6.17
  -1   5   0   81.52    4.44
   1   5   0   84.97    6.17
   1   5   0   81.96    4.81
   1   5   0   81.58    5.45
   1   5   0   85.09    4.45
   1   5   0   83.03    5.58
   1   5   0   73.92    4.40
   3  -5   0  261.57   11.64
  -3  -5   0  242.92   11.67
   3  -5   0  245.39   11.85
   3  -5   0  226.72   15.15
   3  -5   0  240.04   11.56
  -3  -5   0  244.88   11.62
  -3  -5   0  238.73   12.49
  -3  -5   0  255.08   14.62
  -3  -5   0  244.07   14.90
   3  -5   0  246.14   12.38
  -3  -5   0  232.89   12.67
   3  -5   0  243.34   14.37
  -3   5   0  269.49   11.66
   3   5   0  229.15   11.62
   3   5   0  243.79   12.74
   3   5   0  286.28   14.98
   3   5   0  237.69   15.62
   3   5   0  251.23   12.39
  -3   5   0  236.27   15.99
  -3   5   0  250.13   12.35
  -3   5   0  264.49   11.61
   3   5   0  246.30   11.62
   3   5   0  249.93   14.34
  -3   5   0  242.67   11.83
  -5  -5   0   93.20    5.18
   5  -5   0   94.35    5.10
   5  -5   0   93.77    6.83
  -5  -5   0   93.30    6.85
   5  -5   0   98.44    5.03
  -5  -5   0   86.80    6.25
   5  -5   0   90.78    5.96
   5   5   0  116.89    7.34
  -5   5   0   93.17    4.95
   5   5   0   97.08    7.55
   5   5   0   90.98    5.30
   5   5   0   91.76    6.31
   5   5   0   95.76    5.20
   7  -5   0   62.19    6.21
   7  -5   0   72.35    6.53
   7  -5   0   67.06    5.64
   7  -5   0   63.85    6.35
  -7  -5   0   73.65    6.67
  -7  -5   0   64.68    4.38
   7   5   0   77.29    9.00
   0  -6   0  150.02    9.47
   0  -6   0  150.41    7.56
   0  -6   0  152.79    8.93
   0  -6   0  151.46    8.07
   0  -6   0  161.02   10.08
   0  -6   0  163.71    8.34
   0  -6   0  150.65    7.65
   0   6   0  139.35    7.58
   0   6   0  131.89    7.48
   0   6   0  152.64   10.28
   0   6   0  149.85    8.34
   0   6   0  150.59    8.05
   0   6   0  159.38    9.43
  -2  -6   0   58.53    6.59
  -2  -6   0   56.22    4.82
   2  -6   0   59.17    5.36
   2  -6   0   53.02    3.67
   2  -6   0   59.25    3.66
   2  -6   0   52.79    4.67
  -2  -6   0   60.69    4.88
  -2  -6   0   56.46    4.40
  -2  -6   0   53.07    3.88
   2  -6   0   60.33    4.20
   2  -6   0   62.28    3.89
  -2  -6   0   58.83    3.71
   2  -6   0   59.39    4.33
  -2   6   0   62.27    6.01
   2   6   0   62.27    5.72
  -2   6   0   65.73    4.27
   2   6   0   56.34    5.25
  -2   6   0   55.86    4.28
   2   6   0   55.91    4.38
  -2   6   0   59.41    3.79
   2   6   0   63.26    4.81
   2   6   0   57.91    4.78
   2   6   0   58.01    3.71
   2   6   0   54.03    3.84
  -2   6   0   56.50    3.62
  -4  -6   0   44.47    4.66
  -4  -6   0   52.09    5.90
   4  -6   0   51.43    3.59
   4  -6   0   47.34    4.22
  -4  -6   0   50.12    3.74
   4  -6   0   60.21    4.76
   4   6   0   49.08    4.97
   4   6   0   56.63    5.15
   4   6   0   51.07    3.72
  -4   6   0   57.20    6.65
   4   6   0   56.31    5.29
  -4   6   0   48.29    3.41
   6  -6   0  143.88    9.03
  -6  -6   0  152.54    9.60
   6  -6   0  144.14   10.29
  -6  -6   0  137.54    7.83
   6   6   0  182.67   11.06
  -6   6   0  154.06    7.61
   6   6   0  150.49   10.99
  -1  -7   0   48.40    7.55
  -1  -7   0   50.42    4.14
   1  -7   0   50.82    4.16
   1  -7   0   53.17    3.94
  -1  -7   0   53.56    4.84
   1  -7   0   51.11    4.62
   1  -7   0   52.79    6.41
   1  -7   0   54.41    3.76
   1  -7   0   54.83    4.57
  -1  -7   0   52.80    4.50
  -1  -7   0   50.23    3.81
  -1  -7   0   49.93    5.10
   1   7   0   51.52    5.83
   1   7   0   50.50    6.53
   1   7   0   55.63    4.68
  -1   7   0   53.71    5.02
  -1   7   0   47.22    4.03
   1   7   0   51.83    3.76
   1   7   0   47.58    4.15
  -1   7   0   52.01    3.70
  -1   7   0   46.42    4.45
  -1   7   0   54.20    6.39
   1   7   0   50.22    4.63
  -3  -7   0  109.87    6.31
  -3  -7   0  114.30    6.70
   3  -7   0  104.95    6.19
   3  -7   0  118.22    6.29
  -3  -7   0  106.85    7.22
  -3  -7   0  108.84   10.05
   3  -7   0  126.86    7.48
   3  -7   0  100.74    7.96
  -3  -7   0  113.75    8.05
   3  -7   0  104.56    6.94
  -3   7   0  106.55    6.35
  -3   7   0   96.12   10.56
   3   7   0  113.30    6.31
   3   7   0  120.06    8.22
  -3   7   0  108.77    6.09
   3   7   0  104.44    7.85
   5  -7   0   84.70    7.10
  -5  -7   0   87.69    5.72
   5  -7   0   75.28    6.50
   5  -7   0   87.40    5.44
  -5  -7   0   85.51    7.23
   5   7   0   81.09    5.57
  -5   7   0   85.56    5.19
   5   7   0  109.87    8.16
   5   7   0   82.64    7.74
   0  -8   0   23.42    3.28
   0  -8   0   22.67    2.69
   0  -8   0   26.07    3.97
   0   8   0   20.64    2.68
   0   8   0   26.27    4.07
   2  -8   0   74.09    6.17
   2  -8   0   69.98    5.15
  -2  -8   0   78.56    5.21
  -2  -8   0   79.36    7.39
   2  -8   0   71.59    5.37
  -2  -8   0   65.43    6.06
   2  -8   0   77.94    6.12
   2   8   0   72.49    6.40
  -2   8   0   70.20    4.99
  -2   8   0   62.29    5.41
   2   8   0   70.30    5.15
   4  -8   0   60.64    6.23
  -4  -8   0   59.93    6.70
   4  -8   0   59.11    4.79
   4  -8   0   55.80    6.35
   4   8   0   53.65    6.84
   4   8   0   59.28    6.73
   4   8   0   51.48    4.90
  -1  -9   0   51.50    6.14
  -1  -9   0   46.34    5.53
   1  -9   0   48.37    5.74
  -1  -9   0   54.79    6.28
   1  -9   0   51.76    5.37
   1  -9   0   49.56    5.71
   1   9   0   58.00    6.33
   1   9   0   52.03    5.21
   8   0  -1   66.65    4.92
   8   0  -1   75.23    5.49
   8   0  -1   69.41    4.91
   8   0  -1   66.93    6.84
   8   0  -1   65.83    5.51
   8   0  -1   64.56    6.67
   6   0  -1  281.44   15.26
   6   0  -1  271.57   15.70
   6   0  -1  287.43   16.81
   6   0  -1  269.18   13.14
   6   0  -1  256.36   16.00
   6   0  -1  269.78   13.28
   4   0  -1  510.41   23.44
   4   0  -1  502.35   23.68
   4   0  -1  485.88   29.66
   4   0  -1  509.46   27.54
  -4   0   1  504.05   27.46
   4   0  -1  505.08   28.47
   2   0   1   61.61    3.03
   2   0   1   63.25    3.04
   2   0   1   61.73    3.58
  -2   0  -1   61.58    3.67
  -2   0  -1   59.19    3.05
   4   0   1   39.73    2.48
  -4   0  -1   42.97    2.46
   4   0   1   41.76    2.47
   4   0   1   45.37    3.21
   4   0   1   44.05    3.02
   4   0   1   42.23    2.94
   4   0   1   40.13    2.94
   6   0   1  188.08    9.29
   6   0   1  193.56   12.05
   6   0   1  197.48   11.44
   6   0   1  185.62    9.46
   6   0   1  185.51   11.38
   6   0   1  190.17   10.99
   8   0   1   44.04    4.58
   8   0   1   41.42    5.80
   8   0   1   51.93    6.94
   8   0   1   46.64    4.78
   8   0   1   46.59    4.29
   9  -1  -1   59.02    5.38
   9  -1  -1   52.26    5.46
   9  -1  -1   57.72    6.00
   9  -1  -1   48.82    7.96
   9  -1  -1   61.44    8.25
   9   1  -1   56.60    5.37
   9   1  -1   58.68    5.96
   9   1  -1   54.07    5.40
   9   1  -1   44.57    6.80
   9   1  -1   57.82    7.77
   7  -1  -1  122.98    8.01
   7  -1  -1  130.95    8.64
   7  -1  -1  132.49    7.03
   7  -1  -1  134.21    9.35
   7  -1  -1  127.95    8.19
   7   1  -1  135.11    9.09
   7   1  -1  121.73    6.94
   7   1  -1  127.90    8.93
   7   1  -1  126.27    7.33
   7   1  -1  125.26    8.43
   7   1  -1  129.23    7.84
   5  -1  -1  265.39   15.21
  -5  -1   1  239.55   13.86
   5  -1  -1  239.26   11.97
   5  -1  -1  233.05   13.94
   5   1  -1  242.96   12.00
   5   1  -1  237.59   13.57
   5   1  -1  244.16   14.16
   5   1  -1  258.55   15.11
   5   1  -1  256.07   14.54
  -3  -1   1  602.79   27.09
   3  -1  -1  559.04   25.73
   3  -1  -1  570.40   31.60
  -3  -1   1  560.90   31.59
   3  -1  -1  657.69   34.28
   3  -1  -1  644.12   27.29
   3  -1  -1  585.92   25.73
  -3   1   1  553.20   34.07
   3   1  -1  571.83   31.71
   3   1  -1  544.57   32.80
   3   1  -1  570.62   27.11
   3   1  -1  595.84   25.76
   3   1  -1  551.48   25.76
   1  -1  -1   67.71    4.42
   3  -1   1  356.90   16.71
  -3  -1  -1  381.40   20.54
   3  -1   1  332.17   20.49
   3  -1   1  365.74   17.77
   3  -1   1  411.65   16.71
  -3  -1  -1  376.51   21.45
  -3  -1  -1  368.31   17.76
   3  -1   1  389.72   21.23
  -3   1  -1  391.90   17.81
   3   1   1  380.36   16.75
   3   1   1  395.83   17.77
   3   1   1  375.31   21.44
   3   1   1  392.66   20.41
   3   1   1  351.05   16.71
   3   1   1  392.32   20.67
   5  -1   1   65.13    4.73
  -5  -1  -1   59.29    3.63
   5  -1   1   59.92    4.19
   5  -1   1   60.26    3.53
   5  -1   1   55.83    3.94
   5  -1   1   60.30    4.15
   5   1   1   58.32    4.24
   5   1   1   61.59    3.80
   5   1   1   63.04    4.52
   5   1   1   58.27    3.46
   5   1   1   60.82    3.99
   7  -1   1   71.29    4.71
   7  -1   1   79.99    5.54
   7  -1   1   68.57    6.42
   7  -1   1   77.10    6.18
   7   1   1   74.84    6.25
   7   1   1   73.89    6.79
   7   1   1   73.94    5.31
   7   1   1   71.96    5.05
   7   1   1   71.71    5.57
   7   1   1   73.02    4.53
   8  -2  -1  121.79    8.96
   8  -2  -1  126.23    8.03
   8  -2  -1  127.75    7.31
   8  -2  -1  105.16   10.47
   8  -2  -1  127.39    8.28
   8   2  -1  125.37    8.67
   8   2  -1  111.89    8.28
   8   2  -1  115.24   10.54
   8   2  -1  121.33    7.65
   8   2  -1  111.51    9.15
   8   2  -1  116.48    7.06
  -6  -2   1   98.96    4.56
   6  -2  -1   93.18    5.51
  -6  -2   1   97.93    6.42
   6  -2  -1   99.68    6.51
   6  -2  -1   94.33    7.64
   6   2  -1  100.27    6.73
   6   2  -1   95.85    6.99
   6   2  -1   96.38    5.85
   6   2  -1   95.53    4.64
   6   2  -1   97.75    4.57
   6   2  -1   93.10    6.01
   6   2  -1  103.16    7.35
   4  -2  -1  333.33   23.08
   4  -2  -1  363.94   16.97
   4  -2  -1  383.96   21.06
  -4  -2   1  381.04   18.10
   4  -2  -1  392.01   17.03
  -4  -2   1  386.66   17.06
  -4  -2   1  375.63   17.05
  -4  -2   1  337.57   20.97
   4  -2  -1  414.55   18.19
   4   2  -1  408.04   22.01
  -4   2   1  381.26   22.62
   4   2  -1  374.00   18.19
  -4   2   1  380.86   16.97
   4   2  -1  393.78   21.41
   4   2  -1  393.04   17.07
   4   2  -1  374.33   17.06
   4   2  -1  391.39   20.51
  -4   2   1  394.26   18.18
  -2  -2   1  704.23   39.42
   2  -2  -1  719.08   32.77
   2  -2  -1  668.84   41.21
  -2  -2   1  700.23   32.61
  -2  -2   1  717.73   38.13
  -2  -2   1  717.08   31.14
   2  -2  -1  736.35   32.38
  -2  -2   1  690.03   31.12
   2  -2  -1  742.50   31.10
   2  -2  -1  645.86   31.08
   2   2  -1  589.72   38.16
   2   2  -1  717.58   39.43
  -2   2   1  742.93   32.77
   2   2  -1  716.67   31.13
  -2   2   1  731.12   31.10
   2   2  -1  715.54   32.89
   2   2  -1  712.20   32.66
   2   2  -1  673.54   31.12
  -2   2   1  681.27   31.10
  -2  -2  -1  175.69    8.36
  -2  -2  -1  180.22   10.76
  -2  -2  -1  181.59    8.40
  -2  -2  -1  187.11   10.21
   2  -2   1  195.80    8.38
   2  -2   1  189.52    8.91
  -2  -2  -1  177.86    8.99
   2  -2   1  198.83   11.03
   2  -2   1  183.90    8.38
  -2   2  -1  189.58    8.91
   2   2   1  182.29   10.11
   2   2   1  175.18    8.36
   2   2   1  174.16    8.38
   2   2   1  193.44    9.02
   2   2   1  184.66   10.75
  -2   2  -1  190.18    8.39
   2   2   1  191.02    8.86
  -2   2  -1  167.28    8.35
   2   2   1  179.31   10.39
  -4  -2  -1  163.55    7.98
  -4  -2  -1  170.44    8.84
  -4  -2  -1  167.89    9.92
  -4  -2  -1  169.75   10.55
   4  -2   1  187.51    7.98
   4  -2   1  174.62    8.71
   4  -2   1  161.11   11.12
   4   2   1  179.49    9.84
   4   2   1  165.59    7.98
   4   2   1  176.62   10.37
   4   2   1  174.59    8.04
  -4   2  -1  177.68    8.76
   4   2   1  193.83   10.65
   4   2   1  181.32    8.93
  -4   2  -1  178.33    7.97
   4   2   1  183.62    8.89
  -4   2  -1  185.49   10.68
   6  -2   1   79.77    5.13
   6  -2   1   81.37    4.79
   6  -2   1   75.85    5.60
  -6  -2  -1   86.91    5.03
  -6  -2  -1   80.23    5.46
   6  -2   1   73.61    5.47
   6   2   1   89.71    5.84
   6   2   1   79.07    6.59
   6   2   1   79.89    5.40
   6   2   1   70.14    5.18
   8  -2   1   78.01    6.19
   8  -2   1   73.68    8.25
   8  -2   1   70.40    5.42
   8  -2   1   78.36    5.46
   8  -2   1   79.77    7.36
   8   2   1   62.06    6.98
   8   2   1   71.69    6.75
   8   2   1   70.91    5.09
   8   2   1   53.85    7.58
   8   2   1   77.76    6.24
   8   2   1   78.84    6.05
   7  -3  -1  121.54    8.45
   7  -3  -1  104.54   10.25
  -7  -3   1  127.84    8.45
   7  -3  -1  124.23    7.14
   7   3  -1  124.74    6.05
   7   3  -1  127.06    5.94
   7   3  -1  118.73    8.27
   7   3  -1  133.28    8.65
   7   3  -1  107.08   10.17
   7   3  -1  135.18    8.81
   7   3  -1  124.39    9.07
   7   3  -1  131.47    7.76
   5  -3  -1  255.66   13.12
  -5  -3   1  269.42   12.19
   5  -3  -1  263.92   17.12
   5  -3  -1  259.77   15.22
   5  -3  -1  277.96   12.10
   5  -3  -1  251.22   12.14
  -5  -3   1  267.11   15.20
  -5  -3   1  278.26   13.23
   5   3  -1  286.22   12.22
   5   3  -1  265.48   13.44
   5   3  -1  272.61   12.23
   5   3  -1  275.36   13.57
  -5   3   1  278.31   12.08
   5   3  -1  236.46   15.85
  -5   3   1  264.84   13.18
   5   3  -1  268.92   15.97
  -5   3   1  266.04   16.23
   3  -3  -1  123.97    6.09
  -3  -3   1  115.62    7.34
   3  -3  -1   98.62    5.56
   3  -3  -1  121.25    7.17
  -3  -3   1  117.43    5.65
   3  -3  -1  120.40    7.79
  -3  -3   1  129.33    7.28
  -3  -3   1  116.96    5.68
   3  -3  -1  112.94    5.56
  -3  -3   1  115.41    6.17
   3   3  -1  109.91    7.46
  -3   3   1  111.35    6.03
  -3   3   1  122.62    7.82
   3   3  -1  118.51    6.34
   3   3  -1  122.39    6.26
  -3   3   1  131.24    5.67
   3   3  -1  115.48    5.65
  -3   3   1  119.68    5.59
   3   3  -1  123.71    7.42
   3   3  -1  112.29    5.65
   1  -3  -1  217.54   13.24
   1  -3  -1  246.09   10.58
  -1  -3   1  225.87   10.59
   1  -3  -1  228.62   10.57
  -1  -3   1  220.82   13.34
  -1  -3   1  242.59   11.25
   1  -3  -1  240.76   11.17
  -1  -3   1  227.14   13.19
   1  -3  -1  238.15   13.97
   1  -3  -1  233.49   11.05
  -1  -3   1  220.90   10.57
  -1  -3   1  230.05   11.15
   1   3  -1  205.38   13.90
  -1   3   1  237.95   13.31
  -1   3   1  232.05   10.56
   1   3  -1  220.96   13.31
  -1   3   1  244.73   10.59
   1   3  -1  230.74   10.59
   1   3  -1  233.08   11.20
  -1   3   1  242.27   14.03
   1   3  -1  230.29   13.01
   1   3  -1  230.65   11.19
  -1   3   1  237.61   11.11
   1   3  -1  226.41   10.58
  -1  -3  -1  487.62   21.66
   1  -3   1  488.21   21.67
   1  -3   1  453.54   26.43
  -1  -3  -1  501.34   22.84
  -1  -3  -1  469.53   21.67
  -1  -3  -1  455.51   22.74
   1  -3   1  483.58   28.39
  -1  -3  -1  486.02   27.39
   1  -3   1  508.14   21.69
  -1  -3  -1  450.93   26.47
   1  -3   1  539.51   22.87
   1  -3   1  507.11   22.54
   1   3   1  464.37   21.65
  -1   3  -1  500.01   21.68
  -1   3  -1  479.52   21.67
  -1   3  -1  442.40   22.76
   1   3   1  471.95   21.66
   1   3   1  479.90   22.73
   1   3   1  484.24   22.75
   1   3   1  465.01   26.27
   1   3   1  526.65   27.44
  -3  -3  -1  113.78    7.43
  -3  -3  -1  119.77    5.66
   3  -3   1  120.53    5.65
   3  -3   1  118.29    6.11
   3  -3   1  121.49    5.65
  -3  -3  -1  112.96    5.69
  -3  -3  -1  116.03    6.36
   3  -3   1  108.30    7.38
  -3  -3  -1  114.35    6.94
   3   3   1  117.89    7.41
   3   3   1  111.08    5.67
  -3   3  -1  122.42    7.45
  -3   3  -1  125.56    6.17
   3   3   1  116.12    5.65
   3   3   1  118.44    6.07
  -3   3  -1  118.88    5.64
  -3   3  -1  121.26    5.65
   3   3   1  123.97    6.47
   3   3   1  132.46    7.33
   3   3   1  119.17    6.66
  -5  -3  -1  130.97    7.19
   5  -3   1  126.00    6.05
  -5  -3  -1  130.34    7.79
   5  -3   1  135.39    6.91
  -5  -3  -1  129.76    8.40
   5  -3   1  125.26    8.00
   5  -3   1  134.81    8.81
   5  -3   1  135.80    6.08
  -5  -3  -1  128.96    6.13
   5   3   1  126.63    6.12
   5   3   1  134.74    7.05
   5   3   1  132.97    7.90
   5   3   1  129.72    7.50
   5   3   1  131.98    6.23
   5   3   1  121.73    8.60
   5   3   1  129.19    8.33
  -5   3  -1  129.13    7.04
  -5   3  -1  119.93    8.21
  -5   3  -1  126.91    6.05
   7  -3   1  119.43    7.36
   7  -3   1  111.56    7.98
   7  -3   1  128.66    7.04
  -7  -3  -1  129.78    7.42
   7  -3   1  110.08    9.26
  -7  -3  -1  116.97    8.07
   7  -3   1  118.39    8.33
   7   3   1  118.55    8.24
   7   3   1  112.59    7.58
   7   3   1  106.64    9.70
   7   3   1  112.49    5.67
   7   3   1  118.29    5.55
   7   3   1  113.86    8.00
   7   3   1  137.36    8.40
   8  -4  -1   77.74    8.18
   8  -4  -1   68.53    6.03
   8  -4  -1   80.09    5.49
   8  -4  -1   78.61    7.11
   8  -4  -1   67.20    6.79
   8   4  -1   62.89    7.56
   8   4  -1   60.12    4.45
   8   4  -1   73.12    6.95
   8   4  -1   57.43    9.09
   6  -4  -1   70.23    4.69
   6  -4  -1   71.71    6.36
   6  -4  -1   65.32    5.39
   6  -4  -1   71.67    3.63
  -6  -4   1   67.05    3.88
  -6  -4   1   73.76    5.23
  -6  -4   1   69.42    5.76
   6  -4  -1   66.06    3.76
   6   4  -1   60.39    7.49
   6   4  -1   68.74    6.34
   6   4  -1   67.31    4.02
  -6   4   1   69.32    3.58
   6   4  -1   69.59    5.68
   6   4  -1   70.34    5.69
   6   4  -1   71.30    3.91
  -6   4   1   64.30    5.60
  -4  -4   1  145.71    7.25
   4  -4  -1  145.05    7.80
   4  -4  -1  153.86    7.20
   4  -4  -1  146.83    8.96
   4  -4  -1  146.86    9.74
  -4  -4   1  150.21    7.23
   4  -4  -1  148.38    7.12
  -4  -4   1  150.51    9.18
  -4  -4   1  149.81    7.96
  -4  -4   1  139.67    9.40
   4   4  -1  145.71    9.76
   4   4  -1  150.14    7.22
  -4   4   1  147.61    7.10
   4   4  -1  149.88    9.47
  -4   4   1  164.93    9.91
   4   4  -1  148.61    7.25
  -4   4   1  161.04    7.21
   4   4  -1  143.40    8.29
   4   4  -1  148.24    8.04
  -4   4   1  147.97    7.80
  -2  -4   1  242.30   11.11
   2  -4  -1  232.51   11.47
   2  -4  -1  241.43   11.04
   2  -4  -1  246.39   13.83
  -2  -4   1  242.06   11.89
  -2  -4   1  228.24   11.73
  -2  -4   1  241.07   11.08
   2  -4  -1  241.90   14.60
  -2  -4   1  226.35   14.04
  -2  -4   1  209.52   13.98
   2  -4  -1  231.03   11.04
   2  -4  -1  242.91   11.73
   2   4  -1  232.98   11.77
  -2   4   1  233.21   11.04
  -2   4   1  256.98   11.46
  -2   4   1  245.75   14.98
   2   4  -1  240.62   14.73
   2   4  -1  232.66   11.06
   2   4  -1  234.25   11.08
  -2   4   1  245.41   11.04
   2   4  -1  252.46   13.76
   2   4  -1  237.56   11.87
  -2   4   1  239.12   11.65
   2   4  -1  246.55   14.07
   0  -4   1  156.15    7.41
   0  -4  -1  131.33    9.21
   0  -4  -1  161.37    7.89
   0  -4  -1  152.91    7.87
   0  -4   1  147.97    7.41
   0  -4   1  156.62    7.79
   0  -4  -1  148.86    7.39
   0  -4   1  152.37    7.90
   0  -4   1  156.84    9.24
   0  -4   1  160.77    9.31
   0  -4  -1  158.49    8.77
   0  -4  -1  163.20    9.22
   0  -4  -1  152.43    9.79
   0  -4  -1  158.55    7.40
   0   4  -1  157.64    9.22
   0   4   1  153.70    7.75
   0   4  -1  155.34    7.42
   0   4  -1  156.39    7.88
   0   4   1  159.93    9.31
   0   4  -1  162.89    7.90
   0   4   1  156.37    7.41
   0   4  -1  158.65    7.44
   0   4  -1  145.46    9.73
   0   4   1  157.54    7.88
   0   4   1  153.61    7.41
   0   4   1  163.02    9.86
   2  -4   1  146.33    9.72
  -2  -4  -1  162.88    7.91
  -2  -4  -1  161.75    8.55
   2  -4   1  174.06    8.46
  -2  -4  -1  167.57   10.13
   2  -4   1  174.76    7.91
   2  -4   1  164.19    8.04
  -2  -4  -1  167.42    9.94
   2  -4   1  165.30    7.89
  -2  -4  -1  173.51    7.91
   2  -4   1  172.94   10.26
  -2  -4  -1  167.44    8.54
   2   4   1  156.07    7.87
   2   4   1  168.45    8.33
  -2   4  -1  162.35    7.88
   2   4   1  171.97    7.93
   2   4   1  154.93   10.07
  -2   4  -1  172.62    7.90
  -2   4  -1  170.41    8.41
   2   4   1  169.42    8.65
   2   4   1  168.43    9.60
   2   4   1  163.29   10.60
  -2   4  -1  160.72   10.60
  -4  -4  -1  230.32   10.40
  -4  -4  -1  220.11   12.64
  -4  -4  -1  237.32   13.54
   4  -4   1  214.70   10.26
  -4  -4  -1  229.15   10.32
   4  -4   1  223.36   13.50
   4  -4   1  235.07   10.30
   4  -4   1  207.82   12.66
   4  -4   1  232.69   11.14
  -4  -4  -1  220.18   11.35
  -4   4  -1  208.04   10.24
  -4   4  -1  200.45   13.47
   4   4   1  226.42   10.31
   4   4   1  215.23   11.03
   4   4   1  220.15   14.15
   4   4   1  217.55   10.36
  -4   4  -1  211.83   10.27
  -4   4  -1  215.75   11.16
   4   4   1  230.00   13.05
   4   4   1  225.17   12.08
   4   4   1  227.88   11.57
   4   4   1  216.95   13.40
   6  -4   1  119.52    8.23
   6  -4   1  127.13    6.09
   6  -4   1  122.70    6.07
  -6  -4  -1  131.32    7.68
   6  -4   1  139.10    7.38
   6  -4   1  123.67    8.31
   6  -4   1  114.32    8.51
  -6  -4  -1  125.12    8.17
  -6  -4  -1  133.11    6.25
   6   4   1  120.08    6.39
   6   4   1  110.37    8.55
   6   4   1  134.06    6.21
  -6   4  -1  129.88    6.03
   6   4   1  115.77    9.36
   6   4   1  135.16    7.48
   6   4   1  129.74    8.48
   8  -4   1   64.78    5.91
   8  -4   1   57.59    6.61
   8  -4   1   61.57    7.24
   8   4   1   56.87    8.18
   8   4   1   64.67    7.13
   7  -5  -1   72.66    6.62
   7  -5  -1   79.34    6.03
  -7  -5   1   72.32    4.59
   7  -5  -1   73.64    6.86
   7   5  -1   70.94    9.46
   7   5  -1   71.97    6.79
   5  -5  -1   87.20    5.43
   5  -5  -1   74.09    4.38
  -5  -5   1   76.53    5.51
  -5  -5   1   76.27    6.40
  -5  -5   1   71.64    4.46
   5  -5  -1   90.30    5.23
   5  -5  -1   78.80    6.17
   5  -5  -1   85.19    4.36
   5   5  -1   73.93    6.02
   5   5  -1   75.86    4.69
   5   5  -1   77.13    7.20
   5   5  -1   70.29    4.46
  -5   5   1   82.63    4.26
   5   5  -1   74.84    5.97
  -5   5   1   84.52    6.71
   3  -5  -1  130.18    6.60
   3  -5  -1  144.58    8.24
  -3  -5   1  136.88    7.70
  -3  -5   1  133.75    7.38
   3  -5  -1  137.30    6.70
  -3  -5   1  132.50    8.68
  -3  -5   1  138.93    9.09
   3  -5  -1  136.18    7.26
   3  -5  -1  133.32    6.84
  -3  -5   1  109.42    6.69
  -3  -5   1  131.75    6.70
   3  -5  -1  131.56    8.79
   3   5  -1  126.19    9.18
   3   5  -1  135.82    6.73
  -3   5   1  144.22    6.73
  -3   5   1  112.83    9.85
   3   5  -1  141.75    8.68
  -3   5   1  148.99    6.78
   3   5  -1  126.75    6.73
   3   5  -1  149.12    8.74
   3   5  -1  132.62    7.77
  -3   5   1  128.06    6.58
   3   5  -1  135.76    7.39
  -3   5   1  128.61    7.16
   1  -5  -1   96.40    5.46
   1  -5  -1   94.14    5.12
   1  -5  -1  103.17    6.55
   1  -5  -1   98.42    5.58
  -1  -5   1   99.97    6.43
  -1  -5   1   98.75    5.82
   1  -5  -1  103.41    5.12
   1  -5  -1   87.60    6.26
   1  -5  -1   95.95    6.72
  -1  -5   1   96.67    5.14
  -1  -5   1  106.59    7.22
  -1  -5   1   99.91    5.57
  -1  -5   1   95.03    5.17
  -1  -5   1   96.98    5.66
  -1   5   1   97.61    5.16
   1   5  -1  104.97    6.50
   1   5  -1   94.09    5.83
   1   5  -1   98.01    5.61
   1   5  -1  103.45    6.43
   1   5  -1   98.77    6.93
  -1   5   1  100.74    6.34
  -1   5   1  100.12    5.10
   1   5  -1   95.50    5.15
  -1   5   1  108.18    7.15
  -1   5   1   96.89    5.43
   1   5  -1   94.04    5.12
  -1   5   1  104.06    5.54
  -1  -5  -1  150.00    9.45
  -1  -5  -1  160.09    8.73
  -1  -5  -1  149.52    7.43
  -1  -5  -1  149.85    9.66
   1  -5   1  158.39    7.76
  -1  -5  -1  150.16    8.08
   1  -5   1  148.45    7.45
   1  -5   1  148.73    9.40
  -1  -5  -1  149.26    7.49
  -1  -5  -1  157.89    8.14
   1  -5   1  157.69    9.70
   1  -5   1  144.39    9.14
   1  -5   1  153.63    7.99
   1  -5   1  147.76    7.44
   1   5   1  150.58    9.38
  -1   5  -1  158.82    9.97
  -1   5  -1  152.17    7.48
  -1   5  -1  147.23    9.19
  -1   5  -1  153.21    7.45
   1   5   1  149.96    8.17
  -1   5  -1  157.16    7.94
   1   5   1  147.55    7.44
   1   5   1  154.03    7.86
  -1   5  -1  154.65    7.99
   1   5   1  163.52   10.10
   1   5   1  144.00    7.45
  -3  -5  -1  266.17   16.10
   3  -5   1  253.93   13.34
  -3  -5  -1  270.34   12.62
  -3  -5  -1  266.60   13.55
   3  -5   1  283.89   12.56
  -3  -5  -1  275.71   12.56
   3  -5   1  261.69   12.49
   3  -5   1  301.04   15.71
   3  -5   1  280.91   16.34
  -3  -5  -1  247.33   13.55
  -3  -5  -1  274.08   15.51
  -3   5  -1  252.48   12.78
   3   5   1  274.26   12.55
   3   5   1  265.40   16.86
  -3   5  -1  279.43   12.55
  -3   5  -1  257.45   13.34
  -3   5  -1  265.43   16.97
   3   5   1  280.34   15.31
   3   5   1  272.56   13.73
   3   5   1  253.58   12.55
   3   5   1  222.89   15.91
  -3   5  -1  297.09   12.57
   3   5   1  259.61   13.26
   5  -5   1  102.16    5.35
   5  -5   1  103.69    7.00
   5  -5   1   92.47    6.29
   5  -5   1  107.93    6.30
  -5  -5  -1  100.95    5.44
  -5  -5  -1  107.83    6.79
   5  -5   1  103.32    5.35
  -5  -5  -1  101.92    7.03
   5   5   1  106.03    7.57
   5   5   1  101.90    5.69
  -5   5  -1  105.46    5.30
   5   5   1  104.73    5.45
   5   5   1   89.32    6.38
   7  -5   1   64.04    5.77
   7  -5   1   62.90    6.44
   7  -5   1   57.80    6.23
   7  -5   1   63.92    5.90
  -7  -5  -1   67.18    4.17
  -7  -5  -1   59.39    6.54
   7   5   1   57.32    6.65
   7   5   1   65.89    8.09
   7   5   1   58.35    6.73
  -6  -6   1   79.11    6.71
   6  -6  -1   77.38    6.69
   6  -6  -1   80.29    6.74
   6  -6  -1   77.85    6.03
  -6  -6   1   79.30    5.04
  -6  -6   1   64.17    7.86
  -6   6   1   73.01    4.47
   6   6  -1   77.04    7.28
   6   6  -1   82.64    8.55
   6   6  -1   83.41    5.12
  -4  -6   1   40.67    3.65
  -4  -6   1   42.76    4.25
   4  -6  -1   33.06    2.94
   4  -6  -1   32.11    3.44
   4  -6  -1   38.02    2.98
  -4  -6   1   42.10    3.29
  -4  -6   1   42.54    5.89
   4  -6  -1   38.94    3.77
   4  -6  -1   39.65    4.14
   4   6  -1   45.67    5.31
  -4   6   1   47.34    5.92
   4   6  -1   36.41    4.51
  -4   6   1   44.44    2.99
   4   6  -1   43.24    4.83
   4   6  -1   35.97    3.20
   2  -6  -1   56.64    4.00
  -2  -6   1   53.05    6.67
   2  -6  -1   62.17    5.37
  -2  -6   1   56.29    3.76
  -2  -6   1   62.36    4.73
   2  -6  -1   57.26    3.80
  -2  -6   1   53.00    4.69
   2  -6  -1   60.55    3.73
   2  -6  -1   59.03    4.87
  -2  -6   1   59.54    3.94
  -2  -6   1   55.24    4.32
   2  -6  -1   61.33    4.22
  -2   6   1   56.71    3.77
   2   6  -1   55.92    3.91
  -2   6   1   62.05    6.27
   2   6  -1   58.54    4.99
  -2   6   1   61.09    4.26
  -2   6   1   59.16    4.27
   2   6  -1   57.49    3.76
   2   6  -1   61.72    4.88
   2   6  -1   60.21    4.47
  -2   6   1   56.87    3.59
   2   6  -1   61.83    5.30
   2   6  -1   62.47    5.65
   0  -6   1  213.70   12.83
   0  -6  -1  219.88   12.19
   0  -6   1  219.07   10.32
   0  -6  -1  209.61   10.37
   0  -6   1  216.79   10.82
   0  -6  -1  218.18   11.07
   0  -6  -1  214.10   12.92
   0  -6  -1  219.58   10.28
   0  -6  -1  205.66   10.93
   0  -6   1  208.91   11.08
   0  -6  -1  221.54   13.15
   0  -6   1  214.21   13.26
   0  -6   1  198.92   10.30
   0   6   1  219.37   13.85
   0   6  -1  225.93   13.73
   0   6   1  213.62   11.05
   0   6  -1  208.26   12.76
   0   6  -1  204.49   10.92
   0   6   1  218.81   12.88
   0   6  -1  219.25   11.13
   0   6   1  202.58   10.30
   0   6  -1  202.00   10.28
   0   6   1  207.52   10.26
   0   6   1  207.69   10.80
   0   6  -1  216.84   10.30
   2  -6   1  118.55    6.85
  -2  -6  -1  104.15    7.37
   2  -6   1  107.30    5.80
   2  -6   1  102.19    5.71
  -2  -6  -1  104.38    5.70
  -2  -6  -1  101.46    5.84
  -2  -6  -1  108.24    6.77
   2  -6   1  118.50    7.38
   2  -6   1   95.37    6.17
   2  -6   1   93.35    7.52
   2  -6   1  118.99    5.73
  -2  -6  -1   98.90    6.48
  -2  -6  -1  108.86    8.43
   2   6   1   90.93    5.72
  -2   6  -1  109.71    6.16
  -2   6  -1  105.65    6.30
   2   6   1  100.55    6.18
  -2   6  -1  101.30    5.69
  -2   6  -1  105.50    8.27
   2   6   1  102.95    6.90
  -2   6  -1  112.96    5.68
   2   6   1  103.32    8.12
   2   6   1  108.34    7.23
   2   6   1  106.48    5.70
  -4  -6  -1  157.09    7.83
   4  -6   1  148.70    7.70
  -4  -6  -1  151.76   10.01
   4  -6   1  171.74   10.09
  -4  -6  -1  153.85    8.99
   4  -6   1  123.50    8.50
   4   6   1  143.84    9.64
   4   6   1  160.53   10.31
  -4   6  -1  159.63    7.73
   4   6   1  152.21    7.78
   4   6   1  153.18    8.70
   6  -6   1  182.23   11.99
   6  -6   1  190.19   10.61
  -6  -6  -1  185.05    9.26
   6  -6   1  164.17   11.70
  -6  -6  -1  195.80   11.08
   6   6   1  175.71   10.87
   6   6   1  177.53   12.06
  -6   6  -1  177.40    8.96
   6   6   1  197.04   12.71
  -5  -7   1   65.63    6.54
   5  -7  -1   61.23    5.71
   5  -7  -1   68.67    6.39
   5  -7  -1   65.52    4.65
  -5  -7   1   71.16    5.07
   5   7  -1   73.61    7.05
   5   7  -1   69.00    4.95
  -5   7   1   64.73    4.40
   5   7  -1   65.02    7.57
   3  -7  -1   44.09    4.30
  -3  -7   1   42.37    4.28
  -3  -7   1   42.79    6.48
   3  -7  -1   47.72    3.59
   3  -7  -1   43.34    3.80
   3  -7  -1   46.58    4.69
  -3  -7   1   43.09    3.75
   3  -7  -1   39.41    4.37
  -3  -7   1   44.21    4.59
  -3  -7   1   46.15    5.78
  -3   7   1   44.99    3.42
   3   7  -1   39.42    3.62
   3   7  -1   47.57    5.08
  -3   7   1   48.59    3.98
  -3   7   1   42.07    6.76
   3   7  -1   40.07    5.22
  -1  -7   1   73.83    5.80
   1  -7  -1   72.24    4.62
  -1  -7   1   73.19    8.44
   1  -7  -1   78.83    5.78
   1  -7  -1   69.97    4.86
   1  -7  -1   75.74    5.37
   1  -7  -1   73.14    5.67
  -1  -7   1   76.52    4.66
   1  -7  -1   75.72    5.15
   1  -7  -1   75.00    7.29
  -1  -7   1   76.71    5.21
  -1  -7   1   73.17    5.82
  -1  -7   1   75.21    4.95
   1   7  -1   78.80    6.49
   1   7  -1   71.21    7.14
  -1   7   1   73.02    7.34
   1   7  -1   71.09    4.92
  -1   7   1   76.44    5.72
   1   7  -1   70.55    5.68
  -1   7   1   74.79    5.71
  -1   7   1   72.44    4.55
  -1   7   1   68.37    4.84
   1   7  -1   71.34    4.66
   1  -7   1  124.42    6.88
  -1  -7  -1  116.83    8.40
  -1  -7  -1  115.57    6.81
  -1  -7  -1  124.82    7.63
  -1  -7  -1  124.38    6.66
   1  -7   1  123.46    6.57
   1  -7   1  117.43    7.94
  -1  -7  -1  120.19    7.37
  -1  -7  -1  111.10   10.09
   1  -7   1  115.24    7.25
   1   7   1  116.23    6.77
   1   7   1  119.13    7.15
  -1   7  -1  119.90    6.52
  -1   7  -1  126.47    9.51
   1   7   1  120.61    8.18
   1   7   1  123.74    6.59
  -1   7  -1  116.29    7.50
  -1   7  -1  118.29    6.65
  -1   7  -1  125.67    8.04
   3  -7   1  111.12    8.18
   3  -7   1  136.13    7.76
  -3  -7  -1  127.94    7.04
   3  -7   1  135.35    6.99
  -3  -7  -1  129.38    8.18
  -3  -7  -1  135.39    7.46
  -3  -7  -1  147.01   10.41
  -3  -7  -1  122.15    8.63
   3  -7   1  136.74    8.96
   3   7   1  120.85    7.89
  -3   7  -1  135.12    6.90
   3   7   1  126.28    8.53
   3   7   1  126.87    6.97
   3   7   1  129.68    9.01
  -3   7  -1  105.83    7.00
   5  -7   1   97.55    7.13
   5  -7   1  104.05    7.95
  -5  -7  -1   99.73    8.00
  -5  -7  -1  100.44    6.26
   5  -7   1  107.31    7.76
   5   7   1  101.69    8.02
   5   7   1  100.63    6.12
   5   7   1   84.67    8.41
  -5   7  -1  103.93    5.83
   4  -8  -1   37.39    5.62
   4  -8  -1   40.44    5.43
  -4  -8   1   42.39    5.10
   4  -8  -1   38.05    4.36
   4   8  -1   45.30    6.17
   4   8  -1   46.15    6.79
   4   8  -1   38.08    4.61
   2  -8  -1   73.28    6.52
   2  -8  -1   80.61    5.79
  -2  -8   1   88.27    7.54
  -2  -8   1   79.02    6.32
   2  -8  -1   83.38    5.40
   2  -8  -1   86.75    6.70
  -2  -8   1   78.55    5.55
   2   8  -1   75.90    6.80
  -2   8   1   81.07    5.25
   2   8  -1   82.63    5.54
   0  -8   1   44.93    4.24
   0  -8   1   48.95    4.82
   0  -8  -1   50.82    5.18
   0  -8  -1   55.18    4.39
   0  -8  -1   50.71    6.04
   0  -8   1   53.52    5.54
   0   8   1   52.67    4.31
   0   8  -1   60.56    5.28
   0   8   1   53.83    5.20
   0   8  -1   49.62    4.24
  -2  -8  -1   97.22    6.23
   2  -8   1   86.24    6.78
  -2  -8  -1  108.79   12.08
  -2  -8  -1   95.04    8.27
   2  -8   1   96.16    7.08
   2  -8   1   97.29    6.08
  -2  -8  -1   93.91    7.19
   2   8   1   97.29    6.03
   2   8   1   98.43    7.49
  -2   8  -1   90.59    5.88
  -2   8  -1   92.31    6.50
   4  -8   1  143.22    9.28
   4  -8   1  150.87    8.24
   4  -8   1  136.10   10.01
  -4  -8  -1  140.05    9.86
   4   8   1  151.04   11.14
   4   8   1  142.01    8.15
   1  -9  -1   67.91    5.55
  -1  -9   1   72.22    8.16
   1  -9  -1   63.45    6.25
  -1  -9   1   63.60    6.54
   1  -9  -1   63.73    7.27
  -1  -9   1   68.39    5.78
   1   9  -1   62.70    6.64
  -1   9   1   59.77    6.70
   1   9  -1   64.69    5.69
   8   0  -2   80.23    5.61
   8   0  -2   80.16    7.28
   8   0  -2   74.75    6.05
   8   0  -2   98.74    6.48
   8   0  -2   85.35    7.44
   8   0  -2   79.71    5.35
   6   0  -2  345.27   16.69
   6   0  -2  327.73   16.86
   6   0  -2  346.59   21.24
   6   0  -2  352.88   19.85
   6   0  -2  379.15   20.44
  -4   0   2  175.97    8.14
   4   0  -2  183.32   10.40
  -4   0   2  181.61   10.31
   4   0  -2  167.90   11.10
   4   0  -2  188.43    8.74
   4   0  -2  187.05    8.15
   4   0  -2  186.57    8.13
  -2   0  -2   60.82    3.62
   2   0   2   61.55    2.80
   2   0   2   60.48    3.60
   2   0   2   63.28    3.60
   2   0   2   56.58    2.95
  -2   0  -2   56.17    3.06
   2   0   2   59.97    2.84
   2   0   2   61.26    3.02
   4   0   2  118.38    6.90
   4   0   2  115.46    5.82
   4   0   2  113.80    7.38
   4   0   2  114.87    5.80
   4   0   2  117.26    7.04
   4   0   2  120.00    6.89
  -4   0  -2  121.27    5.88
   6   0   2  215.69   12.39
   6   0   2  226.40   13.08
   6   0   2  202.22   10.04
   6   0   2  206.74   10.19
   6   0   2  192.71   12.25
   6   0   2  196.91   11.91
   8   0   2   97.48    7.11
   8   0   2  102.19    7.33
   8   0   2  100.99    6.14
   8   0   2  106.43    9.22
   8   0   2   94.58    8.30
   9  -1  -2  106.44    7.67
   9  -1  -2   86.64    9.78
   9  -1  -2  102.42    7.04
   9  -1  -2  102.07    7.68
   9  -1  -2   94.03    9.38
   9   1  -2  106.82    6.85
   9   1  -2  102.29   10.60
   9   1  -2   88.11    8.91
   9   1  -2  112.59    8.18
   9   1  -2   98.93    7.29
   7  -1  -2  172.47   11.75
   7  -1  -2  173.99   10.81
  -7  -1   2  163.68   10.58
   7  -1  -2  182.78   10.75
   7  -1  -2  168.30    9.07
   7   1  -2  178.78   10.09
   7   1  -2  176.34    9.27
   7   1  -2  178.36   11.26
   7   1  -2  162.99   11.35
   7   1  -2  175.45   10.94
   7   1  -2  169.48    9.05
   5  -1  -2  203.06    8.21
   5  -1  -2  177.03    8.68
   5  -1  -2  192.28    9.06
  -5  -1   2  172.05   10.46
  -5  -1   2  174.32    8.19
   5  -1  -2  176.38   10.52
   5  -1  -2  185.13   11.53
   5  -1  -2  188.63    8.16
  -5   1   2  195.72    8.18
   5   1  -2  183.31   10.78
   5   1  -2  164.50    8.28
   5   1  -2  170.15    9.04
   5   1  -2  183.62   11.39
  -5   1   2  176.60   11.30
   5   1  -2  177.68   10.94
   5   1  -2  178.65    8.20
   3  -1  -2  271.85   15.68
   3  -1  -2  313.10   12.71
  -3  -1   2  283.24   15.74
  -3  -1   2  282.99   12.71
   3  -1  -2  300.29   17.11
  -3  -1   2  266.29   12.73
   3  -1  -2  286.11   12.69
   3  -1  -2  305.43   13.56
  -3   1   2  297.56   12.70
  -3   1   2  259.61   16.93
   3   1  -2  298.59   15.87
   3   1  -2  280.26   13.46
   3   1  -2  277.44   12.72
   3   1  -2  280.03   12.73
   3   1  -2  271.30   16.96
   3   1  -2  276.48   16.32
   1  -1   2  142.48    8.15
  -1  -1  -2  146.42    7.10
   1  -1   2  154.07    6.69
  -1  -1  -2  153.57    8.51
  -1  -1  -2  144.97    6.68
  -1  -1  -2  144.89    6.95
   1  -1   2  132.64    7.03
  -1  -1  -2  148.29    8.90
   1   1   2  146.92    6.68
  -1   1  -2  145.40    6.68
   1   1   2  160.01    6.92
   1   1   2  147.21    8.25
  -3  -1  -2  164.22    9.02
   3  -1   2  175.22    9.17
   3  -1   2  164.22    7.28
   3  -1   2  163.62    7.25
  -3  -1  -2  157.60    7.94
   3  -1   2  173.12    9.75
  -3  -1  -2  159.02    7.26
  -3  -1  -2  156.42    9.48
   3  -1   2  158.71    7.81
   3   1   2  158.92    7.88
   3   1   2  151.63    7.25
   3   1   2  164.06    9.08
   3   1   2  160.62    9.45
   3   1   2  151.13    9.00
   3   1   2  150.25    7.28
  -3   1  -2  165.09    7.85
  -3   1  -2  172.23    7.28
   5  -1   2  124.31    8.15
   5  -1   2  125.53    7.48
   5  -1   2  132.38    7.55
   5  -1   2  122.56    6.42
   5  -1   2  124.80    7.58
  -5  -1  -2  129.93    6.58
   5   1   2  131.69    7.43
   5   1   2  121.86    6.27
   5   1   2  110.97    6.48
   5   1   2  131.09    7.81
   5   1   2  116.70    7.71
   7  -1   2   97.83    6.33
   7  -1   2   95.99    5.62
   7  -1   2   95.63    6.59
   7  -1   2   81.15    7.49
   7  -1   2  103.15    7.35
   7   1   2   93.17    6.44
   7   1   2   91.54    5.85
   7   1   2   94.55    5.45
   7   1   2   94.15    6.59
   7   1   2   93.46    7.38
   7   1   2  100.19    7.92
   8  -2  -2  125.35    9.40
   8  -2  -2  134.01    8.68
   8  -2  -2  116.97   11.01
   8  -2  -2  131.56    7.57
   8   2  -2  129.31    9.82
   8   2  -2  138.42    7.72
   8   2  -2  133.19    8.14
   8   2  -2  133.09    9.28
   8   2  -2  133.30   10.92
   8   2  -2  129.22    8.67
   6  -2  -2  144.68    8.70
   6  -2  -2  138.89   10.16
  -6  -2   2  142.33    8.63
   6  -2  -2  149.45    7.45
   6  -2  -2  139.55    6.40
  -6  -2   2  142.40    6.48
   6   2  -2  138.48    9.37
   6   2  -2  137.92    7.94
  -6   2   2  121.67    6.52
   6   2  -2  138.72    6.53
  -6   2   2  136.92    9.20
   6   2  -2  138.60    7.76
   6   2  -2  152.28    9.52
   6   2  -2  137.90    6.48
   6   2  -2  135.07    8.98
  -4  -2   2  186.20    8.93
  -4  -2   2  186.98   11.19
   4  -2  -2  191.73    8.85
  -4  -2   2  195.47    8.93
   4  -2  -2  198.76   11.16
   4  -2  -2  187.88    8.89
   4  -2  -2  176.33    9.58
   4  -2  -2  186.74   12.61
  -4   2   2  200.86    9.66
   4   2  -2  215.95   11.66
   4   2  -2  194.03    9.73
  -4   2   2  187.90    8.89
  -4   2   2  199.56    8.86
  -4   2   2  200.64   12.04
   4   2  -2  200.45    8.96
   4   2  -2  206.29   10.62
   4   2  -2  200.07   11.71
   4   2  -2  202.38    8.95
   2  -2  -2  357.48   16.95
  -2  -2   2  351.74   20.17
   2  -2  -2  390.80   16.32
   2  -2  -2  383.77   16.30
  -2  -2   2  349.84   20.69
  -2  -2   2  355.85   16.33
   2  -2  -2  350.32   17.18
  -2  -2   2  350.69   16.32
  -2   2   2  326.56   21.81
  -2   2   2  372.25   17.17
   2   2  -2  349.26   20.71
   2   2  -2  363.90   16.33
   2   2  -2  352.70   17.17
  -2   2   2  417.46   16.34
  -2   2   2  393.09   16.30
   2   2  -2  352.93   16.33
   2   2  -2  365.49   17.39
   0  -2   2   93.80    5.20
   0  -2   2   96.82    5.42
   0  -2  -2   93.80    4.69
   0  -2   2   91.07    4.38
   0  -2  -2   78.94    5.83
   0  -2   2   97.49    4.69
   0  -2  -2   95.72    4.40
   0  -2  -2   94.03    4.57
   0  -2  -2   94.10    5.56
   0   2   2   95.73    4.39
   0   2   2   91.12    5.84
   0   2   2   84.87    5.52
   0   2  -2   95.01    4.39
   0   2   2   99.61    5.29
   0   2  -2   84.78    4.38
   2  -2   2  149.72    7.17
   2  -2   2  147.84    9.28
  -2  -2  -2  154.40    7.81
   2  -2   2  170.00    7.23
   2  -2   2  159.27    7.67
  -2  -2  -2  158.16    7.23
  -2  -2  -2  154.58    8.63
   2  -2   2  162.44    8.87
  -2  -2  -2  150.82    9.27
  -2  -2  -2  152.99    7.17
   2   2   2  154.11    7.17
  -2   2  -2  154.26    7.21
   2   2   2  162.82    7.53
   2   2   2  150.25    9.24
   2   2   2  167.97    7.78
  -2   2  -2  168.23    7.70
   2   2   2  171.09    8.87
  -2   2  -2  147.80    7.18
   2   2   2  153.21    7.21
   2   2   2  146.77    9.66
   4  -2   2  277.16   15.50
  -4  -2  -2  245.39   13.92
   4  -2   2  257.56   11.40
   4  -2   2  260.62   12.30
   4  -2   2  246.97   14.21
   4  -2   2  274.88   11.37
  -4  -2  -2  237.60   11.37
  -4  -2  -2  246.89   14.85
  -4  -2  -2  251.45   13.97
  -4  -2  -2  240.75   12.39
   4  -2   2  215.58   14.28
   4   2   2  263.30   12.27
   4   2   2  252.44   12.38
   4   2   2  260.19   14.08
  -4   2  -2  260.10   12.32
   4   2   2  267.57   14.85
   4   2   2  248.36   11.37
   4   2   2  247.62   11.43
  -4   2  -2  258.94   11.39
   4   2   2  249.03   14.39
   6  -2   2   70.59    5.36
   6  -2   2   76.49    6.26
   6  -2   2   66.92    5.23
  -6  -2  -2   73.98    4.91
   6  -2   2   76.69    4.51
   6   2   2   69.09    5.10
   6   2   2   72.29    5.08
   6   2   2   78.18    5.34
   6   2   2   72.39    4.23
   6   2   2   62.93    6.15
   8  -2   2   93.23    6.44
   8  -2   2   91.59    8.75
   8  -2   2   89.18    7.31
   8  -2   2   98.32    8.46
   8  -2   2  106.96    6.30
   8   2   2   93.05    8.24
   8   2   2   94.10    5.89
   8   2   2   89.33    7.08
   8   2   2   82.21    9.73
   8   2   2   87.88    7.36
   8   2   2   94.80    7.36
   8   2   2   98.45    8.22
  -7  -3   2   98.16    5.51
   7  -3  -2  124.94    6.75
   7  -3  -2  113.99    7.86
   7  -3  -2  102.98    5.62
  -7  -3   2  110.93    8.06
   7  -3  -2  120.26    5.44
   7   3  -2  122.26    8.83
   7   3  -2  110.93    7.91
   7   3  -2  120.28    9.88
   7   3  -2  113.16    5.71
   7   3  -2  114.64    8.17
   7   3  -2  119.87    5.59
   7   3  -2  113.58    8.60
  -7   3   2  103.98    8.33
   7   3  -2  125.05    6.83
  -5  -3   2  226.44   12.96
   5  -3  -2  225.09   12.86
   5  -3  -2  228.46   10.16
  -5  -3   2  192.94   10.22
  -5  -3   2  218.32   10.27
   5  -3  -2  231.09   11.13
   5  -3  -2  224.48   10.23
  -5   3   2  236.79   10.15
   5   3  -2  218.81   13.50
   5   3  -2  221.55   13.72
  -5   3   2  227.90   13.81
   5   3  -2  212.98   11.38
  -5   3   2  225.39   11.17
   5   3  -2  218.63   10.28
   5   3  -2  230.73   11.71
   5   3  -2  221.74   10.29
  -3  -3   2   86.72    4.21
  -3  -3   2   84.44    4.64
   3  -3  -2   86.81    4.30
   3  -3  -2   91.32    5.51
   3  -3  -2   77.69    4.07
  -3  -3   2   86.90    5.67
  -3  -3   2   83.90    5.45
   3  -3  -2   78.52    4.47
   3  -3  -2   81.67    4.13
   3  -3  -2   82.30    6.03
  -3  -3   2   80.70    4.20
  -3   3   2   76.87    4.13
   3   3  -2   82.51    4.19
  -3   3   2   84.60    4.08
   3   3  -2   81.89    4.17
  -3   3   2   87.12    4.51
   3   3  -2   85.84    4.92
   3   3  -2   82.71    4.81
   3   3  -2   83.66    5.51
   3   3  -2   78.11    5.86
   1  -3  -2  385.53   17.38
  -1  -3   2  362.44   20.92
   1  -3  -2  369.50   21.96
  -1  -3   2  361.73   17.37
   1  -3  -2  382.19   20.94
  -1  -3   2  354.83   17.54
   1  -3  -2  384.43   16.57
   1  -3  -2  376.23   16.60
   1  -3  -2  365.70   17.43
  -1  -3   2  358.84   16.60
  -1  -3   2  367.96   19.76
  -1  -3   2  340.86   20.50
  -1  -3   2  363.07   16.61
   1  -3  -2  360.72   20.02
   1   3  -2  369.99   20.44
   1   3  -2  373.86   16.63
  -1   3   2  371.73   17.38
   1   3  -2  349.95   16.58
  -1   3   2  367.75   16.59
  -1   3   2  376.75   21.99
  -1   3   2  377.68   20.94
   1   3  -2  362.68   17.43
  -1   3   2  356.86   16.55
  -1   3   2  386.40   17.30
   1   3  -2  364.44   20.92
   1  -3   2  421.76   23.75
  -1  -3  -2  443.75   20.03
   1  -3   2  466.55   23.01
  -1  -3  -2  403.08   24.05
   1  -3   2  447.76   19.06
  -1  -3  -2  396.22   20.02
  -1  -3  -2  425.94   19.00
   1  -3   2  428.33   19.03
  -1  -3  -2  404.55   23.17
   1  -3   2  448.86   23.31
  -1  -3  -2  409.63   25.16
  -1  -3  -2  417.83   19.04
   1   3   2  398.99   18.97
   1   3   2  424.00   19.98
  -1   3  -2  441.68   19.05
   1   3   2  417.28   19.03
   1   3   2  423.40   19.90
   1   3   2  411.30   25.15
   1   3   2  434.59   22.86
   1   3   2  409.53   24.04
   1   3   2  433.67   22.99
  -1   3  -2  425.99   19.02
  -1   3  -2  391.29   20.02
   3  -3   2   75.48    3.54
   3  -3   2   75.09    4.55
  -3  -3  -2   65.34    4.19
  -3  -3  -2   67.73    3.47
  -3  -3  -2   66.32    4.24
   3  -3   2   66.52    3.93
   3  -3   2   64.11    4.40
  -3  -3  -2   65.06    4.73
  -3  -3  -2   65.99    3.56
   3  -3   2   66.50    3.43
   3   3   2   64.84    3.44
   3   3   2   66.56    3.75
   3   3   2   69.46    3.56
   3   3   2   69.66    5.11
   3   3   2   68.69    4.29
   3   3   2   75.53    4.60
   3   3   2   69.06    4.30
  -3   3  -2   68.32    3.47
   3   3   2   63.47    4.63
  -3   3  -2   69.20    3.50
  -3   3  -2   68.62    4.00
  -5  -3  -2  125.66    7.84
   5  -3   2  130.01    8.22
   5  -3   2  135.24    6.25
   5  -3   2  131.41    6.21
  -5  -3  -2  131.91    6.25
   5  -3   2  133.82    8.64
   5  -3   2  131.66    7.06
  -5  -3  -2  134.30    7.49
  -5  -3  -2  131.56    8.64
   5   3   2  136.07    8.27
   5   3   2  131.73    7.03
   5   3   2  137.35    7.66
   5   3   2  127.40    6.23
  -5   3  -2  135.51    7.32
   5   3   2  131.70    8.73
  -5   3  -2  140.36    6.26
   5   3   2  132.10    6.39
   7  -3   2  143.43    9.48
   7  -3   2  139.58    7.89
  -7  -3  -2  148.32    8.37
   7  -3   2  139.05    9.14
   7  -3   2  135.64    9.96
   7   3   2  133.05    8.09
   7   3   2  138.54    9.06
   7   3   2  132.11   10.52
   7   3   2  136.52    6.43
   7   3   2  141.80    9.38
   8  -4  -2   61.28    5.68
   8  -4  -2   56.15    6.50
   8  -4  -2   62.31    8.42
   8   4  -2   50.92    4.15
   8   4  -2   52.28    7.13
   8   4  -2   69.74    6.76
   8   4  -2   42.04    8.69
   6  -4  -2   72.86    5.55
  -6  -4   2   75.04    6.16
   6  -4  -2   75.51    5.02
   6  -4  -2   72.30    3.80
   6  -4  -2   83.33    7.00
  -6  -4   2   78.91    4.15
   6  -4  -2   70.42    4.03
   6   4  -2   75.85    4.11
   6   4  -2   67.32    4.19
   6   4  -2   68.07    6.22
   6   4  -2   73.19    6.36
  -6   4   2   73.54    3.77
   6   4  -2   58.22    7.78
  -6   4   2   64.41    5.99
   6   4  -2   73.42    5.97
  -4  -4   2  171.85   10.29
  -4  -4   2  158.32   10.32
   4  -4  -2  172.55    8.12
  -4  -4   2  165.92    7.98
  -4  -4   2  168.40    8.73
   4  -4  -2  156.96    8.54
  -4  -4   2  165.45    8.02
   4  -4  -2  174.77    7.90
   4  -4  -2  172.82   11.01
   4  -4  -2  171.66   10.14
   4  -4  -2  160.42    7.91
   4   4  -2  171.29    8.95
  -4   4   2  179.61   11.09
   4   4  -2  165.58   10.44
   4   4  -2  155.29    8.98
  -4   4   2  157.72    8.54
   4   4  -2  167.11    8.01
   4   4  -2  159.39    7.97
   4   4  -2  158.16   10.73
  -4   4   2  161.50    7.83
  -4   4   2  180.35    7.99
   2  -4  -2  255.40   11.99
   2  -4  -2  247.17   12.64
  -2  -4   2  237.23   12.82
  -2  -4   2  264.79   12.70
  -2  -4   2  261.36   12.03
   2  -4  -2  279.20   11.98
   2  -4  -2  224.75   14.99
  -2  -4   2  262.19   15.24
   2  -4  -2  269.84   15.97
   2  -4  -2  268.03   12.55
  -2  -4   2  262.09   12.03
  -2  -4   2  233.55   15.20
   2   4  -2  271.58   12.84
   2   4  -2  267.40   15.24
   2   4  -2  252.63   12.81
  -2   4   2  274.71   16.32
   2   4  -2  257.24   12.00
  -2   4   2  278.11   12.41
  -2   4   2  257.36   12.59
  -2   4   2  248.40   11.92
  -2   4   2  269.21   12.01
   2   4  -2  265.30   12.04
   2   4  -2  261.59   14.98
   0  -4   2  216.11   11.77
   0  -4  -2  200.86   13.11
   0  -4  -2  227.70   12.18
   0  -4  -2  208.92    9.88
   0  -4  -2  217.30   11.84
   0  -4   2  218.77   12.38
   0  -4  -2  205.20   10.51
   0  -4  -2  210.91    9.94
   0  -4   2  186.57   12.28
   0  -4  -2  218.42   10.49
   0  -4   2  211.05    9.93
   0  -4   2  215.59    9.94
   0  -4   2  212.34   10.34
   0  -4   2  204.59   10.51
   0  -4  -2  204.73   12.49
   0   4   2  207.72    9.87
   0   4  -2  202.07    9.91
   0   4   2  214.82   10.34
   0   4   2  213.27   13.16
   0   4   2  219.69   10.47
   0   4  -2  221.42   10.58
   0   4  -2  224.63   12.25
   0   4  -2  233.06   12.41
   0   4  -2  214.33   12.99
   0   4   2  203.20    9.89
   0   4   2  207.46   12.46
   0   4  -2  210.23    9.93
  -2  -4  -2  246.50   11.50
   2  -4   2  280.15   14.12
  -2  -4  -2  248.65   11.43
  -2  -4  -2  235.36   12.19
   2  -4   2  206.81   14.04
   2  -4   2  265.71   11.50
  -2  -4  -2  268.47   14.08
   2  -4   2  227.71   11.41
  -2  -4  -2  235.61   12.28
   2  -4   2  226.68   12.10
  -2  -4  -2  238.23   14.62
  -2   4  -2  243.22   15.13
   2   4   2  242.73   12.27
   2   4   2  285.92   14.72
   2   4   2  263.43   15.37
   2   4   2  247.00   11.43
  -2   4  -2  222.89   12.11
  -2   4  -2  245.49   11.85
   2   4   2  250.01   11.96
  -2   4  -2  269.65   11.49
   2   4   2  252.01   13.59
  -2   4  -2  247.18   11.47
   2   4   2  241.19   11.46
   2   4   2  236.84   13.73
  -4  -4  -2  169.88   11.16
  -4  -4  -2  180.74    9.59
   4  -4   2  173.07   10.94
  -4  -4  -2  181.52    8.61
   4  -4   2  196.02   10.70
   4  -4   2  175.67    8.44
   4  -4   2  168.24    9.18
  -4  -4  -2  173.82   10.28
   4  -4   2  183.36    8.42
  -4  -4  -2  182.89    8.45
   4   4   2  185.59   10.64
  -4   4  -2  192.63    8.49
   4   4   2  171.50   11.08
   4   4   2  178.25    8.56
  -4   4  -2  180.01    9.35
   4   4   2  161.06    9.01
   4   4   2  183.32    9.72
   4   4   2  182.52    8.46
   4   4   2  181.58   10.05
  -4   4  -2  185.35   10.97
   4   4   2  165.32   11.79
   6  -4   2   71.53    3.76
   6  -4   2   61.47    5.24
  -6  -4  -2   75.17    3.92
   6  -4   2   65.80    5.62
   6  -4   2   72.62    3.80
   6  -4   2   73.67    5.09
  -6  -4  -2   75.19    5.81
   6   4   2   67.72    5.87
   6   4   2   62.15    6.51
   6   4   2   83.00    7.01
   6   4   2   71.83    3.90
   6   4   2   68.78    4.24
   6   4   2   72.17    5.13
  -6   4  -2   72.56    3.74
  -7  -5   2   63.97    4.18
   7  -5  -2   64.98    5.72
   7  -5  -2   56.82    5.93
   7  -5  -2   66.89    6.79
   7  -5  -2   55.34    5.55
   7   5  -2   51.91    7.76
   7   5  -2   56.63    6.18
  -7   5   2   57.94    3.56
  -5  -5   2   41.47    3.27
   5  -5  -2   45.95    4.78
  -5  -5   2   43.97    5.34
   5  -5  -2   47.13    2.96
   5  -5  -2   51.86    4.03
  -5  -5   2   47.88    4.33
   5  -5  -2   43.94    3.19
   5   5  -2   45.17    3.43
   5   5  -2   39.27    5.49
   5   5  -2   42.27    3.29
  -5   5   2   43.95    2.83
   5   5  -2   41.25    4.36
   5   5  -2   39.85    5.10
  -5   5   2   46.83    5.72
  -3  -5   2  195.05   10.61
  -3  -5   2  197.59   12.14
  -3  -5   2  203.80   10.22
   3  -5  -2  206.17   10.20
   3  -5  -2  204.22    9.82
   3  -5  -2  207.56   11.84
   3  -5  -2  207.39   12.65
  -3  -5   2  194.78    9.54
  -3  -5   2  195.16    9.50
   3  -5  -2  196.56    9.46
   3  -5  -2  194.97    9.39
  -3  -5   2  212.76   12.59
   3   5  -2  189.94   10.50
   3   5  -2  192.68    9.49
  -3   5   2  199.94    9.39
  -3   5   2  176.35    9.62
   3   5  -2  193.30   12.08
  -3   5   2  193.71    9.47
   3   5  -2  194.76    9.52
   3   5  -2  195.08   10.41
   3   5  -2  201.29   12.14
  -3   5   2  180.19   13.60
  -3   5   2  213.91   10.11
   1  -5  -2  222.82   12.27
  -1  -5   2  208.70   12.82
  -1  -5   2  210.75   10.24
   1  -5  -2  208.96   10.16
  -1  -5   2  196.67   10.90
  -1  -5   2  213.95   10.78
   1  -5  -2  216.33   13.55
  -1  -5   2  243.16   13.30
   1  -5  -2  219.49   12.63
   1  -5  -2  240.06   12.94
  -1  -5   2  209.76   11.90
   1  -5  -2  217.02   10.85
  -1  -5   2  216.16   10.29
   1  -5  -2  210.40   10.79
   1  -5  -2  210.14   10.24
  -1   5   2  211.77   10.66
   1   5  -2  209.21   10.99
   1   5  -2  219.62   10.95
   1   5  -2  219.79   12.84
  -1   5   2  216.24   12.84
   1   5  -2  212.43   12.65
  -1   5   2  215.79   10.73
  -1   5   2  225.75   13.73
   1   5  -2  212.81   10.24
   1   5  -2  217.54   13.51
  -1   5   2  219.86   10.18
  -1   5   2  204.73   10.21
   1   5  -2  209.41   10.24
  -1  -5  -2  201.55    9.71
  -1  -5  -2  170.52   12.06
   1  -5   2  211.16   12.17
   1  -5   2  212.76   10.33
  -1  -5  -2  210.44    9.67
  -1  -5  -2  208.78   10.40
   1  -5   2  203.70    9.69
   1  -5   2  200.36    9.66
   1  -5   2  202.09   11.88
  -1  -5  -2  196.18   10.42
  -1  -5  -2  207.34   11.42
  -1  -5  -2  203.22   12.25
   1   5   2  202.02   10.07
   1   5   2  197.62    9.69
   1   5   2  204.74    9.64
   1   5   2  195.54   10.39
  -1   5  -2  217.36   10.34
  -1   5  -2  204.48    9.69
  -1   5  -2  206.51   12.77
  -1   5  -2  197.94    9.68
  -1   5  -2  197.17   11.88
  -1   5  -2  210.64   10.22
   1   5   2  196.96   12.17
   1   5   2  198.54   12.90
  -3  -5  -2  224.15   10.30
   3  -5   2  220.52   10.19
   3  -5   2  218.45   12.80
  -3  -5  -2  185.00   11.07
  -3  -5  -2  215.17   11.10
  -3  -5  -2  210.26   13.13
   3  -5   2  208.18   13.05
   3  -5   2  218.01   10.91
  -3  -5  -2  232.22   10.19
   3  -5   2  214.20   12.30
   3  -5   2  219.18   12.48
  -3  -5  -2  193.50   12.36
   3  -5   2  203.10   10.10
   3   5   2  219.75   10.27
   3   5   2  213.24   11.33
  -3   5  -2  215.62   10.17
  -3   5  -2  180.70   13.56
   3   5   2  193.71   12.99
  -3   5  -2  229.81   11.04
  -3   5  -2  238.87   10.22
   3   5   2  220.61   10.15
   3   5   2  211.20   12.23
   3   5   2  218.43   10.75
   5  -5   2   95.67    6.45
   5  -5   2   91.40    4.76
   5  -5   2   86.63    4.71
  -5  -5  -2   86.77    4.87
   5  -5   2   83.17    6.05
  -5  -5  -2   89.58    6.38
   5  -5   2   86.96    5.79
   5   5   2   97.55    5.81
   5   5   2   80.02    6.52
   5   5   2   84.28    5.19
   5   5   2   87.49    4.80
  -5   5  -2   84.98    4.72
   5   5   2   76.49    6.72
   7  -5   2   49.58    6.20
   7  -5   2   48.43    5.65
  -7  -5  -2   35.77    3.69
  -7  -5  -2   56.28    6.56
   7  -5   2   55.51    6.06
   7   5   2   47.74    7.25
   7   5   2   57.82    6.53
   6  -6  -2   60.93    5.47
   6  -6  -2   70.19    6.40
   6  -6  -2   72.72    6.66
   6  -6  -2   76.92    5.66
  -6  -6   2   63.27    4.81
  -6   6   2   70.98    4.17
   6   6  -2   75.68    6.68
   6   6  -2   69.60    4.76
   6   6  -2   70.59    8.89
   4  -6  -2  100.58    7.73
   4  -6  -2  102.66    6.46
   4  -6  -2  101.83    5.83
  -4  -6   2   99.95    6.00
  -4  -6   2  103.04    5.87
   4  -6  -2  105.06    7.00
  -4  -6   2   99.76    6.66
   4  -6  -2  110.26    5.69
  -4  -6   2  102.39    8.84
   4   6  -2   99.99    8.15
   4   6  -2  105.81    7.42
  -4   6   2  102.86   10.01
   4   6  -2  126.39    7.83
   4   6  -2  101.97    5.86
  -4   6   2  109.63    5.59
   2  -6  -2  111.84    6.46
   2  -6  -2  116.09    6.71
   2  -6  -2  119.33    7.53
   2  -6  -2  113.49    7.51
  -2  -6   2  120.52    6.25
   2  -6  -2  110.25    8.06
  -2  -6   2  112.48    7.67
  -2  -6   2  116.06    6.66
  -2  -6   2  121.17    6.15
  -2  -6   2  115.12    9.38
  -2  -6   2  119.37    7.09
   2  -6  -2  112.80    8.05
   2  -6  -2  119.24    6.12
   2  -6  -2  119.08    5.99
  -2   6   2  115.04    6.51
  -2   6   2  110.96    5.93
   2   6  -2  112.93    7.85
   2   6  -2  114.56    6.12
   2   6  -2  111.14    7.36
  -2   6   2  127.92    9.10
   2   6  -2  108.78    8.37
   2   6  -2  106.94    7.02
  -2   6   2  117.89    6.44
  -2   6   2  110.79    6.10
   2   6  -2  103.96    7.59
   2   6  -2  107.21    6.11
   0  -6   2  292.93   17.59
   0  -6  -2  298.53   14.20
   0  -6   2  305.38   16.72
   0  -6   2  314.40   14.18
   0  -6  -2  300.51   18.72
   0  -6  -2  296.18   14.99
   0  -6  -2  280.10   17.71
   0  -6  -2  309.81   17.66
   0  -6   2  283.43   15.04
   0  -6  -2  307.06   14.12
   0  -6  -2  313.59   16.87
   0  -6   2  300.20   14.18
   0  -6  -2  296.78   15.07
   0  -6   2  305.75   14.77
   0  -6   2  295.95   17.84
   0   6  -2  300.19   14.17
   0   6  -2  313.74   14.20
   0   6  -2  303.51   15.07
   0   6   2  291.21   14.15
   0   6   2  297.53   14.96
   0   6  -2  310.69   17.61
   0   6  -2  302.94   18.68
   0   6  -2  308.18   15.09
   0   6   2  306.65   18.85
   0   6   2  307.91   17.76
   0   6   2  270.26   14.02
   0   6   2  302.45   14.80
   2  -6   2  228.71   13.21
  -2  -6  -2  230.92   14.03
  -2  -6  -2  213.73   13.85
  -2  -6  -2  228.80   10.98
  -2  -6  -2  226.89   10.84
  -2  -6  -2  220.07   11.85
   2  -6   2  211.15   13.66
   2  -6   2  221.00   10.85
   2  -6   2  215.93   10.84
   2  -6   2  227.66   11.62
  -2  -6  -2  224.47   11.86
  -2   6  -2  210.40   14.53
  -2   6  -2  232.03   11.69
   2   6   2  225.44   10.80
  -2   6  -2  229.74   11.37
   2   6   2  208.91   10.87
  -2   6  -2  237.56   10.87
   2   6   2  246.83   14.86
  -2   6  -2  223.96   10.88
   2   6   2  227.94   12.03
   2   6   2  218.55   13.73
   2   6   2  226.26   11.42
   4  -6   2   67.22    5.51
   4  -6   2   93.27    6.00
  -4  -6  -2   77.91    6.18
  -4  -6  -2   82.17    4.88
   4  -6   2   76.45    6.05
   4  -6   2   79.61    4.73
   4   6   2   87.35    6.54
   4   6   2   74.00    4.75
   4   6   2   71.85    5.87
   4   6   2   80.28    5.51
  -4   6  -2   83.49    4.75
   6  -6   2   92.81    7.49
  -6  -6  -2   83.19    7.64
  -6  -6  -2   89.55    5.43
   6  -6   2   77.85    6.89
   6   6   2   94.15    8.09
  -6   6  -2   82.33    5.04
   6   6   2   89.60    7.58
   5  -7  -2   44.32    3.90
   5  -7  -2   54.04    4.88
   5  -7  -2   46.27    5.00
  -5  -7   2   36.47    4.15
   5  -7  -2   36.21    5.53
   5   7  -2   45.06    6.04
   5   7  -2   42.25    4.35
   5   7  -2   62.90    6.19
  -5   7   2   46.96    3.63
   3  -7  -2  101.37    5.98
   3  -7  -2   80.69    5.48
  -3  -7   2   99.96    6.62
  -3  -7   2   94.98    5.81
  -3  -7   2   92.37    6.06
  -3  -7   2  100.56    7.48
   3  -7  -2   94.76    6.50
  -3  -7   2   99.19   10.30
   3  -7  -2  104.51    7.03
   3   7  -2   96.02    7.47
   3   7  -2   96.08    7.71
  -3   7   2   92.54   10.83
  -3   7   2   97.08    5.43
  -3   7   2   99.76    5.88
   3   7  -2   96.90    5.71
  -1  -7   2  127.92    7.31
  -1  -7   2  124.19    6.79
  -1  -7   2  116.89    6.90
   1  -7  -2  129.97    9.60
  -1  -7   2  124.58    7.64
   1  -7  -2  120.51    7.61
  -1  -7   2  128.86    8.37
   1  -7  -2  124.44    6.64
  -1  -7   2  123.83   10.59
   1  -7  -2  124.17    8.96
   1  -7  -2  125.02    6.96
   1  -7  -2  122.76    7.37
   1  -7  -2  116.32    8.27
   1  -7  -2  123.32    8.14
  -1   7   2  122.74    6.89
  -1   7   2  116.80    8.27
  -1   7   2  121.39    9.96
   1   7  -2  133.10    8.34
   1   7  -2  111.41    6.81
   1   7  -2  133.95    8.42
   1   7  -2  125.58    9.53
  -1   7   2  127.60    6.65
  -1   7   2  120.64    7.59
   1   7  -2  123.08    6.76
  -1  -7  -2  175.48    9.81
   1  -7   2  177.32   10.34
   1  -7   2  170.91    8.82
  -1  -7  -2  173.28    9.14
   1  -7   2  183.02    9.68
  -1  -7  -2  156.93   12.35
   1  -7   2  150.93   10.60
  -1  -7  -2  179.44    8.82
  -1  -7  -2  179.53    9.90
  -1   7  -2  166.22   12.12
   1   7   2  182.45    8.82
  -1   7  -2  160.61   10.75
   1   7   2  175.99   11.03
  -1   7  -2  176.84    9.82
   1   7   2  177.58    9.34
  -1   7  -2  171.74    8.94
   3  -7   2  100.48    7.03
   3  -7   2  114.90    7.32
   3  -7   2  115.92    7.79
  -3  -7  -2  110.10    7.74
  -3  -7  -2  114.45    6.93
  -3  -7  -2  114.02    8.05
   3  -7   2  109.78    6.34
  -3  -7  -2  108.72    6.38
   3   7   2  110.52    8.26
  -3   7  -2  116.62    6.35
   3   7   2  122.87    7.36
   3   7   2  117.63    6.43
  -5  -7  -2   70.42    7.31
   5  -7   2   64.10    6.77
   5  -7   2   85.27    6.32
  -5  -7  -2   70.37    5.44
   5  -7   2   67.63    6.57
   5   7   2   74.43    6.81
   5   7   2   79.47    7.45
  -5   7  -2   71.30    4.89
   4  -8  -2   74.96    5.57
   4  -8  -2   64.27    6.39
   4  -8  -2   71.79    7.12
   4  -8  -2   81.20    5.36
   4   8  -2   75.50    7.62
   4   8  -2   68.68    5.58
   4   8  -2   68.21    8.13
  -2  -8   2  124.99    9.24
   2  -8  -2  125.84    9.77
   2  -8  -2  135.18    7.36
   2  -8  -2  130.57    8.01
  -2  -8   2  123.75    8.18
   2  -8  -2  132.26    8.55
  -2  -8   2  137.97    7.59
   2   8  -2  128.63    9.29
  -2   8   2  135.90    7.29
   2   8  -2  133.51    7.56
   0  -8  -2   72.12    5.21
   0  -8  -2   79.05    6.74
   0  -8   2   78.73    6.41
   0  -8   2   77.65    6.69
   0  -8   2   79.50    5.32
   0  -8  -2   82.63    6.36
   0   8  -2   78.35    5.28
   0   8   2   79.42    6.45
   0   8  -2   84.18    6.41
   0   8   2   77.79    5.18
  -2  -8  -2  142.40    7.96
  -2  -8  -2  148.72    9.41
   2  -8   2  145.62    9.34
   2  -8   2  136.82    8.86
  -2  -8  -2  145.20   10.11
   2  -8   2  144.79    8.00
   2  -8   2  139.90    9.36
   2   8   2  139.68    9.92
   2   8   2  153.64    7.98
  -2   8  -2  129.79    7.77
  -2   8  -2  137.75    8.20
   8   0  -3   56.41    4.84
   8   0  -3   53.52    4.84
   8   0  -3   54.66    6.38
   8   0  -3   53.04    4.30
   8   0  -3   47.61    5.96
   8   0  -3   51.64    4.83
   6   0  -3  157.69    9.92
   6   0  -3  162.04    6.88
   6   0  -3  153.23    9.35
  -6   0   3  145.84    6.85
   6   0  -3  149.74    6.81
  -6   0   3  155.33    9.18
   6   0  -3  147.44    7.84
   6   0  -3  156.79    9.41
   6   0  -3  129.25    7.66
   4   0  -3  211.01    9.15
   4   0  -3  210.42    9.14
  -4   0   3  204.11    9.14
   4   0  -3  185.36   11.49
   4   0  -3  197.32   12.35
  -4   0   3  200.73   12.39
  -4   0   3  203.20   11.44
   2   0  -3    7.53    1.10
  -2   0   3    9.76    1.18
  -2   0   3    9.88    0.98
   2   0  -3    8.53    0.88
   2   0  -3    8.17    0.89
  -2   0   3   10.34    1.32
   2   0  -3    9.97    1.18
  -2   0   3    8.70    0.94
   2   0   3  405.10   22.95
  -2   0  -3  382.58   18.27
  -2   0  -3  366.88   17.47
   2   0   3  413.48   21.26
   2   0   3  443.69   18.26
   2   0   3  368.32   17.49
  -2   0  -3  383.81   17.46
   2   0   3  382.34   21.98
  -2   0  -3  402.11   22.02
   2   0   3  376.20   17.46
  -2   0  -3  386.68   21.24
   4   0   3  199.07   11.07
  -4   0  -3  187.27    9.46
   4   0   3  197.10    8.71
   4   0   3  193.90   11.30
   4   0   3  177.70    9.34
   4   0   3  207.13    8.74
   4   0   3  189.65   11.01
   4   0   3  206.05    9.36
   6   0   3  373.31   17.62
   6   0   3  376.54   21.16
   6   0   3  359.42   17.78
   6   0   3  381.59   20.82
   6   0   3  379.25   22.55
   6   0   3  368.15   21.43
   8   0   3   88.65    5.77
   8   0   3   99.10    7.05
   8   0   3   84.77    7.87
   8   0   3   88.01    9.26
   9  -1  -3  114.99    7.58
   9  -1  -3  119.86    8.40
   9  -1  -3  121.65    9.78
   9  -1  -3  110.22   10.38
   9  -1  -3  122.10    8.52
   9   1  -3  115.55    8.87
   9   1  -3  122.80   10.97
   9   1  -3  112.23    7.97
   9   1  -3  120.59    7.51
   9   1  -3   93.95    9.39
   7  -1  -3  135.33    8.91
   7  -1  -3  131.14    7.41
  -7  -1   3  126.84    8.76
   7  -1  -3  136.40    8.68
   7  -1  -3  136.81    9.70
   7   1  -3  138.89    8.91
   7   1  -3  137.32    9.35
   7   1  -3  136.38    7.69
   7   1  -3  129.46    9.23
   7   1  -3  137.52    8.12
   5  -1  -3  131.32    7.86
  -5  -1   3  130.70    7.79
   5  -1  -3  136.65    6.70
   5  -1  -3  132.86    5.93
  -5  -1   3  128.43    5.99
   5  -1  -3  133.46    6.10
   5  -1  -3  124.12    8.51
   5   1  -3  117.99    6.10
   5   1  -3  125.59    8.39
   5   1  -3  127.38    5.99
   5   1  -3  130.31    8.08
  -5   1   3  139.37    6.08
  -5   1   3  115.89    8.33
   5   1  -3  127.76    6.71
   5   1  -3  125.98    8.05
  -3  -1   3  183.56   10.14
   3  -1  -3  170.67    8.01
  -3  -1   3  177.73    8.07
   3  -1  -3  168.10    9.96
  -3  -1   3  178.94    8.07
   3  -1  -3  189.77   11.02
   3  -1  -3  170.69    8.64
   3   1  -3  175.31    8.07
   3   1  -3  173.72    8.07
   3   1  -3  193.32    9.70
  -3   1   3  151.59    7.99
  -3   1   3  195.13   10.94
  -3   1   3  181.35    8.06
   3   1  -3  169.86   10.78
  -3   1   3  175.79    9.97
   1  -1   3  210.01   10.78
   1  -1   3  207.38    8.81
  -1  -1  -3  185.39    9.27
  -1  -1  -3  191.39    8.76
  -1  -1  -3  166.19   11.11
  -1  -1  -3  192.14    8.76
   1  -1   3  192.35    8.76
  -1  -1  -3  180.25   11.62
   1  -1   3  213.46   10.74
  -1   1  -3  178.66    8.77
   1   1   3  193.28   10.85
   1   1   3  192.64    8.77
  -1   1  -3  198.82    8.79
   1   1   3  197.42    8.76
  -1   1  -3  216.44   10.74
  -1   1  -3  193.65    9.23
   3  -1   3  325.20   13.14
  -3  -1  -3  287.89   13.10
   3  -1   3  284.83   16.16
   3  -1   3  292.38   13.13
   3  -1   3  248.55   16.43
   3  -1   3  312.73   13.79
  -3  -1  -3  291.65   16.06
   3  -1   3  293.46   13.89
   3  -1   3  325.59   17.28
  -3  -1  -3  286.97   14.01
  -3  -1  -3  313.86   16.84
  -3   1  -3  294.11   13.12
   3   1   3  291.18   13.72
  -3   1  -3  300.83   13.70
   3   1   3  309.78   16.10
  -3   1  -3  289.97   13.91
   3   1   3  290.23   13.09
   3   1   3  305.41   16.14
   3   1   3  275.01   13.89
   3   1   3  275.57   13.10
   3   1   3  259.88   16.72
   5  -1   3  230.57   14.78
   5  -1   3  257.94   11.79
   5  -1   3  250.91   13.89
  -5  -1  -3  247.76   11.98
   5  -1   3  243.07   13.96
   5  -1   3  243.37   13.81
  -5  -1  -3  243.77   14.28
   5   1   3  256.55   13.99
   5   1   3  233.73   14.23
   5   1   3  259.58   13.74
   5   1   3  233.52   11.62
   5   1   3  214.21   11.76
   7  -1   3  123.23    6.74
   7  -1   3  128.23    8.83
   7  -1   3  134.29    7.74
   7  -1   3  124.68    8.06
   7  -1   3  106.04    8.88
   7   1   3  127.34    6.99
   7   1   3  125.14    6.61
   7   1   3  105.81    9.22
   7   1   3  119.06    8.84
   7   1   3  118.11    8.05
   8  -2  -3  117.95    7.74
   8  -2  -3  112.74   10.37
   8  -2  -3  106.28    6.78
   8  -2  -3  105.64    8.42
   8   2  -3  110.28    8.78
   8   2  -3  107.63    6.96
   8   2  -3  120.02    8.33
   8   2  -3  107.11    8.11
   8   2  -3  120.10    9.99
   8   2  -3  107.88    7.26
  -6  -2   3   79.81    3.80
   6  -2  -3   75.77    5.40
   6  -2  -3   78.84    6.85
   6  -2  -3   64.74    4.04
   6  -2  -3   72.12    4.65
  -6  -2   3   77.20    5.50
   6  -2  -3   78.49    3.69
   6   2  -3   75.40    4.59
   6   2  -3   72.31    3.75
   6   2  -3   80.41    3.94
   6   2  -3   74.12    5.14
   6   2  -3   74.58    4.60
   6   2  -3   78.35    6.36
   6   2  -3   73.95    5.46
  -6   2   3   75.78    5.86
  -6   2   3   62.88    3.91
   6   2  -3   67.35    5.73
  -4  -2   3  185.73    8.85
  -4  -2   3  194.98   11.22
   4  -2  -3  181.58    8.82
   4  -2  -3  208.33    8.81
   4  -2  -3  193.60    9.57
   4  -2  -3  175.98   12.59
   4  -2  -3  194.27   11.03
  -4  -2   3  198.85    8.91
   4  -2  -3  211.48    9.27
   4   2  -3  188.51    8.86
   4   2  -3  218.77   11.60
  -4   2   3  176.53    8.76
  -4   2   3  206.25   12.10
   4   2  -3  187.71   11.57
   4   2  -3  183.70   11.95
   4   2  -3  185.00    9.60
  -4   2   3  190.91    8.84
   4   2  -3  191.12    8.90
   2  -2  -3  232.36   12.78
   2  -2  -3  235.88   10.50
   2  -2  -3  225.67   11.06
   2  -2  -3  239.01   10.95
   2  -2  -3  239.40   10.48
  -2  -2   3  235.21   10.52
  -2  -2   3  230.10   10.54
  -2  -2   3  237.92   13.22
   2  -2  -3  223.93   12.77
  -2   2   3  225.86   10.45
   2   2  -3  219.16   13.34
  -2   2   3  229.43   11.03
   2   2  -3  224.00   10.52
  -2   2   3  254.24   10.52
   2   2  -3  229.56   11.34
   2   2  -3  228.60   11.10
   2   2  -3  227.05   13.28
   2   2  -3  225.87   10.51
  -2   2   3  222.80   14.31
   0  -2  -3   97.93    4.62
   0  -2   3   92.98    4.76
   0  -2  -3   96.37    6.08
   0  -2  -3   92.17    4.43
   0  -2  -3   90.13    4.45
   0  -2   3   93.15    4.47
   0  -2  -3   87.03    5.69
   0  -2  -3   92.19    4.77
   0  -2   3   94.32    5.34
   0  -2   3   90.72    5.66
   0   2   3   91.59    5.97
   0   2  -3   97.13    4.51
   0   2   3   95.74    4.72
   0   2   3   94.01    4.46
   0   2  -3   96.08    4.83
   0   2   3   94.90    4.43
   0   2   3   97.51    5.67
   0   2  -3   91.84    5.67
   0   2   3   93.23    4.56
   0   2  -3   95.60    4.48
   0   2   3   89.42    5.40
   2  -2   3  294.86   12.94
   2  -2   3  312.58   13.00
   2  -2   3  260.87   15.76
  -2  -2  -3  299.79   16.56
  -2  -2  -3  277.26   12.91
  -2  -2  -3  287.69   15.79
  -2  -2  -3  279.53   13.80
  -2  -2  -3  286.89   12.98
   2  -2   3  279.64   13.69
   2   2   3  271.93   15.86
  -2   2  -3  324.12   13.46
   2   2   3  254.53   17.18
   2   2   3  287.12   12.97
  -2   2  -3  293.30   12.95
  -2   2  -3  286.99   13.71
   2   2   3  307.91   13.49
   2   2   3  280.46   12.91
   2   2   3  272.86   16.47
   2   2   3  281.33   13.71
  -2   2  -3  298.27   12.98
   4  -2   3  301.92   13.60
   4  -2   3  306.71   14.54
  -4  -2  -3  287.81   17.57
  -4  -2  -3  297.49   14.73
  -4  -2  -3  300.36   16.63
   4  -2   3  342.29   16.95
  -4  -2  -3  300.55   13.57
   4  -2   3  261.71   13.50
  -4  -2  -3  320.18   13.66
   4   2   3  293.60   14.59
   4   2   3  289.32   13.55
  -4   2  -3  309.73   13.60
   4   2   3  292.40   16.91
  -4   2  -3  307.33   14.60
   4   2   3  328.95   16.89
   4   2   3  307.16   14.39
   4   2   3  291.84   13.62
   6  -2   3  126.27    8.19
   6  -2   3  153.59    7.43
  -6  -2  -3  152.73    7.88
   6  -2   3  142.95    8.86
  -6  -2  -3  134.87    9.02
   6  -2   3  146.09    8.72
   6  -2   3  159.33    9.57
   6   2   3  132.50    6.44
   6   2   3  120.50    8.85
   6   2   3  145.62    7.55
   6   2   3  134.17    7.05
   6   2   3  145.32    8.56
   6   2   3  134.34    7.80
   6   2   3  116.30    9.22
   8  -2   3   83.25    8.28
   8  -2   3   79.49    5.70
   8  -2   3   80.39    7.01
   8  -2   3   91.27    8.15
   8   2   3   75.35    7.83
   8   2   3   70.19    6.69
   8   2   3   80.70    9.42
   8   2   3   83.88    5.46
  -7  -3   3  106.33    5.09
   7  -3  -3   94.85    5.21
   7  -3  -3   95.45    7.20
  -7  -3   3   88.93    7.50
   7  -3  -3  104.87    6.19
   7  -3  -3   80.28    9.46
   7  -3  -3  106.01    4.97
  -7   3   3   92.75    7.71
   7   3  -3  105.20    7.47
   7   3  -3   99.73    7.42
   7   3  -3   95.50    5.18
   7   3  -3  100.65    7.82
   7   3  -3  106.56    8.54
   7   3  -3  102.05    9.27
   7   3  -3  101.97    5.09
   5  -3  -3  243.76   10.93
   5  -3  -3  241.25   13.77
  -5  -3   3  236.30   13.94
  -5  -3   3  224.82   11.01
   5  -3  -3  237.20   11.92
  -5  -3   3  240.04   11.09
   5  -3  -3  246.63   11.02
   5   3  -3  244.74   11.07
  -5   3   3  241.11   14.94
   5   3  -3  241.41   14.49
  -5   3   3  236.18   11.95
   5   3  -3  223.59   12.62
   5   3  -3  240.78   11.07
  -5   3   3  240.33   10.91
   5   3  -3  264.46   14.86
   5   3  -3  227.45   12.17
  -3  -3   3   86.91    4.36
  -3  -3   3   82.87    5.93
  -3  -3   3   87.15    4.35
   3  -3  -3   89.38    4.30
   3  -3  -3   85.25    4.64
   3  -3  -3   97.87    4.27
   3  -3  -3   89.29    5.32
   3  -3  -3   68.72    6.28
   3  -3  -3   87.23    4.46
   3   3  -3   85.79    4.36
  -3   3   3   84.99    6.46
  -3   3   3   88.11    4.68
   3   3  -3   85.03    4.33
   3   3  -3   81.66    4.91
   3   3  -3   83.33    5.64
  -3   3   3   90.20    4.31
   3   3  -3   82.90    5.10
  -3   3   3   83.17    4.19
  -3   3   3   81.42    4.57
   3   3  -3   87.38    6.21
  -1  -3   3  179.40    9.07
  -1  -3   3  183.26    8.54
   1  -3  -3  180.79   10.25
   1  -3  -3  177.98    8.93
   1  -3  -3  182.90    8.92
  -1  -3   3  169.00   10.61
  -1  -3   3  180.33    9.98
   1  -3  -3  188.56   10.79
  -1  -3   3  191.04   10.80
   1  -3  -3  188.67    8.51
   1  -3  -3  187.87   11.43
   1  -3  -3  180.61    8.44
  -1  -3   3  171.48    8.47
  -1   3   3  177.38    8.48
  -1   3   3  180.50    8.83
   1   3  -3  183.39    9.14
   1   3  -3  185.61    8.51
  -1   3   3  194.86   11.43
   1   3  -3  177.63   10.66
  -1   3   3  174.72    8.42
  -1   3   3  191.52    8.85
   1   3  -3  187.19    8.55
   1   3  -3  184.01    8.99
   1  -3   3  385.91   18.10
  -1  -3  -3  401.37   18.11
   1  -3   3  378.22   19.06
  -1  -3  -3  397.91   21.93
  -1  -3  -3  389.51   23.98
   1  -3   3  422.69   22.53
  -1  -3  -3  428.27   21.84
  -1  -3  -3  405.52   18.06
  -1  -3  -3  350.15   18.93
   1  -3   3  385.27   18.06
  -1  -3  -3  423.93   22.95
  -1  -3  -3  396.49   19.11
   1  -3   3  432.89   21.87
  -1   3  -3  408.83   18.13
   1   3   3  431.87   23.99
   1   3   3  395.53   22.88
   1   3   3  412.83   18.11
   1   3   3  402.22   18.85
   1   3   3  410.35   21.80
  -1   3  -3  354.97   19.06
  -1   3  -3  404.29   18.82
   1   3   3  385.51   18.02
  -1   3  -3  406.61   18.08
   1   3   3  413.55   19.02
  -3  -3  -3  105.41    5.17
  -3  -3  -3  104.99    5.97
   3  -3   3  103.55    6.35
  -3  -3  -3  106.45    5.04
  -3  -3  -3  105.84    5.92
   3  -3   3  101.82    5.55
   3  -3   3  101.57    6.37
   3  -3   3  102.52    5.10
  -3  -3  -3  111.75    6.25
   3  -3   3   90.38    4.98
  -3  -3  -3  104.53    6.79
   3   3   3  104.64    5.30
   3   3   3  104.11    6.40
   3   3   3  102.62    7.09
  -3   3  -3  108.10    5.68
  -3   3  -3   99.42    5.08
   3   3   3  107.85    5.85
   3   3   3  100.46    6.71
   3   3   3  106.12    5.15
   3   3   3  104.71    5.02
   3   3   3  106.36    6.18
  -3   3  -3  110.06    5.06
  -5  -3  -3  145.78    8.79
  -5  -3  -3  150.57    9.81
   5  -3   3  151.29    7.09
  -5  -3  -3  161.82    7.19
   5  -3   3  162.63    8.06
   5  -3   3  164.99    7.21
   5  -3   3  144.16    9.45
  -5  -3  -3  158.20    8.53
   5  -3   3  147.69    9.29
   5   3   3  152.26    7.81
   5   3   3  159.70    8.53
   5   3   3  146.85    9.52
  -5   3  -3  155.99    7.17
   5   3   3  148.78    7.13
   5   3   3  153.92    7.31
   5   3   3  156.84    9.51
  -5   3  -3  155.24    8.32
   5   3   3  145.93   10.41
   5   3   3  140.56    9.66
   7  -3   3  153.64    8.07
   7  -3   3  125.57    9.28
   7  -3   3  143.58    9.75
   7  -3   3  136.04    9.62
  -7  -3  -3  144.77    8.65
   7   3   3  141.72    9.78
   7   3   3  161.45    9.85
   7   3   3  133.62    9.11
   7   3   3  140.49    7.50
   7   3   3  126.72    8.05
   7   3   3  147.97   10.47
   8  -4  -3   77.17    5.86
   8  -4  -3   69.71    7.08
   8  -4  -3   76.88    4.19
   8  -4  -3   65.85    9.34
   8   4  -3   79.61    7.33
   8   4  -3   52.20    9.26
   8   4  -3   64.80    7.69
   6  -4  -3   94.13    5.06
   6  -4  -3   99.90    4.89
   6  -4  -3  101.47    6.88
  -6  -4   3   99.26    5.22
   6  -4  -3   93.55    5.99
  -6  -4   3   96.95    7.42
   6  -4  -3   89.62    8.49
   6   4  -3  101.35    7.41
   6   4  -3  100.94    5.31
   6   4  -3  100.34    7.28
  -6   4   3   98.93    4.87
  -6   4   3   99.80    7.62
   6   4  -3   95.40    7.25
   6   4  -3   97.03    5.19
   6   4  -3   80.90    8.86
  -4  -4   3  208.15    9.65
   4  -4  -3  211.17    9.91
  -4  -4   3  209.42    9.65
  -4  -4   3  209.82   12.40
   4  -4  -3  203.95   11.78
   4  -4  -3  194.49   13.26
   4  -4  -3  197.82   12.31
   4  -4  -3  200.98    9.46
   4  -4  -3  202.13   10.26
   4  -4  -3  202.45    9.56
   4   4  -3  202.37    9.61
   4   4  -3  199.63   12.42
   4   4  -3  198.12    9.60
  -4   4   3  187.47   10.13
  -4   4   3  203.38    9.44
  -4   4   3  215.93   13.38
   4   4  -3  201.25   10.67
   4   4  -3  182.39   12.72
   4   4  -3  195.95   10.68
  -4   4   3  224.38    9.62
  -2  -4   3  264.86   15.44
  -2  -4   3  256.84   12.90
   2  -4  -3  267.83   12.61
  -2  -4   3  253.89   15.18
  -2  -4   3  251.87   12.05
   2  -4  -3  267.01   12.03
  -2  -4   3  248.07   12.01
   2  -4  -3  268.83   16.12
   2  -4  -3  235.61   14.50
   2  -4  -3  269.67   15.20
   2  -4  -3  255.51   12.68
   2  -4  -3  266.82   11.97
  -2   4   3  250.58   12.59
  -2   4   3  279.39   12.45
   2   4  -3  250.83   12.01
  -2   4   3  266.23   16.39
  -2   4   3  263.39   11.94
   2   4  -3  263.25   12.94
   2   4  -3  261.99   12.08
   2   4  -3  244.03   15.07
   2   4  -3  251.61   12.83
  -2   4   3  267.92   12.04
   2   4  -3  259.51   15.23
   0  -4  -3  168.35    9.14
   0  -4  -3  164.72    9.30
   0  -4  -3  156.28    8.19
   0  -4  -3  155.20    7.56
   0  -4  -3  152.71   10.19
   0  -4  -3  165.24    8.08
   0  -4   3  157.40    9.39
   0  -4   3  162.30    8.99
   0  -4   3  152.52    7.61
   0  -4   3  150.14    9.63
   0  -4  -3  174.19    9.75
   0  -4  -3  150.34    7.62
   0  -4   3  173.33    8.22
   0  -4   3  158.68    7.67
   0   4   3  163.35    9.62
   0   4   3  156.28    7.56
   0   4  -3  165.22    8.24
   0   4  -3  165.04    8.13
   0   4   3  165.83   10.22
   0   4   3  139.01    7.83
   0   4   3  157.51    7.64
   0   4   3  160.31    8.10
   0   4  -3  163.29    7.69
   0   4  -3  149.02    7.60
   0   4  -3  153.93    9.52
  -2  -4  -3  170.38    9.57
   2  -4   3  174.22    7.90
   2  -4   3  164.14    9.78
   2  -4   3  169.99    7.81
  -2  -4  -3  174.20    9.45
   2  -4   3  154.85    9.48
   2  -4   3  164.31    8.41
  -2  -4  -3  151.97    8.33
   2  -4   3  170.33    9.41
  -2  -4  -3  151.43   10.04
  -2  -4  -3  168.68    7.92
  -2  -4  -3  161.82    7.79
  -2  -4  -3  159.98    8.63
   2   4   3  162.01    8.54
   2   4   3  157.62    8.08
  -2   4  -3  183.35    8.50
   2   4   3  152.63    9.21
  -2   4  -3  160.99    7.81
   2   4   3  162.57    9.25
   2   4   3  163.75   10.01
   2   4   3  160.54    7.77
  -2   4  -3  173.79    8.14
  -2   4  -3  153.29    7.81
   2   4   3  163.28    7.86
   2   4   3  160.29   10.60
  -4  -4  -3  144.18    8.07
  -4  -4  -3  144.28    8.18
   4  -4   3  142.45    6.78
  -4  -4  -3  142.96    9.24
   4  -4   3  147.36    8.73
   4  -4   3  144.54    6.88
   4  -4   3  115.15    8.61
  -4  -4  -3  148.90    6.83
   4  -4   3  149.98    7.60
   4   4   3  146.24    8.31
   4   4   3  147.51    8.16
   4   4   3  116.88    7.20
   4   4   3  136.41    6.94
  -4   4  -3  145.27    7.73
   4   4   3  146.23    9.82
   4   4   3  144.88    8.43
  -4   4  -3  134.18    6.84
   4   4   3  145.77    6.79
   6  -4   3   67.13    3.88
  -6  -4  -3   70.37    5.96
   6  -4   3   72.75    5.85
   6  -4   3   68.17    5.07
   6  -4   3   73.89    5.21
   6  -4   3   64.97    3.73
  -6  -4  -3   70.12    3.98
   6   4   3   70.04    5.04
  -6   4  -3   69.65    3.83
   6   4   3   78.74    3.96
   6   4   3   78.70    6.29
   6   4   3   71.55    4.34
   6   4   3   65.65    6.05
  -7  -5   3   88.20    5.25
   7  -5  -3   81.00    7.18
   7  -5  -3   78.75    6.27
   7  -5  -3   86.97    8.49
   7  -5  -3   87.60    7.20
   7   5  -3   73.70   10.75
  -7   5   3   91.74    4.73
   7   5  -3   97.59    7.88
   5  -5  -3   89.96    4.63
   5  -5  -3   79.77    5.43
  -5  -5   3   81.27    7.40
  -5  -5   3   85.22    4.93
   5  -5  -3   84.35    6.20
   5  -5  -3   81.66    4.80
   5  -5  -3   88.86    6.27
   5  -5  -3   84.24    4.80
   5  -5  -3   81.87    7.14
   5   5  -3   84.54    8.19
   5   5  -3   85.59    6.91
  -5   5   3   97.22    7.81
   5   5  -3   84.35    4.93
   5   5  -3   95.13    5.10
   5   5  -3   89.89    6.65
  -5   5   3   82.66    4.54
  -3  -5   3  231.61   14.63
   3  -5  -3  250.00   14.13
  -3  -5   3  238.22   11.25
  -3  -5   3  238.47   11.28
   3  -5  -3  229.78   11.19
   3  -5  -3  254.18   11.15
   3  -5  -3  217.60   11.85
   3  -5  -3  246.41   11.71
  -3  -5   3  223.56   14.20
   3  -5  -3  240.62   15.05
  -3   5   3  235.13   11.20
  -3   5   3  256.04   11.53
   3   5  -3  234.51   14.26
   3   5  -3  232.88   12.30
  -3   5   3  227.25   11.04
   3   5  -3  237.04   11.25
  -3   5   3  218.50   15.87
  -3   5   3  234.19   11.80
   3   5  -3  245.63   14.40
   3   5  -3  239.53   12.26
   3   5  -3  228.50   11.20
   1  -5  -3  250.65   14.19
   1  -5  -3  260.13   12.58
   1  -5  -3  240.03   11.74
   1  -5  -3  253.31   12.54
  -1  -5   3  248.78   11.87
   1  -5  -3  259.76   15.79
   1  -5  -3  280.56   14.58
  -1  -5   3  249.95   13.84
   1  -5  -3  250.35   14.91
   1  -5  -3  245.83   11.86
  -1  -5   3  241.10   12.60
  -1  -5   3  245.65   14.78
  -1  -5   3  240.34   11.82
  -1  -5   3  270.70   15.22
   1   5  -3  239.10   11.81
  -1   5   3  248.93   12.30
   1   5  -3  253.88   12.69
  -1   5   3  250.24   14.87
   1   5  -3  243.50   11.85
   1   5  -3  252.97   15.55
   1   5  -3  250.78   14.80
   1   5  -3  248.84   12.68
  -1   5   3  249.37   11.84
  -1   5   3  241.71   11.73
   1   5  -3  255.97   14.70
  -1   5   3  262.22   15.90
  -1   5   3  258.96   12.39
  -1  -5  -3  111.52    5.77
   1  -5   3  103.97    7.37
  -1  -5  -3  115.71    6.71
  -1  -5  -3  110.42    5.61
  -1  -5  -3  104.27    7.15
  -1  -5  -3  111.02    7.39
   1  -5   3  122.04    6.76
   1  -5   3  104.38    6.63
   1  -5   3  107.99    5.71
   1  -5   3  103.78    5.61
  -1  -5  -3  111.54    6.39
  -1  -5  -3  115.22    6.27
   1   5   3  106.90    5.57
  -1   5  -3  116.44    7.53
   1   5   3  105.80    6.34
   1   5   3  107.58    5.70
  -1   5  -3   99.76    5.64
  -1   5  -3  112.84    5.67
   1   5   3  109.99    5.83
  -1   5  -3  121.47    6.35
   1   5   3  110.06    7.74
  -1   5  -3  114.93    6.17
   1   5   3  105.56    7.09
  -1   5  -3   90.56    6.67
   3  -5   3  174.64    9.37
  -3  -5  -3  177.04    8.67
  -3  -5  -3  179.18    9.45
   3  -5   3  181.41   11.15
  -3  -5  -3  186.65    8.84
   3  -5   3  187.70    8.73
  -3  -5  -3  169.38   10.40
   3  -5   3  161.17   10.57
  -3  -5  -3  185.16    9.82
  -3  -5  -3  175.42   11.34
   3  -5   3  168.92    8.60
   3   5   3  177.20   10.17
   3   5   3  177.94   10.27
  -3   5  -3  175.24    8.66
   3   5   3  186.01    9.93
   3   5   3  184.49    9.11
  -3   5  -3  194.18    9.60
  -3   5  -3  182.40    8.71
   3   5   3  182.51    8.66
   3   5   3  170.86    8.77
   3   5   3  182.32   12.06
   3   5   3  174.88   11.19
   5  -5   3   74.70    5.92
   5  -5   3   73.21    4.26
   5  -5   3   75.45    5.27
   5  -5   3   78.95    4.35
  -5  -5  -3   75.90    4.35
   5  -5   3   70.00    5.20
  -5  -5  -3   76.08    6.18
  -5   5  -3   77.77    4.30
   5   5   3   66.13    5.55
   5   5   3   69.38    4.99
   5   5   3   75.58    5.21
   5   5   3   76.98    6.23
   5   5   3   74.02    4.27
   7  -5   3   37.71    5.05
   7  -5   3   31.12    4.95
   7  -5   3   28.35    4.09
  -7  -5  -3   28.09    5.01
   7   5   3   38.67    5.38
   6  -6  -3  138.15    8.46
   6  -6  -3  136.63    7.27
  -6  -6   3  136.98    7.61
   6  -6  -3  134.31    9.34
   6  -6  -3  141.77    9.68
   6  -6  -3  145.48   10.62
   6   6  -3  139.15   12.08
   6   6  -3  142.59   10.20
  -6   6   3  143.53    7.14
   6   6  -3  143.61    7.60
   4  -6  -3  168.28    8.56
  -4  -6   3  162.63    8.35
   4  -6  -3  162.41   11.18
   4  -6  -3  159.70    9.02
   4  -6  -3  154.38   10.19
  -4  -6   3  170.24    8.51
   4  -6  -3  174.43    8.17
  -4  -6   3  149.03   11.83
   4   6  -3  163.47   10.66
   4   6  -3  167.12    8.35
  -4   6   3  151.63   12.94
   4   6  -3  156.07   11.30
  -4   6   3  165.95    8.05
  -2  -6   3  149.21    7.60
   2  -6  -3  150.85    8.08
   2  -6  -3  147.55    9.59
   2  -6  -3  137.99    9.35
   2  -6  -3  152.49    9.15
  -2  -6   3  141.29    8.38
  -2  -6   3  142.54    9.41
   2  -6  -3  159.65    7.45
   2  -6  -3  146.78    7.59
  -2  -6   3  147.21   11.12
   2  -6  -3  136.44   10.05
   2  -6  -3  156.46    8.28
  -2  -6   3  141.38    7.60
  -2   6   3  152.15    7.63
   2   6  -3  151.59    8.82
  -2   6   3  149.37   10.96
   2   6  -3  136.76    7.56
  -2   6   3  154.09    7.88
   2   6  -3  151.93    8.58
  -2   6   3  153.07    7.95
   2   6  -3  149.51    9.72
   2   6  -3  145.88    7.59
   2   6  -3  143.44    9.43
  -2   6   3  143.16    7.37
   2   6  -3  146.29   10.21
   0  -6  -3  212.91   11.36
   0  -6  -3  207.71   14.06
   0  -6   3  214.39   13.00
   0  -6   3  220.91   10.62
   0  -6  -3  220.01   11.42
   0  -6  -3  217.69   12.58
   0  -6  -3  209.81   13.31
   0  -6  -3  222.50   10.53
   0  -6   3  210.64   11.31
   0  -6   3  217.31   10.61
   0  -6  -3  211.52   13.32
   0  -6   3  218.29   12.36
   0  -6   3  205.28   13.64
   0  -6  -3  220.25   10.68
   0   6   3  229.12   13.28
   0   6  -3  219.32   10.62
   0   6  -3  229.54   11.49
   0   6  -3  226.21   13.06
   0   6   3  215.07   14.22
   0   6   3  212.69   10.64
   0   6  -3  231.06   11.50
   0   6   3  213.51   11.32
   0   6  -3  218.09   13.99
   0   6  -3  224.49   10.65
   0   6   3  217.15   10.47
   0   6   3  222.73   11.05
   2  -6   3   97.02    5.95
   2  -6   3   91.69    5.34
  -2  -6  -3  100.24    7.53
  -2  -6  -3   96.54    7.14
  -2  -6  -3   99.73    5.39
   2  -6   3  104.69    6.16
  -2  -6  -3   92.85    6.31
   2  -6   3   95.79    5.36
  -2  -6  -3   96.29    6.39
  -2  -6  -3   96.81    5.56
   2  -6   3   98.16    6.44
   2  -6   3   87.55    7.44
   2   6   3   96.45    6.82
  -2   6  -3   92.63    5.44
   2   6   3   97.37    5.30
   2   6   3   89.01    5.48
   2   6   3   91.20    6.82
   2   6   3   97.73    5.77
   2   6   3   96.44    7.78
  -2   6  -3  101.53    6.27
  -2   6  -3   99.77    5.40
  -2   6  -3   85.32    5.89
  -4  -6  -3   30.53    4.14
  -4  -6  -3   38.42    3.41
   4  -6   3   31.66    3.99
   4  -6   3   33.40    3.12
   4  -6   3   34.35    4.35
   4   6   3   38.42    4.11
   4   6   3   39.64    4.49
   4   6   3   35.80    3.22
   4   6   3   38.90    3.97
  -4   6  -3   38.62    3.13
  -6  -6  -3   54.98    6.03
  -6  -6  -3   55.45    4.24
   6  -6   3   52.13    5.91
   6  -6   3   63.73    6.50
  -6   6  -3   51.24    3.92
   6   6   3   51.90    6.68
   5  -7  -3   93.86    5.69
   5  -7  -3   90.20    7.91
   5  -7  -3   77.85    6.79
  -5  -7   3   89.04    6.08
   5  -7  -3   81.31    6.62
   5  -7  -3   92.60    5.49
   5   7  -3   91.08    9.49
   5   7  -3   87.97    7.90
  -5   7   3   98.17    5.30
   5   7  -3   82.34    5.89
   3  -7  -3  142.16    7.89
  -3  -7   3  138.24    7.58
   3  -7  -3  148.03    8.32
   3  -7  -3  140.69    7.32
   3  -7  -3  144.25   10.05
  -3  -7   3  143.54    9.19
  -3  -7   3  126.04    7.65
   3  -7  -3  120.33    9.12
  -3   7   3  131.15    7.56
   3   7  -3  140.73    9.53
   3   7  -3  134.25    9.93
   3   7  -3  137.84    7.56
  -3   7   3  137.98    7.18
   1  -7  -3  175.98   11.83
  -1  -7   3  174.80    9.78
  -1  -7   3  172.23    8.92
   1  -7  -3  178.88   10.65
   1  -7  -3  154.09   10.99
  -1  -7   3  179.59   11.00
   1  -7  -3  177.17    9.64
   1  -7  -3  173.19    8.75
   1  -7  -3  177.76    9.83
   1  -7  -3  175.05   11.86
  -1  -7   3  168.78    8.97
   1   7  -3  157.92    8.90
  -1   7   3  174.18    9.66
  -1   7   3  167.49    8.98
   1   7  -3  162.73   12.17
   1   7  -3  169.46   10.55
  -1   7   3  176.70    9.61
   1   7  -3  172.88    8.90
  -1   7   3  174.51   11.04
   1   7  -3  175.93   10.95
  -1   7   3  175.19    8.70
   1  -7   3  112.76    6.16
  -1  -7  -3  111.74    6.40
  -1  -7  -3  102.51    7.24
   1  -7   3  104.70    7.04
  -1  -7  -3  108.53    9.45
   1  -7   3   96.88    6.73
   1  -7   3  107.82    7.00
  -1  -7  -3  106.31    6.04
  -1  -7  -3  108.09    7.19
   1   7   3  114.36    7.71
  -1   7  -3  101.99    6.10
  -1   7  -3  102.77    6.25
  -1   7  -3  104.21    7.36
  -1   7  -3   91.81    8.64
   1   7   3  108.17    6.02
   1   7   3  110.73    6.55
  -3  -7  -3   75.65    6.75
  -3  -7  -3   77.47    5.92
  -3  -7  -3   83.82    5.29
   3  -7   3   73.74    6.29
   3  -7   3   78.04    5.12
   3  -7   3   90.37    5.60
   3  -7   3   74.18    5.95
  -3  -7  -3   83.61    6.84
   3   7   3   84.71    6.72
  -3   7  -3   80.93    5.07
   3   7   3   85.29    5.25
   3   7   3   78.37    6.10
   5  -7   3   43.52    5.82
   5  -7   3   46.57    6.05
  -5  -7  -3   50.19    5.91
  -5  -7  -3   47.24    4.75
  -5   7  -3   42.68    4.15
   5   7   3   46.14    6.58
   4  -8  -3   74.59    6.98
   4  -8  -3   85.34    6.26
   4  -8  -3   82.89    7.93
   4  -8  -3   85.71    5.76
   4   8  -3   88.28    6.25
   4   8  -3   79.06    8.93
   4   8  -3   87.16    8.15
  -2  -8   3  185.61    9.88
   2  -8  -3  179.02   10.44
   2  -8  -3  178.26   12.91
   2  -8  -3  180.62   11.00
  -2  -8   3  184.74   11.11
   2  -8  -3  190.80    9.60
   2   8  -3  181.10    9.79
   2   8  -3  184.64   12.16
  -2   8   3  188.74    9.49
   0  -8  -3   69.99    4.83
   0  -8  -3   51.81    7.74
   0  -8   3   69.24    5.13
   0  -8  -3   64.83    6.59
   0  -8   3   67.46    6.08
   0  -8   3   64.17    5.68
   0  -8  -3   60.67    6.16
   0   8   3   62.24    5.92
   0   8   3   70.54    4.79
   0   8  -3   63.16    4.95
   2  -8   3   56.19    6.08
  -2  -8  -3   61.37    6.70
  -2  -8  -3   65.34    7.34
   2  -8   3   55.60    5.52
   2  -8   3   61.30    4.85
  -2  -8  -3   61.74    4.99
  -2   8  -3   56.39    4.60
  -2   8  -3   47.40    5.17
   2   8   3   56.13    4.79
   2   8   3   55.29    5.98
   8   0  -4   18.74    3.91
   8   0  -4   15.76    3.18
   8   0  -4   17.84    3.14
   8   0  -4   20.11    2.99
   8   0  -4   18.44    2.77
   8   0  -4   20.89    4.14
  -6   0   4  134.84    8.31
   6   0  -4  128.06    8.49
   6   0  -4  119.88    6.12
  -6   0   4  140.27    6.21
   6   0  -4  136.69    6.22
   6   0  -4  140.02    7.03
   6   0  -4  138.42    7.98
   6   0  -4  135.43    7.29
   6   0  -4  125.25    8.95
   4   0  -4  173.18    7.69
   4   0  -4  165.36    9.36
  -4   0   4  166.12    9.61
   4   0  -4  140.79    7.65
   4   0  -4  170.97   10.40
  -4   0   4  175.45   10.48
  -4   0   4  169.52    7.70
  -4   0   4  179.77    7.73
   4   0  -4  154.77    9.67
  -2   0   4  190.04   10.64
   2   0  -4  191.47   11.67
   2   0  -4  179.89   10.63
   2   0  -4  188.41    8.91
  -2   0   4  189.99    8.93
  -2   0   4  219.62   10.92
   0   0  -4  859.79   38.78
   0   0   4  829.68   37.12
   0   0   4  894.82   44.97
   0   0  -4  833.47   48.74
   0   0  -4  779.61   44.89
   0   0  -4  827.79   37.12
   0   0  -4  821.60   37.11
  -2   0  -4  764.76   37.96
   2   0   4  592.71   39.51
   2   0   4  710.45   31.48
   2   0   4  715.10   36.59
   2   0   4  594.26   37.87
  -2   0  -4  703.63   31.51
  -2   0  -4  733.42   36.61
  -2   0  -4  591.32   30.11
  -2   0  -4  700.71   30.17
   4   0   4  174.65    8.01
   4   0   4  167.69    9.54
  -4   0  -4  171.44    7.48
   4   0   4  170.57    9.42
  -4   0  -4  150.43    9.55
   4   0   4  149.70    7.42
   4   0   4  157.84    7.90
  -4   0  -4  167.38    9.63
   4   0   4  169.86    9.63
  -4   0  -4  156.09    8.15
   4   0   4  165.63    7.50
   6   0   4  106.21    5.74
   6   0   4  101.81    7.47
   6   0   4  113.31    7.02
   6   0   4   99.40    6.83
   6   0   4  110.79    7.46
   6   0   4  108.33    5.67
   8   0   4   52.91    5.69
   8   0   4   48.61    6.42
   8   0   4   48.82    4.29
   8   0   4   48.62    5.11
   8   0   4   46.27    6.61
   9  -1  -4   75.23    6.30
   9  -1  -4   81.52    6.43
   9  -1  -4   68.00    8.20
   9  -1  -4   73.50    8.76
   9   1  -4   68.65    6.25
   9   1  -4   52.65    7.55
   9   1  -4   82.88    6.87
   9   1  -4   75.58    9.10
   9   1  -4   75.32    6.06
   7  -1  -4   73.86    3.56
  -7  -1   4   75.45    5.87
   7  -1  -4   84.85    4.91
   7  -1  -4   71.75    3.58
   7  -1  -4   70.45    5.93
  -7  -1   4   71.41    3.65
   7  -1  -4   71.52    6.48
   7  -1  -4   60.99    4.50
   7   1  -4   78.21    5.67
   7   1  -4   75.61    5.95
   7   1  -4   69.21    5.27
   7   1  -4   71.47    6.27
   7   1  -4   68.07    3.65
   7   1  -4   69.23    5.09
   7   1  -4   73.39    3.58
   5  -1  -4   20.64    2.60
  -5  -1   4   23.36    2.07
   5  -1  -4   24.45    3.10
   5  -1  -4   22.88    2.28
  -5  -1   4   22.37    1.62
   5  -1  -4   18.10    1.85
  -5  -1   4   21.54    2.71
   5  -1  -4   25.03    2.43
   5  -1  -4   22.72    1.41
   5  -1  -4   20.78    2.43
  -5   1   4   22.35    3.08
   5   1  -4   21.23    2.91
   5   1  -4   21.39    2.44
  -5   1   4   21.73    1.89
   5   1  -4   19.71    2.27
   5   1  -4   19.65    1.82
   5   1  -4   21.29    1.59
  -5   1   4   21.03    1.45
  -5   1   4   24.22    2.55
   5   1  -4   20.52    2.01
   5   1  -4   22.42    2.65
   3  -1  -4  219.25   11.86
   3  -1  -4  237.97   11.86
   3  -1  -4  246.45   13.74
  -3  -1   4  240.96   11.16
   3  -1  -4  266.25   15.13
  -3  -1   4  240.98   13.88
   3  -1  -4  249.39   11.12
   3  -1  -4  252.35   11.22
  -3  -1   4  242.58   11.17
   3  -1  -4  231.18   13.56
   3   1  -4  240.83   11.16
  -3   1   4  244.65   11.20
  -3   1   4  257.47   11.14
   3   1  -4  238.28   11.18
   3   1  -4  236.64   14.80
  -3   1   4  247.48   13.70
  -3   1   4  261.54   15.07
   3   1  -4  263.76   13.42
   3   1  -4  252.69   13.96
   1  -1  -4  684.82   38.59
  -1  -1   4  627.36   35.17
   1  -1  -4  660.89   30.49
  -1  -1   4  704.01   35.69
  -1  -1   4  624.62   29.09
   1  -1  -4  589.46   30.42
  -1  -1   4  623.98   29.04
   1  -1  -4  682.72   29.09
   1   1  -4  673.92   35.68
   1   1  -4  652.34   38.15
   1   1  -4  634.38   29.06
  -1   1   4  736.60   35.23
  -1   1   4  645.32   29.03
  -1   1   4  655.57   35.30
  -1   1   4  682.57   29.09
  -1   1   4  605.39   30.46
  -1   1   4  633.30   38.55
   1  -1   4  267.71   11.19
  -1  -1  -4  243.87   11.76
  -1  -1  -4  264.34   13.76
   1  -1   4  259.35   11.67
   1  -1   4  247.09   13.63
  -1  -1  -4  245.08   11.14
   1  -1   4  241.63   13.55
  -1  -1  -4  225.81   14.09
  -1  -1  -4  247.98   11.11
   1  -1   4  247.11   11.12
  -1   1  -4  246.87   11.14
   1   1   4  240.47   13.74
   1   1   4  233.10   14.03
   1   1   4  239.19   11.09
  -1   1  -4  236.03   13.55
   1   1   4  247.42   11.14
   1   1   4  243.69   14.67
  -1   1  -4  226.92   11.73
  -1   1  -4  256.94   11.17
   1   1   4  263.54   11.71
   3  -1   4  387.07   20.86
  -3  -1  -4  366.44   18.01
  -3  -1  -4  393.92   20.80
  -3  -1  -4  385.27   17.03
   3  -1   4  407.31   17.84
  -3  -1  -4  358.78   21.61
   3  -1   4  376.08   17.06
  -3  -1  -4  367.70   16.96
   3  -1   4  376.26   16.98
  -3   1  -4  318.90   17.87
   3   1   4  372.13   16.99
   3   1   4  388.84   17.67
   3   1   4  385.44   20.85
   3   1   4  331.44   22.47
   3   1   4  383.56   16.97
   3   1   4  407.51   17.93
  -3   1  -4  404.81   20.91
  -3   1  -4  368.92   17.75
   3   1   4  395.34   21.60
   3   1   4  404.46   20.69
  -3   1  -4  371.65   17.07
  -3   1  -4  397.55   17.00
   5  -1   4  174.23    9.83
   5  -1   4  144.57   10.21
   5  -1   4  170.05    9.79
   5  -1   4  144.52    9.54
  -5  -1  -4  176.82   10.07
   5  -1   4  173.32    7.46
  -5  -1  -4  161.00    7.51
  -5  -1  -4  176.21    8.63
   5  -1   4  145.03    8.14
   5   1   4  156.89    7.56
   5   1   4  160.91    9.74
   5   1   4  166.62    9.87
   5   1   4  167.82    7.50
   5   1   4  170.36    8.35
   5   1   4  181.88   10.05
   5   1   4  162.19    7.99
   7  -1   4   56.05    6.15
   7  -1   4   69.86    4.63
   7  -1   4   68.57    5.76
   7  -1   4   74.17    6.71
   7  -1   4   75.56    5.01
   7   1   4   70.20    5.85
   7   1   4   69.26    4.33
   7   1   4   52.82    7.09
   7   1   4   61.67    6.35
   7   1   4   66.51    5.17
   7   1   4   81.93    5.75
   8  -2  -4   72.87    5.63
   8  -2  -4   76.02    8.86
   8  -2  -4   75.43    6.87
   8   2  -4   71.75    6.91
   8   2  -4   80.93    7.30
   8   2  -4   80.07    5.58
   8   2  -4   79.72    5.35
   8   2  -4   74.36    3.85
   8   2  -4   75.44    8.49
   8   2  -4   77.87    6.51
  -6  -2   4   80.30    5.98
   6  -2  -4   76.04    4.92
   6  -2  -4   81.54    7.15
   6  -2  -4   80.54    5.80
   6  -2  -4   76.48    4.05
  -6  -2   4   86.18    4.21
   6  -2  -4   77.90    4.51
   6   2  -4   83.78    4.93
   6   2  -4   77.58    4.16
   6   2  -4   90.24    4.38
   6   2  -4   81.40    6.66
  -6   2   4   76.63    6.39
  -6   2   4   77.53    4.37
   6   2  -4   83.88    5.50
   6   2  -4   76.80    5.81
   6   2  -4   81.85    6.21
  -4  -2   4  130.96    6.15
   4  -2  -4  132.03    6.13
   4  -2  -4  133.74    7.75
   4  -2  -4  126.01    6.07
  -4  -2   4  137.40    8.10
   4  -2  -4  133.59    7.77
   4  -2  -4  130.11    6.73
  -4  -2   4  129.87    6.22
   4  -2  -4  109.42    9.02
   4   2  -4  129.87    6.19
   4   2  -4  130.16    6.20
   4   2  -4  125.72    8.08
   4   2  -4  126.07    6.81
   4   2  -4  126.19    7.20
  -4   2   4  125.25    6.13
   4   2  -4  131.09    8.41
   4   2  -4  131.79    8.31
  -4   2   4  149.42    8.83
  -4   2   4  127.15    6.07
   2  -2  -4  403.23   18.80
  -2  -2   4  409.43   21.43
   2  -2  -4  410.23   17.83
  -2  -2   4  396.59   22.19
   2  -2  -4  396.77   17.84
  -2  -2   4  380.56   17.84
   2  -2  -4  388.76   21.66
   2  -2  -4  410.37   21.72
  -2  -2   4  386.72   17.89
   2  -2  -4  357.89   23.95
   2  -2  -4  421.54   18.71
  -2   2   4  449.82   18.79
  -2   2   4  395.98   17.85
  -2   2   4  412.90   18.78
   2   2  -4  394.76   17.87
  -2   2   4  401.02   17.82
   2   2  -4  349.68   22.14
   2   2  -4  381.98   22.60
   2   2  -4  395.58   23.51
   2   2  -4  393.05   19.08
   2   2  -4  393.86   17.89
   2   2  -4  407.46   21.44
   0  -2  -4  265.89   12.16
   0  -2   4  282.25   14.71
   0  -2  -4  259.16   12.83
   0  -2  -4  284.56   12.70
   0  -2   4  271.56   12.86
   0  -2  -4  272.21   14.81
   0  -2   4  273.94   12.24
   0  -2  -4  276.52   16.29
   0  -2  -4  253.50   12.16
   0  -2   4  272.81   12.20
   0  -2   4  267.30   15.09
   0  -2  -4  251.09   15.48
   0   2  -4  234.48   12.88
   0   2  -4  278.31   12.21
   0   2   4  269.53   12.63
   0   2   4  261.57   14.79
   0   2   4  284.51   15.46
   0   2  -4  286.70   14.72
   0   2   4  275.08   12.78
   0   2  -4  262.04   12.22
   0   2   4  258.45   16.13
   0   2   4  269.09   12.16
   2  -2   4  411.60   17.91
   2  -2   4  400.36   22.00
  -2  -2  -4  374.47   18.96
   2  -2   4  398.20   21.84
  -2  -2  -4  401.64   17.93
   2  -2   4  415.24   18.92
  -2  -2  -4  373.07   22.77
  -2  -2  -4  419.41   17.91
  -2  -2  -4  401.32   21.89
   2   2   4  388.36   18.58
  -2   2  -4  377.26   21.84
   2   2   4  378.08   17.90
  -2   2  -4  364.82   18.69
   2   2   4  397.96   23.78
  -2   2  -4  443.89   17.99
   2   2   4  392.24   21.97
   2   2   4  384.50   18.86
  -2   2  -4  440.39   17.95
  -2   2  -4  434.94   18.94
   2   2   4  401.92   17.89
   2   2   4  382.18   22.72
  -4  -2  -4  283.42   13.00
   4  -2   4  299.68   16.25
  -4  -2  -4  298.63   16.06
  -4  -2  -4  266.65   16.86
  -4  -2  -4  284.40   13.09
   4  -2   4  274.04   12.98
   4  -2   4  288.42   13.92
   4  -2   4  295.41   13.07
  -4  -2  -4  285.12   14.20
   4   2   4  277.75   13.56
  -4   2  -4  250.53   12.99
   4   2   4  329.71   16.36
   4   2   4  280.10   12.99
   4   2   4  285.12   14.00
   4   2   4  287.62   16.10
   4   2   4  296.81   13.67
  -4   2  -4  302.97   14.06
   4   2   4  292.20   17.64
   4   2   4  283.27   13.07
  -4   2  -4  310.68   13.08
  -6  -2  -4   51.05    4.64
   6  -2   4   51.52    3.63
  -6  -2  -4   52.21    4.62
   6  -2   4   57.05    4.66
   6  -2   4   48.55    4.39
   6  -2   4   51.21    4.76
   6   2   4   38.53    4.35
   6   2   4   44.79    2.69
   6   2   4   43.98    4.46
   6   2   4   43.00    3.60
   6   2   4   48.35    3.17
   6   2   4   49.52    5.36
   6   2   4   47.49    5.49
   6   2   4   46.36    4.52
   8  -2   4   49.55    6.26
   8  -2   4   60.73    7.97
   8  -2   4   46.75    4.96
   8   2   4   72.14    6.55
   8   2   4   55.16    7.32
   8   2   4   56.79    8.61
   8   2   4   46.47    6.54
  -7  -3   4   72.31    4.07
   7  -3  -4   76.03    3.95
   7  -3  -4   64.88    8.52
   7  -3  -4   72.95    5.92
   7  -3  -4   68.94    5.14
   7  -3  -4   73.14    4.31
   7   3  -4   66.19    8.15
   7   3  -4   66.27    4.20
   7   3  -4   73.41    6.07
   7   3  -4   64.34    6.36
  -7   3   4   73.93    4.21
  -7   3   4   66.07    6.71
   7   3  -4   74.18    4.10
   7   3  -4   69.53    6.67
   5  -3  -4  165.76    8.18
  -5  -3   4  159.84    7.50
   5  -3  -4  154.70    7.28
  -5  -3   4  151.39    9.72
  -5  -3   4  157.08    7.43
   5  -3  -4  145.82    7.61
   5  -3  -4  167.88    7.43
   5  -3  -4  154.02    9.37
   5  -3  -4  147.40   11.31
   5   3  -4  150.79    9.83
   5   3  -4  159.38    7.50
  -5   3   4  160.10   10.47
  -5   3   4  139.13    7.36
   5   3  -4  152.78   10.22
   5   3  -4  160.23    8.58
  -5   3   4  154.50    7.27
   5   3  -4  141.34    9.03
   5   3  -4  171.00   10.55
   5   3  -4  155.90    7.48
  -3  -3   4  124.13    6.10
  -3  -3   4  119.69    8.12
   3  -3  -4  134.09    5.99
   3  -3  -4  121.74    7.35
  -3  -3   4  123.43    6.06
   3  -3  -4  135.05    6.07
   3  -3  -4  129.58    7.52
   3  -3  -4  125.17    6.49
   3  -3  -4  124.87    6.32
  -3   3   4  130.00    5.97
   3   3  -4  127.79    6.07
  -3   3   4  138.01    6.10
   3   3  -4  117.20    8.18
   3   3  -4  120.05    6.97
  -3   3   4  113.29    6.56
   3   3  -4  120.06    7.77
   3   3  -4  126.42    6.70
   3   3  -4  119.78    6.10
  -3   3   4  112.57    8.72
  -3   3   4  126.08    6.40
   1  -3  -4  313.27   14.85
  -1  -3   4  294.38   16.86
   1  -3  -4  315.58   14.17
  -1  -3   4  312.72   14.17
   1  -3  -4  327.50   18.06
  -1  -3   4  311.81   17.68
   1  -3  -4  296.66   18.91
   1  -3  -4  306.40   14.09
  -1  -3   4  311.44   14.22
   1  -3  -4  307.78   14.83
   1   3  -4  317.45   15.12
   1   3  -4  296.19   14.13
   1   3  -4  310.31   16.88
   1   3  -4  302.37   17.60
  -1   3   4  308.00   14.09
  -1   3   4  312.53   14.75
   1   3  -4  309.68   14.21
  -1   3   4  331.98   14.78
   1   3  -4  317.85   14.88
  -1   3   4  316.39   18.89
  -1   3   4  304.87   14.15
   1   3  -4  311.32   17.80
   1  -3   4  432.25   18.44
  -1  -3  -4  377.04   22.14
  -1  -3  -4  435.92   23.27
   1  -3   4  365.80   17.38
   1  -3   4  334.71   21.34
   1  -3   4  402.16   21.07
  -1  -3  -4  354.65   18.37
  -1  -3  -4  376.95   17.43
  -1  -3  -4  390.59   21.09
  -1  -3  -4  368.47   17.34
   1  -3   4  398.86   17.47
  -1  -3  -4  384.87   18.23
  -1   3  -4  378.11   17.45
  -1   3  -4  398.58   18.47
   1   3   4  395.95   23.09
   1   3   4  377.75   17.42
   1   3   4  376.78   18.07
   1   3   4  369.24   18.28
  -1   3  -4  420.23   18.15
   1   3   4  368.67   22.03
   1   3   4  374.99   17.34
   1   3   4  408.16   21.09
  -1   3  -4  367.76   17.38
   3  -3   4  100.28    6.61
   3  -3   4  128.65    7.02
   3  -3   4   99.37    5.71
   3  -3   4  103.64    5.21
  -3  -3  -4  101.44    6.16
   3  -3   4  118.73    5.37
  -3  -3  -4  106.23    5.23
  -3  -3  -4  105.82    7.08
  -3  -3  -4  101.75    5.35
  -3  -3  -4  121.32    6.67
   3   3   4  103.34    6.87
   3   3   4  107.41    6.08
   3   3   4  104.28    7.43
  -3   3  -4  106.90    5.33
   3   3   4  103.73    6.91
  -3   3  -4  107.84    5.90
   3   3   4  106.33    5.21
   3   3   4  107.56    5.34
  -3   3  -4  111.96    5.28
   3   3   4  111.53    5.40
  -5  -3  -4  108.45    6.64
   5  -3   4  103.76    6.94
   5  -3   4  110.71    5.20
  -5  -3  -4  108.43    5.13
  -5  -3  -4  103.22    7.32
   5  -3   4   96.61    5.01
   5  -3   4  112.28    6.00
  -5  -3  -4   87.25    6.68
   5   3   4  104.87    5.56
   5   3   4   92.04    6.86
  -5   3  -4  106.09    6.41
   5   3   4  114.22    7.31
  -5   3  -4  101.70    5.15
   5   3   4  100.71    6.56
   5   3   4  111.55    7.30
   5   3   4  104.54    5.31
   5   3   4  109.07    7.96
  -7  -3  -4  129.72    8.34
   7  -3   4  120.40    7.41
   7  -3   4  130.92    9.20
   7  -3   4  125.80    8.62
   7   3   4  133.60    9.20
   7   3   4  114.96    8.96
   7   3   4  105.11    5.99
   7   3   4  129.14    9.38
   7   3   4  128.15    6.65
   8  -4  -4   71.23    9.74
   8  -4  -4   69.80    5.98
   8  -4  -4   77.03    7.17
   8   4  -4   61.26    7.43
   8   4  -4   52.83    9.51
   8   4  -4   80.93    7.28
  -6  -4   4  107.61    5.78
  -6  -4   4  105.59    8.17
   6  -4  -4  105.45    6.40
   6  -4  -4  104.53    5.34
   6  -4  -4   90.72    9.19
   6  -4  -4  111.28    7.40
   6  -4  -4  116.69    5.68
   6   4  -4  108.94    5.80
   6   4  -4  102.83    7.74
   6   4  -4   99.85    8.01
  -6   4   4  109.75    5.35
   6   4  -4  104.39    8.14
  -6   4   4  112.38    8.39
   6   4  -4  111.05    5.69
  -4  -4   4  160.54    8.26
   4  -4  -4  178.27    8.82
   4  -4  -4  165.73   10.75
   4  -4  -4  174.05   10.06
   4  -4  -4  174.99    8.20
   4  -4  -4  183.84   10.32
   4  -4  -4  166.96    8.49
  -4  -4   4  174.19    8.24
   4  -4  -4  178.25    8.10
   4  -4  -4  141.53   11.52
  -4  -4   4  172.32   10.93
   4   4  -4  171.56    9.52
   4   4  -4  164.27    9.26
   4   4  -4  173.12   10.66
   4   4  -4  162.04   11.26
   4   4  -4  179.12    8.31
   4   4  -4  167.48    8.23
  -4   4   4  167.35    8.04
  -4   4   4  157.01    8.82
  -4   4   4  176.44    8.21
  -4   4   4  169.93    8.74
  -4   4   4  175.51   11.81
  -2  -4   4  176.63    9.13
   2  -4  -4  174.31    8.85
   2  -4  -4  167.54    8.28
   2  -4  -4  178.99   11.52
  -2  -4   4  170.88    8.47
  -2  -4   4  180.81   11.15
   2  -4  -4  181.87    8.42
   2  -4  -4  180.48   10.76
  -2  -4   4  169.53    8.40
  -2  -4   4  174.23    9.72
   2  -4  -4  175.52   10.16
   2  -4  -4  173.28    8.87
   2   4  -4  171.49    8.44
  -2   4   4  183.32   11.80
  -2   4   4  173.57    8.76
  -2   4   4  183.38    8.43
  -2   4   4  175.94    8.28
   2   4  -4  177.41    9.27
   2   4  -4  167.76    8.37
   2   4  -4  168.28    9.09
   2   4  -4  172.16   10.59
  -2   4   4  188.91    8.73
   0  -4  -4  157.55    9.94
   0  -4   4  155.35    8.65
   0  -4  -4  152.61    7.93
   0  -4   4  149.85    7.28
   0  -4  -4  154.50    7.71
   0  -4  -4  147.53    7.34
   0  -4  -4  158.01    8.80
   0  -4  -4  148.24    7.22
   0  -4  -4  146.15    8.79
   0  -4   4  147.11    7.81
   0  -4   4  160.91    9.42
   0  -4   4  149.78    8.91
   0  -4  -4  139.09    9.27
   0  -4   4  146.33    7.35
   0   4  -4  163.07    9.49
   0   4  -4  152.76    7.98
   0   4  -4  154.33    7.79
   0   4   4  154.72    9.82
   0   4  -4  153.61    7.37
   0   4   4  146.47    7.20
   0   4   4  146.76    7.32
   0   4   4  149.57    7.47
   0   4  -4  152.42    9.29
   0   4   4  147.18    7.75
   0   4  -4  150.20    7.32
   0   4   4  147.97    9.20
  -2  -4  -4  162.74   10.36
   2  -4   4  180.94   10.20
   2  -4   4  163.04    9.75
  -2  -4  -4  169.11    8.94
   2  -4   4  156.84    7.96
   2  -4   4  153.54    8.56
  -2  -4  -4  165.44    9.96
  -2  -4  -4  165.04    9.44
  -2  -4  -4  160.61    7.95
   2  -4   4  183.46    8.17
  -2  -4  -4  167.05    8.52
  -2  -4  -4  170.32    8.14
   2   4   4  176.61   10.97
   2   4   4  163.81    8.08
   2   4   4  171.98    8.25
   2   4   4  175.31    9.68
  -2   4  -4  159.12    8.07
   2   4   4  175.60   10.32
  -2   4  -4  180.08    8.41
   2   4   4  165.72    7.95
  -2   4  -4  181.00    8.84
  -2   4  -4  152.24    7.97
   2   4   4  167.54    8.79
   4  -4   4  143.96    8.71
  -4  -4  -4  122.13    6.37
   4  -4   4  125.32    6.36
   4  -4   4  131.74    6.52
  -4  -4  -4  140.05    7.87
  -4  -4  -4  124.80    8.76
   4  -4   4  134.86    7.14
   4  -4   4  126.98    8.21
  -4   4  -4  130.17    6.50
   4   4   4  120.70    6.58
  -4   4  -4  133.98    7.53
   4   4   4  119.07    7.66
   4   4   4  129.39    7.79
   4   4   4  130.85    6.39
   4   4   4  138.93    8.63
   4   4   4  157.26    9.69
   4   4   4  128.45    6.77
   4   4   4  132.96    8.14
  -6  -4  -4   70.73    3.72
   6  -4   4   66.57    3.66
   6  -4   4   61.50    4.89
   6  -4   4   58.17    3.36
   6  -4   4   61.24    5.67
  -6  -4  -4   60.90    6.03
   6   4   4   57.34    5.80
   6   4   4   57.73    5.65
   6   4   4   61.94    4.59
   6   4   4   47.26    6.00
   6   4   4   61.66    4.10
   6   4   4   61.19    3.56
  -6   4  -4   52.10    3.53
  -7  -5   4  112.13    6.23
   7  -5  -4   93.41    6.88
   7  -5  -4  104.58    8.46
   7  -5  -4  104.50    8.06
   7  -5  -4   98.00    9.80
   7   5  -4  106.67    9.12
   7   5  -4   85.04   11.23
   7   5  -4  109.11    8.61
  -7   5   4  107.34    5.44
   5  -5  -4   87.84    6.18
  -5  -5   4   79.18    7.68
   5  -5  -4   84.43    5.01
   5  -5  -4   86.40    4.59
   5  -5  -4   82.77    5.46
   5  -5  -4   80.59    6.28
  -5  -5   4   78.95    4.98
   5  -5  -4   83.00    7.49
   5  -5  -4   89.39    4.88
   5   5  -4   91.07    6.73
  -5   5   4   87.73    8.17
   5   5  -4   82.93    4.88
  -5   5   4   86.58    4.53
   5   5  -4   66.09    8.39
   5   5  -4   80.76    5.01
   3  -5  -4  219.14   12.78
  -3  -5   4  215.29   11.53
  -3  -5   4  217.09   10.47
  -3  -5   4  218.01   13.90
  -3  -5   4  215.19   10.52
   3  -5  -4  227.11   14.29
   3  -5  -4  217.42   11.13
   3  -5  -4  211.23   10.29
   3  -5  -4  221.42   10.97
   3  -5  -4  229.08   13.28
   3  -5  -4  216.41   10.44
   3   5  -4  220.87   11.63
   3   5  -4  210.99   10.47
  -3   5   4  210.63   14.95
   3   5  -4  201.44   10.41
  -3   5   4  221.39   11.00
   3   5  -4  215.75   11.57
   3   5  -4  212.37   13.28
  -3   5   4  223.61   10.75
   3   5  -4  206.93   13.55
  -3   5   4  225.13   10.50
  -3   5   4  235.10   10.32
   1  -5  -4  216.58   10.64
  -1  -5   4  206.26    9.96
   1  -5  -4  203.59    9.98
  -1  -5   4  195.67   10.64
   1  -5  -4  197.79   12.56
  -1  -5   4  205.44   12.34
   1  -5  -4  207.46    9.86
   1  -5  -4  207.80   11.96
  -1  -5   4  215.00   10.06
   1  -5  -4  205.04   10.65
  -1  -5   4  209.21   12.94
   1  -5  -4  209.92   12.19
   1  -5  -4  219.07   13.48
  -1  -5   4  198.84   11.57
  -1   5   4  204.87   10.29
   1   5  -4  199.09   12.33
   1   5  -4  205.20    9.97
  -1   5   4  203.80    9.82
  -1   5   4  209.43   12.54
  -1   5   4  204.30   13.44
   1   5  -4  211.49   10.02
  -1   5   4  220.92   10.45
   1   5  -4  210.01   12.55
   1   5  -4  208.20   13.08
   1   5  -4  216.06   10.91
  -1   5   4  210.06   10.02
   1   5  -4  208.54   10.79
   1  -5   4   71.76    4.12
   1  -5   4   67.03    4.67
  -1  -5  -4   78.97    5.30
  -1  -5  -4   66.36    4.53
  -1  -5  -4   73.05    5.43
   1  -5   4   70.22    4.54
  -1  -5  -4   64.47    3.92
   1  -5   4   67.80    3.97
   1  -5   4   70.88    5.64
  -1  -5  -4   71.00    4.91
   1  -5   4   72.62    4.50
  -1  -5  -4   70.53    4.20
  -1  -5  -4   72.51    4.92
  -1  -5  -4   78.01    5.82
   1   5   4   67.55    4.16
   1   5   4   70.70    3.91
  -1   5  -4   73.71    4.66
   1   5   4   68.11    4.81
  -1   5  -4   69.54    4.08
  -1   5  -4   69.40    4.62
   1   5   4   66.09    5.80
   1   5   4   67.59    4.05
  -1   5  -4   62.67    4.00
  -1   5  -4   70.45    4.87
   1   5   4   71.01    5.12
  -1   5  -4   69.88    5.35
  -3  -5  -4   96.73    5.20
  -3  -5  -4   99.57    5.59
   3  -5   4   98.05    6.58
   3  -5   4  104.10    7.27
   3  -5   4   99.19    5.35
  -3  -5  -4  102.10    5.88
   3  -5   4  102.60    5.88
  -3  -5  -4   99.98    6.51
  -3  -5  -4   96.58    7.17
   3  -5   4   95.49    5.17
  -3   5  -4   95.51    5.26
  -3   5  -4  107.44    6.32
   3   5   4   93.44    5.10
   3   5   4   92.75    5.40
   3   5   4   97.30    6.65
  -3   5  -4   90.71    5.18
   3   5   4   94.63    6.15
   3   5   4   96.49    6.85
   3   5   4  100.52    5.47
   5  -5   4   72.56    6.31
   5  -5   4   89.04    4.82
  -5  -5  -4   85.89    6.78
  -5  -5  -4   76.49    4.67
   5  -5   4   88.90    5.83
   5   5   4   86.83    6.74
   5   5   4   82.34    4.64
  -5   5  -4   77.71    4.67
   5   5   4   88.81    5.43
   5   5   4   79.43    5.77
   5   5   4   80.83    5.82
   6  -6  -4  152.61    7.79
   6  -6  -4  155.63   10.32
  -6  -6   4  150.84    8.33
   6  -6  -4  165.34    9.38
   6  -6  -4  150.35   10.48
   6  -6  -4  151.30   11.69
  -6   6   4  164.93    7.73
   6   6  -4  137.90   12.98
   6   6  -4  146.16   10.86
   6   6  -4  151.65    8.28
   4  -6  -4  171.25    8.30
  -4  -6   4  176.98    8.75
   4  -6  -4  172.93   11.76
  -4  -6   4  156.71   13.02
   4  -6  -4  178.99   10.74
   4  -6  -4  166.80    9.25
  -4  -6   4  167.75    8.63
   4  -6  -4  171.47    8.92
   4   6  -4  159.07   11.69
   4   6  -4  161.47   10.85
  -4   6   4  138.62    8.40
   4   6  -4  169.06    8.58
  -4   6   4  166.73   13.73
  -4   6   4  169.56    8.23
  -2  -6   4   40.68    3.36
  -2  -6   4   31.08    3.89
   2  -6  -4   45.19    3.41
   2  -6  -4   39.22    4.55
  -2  -6   4   40.47    3.35
   2  -6  -4   41.59    2.95
  -2  -6   4   46.28    6.88
   2  -6  -4   42.07    3.81
   2  -6  -4   47.19    4.90
   2  -6  -4   40.18    3.97
   2  -6  -4   35.53    3.95
   2  -6  -4   43.58    3.92
  -2  -6   4   34.33    3.62
   2   6  -4   41.96    4.99
  -2   6   4   40.81    3.70
   2   6  -4   34.72    3.19
  -2   6   4   38.09    6.15
   2   6  -4   32.73    5.07
  -2   6   4   38.29    2.88
   2   6  -4   39.64    5.11
   2   6  -4   34.20    4.75
  -2   6   4   36.81    3.29
   2   6  -4   41.50    3.38
   2   6  -4   39.26    3.79
  -2   6   4   40.95    3.67
   0  -6  -4  114.37    8.55
   0  -6   4  118.68    6.60
   0  -6   4  122.68    7.17
   0  -6  -4  115.08    8.35
   0  -6   4  124.69    7.89
   0  -6  -4  128.96    7.28
   0  -6  -4  127.49    6.51
   0  -6  -4  124.07    7.47
   0  -6   4  130.82    9.24
   0  -6   4  113.29    6.61
   0  -6   4  128.00    7.55
   0  -6  -4  116.35    7.86
   0  -6  -4  125.36    9.04
   0  -6  -4  129.55    6.79
   0   6   4  131.35    6.48
   0   6   4  126.69    6.70
   0   6  -4  121.99    7.92
   0   6  -4  119.69    6.64
   0   6   4  128.44    6.78
   0   6  -4  126.57    7.55
   0   6  -4  127.50    6.64
   0   6   4  126.83    9.27
   0   6  -4  132.47    8.88
   0   6   4  125.43    7.37
   0   6   4  126.29    8.18
   2  -6   4   84.18    4.89
   2  -6   4   81.83    4.99
   2  -6   4   81.38    5.68
  -2  -6  -4   86.66    6.15
   2  -6   4   89.68    5.46
  -2  -6  -4   85.29    4.93
   2  -6   4   82.81    5.91
  -2  -6  -4   81.84    5.23
  -2  -6  -4   83.46    5.88
   2   6   4   79.98    5.16
  -2   6  -4   86.58    5.02
   2   6   4   81.55    6.26
   2   6   4   86.98    5.22
   2   6   4   84.62    4.84
  -2   6  -4   87.68    5.06
  -4  -6  -4   30.38    3.14
   4  -6   4   27.92    4.27
   4  -6   4   28.92    3.17
   4  -6   4   28.98    3.41
  -4  -6  -4   28.74    4.20
   4   6   4   25.56    3.76
  -4   6  -4   26.55    3.00
   4   6   4   25.33    2.99
   4   6   4   29.34    2.93
   4   6   4   25.09    3.41
  -5  -7   4  110.37    7.08
   5  -7  -4  107.28    7.66
   5  -7  -4  107.37    9.42
   5  -7  -4  116.08    6.94
   5  -7  -4  114.29    8.43
   5  -7  -4  117.39    6.43
   5   7  -4  110.74    8.97
   5   7  -4  108.49    6.82
  -5   7   4  114.02    6.23
   5   7  -4   98.26   10.90
  -3  -7   4  125.88    8.59
   3  -7  -4  123.78    6.80
   3  -7  -4  133.38    8.03
   3  -7  -4  132.79    9.73
   3  -7  -4  128.88    7.69
  -3  -7   4  130.88    7.16
  -3  -7   4  123.33    7.31
   3   7  -4  128.24    8.98
  -3   7   4  121.29    7.25
   3   7  -4  123.47    9.96
   3   7  -4  121.97    7.11
  -3   7   4  118.88    6.64
   1  -7  -4  106.91    6.78
   1  -7  -4   81.14    7.01
   1  -7  -4   93.95    8.51
   1  -7  -4  105.46    6.66
  -1  -7   4  103.26    5.96
  -1  -7   4   99.93    6.67
   1  -7  -4   93.78    7.95
  -1  -7   4   94.19    5.96
   1  -7  -4   96.09    5.60
  -1  -7   4   96.96    6.91
  -1   7   4   94.56    6.09
   1   7  -4   97.53    5.89
  -1   7   4   98.66    6.14
  -1   7   4   99.55    6.70
  -1   7   4   99.21    7.21
  -1   7   4   96.48    5.51
   1   7  -4  102.65    8.54
   1   7  -4   96.21    7.08
   1  -7   4   65.95    4.50
   1  -7   4   66.92    4.97
  -1  -7  -4   61.64    4.98
  -1  -7  -4   69.17    5.95
   1  -7   4   63.37    5.32
  -1  -7  -4   68.55    5.90
   1  -7   4   62.09    5.11
  -1  -7  -4   67.04    4.57
  -1   7  -4   61.14    4.50
   1   7   4   70.24    5.03
   1   7   4   67.22    4.39
  -1   7  -4   68.59    6.10
  -1   7  -4   66.93    4.81
   1   7   4   60.60    5.59
   3  -7   4   36.16    4.50
  -3  -7  -4   34.79    3.65
  -3  -7  -4   31.90    4.54
   3  -7   4   35.03    4.53
   3  -7   4   37.81    3.67
  -3  -7  -4   20.25    3.99
  -3  -7  -4   23.61    3.41
  -3   7  -4   32.95    3.45
   3   7   4   27.99    3.55
   3   7   4   31.94    4.55
   3   7   4   32.33    3.59
   4  -8  -4   86.52    7.35
   4  -8  -4   85.92    5.81
   4  -8  -4   90.37    8.44
   4  -8  -4   78.84    6.64
   4   8  -4   86.61    8.19
   4   8  -4   74.87    6.27
   4   8  -4   78.91    9.54
   2  -8  -4   83.29    5.49
   2  -8  -4   72.95    7.70
  -2  -8   4   82.63    5.95
   2  -8  -4   79.83    6.94
   2  -8  -4   80.71    6.64
  -2  -8   4   76.88    7.12
   2   8  -4   94.09    7.25
   2   8  -4   78.79    5.78
  -2   8   4   78.07    5.28
   0  -8  -4   33.85    4.70
   0  -8  -4   32.65    4.46
   0  -8  -4   32.05    3.85
   0  -8   4   34.71    4.22
   0  -8  -4   22.55    6.32
   0  -8   4   26.84    3.11
   0  -8   4   32.24    4.34
   0   8  -4   27.90    3.20
   0   8   4   30.17    4.65
   0   8   4   36.48    3.73
  -2  -8  -4   40.93    5.28
  -2  -8  -4   40.52    4.62
   2  -8   4   39.16    4.49
   2  -8   4   41.10    5.06
   2  -8   4   42.31    5.58
  -2  -8  -4   46.85    5.68
   2   8   4   41.38    4.28
  -2   8  -4   37.99    4.34
   2   8   4   35.83    5.42
   8   0  -5   41.33    4.88
   8   0  -5   37.15    2.39
   8   0  -5   35.66    4.24
   8   0  -5   32.75    4.89
   8   0  -5   37.77    4.52
   8   0  -5   43.87    4.94
   8   0  -5   35.78    4.94
   8   0  -5   40.20    2.31
   6   0  -5  259.77   12.11
   6   0  -5  252.90   11.17
   6   0  -5  259.13   12.43
  -6   0   5  229.83   14.19
   6   0  -5  240.63   11.20
   6   0  -5  254.00   13.87
   6   0  -5  226.88   14.35
   6   0  -5  235.25   15.38
  -4   0   5  319.81   14.74
   4   0  -5  329.66   18.23
  -4   0   5  339.90   19.70
   4   0  -5  340.37   14.81
  -4   0   5  348.65   14.83
  -4   0   5  330.38   18.15
   4   0  -5  312.22   14.71
   4   0  -5  323.02   19.58
   4   0  -5  278.42   17.74
  -2   0   5  119.62    5.81
  -2   0   5  138.38    7.75
  -2   0   5  117.97    6.85
   2   0  -5  118.32    7.51
   2   0  -5  104.10    5.77
  -2   0   5  107.92    5.80
   2   0  -5  119.79    7.03
   2   0  -5  125.24    5.80
  -2   0   5  118.01    7.05
   2   0  -5  124.57    6.03
   2   0  -5  119.04    6.87
   0   0  -5  990.32   50.60
   0   0  -5  981.06   43.65
   0   0  -5  935.68   41.77
   0   0   5  935.92   41.78
   0   0   5  842.21   50.52
   0   0   5  948.31   54.86
   0   0   5  934.01   41.81
   0   0   5 1000.00   43.66
   0   0  -5  903.98   54.83
   0   0  -5  923.68   41.78
   2   0   5  263.82   14.67
  -2   0  -5  253.73   11.79
  -2   0  -5  231.79   11.75
   2   0   5  259.15   12.07
   2   0   5  221.26   11.75
  -2   0  -5  278.88   12.42
   2   0   5  272.21   15.29
   2   0   5  259.64   11.82
   2   0   5  264.77   14.41
   2   0   5  237.44   14.15
   2   0   5  268.87   12.36
  -2   0  -5  288.27   14.49
   4   0   5   28.93    2.59
  -4   0  -5   27.31    3.09
  -4   0  -5   29.25    1.82
   4   0   5   23.67    2.81
   4   0   5   24.18    1.83
  -4   0  -5   26.54    2.68
   4   0   5   28.65    1.90
   4   0   5   28.36    1.82
  -4   0  -5   27.22    2.31
   4   0   5   24.66    2.23
   4   0   5   28.16    2.66
   6   0   5   95.60    7.08
   6   0   5   92.84    6.88
   6   0   5   93.70    6.91
   6   0   5  101.72    6.75
   6   0   5   97.56    6.23
   6   0   5   87.46    5.12
   8   0   5   39.79    6.66
   8   0   5   44.94    6.34
   9  -1  -5   32.73    4.89
   9  -1  -5   39.94    5.81
   9  -1  -5   31.50    5.96
   9  -1  -5   34.73    4.15
   9   1  -5   40.84    5.30
   9   1  -5   33.66    6.31
   9   1  -5   38.35    5.77
   9   1  -5   39.91    4.72
   9   1  -5   40.45    5.16
   7  -1  -5   63.25    4.54
   7  -1  -5   53.75    5.34
   7  -1  -5   60.81    3.16
   7  -1  -5   55.23    5.80
  -7  -1   5   58.14    3.28
   7  -1  -5   52.53    4.51
   7  -1  -5   59.74    4.24
   7  -1  -5   61.65    3.10
   7  -1  -5   57.70    5.16
  -7   1   5   56.65    3.17
   7   1  -5   48.32    5.65
   7   1  -5   59.82    4.44
   7   1  -5   50.95    4.68
   7   1  -5   51.36    5.17
   7   1  -5   58.30    3.14
   7   1  -5   56.43    3.25
   7   1  -5   56.31    4.93
   5  -1  -5  201.54    9.62
   5  -1  -5  162.32    9.01
  -5  -1   5  184.07   11.26
  -5  -1   5  205.02    9.14
   5  -1  -5  197.21    9.77
   5  -1  -5  194.81    8.79
   5  -1  -5  185.12   10.99
   5  -1  -5  196.83   12.29
   5  -1  -5  182.00   11.21
  -5  -1   5  199.94    8.88
   5   1  -5  192.88   12.03
  -5   1   5  159.84    9.02
   5   1  -5  192.42    9.62
   5   1  -5  193.90    9.07
   5   1  -5  192.30    8.88
  -5   1   5  197.02   12.28
   5   1  -5  185.57   11.47
  -5   1   5  208.87    8.83
  -5   1   5  197.05   11.19
   3  -1  -5  495.77   29.24
   3  -1  -5  476.15   23.16
   3  -1  -5  497.60   22.03
   3  -1  -5  520.60   26.82
  -3  -1   5  518.82   27.05
  -3  -1   5  470.48   26.36
  -3  -1   5  485.12   21.93
   3  -1  -5  445.81   23.07
  -3  -1   5  494.33   21.96
   3  -1  -5  502.22   21.91
  -3   1   5  510.29   29.23
   3   1  -5  493.87   21.95
   3   1  -5  482.52   21.96
  -3   1   5  494.18   26.76
  -3   1   5  477.09   21.99
  -3   1   5  495.90   21.91
   3   1  -5  464.01   28.86
   3   1  -5  496.16   27.04
   3   1  -5  466.95   26.38
  -1  -1   5  430.61   24.01
  -1  -1   5  415.95   19.77
  -1  -1   5  431.39   24.33
   1  -1  -5  482.95   24.04
   1  -1  -5  410.26   19.76
   1  -1  -5  452.74   19.83
  -1  -1   5  445.05   19.87
   1  -1  -5  438.82   20.72
   1  -1  -5  460.24   26.35
  -1  -1   5  468.61   25.99
   1   1  -5  421.46   19.79
   1   1  -5  462.35   25.92
   1   1  -5  469.31   24.06
  -1   1   5  441.39   24.00
  -1   1   5  407.74   20.83
   1   1  -5  458.39   19.88
  -1   1   5  433.77   23.97
   1   1  -5  416.18   20.89
  -1   1   5  467.59   19.85
  -1   1   5  408.13   19.74
   1  -1   5  208.49    9.78
  -1  -1  -5  225.02   12.14
   1  -1   5  226.90   11.99
  -1  -1  -5  213.15    9.81
  -1  -1  -5  208.34   12.97
   1  -1   5  215.71    9.85
   1  -1   5  212.86   11.94
   1  -1   5  225.04   10.19
  -1  -1  -5  211.55   12.42
  -1  -1  -5  233.38   10.44
  -1  -1  -5  209.15    9.76
   1   1   5  200.14    9.73
  -1   1  -5  221.76   10.38
   1   1   5  214.65   12.85
   1   1   5  223.29   10.28
   1   1   5  217.96    9.82
   1   1   5  214.98   12.31
  -1   1  -5  183.90   12.12
  -1   1  -5  206.08    9.81
   1   1   5  220.01   12.15
  -1   1  -5  208.53    9.81
  -1   1  -5  199.21   11.94
   3  -1   5  249.74   13.81
  -3  -1  -5  232.83   14.24
   3  -1   5  253.22   11.28
   3  -1   5  281.46   11.83
  -3  -1  -5  233.06   11.25
  -3  -1  -5  242.25   11.14
  -3  -1  -5  246.29   13.84
  -3  -1  -5  224.16   11.94
   3  -1   5  240.30   11.68
  -3   1  -5  240.19   11.17
   3   1   5  251.71   11.84
   3   1   5  234.98   13.85
   3   1   5  239.78   14.14
   3   1   5  233.39   11.21
  -3   1  -5  252.16   13.87
  -3   1  -5  245.00   11.75
   3   1   5  254.52   14.84
  -3   1  -5  256.95   11.27
   3   1   5  243.22   13.46
   3   1   5  242.87   11.14
  -5  -1  -5  168.28   10.25
   5  -1   5  180.41    8.37
   5  -1   5  170.19    8.32
   5  -1   5  152.70    9.94
   5  -1   5  166.06    7.67
  -5  -1  -5  171.30    7.75
   5  -1   5  152.42   10.31
   5  -1   5  176.13   10.25
  -5  -1  -5  168.58    8.87
  -5  -1  -5  168.77   10.19
   5  -1   5  167.19   10.03
   5  -1   5  151.32    7.69
   5   1   5  165.15    8.04
  -5   1  -5  174.67    7.67
   5   1   5  167.07   10.03
   5   1   5  168.95    7.68
   5   1   5  169.15    8.57
   5   1   5  160.36    7.78
   5   1   5  147.73    9.96
   5   1   5  183.07   10.16
   7  -1   5   25.94    2.87
   7  -1   5   20.55    2.50
   7  -1   5   26.80    3.75
   7  -1   5   19.53    3.55
   7  -1   5   24.50    4.36
   7   1   5   27.57    3.89
   7   1   5   21.93    3.25
   7   1   5   27.10    4.36
   7   1   5   20.79    2.25
   7   1   5   21.40    4.61
   7   1   5   29.05    3.97
   7   1   5   23.63    4.01
   8  -2  -5   97.39   10.00
   8  -2  -5   93.52    6.83
   8  -2  -5   91.36    8.05
   8  -2  -5  106.04    5.19
   8   2  -5  105.01    6.66
   8   2  -5  106.98    5.24
   8   2  -5  103.39    9.74
   8   2  -5  109.10    7.07
   8   2  -5   94.30    8.28
   8   2  -5  101.80    8.31
   8   2  -5  112.30    7.94
   6  -2  -5  138.57    9.09
   6  -2  -5  128.48   10.60
   6  -2  -5  150.19    6.88
  -6  -2   5  153.59    7.02
   6  -2  -5  130.10    7.52
   6  -2  -5  144.80    7.84
   6  -2  -5  157.60    9.17
  -6  -2   5  135.88    9.28
   6  -2  -5  151.04    7.31
   6   2  -5  141.38    8.12
   6   2  -5  146.28    6.99
  -6   2   5  150.47   10.06
   6   2  -5  141.17    9.34
  -6   2   5  152.81    7.24
   6   2  -5  140.03    9.76
   6   2  -5  143.68    8.26
   6   2  -5  140.20    9.80
  -4  -2   5  168.76    9.76
   4  -2  -5  157.35    7.40
   4  -2  -5  178.08   11.00
  -4  -2   5  159.86    7.50
   4  -2  -5  170.40    9.28
  -4  -2   5  163.57    7.45
   4  -2  -5  153.70    8.05
   4  -2  -5  153.46    7.37
   4  -2  -5  147.24    7.97
   4   2  -5  153.65    7.47
   4   2  -5  153.41    9.66
   4   2  -5  155.68    7.47
   4   2  -5  162.02   10.06
  -4   2   5  151.62   10.47
  -4   2   5  151.05    7.39
  -4   2   5  158.38    7.37
   4   2  -5  157.81    8.12
   4   2  -5  161.79    8.83
   4   2  -5  138.97    9.72
   2  -2  -5  339.65   19.73
   2  -2  -5  330.57   15.34
   2  -2  -5  313.47   14.48
  -2  -2   5  332.99   17.52
  -2  -2   5  322.53   14.53
   2  -2  -5  299.60   14.49
   2  -2  -5  327.57   15.32
  -2  -2   5  323.41   18.19
  -2  -2   5  298.20   14.56
   2  -2  -5  313.69   17.66
   2  -2  -5  339.02   17.64
   2   2  -5  331.64   15.64
  -2   2   5  316.85   17.67
  -2   2   5  293.61   15.36
  -2   2   5  327.68   14.53
   2   2  -5  327.31   14.57
   2   2  -5  329.54   19.11
   2   2  -5  304.98   17.49
  -2   2   5  327.96   19.70
   2   2  -5  308.17   14.57
  -2   2   5  323.84   14.49
   0  -2  -5  382.08   23.31
   0  -2  -5  398.38   18.32
   0  -2   5  412.50   18.36
   0  -2  -5  376.61   24.37
   0  -2  -5  395.27   22.28
   0  -2   5  417.14   18.41
   0  -2   5  414.92   22.20
   0  -2  -5  403.21   19.32
   0  -2   5  423.24   22.65
   0  -2  -5  403.94   19.13
   0  -2  -5  384.44   18.33
   0  -2   5  413.54   19.35
   0   2  -5  403.51   22.19
   0   2  -5  427.42   22.68
   0   2   5  433.78   22.36
   0   2   5  397.74   18.35
   0   2   5  399.61   19.05
   0   2   5  417.36   24.30
   0   2  -5  411.81   18.39
   0   2  -5  401.18   19.43
   0   2  -5  429.75   23.87
   0   2   5  407.34   18.32
   0   2  -5  426.06   18.44
   2  -2   5  155.04    7.20
  -2  -2  -5  133.88    9.29
  -2  -2  -5  153.04    7.25
   2  -2   5  173.88    7.70
  -2  -2  -5  149.77    7.93
   2  -2   5  157.38    7.29
   2  -2   5  161.06    8.98
  -2  -2  -5  156.87    9.15
  -2  -2  -5  156.73    7.20
   2  -2   5  138.37    8.99
  -2   2  -5  166.34    7.76
   2   2   5  151.93    7.18
   2   2   5  136.91    9.64
   2   2   5  163.65    7.81
   2   2   5  149.65    7.24
   2   2   5  151.89    9.22
  -2   2  -5  153.26    7.27
  -2   2  -5  167.88    7.72
  -2   2  -5  150.63    7.24
   2   2   5  153.94    9.23
  -2   2  -5  159.28    9.02
   4  -2   5  134.02    8.57
   4  -2   5  148.40    6.76
   4  -2   5  130.17    7.22
   4  -2   5  132.77    6.68
  -4  -2  -5  146.15    8.64
  -4  -2  -5  139.91    7.74
  -4  -2  -5  140.17    6.70
  -4  -2  -5  163.36    9.09
  -4   2  -5  142.49    6.73
   4   2   5  141.65    8.79
   4   2   5  142.47    6.66
  -4   2  -5  136.12    7.47
   4   2   5  153.87    8.28
   4   2   5  140.04    6.73
   4   2   5  136.66    7.47
   4   2   5  135.24    8.84
   4   2   5  148.35    6.82
   6  -2   5   54.08    3.01
  -6  -2  -5   61.62    5.31
  -6  -2  -5   68.94    5.34
   6  -2   5   53.74    5.03
   6  -2   5   54.21    5.41
   6  -2   5   56.67    4.07
   6   2   5   55.70    3.24
   6   2   5   55.86    6.13
   6   2   5   62.58    3.43
   6   2   5   54.97    3.36
   6   2   5   54.84    4.92
   6   2   5   55.41    3.71
   6   2   5   57.53    5.45
   6   2   5   58.11    5.05
   6   2   5   56.54    5.59
   7  -3  -5   47.50    3.84
   7  -3  -5   41.93    6.66
   7  -3  -5   51.96    4.32
  -7  -3   5   51.99    3.58
   7  -3  -5   46.45    5.24
   7  -3  -5   46.91    3.25
   7   3  -5   56.94    5.11
  -7   3   5   49.63    3.56
   7   3  -5   53.47    3.80
   7   3  -5   47.00    5.43
   7   3  -5   50.62    3.41
   7   3  -5   52.21    7.53
  -5  -3   5  272.99   15.69
   5  -3  -5  267.80   12.24
   5  -3  -5  224.86   15.09
   5  -3  -5  270.39   12.14
   5  -3  -5  275.58   12.78
   5  -3  -5  282.58   17.67
  -5  -3   5  263.51   12.24
   5  -3  -5  258.08   15.25
  -5  -3   5  249.48   12.31
   5  -3  -5  273.33   13.22
   5   3  -5  262.05   12.28
  -5   3   5  290.70   17.00
   5   3  -5  252.49   13.98
  -5   3   5  244.73   12.21
   5   3  -5  260.05   15.93
   5   3  -5  269.52   13.45
   5   3  -5  281.12   12.37
   5   3  -5  267.55   16.50
  -5   3   5  264.53   12.12
   5   3  -5  266.08   16.21
  -3  -3   5  194.42    9.25
  -3  -3   5  199.88    9.20
  -3  -3   5  188.43   11.91
   3  -3  -5  194.95    9.11
  -3  -3   5  218.49   10.70
   3  -3  -5  214.07    9.86
   3  -3  -5  197.26   11.25
   3  -3  -5  200.78   11.17
   3  -3  -5  185.97    9.14
   3  -3  -5  179.49   12.78
   3  -3  -5  202.16    9.64
   3   3  -5  194.19   11.77
  -3   3   5  169.50    9.85
   3   3  -5  194.77   10.69
  -3   3   5  200.84    9.68
   3   3  -5  190.04   11.98
  -3   3   5  190.95    9.09
   3   3  -5  196.03    9.91
  -3   3   5  218.05    9.22
   3   3  -5  194.71    9.25
  -3   3   5  196.26   12.90
   3   3  -5  189.88    9.21
   3   3  -5  184.60   10.24
  -1  -3   5  143.05    8.33
   1  -3  -5  151.99    7.36
   1  -3  -5  146.74    6.96
   1  -3  -5  150.51    7.51
  -1  -3   5  145.46    7.02
   1  -3  -5  128.46    8.48
   1  -3  -5  149.78    7.03
  -1  -3   5  147.10    7.10
   1  -3  -5  156.41    9.19
   1  -3  -5  135.32    9.61
  -1  -3   5  138.78    7.51
   1  -3  -5  149.84    8.27
   1   3  -5  139.72    8.73
  -1   3   5  150.43    8.57
   1   3  -5  150.29    8.31
   1   3  -5  146.82    9.07
   1   3  -5  144.62    7.09
  -1   3   5  151.47    7.03
  -1   3   5  148.28    7.20
  -1   3   5  145.10    9.61
  -1   3   5  159.76    7.41
  -1   3   5  143.71    6.94
   1   3  -5  157.72    7.83
   1  -3   5  284.18   13.75
  -1  -3  -5  259.33   13.81
  -1  -3  -5  274.42   13.00
   1  -3   5  321.39   16.20
  -1  -3  -5  291.85   13.54
  -1  -3  -5  277.71   12.94
   1  -3   5  270.74   12.95
  -1  -3  -5  296.34   17.48
  -1  -3  -5  271.59   15.85
   1  -3   5  281.37   13.05
   1  -3   5  280.23   15.73
  -1   3  -5  278.59   15.77
   1   3   5  301.54   17.33
   1   3   5  291.19   13.35
   1   3   5  287.53   13.71
   1   3   5  264.91   12.98
  -1   3  -5  280.96   12.99
   1   3   5  260.40   16.41
   1   3   5  279.05   12.93
   1   3   5  295.93   15.86
  -1   3  -5  290.56   13.89
  -1   3  -5  297.79   13.09
   3  -3   5  100.34    6.19
  -3  -3  -5  122.68    5.74
   3  -3   5  117.73    7.55
   3  -3   5  122.13    7.30
  -3  -3  -5  112.66    6.72
   3  -3   5  118.78    5.83
  -3  -3  -5  118.27    7.75
  -3  -3  -5  120.12    5.88
  -3  -3  -5  126.16    7.40
   3  -3   5  115.67    5.68
   3   3   5  109.76    6.48
   3   3   5  115.64    5.81
  -3   3  -5  120.67    5.79
   3   3   5  113.62    7.60
   3   3   5  113.88    5.71
  -3   3  -5  120.61    6.44
   3   3   5  118.00    5.69
  -3   3  -5  112.43    5.79
  -3   3  -5  133.38    6.07
   3   3   5  116.19    7.50
  -5  -3  -5   99.85    7.15
   5  -3   5  113.12    5.43
  -5  -3  -5  113.52    5.34
  -5  -3  -5  104.50    7.61
   5  -3   5  111.08    7.25
  -5  -3  -5   90.43    6.88
   5  -3   5   98.78    5.21
   5  -3   5  107.03    6.13
   5   3   5   98.44    5.45
  -5   3  -5  101.85    5.31
   5   3   5  121.33    5.58
  -5   3  -5  109.54    6.82
   5   3   5  100.22    6.68
   5   3   5   99.27    8.19
   5   3   5  113.93    7.62
   5   3   5  101.94    5.34
   5   3   5  112.81    7.36
   5   3   5  115.17    5.28
   7  -3   5   97.35    7.47
  -7  -3  -5  103.09    7.72
   7  -3   5   88.74    8.03
   7   3   5   97.79    7.67
   7   3   5   83.62    4.89
   7   3   5   87.49    8.26
   8  -4  -5  102.53    6.85
   8  -4  -5   87.48    8.04
   8  -4  -5   78.64   10.83
  -8  -4   5   91.89    5.50
   8   4  -5  100.43    8.28
   8   4  -5   83.53    8.62
   8   4  -5   62.22   10.12
   6  -4  -5  109.20    7.44
   6  -4  -5  109.65    6.55
  -6  -4   5  110.12    5.88
   6  -4  -5   88.99    9.41
   6  -4  -5  106.97    5.37
   6  -4  -5  101.57    5.80
   6  -4  -5  118.80    5.72
   6   4  -5  102.71    5.90
  -6   4   5  111.64    9.49
   6   4  -5  102.34    9.79
  -6   4   5  102.58    5.33
   6   4  -5  107.49    7.74
   6   4  -5  102.64    8.15
   6   4  -5  106.98    5.82
   4  -4  -5   97.92    5.21
   4  -4  -5  101.50    6.67
   4  -4  -5   99.08    5.50
  -4  -4   5   97.97    5.34
  -4  -4   5  104.41    5.30
   4  -4  -5   99.77    5.80
   4  -4  -5  100.49    5.07
   4  -4  -5   97.88    7.25
  -4  -4   5   98.43    7.72
   4  -4  -5  104.26    6.44
   4   4  -5  101.79    5.36
  -4   4   5  104.65    6.14
   4   4  -5  102.98    5.36
   4   4  -5   90.55    7.92
  -4   4   5   94.47    8.26
  -4   4   5  106.05    5.28
  -4   4   5   99.14    5.64
   4   4  -5   98.40    6.85
   4   4  -5   94.73    6.65
   4   4  -5   95.77    6.39
  -4   4   5   97.31    5.04
  -2  -4   5  156.30    9.77
   2  -4  -5  154.62    9.46
  -2  -4   5  148.86    7.29
   2  -4  -5  147.43    7.67
   2  -4  -5  139.25    7.62
   2  -4  -5  135.07    9.96
   2  -4  -5  152.43    8.79
  -2  -4   5  148.48    7.92
  -2  -4   5  165.70    8.45
  -2  -4   5  146.91    7.20
   2  -4  -5  139.64    7.17
   2  -4  -5  150.87    7.10
   2  -4  -5  143.57    8.53
   2   4  -5  136.92    8.13
   2   4  -5  142.51    7.85
   2   4  -5  143.48    7.20
  -2   4   5  151.79    7.09
   2   4  -5  138.39    9.53
  -2   4   5  155.24    7.52
  -2   4   5  141.40    7.18
   2   4  -5  152.16    7.31
  -2   4   5  149.29    7.45
  -2   4   5  142.30   10.34
   2   4  -5  144.64    9.06
   0  -4  -5  165.35   10.78
   0  -4   5  170.24    8.99
   0  -4  -5  173.81    8.47
   0  -4   5  180.17   10.02
   0  -4  -5  180.43   10.20
   0  -4   5  191.50    8.56
   0  -4  -5  175.10   11.47
   0  -4  -5  174.11    8.32
   0  -4   5  177.36   10.78
   0  -4  -5  173.42    8.84
   0  -4   5  173.27    8.40
   0  -4  -5  168.59    9.07
   0  -4  -5  161.05   10.05
   0   4  -5  186.85   10.80
   0   4   5  173.06    8.59
   0   4  -5  179.14    8.94
   0   4   5  171.33   10.66
   0   4  -5  185.17   10.35
   0   4   5  176.70    8.44
   0   4  -5  184.44    9.25
   0   4  -5  166.16    8.38
   0   4   5  187.93    8.96
   0   4   5  181.30   10.18
   0   4  -5  163.65   10.83
   0   4  -5  181.73    8.52
   0   4   5  174.23   11.31
   0   4   5  174.20    8.31
  -2  -4  -5  162.72    9.08
   2  -4   5  142.13    9.17
  -2  -4  -5  138.77    6.99
   2  -4   5  138.82    7.15
  -2  -4  -5  146.00    7.19
   2  -4   5  149.99    7.71
  -2  -4  -5  151.27    7.44
   2  -4   5  139.82    7.02
  -2  -4  -5  143.21    8.03
   2  -4   5  155.83    8.76
  -2  -4  -5  140.03    9.25
   2   4   5  140.72    9.71
   2   4   5  143.37    7.84
  -2   4  -5  143.41    7.92
   2   4   5  139.76    7.14
   2   4   5  160.79    9.19
  -2   4  -5  150.06    7.43
  -2   4  -5  142.37    7.15
  -2   4  -5  132.55    7.03
   2   4   5  145.53    7.14
   2   4   5  147.02    8.67
   2   4   5  143.90    6.99
   4  -4   5  128.56    8.64
   4  -4   5  121.36    6.95
   4  -4   5  125.49    8.01
   4  -4   5  133.21    6.33
  -4  -4  -5  108.22    8.00
   4  -4   5  125.99    6.11
  -4  -4  -5  125.91    6.18
  -4  -4  -5  124.12    7.70
  -4  -4  -5  128.16    8.68
   4   4   5  112.68    6.38
   4   4   5  122.93    8.07
  -4   4  -5  127.37    7.31
   4   4   5  124.27    6.13
   4   4   5  128.21    9.22
  -4   4  -5  122.22    6.24
   4   4   5  125.51    7.59
   4   4   5  120.42    8.23
   6  -4   5   88.29    6.08
   6  -4   5   90.33    6.93
  -6  -4  -5   94.61    7.41
   6  -4   5   82.41    4.54
  -6  -4  -5   90.93    4.75
   6   4   5   74.07    7.42
   6   4   5   76.14    6.13
   6   4   5   81.27    4.82
   6   4   5   95.23    7.10
   7  -5  -5   70.27    9.77
   7  -5  -5   94.98    6.96
   7  -5  -5   99.68    7.97
  -7  -5   5  103.89    6.01
   7   5  -5   98.09    8.23
   7   5  -5   89.85    8.64
   7   5  -5   86.77   11.53
  -7   5   5  101.51    5.20
   5  -5  -5   60.02    4.76
   5  -5  -5   66.48    5.98
   5  -5  -5   66.26    5.32
   5  -5  -5   67.73    3.83
   5  -5  -5   50.05    6.78
  -5  -5   5   66.95    4.41
   5  -5  -5   65.92    4.46
   5  -5  -5   61.61    4.43
  -5   5   5   63.13    3.73
  -5   5   5   59.62    8.39
   5   5  -5   68.86    4.32
   5   5  -5   63.38    5.56
   5   5  -5   54.81    7.88
   3  -5  -5  167.33    9.53
   3  -5  -5  165.50   10.28
  -3  -5   5  164.86    8.07
   3  -5  -5  156.22    9.72
   3  -5  -5  148.77   11.14
  -3  -5   5  157.12    7.98
  -3  -5   5  168.66   11.22
   3  -5  -5  165.76    8.49
   3  -5  -5  152.51    7.94
   3  -5  -5  163.98    8.66
   3  -5  -5  153.00    7.75
   3   5  -5  147.57    7.91
  -3   5   5  156.40    8.28
  -3   5   5  152.16    7.94
   3   5  -5  152.73    9.39
  -3   5   5  160.27    8.23
   3   5  -5  156.30    8.05
  -3   5   5  160.94    7.73
   3   5  -5  165.99    9.19
  -3   5   5  178.50   12.12
   3   5  -5  154.82   10.06
   1  -5  -5  102.31    6.92
  -1  -5   5   98.53    5.44
  -1  -5   5  103.38    7.61
   1  -5  -5  101.47    7.59
   1  -5  -5   99.53    5.42
   1  -5  -5  104.34    5.84
   1  -5  -5  100.74    6.01
   1  -5  -5   97.62    6.50
  -1  -5   5   95.77    5.90
   1  -5  -5   98.49    5.18
  -1  -5   5   98.62    6.00
   1  -5  -5  104.79    6.73
  -1  -5   5   99.53    5.39
   1   5  -5  111.23    7.40
   1   5  -5  104.61    7.10
  -1   5   5   96.92    7.59
   1   5  -5   93.99    6.44
   1   5  -5   99.28    6.21
   1   5  -5   99.86    5.46
  -1   5   5  103.53    5.81
   1   5  -5   95.03    5.36
  -1   5   5  100.71    5.50
  -1   5   5   94.03    5.13
  -1   5   5   95.19    5.38
   1   5  -5  102.18    6.41
  -1  -5  -5   35.44    3.75
  -1  -5  -5   34.71    2.52
  -1  -5  -5   30.66    3.31
  -1  -5  -5   37.04    2.94
   1  -5   5   34.96    3.15
   1  -5   5   38.98    3.28
   1  -5   5   31.70    4.34
  -1  -5  -5   39.45    3.90
  -1  -5  -5   30.08    3.64
  -1  -5  -5   32.67    3.66
  -1  -5  -5   32.90    4.27
   1  -5   5   34.78    2.84
   1  -5   5   32.43    2.61
   1   5   5   34.29    3.64
  -1   5  -5   36.64    3.54
  -1   5  -5   36.56    4.19
   1   5   5   32.02    3.32
  -1   5  -5   28.68    2.74
  -1   5  -5   32.03    3.64
   1   5   5   35.88    2.67
   1   5   5   32.91    2.81
   1   5   5   35.58    2.49
   1   5   5   30.55    3.27
   1   5   5   35.31    4.36
  -1   5  -5   32.21    2.79
  -1   5  -5   29.90    2.66
  -3  -5  -5  173.13    8.15
  -3  -5  -5  169.27    9.57
  -3  -5  -5  170.74    8.46
   3  -5   5  180.62   10.20
   3  -5   5  162.78    8.91
  -3  -5  -5  165.03   10.95
   3  -5   5  160.11   10.77
   3  -5   5  156.53    8.09
   3  -5   5  169.80    8.32
   3   5   5  157.45   10.54
   3   5   5  167.41    8.41
   3   5   5  171.06   11.63
  -3   5  -5  162.80    8.24
   3   5   5  161.11    9.70
   3   5   5  143.04    8.29
   3   5   5  164.73    8.08
  -3   5  -5  184.88    9.48
   3   5   5  168.24    9.83
   5  -5   5  123.24    6.75
  -5  -5  -5  129.53    8.83
   5  -5   5  133.40    7.84
   5  -5   5  136.29    8.93
  -5  -5  -5  129.14    6.71
   5   5   5  133.44    8.65
   5   5   5  126.50    9.15
   5   5   5  128.04    6.62
  -5   5  -5  124.39    6.75
   6  -6  -5   99.83    9.66
  -6  -6   5  103.11    6.54
   6  -6  -5  104.53    7.28
   6  -6  -5  107.11    8.03
   6  -6  -5  102.72    5.72
   6   6  -5   99.53    6.39
  -6   6   5  107.21    5.71
   6   6  -5   82.60   11.07
   6   6  -5  108.05    8.60
   4  -6  -5   67.67    4.20
   4  -6  -5   70.02    7.05
   4  -6  -5   71.43    6.00
   4  -6  -5   68.10    5.03
   4  -6  -5   68.82    5.61
  -4  -6   5   70.61    4.87
   4  -6  -5   67.06    5.32
  -4  -6   5   70.60    4.77
  -4   6   5   70.70    4.15
   4   6  -5   72.77    4.75
   4   6  -5   60.74    8.02
   4   6  -5   66.15    5.91
  -4   6   5   67.64    4.70
   2  -6  -5   32.26    3.61
   2  -6  -5   28.57    2.64
  -2  -6   5   25.58    5.25
   2  -6  -5   30.79    3.95
   2  -6  -5   32.61    3.87
  -2  -6   5   31.73    3.19
   2  -6  -5   34.43    4.74
   2  -6  -5   30.52    3.77
   2  -6  -5   33.19    3.27
  -2  -6   5   35.40    3.29
  -2  -6   5   29.81    3.91
   2   6  -5   29.35    3.26
  -2   6   5   30.01    5.08
   2   6  -5   31.00    3.08
   2   6  -5   33.23    4.09
  -2   6   5   29.20    3.42
  -2   6   5   33.59    3.73
   2   6  -5   28.65    4.43
   2   6  -5   33.00    3.52
  -2   6   5   30.69    2.55
  -2   6   5   31.16    3.25
   2   6  -5   26.04    4.00
   0  -6  -5  121.62    6.27
   0  -6  -5  119.33    7.76
   0  -6   5  119.48    7.32
   0  -6  -5  112.70    8.29
   0  -6   5  112.05    8.97
   0  -6   5  120.78    6.50
   0  -6   5  122.09    7.06
   0  -6  -5  121.84    7.11
   0  -6  -5  117.54    8.91
   0  -6  -5  117.67    7.33
   0  -6  -5  121.73    6.60
   0  -6   5  120.40    6.39
   0  -6  -5  110.25    8.22
   0   6   5  122.67    7.19
   0   6   5  119.81    6.19
   0   6  -5  116.31    8.61
   0   6  -5  123.13    7.62
   0   6   5  122.60    9.11
   0   6  -5   96.67    7.55
   0   6  -5  129.81    6.53
   0   6  -5  112.18    6.45
   0   6   5  110.94    6.48
   0   6   5  124.83    6.55
   0   6  -5  117.90    7.49
   0   6   5  119.97    8.00
  -2  -6  -5  135.59    8.51
  -2  -6  -5  142.56    7.23
   2  -6   5  141.52    8.03
   2  -6   5  144.61    7.43
   2  -6   5  131.44    8.71
  -2  -6  -5  144.05    8.11
  -2  -6  -5  141.40    7.62
  -2   6  -5  142.31    7.31
   2   6   5  135.41    7.40
   2   6   5  139.65    7.12
   2   6   5  136.52    9.28
  -2   6  -5  129.57    7.25
   4  -6   5   57.76    4.20
  -4  -6  -5   57.21    4.02
   4  -6   5   61.66    5.61
   4  -6   5   56.38    4.96
  -4  -6  -5   59.01    6.37
   4   6   5   59.81    5.65
   4   6   5   50.97    4.90
  -4   6  -5   51.33    4.04
   4   6   5   54.24    4.39
   4   6   5   57.28    3.98
   5  -7  -5   65.03    4.53
   5  -7  -5   60.52    6.42
  -5  -7   5   63.52    5.37
   5  -7  -5   66.97    6.13
   5  -7  -5   58.19    7.43
   5  -7  -5   61.70    5.57
   5   7  -5   60.51    8.23
   5   7  -5   58.97    5.16
  -5   7   5   63.71    4.29
   5   7  -5   52.30    6.45
   3  -7  -5   90.56    8.01
   3  -7  -5   83.33    6.58
   3  -7  -5   89.31    6.35
   3  -7  -5   82.97    5.08
  -3  -7   5   84.45    5.98
  -3  -7   5   84.25    5.75
   3   7  -5   81.43    6.83
  -3   7   5   78.68    4.94
   3   7  -5   80.31    8.51
   3   7  -5   89.01    5.64
  -3   7   5   78.28    5.67
   1  -7  -5   34.89    5.12
  -1  -7   5   41.25    4.68
   1  -7  -5   40.30    4.88
   1  -7  -5   40.08    4.62
  -1  -7   5   35.92    3.93
  -1  -7   5   39.18    3.85
   1  -7  -5   44.37    3.48
   1  -7  -5   38.50    5.44
   1  -7  -5   35.04    4.99
  -1   7   5   37.44    4.34
   1   7  -5   40.47    5.96
  -1   7   5   34.76    3.24
   1   7  -5   35.23    4.39
   1   7  -5   44.30    3.91
   1   7  -5   36.62    6.21
  -1  -7  -5   34.76    4.38
   1  -7   5   41.57    3.82
   1  -7   5   37.16    4.15
  -1  -7  -5   35.30    4.31
   1  -7   5   31.89    3.84
  -1  -7  -5   40.30    3.59
  -1  -7  -5   33.15    4.37
   1   7   5   36.45    4.03
  -1   7  -5   37.03    3.64
  -1   7  -5   30.35    4.40
  -1   7  -5   37.26    4.13
   1   7   5   35.84    3.43
   1   7   5   35.73    4.42
   3  -7   5   82.95    5.68
   3  -7   5   86.58    7.02
   3  -7   5   88.10    6.73
  -3  -7  -5   90.88    7.67
  -3  -7  -5   99.06    5.76
   3   7   5   89.36    6.06
   3   7   5   83.89    7.34
   3   7   5   96.29    5.55
  -3   7  -5   88.62    5.76
   2  -8  -5   80.50    7.31
  -2  -8   5   74.03    7.26
   2  -8  -5   83.86    7.06
   2  -8  -5   84.54    5.54
  -2  -8   5   79.32    6.02
   2  -8  -5   77.50    8.35
   2   8  -5   96.52    7.58
  -2   8   5   81.96    5.34
   2   8  -5   64.09    9.12
   2   8  -5   72.41    5.90
   0  -8   5   32.05    4.48
   0  -8   5   41.15    4.49
   0  -8  -5   47.39    4.39
   0  -8  -5   36.37    5.00
   0  -8   5   41.15    4.43
   0  -8  -5   41.35    5.03
   0   8   5   43.80    5.12
   0   8   5   40.11    4.05
   0   8  -5   41.93    4.55
   2  -8   5   60.87    5.22
  -2  -8  -5   60.33    7.48
   2  -8   5   65.10    6.85
   2  -8   5   59.68    6.07
   2   8   5   63.68    5.14
   2   8   5   56.90    6.69
   8   0  -6   75.88    6.17
   8   0  -6   85.22    6.39
   8   0  -6   72.42    3.89
   8   0  -6   74.56    5.95
   8   0  -6   81.34    6.28
   8   0  -6   70.78    7.17
   8   0  -6   65.13    7.07
   6   0  -6  153.22    7.16
   6   0  -6  156.79    8.88
   6   0  -6  158.91    7.12
   6   0  -6  135.04    9.40
  -6   0   6  151.60    7.17
  -6   0   6  152.69    9.35
   6   0  -6  127.49    9.90
   4   0  -6  306.12   15.34
   4   0  -6  323.95   15.26
   4   0  -6  375.08   18.93
  -4   0   6  357.26   20.46
  -4   0   6  315.37   15.27
  -4   0   6  329.37   15.38
   4   0  -6  318.67   18.41
  -4   0   6  355.18   18.83
   4   0  -6  333.80   20.25
  -2   0   6  275.19   14.97
   2   0  -6  268.15   12.32
  -2   0   6  263.93   12.34
   2   0  -6  258.83   14.90
  -2   0   6  269.46   16.21
   2   0  -6  268.95   12.82
   2   0  -6  255.58   14.72
   2   0  -6  265.76   16.09
   2   0  -6  280.04   12.28
  -2   0   6  267.50   12.28
  -2   0   6  249.99   14.70
   0   0   6  227.17   12.36
   0   0   6  214.17   10.15
   0   0  -6  219.61   10.64
   0   0   6  214.71   10.10
   0   0   6  226.21   10.68
   0   0  -6  204.85   13.13
   0   0  -6  208.41   10.11
   0   0   6  215.59   13.15
   0   0   6  229.48   12.20
   0   0  -6  211.76   10.07
  -2   0  -6  144.93    6.82
   2   0   6  147.32    8.49
   2   0   6  153.67    8.12
  -2   0  -6  142.38    8.53
  -2   0  -6  143.65    7.34
   2   0   6  134.63    8.65
  -2   0  -6  132.29    8.42
   2   0   6  135.13    6.81
   2   0   6  151.42    6.74
  -2   0  -6  143.76    6.82
   2   0   6  128.87    7.28
   2   0   6  145.57    6.85
   4   0   6   18.54    2.55
   4   0   6   20.87    2.69
   4   0   6   18.95    2.16
   4   0   6   21.95    1.96
   4   0   6   19.63    1.87
   4   0   6   19.27    2.08
  -4   0  -6   16.82    1.77
  -4   0  -6   18.70    2.68
   4   0   6   24.07    2.44
  -4   0  -6   19.64    2.19
  -4   0  -6   18.52    2.31
   4   0   6   17.73    1.54
   6   0   6  117.45    7.73
   6   0   6  106.40    7.74
   6   0   6  105.64    7.74
   6   0   6  120.00    7.04
   6   0   6   95.64    7.99
   9  -1  -6   63.73    5.93
   9  -1  -6   61.91    5.91
   9  -1  -6   55.78    7.92
   9  -1  -6   61.91    8.85
   9   1  -6   49.74    7.67
   9   1  -6   44.72    7.08
   9   1  -6   61.40    6.37
   9   1  -6   64.89    6.60
   7  -1  -6  178.50   10.60
   7  -1  -6  184.83    9.08
   7  -1  -6  170.17   12.00
   7  -1  -6  172.17    9.39
   7  -1  -6  175.26    8.06
   7  -1  -6  163.76   10.94
   7  -1  -6  161.37    9.36
   7  -1  -6  182.55    8.27
  -7  -1   6  173.74    8.22
   7   1  -6  169.22    8.16
  -7   1   6  183.64    8.26
   7   1  -6  168.77    8.20
   7   1  -6  176.40    9.61
   7   1  -6  154.08   11.48
   7   1  -6  170.75   11.07
   7   1  -6  156.47   11.29
   5  -1  -6  234.61   11.27
   5  -1  -6  211.49   14.15
  -5  -1   6  205.42   13.07
   5  -1  -6  229.59   12.71
  -5  -1   6  221.92   10.55
   5  -1  -6  232.28   13.02
  -5  -1   6  218.83   10.34
   5  -1  -6  210.31   11.16
   5  -1  -6  219.14   10.56
   5  -1  -6  226.04   10.26
  -5   1   6  211.48   10.57
   5   1  -6  225.00   10.36
   5   1  -6  233.49   10.53
   5   1  -6  234.14   13.28
  -5   1   6  229.48   12.94
  -5   1   6  230.63   14.31
   5   1  -6  200.93   12.42
  -5   1   6  232.54   10.31
   5   1  -6  216.07   13.87
  -3  -1   6  412.98   22.93
   3  -1  -6  418.78   25.53
   3  -1  -6  427.93   20.18
  -3  -1   6  409.10   19.14
  -3  -1   6  453.14   25.31
   3  -1  -6  401.15   23.28
   3  -1  -6  432.15   20.20
  -3  -1   6  424.30   23.59
   3  -1  -6  414.62   19.23
   3  -1  -6  426.97   23.12
   3  -1  -6  430.37   19.09
  -3  -1   6  444.72   19.17
   3   1  -6  440.51   19.17
  -3   1   6  425.96   23.11
  -3   1   6  404.05   19.19
   3   1  -6  420.30   22.99
  -3   1   6  374.61   25.42
  -3   1   6  415.49   23.27
   3   1  -6  441.03   25.15
  -3   1   6  453.99   19.13
   3   1  -6  423.95   19.18
   3   1  -6  393.46   23.51
   1  -1  -6  235.41   11.19
   1  -1  -6  257.71   15.00
  -1  -1   6  245.62   11.31
   1  -1  -6  226.97   11.86
  -1  -1   6  263.47   14.67
  -1  -1   6  226.71   13.60
  -1  -1   6  273.11   13.92
   1  -1  -6  230.25   11.21
  -1  -1   6  234.23   11.18
   1  -1  -6  228.39   11.64
  -1   1   6  242.89   14.97
  -1   1   6  258.25   13.49
  -1   1   6  236.21   11.23
   1   1  -6  240.47   14.51
   1   1  -6  240.95   13.84
  -1   1   6  204.27   11.83
   1   1  -6  259.70   11.89
   1   1  -6  258.36   13.69
  -1   1   6  235.80   11.17
  -1   1   6  268.25   13.70
   1   1  -6  248.23   11.29
   1   1  -6  232.77   11.20
  -1  -1  -6  184.89    8.94
  -1  -1  -6  190.13   11.34
  -1  -1  -6  188.81    8.98
  -1  -1  -6  190.30   11.85
   1  -1   6  171.17    8.90
   1  -1   6  196.40   10.95
   1  -1   6  192.49    9.02
  -1  -1  -6  190.84    9.57
   1  -1   6  201.69   10.97
   1  -1   6  211.69    9.24
  -1  -1  -6  198.78   11.12
   1   1   6  196.25    9.39
   1   1   6  192.22    8.98
  -1   1  -6  190.83   11.40
  -1   1  -6  176.06    8.96
  -1   1  -6  188.96   11.00
  -1   1  -6  177.76   10.92
   1   1   6  199.90   11.14
   1   1   6  190.32   11.69
  -1   1  -6  210.28    9.50
  -1   1  -6  187.59    8.98
   1   1   6  188.38    8.92
  -3  -1  -6  154.38    8.97
  -3  -1  -6  144.83    6.94
  -3  -1  -6  139.29    7.68
  -3  -1  -6  143.93    8.92
   3  -1   6  139.45    8.72
   3  -1   6  155.91    8.61
   3  -1   6  152.37    7.05
   3  -1   6  134.99    7.15
  -3  -1  -6  148.99    7.06
   3  -1   6  143.98    6.98
   3   1   6  145.46    8.16
   3   1   6  123.07    8.68
   3   1   6  143.32    8.86
  -3   1  -6  143.29    8.80
  -3   1  -6  153.81    7.02
   3   1   6  142.23    7.02
   3   1   6  150.92    9.21
   3   1   6  150.34    7.46
  -3   1  -6  154.41    7.00
  -3   1  -6  157.84    7.51
   3   1   6  146.25    6.96
  -5  -1  -6   40.40    4.60
   5  -1   6   29.93    2.73
   5  -1   6   36.06    3.88
  -5  -1  -6   36.14    3.64
  -5  -1  -6   38.01    4.12
  -5  -1  -6   35.03    2.45
   5  -1   6   42.25    2.45
   5  -1   6   37.81    3.95
  -5   1  -6   39.75    2.37
   5   1   6   34.82    2.57
   5   1   6   27.05    4.01
   5   1   6   41.68    4.16
   5   1   6   36.36    3.30
   5   1   6   35.74    4.03
   5   1   6   36.36    2.41
   5   1   6   32.65    3.48
   7  -1   6   38.29    5.17
   7  -1   6   39.60    3.90
   7  -1   6   35.22    5.58
   7   1   6   38.39    5.60
   7   1   6   41.76    5.34
   7   1   6   35.48    4.53
   8  -2  -6  133.53   11.41
   8  -2  -6  139.16    6.54
   8  -2  -6  128.90    9.69
   8  -2  -6  129.60    8.19
   8   2  -6  135.18    9.34
   8   2  -6  128.92    6.58
   8   2  -6  123.65   10.88
   8   2  -6  116.25    9.61
   6  -2  -6   93.86    4.86
   6  -2  -6   96.18    8.31
   6  -2  -6   93.58    5.83
   6  -2  -6   83.52    5.66
   6  -2  -6   99.04    6.79
  -6  -2   6   95.67    7.29
  -6  -2   6   92.83    5.05
   6  -2  -6  106.01    5.45
   6  -2  -6  102.99    6.72
   6   2  -6  101.58    6.32
   6   2  -6   97.78    5.23
   6   2  -6   95.61    5.01
  -6   2   6   99.85    7.92
   6   2  -6   89.02    7.02
   6   2  -6   88.29    5.87
   6   2  -6   91.63    7.42
  -6   2   6  107.50    5.32
   6   2  -6   93.60    6.75
   4  -2  -6  162.89    7.98
   4  -2  -6  146.93    8.98
   4  -2  -6  134.29    7.84
  -4  -2   6  171.84    9.71
   4  -2  -6  160.19    7.30
   4  -2  -6  140.75    7.18
  -4  -2   6  153.11    7.30
   4  -2  -6  148.59   10.66
   4  -2  -6  152.37    9.08
  -4  -2   6  151.17    7.33
   4   2  -6  144.61    9.42
  -4   2   6  147.17   10.39
   4   2  -6  153.94    9.78
  -4   2   6  144.65    7.23
   4   2  -6  155.08    7.34
   4   2  -6  159.68    7.37
  -4   2   6  156.67    7.25
   4   2  -6  156.46    8.75
  -2  -2   6  435.00   26.27
  -2  -2   6  476.22   21.24
   2  -2  -6  457.99   22.38
   2  -2  -6  461.22   21.18
   2  -2  -6  491.96   25.80
   2  -2  -6  448.27   21.21
   2  -2  -6  525.81   25.84
   2  -2  -6  495.80   22.37
   2  -2  -6  509.90   28.54
  -2  -2   6  413.82   25.61
  -2  -2   6  469.39   21.30
   2   2  -6  487.57   26.38
  -2   2   6  433.27   22.38
  -2   2   6  486.19   21.26
  -2   2   6  473.99   21.19
  -2   2   6  510.95   28.53
   2   2  -6  476.93   21.33
   2   2  -6  458.47   22.62
  -2   2   6  431.69   25.73
   2   2  -6  455.50   21.25
   2   2  -6  509.39   27.90
   2   2  -6  468.53   25.68
   0  -2  -6  128.98    9.01
   0  -2   6  149.07    7.08
   0  -2  -6  150.62    7.03
   0  -2  -6  132.28    9.48
   0  -2  -6  147.67    7.15
   0  -2   6  146.75    7.39
   0  -2   6  142.17    6.96
   0  -2  -6  166.29    8.76
   0  -2  -6  149.24    7.61
   0  -2  -6  140.11    6.92
   0  -2   6  149.12    8.55
   0  -2   6  161.44    8.93
   0   2  -6  158.71    8.97
   0   2   6  146.10    7.02
   0   2  -6  134.50    8.53
   0   2  -6  143.76    7.02
   0   2   6  149.68    7.40
   0   2  -6  158.04    8.89
   0   2   6  152.13    8.72
   0   2   6  145.91    9.43
   0   2   6  141.72    6.92
   0   2  -6  147.42    7.10
   2  -2   6   70.62    4.26
   2  -2   6   73.41    5.07
   2  -2   6   76.82    3.98
  -2  -2  -6   76.59    4.06
   2  -2   6   76.39    5.29
  -2  -2  -6   71.40    5.43
  -2  -2  -6   84.12    5.41
   2  -2   6   81.87    4.18
  -2  -2  -6   80.66    4.01
  -2  -2  -6   79.00    4.81
  -2   2  -6   81.05    4.14
  -2   2  -6   74.55    4.05
   2   2   6   83.75    4.63
  -2   2  -6   80.61    4.50
  -2   2  -6   91.86    5.38
   2   2   6   73.41    3.94
   2   2   6   78.16    5.17
   2   2   6   75.50    4.08
   2   2   6   81.99    5.57
  -2   2  -6   88.38    4.51
   2   2   6   79.65    5.58
   4  -2   6  119.08    5.67
   4  -2   6  132.68    7.43
  -4  -2  -6  114.30    6.85
  -4  -2  -6  117.69    7.65
  -4  -2  -6  121.46    7.58
   4  -2   6  106.10    7.36
   4  -2   6  107.54    5.67
   4  -2   6  109.43    6.02
  -4  -2  -6  119.83    5.70
  -4   2  -6  109.27    5.63
   4   2   6  114.82    7.32
   4   2   6  117.54    5.67
  -4   2  -6  115.02    6.34
   4   2   6   95.59    7.88
   4   2   6  119.27    5.62
   4   2   6  119.25    6.49
  -4   2  -6   93.44    5.99
   4   2   6  123.83    7.64
   6  -2   6   58.70    3.80
   6  -2   6   68.51    6.32
   6  -2   6   75.62    3.79
   6  -2   6   77.47    5.97
  -6  -2  -6   71.45    6.25
   6  -2   6   70.25    4.72
  -6  -2  -6   71.37    6.22
   6   2   6   68.25    3.96
   6   2   6   69.06    4.03
   6   2   6   82.11    7.15
   6   2   6   68.95    5.81
   6   2   6   67.72    6.41
   6   2   6   73.41    5.65
   6   2   6   71.03    5.72
  -7  -3   6   79.35    4.56
   7  -3  -6   65.03    5.28
   7  -3  -6   65.39    6.47
   7  -3  -6   73.40    4.33
   7  -3  -6   70.79    8.78
   7  -3  -6   72.44    4.87
   7  -3  -6   73.25    4.75
   7   3  -6   72.39    6.67
   7   3  -6   71.38    6.11
   7   3  -6   76.98    4.86
  -7   3   6   78.73    4.69
   7   3  -6   73.09    4.46
   7   3  -6   73.62    8.34
   5  -3  -6  248.64   11.80
   5  -3  -6  276.19   12.58
   5  -3  -6  229.31   16.89
  -5  -3   6  267.88   15.47
  -5  -3   6  256.42   11.91
   5  -3  -6  263.91   14.78
   5  -3  -6  273.57   14.84
  -5  -3   6  251.36   11.98
   5  -3  -6  261.68   12.92
   5  -3  -6  251.57   11.85
  -5   3   6  242.41   16.55
   5   3  -6  243.43   11.94
   5   3  -6  258.46   13.08
   5   3  -6  263.02   12.01
   5   3  -6  240.26   15.75
   5   3  -6  258.21   13.81
   5   3  -6  236.14   15.39
   5   3  -6  257.47   15.99
  -5   3   6  263.01   11.80
   3  -3  -6  158.82    9.20
  -3  -3   6  154.59    7.47
   3  -3  -6  149.52    7.36
  -3  -3   6  150.13    7.53
   3  -3  -6  159.79    9.07
  -3  -3   6  163.07    8.72
   3  -3  -6  156.56   10.70
   3  -3  -6  143.33    7.41
   3  -3  -6  156.02    8.00
  -3  -3   6  143.55    9.89
   3  -3  -6  161.74    8.00
   3   3  -6  142.90    8.52
   3   3  -6  152.20    7.53
  -3   3   6  145.70    8.27
   3   3  -6  156.93   10.05
   3   3  -6  153.03    8.74
  -3   3   6  160.57    7.48
   3   3  -6  150.10    8.12
   3   3  -6  159.04    7.54
  -3   3   6  163.77    7.39
   3   3  -6  149.73    9.54
  -3   3   6  175.79   10.84
   3   3  -6  154.74    9.87
  -1  -3   6   99.83    6.75
  -1  -3   6   90.76    5.93
   1  -3  -6   94.35    4.92
  -1  -3   6   94.89    4.98
  -1  -3   6   90.14    5.32
   1  -3  -6   99.40    5.50
  -1  -3   6   95.82    4.90
   1  -3  -6   97.57    5.67
   1  -3  -6   99.82    6.15
   1  -3  -6   99.72    4.87
   1  -3  -6   97.47    5.17
   1   3  -6   99.98    6.71
  -1   3   6   98.29    7.09
   1   3  -6   99.95    5.02
   1   3  -6   94.37    5.82
   1   3  -6   96.68    6.07
  -1   3   6   98.14    4.85
  -1   3   6  104.71    5.31
  -1   3   6  101.94    4.98
  -1   3   6   97.19    4.95
  -1   3   6   90.98    5.99
   1   3  -6   97.56    4.97
   1   3  -6   89.66    5.63
   1   3  -6  102.05    6.27
   1  -3   6  356.16   16.73
  -1  -3  -6  352.95   20.37
   1  -3   6  381.15   20.20
   1  -3   6  367.74   16.64
  -1  -3  -6  355.68   17.70
  -1  -3  -6  344.67   17.27
   1  -3   6  381.82   20.66
   1  -3   6  373.65   17.59
  -1  -3  -6  393.15   22.42
  -1  -3  -6  373.55   16.63
  -1  -3  -6  325.00   21.23
  -1  -3  -6  356.73   16.68
   1   3   6  358.84   16.59
   1   3   6  344.19   21.05
  -1   3  -6  385.86   20.26
   1   3   6  389.38   20.40
  -1   3  -6  382.92   17.77
   1   3   6  355.86   17.11
   1   3   6  352.27   16.66
   1   3   6  382.62   17.56
   1   3   6  368.67   22.10
  -1   3  -6  387.27   16.71
  -1   3  -6  347.67   16.71
  -3  -3  -6  114.33    5.92
   3  -3   6  120.07    7.72
   3  -3   6  121.95    5.92
  -3  -3  -6  115.17    6.91
  -3  -3  -6  110.66    7.57
   3  -3   6  111.50    5.71
  -3  -3  -6  117.01    5.77
   3  -3   6  118.68    7.40
  -3  -3  -6  112.82    7.83
   3  -3   6  109.08    6.28
  -3   3  -6  111.20    5.84
   3   3   6  119.47    6.64
  -3   3  -6  118.44    6.60
   3   3   6  112.58    7.72
   3   3   6  126.45    7.61
   3   3   6  124.95    8.26
  -3   3  -6  137.75    6.23
  -3   3  -6  112.21    5.86
   3   3   6  116.65    5.73
   3   3   6  112.71    5.90
  -5  -3  -6   30.34    4.83
  -5  -3  -6   40.77    4.97
   5  -3   6   36.49    2.77
   5  -3   6   36.33    4.06
   5  -3   6   34.03    2.56
   5  -3   6   41.65    5.24
   5  -3   6   31.95    3.39
  -5  -3  -6   36.72    2.70
  -5  -3  -6   33.25    4.62
   5   3   6   34.01    3.83
   5   3   6   37.07    5.41
   5   3   6   43.48    5.07
  -5   3  -6   35.47    2.67
  -5   3  -6   23.29    3.48
   5   3   6   34.42    4.49
   5   3   6   36.41    3.06
   5   3   6   39.14    2.49
  -7  -3  -6   84.03    8.22
   7  -3   6   87.76    8.43
   7  -3   6   94.20    7.84
   7  -3   6   94.47    6.40
   7   3   6   94.05    7.80
   7   3   6   82.38    8.33
   8  -4  -6   72.35    7.77
   8  -4  -6   67.70   10.49
  -8  -4   6   79.68    5.38
   8  -4  -6   79.20    6.49
   8   4  -6   81.34    7.67
   8   4  -6   69.73   10.06
   8   4  -6   68.35    7.80
   6  -4  -6   64.36    7.88
   6  -4  -6   57.44    4.16
   6  -4  -6   59.44    5.39
   6  -4  -6   60.99    3.64
   6  -4  -6   62.11    3.96
  -6  -4   6   59.01    4.16
   6  -4  -6   60.29    4.82
  -6   4   6   60.34    3.51
   6   4  -6   63.28    4.18
   6   4  -6   52.87    7.89
   6   4  -6   56.49    5.85
   6   4  -6   58.66    5.40
   4  -4  -6  109.49    5.38
  -4  -4   6  104.07    5.65
   4  -4  -6  105.68    5.95
  -4  -4   6  104.38    5.55
   4  -4  -6  106.26    6.80
   4  -4  -6  109.50    5.56
  -4  -4   6  109.33    8.26
   4  -4  -6  111.15    6.17
   4  -4  -6   99.82    6.97
   4   4  -6  105.88    7.57
   4   4  -6  104.46    5.66
  -4   4   6   98.46    5.52
   4   4  -6   92.26    7.03
  -4   4   6  108.83    8.72
  -4   4   6  107.41    6.49
   4   4  -6  112.70    8.55
   4   4  -6  103.13    6.75
   4   4  -6   98.70    7.17
  -4   4   6  104.41    5.97
   4   4  -6  104.43    5.64
  -4   4   6  107.07    5.32
  -2  -4   6  258.91   14.45
   2  -4  -6  232.84   11.68
   2  -4  -6  251.41   11.73
   2  -4  -6  224.07   14.34
   2  -4  -6  238.58   10.94
  -2  -4   6  193.37   11.77
  -2  -4   6  227.04   11.09
  -2  -4   6  254.67   13.19
   2  -4  -6  243.28   13.43
   2  -4  -6  237.34   13.15
  -2  -4   6  227.76   11.01
   2  -4  -6  233.50   11.04
  -2   4   6  227.97   11.03
   2   4  -6  233.03   12.94
   2   4  -6  232.64   14.22
   2   4  -6  238.57   11.14
  -2   4   6  241.48   10.93
   2   4  -6  233.07   12.24
  -2   4   6  231.30   11.42
  -2   4   6  240.68   11.54
   2   4  -6  226.39   11.78
  -2   4   6  216.09   15.29
   2   4  -6  237.55   13.92
   2   4  -6  230.38   11.04
   0  -4  -6  175.48   11.25
   0  -4  -6  175.52    9.45
   0  -4  -6  168.09   10.33
   0  -4  -6  177.11    8.76
   0  -4  -6  174.68   11.97
   0  -4  -6  192.15    9.19
   0  -4   6  181.41    8.68
   0  -4  -6  178.17    8.61
   0  -4   6  190.22   11.32
   0  -4   6  180.75    8.80
   0  -4  -6  196.11   10.75
   0  -4   6  190.87    9.36
   0  -4   6  189.27   10.42
   0   4  -6  177.51    8.78
   0   4   6  176.50    8.83
   0   4  -6  184.18    9.60
   0   4  -6  175.57   10.65
   0   4   6  183.52   10.56
   0   4   6  180.51    8.60
   0   4  -6  181.19    9.22
   0   4   6  183.35   11.84
   0   4  -6  185.67   11.22
   0   4   6  177.48   11.02
   0   4   6  172.61    8.72
   0   4   6  185.43    9.28
   0   4  -6  178.61    8.71
   0   4  -6  183.64   11.24
   2  -4   6  121.79    7.89
  -2  -4  -6  111.03    5.74
   2  -4   6  120.95    7.25
  -2  -4  -6   97.83    5.94
   2  -4   6  118.14    6.41
   2  -4   6  109.19    5.74
  -2  -4  -6  111.46    6.88
  -2  -4  -6  129.81    7.98
  -2  -4  -6  128.18    7.83
   2  -4   6  116.84    5.97
  -2  -4  -6  110.74    5.95
  -2   4  -6  129.21    6.86
   2   4   6  118.88    7.36
  -2   4  -6  113.06    5.87
   2   4   6  105.60    7.49
  -2   4  -6  102.85    5.87
   2   4   6  111.87    5.71
   2   4   6  118.35    6.62
   2   4   6  107.51    5.89
  -2   4  -6  120.79    6.20
   2   4   6  114.54    5.68
   2   4   6  113.21    8.25
  -4  -4  -6  134.31    8.21
   4  -4   6  142.22    7.32
   4  -4   6  124.05    6.40
   4  -4   6  130.95    8.40
  -4  -4  -6  135.90    9.24
  -4  -4  -6  115.39    8.71
  -4  -4  -6  135.55    6.53
   4  -4   6  130.73    6.65
   4  -4   6  143.96    9.06
  -4   4  -6  136.37    6.63
   4   4   6  128.93    8.62
   4   4   6  123.55    7.86
   4   4   6  114.61    6.28
   4   4   6  123.63    6.76
   4   4   6  119.50    8.66
  -4   4  -6  130.91    7.91
   4   4   6  126.37    6.42
   4   4   6  134.87    9.79
   6  -4   6   88.61    5.97
  -6  -4  -6   77.36    7.74
  -6  -4  -6   87.71    4.92
   6  -4   6   81.10    6.89
   6   4   6   78.57    7.91
   6   4   6   79.57    7.00
  -7  -5   6   74.97    5.39
   7  -5  -6   66.13    6.25
   7  -5  -6   71.52    7.00
   7   5  -6   75.33   11.44
   7   5  -6   67.25    7.02
   7   5  -6   66.28    7.48
  -7   5   6   70.26    4.24
   5  -5  -6   49.55    3.26
   5  -5  -6   47.89    4.72
   5  -5  -6   53.75    4.47
   5  -5  -6   43.85    4.13
   5  -5  -6   33.98    5.61
  -5  -5   6   46.38    3.98
   5  -5  -6   49.76    5.87
   5   5  -6   49.71    5.35
   5   5  -6   45.15    4.99
   5   5  -6   48.15    3.83
   5   5  -6   40.47    6.36
  -5   5   6   48.21    3.13
   3  -5  -6   83.13    5.38
   3  -5  -6   81.69    4.40
  -3  -5   6   75.61    7.63
   3  -5  -6   80.66    4.65
   3  -5  -6   82.69    5.21
   3  -5  -6   82.18    5.43
   3  -5  -6   67.70    5.79
  -3  -5   6   80.99    4.71
  -3  -5   6   78.66    4.75
   3  -5  -6   66.13    6.97
   3  -5  -6   80.43    6.36
  -3   5   6   84.25    4.35
  -3   5   6   82.54    4.71
   3   5  -6   79.94    4.75
   3   5  -6   71.48    5.78
   3   5  -6   80.43    4.75
  -3   5   6   75.50    8.18
   3   5  -6   75.15    6.06
   3   5  -6   79.68    6.62
  -3   5   6   77.41    5.01
   3   5  -6   72.99    7.26
  -3   5   6   81.35    4.91
   1  -5  -6  123.54   10.18
  -1  -5   6  117.53    9.85
   1  -5  -6  143.86    8.06
   1  -5  -6  153.82    7.90
  -1  -5   6  150.38    8.50
   1  -5  -6  146.63    8.91
  -1  -5   6  149.16    8.02
   1  -5  -6  149.76    7.17
   1  -5  -6  151.22    9.61
  -1  -5   6  140.54    7.41
  -1  -5   6  144.96    7.31
   1  -5  -6  147.79    7.41
   1  -5  -6  150.93    8.43
   1   5  -6  134.52    8.94
  -1   5   6  151.59    7.48
  -1   5   6  139.61    7.11
  -1   5   6  164.50    7.94
   1   5  -6  118.49    7.29
   1   5  -6  122.09    9.60
   1   5  -6  153.60    8.50
   1   5  -6  154.43    9.68
   1   5  -6  154.24    8.18
  -1   5   6  146.71   10.28
  -1   5   6  149.59    7.41
   1   5  -6  143.84    7.32
  -1  -5  -6  142.05    8.88
   1  -5   6  130.04    6.59
  -1  -5  -6  128.92    9.46
   1  -5   6  130.36    7.33
   1  -5   6  134.11    7.99
  -1  -5  -6  120.45    6.47
  -1  -5  -6  115.71    7.09
   1  -5   6  138.67    6.81
  -1  -5  -6  129.73    8.28
  -1  -5  -6  118.94    7.57
  -1  -5  -6  130.12    6.80
   1  -5   6  121.38    8.97
   1   5   6  131.80    8.02
   1   5   6  126.12    6.72
   1   5   6  129.30    6.49
   1   5   6  131.23    6.62
   1   5   6  125.74    9.31
  -1   5  -6  125.17    7.87
  -1   5  -6  123.72    6.62
  -1   5  -6  126.32    7.27
  -1   5  -6  136.91    6.79
   1   5   6  134.44    8.48
   1   5   6  128.11    7.40
   3  -5   6  195.28   11.14
   3  -5   6  169.24    8.96
   3  -5   6  180.10    8.79
  -3  -5  -6  179.89   10.37
  -3  -5  -6  174.54    8.79
   3   5   6  174.06    8.87
  -3   5  -6  186.79   10.16
   3   5   6  178.96    8.76
   3   5   6  179.40   10.92
   3   5   6  176.94   11.47
  -3   5  -6  193.37    9.03
  -5  -5  -6  115.42    8.67
   5  -5   6  110.08    7.27
  -5  -5  -6  115.90    6.17
   5  -5   6  109.60    8.21
   5   5   6  105.60    8.41
  -5   5  -6  109.23    6.19
   5   5   6  118.66    8.48
   5   5   6  110.96    6.04
  -6  -6   6   43.05    5.03
   6  -6  -6   50.52    5.96
   6  -6  -6   55.21    3.88
   6  -6  -6   54.37    6.17
   6  -6  -6   48.01    7.99
   6  -6  -6   52.69    4.92
   6   6  -6   49.86    6.48
  -6   6   6   51.38    3.77
   6   6  -6   45.33    6.98
   6   6  -6   41.31    8.16
   6   6  -6   53.49    4.72
   4  -6  -6   83.99    6.16
   4  -6  -6   81.54    5.76
   4  -6  -6   74.00    7.96
   4  -6  -6   80.96    5.98
  -4  -6   6   83.23    5.43
  -4  -6   6   79.38    5.31
   4  -6  -6   81.78    4.76
   4   6  -6   69.75    8.57
   4   6  -6   80.00    6.71
   4   6  -6   79.42    5.25
  -4   6   6   76.52    4.57
  -4   6   6   82.35    5.41
   2  -6  -6   69.13    5.72
   2  -6  -6   67.25    5.94
   2  -6  -6   63.91    4.48
  -2  -6   6   70.75    5.40
   2  -6  -6   55.77    6.60
   2  -6  -6   66.75    5.34
   2  -6  -6   66.30    4.96
  -2  -6   6   67.98    4.56
  -2  -6   6   72.60    4.75
   2  -6  -6   75.93    4.19
   2  -6  -6   72.36    5.36
  -2   6   6   70.87    4.10
   2   6  -6   58.34    6.38
   2   6  -6   71.68    7.21
   2   6  -6   63.01    4.55
  -2   6   6   68.69    5.02
   2   6  -6   68.53    4.59
  -2   6   6   70.67    4.75
   2   6  -6   57.13    5.20
  -2   6   6   61.64    4.62
   0  -6  -6  191.42   11.53
   0  -6  -6  191.36   10.30
   0  -6  -6  191.21   13.16
   0  -6  -6  185.40   10.46
   0  -6   6  184.15    9.45
   0  -6   6  182.22   11.06
   0  -6   6  198.07    9.64
   0  -6  -6  193.93    9.32
   0  -6  -6  184.85    9.61
   0  -6   6  194.75   10.27
   0   6   6  196.97    9.30
   0   6   6  176.28    9.58
   0   6  -6  193.85   10.56
   0   6   6  194.53    9.69
   0   6  -6  180.53    9.45
   0   6   6  182.92   11.87
   0   6  -6  190.34    9.57
   2  -6   6  129.26    8.98
  -2  -6  -6  138.12    8.88
  -2  -6  -6  145.62    7.84
   2  -6   6  141.51    8.25
   2  -6   6  147.84    7.60
  -2  -6  -6  150.20    7.39
   2   6   6  142.63    7.48
  -2   6  -6  142.71    7.51
  -2   6  -6  153.62    7.62
   2   6   6  139.22    7.30
   2   6   6  137.09    8.94
   2   6   6  134.80    9.51
   4  -6   6   71.42    6.61
  -4  -6  -6   73.73    7.45
   4  -6   6   74.19    4.97
  -4  -6  -6   67.08    4.77
   4  -6   6   70.79    6.06
   4   6   6   75.16    6.55
   4   6   6   77.49    4.74
  -4   6  -6   73.28    4.91
   4   6   6   73.97    6.03
   5  -7  -6   46.90    6.07
   5  -7  -6   45.78    5.47
   5  -7  -6   54.73    6.71
   5  -7  -6   39.98    6.45
   5  -7  -6   43.48    3.99
   5   7  -6   35.71    7.74
   5   7  -6   48.76    4.91
   5   7  -6   36.81    6.11
   3  -7  -6   39.51    5.14
   3  -7  -6   37.69    4.62
  -3  -7   6   39.87    4.40
   3  -7  -6   44.32    6.54
   3  -7  -6   43.94    5.21
   3  -7  -6   37.54    3.56
  -3   7   6   40.08    4.58
   3   7  -6   42.97    4.98
   3   7  -6   41.45    6.24
  -3   7   6   36.40    3.36
   3   7  -6   43.32    4.30
  -1  -7   6   75.78    5.23
  -1  -7   6   60.60    5.67
   1  -7  -6   74.76    6.13
   1  -7  -6   64.21    6.09
   1  -7  -6   69.49    4.59
   1  -7  -6   75.79    7.48
   1   7  -6   46.15    7.41
  -1   7   6   69.79    4.46
  -1   7   6   70.75    5.31
   1   7  -6   72.69    5.01
   1   7  -6   57.30    7.46
  -1  -7  -6  129.82    6.98
   1  -7   6  121.00    7.22
   1  -7   6  128.41    8.03
  -1  -7  -6  125.06    8.60
  -1  -7  -6  129.22    7.73
   1  -7   6  115.06    8.23
  -1  -7  -6  127.80    8.40
   1   7   6  127.67    7.32
   1   7   6  124.46    6.89
   1   7   6  122.93    8.90
  -1   7  -6  121.97    7.31
  -1   7  -6  122.68    7.10
  -3  -7  -6  119.75    9.27
   3  -7   6  121.35    8.80
   3  -7   6  116.07    8.40
   3  -7   6  125.01    7.20
  -3  -7  -6  127.39    7.16
  -3   7  -6  118.00    7.17
   3   7   6  129.80    7.02
   3   7   6  117.21    9.31
   2  -8  -6   98.96    8.77
  -2  -8   6  102.62    7.08
   2  -8  -6  101.85    6.35
  -2  -8   6  103.53    8.26
   2  -8  -6  104.03    8.15
   2  -8  -6  113.91   10.12
   2   8  -6   95.81   10.34
   2   8  -6   94.71    6.90
  -2   8   6  100.28    6.31
   0  -8   6   88.57    6.15
   0  -8  -6   69.04    7.78
   0  -8  -6   91.13    5.92
   0  -8   6   79.29    7.24
   0  -8  -6   86.10    7.85
   0   8  -6   81.67    6.24
   0   8   6   86.18    5.73
   0   8   6   79.89    7.48
  -8   0   7   42.63    3.56
   8   0  -7   55.57    3.29
   8   0  -7   69.80    6.24
   8   0  -7   57.53    5.61
   8   0  -7   64.30    5.84
   8   0  -7   54.19    6.50
   8   0  -7   51.60    6.65
   6   0  -7  175.35    8.89
   6   0  -7  176.47   12.27
   6   0  -7  186.84   10.95
  -6   0   7  207.44    9.12
  -6   0   7  192.19   12.82
   6   0  -7  166.01   11.48
  -6   0   7  184.46   11.45
   6   0  -7  206.34    9.10
   4   0  -7  250.83   11.89
   4   0  -7  243.75   11.30
  -4   0   7  260.64   15.38
  -4   0   7  241.57   14.01
  -4   0   7  210.29   11.39
   4   0  -7  253.23   13.67
  -4   0   7  238.41   11.33
   4   0  -7  242.89   14.02
   4   0  -7  236.07   14.99
   2   0  -7   52.06    2.91
   2   0  -7   42.34    3.90
  -2   0   7   53.93    3.12
   2   0  -7   43.29    3.58
   2   0  -7   43.97    3.33
   2   0  -7   50.28    3.00
  -2   0   7   53.74    3.00
  -2   0   7   41.56    4.17
  -2   0   7   43.93    3.45
  -2   0   7   51.53    3.73
   2   0  -7   50.92    3.61
   0   0  -7  118.29    6.03
   0   0  -7  114.99    5.64
   0   0   7  113.75    5.68
   0   0  -7   95.25    7.20
   0   0  -7  115.19    5.59
   0   0   7  125.93    7.29
   0   0  -7  104.06    6.97
   0   0   7  103.71    6.91
   0   0   7  114.66    6.75
   0   0   7  114.93    5.62
  -2   0  -7  190.47    8.51
   2   0   7  161.22    9.03
  -2   0  -7  159.86   10.48
   2   0   7  187.09   10.12
  -2   0  -7  189.94    8.50
   2   0   7  179.28   10.84
   2   0   7  181.87    8.47
  -2   0  -7  179.78   10.66
  -2   0  -7  174.13    9.11
   2   0   7  157.79   10.38
   2   0   7  190.35    8.53
   4   0   7  144.98    8.09
   4   0   7  132.40    8.61
   4   0   7  136.93    8.14
  -4   0  -7  142.95    7.57
  -4   0  -7  139.41    8.78
   4   0   7  136.92    6.68
  -4   0  -7  128.07    6.61
   4   0   7  141.46    8.15
   4   0   7  117.76    7.40
   4   0   7  140.79    8.52
   4   0   7  117.81    6.63
   6   0   7  127.24    5.82
   6   0   7  120.19    8.28
   6   0   7  134.10    8.66
   6   0   7  127.28    5.97
   6   0   7  119.80    6.17
   6   0   7   98.07    8.50
   6   0   7   94.52    7.51
   7  -1  -7  200.32   12.20
   7  -1  -7  223.86    9.84
   7  -1  -7  204.40    9.47
   7  -1  -7  178.59   12.54
   7  -1  -7  214.12   10.91
  -7  -1   7  196.66    9.62
   7  -1  -7  198.61   13.80
   7  -1  -7  179.06   10.77
  -7   1   7  214.43    9.83
   7   1  -7  192.90   13.02
   7   1  -7  195.27    9.60
   7   1  -7  198.65   12.79
   7   1  -7  218.55   11.07
   7   1  -7  193.24    9.61
   7   1  -7  193.87   13.36
   7   1  -7  222.68   11.88
  -5  -1   7  149.17    7.11
   5  -1  -7  139.99    6.94
  -5  -1   7  152.33    7.27
   5  -1  -7  146.48    7.28
   5  -1  -7  141.49    9.90
   5  -1  -7  125.49    7.82
  -5  -1   7  143.42    9.24
   5  -1  -7  144.77    7.81
   5  -1  -7  145.51    9.00
  -5   1   7  144.88   10.22
  -5   1   7  144.70    6.99
   5   1  -7  143.32    8.44
  -5   1   7  143.73    7.29
   5   1  -7  147.70    7.17
   5   1  -7  134.25    9.44
  -5   1   7  139.80    8.87
   5   1  -7  148.49    7.13
   5   1  -7  135.77    9.20
  -3  -1   7   78.28    5.72
   3  -1  -7   79.07    5.20
   3  -1  -7   83.22    4.83
  -3  -1   7   75.71    4.97
   3  -1  -7   80.50    4.24
  -3  -1   7   81.90    4.39
   3  -1  -7   77.89    4.63
  -3  -1   7   74.87    4.39
  -3  -1   7   83.94    5.93
   3  -1  -7   83.18    5.24
   3  -1  -7   77.61    4.41
   3   1  -7   85.16    5.59
   3   1  -7   82.33    5.61
  -3   1   7   85.50    5.26
   3   1  -7   80.55    4.37
   3   1  -7   79.38    4.35
  -3   1   7   76.56    4.27
  -3   1   7   61.91    6.13
  -3   1   7   76.38    5.08
  -3   1   7   85.60    4.40
   3   1  -7   75.64    5.15
  -1  -1   7  164.82    9.76
   1  -1  -7  145.19    8.07
   1  -1  -7  160.07    9.61
   1  -1  -7  166.21    9.39
  -1  -1   7  160.59    8.00
   1  -1  -7  175.35   10.52
   1  -1  -7  157.63    7.91
  -1  -1   7  145.20    7.82
   1  -1  -7  179.40    8.51
  -1  -1   7  176.61   10.29
   1  -1  -7  153.08    7.87
  -1  -1   7  178.61    9.69
   1   1  -7  152.12    9.74
  -1   1   7  185.96    9.72
   1   1  -7  178.41    9.72
  -1   1   7  151.08    7.87
   1   1  -7  161.99   10.13
  -1   1   7  159.10    7.87
  -1   1   7  170.57    9.40
   1   1  -7  162.24    7.90
   1   1  -7  152.81    7.94
  -1   1   7  151.44   10.49
  -1   1   7  185.10    8.53
   1   1  -7  169.25    8.24
  -1  -1  -7   44.42    3.94
  -1  -1  -7   48.47    3.53
  -1  -1  -7   46.14    2.99
   1  -1   7   43.96    3.67
   1  -1   7   45.99    3.02
  -1  -1  -7   44.38    3.69
  -1  -1  -7   50.00    4.05
   1  -1   7   53.88    3.75
   1  -1   7   45.69    2.75
   1  -1   7   43.22    2.93
  -1  -1  -7   45.93    2.99
  -1   1  -7   45.89    2.94
  -1   1  -7   48.85    3.94
   1   1   7   45.98    3.35
   1   1   7   51.21    2.89
  -1   1  -7   55.30    3.41
  -1   1  -7   45.97    3.68
  -1   1  -7   42.50    3.33
   1   1   7   46.84    3.88
  -1   1  -7   51.98    3.24
  -1   1  -7   43.17    2.91
   1   1   7   53.41    3.96
   1   1   7   42.16    2.89
   3  -1   7   90.01    6.41
   3  -1   7   87.06    5.13
  -3  -1  -7  106.92    5.23
   3  -1   7   99.78    6.70
  -3  -1  -7  101.55    5.20
   3  -1   7  112.23    5.29
   3  -1   7  108.08    5.18
  -3  -1  -7  104.39    7.03
  -3  -1  -7  100.33    6.01
  -3  -1  -7  111.64    6.67
   3   1   7  110.47    6.78
  -3   1  -7   86.71    6.68
   3   1   7  100.53    5.66
  -3   1  -7  102.45    5.77
   3   1   7   89.31    6.72
   3   1   7   97.66    5.20
  -3   1  -7  104.88    5.24
   3   1   7   93.46    6.32
  -3   1  -7  106.43    5.15
   5  -1   7  132.68    9.54
  -5  -1  -7  132.13    9.69
  -5  -1  -7  159.85    8.91
  -5  -1  -7  161.22   10.24
   5  -1   7  151.36    9.59
  -5  -1  -7  170.77    7.49
   5  -1   7  154.46    7.44
   5  -1   7  161.92    7.79
   5  -1   7  153.77    9.87
   5   1   7  154.70    7.50
   5   1   7  168.22   10.22
   5   1   7  155.07    7.41
   5   1   7  138.97    9.44
   5   1   7  168.07    9.95
   5   1   7  154.41    8.37
   5   1   7  164.79    9.06
   5   1   7  141.74    9.37
  -5   1  -7  141.14    7.36
   7  -1   7   66.53    8.20
   7  -1   7   78.05    7.46
   7   1   7   72.60    7.61
   7   1   7   76.91    7.42
   7   1   7   85.31    6.29
  -8  -2   7  106.61    5.64
   8  -2  -7  107.02    7.04
   8  -2  -7   92.28    8.34
   8  -2  -7   81.79   10.39
   8   2  -7   92.81    9.60
   8   2  -7  101.51    7.83
   8   2  -7   87.40    8.10
   6  -2  -7  154.62    9.35
   6  -2  -7  152.42    7.17
  -6  -2   7  149.88   10.03
   6  -2  -7  145.20    9.51
   6  -2  -7  159.47    7.69
   6  -2  -7  154.45    8.32
   6  -2  -7  150.09    8.07
  -6  -2   7  146.04    7.34
   6   2  -7  144.88    7.32
   6   2  -7  139.43   10.24
   6   2  -7  140.22    7.55
   6   2  -7  147.59   10.04
   6   2  -7  147.20    9.69
   6   2  -7  128.58    8.68
   6   2  -7  148.96    8.50
  -6   2   7  150.04   11.08
   4  -2  -7  118.21    7.38
   4  -2  -7  114.68    7.42
  -4  -2   7  114.62    6.94
  -4  -2   7  118.02    8.09
   4  -2  -7  115.23    6.59
  -4  -2   7  125.09    6.05
   4  -2  -7  120.88    6.57
   4  -2  -7  116.56    5.98
  -4  -2   7  117.32    6.01
   4  -2  -7  120.96    5.88
   4  -2  -7  118.51    8.96
  -4   2   7  120.64    5.95
   4   2  -7  125.36    7.27
   4   2  -7  115.72    6.03
   4   2  -7  122.61    6.09
  -4   2   7  107.20    8.76
  -4   2   7  111.53    5.88
  -4   2   7  127.32    7.47
   4   2  -7  120.02    7.27
   4   2  -7  127.28    8.16
   4   2  -7  119.05    7.95
   2  -2  -7  216.21   13.18
  -2  -2   7  177.61   11.61
  -2  -2   7  216.56    9.76
  -2  -2   7  179.57    9.53
   2  -2  -7  198.91    9.53
   2  -2  -7  225.54   11.82
   2  -2  -7  213.51   11.58
   2  -2  -7  170.46   10.26
  -2  -2   7  208.53   12.25
   2  -2  -7  203.85   10.11
   2  -2  -7  207.36    9.64
   2   2  -7  202.75   10.49
  -2   2   7  217.43   11.60
  -2   2   7  225.74    9.71
  -2   2   7  196.19   11.68
   2   2  -7  213.48    9.75
   2   2  -7  187.99   11.62
  -2   2   7  215.43   13.22
  -2   2   7  194.21    9.50
   2   2  -7  206.81   12.26
   2   2  -7  213.78   12.49
  -2   2   7  204.89   10.41
   2   2  -7  203.42    9.62
   0  -2  -7   98.41    5.42
   0  -2   7   86.37    5.79
   0  -2  -7   91.86    4.62
   0  -2  -7   95.54    4.77
   0  -2  -7   84.14    6.06
   0  -2   7   91.43    4.95
   0  -2   7   92.08    4.65
   0  -2  -7   86.99    4.65
   0  -2  -7   80.57    6.51
   0  -2   7  100.42    4.89
   0   2  -7   92.04    4.71
   0   2  -7   94.07    5.77
   0   2   7   91.52    4.58
   0   2   7   92.31    4.76
   0   2   7   95.91    5.13
   0   2  -7   74.52    6.07
   0   2  -7  101.99    5.97
   0   2  -7   97.13    4.86
   0   2   7   92.46    6.52
   0   2   7   87.62    5.96
  -2  -2  -7   79.19    5.93
  -2  -2  -7   83.59    4.39
   2  -2   7   86.63    4.63
   2  -2   7   80.18    4.38
   2  -2   7   76.99    4.50
   2  -2   7   89.20    5.66
   2  -2   7   89.03    5.78
  -2  -2  -7   85.94    4.51
  -2  -2  -7   95.97    6.06
  -2  -2  -7   88.41    5.35
   2   2   7   83.33    4.98
   2   2   7   82.36    5.98
  -2   2  -7   89.88    4.85
   2   2   7   82.99    4.32
   2   2   7   81.29    6.04
  -2   2  -7   80.97    4.84
  -2   2  -7   82.11    4.50
   2   2   7   89.53    5.65
   2   2   7   86.48    4.51
  -2   2  -7   83.90    4.55
  -2   2  -7   80.11    5.77
   4  -2   7  260.48   13.97
   4  -2   7  220.46   11.10
   4  -2   7  228.70   13.84
   4  -2   7  245.41   11.15
  -4  -2  -7  248.99   12.45
   4  -2   7  253.49   11.70
  -4  -2  -7  225.87   11.20
  -4  -2  -7  244.23   14.50
  -4  -2  -7  225.57   14.11
   4   2   7  254.28   14.99
   4   2   7  226.32   11.08
   4   2   7  233.25   14.07
   4   2   7  223.49   14.09
   4   2   7  224.40   11.12
  -4   2  -7  240.64   11.11
   4   2   7  241.90   12.00
   6  -2   7   75.60    4.53
   6  -2   7   90.80    7.57
   6  -2   7   78.74    6.76
   6  -2   7   71.82    7.09
   6  -2   7   87.13    5.37
  -6  -2  -7   95.89    7.19
   6   2   7   75.92    6.47
   6   2   7   86.75    7.89
   6   2   7   87.84    7.29
   6   2   7   82.24    4.72
   6   2   7   81.25    6.35
   7  -3  -7   88.04    5.28
   7  -3  -7   74.44    6.88
   7  -3  -7   78.15    9.16
   7  -3  -7   73.91    5.91
  -7  -3   7   82.34    4.94
   7  -3  -7   73.53    5.28
  -7   3   7   83.60    4.99
   7   3  -7   75.55    6.54
   7   3  -7   74.83    6.79
   7   3  -7   67.76    8.63
   7   3  -7   75.89    4.81
   5  -3  -7  190.90    9.20
   5  -3  -7  204.06   11.66
   5  -3  -7  188.49    9.21
   5  -3  -7  207.05   10.26
  -5  -3   7  182.74   12.39
  -5  -3   7  191.87    9.36
   5  -3  -7  193.29   11.62
   5  -3  -7  219.50   13.86
   5  -3  -7  200.57    9.98
   5   3  -7  197.79   12.53
   5   3  -7  196.36    9.38
  -5   3   7  167.25   13.44
  -5   3   7  192.47    9.16
   5   3  -7  180.07   12.70
   5   3  -7  187.30   11.13
   5   3  -7  197.13   10.41
   5   3  -7  189.51    9.34
   5   3  -7  196.67   12.13
  -5   3   7  177.81    9.21
   3  -3  -7  108.98    7.87
  -3  -3   7  101.09    7.43
   3  -3  -7  103.67    5.85
   3  -3  -7  105.16    6.31
   3  -3  -7   95.98    6.46
  -3  -3   7  108.79    6.11
  -3  -3   7   99.42    5.18
   3  -3  -7   95.66    5.04
  -3  -3   7   96.93    5.28
   3  -3  -7  100.31    5.67
   3  -3  -7   97.57    5.12
  -3   3   7  104.28    6.14
   3   3  -7   96.59    6.11
   3   3  -7  102.27    6.88
   3   3  -7   95.97    6.60
  -3   3   7   96.08    5.18
  -3   3   7  108.72    7.93
   3   3  -7   98.79    5.31
  -3   3   7  102.24    5.04
   3   3  -7   91.17    7.34
   3   3  -7   94.14    5.24
   3   3  -7   97.05    6.33
  -1  -3   7  103.12    5.72
   1  -3  -7  108.69    6.02
   1  -3  -7   84.94    7.38
   1  -3  -7  105.22    5.28
   1  -3  -7   99.62    6.62
  -1  -3   7  105.75    5.42
  -1  -3   7   84.56    7.11
  -1  -3   7  107.33    5.25
  -1  -3   7  113.04    6.45
   1  -3  -7  101.09    5.50
   1  -3  -7  108.29    6.07
   1  -3  -7  104.91    5.17
  -1   3   7  107.51    5.73
   1   3  -7  110.02    6.65
   1   3  -7  105.82    5.34
  -1   3   7  106.00    6.53
   1   3  -7   98.83    6.44
   1   3  -7  109.54    7.27
  -1   3   7   86.31    7.54
   1   3  -7  101.76    6.34
  -1   3   7  102.68    5.14
   1   3  -7  103.96    5.39
  -1   3   7   98.55    5.28
   1   3  -7  100.69    6.08
   1  -3   7  243.22   11.74
  -1  -3  -7  259.18   13.92
   1  -3   7  233.38   11.05
  -1  -3  -7  244.54   12.09
  -1  -3  -7  271.73   14.54
  -1  -3  -7  236.21   11.36
   1  -3   7  268.19   13.60
   1  -3   7  229.93   13.92
  -1  -3  -7  232.03   11.02
   1  -3   7  243.15   11.23
  -1  -3  -7  199.71   11.08
  -1  -3  -7  215.41   15.05
  -1   3  -7  236.65   11.13
   1   3   7  204.10   13.64
   1   3   7  231.82   11.16
  -1   3  -7  232.77   11.97
   1   3   7  252.58   11.84
   1   3   7  237.42   11.02
   1   3   7  239.93   14.87
  -1   3  -7  247.73   13.64
   1   3   7  217.03   14.01
  -1   3  -7  250.27   11.24
  -3  -3  -7   94.51    4.80
  -3  -3  -7   89.13    6.72
   3  -3   7  104.22    5.03
   3  -3   7   96.58    5.32
   3  -3   7   92.08    6.72
  -3  -3  -7   87.78    5.00
   3  -3   7   82.87    4.71
   3  -3   7   83.80    6.16
  -3  -3  -7   92.99    6.64
  -3  -3  -7   87.52    6.18
  -3   3  -7   92.12    5.75
   3   3   7   88.10    4.71
   3   3   7   91.55    6.78
   3   3   7   90.04    7.01
   3   3   7   97.62    6.33
   3   3   7   85.94    4.95
  -3   3  -7   99.91    5.30
  -3   3  -7   87.55    4.93
   3   3   7   88.28    5.79
   5  -3   7   54.75    5.59
  -5  -3  -7   63.20    4.08
  -5  -3  -7   71.24    6.72
  -5  -3  -7   65.54    6.45
   5  -3   7   66.08    4.64
   5  -3   7   58.88    4.08
   5  -3   7   67.66    3.99
  -5  -3  -7   72.10    6.39
   5  -3   7   68.26    6.70
   5   3   7   65.52    6.93
   5   3   7   71.74    6.28
   5   3   7   59.42    5.32
   5   3   7   63.29    4.24
  -5   3  -7   62.20    3.96
   5   3   7   61.69    5.82
   5   3   7   67.99    3.93
  -8  -4   7   65.87    5.40
   8  -4  -7   73.14   10.66
   8   4  -7   51.93    9.72
  -8   4   7   72.49    5.23
   6  -4  -7  100.50    9.33
   6  -4  -7   86.56    6.80
   6  -4  -7   83.00    4.82
   6  -4  -7   85.05    5.55
  -6  -4   7   83.65    5.34
   6  -4  -7   82.99    6.03
   6   4  -7   92.41    6.97
   6   4  -7   77.25    8.99
  -6   4   7   86.10    4.70
   6   4  -7   83.51    7.40
   6   4  -7   86.49    5.24
   4  -4  -7  151.15    7.69
   4  -4  -7  142.46    7.82
   4  -4  -7  141.34    8.57
   4  -4  -7  136.48    6.83
   4  -4  -7  140.08    8.84
   4  -4  -7  138.44    6.97
   4  -4  -7  136.17   10.45
  -4  -4   7  132.37    7.00
  -4  -4   7  135.71    7.10
   4  -4  -7  132.19    9.68
   4   4  -7  133.66    8.66
   4   4  -7  131.32    9.31
   4   4  -7  123.64   10.00
  -4   4   7  151.22    8.05
   4   4  -7  129.15    8.09
   4   4  -7  135.84    7.79
   4   4  -7  136.12    7.13
  -4   4   7  138.92    6.81
  -4   4   7  149.56   10.62
   4   4  -7  133.66    9.00
   4   4  -7  137.37    7.17
  -4   4   7  140.84    7.05
  -2  -4   7  188.52    8.93
   2  -4  -7  176.81    8.91
   2  -4  -7  188.24    8.86
  -2  -4   7  177.92    9.02
   2  -4  -7  188.34    9.56
  -2  -4   7  172.29   11.84
   2  -4  -7  189.14   10.97
   2  -4  -7  189.63    9.70
  -2  -4   7  184.72   10.71
   2  -4  -7  183.16   10.56
  -2   4   7  188.65    9.23
  -2   4   7  182.59    8.96
   2   4  -7  189.62   11.81
   2   4  -7  188.48   11.26
   2   4  -7  186.61   11.59
   2   4  -7  187.43    9.08
   2   4  -7  184.19   10.21
  -2   4   7  183.97    9.46
   2   4  -7  180.57    9.68
  -2   4   7  175.24   12.75
   2   4  -7  190.75   10.51
   2   4  -7  178.37    8.97
  -2   4   7  184.35    8.82
   0  -4  -7  110.36    7.44
   0  -4  -7  111.67    8.48
   0  -4   7  111.13    6.36
   0  -4  -7  107.44    6.22
   0  -4   7  117.57    5.84
   0  -4   7  117.12    7.09
   0  -4  -7  117.31    5.98
   0  -4  -7  114.26    6.73
   0  -4  -7  114.21    5.76
   0  -4   7  115.31    8.09
   0  -4   7  115.61    6.06
   0  -4  -7  108.55    7.88
   0  -4  -7   99.53    6.80
   0   4   7  112.32    8.27
   0   4  -7  112.96    7.18
   0   4  -7  116.41    5.95
   0   4  -7  116.12    8.07
   0   4  -7  112.89    7.04
   0   4  -7  120.09    6.06
   0   4  -7  115.90    7.22
   0   4  -7  115.77    7.02
   0   4   7  110.90    5.94
   0   4   7  115.06    5.78
   0   4   7  123.09    5.83
   0   4   7  122.66    6.53
   0   4   7  117.12    7.29
  -2  -4  -7  117.42    7.44
   2  -4   7  134.49    6.49
   2  -4   7  113.69    6.14
  -2  -4  -7  128.35    6.20
   2  -4   7  127.56    6.87
   2  -4   7  103.93    7.67
   2  -4   7  125.78    8.52
  -2  -4  -7  126.43    8.35
  -2  -4  -7  118.44    6.44
   2   4   7  122.88    8.05
   2   4   7  114.87    6.35
   2   4   7  123.40    6.11
   2   4   7  124.38    8.82
  -2   4  -7  121.96    7.36
   2   4   7  125.40    8.06
  -2   4  -7  124.53    6.38
  -2   4  -7  123.18    6.41
   2   4   7  122.91    7.14
  -2   4  -7  129.89    6.58
   2   4   7  119.19    5.96
  -4  -4  -7  112.69    9.09
   4  -4   7  130.19    6.62
   4  -4   7  120.85    6.35
   4  -4   7  137.72    9.31
   4  -4   7  121.35    8.44
   4  -4   7  124.44    7.24
  -4  -4  -7  122.96    8.38
  -4  -4  -7  131.08    6.44
   4   4   7  128.16    8.62
  -4   4  -7  115.71    6.53
  -4   4  -7  125.97    8.06
   4   4   7  111.94    8.79
   4   4   7  132.69    9.96
   4   4   7  132.71    6.38
   6  -4   7   57.73    5.52
  -6  -4  -7   57.89    4.46
  -6  -4  -7   65.99    7.85
   6  -4   7   61.26    6.40
   6   4   7   46.67    7.22
   6   4   7   56.94    6.23
   7  -5  -7   81.55    7.64
   7  -5  -7   51.59    8.26
  -7  -5   7   80.88    5.76
   7  -5  -7   72.02    6.58
  -7   5   7   78.40    4.56
   7   5  -7   75.62   11.73
   7   5  -7   72.68    7.62
   7   5  -7   69.58    7.88
  -5  -5   7   53.67    4.31
   5  -5  -7   41.25    6.95
   5  -5  -7   50.44    5.14
   5  -5  -7   48.94    4.51
   5  -5  -7   55.87    5.21
   5  -5  -7   55.32    3.63
   5   5  -7   57.98    7.18
  -5   5   7   58.29    3.53
   5   5  -7   51.90    5.74
   5   5  -7   56.27    4.26
   5   5  -7   55.49    5.43
   3  -5  -7  141.65    6.95
  -3  -5   7  136.00    7.29
   3  -5  -7  135.35    7.77
   3  -5  -7  140.20    7.22
   3  -5  -7  129.05    8.84
  -3  -5   7  136.41    7.18
   3  -5  -7  141.77    7.87
   3  -5  -7  127.04    9.76
   3  -5  -7  142.76    8.43
  -3  -5   7  119.96   10.46
   3   5  -7  135.16    8.45
  -3   5   7  140.66   11.59
  -3   5   7  142.26    7.86
   3   5  -7  139.34    9.07
   3   5  -7  137.37    7.29
  -3   5   7  133.41    6.88
   3   5  -7  128.98    7.24
   3   5  -7  146.05    9.38
   3   5  -7  134.74   10.19
  -3   5   7  144.14    7.45
  -3   5   7  141.36    7.22
  -1  -5   7  220.55   10.79
  -1  -5   7  200.37   14.19
  -1  -5   7  219.88   12.83
   1  -5  -7  227.87   11.59
   1  -5  -7  228.18   10.69
   1  -5  -7  230.30   13.25
   1  -5  -7  230.16   11.77
   1  -5  -7  240.97   14.20
   1  -5  -7  195.86   12.55
   1  -5  -7  220.31   10.90
  -1  -5   7  232.15   11.69
  -1  -5   7  228.91   10.95
   1   5  -7  247.72   12.37
   1   5  -7  220.14   10.85
   1   5  -7  229.45   10.96
  -1   5   7  237.40   11.51
  -1   5   7  214.64   10.85
  -1   5   7  227.24   11.06
   1   5  -7  238.88   13.46
  -1   5   7  221.93   14.95
   1   5  -7  186.73   13.82
   1   5  -7  225.54   11.74
  -1   5   7  228.51   10.65
  -1  -5  -7  124.89    6.49
  -1  -5  -7  106.89    6.99
  -1  -5  -7  133.54    7.82
  -1  -5  -7  139.63    9.85
   1  -5   7  125.16    9.23
  -1  -5  -7  134.92    8.57
   1  -5   7  115.65    6.51
   1  -5   7  121.88    6.76
  -1  -5  -7  129.63    6.88
   1  -5   7  129.56    8.01
   1  -5   7  122.62    7.24
  -1  -5  -7  129.13    9.05
  -1   5  -7  131.79    7.40
   1   5   7  128.18    8.10
   1   5   7  132.27    7.53
   1   5   7  134.45    9.49
   1   5   7  125.96    6.78
  -1   5  -7  124.93    8.20
  -1   5  -7  128.18    6.77
   1   5   7  121.45    8.42
   1   5   7  123.23    6.50
   1   5   7  132.30    6.48
  -1   5  -7  129.57    6.71
  -3  -5  -7  106.95    7.88
   3  -5   7  113.14    7.75
   3  -5   7  108.20    6.25
   3  -5   7  118.51    6.92
  -3  -5  -7  111.23    5.97
  -3  -5  -7   86.03    8.33
   3   5   7  132.71    8.09
   3   5   7  120.80    7.93
   3   5   7  109.18    5.89
   3   5   7  105.71    5.68
  -3   5  -7  110.00    6.22
  -3   5  -7  117.17    7.75
  -5  -5  -7   83.84    4.91
   5  -5   7   63.83    5.91
  -5  -5  -7   84.41    8.23
   5  -5   7   71.36    7.08
  -5   5  -7   73.03    4.95
   5   5   7   70.82    7.61
   5   5   7   85.48    7.06
   6  -6  -7   64.47    6.35
   6  -6  -7   46.77    7.43
   6  -6  -7   59.31    5.60
  -6  -6   7   59.41    5.53
   6  -6  -7   62.02    6.78
   6   6  -7   62.97    7.10
   6   6  -7   53.71    7.26
  -6   6   7   61.89    4.17
   6   6  -7   60.25    5.17
   6   6  -7   44.37    8.73
   4  -6  -7  162.31    9.81
  -4  -6   7  152.77    8.35
   4  -6  -7  154.44    8.95
   4  -6  -7  153.44    7.88
  -4  -6   7  155.10    8.43
   4  -6  -7  160.11    9.26
   4  -6  -7  124.53   11.97
   4   6  -7  161.24   10.65
   4   6  -7  139.78   12.10
  -4   6   7  149.87    7.79
   4   6  -7  155.10    8.38
  -4   6   7  159.63    8.42
  -2  -6   7   87.84    5.47
   2  -6  -7   85.53    8.14
   2  -6  -7   88.04    5.03
  -2  -6   7   87.62    6.25
   2  -6  -7   93.37    6.36
   2  -6  -7   87.14    6.29
  -2  -6   7   83.31    5.41
   2   6  -7   87.58    8.34
  -2   6   7   84.46    5.53
  -2   6   7   85.46    4.90
  -2   6   7   85.08    5.52
  -2   6   7   81.26    5.88
   2   6  -7   85.74    5.47
   2   6  -7   84.61    6.46
   0  -6  -7  127.95    8.04
   0  -6  -7  134.57    8.81
   0  -6  -7  111.35    9.83
   0  -6  -7  124.54    7.10
   0  -6   7  129.05    7.04
   0  -6   7  120.99    7.98
   0  -6  -7  106.30    7.52
   0  -6   7  131.87    7.66
   0  -6  -7  127.34    6.69
   0   6   7  131.09    6.63
   0   6  -7  126.75    8.21
   0   6   7  125.81    6.87
   0   6  -7  131.51    7.07
   0   6  -7  121.66    6.94
  -2  -6  -7  162.55    8.84
  -2  -6  -7  158.14    8.27
   2  -6   7  161.95   10.27
   2  -6   7  151.91    8.50
  -2  -6  -7  165.53   10.06
   2  -6   7  176.48    9.46
   2   6   7  167.60    8.26
   2   6   7  160.21    8.32
  -2   6  -7  156.68    8.48
   2   6   7  174.84   10.75
   2   6   7  144.71   10.17
  -2   6  -7  164.45    8.54
  -4  -6  -7   34.54    3.91
  -4  -6  -7   35.45    5.54
   4  -6   7   36.94    5.66
   4  -6   7   41.04    5.39
  -4   6  -7   41.97    3.96
   4   6   7   35.77    5.40
   4   6   7   38.56    5.50
   4   6   7   33.62    3.71
   5  -7  -7   43.41    6.17
   5  -7  -7   51.68    5.71
   5  -7  -7   44.60    5.88
   5  -7  -7   36.34    6.82
   5  -7  -7   43.48    4.12
   5   7  -7   47.06    6.61
   5   7  -7   29.75    8.17
   5   7  -7   53.86    5.31
  -3  -7   7  111.97    7.12
   3  -7  -7  113.38    6.39
   3  -7  -7   94.03   10.13
   3  -7  -7  115.40    7.80
   3  -7  -7  113.22    8.21
   3   7  -7  113.89    7.03
  -3   7   7  114.60    6.25
   3   7  -7  105.78    8.33
   3   7  -7  104.37   10.77
  -1  -7   7  136.44    7.70
  -1  -7   7  126.25    8.52
   1  -7  -7  121.52    8.65
   1  -7  -7  129.49    8.69
   1  -7  -7  132.44    7.24
   1  -7  -7  130.87   10.88
   1   7  -7  140.93    7.66
   1   7  -7  109.69   10.46
  -1   7   7  143.28    7.23
  -1   7   7  133.91    7.79
   1  -7   7  145.98    9.26
  -1  -7  -7  134.09    9.51
   1  -7   7  134.28    8.76
   1  -7   7  140.38    8.05
  -1  -7  -7  148.80    7.82
   1   7   7  141.56    7.63
   1   7   7  142.27    9.78
  -1   7  -7  138.28    8.15
  -1   7  -7  139.63    7.95
   1   7   7  132.18    7.96
   3  -7   7   73.82    7.26
   3  -7   7   74.22    6.87
  -3  -7  -7   69.52    8.40
   3  -7   7   78.04    5.87
   3   7   7   82.02    7.37
   3   7   7   80.37    5.40
   2  -8  -7  127.34   11.35
   2  -8  -7  115.22    8.84
   2  -8  -7  107.07    9.58
  -2  -8   7  110.91    7.75
   2  -8  -7  113.20    7.12
  -2  -8   7  112.86    9.05
   2   8  -7  120.81    7.76
   2   8  -7  105.83   11.43
   0  -8   7   74.44    7.22
   0  -8  -7   75.04    9.46
   0  -8   7   70.54    6.29
   0  -8  -7   71.13    5.71
   0  -8  -7   69.58    7.87
   0   8   7   78.65    5.54
   8   0  -8   47.47    5.52
   8   0  -8   38.86    6.37
   8   0  -8   48.19    6.29
   8   0  -8   46.82    6.67
  -8   0   8   50.06    3.74
   8   0  -8   47.85    5.81
   8   0  -8   44.67    5.24
   6   0  -8   57.91    5.50
   6   0  -8   53.95    5.48
  -6   0   8   57.55    5.51
   6   0  -8   59.79    4.03
   6   0  -8   55.41    4.40
   6   0  -8   57.81    4.74
  -6   0   8   59.47    4.08
   6   0  -8   60.12    3.72
  -4   0   8  206.20   13.36
   4   0  -8  218.36   12.13
   4   0  -8  184.58   10.18
   4   0  -8  183.46    9.79
   4   0  -8  204.83   12.90
  -4   0   8  209.16    9.73
  -4   0   8  218.15   12.15
   4   0  -8  205.75    9.66
   4   0  -8  206.17   11.71
  -4   0   8  199.23   11.62
  -4   0   8  188.19    9.85
  -2   0   8   56.02    4.47
   2   0  -8   50.35    4.88
  -2   0   8   63.24    4.38
  -2   0   8   63.86    3.69
  -2   0   8   65.85    3.60
   2   0  -8   60.04    4.48
   2   0  -8   50.69    4.02
   2   0  -8   63.63    4.51
  -2   0   8   55.40    5.03
   2   0  -8   63.60    3.63
   2   0  -8   64.14    3.50
   0   0  -8  219.92   13.13
   0   0  -8  214.19   13.34
   0   0   8  236.97   13.17
   0   0  -8  232.18   10.95
   0   0   8  247.52   13.48
   0   0   8  233.53   10.98
   0   0  -8  221.28   13.63
   0   0  -8  235.00   11.53
   0   0   8  229.08   10.91
   0   0  -8  230.27   14.23
   0   0  -8  239.62   10.92
   0   0   8  249.78   14.22
   2   0   8  405.17   18.65
  -2   0  -8  412.35   17.76
   2   0   8  384.13   17.71
  -2   0  -8  366.26   21.79
  -2   0  -8  397.35   17.75
   2   0   8  433.52   21.39
   2   0   8  355.23   23.01
  -2   0  -8  324.51   18.65
  -2   0  -8  403.05   22.28
   2   0   8  389.48   17.76
  -4   0  -8   61.11    5.93
   4   0   8   66.99    5.32
  -4   0  -8   64.49    3.81
   4   0   8   59.96    4.67
   4   0   8   56.75    5.02
   4   0   8   48.63    3.86
  -4   0  -8   66.85    5.12
   4   0   8   63.42    3.86
   4   0   8   67.25    4.76
   6   0   8   94.92    5.08
   6   0   8   94.96    6.82
   6   0   8   89.30    7.68
   6   0   8   82.51    6.98
   6   0   8   89.22    7.61
   7  -1  -8   62.38    5.44
  -7  -1   8   66.50    4.27
   7  -1  -8   73.67    3.94
   7  -1  -8   61.72    5.72
   7  -1  -8   73.05    6.48
   7  -1  -8   49.49    5.70
   7  -1  -8   67.52    7.24
   7  -1  -8   61.05    4.50
  -7   1   8   71.10    4.69
   7   1  -8   70.22    5.57
   7   1  -8   57.31    6.60
   7   1  -8   63.03    4.19
   7   1  -8   71.34    4.27
   7   1  -8   67.62    6.49
   7   1  -8   70.39    5.94
   5  -1  -8   39.43    4.99
   5  -1  -8   46.88    3.89
   5  -1  -8   48.19    3.39
  -5  -1   8   46.21    4.94
   5  -1  -8   42.98    4.13
   5  -1  -8   41.93    4.04
  -5  -1   8   46.32    3.41
  -5  -1   8   45.42    3.35
   5  -1  -8   39.58    4.25
   5  -1  -8   38.68    2.97
  -5   1   8   49.31    3.13
  -5   1   8   41.54    5.65
   5   1  -8   39.30    4.70
   5   1  -8   35.32    4.35
  -5   1   8   51.00    3.48
   5   1  -8   47.17    3.36
   5   1  -8   44.37    3.92
   5   1  -8   42.37    3.16
  -5   1   8   47.51    4.36
  -3  -1   8  105.41    7.11
  -3  -1   8  102.47    6.75
   3  -1  -8   97.21    7.29
  -3  -1   8   84.45    5.21
   3  -1  -8  104.74    6.27
   3  -1  -8  101.47    5.24
   3  -1  -8   89.12    5.52
   3  -1  -8  108.58    5.69
  -3  -1   8   99.15    5.30
  -3  -1   8   82.86    5.95
   3  -1  -8   94.06    5.09
   3  -1  -8   98.52    6.24
  -3   1   8  101.21    5.15
   3   1  -8   95.74    6.28
  -3   1   8   89.58    5.12
   3   1  -8  105.27    6.69
  -3   1   8  100.08    6.25
   3   1  -8   91.30    5.15
   3   1  -8   95.15    5.26
  -3   1   8   91.39    6.04
  -3   1   8   89.88    7.41
   3   1  -8   77.38    6.48
   1  -1  -8  156.00    7.80
   1  -1  -8  146.80    7.87
  -1  -1   8  138.67    7.79
   1  -1  -8  148.94    9.16
   1  -1  -8  175.38   10.30
  -1  -1   8  151.73   10.01
   1  -1  -8  147.76    7.73
   1  -1  -8  167.03    9.58
  -1  -1   8  175.07    9.61
   1  -1  -8  170.13    8.36
  -1  -1   8  151.85    7.78
  -1  -1   8  160.93    9.46
   1   1  -8  153.31    7.76
  -1   1   8  157.09    7.73
  -1   1   8  144.15    7.72
  -1   1   8  170.51    9.56
   1   1  -8  168.43    9.61
  -1   1   8  177.80    8.33
  -1   1   8  165.44    9.19
   1   1  -8  160.57    9.50
   1   1  -8  143.35    8.05
   1   1  -8  169.53   10.03
   1   1  -8  129.85    7.71
  -1   1   8  164.63   10.26
   1   1  -8  153.81    8.14
  -1  -1  -8  179.50   11.41
  -1  -1  -8  195.66    9.09
   1  -1   8  197.84   11.35
  -1  -1  -8  167.81    9.76
   1  -1   8  181.00    9.12
   1  -1   8  195.27    9.07
   1  -1   8  193.46   11.01
  -1  -1  -8  179.08   11.20
   1  -1   8  199.65   11.12
  -1  -1  -8  170.39   11.89
  -1  -1  -8  163.41    9.04
  -1   1  -8  180.45   10.98
   1   1   8  188.76    9.06
  -1   1  -8  213.41   11.12
  -1   1  -8  192.96    9.04
   1   1   8  213.33   10.51
   1   1   8  162.63   11.79
  -1   1  -8  176.65    9.05
  -1   1  -8  184.12   11.25
  -1   1  -8  210.22    9.54
  -1   1  -8  189.62    9.31
   1   1   8  213.65   11.34
   1   1   8  166.23    9.66
   3  -1   8  152.03   10.48
   3  -1   8  199.25   10.45
  -3  -1  -8  192.24    8.49
   3  -1   8  175.42    8.51
  -3  -1  -8  189.44   11.06
  -3  -1  -8  184.92   10.76
   3  -1   8  185.39    8.42
   3  -1   8  173.10    8.54
  -3  -1  -8  184.80    9.55
  -3   1  -8  144.05    8.42
   3   1   8  163.60   10.96
   3   1   8  158.10    8.50
   3   1   8  180.91    8.49
  -3   1  -8  173.42   10.81
   3   1   8  178.41    9.19
  -3   1  -8  161.02    9.17
   3   1   8  166.21   10.67
  -5  -1  -8  174.87   10.02
  -5  -1  -8  177.79    8.36
   5  -1   8  191.82    8.59
   5  -1   8  175.38   11.01
   5  -1   8  169.24    8.41
   5  -1   8  158.29   10.61
   5  -1   8  146.10    8.32
   5   1   8  168.33   10.20
   5   1   8  155.61    9.98
   5   1   8  204.77   11.35
   5   1   8  164.22    9.52
   5   1   8  171.83   10.44
   5   1   8  154.37    8.34
  -5   1  -8  186.74    8.39
   5   1   8  165.05    8.41
   5   1   8  174.10   11.27
   8  -2  -8   75.46    8.04
   8  -2  -8   74.74    6.26
  -8  -2   8   87.21    5.24
   8  -2  -8   78.93    6.70
   8   2  -8   71.38    7.74
  -8   2   8   88.70    5.63
   8   2  -8   87.17    7.37
   8   2  -8   77.69    9.34
  -6  -2   8   71.55    4.49
   6  -2  -8   79.29    5.92
   6  -2  -8   67.71    6.03
   6  -2  -8   73.34    4.14
   6  -2  -8   86.49    4.88
   6  -2  -8   78.60    5.59
   6  -2  -8   61.60    7.58
   6  -2  -8   70.22    5.18
   6   2  -8   73.34    5.90
   6   2  -8   75.73    4.50
   6   2  -8   61.25    6.86
  -6   2   8   74.77    4.82
   6   2  -8   72.41    5.80
   6   2  -8   69.45    6.07
   6   2  -8   73.40    4.73
   6   2  -8   66.58    5.34
   4  -2  -8   83.92    7.29
  -4  -2   8   87.14    4.82
  -4  -2   8   71.82    4.68
   4  -2  -8   82.69    5.24
  -4  -2   8   80.60    6.72
   4  -2  -8   85.44    4.59
   4  -2  -8   80.98    4.75
   4  -2  -8   87.06    5.86
   4  -2  -8   91.43    5.38
   4  -2  -8   90.26    5.85
  -4  -2   8   84.70    5.37
   4   2  -8   87.21    6.21
  -4   2   8   88.71    4.68
  -4   2   8   89.13    7.45
   4   2  -8   91.89    6.02
  -4   2   8   82.45    4.67
   4   2  -8   83.63    4.78
   4   2  -8   74.15    5.79
  -4   2   8   85.61    5.92
   4   2  -8   90.97    4.94
   2  -2  -8  174.13   10.65
  -2  -2   8  180.67    8.90
   2  -2  -8  159.33    9.09
   2  -2  -8  190.19   11.91
   2  -2  -8  184.75   10.44
   2  -2  -8  151.67    9.38
  -2  -2   8  159.26   10.55
   2  -2  -8  187.60    8.80
   2  -2  -8  180.30    8.67
  -2  -2   8  174.51    8.69
  -2  -2   8  184.81   11.11
   2   2  -8  193.35    9.54
  -2   2   8  194.41   11.96
   2   2  -8  184.81   11.19
   2   2  -8  176.26    8.74
  -2   2   8  185.81    8.81
  -2   2   8  174.61    8.60
  -2   2   8  187.64   10.46
  -2   2   8  199.54    9.54
   2   2  -8  192.04   11.29
  -2   2   8  187.46   10.68
   2   2  -8  185.57    8.90
   2   2  -8  175.54   10.61
   0  -2   8  182.54    9.12
   0  -2   8  187.99   10.99
   0  -2  -8  191.95    9.10
   0  -2   8  181.35    8.92
   0  -2  -8  164.72    9.06
   0  -2   8  186.76   11.28
   0  -2  -8  180.99    9.87
   0  -2  -8  181.18   12.08
   0  -2  -8  187.38    8.92
   0  -2  -8  193.38   11.26
   0   2  -8  218.57   11.40
   0   2   8  183.81    8.87
   0   2  -8  187.59    9.03
   0   2   8  198.61    9.13
   0   2   8  183.85   11.19
   0   2  -8  185.49    9.42
   0   2  -8  205.94   11.18
   0   2   8  194.88    9.65
   0   2  -8  170.53    9.53
   0   2   8  177.73   12.14
   0   2  -8  197.10    9.18
  -2  -2  -8  162.80    8.67
  -2  -2  -8  165.58    7.73
   2  -2   8  153.71    9.54
   2  -2   8  165.24    9.51
   2  -2   8  157.27    7.72
  -2  -2  -8  128.18    7.50
   2  -2   8  151.44    7.81
   2  -2   8  143.07    7.55
  -2  -2  -8  129.75    9.79
  -2  -2  -8  166.22    9.76
  -2  -2  -8  151.44   10.39
   2   2   8  154.01    8.21
   2   2   8  169.25    9.78
   2   2   8  157.97    7.54
   2   2   8  153.72    7.69
  -2   2  -8  139.59    9.52
   2   2   8  178.23   10.22
  -2   2  -8  150.25    7.70
   2   2   8  157.56    9.48
  -2   2  -8  157.35    7.68
   4  -2   8  143.94    7.27
   4  -2   8  143.61    7.20
   4  -2   8  130.74    7.48
  -4  -2  -8  141.77    9.90
  -4  -2  -8  158.07    9.83
  -4  -2  -8  145.61    7.36
   4  -2   8  147.69    9.27
  -4  -2  -8  119.88    8.65
   4  -2   8  145.35    9.39
  -4   2  -8  154.78    7.34
   4   2   8  153.02    9.62
   4   2   8  144.22    7.34
   4   2   8  145.24    9.84
   4   2   8  141.11    8.13
   4   2   8  137.82    7.28
   4   2   8  147.96    9.09
  -6  -2  -8   79.15    7.67
   6  -2   8   83.04    5.20
   6  -2   8   80.30    7.95
   6  -2   8   65.53    4.50
   6  -2   8   86.25    7.03
   6  -2   8   62.35    7.05
   6   2   8   68.33    4.98
   6   2   8   80.11    8.14
   6   2   8   71.01    6.18
   6   2   8   72.71    7.37
   7  -3  -8   39.75    4.98
   7  -3  -8   38.06    4.63
   7  -3  -8   45.05    5.80
  -7  -3   8   41.01    3.87
   7  -3  -8   49.22    7.00
   7  -3  -8   50.94    4.31
   7   3  -8   34.66    6.21
  -7   3   8   42.09    3.75
   7   3  -8   34.91    3.69
   7   3  -8   42.26    5.15
   7   3  -8   37.09    5.31
  -5  -3   8  139.19    7.32
   5  -3  -8  151.14    8.19
  -5  -3   8  122.68   10.11
   5  -3  -8  136.14    8.01
   5  -3  -8  141.68    7.19
  -5  -3   8  138.05    7.36
   5  -3  -8  160.76    7.22
   5  -3  -8  155.26   11.09
   5  -3  -8  150.22    9.15
   5   3  -8  143.07    7.38
   5   3  -8  143.43    8.44
  -5   3   8  142.44    7.13
   5   3  -8  136.52    8.68
  -5   3   8  132.92    7.19
   5   3  -8  148.19    7.42
   5   3  -8  146.48    9.53
  -5   3   8  116.72   10.99
   5   3  -8  139.18   10.37
   5   3  -8  149.28    9.76
   3  -3  -8  135.53    8.06
   3  -3  -8  125.52    8.25
   3  -3  -8  134.55    9.01
   3  -3  -8  137.85    7.54
  -3  -3   8  135.53    6.70
  -3  -3   8  121.99    7.95
   3  -3  -8  127.88    7.23
  -3  -3   8  134.74    6.85
   3  -3  -8  135.00    6.59
  -3  -3   8  143.96    9.24
   3  -3  -8  134.10    9.60
   3   3  -8  129.07    6.73
  -3   3   8  134.63    6.71
   3   3  -8  137.43    8.56
   3   3  -8  109.14    7.96
   3   3  -8  135.79    6.87
  -3   3   8  152.75    7.74
  -3   3   8  128.49    9.65
   3   3  -8  138.80    8.73
   3   3  -8  124.02    7.87
  -3   3   8  126.35    6.50
   3   3  -8  129.98    9.17
  -1  -3   8   90.87    4.86
   1  -3  -8   90.52    6.22
  -1  -3   8   92.16    5.09
   1  -3  -8   90.70    5.57
  -1  -3   8  106.19    6.99
   1  -3  -8   93.12    4.97
  -1  -3   8   77.01    6.00
   1  -3  -8   95.61    4.80
   1  -3  -8   82.20    5.13
   1  -3  -8   89.80    5.78
   1  -3  -8   84.57    7.02
   1   3  -8   88.35    6.06
   1   3  -8   93.02    5.98
   1   3  -8   97.92    6.09
  -1   3   8   81.53    7.32
   1   3  -8   90.41    4.98
  -1   3   8   93.34    5.00
  -1   3   8   90.92    4.73
  -1   3   8   92.48    6.11
  -1   3   8   96.36    5.56
   1   3  -8   93.98    6.82
   1   3  -8   94.79    5.09
   1   3  -8   96.83    5.90
   1  -3   8  248.84   14.62
  -1  -3  -8  230.56   15.78
  -1  -3  -8  225.84   14.35
  -1  -3  -8  215.44   14.97
   1  -3   8  241.60   12.20
   1  -3   8  267.62   14.25
   1  -3   8  243.69   11.75
   1  -3   8  249.13   11.55
  -1  -3  -8  255.74   11.72
  -1  -3  -8  253.01   11.53
  -1  -3  -8  265.15   12.78
  -1   3  -8  238.98   14.23
   1   3   8  249.11   11.50
   1   3   8  244.51   11.69
  -1   3  -8  237.62   12.49
  -1   3  -8  240.51   12.13
   1   3   8  246.23   14.46
  -1   3  -8  251.31   11.64
   1   3   8  241.11   12.31
   1   3   8  250.06   15.58
  -1   3  -8  273.28   11.80
   3  -3   8  105.54    6.21
   3  -3   8  111.86    7.48
  -3  -3  -8  111.53    5.76
   3  -3   8  100.35    5.72
  -3  -3  -8  127.30    8.17
  -3  -3  -8  103.95    7.35
   3  -3   8  111.18    6.00
   3  -3   8  107.97    7.91
  -3  -3  -8  119.68    8.05
  -3   3  -8  110.94    6.29
   3   3   8  103.17    7.29
   3   3   8  114.71    7.91
   3   3   8  112.60    8.23
  -3   3  -8  121.37    6.01
   3   3   8  114.22    5.69
   3   3   8  104.00    6.78
  -3   3  -8  107.18    6.67
   3   3   8  105.65    5.95
   5  -3   8   39.65    5.20
  -5  -3  -8   58.17    6.61
  -5  -3  -8   47.77    4.20
  -5  -3  -8   54.75    6.63
   5  -3   8   47.47    6.66
   5   3   8   52.22    3.82
   5   3   8   56.54    6.97
  -5   3  -8   55.06    3.75
   5   3   8   46.49    4.96
   5   3   8   48.73    6.18
   6  -4  -8   71.14    5.73
   6  -4  -8   75.45    6.86
   6  -4  -8   91.97    9.06
   6  -4  -8   78.63    4.84
   6  -4  -8   82.46    6.22
  -6  -4   8   84.65    5.32
   6   4  -8   77.87    7.24
   6   4  -8   81.26    5.30
   6   4  -8   92.04    9.20
   6   4  -8   79.51    6.78
  -6   4   8   81.31    4.72
   4  -4  -8  114.65    7.05
   4  -4  -8  125.18    9.45
   4  -4  -8  112.37    6.07
   4  -4  -8  112.05    5.94
  -4  -4   8  105.10    9.05
  -4  -4   8  111.53    6.13
  -4  -4   8  111.76    6.29
   4  -4  -8  116.90    6.96
   4  -4  -8  127.27    8.90
   4  -4  -8  112.99    7.52
   4   4  -8  108.90    6.28
  -4   4   8  122.04   10.19
   4   4  -8  112.36    8.18
  -4   4   8  117.16    5.88
  -4   4   8  113.28    7.25
   4   4  -8  112.90    7.94
  -4   4   8  118.81    6.17
   4   4  -8  113.92    6.88
   4   4  -8  109.61    6.31
   4   4  -8  113.53    9.25
   2  -4  -8  169.09    9.59
   2  -4  -8  173.46    9.11
   2  -4  -8  156.37   10.06
   2  -4  -8  167.96    8.21
   2  -4  -8  156.96   11.53
   2  -4  -8  161.21    8.75
  -2  -4   8  165.59    8.33
  -2  -4   8  151.88    9.79
  -2  -4   8  159.69    8.11
  -2  -4   8  181.38   11.16
   2   4  -8  147.62    8.92
   2   4  -8  177.41   10.32
   2   4  -8  158.16    9.63
  -2   4   8  169.05    8.01
   2   4  -8  163.34    9.65
   2   4  -8  163.04    8.25
  -2   4   8  166.76    8.92
   2   4  -8  165.23   10.45
  -2   4   8  160.34    8.20
   2   4  -8  165.64   10.90
   2   4  -8  164.90    8.30
   0  -4  -8  132.63    8.60
   0  -4   8  132.12    8.32
   0  -4   8  128.50    6.73
   0  -4  -8  115.76    9.68
   0  -4  -8  139.11    6.74
   0  -4   8  140.72    9.31
   0  -4  -8  140.93    7.93
   0  -4   8  136.40    7.41
   0  -4  -8  137.19    6.99
   0  -4  -8  124.10    9.12
   0  -4  -8  118.77    7.09
   0  -4   8  136.47    7.03
   0   4   8  139.15    6.74
   0   4   8  134.92    6.69
   0   4  -8  141.23    6.98
   0   4   8  131.22    8.46
   0   4  -8  137.52    8.34
   0   4  -8  119.43    9.04
   0   4  -8  135.52    8.37
   0   4   8  137.49    9.61
   0   4   8  137.26    7.47
   0   4   8  133.16    6.91
   0   4  -8  144.12    7.04
   0   4  -8  127.91    7.86
   2  -4   8   97.50    6.72
  -2  -4  -8  103.27    5.20
  -2  -4  -8   98.85    6.87
  -2  -4  -8   99.25    5.66
   2  -4   8  101.18    5.61
   2  -4   8   89.15    5.16
  -2  -4  -8   87.13    7.46
   2  -4   8  106.07    5.87
   2  -4   8   91.95    7.59
  -2  -4  -8  100.21    7.34
  -2   4  -8   91.91    6.55
   2   4   8   95.12    5.56
  -2   4  -8   92.78    5.43
   2   4   8   95.53    6.79
  -2   4  -8   94.04    5.45
   2   4   8   99.03    5.14
   2   4   8   99.69    7.79
   2   4   8   91.70    7.10
  -2   4  -8   89.74    5.83
   2   4   8   97.35    6.48
   4  -4   8   78.61    5.00
   4  -4   8   82.22    6.48
  -4  -4  -8   77.62    7.70
  -4  -4  -8   83.71    4.80
   4  -4   8   71.35    5.51
  -4  -4  -8   80.76    7.19
  -4   4  -8   88.09    4.95
   4   4   8   61.79    6.84
   4   4   8   75.51    6.31
   4   4   8   83.60    4.65
   7  -5  -8   99.75    8.01
   7  -5  -8   99.94    9.10
  -7  -5   8  103.37    7.04
   7  -5  -8   93.01   11.38
   7   5  -8   97.87    9.44
   7   5  -8  101.63   12.90
  -7   5   8  105.34    5.94
   5  -5  -8   83.39    8.99
   5  -5  -8   94.80    6.98
  -5  -5   8   87.84    5.80
   5  -5  -8   96.53    5.23
   5  -5  -8   90.65    6.33
   5  -5  -8   96.20    6.89
   5   5  -8   91.58    9.84
   5   5  -8   89.43    7.56
   5   5  -8   95.18    5.82
   5   5  -8   89.23    7.38
  -5   5   8   90.24    5.12
   3  -5  -8  146.90    7.16
  -3  -5   8  140.22    7.37
  -3  -5   8  139.10    7.52
   3  -5  -8  144.47    8.62
   3  -5  -8  119.49   10.70
   3  -5  -8  142.57    8.12
   3  -5  -8  142.95    8.20
   3   5  -8  139.78    9.30
   3   5  -8  138.37    9.56
   3   5  -8  136.22    7.51
   3   5  -8  129.04    7.55
  -3   5   8  144.60    7.64
  -3   5   8  124.57    7.38
   3   5  -8  139.43   10.45
  -3   5   8  153.62    7.14
  -3   5   8  133.09    8.32
  -1  -5   8  209.47   13.78
   1  -5  -8  183.18   10.84
   1  -5  -8  221.78   12.67
  -1  -5   8  199.36   10.11
  -1  -5   8  210.59   10.34
   1  -5  -8  201.76   13.48
   1  -5  -8  196.98   10.30
  -1  -5   8  220.48   11.09
   1  -5  -8  212.06   10.06
   1  -5  -8  206.35   11.27
  -1  -5   8  214.16   12.21
   1   5  -8  220.41   11.74
   1   5  -8  198.95   11.14
  -1   5   8  211.92   10.94
  -1   5   8  201.34   14.46
   1   5  -8  218.95   12.65
   1   5  -8  205.01   10.34
  -1   5   8  206.10   10.33
   1   5  -8  200.18   10.22
   1   5  -8  204.18   13.42
   1   5  -8  210.95   12.91
  -1   5   8  211.68   10.03
  -1   5   8  204.71   10.34
  -1  -5  -8   59.60    5.93
  -1  -5  -8   58.55    3.77
   1  -5   8   52.57    4.86
  -1  -5  -8   58.33    5.46
  -1  -5  -8   57.07    4.38
   1  -5   8   54.53    4.17
  -1  -5  -8   51.11    6.43
   1  -5   8   59.40    4.50
   1   5   8   50.78    3.60
   1   5   8   52.88    3.40
  -1   5  -8   60.31    5.86
   1   5   8   61.89    5.18
  -1   5  -8   57.34    4.11
   1   5   8   59.45    4.95
  -1   5  -8   46.46    4.91
  -1   5  -8   55.33    4.19
   3  -5   8   58.39    5.65
   3  -5   8   58.01    5.06
  -3  -5  -8   54.74    6.44
   3  -5   8   65.56    4.46
  -3  -5  -8   53.90    6.65
  -3  -5  -8   61.58    4.09
   3   5   8   54.58    5.30
  -3   5  -8   60.23    4.49
   3   5   8   61.24    6.04
   3   5   8   59.87    3.89
  -5  -5  -8   59.27    4.62
   5  -5   8   50.46    6.75
  -5  -5  -8   56.17    6.72
   5  -5   8   57.98    5.99
  -5   5  -8   61.21    4.67
   5   5   8   43.77    6.28
   5   5   8   63.37    6.71
   6  -6  -8   85.43    7.88
   6  -6  -8   64.07   10.38
   6  -6  -8   93.57    6.84
   6  -6  -8   79.93    7.89
   6   6  -8   70.40   10.02
   6   6  -8   83.66    8.18
   6   6  -8   79.43    8.60
   6   6  -8   76.39    6.25
   4  -6  -8  148.52    9.47
   4  -6  -8  147.55    9.34
   4  -6  -8  155.52    7.73
  -4  -6   8  143.45    8.16
  -4  -6   8  148.00    8.10
   4  -6  -8  139.12    8.86
   4   6  -8  146.15    8.19
   4   6  -8  133.71   12.03
  -4   6   8  148.68    8.22
   4   6  -8  142.21   10.46
   4   6  -8  143.35   10.30
  -4   6   8  140.18    7.50
   2  -6  -8   69.58    6.24
  -2  -6   8   82.29    5.45
  -2  -6   8   79.69    6.26
   2  -6  -8   82.09    4.89
   2  -6  -8   62.01    8.26
   2  -6  -8   81.56    6.41
  -2   6   8   78.54    5.47
   2   6  -8   87.05    8.29
  -2   6   8   77.28    4.77
   2   6  -8   84.24    6.61
   2   6  -8   80.62    5.36
   2   6  -8   83.43    6.44
  -2   6   8   83.09    5.44
   0  -6   8  105.38    6.66
   0  -6   8   86.09    6.77
   0  -6   8  102.52    5.97
   0  -6  -8   96.68    8.90
   0  -6  -8   97.97    5.56
   0  -6  -8   96.36    7.14
   0  -6  -8   92.50    6.11
   0   6  -8   81.54    5.91
   0   6  -8   98.84    6.03
   0   6   8   96.29    5.46
   0   6   8   92.11    5.57
   0   6  -8   92.01    7.39
  -2  -6  -8   61.06    8.29
   2  -6   8   86.33    6.75
   2  -6   8   88.21    5.84
  -2  -6  -8   83.11    7.49
  -2  -6  -8   83.41    5.25
   2  -6   8   92.87    6.52
  -2  -6  -8   86.90    6.28
   2   6   8   81.42    7.04
   2   6   8   85.32    6.96
  -2   6  -8   81.83    5.62
   2   6   8   91.73    5.05
   2   6   8   88.53    5.23
  -4  -6  -8   21.55    5.67
   4  -6   8   25.42    4.16
   4  -6   8   27.85    4.66
   4   6   8   25.33    4.51
   4   6   8   27.68    4.58
  -4   6  -8   25.69    3.38
   3  -7  -8  117.60    6.80
   3  -7  -8  119.93    8.44
  -3  -7   8  123.18    7.56
   3  -7  -8  115.46    8.85
   3   7  -8  115.04    7.43
   3   7  -8  115.77    9.10
   3   7  -8  113.42   11.41
  -3   7   8  116.40    6.66
  -1  -7   8  109.64    6.91
   1  -7  -8  114.46   10.35
   1  -7  -8  111.77    8.23
   1  -7  -8  112.12    6.36
   1  -7  -8   91.19    7.82
  -1  -7   8  100.33    7.65
  -1   7   8  115.22    6.26
  -1   7   8  107.20    7.01
   1   7  -8  107.18    6.96
   1   7  -8   87.68    9.82
  -1  -7  -8   50.06    4.55
  -1  -7  -8   47.43    5.80
   1  -7   8   45.89    4.84
   1  -7   8   46.09    5.51
   1  -7   8   46.79    5.80
  -1   7  -8   51.82    4.94
   1   7   8   52.71    4.38
   1   7   8   48.13    5.68
   8   0  -9   26.72    5.19
   8   0  -9   28.92    4.31
   8   0  -9   23.24    3.98
   8   0  -9   28.15    5.23
   8   0  -9   23.05    4.25
  -8   0   9   26.89    2.91
   6   0  -9   75.97    4.64
   6   0  -9   80.92    6.77
   6   0  -9   68.52    6.72
   6   0  -9   77.06    5.96
   6   0  -9   75.54    5.11
  -6   0   9   76.02    5.14
   6   0  -9   75.42    5.48
   4   0  -9  195.17    9.48
  -4   0   9  199.23   11.17
   4   0  -9  173.69    9.89
   4   0  -9  215.14   11.36
  -4   0   9  166.38   12.85
   4   0  -9  200.28    9.27
  -4   0   9  176.84   11.62
   4   0  -9  185.82   12.44
  -4   0   9  192.32    9.30
  -4   0   9  189.99    9.52
   4   0  -9  192.67   11.65
  -2   0   9  102.01    7.63
  -2   0   9  127.11    6.43
  -2   0   9  128.79    8.59
   2   0  -9  126.16    6.26
   2   0  -9  118.39    6.84
   2   0  -9  103.96    8.44
  -2   0   9  128.28    6.34
  -2   0   9  130.10    7.83
   2   0  -9  127.42    6.39
   2   0  -9  123.52    7.97
   2   0  -9  135.09    7.93
   0   0   9  173.16   10.02
   0   0  -9  181.39   10.86
   0   0  -9  173.01    8.31
   0   0   9  171.71    8.41
   0   0  -9  167.31   10.02
   0   0  -9  165.98    8.34
   0   0  -9  146.64   10.30
   0   0   9  162.08   10.32
   0   0  -9  177.06    8.92
   0   0   9  172.41    8.32
   0   0   9  178.66   10.77
   0   0  -9  175.53   10.40
   0   0  -9  174.45    8.48
   2   0   9  327.14   16.01
   2   0   9  307.00   18.68
   2   0   9  324.17   15.17
  -2   0  -9  338.79   19.12
   2   0   9  346.65   18.29
  -2   0  -9  343.26   15.23
  -2   0  -9  340.21   15.22
   2   0   9  338.02   19.67
  -2   0  -9  286.20   16.14
   2   0   9  335.21   15.25
  -2   0  -9  309.83   18.86
  -4   0  -9   96.16    5.25
   4   0   9   84.85    6.18
  -4   0  -9  100.76    6.82
   4   0   9   89.42    7.22
   4   0   9   95.20    6.44
   4   0   9   96.50    6.54
   4   0   9   83.83    5.38
   4   0   9   91.87    5.27
  -6   0  -9   11.23    4.45
  -6   0  -9   16.42    2.43
  -7  -1   9   87.13    4.97
   7  -1  -9   57.88    5.23
   7  -1  -9   77.90    6.21
   7  -1  -9   72.93    6.12
   7  -1  -9   71.41    7.06
   7  -1  -9   67.26    7.86
   7   1  -9   75.26    6.19
   7   1  -9   63.49    6.89
   7   1  -9   87.97    5.15
  -7   1   9   69.25    5.38
   7   1  -9   70.96    7.54
   5  -1  -9   56.74    4.93
  -5  -1   9   56.32    5.86
  -5  -1   9   49.66    3.98
   5  -1  -9   49.63    4.48
   5  -1  -9   65.29    4.08
  -5  -1   9   63.95    4.27
   5  -1  -9   52.18    3.71
   5  -1  -9   53.18    5.04
   5  -1  -9   52.84    6.06
   5  -1  -9   56.70    4.68
  -5   1   9   56.79    3.82
  -5   1   9   56.99    5.25
   5   1  -9   54.45    4.68
   5   1  -9   55.63    5.36
   5   1  -9   55.87    4.16
   5   1  -9   58.36    3.79
  -5   1   9   45.75    6.83
   5   1  -9   48.69    5.54
  -5   1   9   61.36    4.09
   3  -1  -9  154.01    8.23
   3  -1  -9  162.57    8.28
   3  -1  -9  153.21    9.44
  -3  -1   9  149.15    9.26
  -3  -1   9  167.96    7.87
   3  -1  -9  173.34    9.53
   3  -1  -9  145.61    7.71
   3  -1  -9  161.72    7.82
  -3  -1   9  163.67    9.86
  -3  -1   9  151.88   10.59
   3  -1  -9  141.42   10.60
  -3  -1   9  139.15    7.89
  -3   1   9  152.59    9.30
  -3   1   9  137.02    7.72
   3   1  -9  157.75   10.09
   3   1  -9  149.17    9.84
   3   1  -9  145.09    9.50
  -3   1   9  158.58    7.79
   3   1  -9  127.84    7.81
   3   1  -9  161.31    8.18
   3   1  -9  157.27    7.75
  -3   1   9  159.66    9.46
  -3   1   9  169.96   10.86
   3   1  -9  160.35    8.43
   1  -1  -9  326.22   21.93
   1  -1  -9  359.10   16.80
  -1  -1   9  348.15   16.88
  -1  -1   9  375.30   20.38
  -1  -1   9  322.69   21.78
   1  -1  -9  369.77   17.68
   1  -1  -9  360.97   17.32
   1  -1  -9  390.68   20.53
   1  -1  -9  398.85   20.25
  -1  -1   9  355.91   16.77
   1  -1  -9  378.72   16.82
  -1  -1   9  346.50   20.38
   1   1  -9  339.61   16.83
  -1   1   9  348.61   16.75
  -1   1   9  375.08   21.99
   1   1  -9  364.30   16.79
  -1   1   9  354.95   16.79
  -1   1   9  349.60   20.09
  -1   1   9  391.27   17.65
   1   1  -9  375.49   21.94
   1   1  -9  406.97   17.59
   1   1  -9  305.18   17.49
   1   1  -9  389.45   20.53
   1   1  -9  382.05   20.42
  -1   1   9  343.71   20.40
  -1  -1  -9  147.16    8.95
  -1  -1  -9  147.46    8.17
   1  -1   9  169.16    8.05
  -1  -1  -9  165.91   10.76
  -1  -1  -9  164.35   10.30
   1  -1   9  146.46    9.96
   1  -1   9  157.90    8.21
  -1  -1  -9  168.40    8.09
  -1  -1  -9  159.29   10.14
   1  -1   9  173.45   10.05
   1  -1   9  177.41   10.00
   1   1   9  151.97   10.67
  -1   1  -9  178.80    8.58
   1   1   9  148.74    8.11
  -1   1  -9  155.91    8.00
   1   1   9  172.21    9.26
   1   1   9  164.57   10.16
   1   1   9  141.21    8.79
  -1   1  -9  186.58   10.24
  -1   1  -9  168.74    8.29
  -1   1  -9  176.00    9.90
  -1   1  -9  165.25    8.18
  -1   1  -9  153.01   10.22
  -3  -1  -9  185.63   10.10
   3  -1   9  155.51    8.79
   3  -1   9  186.78   10.79
   3  -1   9  175.09    8.69
   3  -1   9  182.43   11.14
   3  -1   9  184.93    8.64
  -3  -1  -9  194.32    8.70
  -3  -1  -9  183.54   11.18
  -3  -1  -9  177.00   11.52
  -3   1  -9  164.82    9.58
   3   1   9  185.95    8.77
  -3   1  -9  167.46    8.81
  -3   1  -9  163.47   11.34
   3   1   9  169.32   11.09
   3   1   9  188.00   11.43
   3   1   9  170.25    9.81
   5  -1   9  111.61    8.35
   5  -1   9  106.47    6.08
   5  -1   9  116.02    5.79
   5  -1   9  103.48    8.19
   5  -1   9  112.41    6.27
  -5  -1  -9  116.32    8.43
  -5  -1  -9  114.40    5.97
  -5   1  -9  111.32    6.10
   5   1   9   94.45    8.07
   5   1   9  109.41    6.35
   5   1   9  109.20    7.37
   5   1   9  104.96    8.57
   5   1   9  105.94    5.97
   5   1   9  108.29    8.18
   8  -2  -9   56.10    5.89
   8  -2  -9   57.45    7.58
  -8  -2   9   59.77    4.63
   8  -2  -9   48.32    6.14
   8   2  -9   55.85    6.45
  -8   2   9   55.73    5.31
   8   2  -9   44.41    6.86
   8   2  -9   47.18    7.12
   6  -2  -9  115.92    6.09
   6  -2  -9  105.99    6.56
   6  -2  -9   99.28    6.95
   6  -2  -9  103.84    7.79
   6  -2  -9   91.49    9.13
  -6  -2   9  102.59    5.97
   6   2  -9  101.43    7.16
   6   2  -9   89.78    7.85
  -6   2   9  108.30    6.11
   6   2  -9  110.49    6.00
   6   2  -9   95.83    7.55
   6   2  -9   89.99    8.47
   4  -2  -9   80.02    4.76
  -4  -2   9   90.58    5.18
  -4  -2   9   80.34    6.99
   4  -2  -9   91.06    6.19
   4  -2  -9   85.05    7.44
   4  -2  -9   85.75    5.52
  -4  -2   9   75.34    4.94
   4  -2  -9   85.65    6.08
  -4  -2   9   84.69    5.63
   4  -2  -9   74.65    5.48
   4  -2  -9   83.05    5.03
  -4   2   9   87.71    6.14
  -4   2   9   75.23    4.79
   4   2  -9   85.56    4.97
  -4   2   9   93.68    4.98
   4   2  -9   82.24    7.13
   4   2  -9   87.84    6.53
   4   2  -9   88.10    5.17
  -4   2   9   85.11    7.73
   4   2  -9   93.19    6.26
   4   2  -9   78.09    6.19
   2  -2  -9  205.22   13.27
  -2  -2   9  191.84    9.82
   2  -2  -9  186.19   10.67
   2  -2  -9  192.77    9.92
   2  -2  -9  193.35   12.06
  -2  -2   9  209.75   12.04
   2  -2  -9  214.34   11.84
   2  -2  -9  195.42    9.84
  -2  -2   9  200.70   10.09
  -2  -2   9  217.92   12.49
   2   2  -9  233.46   12.11
  -2   2   9  196.85    9.79
  -2   2   9  210.47   10.66
   2   2  -9  208.92   12.73
   2   2  -9  205.65   10.11
   2   2  -9  188.85    9.86
  -2   2   9  206.04   10.00
  -2   2   9  203.14   11.79
   2   2  -9  198.22   12.47
  -2   2   9  208.50   12.09
   2   2  -9  223.86   10.79
  -2   2   9  202.27   13.30
   0  -2  -9  142.93    9.66
   0  -2  -9  165.89    7.74
   0  -2  -9  141.13    8.64
   0  -2   9  157.66    7.94
   0  -2   9  153.59    7.67
   0  -2  -9  152.98    7.85
   0  -2   9  163.59    9.53
   0  -2  -9  162.37   10.51
   0  -2   9  159.83    9.81
   0   2   9  163.07    7.67
   0   2  -9  144.79    8.22
   0   2  -9  162.65    7.96
   0   2  -9  171.27    9.77
   0   2   9  156.06    7.91
   0   2  -9  148.29    9.76
   0   2  -9  144.22    9.65
   0   2   9  146.58   10.55
   0   2  -9  157.72    8.27
   0   2   9  139.32    8.46
   2  -2   9  124.90    8.12
  -2  -2  -9  118.68    6.54
  -2  -2  -9  112.36    8.86
   2  -2   9  130.21    8.37
  -2  -2  -9  126.77    6.66
  -2  -2  -9  130.28    7.84
   2  -2   9  126.74    6.50
   2  -2   9  128.31    6.62
   2  -2   9  111.22    6.47
  -2  -2  -9  103.08    8.19
   2   2   9  126.64    7.23
   2   2   9  129.53    8.59
  -2   2  -9  121.49    8.41
   2   2   9  120.07    6.43
   2   2   9  114.57    6.61
  -2   2  -9  110.81    6.75
  -2   2  -9  134.95    6.68
  -2   2  -9  119.37    6.51
   2   2   9  138.16    8.52
  -2   2  -9  133.14    6.88
   4  -2   9  151.76    7.91
   4  -2   9  158.92   10.29
  -4  -2  -9  163.28    9.93
   4  -2   9  154.67    8.18
  -4  -2  -9  155.50   10.86
   4  -2   9  157.89   10.47
  -4  -2  -9  156.36    8.02
   4   2   9  147.57    9.19
   4   2   9  172.76   10.10
   4   2   9  170.52   10.50
   4   2   9  164.65    8.37
   4   2   9  153.51   10.89
  -4   2  -9  159.48    8.16
   6  -2   9   40.15    5.24
  -6  -2  -9   37.55    6.00
   6  -2   9   42.67    5.80
   6   2   9   42.91    5.04
   6   2   9   47.74    6.00
   7  -3  -9   43.87    6.92
   7  -3  -9   52.92    4.60
   7  -3  -9   38.66    4.47
   7  -3  -9   44.42    5.47
   7  -3  -9   45.88    6.29
  -7  -3   9   40.17    4.31
   7   3  -9   45.20    7.02
   7   3  -9   46.49    5.63
   7   3  -9   45.33    6.08
   7   3  -9   43.73    4.18
   5  -3  -9  113.62    8.19
  -5  -3   9  120.32    6.68
   5  -3  -9  117.68    7.47
   5  -3  -9  126.48    9.97
   5  -3  -9  121.69    6.58
   5  -3  -9  101.68    7.37
   5  -3  -9  111.40    6.43
  -5  -3   9  130.31    6.73
   5   3  -9  122.11    8.64
  -5   3   9  123.29    6.46
   5   3  -9  126.68    8.78
  -5   3   9  127.31    6.55
   5   3  -9  120.54    7.98
   5   3  -9  130.20    6.78
   3  -3  -9  130.44    8.05
  -3  -3   9  140.43    7.14
   3  -3  -9  137.22    7.08
   3  -3  -9  136.43    8.80
   3  -3  -9  135.94    6.98
   3  -3  -9  139.39   10.07
   3  -3  -9  125.83    7.72
  -3  -3   9  141.30    7.36
  -3  -3   9  122.31    9.60
   3  -3  -9  143.42    8.52
   3  -3  -9  150.49    9.59
  -3  -3   9  132.13    8.55
  -3   3   9  148.64   10.24
   3   3  -9  129.90    8.58
   3   3  -9  132.25    7.13
   3   3  -9  126.88    8.25
   3   3  -9  143.88    9.08
   3   3  -9  146.01    7.38
  -3   3   9  144.28    8.77
  -3   3   9  139.17    8.04
  -3   3   9  143.49    6.94
   3   3  -9  147.92    9.17
  -3   3   9  133.21    7.13
   3   3  -9  145.90    9.84
  -1  -3   9   95.79    5.47
   1  -3  -9   90.22    6.32
  -1  -3   9   74.92    7.06
   1  -3  -9   96.00    5.31
   1  -3  -9   92.19    5.86
  -1  -3   9   88.78    6.42
   1  -3  -9   87.19    6.71
   1  -3  -9   98.02    5.10
   1  -3  -9   96.37    7.43
  -1  -3   9   92.71    5.13
   1   3  -9   98.29    6.31
   1   3  -9  104.17    6.46
   1   3  -9   81.97    5.37
   1   3  -9   91.39    6.56
   1   3  -9  102.56    7.14
  -1   3   9   96.14    4.99
   1   3  -9   95.80    5.25
  -1   3   9  110.41    6.77
  -1   3   9   89.61    7.77
   1   3  -9  108.96    6.29
  -1   3   9   91.08    5.31
  -1   3   9   85.68    6.05
  -1  -3  -9  184.48   10.02
  -1  -3  -9  185.61    8.55
   1  -3   9  169.16    8.84
  -1  -3  -9  164.49   11.98
   1  -3   9  162.77   10.61
   1  -3   9  189.86    9.12
  -1  -3  -9  162.77   11.01
  -1  -3  -9  188.80    8.87
   1  -3   9  163.57   11.18
   1  -3   9  169.40    8.54
  -1  -3  -9  168.87   11.41
   1   3   9  183.88    8.88
   1   3   9  177.38    8.47
  -1   3  -9  174.30    8.83
  -1   3  -9  175.76    9.53
  -1   3  -9  182.67    8.75
   1   3   9  173.06    9.36
  -1   3  -9  163.74    9.23
   1   3   9  161.37   10.88
   1   3   9  187.91   11.83
  -1   3  -9  171.01   10.84
  -3  -3  -9  111.82    8.56
   3  -3   9  111.84    6.34
   3  -3   9  115.28    6.62
  -3  -3  -9  121.10    6.33
   3  -3   9  112.94    8.53
   3  -3   9  121.25    8.19
  -3  -3  -9  107.34    8.70
   3  -3   9  114.50    6.52
  -3  -3  -9  111.74    8.20
  -3   3  -9  117.28    6.48
   3   3   9  120.18    6.84
   3   3   9  121.72    8.90
   3   3   9  116.40    6.14
   3   3   9  132.59    7.95
   3   3   9  117.06    8.43
   5  -3   9   38.60    4.41
  -5  -3  -9   43.72    5.82
  -5  -3  -9   50.01    4.31
   5  -3   9   37.22    5.58
   5   3   9   43.75    6.55
  -5   3  -9   42.19    3.92
   5   3   9   41.97    4.88
   5   3   9   46.22    7.28
   6  -4  -9   96.26    6.76
   6  -4  -9   91.44    5.63
   6  -4  -9   93.83    9.48
  -6  -4   9   93.44    5.93
   6  -4  -9   95.87    7.79
   6  -4  -9   94.53    7.06
   6   4  -9   90.76    5.94
   6   4  -9   89.02    7.99
  -6   4   9   92.66    5.42
   6   4  -9   95.57    7.81
   4  -4  -9  108.56    7.40
  -4  -4   9  108.27    6.27
   4  -4  -9  114.17    9.29
   4  -4  -9  106.62    5.89
   4  -4  -9  102.69    6.91
  -4  -4   9  110.24    6.16
   4  -4  -9  110.33    7.14
  -4   4   9  108.10    6.13
   4   4  -9   98.69    6.98
   4   4  -9  112.74    7.93
   4   4  -9  110.25    6.28
  -4   4   9  118.24    7.37
  -4   4   9  110.91    5.77
   4   4  -9  109.16    9.21
   4   4  -9  107.62    7.94
   2  -4  -9  111.76    8.83
   2  -4  -9  100.80    6.86
   2  -4  -9  113.40    7.29
  -2  -4   9  117.68    7.29
  -2  -4   9  107.39    5.96
   2  -4  -9  113.00    5.83
  -2  -4   9  114.99    6.26
  -2  -4   9  106.49    8.67
   2  -4  -9  115.87    6.19
   2  -4  -9   93.20    6.42
   2   4  -9  112.40    7.52
  -2   4   9   94.39    9.36
  -2   4   9  108.07    7.51
  -2   4   9  112.31    6.19
   2   4  -9  112.82    8.44
   2   4  -9  115.72    6.28
  -2   4   9  103.14    7.10
   2   4  -9  106.93    7.70
   2   4  -9  108.64    6.15
   2   4  -9  110.07    7.22
   2   4  -9  125.21    7.61
  -2   4   9  112.82    5.76
   0  -4  -9   99.75    6.68
   0  -4   9  104.32    7.94
   0  -4  -9   88.02    4.95
   0  -4   9   99.07    5.82
   0  -4  -9   93.44    7.16
   0  -4   9   84.53    5.03
   0  -4  -9   82.93    7.28
   0  -4  -9   93.18    5.46
   0  -4   9   99.10    5.54
   0  -4   9   84.06    6.41
   0  -4  -9   81.02    7.78
   0   4  -9   90.23    5.42
   0   4  -9   93.23    7.40
   0   4   9   86.51    4.88
   0   4   9   86.31    6.03
   0   4  -9   88.01    5.31
   0   4  -9   86.14    6.61
   0   4  -9   95.98    6.67
   0   4   9   92.88    6.71
   0   4   9   90.70    7.98
   0   4   9   91.28    5.42
  -2  -4  -9   92.47    5.61
   2  -4   9   86.79    5.39
  -2  -4  -9   65.20    7.32
   2  -4   9   87.31    6.48
  -2  -4  -9   85.59    6.95
  -2  -4  -9   79.99    7.03
   2  -4   9   86.89    7.62
  -2  -4  -9   87.35    4.90
   2  -4   9   86.48    5.52
   2   4   9   87.57    4.79
   2   4   9   88.34    6.40
   2   4   9   73.67    6.91
  -2   4  -9   81.44    5.18
  -2   4  -9   73.56    5.86
  -2   4  -9   95.96    5.38
  -2   4  -9   83.66    6.51
   2   4   9   91.03    8.05
   4  -4   9  104.96    6.32
   4  -4   9   95.37    5.82
  -4  -4  -9   89.58    8.38
   4  -4   9   85.28    7.49
  -4  -4  -9   88.54    5.51
  -4   4  -9   92.88    5.70
   4   4   9   91.97    5.34
   4   4   9   81.41    7.90
   4   4   9   81.38    6.92
   5  -5  -9   69.28    6.35
   5  -5  -9   68.18    8.37
  -5  -5   9   49.97    5.02
  -5  -5   9   70.35    5.13
   5  -5  -9   70.08    4.59
   5  -5  -9   67.28    6.13
   5  -5  -9   73.16    6.00
   5   5  -9   64.19    6.51
   5   5  -9   71.43    5.29
   5   5  -9   69.02    6.67
  -5   5   9   66.47    4.29
   5   5  -9   55.31    8.99
  -3  -5   9   72.19    4.98
   3  -5  -9   76.76    5.98
   3  -5  -9   67.47    7.67
   3  -5  -9   58.71    5.40
   3  -5  -9   77.42    4.49
   3  -5  -9   63.45    5.66
  -3  -5   9   71.76    4.81
   3   5  -9   74.74    5.07
   3   5  -9   75.00    5.98
  -3   5   9   55.98    6.71
   3   5  -9   71.24    6.14
  -3   5   9   75.27    4.37
   3   5  -9   66.94    7.59
  -3   5   9   65.83    4.91
   1  -5  -9   84.59    6.46
  -1  -5   9   97.47    5.81
   1  -5  -9  108.03    7.33
  -1  -5   9  105.68    6.17
   1  -5  -9  110.53    6.30
  -1  -5   9   92.36    7.15
   1  -5  -9  103.16    5.67
  -1  -5   9  105.07    6.70
  -1   5   9  102.99    6.16
   1   5  -9  104.34    7.20
  -1   5   9  101.43    7.47
  -1   5   9  106.72    5.61
   1   5  -9  102.53    8.59
   1   5  -9   99.74    6.11
   1   5  -9  112.22    6.22
   1  -5   9   32.32    3.91
  -1  -5  -9   35.21    4.54
  -1  -5  -9   36.08    4.28
   1  -5   9   42.86    4.71
  -1  -5  -9   39.50    5.92
  -1  -5  -9   41.08    3.26
  -1  -5  -9   31.81    5.38
   1  -5   9   39.56    4.24
  -1   5  -9   43.77    4.89
   1   5   9   38.95    4.74
   1   5   9   38.62    3.06
  -1   5  -9   33.33    4.04
  -1   5  -9   35.41    3.73
  -1   5  -9   38.72    3.88
  -3  -5  -9   36.57    5.67
   3  -5   9   42.50    4.35
   3  -5   9   53.32    5.00
  -3  -5  -9   43.85    3.83
   3  -5   9   34.34    5.51
   3   5   9   42.44    6.10
   3   5   9   42.32    3.55
  -3   5  -9   48.25    4.27
   3   5   9   41.98    5.19
   4  -6  -9  117.05    9.23
   4  -6  -9  146.42    7.58
   4  -6  -9  124.30   12.06
   4  -6  -9  136.14    9.29
   4  -6  -9  142.53    9.07
  -4  -6   9  141.41    8.16
   4   6  -9  137.04   10.28
  -4   6   9  141.23    7.39
  -4   6   9  142.75    8.16
   4   6  -9  144.36    8.08
   4   6  -9  129.16   11.94
   4   6  -9  142.87   10.18
  -2  -6   9   30.09    3.34
   2  -6  -9   30.17    4.40
   2  -6  -9   26.66    4.13
   2  -6  -9   24.87    5.54
   2  -6  -9   34.68    3.36
   2   6  -9   32.57    4.03
   2   6  -9   33.43    4.72
   2   6  -9   31.93    5.65
  -2   6   9   33.32    4.09
  -2   6   9   30.14    3.01
   0  -6   9   45.96    5.22
   0  -6  -9   44.91    7.43
   0  -6   9   34.28    4.10
   0  -6  -9   48.26    6.27
   0  -6   9   38.94    4.39
   0  -6  -9   51.52    3.91
   0   6   9   46.38    3.92
   0   6  -9   43.19    4.82
   0   6   9   46.71    3.73
   0   6  -9   51.58    4.38
   2  -6   9   83.75    7.33
  -2  -6  -9   80.09    8.15
   2  -6   9   87.99    6.70
   2  -6   9   95.28    6.12
  -2  -6  -9   85.44    5.50
   2   6   9   82.57    5.26
   2   6   9   75.76    7.15
  -2   6  -9   86.20    6.17
   2   6   9   94.32    7.59
  -3  -7   9   58.32    5.92
   3  -7  -9   54.27    6.17
   3  -7  -9   63.52    7.11
   3  -7  -9   62.70    4.77
   3   7  -9   49.64    7.95
   3   7  -9   38.37    6.43
   3   7  -9   54.12    5.75
  -3   7   9   63.22    5.01
   3   7  -9   56.09    6.83
   1  -7  -9   21.51    4.44
  -1  -7   9   30.13    4.61
   1  -7  -9   34.72    3.99
  -1  -7   9   32.41    3.93
   1  -7  -9   35.03    5.28
   1  -7  -9   35.85    6.44
  -1   7   9   36.04    4.88
   1   7  -9   30.66    6.42
   1   7  -9   33.29    3.83
  -1   7   9   37.99    3.98
   1  -7   9   28.21    3.63
   1  -7   9   34.49    4.64
  -1  -7  -9   33.13    5.86
   1  -7   9   32.25    4.67
   1   7   9   29.09    3.32
   8   0 -10   32.26    6.01
  -8   0  10   39.76    4.72
   8   0 -10   31.59    4.78
   8   0 -10   36.30    5.98
   8   0 -10   27.96    4.73
   6   0 -10   90.98    7.44
  -6   0  10   82.35    5.83
   6   0 -10   84.95    6.73
   6   0 -10   87.67    7.64
   6   0 -10   75.21    6.14
   6   0 -10   75.37    5.63
  -4   0  10  228.22   14.76
  -4   0  10  210.88   16.25
   4   0 -10  269.73   11.89
   4   0 -10  269.34   12.14
   4   0 -10  250.79   14.87
   4   0 -10  243.17   14.50
  -4   0  10  268.91   12.17
   4   0 -10  216.35   15.91
  -4   0  10  262.90   11.89
  -4   0  10  268.71   14.39
   4   0 -10  227.17   12.71
  -2   0  10  126.52    6.55
   2   0 -10  125.44    6.33
   2   0 -10  121.86    6.94
   2   0 -10  125.19    6.44
  -2   0  10  106.74    7.89
   2   0 -10  124.42    8.05
   2   0 -10  111.71    8.63
  -2   0  10  132.49    8.74
  -2   0  10  128.06    7.96
   2   0 -10  110.05    7.97
  -2   0  10  124.74    6.37
   0   0  10  268.88   15.46
   0   0  10  242.03   11.97
   0   0 -10  258.73   11.91
   0   0 -10  254.45   14.35
   0   0 -10  251.46   12.18
   0   0 -10  223.86   14.61
   0   0 -10  240.48   12.58
   0   0  10  270.37   14.35
   0   0  10  237.11   11.84
   0   0 -10  250.45   11.93
   0   0  10  252.72   14.69
   0   0 -10  240.21   14.85
   0   0 -10  265.80   15.55
  -2   0 -10  178.09    9.71
   2   0  10  181.87    8.73
  -2   0 -10  170.22    8.68
  -2   0 -10  161.63   11.40
  -2   0 -10  186.69    8.70
   2   0  10  173.75    8.64
  -2   0 -10  190.65   11.01
   2   0  10  155.44   10.82
   2   0  10  173.38   10.28
   2   0  10  179.00    9.39
   2   0  10  162.78   10.87
   4   0  10   17.58    2.28
   4   0  10   12.80    3.55
   4   0  10   14.94    3.09
  -4   0 -10   17.10    4.10
  -4   0 -10   14.97    2.24
   4   0  10   15.56    3.26
   7  -1 -10   75.12    7.32
   7  -1 -10   58.58    6.22
   7  -1 -10   58.73    5.45
  -7  -1  10   79.69    5.40
   7  -1 -10   63.24    8.42
   7  -1 -10   69.16    6.06
   7   1 -10   63.65    7.68
   7   1 -10   72.12    6.47
   7   1 -10   73.22    5.47
  -7   1  10   56.04    5.54
   7   1 -10   62.11    7.24
  -5  -1  10  157.73    8.29
   5  -1 -10  145.93    7.85
   5  -1 -10  142.22    8.52
   5  -1 -10  146.62    9.65
   5  -1 -10  162.16    7.99
   5  -1 -10  177.67   10.10
  -5  -1  10  154.96    9.25
  -5  -1  10  161.84    7.90
   5  -1 -10  152.33    8.53
  -5  -1  10  141.53   10.43
   5   1 -10  152.32   10.59
  -5   1  10  145.42    9.96
  -5   1  10  163.53    8.03
   5   1 -10  152.40    7.76
  -5   1  10  143.98    7.82
   5   1 -10  124.16    9.45
   5   1 -10  140.74   10.33
   5   1 -10  137.62    8.17
   3  -1 -10  261.98   12.61
   3  -1 -10  272.98   12.04
   3  -1 -10  223.82   16.01
  -3  -1  10  227.12   12.16
  -3  -1  10  271.46   14.58
  -3  -1  10  266.95   12.05
   3  -1 -10  253.23   14.63
  -3  -1  10  206.56   15.94
   3  -1 -10  241.36   14.59
  -3  -1  10  222.97   14.80
   3  -1 -10  275.68   12.69
   3  -1 -10  259.95   12.04
   3   1 -10  256.32   11.96
   3   1 -10  251.39   12.79
  -3   1  10  248.15   12.05
   3   1 -10  244.64   15.72
  -3   1  10  241.25   14.51
  -3   1  10  262.75   12.05
   3   1 -10  235.90   14.57
   3   1 -10  235.06   12.15
   3   1 -10  256.97   15.01
  -3   1  10  264.06   16.23
  -3   1  10  253.10   14.58
  -1  -1  10  250.32   15.47
   1  -1 -10  267.56   15.27
   1  -1 -10  280.00   12.84
  -1  -1  10  272.54   12.95
   1  -1 -10  274.98   12.78
  -1  -1  10  262.74   12.74
  -1  -1  10  241.45   15.47
   1  -1 -10  280.81   16.76
  -1  -1  10  265.38   16.58
   1  -1 -10  270.18   13.53
   1  -1 -10  259.92   15.97
   1  -1 -10  276.27   13.07
   1  -1 -10  313.41   15.84
  -1   1  10  262.12   12.76
  -1   1  10  267.28   12.83
  -1   1  10  266.89   15.67
   1   1 -10  245.21   16.58
   1   1 -10  249.71   13.45
   1   1 -10  269.43   15.62
   1   1 -10  275.34   12.74
  -1   1  10  275.20   15.23
   1   1 -10  274.81   12.92
  -1   1  10  284.92   16.75
   1   1 -10  245.81   13.24
   1   1 -10  281.76   15.61
   1  -1  10  106.02    5.93
   1  -1  10  101.55    5.65
  -1  -1 -10  107.78    5.73
  -1  -1 -10  115.72    7.82
   1  -1  10  110.80    6.95
  -1  -1 -10  111.53    7.57
   1  -1  10  111.02    7.17
  -1  -1 -10   98.68    7.36
  -1  -1 -10  112.42    6.08
  -1  -1 -10   97.14    6.81
   1  -1  10   96.74    7.26
  -1   1 -10  115.58    6.26
   1   1  10  105.18    6.32
   1   1  10  102.47    6.71
  -1   1 -10  111.62    5.67
   1   1  10  101.12    5.90
   1   1  10  102.66    7.36
  -1   1 -10  101.61    5.87
   1   1  10  101.41    5.77
   1   1  10   88.37    7.64
  -1   1 -10  111.72    7.96
   3  -1  10   38.75    5.09
   3  -1  10   40.96    4.99
  -3  -1 -10   40.27    4.64
   3  -1  10   45.44    3.35
   3  -1  10   39.15    3.76
  -3  -1 -10   39.96    4.78
  -3  -1 -10   46.49    3.33
   3   1  10   43.35    5.00
   3   1  10   45.32    3.44
  -3   1 -10   49.24    4.92
  -3   1 -10   34.69    3.57
   3   1  10   40.65    4.65
   3   1  10   30.34    3.98
   3   1  10   46.39    5.17
  -5  -1 -10   61.76    7.96
  -5  -1 -10   70.49    4.36
   5  -1  10   53.24    6.90
  -5   1 -10   55.75    4.72
   5   1  10   49.15    6.35
   5   1  10   58.87    6.66
   8  -2 -10   54.19    6.73
   8  -2 -10   63.40    8.36
   8  -2 -10   66.47   10.20
  -8  -2  10   59.46    5.20
   8  -2 -10   58.82    6.30
  -8   2  10   59.26    5.93
   8   2 -10   50.91    7.74
   6  -2 -10  119.31    7.84
   6  -2 -10  104.26   10.34
   6  -2 -10  127.98    7.56
   6  -2 -10  118.05    8.90
  -6  -2  10  129.40    7.15
   6  -2 -10  133.69    7.03
   6   2 -10  127.54    7.21
  -6   2  10  127.91    7.12
   6   2 -10  123.38    9.94
   6   2 -10  112.75    9.33
   6   2 -10  112.94    8.61
   4  -2 -10  102.35    6.29
   4  -2 -10   94.75    7.11
   4  -2 -10   96.46    5.75
   4  -2 -10   85.81    6.09
   4  -2 -10   91.14    6.90
  -4  -2  10  104.55    7.98
  -4  -2  10  101.32    6.06
  -4  -2  10   99.11    6.59
   4  -2 -10   96.91    5.58
   4  -2 -10   98.62    8.30
  -4  -2  10   91.75    5.84
   4   2 -10   90.47    5.71
   4   2 -10  115.24    8.08
   4   2 -10   97.46    6.88
  -4   2  10   90.99    7.03
   4   2 -10   98.55    5.97
   4   2 -10  108.64    7.17
   4   2 -10   96.82    7.36
  -4   2  10  101.70    5.73
  -4   2  10   91.46    5.52
  -4   2  10   94.88    8.65
  -2  -2  10  157.71    8.45
   2  -2 -10  155.16    8.67
   2  -2 -10  171.82   10.77
   2  -2 -10  168.31    8.52
   2  -2 -10  188.32   11.47
  -2  -2  10  166.90    8.74
   2  -2 -10  155.80    8.49
   2  -2 -10  163.24   10.36
   2  -2 -10  168.86    9.36
  -2  -2  10  168.70   10.69
   2  -2 -10  174.92   10.09
  -2  -2  10  171.68   10.28
  -2   2  10  147.63   10.25
   2   2 -10  167.37    8.90
  -2   2  10  162.02   10.00
  -2   2  10  158.34    8.59
  -2   2  10  176.48   11.36
   2   2 -10  160.40    8.70
   2   2 -10  167.33    9.17
  -2   2  10  178.73    9.23
   2   2 -10  155.13   10.28
   2   2 -10  180.13   10.86
   2   2 -10  171.15    8.55
   2   2 -10  180.51   10.80
  -2   2  10  161.91    8.39
   0  -2 -10  258.46   14.83
   0  -2 -10  236.94   11.12
   0  -2  10  225.03   11.04
   0  -2 -10  247.64   13.83
   0  -2 -10  229.20   14.09
   0  -2 -10  217.48   11.20
   0  -2  10  213.42   13.57
   0  -2  10  232.07   13.46
   0  -2 -10  215.94   12.14
   0  -2  10  228.20   11.22
   0   2  10  240.45   13.71
   0   2 -10  211.86   13.63
   0   2 -10  243.31   13.96
   0   2 -10  251.84   13.66
   0   2  10  233.10   11.02
   0   2 -10  245.41   11.20
   0   2  10  199.71   11.12
   0   2 -10  206.21   11.62
   0   2  10  203.31   14.70
   0   2  10  197.99   11.91
   0   2 -10  223.36   11.23
  -2  -2 -10   68.87    6.33
   2  -2  10   68.79    4.23
   2  -2  10   70.48    4.68
   2  -2  10   60.83    6.09
  -2  -2 -10   59.24    6.08
  -2  -2 -10   61.17    4.75
  -2  -2 -10   57.79    4.43
   2  -2  10   59.43    5.73
  -2  -2 -10   61.30    6.32
  -2  -2 -10   62.00    6.22
   2  -2  10   67.71    4.48
   2   2  10   58.27    4.71
  -2   2 -10   69.60    4.79
  -2   2 -10   68.11    4.33
  -2   2 -10   57.78    4.60
   2   2  10   66.13    5.81
   2   2  10   69.21    6.05
   2   2  10   75.94    6.33
   2   2  10   66.20    4.31
  -4  -2 -10   54.18    7.17
   4  -2  10   55.90    5.76
   4  -2  10   49.99    6.58
  -4  -2 -10   58.78    4.08
  -4  -2 -10   44.97    6.59
   4  -2  10   60.22    4.67
   4  -2  10   50.92    3.98
   4   2  10   45.39    4.21
   4   2  10   61.53    6.15
  -4   2 -10   61.97    4.54
   4   2  10   55.90    6.55
  -7  -3  10   25.53    3.24
   7  -3 -10   25.04    4.85
   7  -3 -10   16.05    4.04
   7  -3 -10   27.35    6.23
   7  -3 -10   21.81    4.14
   7   3 -10   17.51    6.34
   7   3 -10   27.69    3.25
   7   3 -10   25.15    4.51
   7   3 -10   27.71    4.92
  -7   3  10   27.19    3.39
   5  -3 -10  109.90    7.84
  -5  -3  10  131.74    7.25
   5  -3 -10  110.96    8.66
   5  -3 -10  138.91   10.44
   5  -3 -10  123.79    7.15
   5  -3 -10  115.88    7.96
  -5  -3  10  132.32    7.29
   5   3 -10  126.51   10.09
  -5   3  10  123.12    7.01
   5   3 -10  142.00    7.39
  -5   3  10  126.27    6.96
   5   3 -10  125.20    8.50
   5   3 -10  129.21    9.29
   5   3 -10  141.26    9.32
   3  -3 -10  166.52   10.23
  -3  -3  10  176.38   11.16
  -3  -3  10  195.87   12.19
  -3  -3  10  183.47    9.26
   3  -3 -10  183.50   11.45
   3  -3 -10  177.41   11.93
   3  -3 -10  194.71   11.08
   3  -3 -10  183.75    9.14
  -3  -3  10  188.04    9.54
  -3   3  10  188.60   12.82
   3   3 -10  167.42   12.12
   3   3 -10  184.17    9.38
   3   3 -10  167.88    9.47
  -3   3  10  192.20   11.42
   3   3 -10  174.50   11.22
  -3   3  10  182.71    9.07
  -3   3  10  199.33   10.26
   3   3 -10  192.34   11.92
   3   3 -10  199.38   10.46
  -3   3  10  180.60    9.32
   1  -3 -10   74.49    6.44
   1  -3 -10   78.75    4.83
   1  -3 -10   58.38    4.56
  -1  -3  10   71.47    4.53
  -1  -3  10   71.98    4.89
  -1  -3  10   82.09    6.66
   1  -3 -10   79.74    4.44
   1  -3 -10   79.74    6.64
   1  -3 -10   73.18    6.10
   1  -3 -10   63.78    5.88
  -1  -3  10   69.15    5.69
  -1   3  10   62.20    5.99
  -1   3  10   75.02    4.30
   1   3 -10   66.62    6.03
   1   3 -10   78.87    5.49
   1   3 -10   77.68    5.72
  -1   3  10   74.80    4.87
   1   3 -10   79.83    4.81
   1   3 -10   71.79    6.39
  -1   3  10   70.89    7.23
   1   3 -10   81.00    5.02
  -1   3  10   57.43    5.78
   1  -3  10  162.87    9.88
   1  -3  10  132.81    7.16
  -1  -3 -10  124.81   10.22
  -1  -3 -10  130.36    9.67
  -1  -3 -10  141.36    7.15
   1  -3  10  129.18    7.51
  -1  -3 -10  137.34    8.88
   1  -3  10  121.40    8.90
   1  -3  10  139.03    7.52
  -1  -3 -10  154.09    7.69
  -1  -3 -10  143.53    9.38
  -1   3 -10  136.95    7.51
   1   3  10  133.16    9.33
  -1   3 -10  117.38    7.77
   1   3  10  144.02    8.34
   1   3  10  137.56    7.58
  -1   3 -10  124.10    9.40
   1   3  10  143.93    7.03
   1   3  10  131.06   10.24
  -1   3 -10  146.46    8.20
  -1   3 -10  137.57    7.44
   3  -3  10   93.94    5.72
   3  -3  10   85.07    8.19
  -3  -3 -10   83.32    5.76
   3  -3  10   97.08    5.85
  -3  -3 -10   93.64    8.09
   3  -3  10   91.97    7.34
  -3  -3 -10   88.16    8.16
  -3   3 -10   90.46    5.87
   3   3  10   99.00    7.64
   3   3  10   90.33    8.45
   3   3  10   90.95    5.51
  -5  -3 -10   38.64    4.21
  -5  -3 -10   28.60    6.08
   5  -3  10   36.66    5.32
   5   3  10   31.84    4.83
  -5   3 -10   30.37    3.41
   5   3  10   29.87    5.17
   6  -4 -10   80.67    6.66
   6  -4 -10   75.84    7.35
   6  -4 -10   66.63    7.13
   6  -4 -10   87.26    9.02
  -6  -4  10   77.74    5.77
   6  -4 -10   67.19    5.39
   6   4 -10   71.99    5.77
   6   4 -10   89.97    7.55
   6   4 -10   76.23    7.28
   6   4 -10   70.41    9.35
  -6   4  10   73.85    5.17
   4  -4 -10   53.77    5.77
   4  -4 -10   52.07    5.55
   4  -4 -10   60.52    5.40
   4  -4 -10   62.52    4.24
   4  -4 -10   65.47    6.96
  -4  -4  10   63.37    4.74
  -4  -4  10   64.39    4.89
  -4   4  10   65.69    6.25
  -4   4  10   62.43    3.99
   4   4 -10   58.69    5.69
   4   4 -10   68.55    4.87
  -4   4  10   58.33    4.69
   4   4 -10   55.97    5.43
   4   4 -10   56.56    7.60
   4   4 -10   59.43    5.63
  -2  -4  10   97.92    7.01
  -2  -4  10   98.92    8.92
   2  -4 -10   97.05    7.42
  -2  -4  10   97.78    5.81
   2  -4 -10   98.51    6.09
  -2  -4  10  105.46    6.12
   2  -4 -10  100.51    8.56
   2  -4 -10  100.22    5.64
   2   4 -10  100.08    7.26
   2   4 -10  104.04    7.76
   2   4 -10   89.99    8.23
   2   4 -10  106.17    6.21
  -2   4  10   97.57    5.47
  -2   4  10   98.01    7.27
   2   4 -10   95.28    5.94
   2   4 -10  108.56    7.25
  -2   4  10   99.47    6.14
   2   4 -10  105.82    7.20
   0  -4 -10  129.21    7.27
   0  -4  10  127.27    9.94
   0  -4  10  110.36    7.32
   0  -4  10  123.47    7.14
   0  -4 -10  118.09    9.83
   0  -4  10  123.54    8.54
   0  -4 -10  129.22    8.48
   0  -4 -10  127.43    6.66
   0   4  10  124.45    6.51
   0   4  10  124.62    7.24
   0   4 -10  126.84    6.93
   0   4  10  120.01   10.42
   0   4  10  138.21    8.87
   0   4 -10  124.84    8.80
   0   4 -10  134.05    9.41
   0   4 -10  118.64    8.11
   0   4 -10  123.69    7.10
  -2  -4 -10   83.29    4.99
  -2  -4 -10   75.35    5.99
   2  -4  10   92.22    5.69
   2  -4  10   76.24    6.74
  -2  -4 -10   90.44    7.82
   2  -4  10   77.58    5.56
  -2   4 -10   72.71    6.66
  -2   4 -10   79.99    5.95
  -2   4 -10   85.64    5.61
   2   4  10   87.78    8.83
   2   4  10   88.50    4.89
   2   4  10   63.72    7.15
  -4  -4 -10   62.03    5.16
  -4  -4 -10   64.49    7.25
   4  -4  10   65.31    6.89
   4  -4  10   64.02    5.61
   4   4  10   60.07    5.95
   4   4  10   51.60    7.47
  -4   4 -10   76.58    5.36
  -5  -5  10   29.70    3.63
   5  -5 -10   33.46    5.93
  -5  -5  10   22.90    3.52
   5  -5 -10   36.14    5.50
   5  -5 -10   31.50    4.70
   5  -5 -10   41.57    3.99
   5  -5 -10   38.15    4.75
   5   5 -10   33.14    5.64
   5   5 -10   37.85    6.84
   5   5 -10   42.07    5.77
   5   5 -10   35.80    3.85
  -5   5  10   39.11    3.58
   3  -5 -10   61.62    4.24
  -3  -5  10   58.12    4.96
   3  -5 -10   60.34    6.24
   3  -5 -10   61.20    7.43
  -3  -5  10   50.96    4.60
   3  -5 -10   42.35    5.37
   3   5 -10   62.09    7.61
   3   5 -10   59.88    5.75
  -3   5  10   49.96    4.92
   3   5 -10   57.04    5.56
   3   5 -10   58.60    4.94
   3   5 -10   56.01    5.34
  -3   5  10   57.63    3.95
  -1  -5  10   92.24    6.69
   1  -5 -10  103.13    5.75
  -1  -5  10  104.35    6.48
  -1  -5  10   95.68    7.48
   1  -5 -10  103.80    7.76
   1   5 -10  103.15    8.70
   1   5 -10   99.74    6.38
   1   5 -10   96.78    6.35
  -1   5  10  104.49    5.63
  -1   5  10   91.73    7.53
   1   5 -10  105.10    7.77
  -1  -5 -10   45.52    5.48
  -1  -5 -10   46.41    5.13
   1  -5  10   51.73    5.55
  -1  -5 -10   43.96    3.76
   1  -5  10   50.71    4.64
  -1  -5 -10   45.59    6.43
   1  -5  10   39.82    4.68
  -1   5 -10   41.60    4.51
   1   5  10   50.41    5.76
   1   5  10   44.97    3.54
  -1   5 -10   43.28    4.43
  -1   5 -10   41.21    4.87
  -1   5 -10   51.56    4.88
   3  -5  10   72.81    6.29
   3  -5  10   89.60    7.70
   3  -5  10   91.98    6.14
  -3  -5 -10   84.29    5.43
  -3  -5 -10   81.88    9.30
   3   5  10   70.90    5.11
   3   5  10   70.88    8.11
  -3   5 -10   74.86    5.87
   3   5  10   76.33    6.95
   4  -6 -10   65.17    4.75
  -4  -6  10   60.40    5.73
   4  -6 -10   54.26    9.19
   4  -6 -10   54.46    6.93
   4  -6 -10   52.70    7.20
  -4   6  10   61.82    4.51
   4   6 -10   46.07    7.48
   4   6 -10   58.26    6.82
   4   6 -10   59.60    7.00
   4   6 -10   62.03    5.62
  -2  -6  10   32.24    3.70
   2  -6 -10   34.34    3.67
   2  -6 -10   27.58    4.33
   2  -6 -10   30.09    5.95
   2  -6 -10   28.95    4.95
   2   6 -10   32.04    3.64
   2   6 -10   27.46    5.95
  -2   6  10   31.54    3.41
   0  -6 -10   51.28    7.26
   0  -6 -10   52.45    4.39
   0  -6  10   55.15    5.32
   0  -6  10   57.70    5.93
   0  -6  10   55.04    6.19
   0  -6 -10   59.61    7.47
   0   6 -10   61.49    5.24
   0   6  10   48.03    6.37
   0   6  10   57.78    4.15
   2  -6  10  117.49    9.16
   2  -6  10  124.01    7.66
   2  -6  10  122.41    8.32
  -2  -6 -10  111.64   10.41
   2   6  10  107.93    6.79
   2   6  10  118.53    9.69
   1  -7 -10   33.08    6.89
   1  -7 -10   36.52    5.98
   1  -7 -10   47.83    4.71
  -1  -7  10   43.88    5.46
  -1  -7  10   34.18    5.17
   1   7 -10   38.66    4.82
  -1   7  10   33.10    4.35
   6   0 -11   72.15    6.61
  -6   0  11   70.90    6.02
   6   0 -11   77.70    7.82
   6   0 -11   76.77    8.12
   6   0 -11   95.48    7.50
   6   0 -11   81.88    5.87
   4   0 -11  227.48   10.23
   4   0 -11  180.10   10.76
  -4   0  11  191.75   13.96
   4   0 -11  216.62    9.91
   4   0 -11  168.58   13.66
  -4   0  11  199.70    9.89
  -4   0  11  184.07   12.50
   4   0 -11  199.16   12.42
  -4   0  11  221.36   10.25
  -4   0  11  183.95   11.97
   4   0 -11  215.77   12.72
   2   0 -11  136.28    7.51
   2   0 -11  129.80    8.93
   2   0 -11  140.27    6.96
  -2   0  11  115.82    8.69
  -2   0  11  143.77    7.19
  -2   0  11  133.28    8.65
   2   0 -11  143.14    7.06
   2   0 -11  141.11    9.50
   2   0 -11  108.24    8.58
  -2   0  11  132.61    6.95
  -2   0  11  141.17    9.50
   2   0 -11  125.52    7.45
   0   0  11   39.71    3.26
   0   0  11   46.01    4.14
   0   0  11   48.78    3.56
   0   0 -11   44.23    3.34
   0   0  11   42.64    4.53
   0   0 -11   31.22    4.13
   0   0 -11   47.64    4.38
   0   0 -11   44.12    4.97
   0   0 -11   45.23    4.01
   0   0 -11   44.54    3.34
   0   0 -11   40.21    4.14
   0   0  11   44.70    4.38
   2   0  11  105.53    5.80
   2   0  11   92.86    6.60
  -2   0 -11  104.36    5.60
   2   0  11   94.07    6.46
  -2   0 -11   80.39    5.55
  -2   0 -11   95.37    6.81
   2   0  11   94.29    7.37
   2   0  11  100.07    5.63
  -4   0 -11   29.06    5.11
   4   0  11   33.15    4.25
  -4   0 -11   37.53    3.67
   4   0  11   29.22    4.78
   4   0  11   29.60    3.73
   7  -1 -11  138.30    9.47
  -7  -1  11  166.05    8.83
   7  -1 -11  142.50   11.11
   7  -1 -11  142.43    9.01
   7  -1 -11  143.81    8.61
   7   1 -11  150.19   11.74
   7   1 -11  132.34   10.22
   7   1 -11  131.96   11.25
  -7   1  11  142.04    8.72
   7   1 -11  157.64    8.76
   7   1 -11  147.34    9.20
   5  -1 -11  144.17    8.58
  -5  -1  11  151.36    7.97
   5  -1 -11  138.27   11.48
  -5  -1  11  128.62    8.42
   5  -1 -11  151.54   10.10
  -5  -1  11  153.97    9.58
   5  -1 -11  154.38    8.74
   5  -1 -11  160.95    8.07
   5  -1 -11  150.41   10.24
  -5   1  11  157.87    8.12
   5   1 -11  142.84    8.70
  -5   1  11  138.64    8.00
   5   1 -11  169.44   11.00
   5   1 -11  150.91   10.87
   5   1 -11  153.19   10.01
  -5   1  11  149.26   10.33
  -3  -1  11  105.15    7.61
   3  -1 -11  117.94    6.54
   3  -1 -11  115.51    8.01
  -3  -1  11   97.49    8.81
  -3  -1  11  112.29    6.21
   3  -1 -11  110.06    6.11
   3  -1 -11   97.38    8.48
   3  -1 -11  110.26    7.77
   3  -1 -11  116.60    6.28
  -3  -1  11  101.82    6.46
   3  -1 -11  113.91    6.62
  -3  -1  11  120.32    8.13
   3   1 -11  113.46    7.09
  -3   1  11  108.59    6.17
   3   1 -11  106.10    6.43
  -3   1  11  109.59    6.31
   3   1 -11  109.00    6.09
   3   1 -11   93.79    6.81
  -3   1  11  111.99    7.62
   3   1 -11  108.92    8.20
  -3   1  11  120.32    8.85
   3   1 -11  117.42    8.53
   3   1 -11  113.80    7.97
  -3   1  11  104.42    7.62
  -1  -1  11   53.18    3.88
  -1  -1  11   43.15    4.84
   1  -1 -11   43.40    4.62
   1  -1 -11   57.22    3.76
   1  -1 -11   62.02    4.88
   1  -1 -11   60.77    4.12
  -1  -1  11   57.16    5.32
   1  -1 -11   57.30    5.20
   1  -1 -11   53.70    4.50
  -1  -1  11   51.97    4.99
   1  -1 -11   56.80    3.89
   1  -1 -11   50.25    5.56
   1  -1 -11   53.91    3.90
  -1  -1  11   57.33    4.20
   1   1 -11   53.37    4.23
  -1   1  11   51.31    4.60
  -1   1  11   53.88    4.05
   1   1 -11   51.57    4.46
  -1   1  11   55.37    5.07
   1   1 -11   53.57    5.04
   1   1 -11   61.79    5.34
   1   1 -11   62.65    4.16
  -1   1  11   54.63    5.40
  -1   1  11   53.59    3.96
   1   1 -11   68.35    5.24
   1   1 -11   55.76    3.81
   1  -1  11   41.72    4.91
   1  -1  11   46.62    4.83
   1  -1  11   50.50    4.25
  -1  -1 -11   52.80    5.47
   1  -1  11   51.90    3.61
  -1  -1 -11   54.35    3.71
  -1  -1 -11   43.37    5.57
  -1  -1 -11   55.44    5.25
   1  -1  11   50.63    4.00
  -1  -1 -11   56.87    4.30
  -1  -1 -11   44.87    5.07
  -1   1 -11   49.41    3.94
   1   1  11   51.95    3.83
   1   1  11   48.79    3.79
   1   1  11   43.80    5.04
  -1   1 -11   45.89    3.57
  -1   1 -11   42.38    4.25
   1   1  11   52.14    4.01
   1   1  11   47.66    5.18
   1   1  11   45.90    5.22
  -1   1 -11   49.23    6.14
   3  -1  11   66.99    6.58
   3  -1  11   59.27    6.35
   3  -1  11   70.14    4.99
  -3  -1 -11   57.52    6.99
  -3  -1 -11   67.66    4.43
  -3   1 -11   76.31    6.34
   3   1  11   74.83    6.35
   3   1  11   65.27    4.61
  -3   1 -11   73.45    5.03
   3   1  11   62.66    6.91
   3   1  11   68.61    6.90
  -5  -1 -11   51.74    4.43
   5  -1  11   47.98    7.14
  -5  -1 -11   42.42    6.73
   5   1  11   49.21    6.41
  -5   1 -11   51.43    5.11
  -6  -2  11  135.01    7.51
   6  -2 -11  100.20   10.37
   6  -2 -11  126.06    6.96
   6  -2 -11  106.28    7.82
   6  -2 -11  121.42    7.48
   6  -2 -11  117.03    9.02
   6   2 -11   89.65    8.69
  -6   2  11  121.31    7.06
   6   2 -11  126.85    7.52
   6   2 -11  110.40    9.49
   4  -2 -11   81.88    5.15
  -4  -2  11   81.79    5.68
   4  -2 -11   71.37    6.38
  -4  -2  11   77.37    5.40
   4  -2 -11   78.28    5.74
  -4  -2  11   68.84    7.35
  -4  -2  11   68.08    6.00
   4  -2 -11   74.51    7.37
   4  -2 -11   83.57    5.70
  -4   2  11   74.07    6.26
   4   2 -11   84.07    6.79
  -4   2  11   74.79    4.83
   4   2 -11   76.09    6.85
  -4   2  11   78.48    6.54
  -4   2  11   74.62    5.30
   4   2 -11   77.92    5.64
   4   2 -11   85.73    7.42
   4   2 -11   76.18    6.47
   2  -2 -11  150.83    8.80
  -2  -2  11  150.88    8.32
   2  -2 -11  173.22   10.21
   2  -2 -11  167.68    8.20
  -2  -2  11  145.48   10.01
  -2  -2  11  154.43    8.16
   2  -2 -11  151.50    8.03
  -2  -2  11  163.57    9.72
   2  -2 -11  168.04   10.07
   2  -2 -11  144.99    8.03
   2  -2 -11  139.47   10.46
   2   2 -11  162.55    8.18
  -2   2  11  148.97    7.88
  -2   2  11  141.61    9.32
  -2   2  11  132.88    8.06
   2   2 -11  153.13   10.17
   2   2 -11  156.85   10.37
   2   2 -11  127.89    8.13
  -2   2  11  127.93    9.72
  -2   2  11  159.58   10.74
   2   2 -11  139.89    9.69
   0  -2 -11   88.17    5.64
   0  -2  11   93.49    7.13
   0  -2 -11   94.01    7.15
   0  -2 -11   91.22    7.32
   0  -2  11   88.82    6.84
   0  -2 -11   98.15    7.56
   0  -2 -11   80.91    5.82
   0  -2 -11   86.33    6.77
   0  -2  11   85.17    5.68
   0  -2  11   88.70    5.73
   0   2 -11   96.35    7.59
   0   2 -11   91.03    5.63
   0   2  11   93.69    6.96
   0   2 -11   90.43    6.00
   0   2 -11   92.91    5.89
   0   2  11   90.64    6.80
   0   2  11   91.32    5.43
   0   2  11  109.04    7.94
   0   2  11   75.14    5.79
   0   2 -11   81.17    5.70
   0   2 -11  106.74    7.08
   2  -2  11   47.20    5.94
  -2  -2 -11   36.60    4.97
   2  -2  11   37.21    3.98
  -2  -2 -11   42.43    5.73
   2  -2  11   39.45    5.13
  -2  -2 -11   23.31    4.38
  -2  -2 -11   32.70    3.68
   2   2  11   33.25    3.41
  -2   2 -11   30.26    3.38
   2   2  11   37.03    5.06
   2   2  11   35.72    5.13
  -2   2 -11   34.96    4.12
  -4  -2 -11   68.51    8.73
   4  -2  11   60.54    6.95
  -4  -2 -11   65.26    4.57
   4  -2  11   65.08    7.94
   4   2  11   62.72    6.88
  -4   2 -11   64.30    5.40
   7  -3 -11   34.78    5.07
   7  -3 -11   40.28    5.41
   7  -3 -11   49.41    7.55
   7  -3 -11   49.43    6.18
  -7  -3  11   51.75    5.41
   7   3 -11   55.87    7.12
   7   3 -11   47.47    7.13
  -7   3  11   48.62    5.34
   7   3 -11   35.43    7.46
   5  -3 -11  123.02    8.43
   5  -3 -11  147.08    9.55
  -5  -3  11  148.41    8.09
   5  -3 -11  128.31    8.58
   5  -3 -11  140.17   10.95
   5  -3 -11  126.37    7.81
  -5  -3  11  116.66    7.87
  -5   3  11  120.47    7.60
   5   3 -11  149.35   10.19
  -5   3  11  133.15    7.50
   5   3 -11  141.46    9.21
   5   3 -11  136.87    8.09
   5   3 -11  142.42   10.12
   3  -3 -11  120.90    7.57
   3  -3 -11  115.62    8.22
  -3  -3  11  135.89    7.55
  -3  -3  11  115.77    8.45
   3  -3 -11  132.20    9.58
   3  -3 -11  123.42    8.22
  -3  -3  11  124.72    7.07
   3  -3 -11  121.34    6.97
   3   3 -11  123.35    8.71
   3   3 -11  128.57    9.64
   3   3 -11  130.18    8.95
   3   3 -11  133.19    7.59
   3   3 -11  124.88    8.27
  -3   3  11  124.95    6.84
  -3   3  11  134.50    8.72
   3   3 -11  121.20    7.34
   1  -3 -11   18.06    3.75
  -1  -3  11   20.37    2.56
  -1  -3  11   28.88    4.06
  -1  -3  11   29.30    4.26
   1  -3 -11   29.23    4.30
   1  -3 -11   19.82    3.93
   1  -3 -11   28.36    3.16
   1  -3 -11   30.30    3.19
  -1  -3  11   26.90    3.17
   1   3 -11   33.13    3.75
  -1   3  11   23.88    3.74
   1   3 -11   27.41    3.19
   1   3 -11   21.83    4.06
  -1   3  11   35.51    5.14
   1   3 -11   25.96    4.04
   1   3 -11   33.61    3.99
   1   3 -11   30.99    3.77
  -1   3  11   26.02    2.91
  -1   3  11   20.65    2.88
   1  -3  11  115.13    8.30
  -1  -3 -11  112.08    9.52
  -1  -3 -11  109.96    9.17
   1  -3  11  135.79    9.47
  -1  -3 -11  111.98    8.72
  -1  -3 -11  114.48    6.63
  -1  -3 -11  121.73    7.19
   1  -3  11  118.40    7.03
   1   3  11  112.28    8.61
   1   3  11  116.56    6.48
  -1   3 -11  109.48    7.12
   1   3  11  100.30    9.93
  -1   3 -11  128.17    7.00
  -1   3 -11  107.03    6.93
   3  -3  11  111.60    8.76
   3  -3  11  117.66   10.17
  -3  -3 -11  122.16    9.97
   3  -3  11  109.90    6.88
  -3  -3 -11  111.23    7.14
   3  -3  11  117.72    7.11
   3   3  11  113.82   10.08
  -3   3 -11  121.61    7.20
   3   3  11  117.66    6.82
   3   3  11  106.65    8.94
   6  -4 -11   38.11    5.22
   6  -4 -11   58.13    5.41
   6  -4 -11   51.39    6.60
   6  -4 -11   59.04    8.34
   6  -4 -11   51.13    6.96
  -6  -4  11   62.15    5.55
  -6   4  11   51.98    4.82
   6   4 -11   45.26    6.85
   6   4 -11   39.32    7.43
   6   4 -11   57.86    7.18
   6   4 -11   45.24    5.57
  -4  -4  11   59.01    5.19
   4  -4 -11   45.10    6.28
   4  -4 -11   60.46    6.96
  -4  -4  11   54.00    5.08
   4  -4 -11   59.35    4.41
   4  -4 -11   46.76    5.68
   4  -4 -11   48.22    5.58
  -4   4  11   52.51    5.04
   4   4 -11   48.42    6.05
  -4   4  11   58.01    4.14
   4   4 -11   60.43    6.04
   4   4 -11   58.14    8.01
   4   4 -11   60.19    5.27
   4   4 -11   56.65    5.75
  -2  -4  11  126.98    7.18
   2  -4 -11   93.17    7.17
   2  -4 -11  119.88    6.50
   2  -4 -11  124.81    9.70
   2  -4 -11  108.81    8.56
  -2  -4  11  113.57    8.09
   2   4 -11  105.66    9.21
   2   4 -11  126.96    7.32
   2   4 -11  110.22    8.57
   2   4 -11  109.01    8.31
   2   4 -11  119.72    8.27
  -2   4  11  121.29    6.35
  -2   4  11  119.84    8.39
   0  -4 -11  102.44    9.22
   0  -4 -11   95.71    5.84
   0  -4  11   80.13    7.54
   0  -4  11  106.50    6.48
   0  -4 -11  109.37    7.00
   0  -4 -11   97.00    8.13
   0   4 -11  100.61    8.51
   0   4 -11  104.34    7.74
   0   4  11   95.45    7.99
   0   4 -11  107.13    6.60
   0   4 -11  106.42    6.80
   0   4  11  101.85    5.68
   0   4 -11  103.58    6.48
  -2  -4 -11   61.57    6.75
  -2  -4 -11   56.60    4.52
   2  -4  11   54.26    5.05
   2  -4  11   54.08    5.23
   2  -4  11   51.69    6.21
  -2   4 -11   57.84    5.09
   2   4  11   61.33    4.23
  -2   4 -11   44.24    5.27
   2   4  11   44.53    6.76
   5  -5 -11   61.65    7.64
   5  -5 -11   75.69    8.93
   5  -5 -11   48.36    6.81
  -5  -5  11   64.19    5.98
   5  -5 -11   60.68    5.14
   5   5 -11   77.40    7.54
  -5   5  11   64.96    4.83
   5   5 -11   60.48    7.05
   5   5 -11   56.86    8.04
   5   5 -11   60.20    6.09
   3  -5 -11   39.61    5.58
   3  -5 -11   45.86    5.66
  -3  -5  11   49.35    5.15
   3  -5 -11   50.48    4.33
   3  -5 -11   60.17    7.56
   3   5 -11   43.20    6.37
   3   5 -11   46.52    5.48
  -3   5  11   49.66    4.01
   3   5 -11   51.54    5.32
   3   5 -11   57.55    5.98
   3   5 -11   54.63    6.07
  -1  -5  11  116.68    7.34
   1  -5 -11  106.84    8.94
   1  -5 -11  116.15   10.43
   1  -5 -11  111.02    6.42
  -1  -5  11   96.93    8.19
   1   5 -11  107.18    7.23
  -1   5  11  119.31    8.73
   1   5 -11  119.91    8.98
  -1   5  11  106.59    6.21
   1   5 -11  110.67    9.49
  -1  -5 -11   97.60   10.12
  -1  -5 -11  106.72    9.51
   1  -5  11  103.99    7.14
  -1  -5 -11   97.21    6.07
  -1  -5 -11  110.23    8.00
   1  -5  11  109.34    7.06
   1  -5  11   88.31    8.23
   1   5  11   95.77    5.94
  -1   5 -11   92.64    6.78
  -1   5 -11  103.94    7.34
  -1   5 -11   99.62    6.83
   1   5  11   99.62    8.59
   4  -6 -11   62.27    7.98
   4  -6 -11   59.77    5.39
   4  -6 -11   57.18    7.62
   4  -6 -11   62.20   10.16
   4   6 -11   56.14    7.24
   4   6 -11   63.72    6.45
   4   6 -11   60.78    7.76
   2  -6 -11   50.13    6.50
   2  -6 -11   53.72    4.67
   2  -6 -11   38.33    7.16
  -2  -6  11   60.34    5.92
  -2   6  11   59.33    4.43
   2   6 -11   61.89    6.05
   2   6 -11   51.52    7.15
   0  -6 -11   77.18    9.99
   0  -6 -11   89.53    9.37
   0  -6  11   71.28    7.22
   0  -6  11   86.94    6.70
   0  -6  11   72.19    7.71
   0  -6 -11   80.44    5.55
   0   6  11   77.84    8.24
   0   6  11   75.32    5.27
   0   6 -11   72.36    6.57
   6   0 -12   60.10    8.01
   6   0 -12   64.51    5.55
   6   0 -12   37.48    6.12
  -6   0  12   62.23    5.81
   6   0 -12   50.82    6.25
  -4   0  12  128.69    7.23
  -4   0  12  135.29    7.56
  -4   0  12  142.22    9.06
  -4   0  12  129.77   10.89
   4   0 -12  147.34   10.80
   4   0 -12  126.97    9.60
   4   0 -12  135.02    9.76
   4   0 -12  139.08    7.53
  -4   0  12  119.84    9.50
   4   0 -12  119.22    8.01
   2   0 -12   57.98    5.81
  -2   0  12   70.14    4.61
   2   0 -12   62.27    4.19
  -2   0  12   66.83    5.59
   2   0 -12   56.26    4.89
   2   0 -12   58.24    5.96
  -2   0  12   56.13    4.19
  -2   0  12   51.98    5.52
   2   0 -12   54.37    4.62
   2   0 -12   64.35    6.41
  -2   0  12   63.56    6.17
   2   0 -12   63.71    4.37
   0   0 -12   30.37    3.97
   0   0 -12   35.63    3.31
   0   0 -12   42.15    4.59
   0   0 -12   37.76    4.30
   0   0  12   39.78    3.72
   0   0  12   39.72    4.80
   0   0  12   32.49    4.06
   0   0  12   27.12    3.17
   0   0 -12   32.60    3.41
   0   0  12   36.25    4.39
   2   0  12   95.93    5.73
   2   0  12   86.06    6.46
   2   0  12   80.48    6.71
   2   0  12  102.52    7.58
  -2   0 -12   94.65    7.06
  -2   0 -12   98.18    5.64
  -4   0 -12   81.58    5.39
  -4   0 -12   71.23    8.76
   4   0  12   56.30    7.89
   7  -1 -12   78.23    6.96
   7  -1 -12   82.63    9.41
   7  -1 -12   59.12   10.37
   7  -1 -12   84.05    7.60
  -7  -1  12  101.33    7.49
   7   1 -12   77.24    9.94
   7   1 -12   86.07    9.47
   7   1 -12   91.49    7.63
  -7   1  12   90.38    7.08
   5  -1 -12   44.19    6.36
   5  -1 -12   58.97    5.36
   5  -1 -12   53.88    4.98
   5  -1 -12   50.88    7.65
  -5  -1  12   49.43    5.40
   5  -1 -12   54.25    4.49
  -5  -1  12   56.79    5.52
  -5  -1  12   50.46    4.58
   5   1 -12   40.11    4.33
  -5   1  12   56.19    4.64
  -5   1  12   54.15    4.70
   5   1 -12   60.17    7.17
   5   1 -12   47.13    6.81
   5   1 -12   48.72    7.04
   5   1 -12   44.55    5.52
   3  -1 -12   27.73    3.20
  -3  -1  12   27.06    3.84
   3  -1 -12   30.23    4.86
  -3  -1  12   27.12    3.19
  -3  -1  12   21.33    2.59
  -3  -1  12   29.30    4.96
  -3  -1  12   29.49    4.03
   3  -1 -12   24.89    3.03
   3  -1 -12   20.57    3.83
   3  -1 -12   33.37    3.60
   3  -1 -12   28.22    3.81
  -3   1  12   25.45    3.68
  -3   1  12   28.03    4.71
  -3   1  12   29.05    3.73
   3   1 -12   26.93    3.84
   3   1 -12   27.24    4.26
   3   1 -12   21.86    2.53
   3   1 -12   29.35    4.24
   3   1 -12   30.24    3.86
   3   1 -12   28.73    3.63
  -3   1  12   30.79    3.44
  -3   1  12   27.78    3.83
  -1  -1  12  128.03    8.71
  -1  -1  12  123.04    8.34
   1  -1 -12  126.48    8.79
  -1  -1  12  115.08    6.55
   1  -1 -12  131.22    6.85
   1  -1 -12  116.18    7.32
   1  -1 -12  125.22    6.62
  -1  -1  12  119.78    6.93
  -1  -1  12   94.68    8.07
   1   1 -12  120.40    8.49
  -1   1  12  119.92    7.76
  -1   1  12  123.68    6.82
   1   1 -12  126.76    6.85
   1   1 -12  107.33    6.93
   1   1 -12  117.37    7.10
  -1   1  12  111.45    8.80
   1   1 -12  117.03    8.73
   1   1 -12  126.72    8.33
  -1   1  12  115.92    8.36
   1   1 -12  119.34    6.52
  -1   1  12  119.77    6.71
   1  -1  12   71.79    6.40
  -1  -1 -12   87.78    5.72
   1  -1  12   85.83    5.97
  -1  -1 -12   76.28    6.57
   1  -1  12   81.62    6.70
  -1  -1 -12   90.18    7.04
  -1  -1 -12   80.15    4.98
   1  -1  12   77.27    5.41
  -1  -1 -12   72.56    7.15
  -1   1 -12   76.69    5.72
  -1   1 -12   83.52    5.02
  -1   1 -12   79.03    5.25
   1   1  12   71.23    6.79
   1   1  12   82.51    5.18
   1   1  12   84.02    6.67
   3  -1  12   52.31    4.91
  -3  -1 -12   58.97    4.24
   3  -1  12   51.32    6.42
  -3  -1 -12   45.75    6.04
  -3   1 -12   60.12    6.43
   3   1  12   57.81    4.58
   3   1  12   50.97    7.45
   3   1  12   55.60    6.57
  -3   1 -12   56.06    4.87
   6  -2 -12   77.46    6.66
   6  -2 -12   91.45    6.13
  -6  -2  12  107.80    7.25
   6  -2 -12   92.18    8.51
   6  -2 -12   85.72    9.60
   6  -2 -12   85.83    7.46
  -6   2  12   96.21    6.25
   6   2 -12   97.97    7.38
   6   2 -12   85.51    8.52
   6   2 -12   73.91    8.38
   6   2 -12   76.25    9.92
   4  -2 -12   63.64    5.24
  -4  -2  12   62.14    5.01
  -4  -2  12   48.07    5.60
   4  -2 -12   59.12    6.97
   4  -2 -12   55.27    6.14
  -4  -2  12   55.20    5.51
   4  -2 -12   54.58    5.09
   4  -2 -12   65.54    4.67
  -4   2  12   52.03    4.56
  -4   2  12   52.87    5.00
  -4   2  12   63.78    5.95
   4   2 -12   58.40    5.35
   4   2 -12   56.78    7.19
   4   2 -12   54.60    6.21
   4   2 -12   59.76    6.30
  -4   2  12   51.84    6.16
   4   2 -12   43.55    5.23
   2  -2 -12   88.19    5.49
  -2  -2  12   86.63    6.05
   2  -2 -12   90.31    5.53
  -2  -2  12   88.86    6.69
   2  -2 -12   82.07    5.68
  -2  -2  12   77.60    7.15
   2  -2 -12   85.70    7.23
   2  -2 -12   78.77    6.23
  -2  -2  12   86.86    5.75
   2   2 -12   85.27    5.66
   2   2 -12   64.17    7.30
   2   2 -12   89.22    7.04
  -2   2  12   77.25    6.92
   2   2 -12   67.56    6.12
  -2   2  12   87.62    6.37
  -2   2  12   84.52    5.23
  -2   2  12   87.82    5.92
  -2   2  12   80.84    7.67
   2   2 -12   82.50    7.30
   2   2 -12   80.41    5.88
   2   2 -12   85.90    6.40
   0  -2  12   83.20    5.80
   0  -2 -12   81.02    7.18
   0  -2 -12   97.85    7.13
   0  -2 -12   96.23    7.67
   0  -2  12   79.17    6.79
   0  -2 -12   85.36    5.51
   0  -2  12   68.34    7.01
   0  -2 -12   81.93    5.98
   0   2  12   83.54    5.29
   0   2  12   82.05    6.87
   0   2 -12   96.31    7.02
   0   2 -12   81.25    5.84
   0   2  12   80.94    7.90
   0   2 -12   85.20    5.44
   0   2 -12   72.19    5.69
  -2  -2 -12   28.84    4.93
   2  -2  12   44.06    4.56
  -2  -2 -12   48.10    4.00
   2  -2  12   49.48    6.69
  -2  -2 -12   28.79    5.11
  -2  -2 -12   38.67    5.52
   2  -2  12   36.56    4.88
  -2   2 -12   35.84    3.78
   2   2  12   36.43    5.87
  -2   2 -12   35.34    4.74
   2   2  12   30.46    4.07
   2   2  12   35.36    5.52
  -4  -2 -12   75.66    5.43
   4  -2  12   83.30    8.59
  -4  -2 -12   89.21   10.62
   4   2  12   80.19    8.17
  -4   2 -12   80.92    6.51
  -5  -3  12   69.12    6.54
   5  -3 -12   76.30    8.45
   5  -3 -12   75.35    7.18
   5  -3 -12   75.69    6.80
   5  -3 -12   67.54    6.70
   5  -3 -12   73.60    5.82
  -5  -3  12   78.53    6.37
   5   3 -12   69.97    9.08
   5   3 -12   72.28    7.50
  -5   3  12   60.04    5.78
   5   3 -12   81.22    6.54
   5   3 -12   69.16    7.07
   5   3 -12   70.41    7.56
  -5   3  12   82.45    5.35
   3  -3 -12   92.87    8.18
  -3  -3  12   80.83    6.20
   3  -3 -12   97.88    7.26
  -3  -3  12   93.21    6.64
   3  -3 -12   98.90    6.54
  -3  -3  12   82.96    7.13
   3  -3 -12   95.91    6.22
  -3   3  12   83.29    5.77
   3   3 -12   82.61    6.64
   3   3 -12   89.57    7.55
  -3   3  12   92.08    7.36
   3   3 -12   99.19    8.41
   3   3 -12   89.86    7.65
   1  -3 -12   65.83    6.65
  -1  -3  12   57.81    5.56
   1  -3 -12   53.04    6.49
  -1  -3  12   51.36    6.70
   1  -3 -12   51.97    5.29
  -1  -3  12   63.69    5.38
   1  -3 -12   55.61    4.81
  -1   3  12   63.84    8.16
   1   3 -12   63.40    6.59
   1   3 -12   57.60    6.00
  -1   3  12   56.50    6.21
   1   3 -12   54.81    5.71
   1   3 -12   62.58    5.29
  -1   3  12   60.68    4.52
   1   3 -12   50.38    6.89
   1   3 -12   57.31    5.38
  -1  -3 -12   97.76    6.55
   1  -3  12   95.95    8.23
  -1  -3 -12   92.85    8.91
  -1  -3 -12   98.82    7.16
   1  -3  12   82.64    9.22
   1  -3  12  104.71    6.83
   1   3  12   95.58    8.22
  -1   3 -12   98.79    6.80
   1   3  12  109.01    6.25
   1   3  12   93.92   10.07
  -1   3 -12  102.56    6.73
  -1   3 -12   90.76    6.68
   3  -3  12   73.78    6.17
   3  -3  12   76.96    5.68
   3  -3  12   69.12    7.66
  -3  -3 -12   71.39    8.02
  -3  -3 -12   80.08    5.96
   3   3  12   67.56    9.87
  -3   3 -12   71.98    6.29
   3   3  12   68.32    5.51
   3   3  12   59.37    7.46
   6  -4 -12   43.58    5.97
   6  -4 -12   44.99    6.05
   6  -4 -12   48.46    6.19
   6  -4 -12   43.83    5.63
   6   4 -12   56.56    8.00
   6   4 -12   58.41    6.35
   6   4 -12   47.47    7.51
   4  -4 -12   80.20    8.21
   4  -4 -12   77.33    6.80
   4  -4 -12   78.34    5.73
  -4  -4  12   82.31    6.53
   4  -4 -12   55.01    7.45
   4   4 -12   80.59    9.06
   4   4 -12   78.67    7.58
   4   4 -12   87.99    6.71
   4   4 -12   60.57    7.59
   4   4 -12   79.06    7.45
  -4   4  12   67.91    5.32
   2  -4 -12  105.42    6.47
   2  -4 -12   85.71    8.80
  -2  -4  12  111.71    7.33
   2  -4 -12  112.11    9.35
  -2  -4  12  103.94    7.95
   2   4 -12  114.19    7.46
   2   4 -12  100.99    8.94
   2   4 -12  110.37    9.33
  -2   4  12  110.61    6.29
  -2   4  12   96.66    8.38
   0  -4 -12   85.99    7.14
   0  -4  12   82.91    6.21
   0  -4 -12   84.60    8.59
   0  -4 -12   81.62    5.37
   0  -4 -12   70.64    8.34
   0  -4  12   75.20    7.29
   0   4 -12   84.61    6.54
   0   4  12   74.25    5.14
   0   4 -12   73.38    6.68
   0   4 -12   78.87    6.30
   0   4 -12   80.61    7.70
   0   4 -12   68.15    7.77
  -2  -4 -12   62.16    7.56
   2  -4  12   54.25    7.14
   2  -4  12   53.27    5.57
  -2  -4 -12   52.32    5.45
   2  -4  12   57.40    6.09
   2   4  12   58.07    4.96
  -2   4 -12   38.42    5.42
   2   4  12   51.39    7.50
  -2   4 -12   57.50    5.89
   3  -5 -12   59.77    6.62
   3  -5 -12   63.29    8.63
   3  -5 -12   74.52    8.70
  -3  -5  12   77.25    6.53
   3  -5 -12   66.33    5.25
  -3   5  12   65.41    4.97
   3   5 -12   59.20    6.52
   3   5 -12   66.33    8.85
   3   5 -12   65.60    7.59
   1  -5 -12  132.67   10.95
   1  -5 -12  142.32    7.82
  -1  -5  12  153.82    8.97
  -1  -5  12  128.57    9.91
   1  -5 -12  143.12   11.86
  -1   5  12  127.67   10.44
  -1   5  12  134.83    7.56
   1   5 -12  133.33   11.41
   1   5 -12  136.37    8.91
  -1  -5 -12   72.94    5.99
   1  -5  12   74.41    6.98
   1  -5  12   67.94    8.00
  -1  -5 -12   90.26   10.12
  -1  -5 -12   78.02   10.32
   1  -5  12   86.75    6.88
  -1   5 -12   76.72    7.66
   1   5  12   68.98    8.24
   1   5  12   78.83    5.38
   6   0 -13   19.17    4.52
  -6   0  13   19.56    3.86
   6   0 -13   20.35    5.53
   6   0 -13    3.76    5.91
   6   0 -13   24.15    3.77
  -4   0  13   78.51    5.58
   4   0 -13   86.05    8.85
   4   0 -13   83.66    6.30
  -4   0  13   87.39    5.88
   4   0 -13   63.53    8.26
   4   0 -13   88.67    5.86
  -4   0  13   78.35    7.72
  -4   0  13   83.00    7.17
   2   0 -13   43.39    3.92
   2   0 -13   41.94    4.37
   2   0 -13   47.97    4.05
  -2   0  13   45.79    5.52
  -2   0  13   43.64    5.25
   2   0 -13   44.26    5.53
  -2   0  13   44.49    5.91
   2   0 -13   28.86    4.62
  -2   0  13   37.91    4.07
  -2   0  13   48.57    4.23
   0   0  13   49.99    5.36
   0   0  13   59.85    4.54
   0   0 -13   49.19    5.45
   0   0 -13   52.94    4.32
   0   0  13   56.26    5.62
   0   0  13   53.66    5.14
   0   0 -13   42.82    4.97
   0   0 -13   53.35    4.24
  -2   0 -13  223.88   12.20
   2   0  13  207.36   13.51
  -2   0 -13  212.56   10.67
   2   0  13  194.70   10.68
   5  -1 -13   54.17    5.08
  -5  -1  13   54.78    5.67
   5  -1 -13   34.20    5.58
   5  -1 -13   45.02    6.62
  -5  -1  13   42.39    4.55
  -5  -1  13   42.24    5.86
   5  -1 -13   37.85    4.90
   5  -1 -13   47.94    4.54
   5   1 -13   36.20    6.38
   5   1 -13   37.93    4.27
  -5   1  13   39.83    5.87
   5   1 -13   38.48    5.16
  -5   1  13   44.66    4.87
   5   1 -13   37.52    6.27
  -5   1  13   51.57    4.61
   3  -1 -13   65.27    5.03
  -3  -1  13   67.41    7.85
  -3  -1  13   57.29    6.66
   3  -1 -13   64.23    6.78
  -3  -1  13   58.49    6.20
   3  -1 -13   60.96    5.17
  -3  -1  13   62.95    5.32
  -3  -1  13   55.68    4.78
   3  -1 -13   64.63    4.66
   3   1 -13   64.06    5.24
  -3   1  13   60.33    5.18
  -3   1  13   58.28    6.18
  -3   1  13   60.23    6.29
  -3   1  13   62.81    4.79
   3   1 -13   59.05    6.27
   3   1 -13   66.94    7.52
   3   1 -13   71.84    7.18
   3   1 -13   57.24    5.86
   1  -1 -13  110.97    6.23
   1  -1 -13   95.32    7.04
   1  -1 -13  112.22    6.67
  -1  -1  13  112.24    8.32
  -1  -1  13   91.59    7.88
   1  -1 -13  101.97    8.01
   1  -1 -13  115.21    8.42
  -1  -1  13  106.11    6.68
  -1  -1  13   98.21    7.95
  -1   1  13  110.26    7.33
   1   1 -13  107.09    6.82
  -1   1  13  112.33    8.21
  -1   1  13  103.12    8.51
  -1   1  13  107.48    6.37
   1   1 -13  105.95    6.58
   1   1 -13  102.37    6.22
   1  -1  13  119.80    8.15
  -1  -1 -13  122.08    7.51
   1  -1  13  105.43    8.62
   1  -1  13  106.47    8.50
  -1  -1 -13  143.03    9.44
   1  -1  13  119.85    7.21
  -1  -1 -13  130.57    8.58
   1   1  13  118.73    6.98
  -1   1 -13  103.73    7.60
  -1   1 -13  124.05    6.86
  -1   1 -13  124.49    7.08
   1   1  13  116.65    8.77
   1   1  13  111.27    8.89
  -3  -1 -13   79.56    5.53
   3  -1  13   64.71    7.83
  -3  -1 -13   78.60    9.13
   3  -1  13   79.88    6.55
  -3   1 -13   70.75    7.83
   3   1  13   74.42    7.82
  -3   1 -13   81.44    6.15
   3   1  13   87.46    5.69
   6  -2 -13   63.45    7.01
   6  -2 -13   59.94    8.36
   6  -2 -13   68.09    5.61
  -6  -2  13   72.14    7.40
   6  -2 -13   55.24    6.16
   6  -2 -13   67.78    9.49
   6   2 -13   59.98    6.99
   6   2 -13   50.85    5.77
   6   2 -13   66.48    8.25
  -6   2  13   54.00    5.66
   6   2 -13   63.23    8.50
   6   2 -13   64.70    9.87
   4  -2 -13   47.32    4.42
  -4  -2  13   30.61    4.28
   4  -2 -13   36.25    4.97
  -4  -2  13   43.23    5.83
   4  -2 -13   49.16    6.46
   4  -2 -13   46.37    5.00
   4  -2 -13   39.44    6.26
  -4  -2  13   46.98    5.07
  -4   2  13   45.90    5.30
  -4   2  13   42.35    6.23
  -4   2  13   42.39    4.45
   4   2 -13   49.14    7.56
   4   2 -13   45.33    6.90
   4   2 -13   33.60    4.25
   4   2 -13   44.47    5.64
  -4   2  13   41.96    5.92
   4   2 -13   43.75    6.46
   2  -2 -13   57.04    4.79
   2  -2 -13   54.58    6.08
   2  -2 -13   51.59    5.64
  -2  -2  13   50.29    6.51
  -2  -2  13   53.03    5.28
  -2  -2  13   46.89    5.59
   2   2 -13   51.35    5.68
   2   2 -13   54.29    6.55
  -2   2  13   42.12    5.82
   2   2 -13   45.97    5.19
  -2   2  13   46.96    4.66
   2   2 -13   43.78    4.99
  -2   2  13   50.15    5.32
   2   2 -13   49.51    6.40
   0  -2 -13  107.37    6.35
   0  -2 -13  102.31    7.05
   0  -2  13  100.46    6.69
   0  -2  13   99.75    7.74
   0  -2 -13  115.04    8.01
   0  -2  13   91.32    8.23
   0   2 -13  102.81    6.66
   0   2  13   80.66    8.73
   0   2  13   89.95    6.33
   0   2  13  103.11    7.97
   0   2 -13   96.67    6.29
   0   2 -13   91.52    6.51
   2  -2  13   69.00    7.63
  -2  -2 -13   90.18    9.17
  -2  -2 -13   85.69    5.71
   2  -2  13   79.78    6.31
   2  -2  13   82.95    8.61
  -2   2 -13   73.75    6.59
   2   2  13   78.64    9.45
   2   2  13   82.15    7.60
   2   2  13   82.66    5.95
  -2   2 -13   76.55    6.52
   5  -3 -13   55.21    6.66
   5  -3 -13   57.57    5.59
   5  -3 -13   59.66    8.06
   5  -3 -13   66.96    6.71
   5  -3 -13   40.56    5.87
  -5  -3  13   54.06    6.90
   5   3 -13   56.54    7.54
   5   3 -13   60.09    9.20
  -5   3  13   45.50    5.08
   5   3 -13   61.12    7.47
   5   3 -13   63.13    6.83
   5   3 -13   58.77    7.14
   3  -3 -13  120.48    7.13
   3  -3 -13  108.91    9.13
  -3  -3  13  105.12    7.65
   3  -3 -13  112.34    8.23
  -3  -3  13  112.90    8.24
   3  -3 -13  104.62    7.16
   3   3 -13   89.78    7.66
   3   3 -13  108.00    9.68
  -3   3  13  103.36    6.63
   3   3 -13  103.24    9.03
  -3   3  13   90.65    8.56
   3   3 -13  107.74    8.97
   3   3 -13  110.98    7.74
   1  -3 -13   40.47    4.95
  -1  -3  13   41.53    5.62
   1  -3 -13   37.12    5.32
  -1  -3  13   37.36    4.36
   1  -3 -13   42.20    6.35
  -1   3  13   47.35    4.47
   1   3 -13   41.18    4.70
   1   3 -13   35.11    4.24
   1   3 -13   38.69    4.95
   1   3 -13   48.16    6.42
  -1   3  13   33.97    5.08
  -1  -3 -13   84.78    6.17
  -1  -3 -13   87.96    8.90
   1  -3  13   67.50    7.35
   1  -3  13   66.82    6.25
  -1  -3 -13   74.84    7.25
  -1  -3 -13   77.10    9.07
   1   3  13   75.46    7.49
  -1   3 -13   78.58    6.15
  -1   3 -13   57.18    6.06
   1   3  13   75.00    5.72
  -1   3 -13   56.80    6.25
   4  -4 -13   75.07    8.21
  -4  -4  13   63.48    7.03
   4  -4 -13   65.08    6.30
   4  -4 -13   55.27    6.75
   4  -4 -13   69.88    7.07
   4   4 -13   59.70    7.35
   4   4 -13   66.35    7.60
  -4   4  13   63.39    5.70
   4   4 -13   57.89    9.25
   4   4 -13   67.04    7.23
  -2  -4  13   65.11    6.51
  -2  -4  13   63.89    6.59
   2  -4 -13   60.13    5.63
   2  -4 -13   61.27    7.89
   2  -4 -13   67.01    7.30
   2   4 -13   63.82    8.35
  -2   4  13   59.98    7.13
   2   4 -13   70.10    6.69
  -2   4  13   62.17    5.15
   2   4 -13   66.62    6.72
   0  -4 -13   50.47    7.16
   0  -4 -13   59.08    5.61
   0  -4  13   51.28    7.10
   0  -4 -13   78.51    8.53
   0   4 -13   61.26    7.71
   0   4  13   43.02    6.27
   0   4 -13   62.24    6.53
   0   4  13   65.51    5.22
   0   4 -13   60.37    7.16
   3  -5 -13   44.68    6.82
   3  -5 -13   43.52    7.41
   3  -5 -13   46.82    5.43
  -3  -5  13   59.78    7.06
   3   5 -13   39.72    7.21
   3   5 -13   45.92    5.67
   1  -5 -13   82.15    9.48
   1  -5 -13   63.98    8.54
  -1  -5  13   80.80    7.95
   1  -5 -13   84.18    6.28
  -1  -5  13   86.78    8.02
   1   5 -13   73.25    7.58
  -1   5  13   66.43    8.69
  -1   5  13   72.49    5.71
   1   5 -13   73.85    7.47
   1   5 -13   80.16    9.30
   6   0 -14   23.60    4.62
   6   0 -14   28.86    7.48
   6   0 -14   12.91    6.44
   6   0 -14   22.37    4.17
   6   0 -14   17.49    4.59
  -4   0  14  102.57    6.93
   4   0 -14  124.06   10.05
   4   0 -14   99.48   10.20
  -4   0  14   96.94    8.67
   4   0 -14   94.43    7.25
   4   0 -14  108.49    6.95
  -2   0  14  141.33   11.10
   2   0 -14  136.50    8.65
  -2   0  14  158.96   10.60
   2   0 -14  151.56   10.87
  -2   0  14  143.19   10.08
   2   0 -14  152.69    8.29
  -2   0  14  146.66    8.31
   0   0  14   82.93    7.36
   0   0  14   84.64    7.18
   0   0  14   82.76    6.63
   0   0 -14   86.00    5.69
   0   0 -14   70.95    6.47
   0   0 -14   80.61    5.88
   0   0  14   82.17    5.87
   2   0  14  123.71    7.46
   2   0  14  107.97    9.42
  -2   0 -14  119.67    7.24
  -2   0 -14  118.01    9.10
   5  -1 -14   56.86    6.02
   5  -1 -14   39.67    6.64
  -5  -1  14   69.83    6.75
  -5  -1  14   47.96    7.01
   5  -1 -14   56.48    5.82
   5  -1 -14   61.61    5.26
   5  -1 -14   58.20    8.90
  -5   1  14   64.36    5.59
  -5   1  14   50.34    7.17
   5   1 -14   56.06    6.36
   5   1 -14   50.60    6.05
   5   1 -14   40.65    7.33
  -3  -1  14   98.37    7.95
   3  -1 -14   71.13    5.62
  -3  -1  14   87.49    6.43
   3  -1 -14   89.01    6.06
   3  -1 -14   86.65    8.08
  -3  -1  14   86.68    9.20
   3  -1 -14   70.15    6.20
   3   1 -14   84.43    8.62
   3   1 -14   89.19    6.95
  -3   1  14   86.95    5.98
   3   1 -14   90.43    6.35
   3   1 -14   79.98    8.92
  -3   1  14   85.90    7.47
  -3   1  14   83.01    7.81
   1  -1 -14  173.63   11.46
   1  -1 -14  141.80    8.39
  -1  -1  14  164.45   11.26
  -1  -1  14  170.72   10.72
   1  -1 -14  140.02    9.46
  -1  -1  14  167.60    8.97
  -1  -1  14  146.56   10.57
   1   1 -14  142.29   10.47
  -1   1  14  148.37   11.38
   1   1 -14  166.38    8.85
   1   1 -14  168.81    9.20
  -1   1  14  147.38    9.94
  -1   1  14  147.29   10.82
  -1   1  14  163.71    8.71
   1  -1  14   75.50    5.87
  -1  -1 -14   90.00    7.69
   1  -1  14   80.15    7.36
  -1  -1 -14   76.54    5.35
  -1  -1 -14   95.11    8.22
  -1  -1 -14   51.81    6.23
  -1   1 -14   68.01    6.53
   1   1  14   73.88    7.45
  -1   1 -14   79.35    5.82
   1   1  14   82.10    5.86
   1   1  14   65.36    7.78
   4  -2 -14   60.99    5.95
   4  -2 -14   61.12    5.20
   4  -2 -14   60.20    7.71
  -4  -2  14   48.22    5.37
  -4  -2  14   56.20    6.83
   4  -2 -14   42.45    5.86
  -4   2  14   59.86    7.04
  -4   2  14   57.60    5.28
   4   2 -14   56.11    6.45
   4   2 -14   48.08    7.14
   4   2 -14   56.70    8.34
   4   2 -14   50.90    6.08
  -4   2  14   59.92    7.65
   2  -2 -14  103.31    7.82
  -2  -2  14   92.88    8.20
  -2  -2  14  105.18    7.49
   2  -2 -14  106.63    8.94
   2  -2 -14  113.77    6.72
  -2   2  14  104.98    7.86
  -2   2  14   96.77    6.82
  -2   2  14   92.11    8.66
   2   2 -14  103.93    7.99
   2   2 -14  106.65    8.90
   2   2 -14  110.06    7.33
   0  -2  14  116.86    7.75
   0  -2  14  103.84    9.00
   0  -2 -14  131.46    9.11
   0  -2 -14  126.82    7.29
   0  -2  14  105.41    9.43
   0  -2 -14   94.61    9.84
   0   2 -14  118.14    7.70
   0   2  14  128.27    7.54
   0   2 -14  122.22    7.84
   0   2  14  108.00   10.05
   0   2  14  128.44    9.54
   2  -2  14   46.87    7.33
   2  -2  14   50.38    6.01
  -2  -2 -14   49.63    7.30
   2   2  14   58.36    5.49
  -2   2 -14   38.22    5.10
   2   2  14   56.11    7.36
  -3  -3  14  114.42    8.56
   3  -3 -14  106.21    9.31
   3  -3 -14  114.19    7.49
  -3  -3  14  102.63    8.21
   3  -3 -14   98.23    8.56
   3   3 -14   95.32    8.35
  -3   3  14  101.03    6.78
   3   3 -14   92.21    8.30
   3   3 -14   98.35    9.73
  -3   3  14   87.54    9.04
   1  -3 -14   61.58    7.65
  -1  -3  14   56.25    6.33
   1  -3 -14   62.60    6.60
   1  -3 -14   69.04    6.04
  -1  -3  14   53.03    6.51
   1   3 -14   48.88    7.55
   1   3 -14   50.72    6.61
   1   3 -14   61.25    7.11
  -1   3  14   55.63    5.28
  -1   3  14   48.84    7.10
   1  -3  14   56.66    6.70
  -1  -3 -14   49.37    7.45
  -1  -3 -14   53.15    8.93
   1  -3  14   46.57    6.64
   1   3  14   63.55    7.77
  -1   3 -14   63.22    6.22
   2  -4 -14   55.28    7.50
  -2  -4  14   52.73    6.75
  -2  -4  14   46.83    5.52
   2  -4 -14   56.34    6.70
   2  -4 -14   55.68    8.17
  -2   4  14   67.62    6.00
   2   4 -14   63.59    8.49
   2   4 -14   59.93    7.38
   2   4 -14   43.09    5.65
  -2   4  14   47.64    6.50
   0  -4  14   42.31    6.22
   0  -4 -14   70.22    9.05
   0  -4  14   55.30    7.07
   0   4  14   59.82    5.92
   0   4 -14   57.89    7.43
   0   4  14   34.24    6.21
   4   0 -15  146.93    8.36
  -4   0  15  124.68    8.38
  -4   0  15  128.42   10.53
   4   0 -15  138.67   11.85
   4   0 -15  126.48    8.59
   4   0 -15  105.14   11.46
   2   0 -15   54.37    6.01
  -2   0  15   78.75    5.91
  -2   0  15   71.58    8.44
  -2   0  15   66.03    7.65
   2   0 -15   81.67    7.70
   2   0 -15   75.24    5.66
  -2   0  15   72.52    7.31
   0   0  15   43.03    6.28
   0   0 -15   33.51    4.84
   0   0 -15   49.33    4.74
   0   0  15   41.20    5.13
   3  -1 -15   68.65    8.15
  -3  -1  15   78.20    7.82
  -3  -1  15   72.91    6.49
   3  -1 -15   62.03    6.25
   3  -1 -15   79.12    5.75
   3   1 -15   87.30    8.91
  -3   1  15   79.15    6.00
  -3   1  15   65.82    7.52
  -3   1  15   69.51    7.75
   3   1 -15   72.16    6.77
   3   1 -15   79.24    6.38
   3   1 -15   49.70    7.28
  -1  -1  15   63.51    7.36
   1  -1 -15   70.42    5.39
  -1  -1  15   66.76    7.18
  -1  -1  15   60.76    5.84
   1  -1 -15   60.83    6.63
   1  -1 -15   47.78    7.25
  -1   1  15   52.25    7.48
  -1   1  15   65.85    7.24
   1   1 -15   67.33    6.11
  -1   1  15   71.49    5.84
   1   1 -15   70.31    5.81
   1  -1  15   44.67    5.55
   1  -1  15   35.30    5.56
  -1  -1 -15   34.51    5.58
   1   1  15   50.05    5.48
  -1   1 -15   25.70    4.82
   1   1  15   32.87    5.43
  -4  -2  15   74.51    8.33
   4  -2 -15   55.80    7.06
   4  -2 -15   69.70    6.64
   4  -2 -15   64.42    5.85
   4  -2 -15   61.00    8.81
   4   2 -15   68.61   10.22
   4   2 -15   67.44    7.52
   4   2 -15   62.93    8.19
  -4   2  15   63.95    8.53
   2  -2 -15   43.07    5.29
  -2  -2  15   46.84    6.47
   2  -2 -15   45.74    6.98
  -2  -2  15   40.41    4.60
   2  -2 -15   53.00    5.21
  -2   2  15   39.72    6.13
   2   2 -15   54.51    6.16
   2   2 -15   26.96    6.01
  -2   2  15   54.49    5.69
   2   2 -15   44.31    5.43
   0  -2  15   86.46    7.30
   0  -2  15   69.45    8.07
   0  -2 -15   75.08    8.64
   0   2  15   93.37    8.48
   0   2  15  101.34    6.99
   0   2 -15   81.30    7.15
  -1  -3  15   33.62    4.94
   1  -3 -15   38.66    6.11
  -1  -3  15   29.01    5.10
   1   3 -15   16.45    5.69
   1   3 -15   31.47    5.41
  -1   3  15   32.12    4.63
  -1   3  15   35.05    6.09
   2   0 -16   65.95    7.21
  -2   0  16   63.32    8.32
   2   0 -16   85.39    6.71
  -2   0  16   63.57    6.52
   0   0   0    0.00    0.00
;
_shelx_hkl_checksum              18696
#END Tags that were not found in dictionaries
loop_
_space_group_symop_operation_xyz
'x, y, z'
'-x, y, -z'
'x+1/2, y+1/2, z'
'-x+1/2, y+1/2, -z'
loop_
_atom_site_label
_atom_site_type_symbol
_atom_site_fract_x
_atom_site_fract_y
_atom_site_fract_z
_atom_site_U_iso_or_equiv
_atom_site_adp_type
_atom_site_occupancy
_atom_site_site_symmetry_order
_atom_site_calc_flag
_atom_site_refinement_flags_posn
_atom_site_refinement_flags_adp
_atom_site_refinement_flags_occupancy
Pb1 Pb 1.0000 0.81778(2) 0.5000 0.0111(2) Uani 1 2 d S TU P
Cl1 Cl 0.8316(4) 1.1404(4) 0.5309(3) 0.0191(7) Uani 1 1 d . U .
Cl2 Cl 1.0596(4) 0.7457(5) 0.7176(3) 0.0179(6) Uani 1 1 d . U .
O2 O 0.1941(13) 0.8813(15) 0.0936(8) 0.024(2) Uani 1 1 d . U .
N1 N 0.3639(12) 0.811(5) 0.3018(7) 0.017(2) Uani 1 1 d . U .
H1A H 0.2451 0.8303 0.2831 0.025 Uiso 1 1 calc R U .
H1B H 0.4070 0.8607 0.3647 0.025 Uiso 1 1 calc R U .
H1C H 0.3857 0.6926 0.3049 0.025 Uiso 1 1 calc R U .
C1 C 0.4514(18) 0.893(2) 0.2252(10) 0.018(2) Uani 1 1 d . U .
H1D H 0.5796 0.8649 0.2430 0.021 Uiso 1 1 calc R U .
H1E H 0.4378 1.0230 0.2267 0.021 Uiso 1 1 calc R U .
C2 C 0.3730(16) 0.825(6) 0.1186(9) 0.020(3) Uani 1 1 d . U .
H2A H 0.4385 0.8740 0.0686 0.024 Uiso 1 1 calc R U .
H2B H 0.3798 0.6942 0.1169 0.024 Uiso 1 1 calc R U .
C3 C 0.0935(19) 0.842(6) 0.0098(11) 0.038(7) Uani 1 1 d . U .
H3A H 0.1282 0.7215 -0.0074 0.046 Uiso 1 1 calc R U .
H3B H 0.1259 0.9225 -0.0421 0.046 Uiso 1 1 calc R U .
loop_
_atom_site_aniso_label
_atom_site_aniso_U_11
_atom_site_aniso_U_22
_atom_site_aniso_U_33
_atom_site_aniso_U_23
_atom_site_aniso_U_13
_atom_site_aniso_U_12
Pb1 0.0106(3) 0.0095(3) 0.0133(3) 0.000 0.00270(18) 0.000
Cl1 0.0168(16) 0.0174(16) 0.0213(16) -0.0042(13) 0.0002(12) 0.0063(12)
Cl2 0.0178(15) 0.0170(13) 0.0186(15) -0.0003(12) 0.0032(12) 0.0008(12)
O2 0.018(5) 0.032(6) 0.019(5) -0.002(4) -0.004(4) 0.003(4)
N1 0.014(4) 0.021(5) 0.014(4) -0.006(11) 0.001(3) -0.006(12)
C1 0.020(6) 0.018(5) 0.017(6) 0.002(5) 0.008(5) 0.003(5)
C2 0.019(5) 0.022(8) 0.019(5) 0.000(11) 0.003(4) 0.009(12)
C3 0.027(7) 0.07(2) 0.015(6) 0.019(10) 0.000(4) 0.002(10)
loop_
_atom_type_symbol
_atom_type_description
_atom_type_scat_dispersion_real
_atom_type_scat_dispersion_imag
_atom_type_scat_source
C C 0.0033 0.0016 'International Tables Vol C Tables 4.2.6.8 and 6.1.1.4'
N N 0.0061 0.0033 'International Tables Vol C Tables 4.2.6.8 and 6.1.1.4'
O O 0.0106 0.0060 'International Tables Vol C Tables 4.2.6.8 and 6.1.1.4'
Cl Cl 0.1484 0.1585 'International Tables Vol C Tables 4.2.6.8 and 6.1.1.4'
Pb Pb -3.3944 10.1111 'International Tables Vol C Tables 4.2.6.8 and 6.1.1.4'
H H 0.0000 0.0000 'International Tables Vol C Tables 4.2.6.8 and 6.1.1.4'
loop_
_geom_angle_atom_site_label_1
_geom_angle_atom_site_label_2
_geom_angle_atom_site_label_3
_geom_angle
_geom_angle_site_symmetry_1
_geom_angle_site_symmetry_3
Cl1 Pb1 Cl1 61.50(15) 2_756 .
Cl1 Pb1 Cl1 144.32(13) 2_756 4_646
Cl1 Pb1 Cl1 89.81(4) . 4_646
Cl1 Pb1 Cl1 89.81(4) 2_756 3_545
Cl1 Pb1 Cl1 144.32(13) . 3_545
Cl1 Pb1 Cl1 123.84(14) 4_646 3_545
Cl1 Pb1 Cl2 89.73(10) 2_756 2_756
Cl1 Pb1 Cl2 109.23(10) . 2_756
Cl1 Pb1 Cl2 79.77(10) 4_646 2_756
Cl1 Pb1 Cl2 90.00(9) 3_545 2_756
Cl1 Pb1 Cl2 109.22(10) 2_756 .
Cl1 Pb1 Cl2 89.72(10) . .
Cl1 Pb1 Cl2 90.00(9) 4_646 .
Cl1 Pb1 Cl2 79.77(10) 3_545 .
Cl2 Pb1 Cl2 158.24(14) 2_756 .
Pb1 Cl1 Pb1 144.32(13) . 3_455
C3 O2 C2 121.9(17) . .
C1 N1 H1A 109.5 . .
C1 N1 H1B 109.5 . .
H1A N1 H1B 109.5 . .
C1 N1 H1C 109.5 . .
H1A N1 H1C 109.5 . .
H1B N1 H1C 109.5 . .
N1 C1 C2 111.0(17) . .
N1 C1 H1D 109.4 . .
C2 C1 H1D 109.4 . .
N1 C1 H1E 109.4 . .
C2 C1 H1E 109.4 . .
H1D C1 H1E 108.0 . .
O2 C2 C1 107.2(17) . .
O2 C2 H2A 110.3 . .
C1 C2 H2A 110.3 . .
O2 C2 H2B 110.3 . .
C1 C2 H2B 110.3 . .
H2A C2 H2B 108.5 . .
O2 C3 C3 125.4(17) . 2
O2 C3 H3A 106.0 . .
C3 C3 H3A 106.0 2 .
O2 C3 H3B 106.0 . .
C3 C3 H3B 106.0 2 .
H3A C3 H3B 106.3 . .
loop_
_geom_bond_atom_site_label_1
_geom_bond_atom_site_label_2
_geom_bond_distance
_geom_bond_site_symmetry_2
Pb1 Cl1 2.831(3) 2_756
Pb1 Cl1 2.832(3) .
Pb1 Cl1 2.842(3) 4_646
Pb1 Cl1 2.842(3) 3_545
Pb1 Cl2 2.881(3) 2_756
Pb1 Cl2 2.881(3) .
Cl1 Pb1 2.842(3) 3_455
O2 C3 1.25(2) .
O2 C2 1.416(18) .
N1 C1 1.47(2) .
N1 H1A 0.9100 .
N1 H1B 0.9100 .
N1 H1C 0.9100 .
C1 C2 1.50(2) .
C1 H1D 0.9900 .
C1 H1E 0.9900 .
C2 H2A 0.9900 .
C2 H2B 0.9900 .
C3 C3 1.41(3) 2
C3 H3A 0.9900 .
C3 H3B 0.9900 .
loop_
_geom_torsion_atom_site_label_1
_geom_torsion_atom_site_label_2
_geom_torsion_atom_site_label_3
_geom_torsion_atom_site_label_4
_geom_torsion
_geom_torsion_site_symmetry_4
C3 O2 C2 C1 -179(2) .
N1 C1 C2 O2 64(3) .
C2 O2 C3 C3 159.1(19) 2
