#------------------------------------------------------------------------------
#$Date: 2016-03-22 21:49:03 +0200 (Tue, 22 Mar 2016) $
#$Revision: 179025 $
#$URL: svn://www.crystallography.net/cod/cif/4/12/23/4122317.cif $
#------------------------------------------------------------------------------
#
# This file is available in the Crystallography Open Database (COD),
# http://www.crystallography.net/
#
# All data on this site have been placed in the public domain by the
# contributors.
#
data_4122317
loop_
_publ_author_name
'Dell'Amico, Luca'
'Rassu, Gloria'
'Zambrano, Vincenzo'
'Sartori, Andrea'
'Curti, Claudio'
'Battistini, Lucia'
'Pelosi, Giorgio'
'Casiraghi, Giovanni'
'Zanardi, Franca'
_publ_section_title
;
 Exploring the vinylogous reactivity of cyclohexenylidene malononitriles:
 switchable regioselectivity in the organocatalytic asymmetric addition to
 enals giving highly enantioenriched carbabicyclic structures.
;
_journal_issue                   31
_journal_name_full               'Journal of the American Chemical Society'
_journal_page_first              11107
_journal_page_last               11114
_journal_paper_doi               10.1021/ja5054576
_journal_volume                  136
_journal_year                    2014
_chemical_formula_sum            'C19 H18 N2 O'
_chemical_formula_weight         290.35
_chemical_name_systematic
;
2-[(1S,4S,5R,6S)-5-Formyl-4-methyl-6-phenylbicyclo[2.2.2]
octan-2-ylidene]malononitrile
;
_space_group_crystal_system      monoclinic
_space_group_IT_number           4
_space_group_name_Hall           'P 2yb'
_space_group_name_H-M_alt        'P 1 21 1'
_symmetry_space_group_name_Hall  'P 2yb'
_symmetry_space_group_name_H-M   'P 1 21 1'
_atom_sites_solution_hydrogens   mixed
_audit_creation_method           SHELXL-2014
_cell_angle_alpha                90
_cell_angle_beta                 96.979(2)
_cell_angle_gamma                90
_cell_formula_units_Z            2
_cell_length_a                   8.4215(9)
_cell_length_b                   6.9754(8)
_cell_length_c                   13.365(2)
_cell_measurement_temperature    293(2)
_cell_volume                     779.29(17)
_computing_structure_refinement  'SHELXL-2014 (Sheldrick, 2014)'
_diffrn_ambient_temperature      293(2)
_diffrn_measured_fraction_theta_full 1.000
_diffrn_measured_fraction_theta_max 0.999
_diffrn_radiation_type           MoK\a
_diffrn_radiation_wavelength     0.71073
_diffrn_reflns_av_R_equivalents  0.0213
_diffrn_reflns_av_unetI/netI     0.0231
_diffrn_reflns_Laue_measured_fraction_full 1.000
_diffrn_reflns_Laue_measured_fraction_max 0.999
_diffrn_reflns_limit_h_max       10
_diffrn_reflns_limit_h_min       -10
_diffrn_reflns_limit_k_max       8
_diffrn_reflns_limit_k_min       -9
_diffrn_reflns_limit_l_max       16
_diffrn_reflns_limit_l_min       -17
_diffrn_reflns_number            8439
_diffrn_reflns_point_group_measured_fraction_full 0.998
_diffrn_reflns_point_group_measured_fraction_max 0.993
_diffrn_reflns_theta_full        25.242
_diffrn_reflns_theta_max         27.531
_diffrn_reflns_theta_min         1.535
_exptl_absorpt_coefficient_mu    0.077
_exptl_absorpt_correction_T_max  0.74
_exptl_absorpt_correction_T_min  0.66
_exptl_absorpt_correction_type   multi-scan
_exptl_absorpt_process_details   SADABS
_exptl_crystal_colour            colorless
_exptl_crystal_density_diffrn    1.237
_exptl_crystal_description       prism
_exptl_crystal_F_000             308
_exptl_crystal_size_max          0.4
_exptl_crystal_size_mid          0.4
_exptl_crystal_size_min          0.3
_refine_diff_density_max         0.218
_refine_diff_density_min         -0.147
_refine_diff_density_rms         0.032
_refine_ls_abs_structure_details
;
 Flack x determined using 1531 quotients [(I+)-(I-)]/[(I+)+(I-)]
 (Parsons, Flack and Wagner, Acta Cryst. B69 (2013) 249-259).
;
_refine_ls_abs_structure_Flack   0.0(5)
_refine_ls_extinction_method     none
_refine_ls_goodness_of_fit_ref   1.045
_refine_ls_hydrogen_treatment    mixed
_refine_ls_matrix_type           full
_refine_ls_number_parameters     211
_refine_ls_number_reflns         3571
_refine_ls_number_restraints     1
_refine_ls_restrained_S_all      1.044
_refine_ls_R_factor_all          0.0336
_refine_ls_R_factor_gt           0.0328
_refine_ls_shift/su_max          0.000
_refine_ls_shift/su_mean         0.000
_refine_ls_structure_factor_coef Fsqd
_refine_ls_weighting_details
'w=1/[\s^2^(Fo^2^)+(0.0540P)^2^+0.0771P] where P=(Fo^2^+2Fc^2^)/3'
_refine_ls_weighting_scheme      calc
_refine_ls_wR_factor_gt          0.0878
_refine_ls_wR_factor_ref         0.0885
_reflns_Friedel_coverage         0.837
_reflns_Friedel_fraction_full    0.995
_reflns_Friedel_fraction_max     0.986
_reflns_number_gt                3469
_reflns_number_total             3571
_reflns_threshold_expression     'I > 2\s(I)'
_cod_data_source_file            ja5054576_si_002.cif
_cod_data_source_block           7a
_cod_depositor_comments
'Adding full bibliography for 4122316--4122317.cif.'
_cod_original_cell_volume        779.31(17)
_cod_database_code               4122317
#BEGIN Tags that were not found in dictionaries:
_shelx_space_group_comment
;
The symmetry employed for this shelxl refinement is uniquely defined
by the following loop, which should always be used as a source of
symmetry information in preference to the above space-group names.
They are only intended as comments.
;
_shelxl_version_number           2014-3
_shelx_res_file
;
TITL ld451 in P 21
CELL  0.71073   8.4215   6.9754  13.3654   90.000   96.979   90.000
ZERR     2.00   0.0009   0.0008   0.0020    0.000    0.002    0.000
LATT  -1
SYMM  - X, 1/2 + Y, - Z
SFAC  C    H    N    O
UNIT  38   36   4    2
MERG   2
FMAP   2
PLAN   25
ACTA
L.S.  40
WGHT    0.054000    0.077100
FVAR       1.31403
C6    1    0.207216    1.009891    0.822891    11.00000    0.02210    0.02262 =
         0.02830   -0.00160    0.00187   -0.00197
C13   1    0.344457    0.733403    0.645156    11.00000    0.03076    0.01734 =
         0.02452   -0.00147    0.00360   -0.00155
C7    1    0.330361    0.852629    0.822813    11.00000    0.02567    0.02252 =
         0.01938    0.00052    0.00055   -0.00105
C12   1    0.521005    0.771236    0.650502    11.00000    0.02907    0.02868 =
         0.02541   -0.00130    0.00546   -0.00313
AFIX  23
H00A  2    0.538696    0.892473    0.618074    11.00000   -1.20000
H00B  2    0.571119    0.670851    0.615095    11.00000   -1.20000
AFIX   0
C10   1    0.596341    0.777592    0.760955    11.00000    0.02351    0.02286 =
         0.02645   -0.00085    0.00213   -0.00122
O1    4    0.610284    1.154477    0.938059    11.00000    0.07213    0.03977 =
         0.04525   -0.01737   -0.00353   -0.01153
C14   1    0.290939    0.688041    0.745451    11.00000    0.02477    0.02042 =
         0.02338    0.00068    0.00206   -0.00303
C17   1    0.248349    0.726072    0.556512    11.00000    0.03372    0.02445 =
         0.02389   -0.00069    0.00087   -0.00088
C16   1    0.571384    0.580856    0.808591    11.00000    0.02880    0.02297 =
         0.03326    0.00122   -0.00128    0.00314
AFIX  23
H00C  2    0.599171    0.588895    0.881058    11.00000   -1.20000
H00D  2    0.641431    0.487387    0.782835    11.00000   -1.20000
AFIX   0
C18   1    0.316258    0.756376    0.463566    11.00000    0.04068    0.02879 =
         0.02530   -0.00064   -0.00127   -0.00050
C11   1    0.773295    0.829202    0.766586    11.00000    0.02521    0.03653 =
         0.04406   -0.00408    0.00391   -0.00285
AFIX  33
H01A  2    0.819555    0.832899    0.835842    11.00000   -1.50000
H01B  2    0.827476    0.734563    0.731095    11.00000   -1.50000
H01C  2    0.784173    0.952613    0.736363    11.00000   -1.50000
AFIX   0
C19   1    0.080140    0.684224    0.548137    11.00000    0.03891    0.03508 =
         0.02334   -0.00020   -0.00279   -0.00277
C8    1    0.500628    0.932819    0.811602    11.00000    0.02515    0.02059 =
         0.02457   -0.00039    0.00065   -0.00141
C15   1    0.395818    0.514628    0.784593    11.00000    0.03253    0.01959 =
         0.02951    0.00258    0.00265   -0.00112
AFIX  23
H01D  2    0.358191    0.463018    0.844862    11.00000   -1.20000
H01E  2    0.388340    0.414557    0.733845    11.00000   -1.20000
AFIX   0
C9    1    0.578751    0.992553    0.913763    11.00000    0.02812    0.03434 =
         0.02942   -0.00498    0.00008   -0.00084
AFIX  43
H015  2    0.604439    0.896992    0.961515    11.00000   -1.20000
AFIX   0
C1    1    0.146830    1.109351    0.736448    11.00000    0.03061    0.02594 =
         0.03333    0.00120   -0.00098   -0.00075
AFIX  43
H016  2    0.179730    1.076669    0.674722    11.00000   -1.20000
AFIX   0
N1    3    0.375970    0.776280    0.392153    11.00000    0.06196    0.04427 =
         0.03191    0.00252    0.01074   -0.00044
C2    1    0.037306    1.257732    0.741659    11.00000    0.02987    0.02775 =
         0.05103    0.00504   -0.00814   -0.00033
AFIX  43
H018  2   -0.003189    1.323245    0.683501    11.00000   -1.20000
AFIX   0
C4    1    0.047321    1.210078    0.919411    11.00000    0.03686    0.05129 =
         0.04932   -0.01308    0.01178    0.00824
AFIX  43
H020  2    0.014662    1.243905    0.981042    11.00000   -1.20000
AFIX   0
C5    1    0.155043    1.061290    0.914231    11.00000    0.03107    0.03832 =
         0.03060   -0.00169    0.00479    0.00224
AFIX  43
H021  2    0.193077    0.994764    0.972555    11.00000   -1.20000
AFIX   0
C3    1   -0.011131    1.307462    0.833605    11.00000    0.02895    0.03287 =
         0.06840   -0.00774    0.00277    0.00809
AFIX  43
H022  2   -0.083514    1.407196    0.837176    11.00000   -1.20000
AFIX   0
N2    3   -0.053435    0.648133    0.539991    11.00000    0.03873    0.06159 =
         0.04114   -0.00140   -0.00382   -0.00975
H3    2    0.489546    1.044325    0.769927    11.00000    0.03071
H2    2    0.174761    0.656729    0.739537    11.00000    0.02138
H1    2    0.336404    0.798070    0.890776    11.00000    0.02212
HKLF    4

REM  ld451 in P 21
REM R1 =  0.0328 for    3469 Fo > 4sig(Fo)  and  0.0336 for all    3571 data
REM    211 parameters refined using      1 restraints

END

WGHT      0.0536      0.0780

REM Highest difference peak  0.218,  deepest hole -0.147,  1-sigma level  0.032
Q1    1   0.5617  0.7785  0.7046  11.00000  0.05    0.22
Q2    1   0.5397  0.9582  0.8578  11.00000  0.05    0.21
Q3    1   0.4132  0.8977  0.8198  11.00000  0.05    0.21
Q4    1   0.3136  0.7142  0.6925  11.00000  0.05    0.20
Q5    1   0.4246  0.7518  0.6461  11.00000  0.05    0.20
Q6    1   0.2854  0.7499  0.5997  11.00000  0.05    0.19
Q7    1   0.6787  0.8065  0.7626  11.00000  0.05    0.17
Q8    1   0.2834  0.7349  0.5085  11.00000  0.05    0.17
Q9    1   0.4781  0.5522  0.7912  11.00000  0.05    0.17
Q10   1   0.2223  1.0644  0.8745  11.00000  0.05    0.17
Q11   1   0.3465  0.6022  0.7592  11.00000  0.05    0.17
Q12   1   0.0100  0.6884  0.5818  11.00000  0.05    0.16
Q13   1   0.1586  0.7338  0.5542  11.00000  0.05    0.16
Q14   1   0.1444  1.0150  0.8590  11.00000  0.05    0.16
Q15   1   0.4001  0.7462  0.4545  11.00000  0.05    0.16
Q16   1   0.2624  0.9389  0.8201  11.00000  0.05    0.16
Q17   1   0.0183  0.6876  0.5043  11.00000  0.05    0.15
Q18   1   0.5496  0.8557  0.7883  11.00000  0.05    0.15
Q19   1   0.2840  0.7325  0.4213  11.00000  0.05    0.14
Q20   1   0.0495  1.3042  0.7918  11.00000  0.05    0.14
Q21   1   0.1875  1.0630  0.7818  11.00000  0.05    0.14
Q22   1   0.3066  0.7753  0.7807  11.00000  0.05    0.13
Q23   1   0.5825  0.6790  0.7774  11.00000  0.05    0.13
Q24   1   0.6737  1.1707  0.9943  11.00000  0.05    0.12
Q25   1   0.1157  1.2186  0.7447  11.00000  0.05    0.11
;
_shelx_res_checksum              91887
_shelx_hkl_file
;
  -1   0   0 1577.92   32.11   3
  -1   0   0 1576.91   33.16   2
   1   0   0 1611.41   30.17   1
  -2   0   0 828.705  17.012   3
  -2   0   0 867.812  16.805   4
  -2   0   0 857.651  17.924   2
   2   0   0 821.677  16.092   1
  -3   0   0 938.863  20.239   2
  -3   0   0 930.848  19.150   3
  -3   0   0 985.896  18.625   4
   3   0   0 907.649  18.108   1
  -4   0   0 73.5464  2.3129   3
  -4   0   0 74.6005  2.8278   2
   4   0   0 68.5607  2.1897   1
  -5   0   0 505.286  11.137   3
  -5   0   0 484.349  12.055   2
   5   0   0 498.466  10.534   1
  -6   0   0 3.54442 0.37668   4
  -6   0   0 4.79840 0.75233   3
   6   0   0 4.50663 0.71069   1
   6   0   0 4.42047 1.00225   2
  -7   0   0 11.8657  1.2662   3
   7   0   0 13.3802  1.6853   2
   7   0   0 12.5995  1.1554   1
  -8   0   0 4.72296 1.01693   3
   8   0   0 4.28939 0.88580   1
   8   0   0 4.67867 1.27652   2
  -9   0   0 25.9799  2.1720   3
   9   0   0 28.6134  1.9848   1
 -10   0   0 1.51189 0.90106   3
  10   0   0 1.70059 0.80069   1
  10  -1   0 8.46211 1.31981   1
 -10   1   0 9.78994 1.65968   3
   9  -1   0 21.8494  1.7385   1
   9  -1   0 24.3760  2.6881   2
  -9   1   0 20.6038  2.0260   3
   8  -1   0 56.0260  2.6167   1
   8  -1   0 58.5017  3.7308   2
  -8   1   0 60.6867  3.1150   3
   7  -1   0 217.205   7.568   2
   7  -1   0 219.613   5.774   1
  -7   1   0 214.118   6.450   3
   6  -1   0 41.8248  2.7584   2
   6  -1   0 41.8493  1.8740   1
  -6   1   0 37.3943  2.5719   2
  -6   1   0 38.5419  2.0579   3
   5  -1   0 673.567  13.636   1
  -5   1   0 659.953  14.728   3
  -5   1   0 672.902  16.119   2
   4  -1   0 1000.58   19.73   1
  -4   1   0 1035.42   22.75   2
  -4   1   0 1010.38   21.19   3
   3  -1   0 625.663  12.501   1
  -3   1   0 632.965  13.499   3
  -3   1   0 645.580  14.612   2
   2  -1   0 5981.64  112.99   1
  -2   1   0 6032.23  122.82   2
  -2   1   0 6044.58  121.18   3
   1  -1   0 1405.30   26.56   1
  -1   1   0 1416.67   29.41   2
  -1   1   0 1415.84   28.38   3
   0   1   0 -6.1671  0.2776   3
   0   1   0 -6.4237  0.3111   2
  -1  -1   0 1377.28   27.25   3
   1   1   0 1359.71   25.72   1
  -2  -1   0 5729.37  115.04   3
   2   1   0 5824.04  120.94   2
   2   1   0 5774.43  108.30   1
  -3  -1   0 630.072  12.882   3
   3   1   0 628.731  13.439   2
   3   1   0 615.040  12.406   1
  -4  -1   0 1023.47   21.06   3
   4   1   0 1026.65   21.94   2
   4   1   0 1038.56   20.14   1
  -5  -1   0 713.021  14.583   4
  -5  -1   0 700.523  14.972   3
   5   1   0 701.995  14.416   1
   5   1   0 694.763  15.786   2
  -6  -1   0 40.1418  1.8897   3
  -6  -1   0 42.7024  1.6763   4
   6   1   0 39.9955  2.2288   2
   6   1   0 40.5093  1.9479   1
  -7  -1   0 215.871   6.058   3
   7   1   0 214.017   5.839   1
  -8  -1   0 57.6205  2.8249   3
   8   1   0 57.3125  2.6837   1
  -9  -1   0 21.9592  1.9015   3
   9   1   0 20.1423  1.7225   1
 -10  -1   0 8.61839 1.54706   3
  10   1   0 9.17217 1.37292   1
  10  -2   0 45.5696  2.6889   1
  10  -2   0 43.1936  3.8474   2
 -10   2   0 45.7221  3.3400   3
   9  -2   0 65.4846  3.0018   1
   9  -2   0 61.3947  4.3210   2
  -9   2   0 61.9873  3.6047   3
   8  -2   0 47.3460  3.6271   2
   8  -2   0 49.2606  2.4127   1
  -8   2   0 50.3743  3.0311   3
   7  -2   0 96.3405  4.9691   2
   7  -2   0 96.8355  3.3621   1
  -7   2   0 100.920   4.106   3
   6  -2   0 109.753   3.421   1
  -6   2   0 105.191   4.053   3
  -6   2   0 122.602   5.147   2
   5  -2   0 97.7678  2.9882   1
  -5   2   0 96.8296  3.5632   3
  -5   2   0 101.907   4.390   2
   4  -2   0 524.349  10.840   1
  -4   2   0 531.473  13.388   2
  -4   2   0 529.813  12.148   3
   3  -2   0 3058.28   57.64   1
  -3   2   0 3104.51   61.84   3
  -3   2   0 3103.08   64.30   2
   2  -2   0 33.6933  1.1632   1
  -2   2   0 36.0910  1.5758   3
  -2   2   0 33.6889  1.8720   2
  -1   2   0 963.823  20.028   3
  -1   2   0 979.765  18.433   1
  -1   2   0 964.540  20.916   2
   0   2   0 6465.98  119.88   1
   0   2   0 6447.84  130.10   2
   0   2   0 6115.87  127.55   3
  -1  -2   0 907.687  18.386   3
   1   2   0 888.441  17.263   1
   1   2   0 911.406  18.962   2
  -2  -2   0 32.2808  1.1834   3
   2   2   0 31.2515  1.1855   1
  -3  -2   0 2997.80   58.16   3
   3   2   0 2884.15   55.06   1
  -4  -2   0 503.229  10.689   3
   4   2   0 491.492  10.462   1
  -5  -2   0 100.957   2.994   3
   5   2   0 96.6213  3.1369   1
  -6  -2   0 109.196   3.429   3
   6   2   0 106.165   3.524   1
  -7  -2   0 100.289   3.330   4
  -7  -2   0 95.4242  3.3969   3
   7   2   0 93.3708  3.4919   1
  -8  -2   0 48.0806  2.4933   3
   8   2   0 48.5606  2.5244   1
  -9  -2   0 60.9179  3.0949   3
   9   2   0 58.0941  2.9662   1
 -10  -2   0 46.8777  2.9483   3
  10   2   0 49.9685  2.9213   1
  10  -3   0 16.5381  1.7053   1
  10  -3   0 16.3718  2.8020   2
 -10   3   0 14.5861  2.1559   3
   9  -3   0 2.85913 1.60826   2
   9  -3   0 5.49360 1.02966   1
  -9   3   0 3.96276 1.22733   3
   8  -3   0 56.3123  2.5843   1
   8  -3   0 47.5713  3.8364   2
  -8   3   0 47.7733  3.1185   3
   7  -3   0 26.9418  1.6582   1
   7  -3   0 26.9210  2.8171   2
  -7   3   0 27.3928  2.1728   3
   6  -3   0 51.2086  2.2049   1
  -6   3   0 53.3541  3.5069   2
  -6   3   0 52.5920  2.8506   3
   5  -3   0 142.116   3.937   1
  -5   3   0 147.014   5.847   2
  -5   3   0 140.707   4.862   3
   4  -3   0 118.331   3.294   1
  -4   3   0 116.850   4.100   3
  -4   3   0 120.539   4.962   2
   3  -3   0 506.886  10.419   1
  -3   3   0 500.031  11.815   3
  -3   3   0 520.225  13.088   2
   2  -3   0 134.802   3.272   1
  -2   3   0 134.578   4.697   2
  -2   3   0 130.877   4.063   3
  -1   3   0 1909.13   40.36   2
  -1   3   0 1927.96   38.90   3
  -1   3   0 1903.44   35.99   1
   0   3   0 0.02552 0.29009   2
   0   3   0 0.08631 0.14237   1
   0   3   0 -0.1933  0.1580   3
  -1  -3   0 1775.46   36.42   3
   1   3   0 1817.80   34.16   1
   1   3   0 1830.12   37.36   2
  -2  -3   0 121.771   3.337   3
   2   3   0 124.280   3.231   1
  -3  -3   0 483.372  10.509   3
   3   3   0 487.065  10.177   1
  -4  -3   0 112.926   3.144   3
   4   3   0 103.658   3.181   1
  -5  -3   0 140.258   3.900   3
   5   3   0 135.950   4.061   1
  -6  -3   0 45.7429  2.0138   3
   6   3   0 49.4207  2.2616   1
  -7  -3   0 29.1809  1.8457   4
  -7  -3   0 27.6060  1.6663   3
   7   3   0 25.3432  1.7403   1
  -8  -3   0 49.0510  2.4803   4
  -8  -3   0 49.8690  2.4927   3
   8   3   0 45.6805  2.5040   1
  -9  -3   0 4.03636 0.94352   3
   9   3   0 4.29946 1.05728   1
 -10  -3   0 16.9652  1.8467   3
  10   3   0 16.6661  1.8865   1
   9  -4   0 51.4952  4.4275   2
   9  -4   0 52.3235  2.6999   1
  -9   4   0 51.8442  3.6057   3
   8  -4   0 2.45177 0.77128   1
   8  -4   0 1.47819 1.37826   2
  -8   4   0 2.34212 1.01534   3
   7  -4   0 66.2942  4.5680   2
   7  -4   0 67.9224  2.8084   1
  -7   4   0 66.5166  3.6527   3
   6  -4   0 49.5073  2.2473   1
   6  -4   0 45.4340  3.5632   2
  -6   4   0 50.3325  2.9886   3
  -6   4   0 49.7985  3.6315   2
   5  -4   0 351.430   7.998   1
  -5   4   0 341.288  10.880   2
  -5   4   0 358.856   9.654   3
   4  -4   0 50.5404  1.9519   1
  -4   4   0 47.0978  2.5954   3
  -4   4   0 53.5729  3.3149   2
   3  -4   0 123.883   3.431   1
  -3   4   0 127.303   4.479   3
  -3   4   0 128.119   5.165   2
   2  -4   0 8.88444 0.70412   1
  -2   4   0 9.74670 1.36163   2
  -2   4   0 8.40185 1.02118   3
  -1   4   0 189.215   4.443   1
  -1   4   0 186.035   5.327   3
  -1   4   0 185.887   5.908   2
   0   4   0 957.471  20.389   3
   0   4   0 950.524  21.163   2
   0   4   0 961.933  18.714   1
  -1  -4   0 182.938   5.053   3
  -1  -4   0 197.050   5.254   2
   1   4   0 185.368   4.573   1
  -2  -4   0 9.71182 0.75636   2
  -2  -4   0 9.53381 0.82348   3
   2   4   0 9.31192 0.79793   1
  -3  -4   0 114.992   3.373   3
   3   4   0 114.523   3.401   1
  -4  -4   0 42.8094  1.7995   3
   4   4   0 45.0315  1.9857   1
  -5  -4   0 343.099   8.159   3
   5   4   0 345.896   8.254   1
  -6  -4   0 50.7299  2.1578   3
   6   4   0 44.6896  2.2963   1
  -7  -4   0 63.7059  2.6781   3
   7   4   0 64.4208  2.9409   1
  -8  -4   0 3.22045 0.79646   3
  -8  -4   0 1.07447 0.72965   4
   8   4   0 1.99481 0.75594   1
  -9  -4   0 50.8466  2.7649   3
   9   4   0 51.3938  2.9573   1
   9  -5   0 17.6412  3.0569   2
  -9   5   0 13.4202  2.1527   3
   8  -5   0 43.8234  4.1818   2
  -8   5   0 51.1426  3.5111   3
   7  -5   0 57.0974  4.4057   2
   7  -5   0 44.9766  2.3754   1
  -7   5   0 55.0694  3.4705   3
   6  -5   0 57.8638  2.5341   1
   6  -5   0 59.6309  4.3660   2
  -6   5   0 61.6892  3.4955   3
   5  -5   0 14.0260  1.1835   1
   5  -5   0 14.2399  2.2685   2
  -5   5   0 14.0240  1.6796   3
  -5   5   0 10.3042  1.9159   2
   4  -5   0 91.4782  2.9839   1
  -4   5   0 86.9096  4.6591   2
  -4   5   0 94.4747  4.0406   3
   3  -5   0 261.094   6.159   1
  -3   5   0 263.437   8.652   2
  -3   5   0 256.295   7.538   3
   2  -5   0 66.3177  2.3307   1
  -2   5   0 70.5146  3.0921   3
  -2   5   0 67.2047  2.2772   1
  -2   5   0 62.7512  3.4901   2
  -1   5   0 306.404   8.186   3
  -1   5   0 310.613   8.932   2
  -1   5   0 307.861   6.945   1
   0  -5   0 -0.2754  0.3371   3
   0  -5   0 -0.2960  0.4780   2
   0   5   0 0.13912 0.27891   1
   0   5   0 0.10123 0.31088   3
  -1  -5   0 316.968   8.204   2
  -1  -5   0 316.114   8.021   3
   1   5   0 314.346   7.269   1
  -2  -5   0 62.0578  2.5100   3
   2   5   0 61.1628  2.3389   1
  -3  -5   0 265.351   6.602   3
   3   5   0 240.993   6.288   1
  -4  -5   0 89.8488  3.0721   3
   4   5   0 88.4568  3.1895   1
  -5  -5   0 13.1465  1.0986   3
   5   5   0 13.0248  1.2414   1
  -6  -5   0 56.8227  2.4393   3
   6   5   0 55.6138  2.6862   1
  -7  -5   0 57.1042  2.6085   3
   7   5   0 60.1030  2.9453   1
  -8  -5   0 47.9747  2.5545   3
  -8  -5   0 55.8105  3.1231   4
   8   5   0 48.3768  2.7630   1
  -9  -5   0 13.7592  1.5912   3
   9   5   0 11.5173  1.5964   1
   8  -6   0 21.6771  3.3703   2
  -8   6   0 20.9322  2.5280   3
   7  -6   0 1.87301 1.40099   2
  -7   6   0 3.66086 1.33355   3
   6  -6   0 67.9427  4.8990   2
  -6   6   0 65.7876  3.8871   3
   5  -6   0 69.4836  4.6795   2
   5  -6   0 55.5672  2.5602   1
  -5   6   0 76.6421  3.9278   3
   4  -6   0 1.75853 0.58672   1
   4  -6   0 1.69470 1.15909   2
  -4   6   0 0.78280 0.58030   3
   3  -6   0 35.3319  1.7868   1
   3  -6   0 36.6509  3.1201   2
  -3   6   0 37.7648  2.5008   3
   2  -6   0 189.625   7.190   2
   2  -6   0 187.678   4.995   1
  -2   6   0 187.943   6.162   3
  -2   6   0 189.997   4.921   1
   1  -6   0 52.1928  3.2177   2
  -1   6   0 51.9639  2.7361   3
  -1   6   0 47.5920  2.0465   1
   0  -6   0 5.89308 0.99336   3
   0  -6   0 6.18266 1.21492   2
   0   6   0 5.70766 0.77046   1
  -1  -6   0 52.8382  2.5581   3
   1   6   0 49.7348  2.2146   1
  -2  -6   0 180.445   5.442   3
   2   6   0 185.298   5.114   1
  -3  -6   0 31.7114  1.8219   3
   3   6   0 33.4495  1.8592   1
  -4  -6   0 0.80085 0.48285   3
   4   6   0 1.41217 0.59002   1
  -5  -6   0 68.7735  2.8250   3
   5   6   0 71.6885  3.0796   1
  -6  -6   0 62.1313  2.7042   3
   6   6   0 62.7884  3.0177   1
  -7  -6   0 4.17510 0.88364   3
   7   6   0 2.16975 0.79223   1
  -8  -6   0 22.1366  2.2161   4
  -8  -6   0 25.1188  1.8644   3
   8   6   0 23.2213  2.0574   1
   6  -7   0 6.54459 2.19127   2
  -6   7   0 5.87291 1.50666   3
   5  -7   0 6.28183 1.92221   2
  -5   7   0 8.87543 1.65568   3
   4  -7   0 37.6498  3.6056   2
  -4   7   0 46.9142  3.0803   3
   3  -7   0 186.618   7.793   2
  -3   7   0 182.006   6.529   3
   2  -7   0 5.93851 0.86428   1
   2  -7   0 11.8153  1.9812   2
  -2   7   0 8.48308 1.38639   3
   1  -7   0 10.9116  1.7561   2
  -1   7   0 9.34248 0.99206   1
  -1   7   0 6.64851 1.14856   3
   0  -7   0 0.11685 0.49161   3
   0   7   0 0.36647 0.44216   1
  -1  -7   0 10.3756  1.3209   3
   1   7   0 9.02611 1.05272   1
  -2  -7   0 7.65025 1.08314   3
   2   7   0 8.88418 1.11233   1
  -3  -7   0 176.391   5.472   3
   3   7   0 173.884   5.322   1
  -4  -7   0 43.2622  2.3176   3
   4   7   0 41.9982  2.4007   1
  -5  -7   0 7.54753 1.05287   3
   5   7   0 7.57925 1.21616   1
  -6  -7   0 6.65534 1.04971   3
   6   7   0 6.13661 1.19858   1
   5  -8   0 25.0844  3.4539   2
  -5   8   0 28.4498  2.6696   3
   4  -8   0 37.9979  3.8247   2
  -4   8   0 33.3283  2.7996   3
   3  -8   0 18.1977  2.6892   2
  -3   8   0 17.8396  2.0848   3
   2  -8   0 44.5590  3.7008   2
  -2   8   0 60.1391  3.3912   3
   1  -8   0 21.0582  2.0194   3
   0  -8   0 14.9933  1.7323   3
  -1  -8   0 23.1190  1.9463   3
  -2  -8   0 63.6426  3.1792   3
  -3  -8   0 17.5312  1.6544   3
   3   8   0 19.3179  1.7363   1
  -4  -8   0 38.7523  2.3396   3
   4   8   0 33.7794  2.3000   1
  -5  -8   0 31.0209  2.0620   3
   5   8   0 25.3118  2.1603   1
   1  -9   0 9.12458 1.61631   3
   0  -9   0 -0.6102  0.6628   3
  -1  -9   0 9.64434 1.49460   3
  -1  -9   1 8.50677 1.36856   3
   0  -9   1 3.70783 1.11135   3
   1  -9   1 0.82905 0.88811   3
   5   8  -1 6.83443 1.26800   1
  -5  -8   1 6.09355 1.06444   3
   4   8  -1 12.6572  1.5484   1
  -4  -8   1 14.2032  1.4652   3
   3   8  -1 13.4254  1.5308   1
  -3  -8   1 9.66204 1.27307   3
   2   8  -1 49.6134  2.6761   1
  -2  -8   1 52.6068  2.7771   3
   1   8  -1 22.2109  1.7220   1
  -1  -8   1 17.0911  1.6802   3
   0  -8   1 19.4610  1.8474   3
   1  -8   1 32.1473  2.3960   3
  -2   8  -1 1.90093 0.87268   3
   2  -8   1 1.43032 1.20292   2
  -3   8  -1 6.56510 1.41647   3
   3  -8   1 7.04516 2.01482   2
  -4   8  -1 34.9410  2.8204   3
   4  -8   1 37.5352  3.8505   2
   5  -8   1 37.7378  4.1297   2
   6   7  -1 2.28188 0.94081   1
  -6  -7   1 2.23752 0.73197   3
   5   7  -1 25.6049  1.9930   1
  -5  -7   1 28.3157  1.8018   3
   4   7  -1 2.48349 0.78973   1
  -4  -7   1 3.90527 0.81741   3
   3   7  -1 2.97755 0.81002   1
  -3  -7   1 3.91755 0.84749   3
   2   7  -1 195.817   5.712   1
  -2  -7   1 190.104   5.818   3
   1   7  -1 54.5701  2.5280   1
  -1  -7   1 55.0662  2.7708   3
   0   7  -1 59.3526  2.6120   1
   0  -7   1 61.8700  3.0328   3
  -1   7  -1 54.5198  2.8978   3
  -1   7  -1 56.1384  2.4381   1
   1  -7   1 52.8254  3.6282   2
  -2   7  -1 88.6853  4.8222   2
  -2   7  -1 86.4783  3.9812   3
   2  -7   1 84.0306  3.1776   1
   2  -7   1 90.7202  5.0193   2
  -3   7  -1 180.328   7.425   2
  -3   7  -1 177.914   6.186   3
   3  -7   1 136.094   4.678   1
   3  -7   1 181.576   7.646   2
  -4   7  -1 6.76872 1.36819   3
   4  -7   1 5.95356 1.95270   2
  -5   7  -1 57.0558  3.6033   3
   5  -7   1 55.5845  4.6188   2
  -6   7  -1 5.16213 1.44235   3
   6  -7   1 4.56214 1.92126   2
   8   6  -1 15.0288  1.7743   1
  -8  -6   1 13.1023  1.8056   4
  -8  -6   1 12.7425  1.4670   3
   7   6  -1 0.39398 0.63199   1
  -7  -6   1 1.61381 0.66652   3
  -7  -6   1 1.68393 0.85338   4
   6   6  -1 26.0942  1.9619   1
  -6  -6   1 25.7246  1.7051   3
   5   6  -1 21.6249  1.7043   1
  -5  -6   1 21.3037  1.4571   3
   4   6  -1 16.8934  1.4442   1
  -4  -6   1 19.4676  1.3727   3
   3   6  -1 43.7621  2.1973   1
  -3  -6   1 43.3756  2.1550   3
   2   6  -1 170.365   4.906   1
  -2  -6   1 164.968   4.969   3
   1   6  -1 284.132   7.048   1
  -1  -6   1 293.803   8.213   2
  -1  -6   1 278.713   7.499   3
   0   6  -1 137.424   5.186   2
   0   6  -1 135.077   4.010   1
   0  -6   1 127.259   4.457   3
  -1   6  -1 253.324   7.312   3
  -1   6  -1 248.233   8.195   2
  -1   6  -1 261.801   6.377   1
  -2   6  -1 323.467   7.626   1
  -2   6  -1 328.343   8.974   3
  -2   6  -1 322.749  10.156   2
  -3   6  -1 78.7755  4.4835   2
  -3   6  -1 78.7708  3.7118   3
   3  -6   1 83.0335  2.9767   1
  -4   6  -1 11.3955  1.5696   3
  -4   6  -1 12.2409  2.0620   2
   4  -6   1 15.0544  1.2817   1
  -5   6  -1 23.5998  2.8580   2
  -5   6  -1 28.9835  2.3968   3
   5  -6   1 27.7723  1.7659   1
  -6   6  -1 51.5745  4.0946   2
  -6   6  -1 45.1030  3.1390   3
   6  -6   1 35.5015  2.1506   1
   6  -6   1 49.6974  4.3087   2
  -7   6  -1 0.75033 0.80186   3
   7  -6   1 -0.1488  1.2464   2
  -8   6  -1 2.59543 1.21334   3
   8  -6   1 2.92265 1.69767   2
   9   5  -1 70.1094  3.5971   1
  -9  -5   1 75.0006  3.4229   3
  -9  -5   1 70.2096  3.6393   4
   8   5  -1 95.5395  4.0906   1
  -8  -5   1 101.809   4.360   4
  -8  -5   1 95.2502  3.7561   3
   7   5  -1 0.86514 0.57862   1
  -7  -5   1 0.16651 0.57317   4
  -7  -5   1 0.40121 0.46063   3
   6   5  -1 46.7417  2.4898   1
  -6  -5   1 54.7415  2.3440   3
   5   5  -1 146.166   4.648   1
  -5  -5   1 148.295   4.356   3
   4   5  -1 132.861   4.158   1
  -4  -5   1 130.076   3.899   3
   3   5  -1 300.518   7.345   1
  -3  -5   1 303.835   7.398   3
   2   5  -1 544.041  11.077   1
  -2  -5   1 427.524  11.410   2
  -2  -5   1 541.809  11.532   3
   1   5  -1 1349.12   28.90   2
   1   5  -1 1332.14   26.16   1
  -1  -5   1 1319.53   27.83   3
   0   5  -1 55.2259  2.8430   2
   0   5  -1 51.3553  2.0587   1
   0   5  -1 54.8538  2.3934   3
   0  -5   1 50.8373  2.4002   3
  -1   5  -1 79.4228  2.5992   1
  -1   5  -1 74.9763  3.0784   3
  -1   5  -1 76.8419  3.7136   2
  -2   5  -1 93.1115  3.6520   3
  -2   5  -1 91.2911  4.3326   2
  -2   5  -1 89.9857  2.8756   1
  -3   5  -1 18.2507  1.6126   3
  -3   5  -1 15.3775  1.9650   2
   3  -5   1 19.0194  1.2502   1
  -4   5  -1 35.7219  2.3890   3
  -4   5  -1 36.1328  2.9911   2
   4  -5   1 38.9006  1.8806   1
  -5   5  -1 16.6978  2.3093   2
  -5   5  -1 16.6958  1.7991   3
   5  -5   1 14.6920  1.2736   1
  -6   5  -1 123.102   6.293   2
  -6   5  -1 126.824   5.253   3
   6  -5   1 129.699   4.145   1
  -7   5  -1 56.3414  3.5023   3
  -7   5  -1 53.6360  4.3115   2
   7  -5   1 58.7146  2.7561   1
   7  -5   1 53.0868  4.3671   2
  -8   5  -1 57.5787  3.7239   3
   8  -5   1 55.6121  4.7445   2
   8  -5   1 56.1884  2.8203   1
   9   4  -1 5.87230 1.18515   1
  -9  -4   1 6.69579 1.20032   3
   8   4  -1 9.11404 1.27915   1
  -8  -4   1 11.4412  1.2681   3
  -8  -4   1 11.9291  1.4204   4
   7   4  -1 7.16689 1.10761   1
  -7  -4   1 9.30178 1.02993   3
  -7  -4   1 8.51981 1.21200   4
   6   4  -1 280.782   7.327   1
  -6  -4   1 279.729   7.044   3
   5   4  -1 93.1625  3.3082   1
  -5  -4   1 98.0523  3.0961   3
   4   4  -1 4.62481 0.72670   1
  -4  -4   1 3.54330 0.54091   3
   3   4  -1 38.9442  1.7898   1
  -3  -4   1 40.4692  1.6786   3
   2   4  -1 340.041   7.641   1
  -2  -4   1 339.589   7.900   3
   1   4  -1 896.116  19.403   2
   1   4  -1 876.943  17.551   1
  -1  -4   1 876.098  18.659   3
   0   4  -1 226.903   5.321   1
   0   4  -1 230.276   6.515   2
   0   4  -1 219.388   5.827   3
  -1   4  -1 579.439  11.785   1
  -1   4  -1 579.740  14.119   2
  -1   4  -1 568.819  12.989   3
  -2   4  -1 231.979   7.383   2
  -2   4  -1 239.949   6.517   3
   2  -4   1 240.557   5.620   1
  -3   4  -1 134.441   5.395   2
  -3   4  -1 136.586   4.548   3
   3  -4   1 132.908   3.677   1
  -4   4  -1 36.2078  2.2372   3
  -4   4  -1 44.6176  3.0834   2
   4  -4   1 42.1504  1.8384   1
  -5   4  -1 380.543  11.560   2
  -5   4  -1 366.842   9.929   3
   5  -4   1 359.591   8.502   1
  -6   4  -1 33.2960  3.0191   2
  -6   4  -1 35.3981  2.4371   3
   6  -4   1 35.7189  1.8980   1
  -7   4  -1 12.2542  1.7016   3
  -7   4  -1 10.5270  2.0810   2
   7  -4   1 12.5056  1.2909   1
  -8   4  -1 39.1817  2.9620   3
   8  -4   1 37.6108  3.7275   2
   8  -4   1 40.7108  2.2848   1
  -9   4  -1 18.9168  2.3952   3
   9  -4   1 21.2423  3.1568   2
   9  -4   1 21.9868  1.8582   1
  10   3  -1 4.94949 1.16030   1
 -10  -3   1 5.31746 1.25861   3
   9   3  -1 0.77074 0.65443   1
  -9  -3   1 1.90455 0.76438   3
   8   3  -1 20.2866  1.7157   1
  -8  -3   1 19.0030  1.5889   3
  -8  -3   1 21.5419  1.5890   4
   7   3  -1 16.8656  1.4545   1
  -7  -3   1 17.4447  1.4358   4
  -7  -3   1 19.6114  1.3890   3
   6   3  -1 96.0783  3.3733   1
  -6  -3   1 99.3869  3.2081   3
  -6  -3   1 95.3375  3.5044   4
   5   3  -1 85.2939  2.9756   1
  -5  -3   1 87.4199  2.7542   3
   4   3  -1 873.094  17.538   1
  -4  -3   1 867.587  18.040   3
   3   3  -1 143.028   3.809   1
  -3  -3   1 143.768   3.664   3
   2   3  -1 181.970   4.407   1
  -2  -3   1 178.284   4.385   3
   1   3  -1 1032.62   21.29   2
   1   3  -1 961.933  19.352   1
  -1  -3   1 998.004  20.515   3
   0   3  -1 7.84229 0.88307   2
   0   3  -1 7.34301 0.67573   3
  -1   3  -1 609.377  14.439   2
  -1   3  -1 627.251  12.331   1
  -1   3  -1 615.569  13.450   3
  -2   3  -1 1403.24   28.98   3
  -2   3  -1 1426.10   30.72   2
   2  -3   1 1372.96   26.77   1
  -3   3  -1 182.819   5.237   3
   3  -3   1 177.325   4.412   1
  -4   3  -1 463.867  12.556   2
  -4   3  -1 463.497  11.181   3
   4  -3   1 461.689   9.917   1
  -5   3  -1 11.8742  1.3063   3
  -5   3  -1 13.2285  1.8469   2
   5  -3   1 10.6784  0.9448   1
  -6   3  -1 69.3578  4.1097   2
  -6   3  -1 63.2684  3.1540   3
   6  -3   1 69.1519  2.6669   1
  -7   3  -1 13.0734  1.6170   3
  -7   3  -1 14.5873  2.1784   2
   7  -3   1 13.0074  1.2350   1
  -8   3  -1 18.8822  2.5751   2
  -8   3  -1 20.0837  2.1069   3
   8  -3   1 19.0527  1.5303   1
   8  -3   1 14.0512  2.3808   2
  -9   3  -1 0.36386 0.68681   3
   9  -3   1 0.82847 1.29150   2
   9  -3   1 0.73801 0.67217   1
 -10   3  -1 17.5082  2.3155   3
  10  -3   1 17.7576  2.9706   2
  10  -3   1 16.2371  1.7171   1
  10   2  -1 5.00673 1.17737   1
 -10  -2   1 5.67550 1.27972   3
   9   2  -1 26.1331  1.9363   1
  -9  -2   1 23.5950  1.9242   3
   8   2  -1 1.59145 0.66476   1
  -8  -2   1 0.47302 0.53307   3
   7   2  -1 59.5288  2.6001   1
  -7  -2   1 53.2756  2.2634   4
  -7  -2   1 53.0549  2.4140   3
   6   2  -1 76.4754  2.8518   1
  -6  -2   1 77.6253  2.7781   4
  -6  -2   1 77.2006  2.7173   3
   5   2  -1 110.312   3.363   1
  -5  -2   1 110.236   3.214   3
  -5  -2   1 114.876   3.477   4
   4   2  -1 559.948  11.852   1
   4   2  -1 584.535  11.956   2
  -4  -2   1 577.937  12.156   3
   3   2  -1 120.623   3.181   1
  -3  -2   1 122.163   3.055   3
   2   2  -1 991.058  19.248   1
  -2  -2   1 1006.46   20.14   3
   1   2  -1 4340.96   86.08   2
   1   2  -1 4193.55   78.18   1
  -1  -2   1 4097.99   83.89   3
   0   2  -1 4395.93   82.56   1
   0   2  -1 4454.87   89.15   2
   0   2  -1 4301.51   87.96   3
  -1   2  -1 231.489   4.924   1
  -1   2  -1 232.677   5.467   3
  -1   2  -1 226.057   6.038   2
  -2   2  -1 793.081  17.845   2
  -2   2  -1 795.183  16.687   3
   2  -2   1 784.004  15.352   1
  -3   2  -1 244.100   6.209   3
  -3   2  -1 252.930   7.265   2
   3  -2   1 245.329   5.528   1
  -4   2  -1 1368.96   28.39   3
  -4   2  -1 1395.16   30.36   2
   4  -2   1 1325.51   26.24   1
  -5   2  -1 189.437   6.634   2
  -5   2  -1 194.071   5.613   3
   5  -2   1 191.482   4.914   1
  -6   2  -1 28.1349  1.8982   3
  -6   2  -1 24.3129  2.3487   2
   6  -2   1 25.9618  1.5203   1
  -7   2  -1 116.403   5.420   2
  -7   2  -1 118.051   4.548   3
   7  -2   1 115.287   3.794   1
  -8   2  -1 30.7912  2.3341   3
  -8   2  -1 23.3524  2.6421   2
   8  -2   1 27.3390  2.9294   2
   8  -2   1 28.6317  1.8585   1
  -9   2  -1 3.63386 1.14132   3
   9  -2   1 3.53285 1.52089   2
   9  -2   1 2.85649 0.83086   1
 -10   2  -1 7.43834 1.66877   3
  10  -2   1 12.0514  1.5199   1
  10  -2   1 7.76662 2.11270   2
  10   1  -1 7.79766 1.31635   1
 -10  -1   1 10.7335  1.6662   3
   9   1  -1 17.9204  1.6451   1
  -9  -1   1 19.7043  1.8095   3
   8   1  -1 5.85944 0.99917   1
  -8  -1   1 8.24090 1.15914   3
   7   1  -1 14.8380  1.4952   2
   7   1  -1 13.6203  1.2056   1
  -7  -1   1 12.6291  1.2256   3
  -7  -1   1 14.1193  0.9590   4
   6   1  -1 107.334   3.400   1
   6   1  -1 100.465   3.665   2
  -6  -1   1 110.834   3.043   4
  -6  -1   1 100.939   3.412   3
   5   1  -1 187.234   5.206   2
   5   1  -1 188.792   4.790   1
  -5  -1   1 190.570   4.624   4
  -5  -1   1 184.580   4.833   3
   4   1  -1 120.332   3.480   2
   4   1  -1 116.930   3.235   1
  -4  -1   1 121.583   3.217   3
  -4  -1   1 126.041   3.247   4
   3   1  -1 2769.44   55.69   2
   3   1  -1 2668.62   51.03   1
  -3  -1   1 2708.00   53.88   3
  -3  -1   1 2766.53   53.18   4
   2   1  -1 885.056  18.340   2
   2   1  -1 895.991  16.978   1
  -2  -1   1 875.711  17.745   3
   1   1  -1 9401.13  178.65   1
  -1  -1   1 9657.37  189.66   3
   0   1  -1 2169.41   44.15   3
   0   1  -1 2149.52   41.60   1
   0   1  -1 2226.96   44.81   2
  -1   1  -1 888.587  17.748   3
  -1   1  -1 894.963  18.588   2
   1  -1   1 851.731  16.589   1
   1  -1   1 842.773  17.420   4
  -2   1  -1 2541.25   51.30   3
  -2   1  -1 2644.48   53.37   2
   2  -1   1 2575.19   48.27   1
  -3   1  -1 802.123  17.010   3
  -3   1  -1 835.036  18.380   2
   3  -1   1 818.911  15.971   1
  -4   1  -1 306.176   7.258   3
  -4   1  -1 300.746   8.301   2
   4  -1   1 305.278   6.769   1
  -5   1  -1 193.251   6.265   2
  -5   1  -1 190.346   5.227   3
   5  -1   1 184.277   4.749   1
  -6   1  -1 242.877   6.612   3
  -6   1  -1 236.555   7.684   2
   6  -1   1 242.331   6.045   1
  -7   1  -1 192.773   5.831   3
  -7   1  -1 188.467   6.857   2
   7  -1   1 187.077   5.291   1
  -8   1  -1 35.4033  2.3348   3
   8  -1   1 35.9459  2.0654   1
   8  -1   1 37.2504  3.0992   2
  -9   1  -1 1.96578 0.88869   3
   9  -1   1 -0.0742  1.0302   2
   9  -1   1 1.45854 0.73037   1
 -10   1  -1 19.6591  2.2102   3
  10  -1   1 14.3420  1.6072   1
  10   0  -1 23.5004  1.9624   1
 -10   0   1 23.8045  2.2486   3
   9   0  -1 5.75359 1.04585   1
  -9   0   1 6.88154 1.27580   3
   8   0  -1 10.0357  1.1798   1
   8   0  -1 5.51280 1.29692   2
  -8   0   1 6.81495 1.15526   3
   7   0  -1 1.30521 0.77391   2
   7   0  -1 0.70877 0.45454   1
  -7   0   1 0.23839 0.44708   3
   6   0  -1 9.67209 0.92588   1
   6   0  -1 7.30426 1.18131   2
  -6   0   1 9.57956 0.55558   4
  -6   0   1 8.84568 0.98887   3
   5   0  -1 1958.13   41.53   2
   5   0  -1 1930.43   37.36   1
  -5   0   1 1976.66   38.12   4
  -5   0   1 1974.55   39.75   3
   4   0  -1 1706.25   35.80   2
   4   0  -1 1697.14   32.23   1
  -4   0   1 1691.13   34.22   3
  -4   0   1 1685.65   33.01   4
   3   0  -1 77.0872  2.1259   1
   3   0  -1 80.2860  2.6936   2
   2   0  -1 423.058   9.376   2
   2   0  -1 421.193   8.257   1
  -2   0   1 412.564   8.778   3
  -2   0   1 423.962   8.425   4
   1   0  -1 2048.73   38.59   1
   1   0  -1 2069.21   41.97   2
  -1   0   1 1997.36   40.45   4
   0   0  -1 79.2225  1.9925   3
  -1   0  -1 328.714   6.744   3
   1   0   1 329.989   6.471   1
  -2   0  -1 2326.33   47.34   2
  -2   0  -1 2233.24   46.22   3
   2   0   1 2358.41   43.11   1
  -3   0  -1 1204.48   25.23   2
  -3   0  -1 1185.89   23.88   3
   3   0   1 1162.68   22.65   1
  -4   0  -1 425.474  10.234   2
  -4   0  -1 409.282   9.173   3
   4   0   1 417.268   8.815   1
  -5   0  -1 38.4172  1.7099   3
  -5   0  -1 36.9472  2.2068   2
   5   0   1 37.7289  1.6845   1
  -6   0  -1 2.76166 0.86403   2
  -6   0  -1 4.36298 0.72835   3
   6   0   1 4.07661 0.67292   1
  -7   0  -1 393.856  11.017   2
  -7   0  -1 405.859  10.026   3
   7   0   1 399.393   9.446   1
   7   0   1 418.393  11.341   2
  -8   0  -1 6.41459 1.10193   3
   8   0   1 7.36824 1.08562   1
   8   0   1 6.42471 1.41365   2
  -9   0  -1 7.68382 1.32060   3
   9   0   1 6.21633 1.10008   1
 -10   0  -1 2.89741 1.01410   3
  10   0   1 3.39669 1.09967   1
  10  -1  -1 8.67673 1.33585   1
 -10   1   1 7.30412 1.54642   3
   9  -1  -1 16.3996  2.2680   2
   9  -1  -1 14.0188  1.4459   1
  -9   1   1 19.3342  2.0314   3
   8  -1  -1 7.58241 1.56108   2
   8  -1  -1 7.21784 1.00225   1
  -8   1   1 8.55039 1.37464   3
   7  -1  -1 13.8114  1.8559   2
   7  -1  -1 14.0377  1.1823   1
  -7   1   1 14.6143  1.4217   3
   6  -1  -1 100.271   3.133   1
   6  -1  -1 99.9624  4.3901   2
  -6   1   1 98.0848  3.6337   3
   5  -1  -1 180.874   6.039   2
   5  -1  -1 189.724   4.644   1
  -5   1   1 185.797   5.246   3
   4  -1  -1 124.584   4.384   2
   4  -1  -1 121.764   3.149   1
  -4   1   1 121.585   3.661   3
   3  -1  -1 2723.77   56.69   2
   3  -1  -1 2744.74   51.02   1
   2  -1  -1 906.542  20.027   2
   2  -1  -1 950.891  17.648   1
  -2   1   1 928.097  19.138   3
   1  -1  -1 9834.47  187.17   1
   1  -1  -1 9999.99  201.09   2
  -1   1   1 9680.55  196.33   3
   0  -1  -1 2266.58   45.49   2
   0   1   1 2149.00   44.56   3
  -1  -1  -1 822.459  16.877   3
   1   1   1 845.257  15.912   1
  -2  -1  -1 2553.50   52.14   2
  -2  -1  -1 2521.99   50.17   3
   2   1   1 2513.25   47.21   1
  -3  -1  -1 791.289  16.685   2
  -3  -1  -1 772.470  15.956   3
   3   1   1 780.626  15.333   1
  -4  -1  -1 304.377   7.371   2
  -4  -1  -1 297.723   6.832   3
   4   1   1 304.112   6.769   1
  -5  -1  -1 182.913   4.769   3
  -5  -1  -1 185.410   5.291   2
   5   1   1 185.346   4.788   1
  -6  -1  -1 235.780   6.202   3
  -6  -1  -1 235.093   6.736   2
  -6  -1  -1 245.565   5.792   4
   6   1   1 241.181   6.918   2
   6   1   1 246.884   6.202   1
  -7  -1  -1 190.159   5.499   3
   7   1   1 189.491   5.389   1
   7   1   1 184.335   6.089   2
  -8  -1  -1 39.1263  2.2780   3
   8   1   1 38.5153  2.2319   1
  -9  -1  -1 2.20200 0.80995   3
   9   1   1 0.99885 0.67133   1
 -10  -1  -1 17.6589  1.9765   3
  10   1   1 19.4452  1.8353   1
  10  -2  -1 5.73679 1.86694   2
  10  -2  -1 8.18555 1.29277   1
 -10   2   1 4.28454 1.34543   3
   9  -2  -1 25.8477  1.8548   1
   9  -2  -1 25.5037  2.8639   2
  -9   2   1 22.3475  2.2026   3
   8  -2  -1 0.75586 0.52574   1
   8  -2  -1 1.15152 0.93996   2
  -8   2   1 0.91986 0.67829   3
   7  -2  -1 52.2373  3.5350   2
   7  -2  -1 52.3541  2.2879   1
  -7   2   1 57.3213  2.9773   3
   6  -2  -1 76.6773  2.6447   1
   6  -2  -1 78.5442  4.0826   2
  -6   2   1 76.8216  3.3255   3
   5  -2  -1 125.814   5.082   2
   5  -2  -1 121.842   3.398   1
  -5   2   1 122.882   4.212   3
   4  -2  -1 575.528  11.490   1
   4  -2  -1 555.648  14.162   2
  -4   2   1 567.053  14.028   2
  -4   2   1 568.997  12.994   3
   3  -2  -1 127.235   4.518   2
   3  -2  -1 130.270   3.064   1
  -3   2   1 127.258   4.428   2
  -3   2   1 122.835   3.846   3
   2  -2  -1 1044.72   19.67   1
   2  -2  -1 1033.26   22.76   2
  -2   2   1 1026.48   21.63   3
  -2   2   1 1044.66   22.67   2
   1  -2  -1 4349.82   88.13   2
  -1   2   1 4369.74   81.47   1
  -1   2   1 4248.84   86.34   3
   0  -2  -1 4484.13   88.02   2
   0   2   1 4281.45   81.46   1
   0   2   1 4209.56   87.72   3
  -1  -2  -1 229.713   4.974   2
  -1  -2  -1 219.017   5.147   3
   1   2   1 214.088   4.650   1
  -2  -2  -1 730.458  14.897   3
   2   2   1 712.817  14.062   1
  -3  -2  -1 231.288   5.295   3
   3   2   1 223.858   5.163   1
  -4  -2  -1 1312.85   26.22   3
   4   2   1 1269.62   25.07   1
  -5  -2  -1 183.257   4.795   3
   5   2   1 194.707   4.872   2
   5   2   1 184.751   4.904   1
  -6  -2  -1 28.7246  1.5294   3
   6   2   1 26.1306  1.5742   1
  -7  -2  -1 121.076   3.785   4
  -7  -2  -1 106.201   3.766   3
   7   2   1 120.511   4.010   1
  -8  -2  -1 28.3538  1.9071   3
   8   2   1 26.8550  1.8570   1
  -9  -2  -1 3.18116 0.88026   3
   9   2   1 4.25112 0.99616   1
 -10  -2  -1 9.80265 1.55151   3
  10   2   1 8.65575 1.44267   1
  10  -3  -1 4.29376 1.80480   2
  10  -3  -1 5.05939 1.15772   1
 -10   3   1 4.41184 1.36419   3
   9  -3  -1 1.06078 0.66988   1
   9  -3  -1 1.21133 1.24680   2
  -9   3   1 1.84660 0.93685   3
   8  -3  -1 20.3218  2.6264   2
   8  -3  -1 16.0098  1.3974   1
  -8   3   1 20.1866  2.0382   3
   7  -3  -1 15.2400  2.2282   2
   7  -3  -1 16.3777  1.2991   1
  -7   3   1 17.5100  1.7816   3
   6  -3  -1 100.974   3.171   1
   6  -3  -1 103.605   5.068   2
  -6   3   1 96.0665  4.0914   3
   5  -3  -1 90.7331  2.8119   1
   5  -3  -1 85.5760  4.4022   2
  -5   3   1 94.2417  3.7773   3
   4  -3  -1 899.821  21.656   2
   4  -3  -1 894.231  17.761   1
  -4   3   1 923.981  20.128   3
  -4   3   1 911.902  21.480   2
   3  -3  -1 153.566   3.731   1
   3  -3  -1 160.252   5.618   2
  -3   3   1 164.966   5.576   2
  -3   3   1 159.703   4.864   3
   2  -3  -1 188.555   5.940   2
   2  -3  -1 192.515   4.224   1
  -2   3   1 191.819   5.874   2
  -2   3   1 187.580   5.322   3
   1  -3  -1 1015.12   22.31   2
  -1   3   1 1009.50   19.30   1
  -1   3   1 1010.82   21.38   3
   0  -3  -1 8.27964 0.86000   2
   0   3   1 7.75473 0.74478   3
   0   3   1 6.98613 0.53057   1
  -1  -3  -1 613.832  12.957   2
  -1  -3  -1 577.752  12.892   3
   1   3   1 599.123  11.856   1
  -2  -3  -1 1279.18   26.21   3
   2   3   1 1290.12   24.63   1
  -3  -3  -1 164.496   4.284   3
   3   3   1 168.546   4.172   1
  -4  -3  -1 433.952   9.465   3
   4   3   1 412.127   9.191   1
  -5  -3  -1 11.8625  0.9131   3
   5   3   1 12.1153  1.0388   1
  -6  -3  -1 63.9178  2.4244   3
   6   3   1 63.9314  2.6483   1
  -7  -3  -1 12.1743  1.1258   3
   7   3   1 10.8558  1.2239   1
  -8  -3  -1 15.0824  1.3615   3
   8   3   1 15.8662  1.4986   1
  -9  -3  -1 0.66033 0.61013   3
   9   3   1 0.82846 0.63493   1
 -10  -3  -1 17.6399  1.9251   3
  10   3   1 12.9576  1.6865   1
   9  -4  -1 7.74157 2.12202   2
   9  -4  -1 5.08814 1.02816   1
  -9   4   1 7.18947 1.62832   3
   8  -4  -1 8.89278 2.11839   2
   8  -4  -1 9.62014 1.16095   1
  -8   4   1 11.1668  1.7476   3
   7  -4  -1 7.85437 0.98874   1
   7  -4  -1 10.5847  2.1443   2
  -7   4   1 8.08881 1.47443   3
   6  -4  -1 288.159  10.012   2
   6  -4  -1 285.460   6.912   1
  -6   4   1 282.176   8.584   3
   5  -4  -1 99.0367  3.0819   1
   5  -4  -1 102.857   5.118   2
  -5   4   1 100.649   4.216   3
   4  -4  -1 4.99456 0.61467   1
   4  -4  -1 4.56381 1.29925   2
  -4   4   1 5.03722 0.99761   3
   3  -4  -1 41.8297  1.5852   1
   3  -4  -1 40.8272  2.7943   2
  -3   4   1 42.0993  2.3215   3
   2  -4  -1 355.551   9.845   2
   2  -4  -1 348.622   7.371   1
  -2   4   1 343.967   8.890   3
   1  -4  -1 895.656  20.645   2
  -1   4   1 919.376  17.657   1
  -1   4   1 909.537  19.756   3
   0  -4  -1 227.934   6.295   2
   0   4   1 220.141   6.004   3
   0   4   1 224.441   5.104   1
  -1  -4  -1 580.075  12.753   2
  -1  -4  -1 555.541  12.694   3
   1   4   1 563.731  11.530   1
  -2  -4  -1 233.482   5.228   2
  -2  -4  -1 222.112   5.795   3
   2   4   1 224.347   5.366   1
  -3  -4  -1 126.867   3.739   3
   3   4   1 129.794   3.642   1
  -4  -4  -1 41.1953  1.7865   3
   4   4   1 37.7973  1.8267   1
  -5  -4  -1 348.586   8.301   3
   5   4   1 338.969   8.176   1
  -6  -4  -1 33.0044  1.7539   3
   6   4   1 32.0465  1.8708   1
  -7  -4  -1 12.2702  1.1356   3
   7   4   1 9.85254 1.20808   1
  -8  -4  -1 42.4977  2.5319   4
  -8  -4  -1 35.5938  2.1248   3
   8   4   1 39.2492  2.3739   1
  -9  -4  -1 22.3073  1.8572   3
   9   4   1 21.8846  1.9308   1
   9  -5  -1 71.3848  5.4188   2
  -9   5   1 74.7556  4.5417   3
   8  -5  -1 88.3848  5.7963   2
  -8   5   1 91.3154  4.8490   3
   7  -5  -1 0.27065 1.09642   2
  -7   5   1 0.63862 0.84296   3
   6  -5  -1 47.9338  3.8881   2
   6  -5  -1 43.8891  2.1181   1
  -6   5   1 50.5223  3.1612   3
   5  -5  -1 149.040   4.202   1
   5  -5  -1 156.221   6.841   2
  -5   5   1 150.223   5.756   3
   4  -5  -1 140.502   3.841   1
   4  -5  -1 141.758   6.175   2
  -4   5   1 135.311   5.177   3
   3  -5  -1 316.681   9.992   2
   3  -5  -1 330.920   7.233   1
  -3   5   1 317.128   8.949   3
   2  -5  -1 595.654  12.038   1
   2  -5  -1 588.812  15.184   2
  -2   5   1 577.599  14.054   3
   1  -5  -1 1359.10   30.20   2
  -1   5   1 1352.33   28.94   3
  -1   5   1 1353.64   26.11   1
   0  -5  -1 53.1575  2.5014   3
   0  -5  -1 54.6005  2.6896   2
   0   5   1 49.2718  1.8782   1
   0   5   1 48.9940  2.3872   3
  -1  -5  -1 83.8899  3.1921   3
  -1  -5  -1 79.0237  3.0344   2
   1   5   1 81.7142  2.6296   1
  -2  -5  -1 85.1112  3.1273   3
   2   5   1 84.6801  2.8137   1
  -3  -5  -1 19.6751  1.3271   3
   3   5   1 17.3100  1.2415   1
  -4  -5  -1 31.2080  1.6978   3
   4   5   1 31.1393  1.7366   1
  -5  -5  -1 16.0159  1.2159   3
   5   5   1 16.0710  1.3423   1
  -6  -5  -1 126.712   4.099   3
   6   5   1 123.883   4.200   1
  -7  -5  -1 54.1663  2.5540   3
   7   5   1 54.3719  2.8213   1
  -8  -5  -1 58.8094  2.8826   3
   8   5   1 61.8146  3.1962   1
   8  -6  -1 10.7679  2.6089   2
  -8   6   1 13.7813  2.1666   3
   7  -6  -1 1.28760 1.33828   2
  -7   6   1 1.36387 1.02874   3
   6  -6  -1 20.0997  2.9249   2
  -6   6   1 29.1823  2.5887   3
   5  -6  -1 22.7085  2.8264   2
  -5   6   1 21.0270  2.0783   3
   4  -6  -1 22.8537  2.6774   2
  -4   6   1 21.3232  2.0038   3
   3  -6  -1 40.3675  3.2090   2
   3  -6  -1 43.4065  1.8678   1
  -3   6   1 42.0420  2.6706   3
   2  -6  -1 174.613   4.570   1
   2  -6  -1 180.376   6.792   2
  -2   6   1 174.036   5.936   3
   1  -6  -1 284.535   8.828   2
  -1   6   1 280.896   8.161   3
  -1   6   1 295.400   6.740   1
   0  -6  -1 135.118   4.764   3
   0  -6  -1 137.969   5.030   2
   0   6   1 136.029   3.888   1
  -1  -6  -1 256.058   7.265   3
   1   6   1 259.173   6.345   1
  -2  -6  -1 325.102   8.469   3
   2   6   1 321.678   7.720   1
  -3  -6  -1 78.8836  3.1464   3
   3   6   1 80.7687  3.0203   1
  -4  -6  -1 14.6383  1.2956   3
   4   6   1 13.7866  1.2772   1
  -5  -6  -1 23.4593  1.6116   3
   5   6   1 26.7920  1.8288   1
  -6  -6  -1 48.0004  2.4067   3
   6   6   1 49.1613  2.5871   1
  -7  -6  -1 0.30475 0.51508   3
   7   6   1 0.46795 0.57339   1
  -8  -6  -1 4.71857 1.03272   3
   8   6   1 3.19460 1.06060   1
   6  -7  -1 2.42370 1.60109   2
  -6   7   1 3.54837 1.32631   3
   5  -7  -1 33.3534  3.5721   2
  -5   7   1 27.0774  2.5686   3
   4  -7  -1 3.88877 1.54368   2
  -4   7   1 2.45827 0.95071   3
   3  -7  -1 2.43055 1.44613   2
  -3   7   1 2.40936 0.97857   3
   2  -7  -1 204.509   7.641   2
  -2   7   1 187.470   6.639   3
   1  -7  -1 58.1401  3.5535   2
  -1   7   1 52.7599  2.9812   3
   0  -7  -1 57.7740  3.0538   3
  -1  -7  -1 53.5395  2.8507   3
   1   7   1 52.1937  2.3446   1
  -2  -7  -1 82.6218  3.5445   3
   2   7   1 89.2587  3.2665   1
  -3  -7  -1 173.494   5.553   3
   3   7   1 178.892   5.311   1
  -4  -7  -1 7.64710 1.11622   3
   4   7   1 8.92768 1.16783   1
  -5  -7  -1 51.4250  2.5934   3
   5   7   1 53.7187  2.7657   1
  -6  -7  -1 2.89424 0.83904   3
   6   7   1 3.39197 0.99519   1
   5  -8  -1 5.22876 2.05719   2
  -5   8   1 4.46863 1.41107   3
   4  -8  -1 11.5520  2.4045   2
  -4   8   1 13.6572  1.9594   3
   3  -8  -1 11.8783  2.3102   2
  -3   8   1 11.8007  1.7886   3
   2  -8  -1 34.8555  3.2096   2
  -2   8   1 45.8099  3.0022   3
   1  -8  -1 18.7516  2.0025   3
   0  -8  -1 18.9447  1.9262   3
  -1  -8  -1 32.5731  2.3707   3
  -2  -8  -1 1.61913 0.77726   3
  -3  -8  -1 5.41223 1.07582   3
  -4  -8  -1 31.2793  2.1842   3
   1  -9  -1 6.62239 1.49937   3
   0  -9  -1 1.59159 0.91684   3
  -1  -9  -1 0.47415 0.68410   3
   5   8  -2 55.7111  3.1395   1
  -5  -8   2 53.5082  2.6516   3
  -5  -8   2 50.7678  3.4218   4
   4   8  -2 36.4362  2.4597   1
  -4  -8   2 35.7486  2.8609   4
  -4  -8   2 31.6345  1.9881   3
   3   8  -2 1.88087 0.82001   1
  -3  -8   2 1.47258 0.67280   3
   2   8  -2 4.54382 1.02696   1
  -2  -8   2 1.83823 0.77966   3
  -1  -8   2 37.3242  2.2731   3
   0   8  -2 -0.1500  0.5330   1
   0  -8   2 -0.5029  0.5293   3
  -1   8  -2 41.8117  2.3122   1
   1  -8   2 41.5174  2.6445   3
  -2   8  -2 28.8670  2.2425   3
   2  -8   2 26.5893  3.0781   2
   2  -8   2 19.5485  1.6449   1
  -3   8  -2 2.59694 1.01256   3
   3  -8   2 2.67035 1.65471   2
  -4   8  -2 73.1513  4.0564   3
   4  -8   2 80.8468  5.6114   2
   6   7  -2 16.0375  1.7522   1
  -6  -7   2 17.2630  1.4938   3
  -6  -7   2 16.0200  1.9838   4
   5   7  -2 50.8066  2.8213   1
  -5  -7   2 50.9754  2.4149   3
  -5  -7   2 44.9991  3.0334   4
   4   7  -2 3.30007 0.88475   1
  -4  -7   2 1.66362 0.63709   3
   3   7  -2 18.4968  1.6183   1
  -3  -7   2 17.5296  1.4124   3
   2   7  -2 35.3804  2.1054   1
  -2  -7   2 36.3727  2.0711   3
   1   7  -2 188.997   5.552   1
  -1  -7   2 190.165   5.799   3
   0   7  -2 7.11596 0.99648   1
   0  -7   2 8.17640 1.17779   3
  -1   7  -2 9.55824 1.10002   1
  -1   7  -2 8.83904 1.22685   3
  -1   7  -2 6.34056 1.49497   2
  -2   7  -2 24.3192  2.0155   3
  -2   7  -2 23.4686  2.6163   2
  -2   7  -2 27.6668  1.7324   1
   2  -7   2 21.9610  1.6372   1
  -3   7  -2 4.56343 1.54337   2
  -3   7  -2 3.24035 0.99391   3
   3  -7   2 3.37209 0.79943   1
  -4   7  -2 17.2454  1.9199   3
  -4   7  -2 16.3716  2.5039   2
   4  -7   2 11.5092  1.3059   1
  -5   7  -2 10.6468  2.3081   2
  -5   7  -2 11.8502  1.8107   3
   5  -7   2 10.4522  1.3266   1
  -6   7  -2 9.16947 1.73970   3
  -6   7  -2 6.75208 2.02791   2
   6  -7   2 10.8208  2.6624   2
   8   6  -2 3.96002 1.14862   1
  -8  -6   2 4.43724 1.20172   4
  -8  -6   2 3.99450 0.97123   3
   7   6  -2 2.05436 0.86363   1
  -7  -6   2 4.71195 1.17433   4
  -7  -6   2 2.95019 0.77046   3
   6   6  -2 31.2828  2.1534   1
  -6  -6   2 32.0632  1.8341   3
  -6  -6   2 30.1761  2.3614   4
   5   6  -2 6.40846 1.04384   1
  -5  -6   2 6.46794 0.85976   3
   4   6  -2 47.6390  2.4703   1
  -4  -6   2 50.5419  2.1994   3
   3   6  -2 69.3818  2.9399   1
  -3  -6   2 74.0336  2.7754   3
   2   6  -2 357.159   8.684   1
  -2  -6   2 365.364   8.895   3
   1   6  -2 43.9794  2.1458   1
   1   6  -2 43.0901  2.6259   2
  -1  -6   2 46.2788  2.2652   3
   0   6  -2 22.1024  1.4784   1
   0   6  -2 23.9648  2.1459   2
   0  -6   2 24.3955  1.6697   3
  -1   6  -2 44.1335  3.0346   2
  -1   6  -2 42.6704  2.3616   3
  -1   6  -2 44.8009  2.0713   1
  -2   6  -2 382.718   9.976   3
  -2   6  -2 383.866   8.839   1
  -2   6  -2 372.882  11.472   2
  -3   6  -2 101.462   5.295   2
  -3   6  -2 110.040   4.424   3
   3  -6   2 111.511   3.670   1
  -4   6  -2 6.10253 1.21621   3
  -4   6  -2 6.36797 1.71316   2
   4  -6   2 5.78492 0.91588   1
  -5   6  -2 0.44241 1.04974   2
  -5   6  -2 1.19789 0.76191   3
   5  -6   2 0.48748 0.52606   1
  -6   6  -2 0.61806 1.15226   2
  -6   6  -2 2.16713 1.06535   3
   6  -6   2 2.24265 0.85979   1
  -7   6  -2 7.26874 2.16772   2
  -7   6  -2 8.38083 1.72165   3
   7  -6   2 6.76663 1.19726   1
   9   5  -2 19.3008  2.0143   1
  -9  -5   2 23.9153  2.0748   4
  -9  -5   2 22.3694  1.9173   3
   8   5  -2 9.36666 1.41808   1
  -8  -5   2 9.71746 1.21482   3
  -8  -5   2 10.5957  1.5130   4
   7   5  -2 79.1100  3.5233   1
  -7  -5   2 83.8521  3.8217   4
  -7  -5   2 84.6682  3.2017   3
   6   5  -2 151.936   4.988   1
  -6  -5   2 152.404   5.365   4
  -6  -5   2 149.688   4.446   3
   5   5  -2 93.9328  3.5777   1
  -5  -5   2 95.6630  3.1409   3
   4   5  -2 92.0952  3.4137   1
  -4  -5   2 93.2206  3.0118   3
   3   5  -2 66.6032  2.6664   1
  -3  -5   2 65.2789  2.4122   3
   2   5  -2 249.800   6.317   1
  -2  -5   2 249.232   6.308   3
   1   5  -2 62.2277  2.8739   2
   1   5  -2 56.0113  2.3365   1
  -1  -5   2 60.0364  2.3776   3
   0   5  -2 255.227   7.476   2
   0   5  -2 240.221   6.410   3
   0   5  -2 239.361   6.036   1
   0  -5   2 244.643   6.477   3
  -1   5  -2 259.546   6.269   1
  -1   5  -2 259.164   8.038   2
  -1   5  -2 253.269   6.898   3
  -2   5  -2 215.491   7.379   2
  -2   5  -2 204.465   5.297   1
  -2   5  -2 204.828   6.116   3
  -3   5  -2 15.3343  2.0024   2
  -3   5  -2 17.0823  1.5522   3
   3  -5   2 19.1034  1.3193   1
  -4   5  -2 118.147   4.674   3
  -4   5  -2 120.350   5.688   2
   4  -5   2 121.765   3.861   1
  -5   5  -2 57.1703  4.0190   2
  -5   5  -2 58.0525  3.1747   3
   5  -5   2 55.3332  2.5184   1
  -6   5  -2 73.9688  4.8162   2
  -6   5  -2 70.5239  3.7335   3
   6  -5   2 69.9795  2.9953   1
  -7   5  -2 20.5733  2.1967   3
  -7   5  -2 19.6188  2.8543   2
   7  -5   2 18.4945  1.6219   1
  -8   5  -2 130.114   7.136   2
  -8   5  -2 132.872   5.828   3
   8  -5   2 132.384   4.774   1
   8  -5   2 120.372   7.172   2
   9   4  -2 52.7291  3.0266   1
  -9  -4   2 55.6325  2.9610   3
   8   4  -2 21.2504  1.8004   1
  -8  -4   2 21.2720  1.7519   4
  -8  -4   2 22.1369  1.6725   3
   7   4  -2 47.1283  2.4395   1
  -7  -4   2 44.6642  2.5123   4
  -7  -4   2 51.5981  2.3008   3
   6   4  -2 129.480   4.308   1
  -6  -4   2 142.453   4.755   4
  -6  -4   2 129.832   3.969   3
   5   4  -2 108.698   3.703   1
  -5  -4   2 110.482   4.039   4
  -5  -4   2 113.445   3.357   3
   4   4  -2 107.493   3.517   1
  -4  -4   2 107.976   3.139   3
   3   4  -2 117.648   3.592   1
  -3  -4   2 118.579   3.307   3
   2   4  -2 290.349   6.865   1
  -2  -4   2 300.019   6.913   3
   1   4  -2 454.575  10.760   2
   1   4  -2 442.723   9.630   1
  -1  -4   2 443.491   9.991   3
   0   4  -2 667.370  15.689   2
   0   4  -2 669.900  14.557   3
   0   4  -2 676.127  13.731   1
  -1   4  -2 79.5437  2.8426   3
  -1   4  -2 78.1227  2.5206   1
  -1   4  -2 77.6091  3.4891   2
  -2   4  -2 535.362  11.169   1
  -2   4  -2 539.685  13.788   2
  -2   4  -2 523.777  12.294   3
   2  -4   2 533.320  11.262   1
  -3   4  -2 9.78294 1.53817   2
  -3   4  -2 6.99961 0.99836   3
   3  -4   2 10.0031  0.8872   1
  -4   4  -2 39.1143  2.9402   2
  -4   4  -2 42.1508  2.3443   3
   4  -4   2 38.3763  1.8644   1
  -5   4  -2 566.721  15.798   2
  -5   4  -2 572.862  13.959   3
   5  -4   2 569.154  12.420   1
  -6   4  -2 123.797   4.860   3
  -6   4  -2 119.898   5.978   2
   6  -4   2 122.253   3.991   1
  -7   4  -2 16.8639  2.4989   2
  -7   4  -2 18.2598  1.9960   3
   7  -4   2 15.2037  1.4287   1
  -8   4  -2 3.06961 1.10562   3
  -8   4  -2 5.56081 1.85080   2
   8  -4   2 6.53142 1.15267   1
  -9   4  -2 27.7015  2.6771   3
   9  -4   2 28.1037  2.1852   1
   9  -4   2 25.0215  3.4774   2
  10   3  -2 2.80571 0.99965   1
 -10  -3   2 3.51979 1.10308   3
   9   3  -2 22.5891  1.9229   1
  -9  -3   2 25.9715  1.9956   3
   8   3  -2 2.60998 0.79936   1
  -8  -3   2 2.14922 0.75575   3
  -8  -3   2 2.52906 0.75975   4
   7   3  -2 10.1112  1.1957   1
  -7  -3   2 12.8188  1.2105   4
  -7  -3   2 11.9197  1.1434   3
   6   3  -2 24.4535  1.5945   1
  -6  -3   2 24.6763  1.3992   3
  -6  -3   2 22.0636  1.5488   4
   5   3  -2 188.099   5.131   1
  -5  -3   2 191.436   4.867   3
  -5  -3   2 192.717   5.443   4
   4   3  -2 205.903   5.231   1
  -4  -3   2 215.727   5.722   4
  -4  -3   2 199.659   4.958   3
   3   3  -2 145.194   3.880   1
  -3  -3   2 145.531   3.642   3
   2   3  -2 397.747   8.673   1
  -2  -3   2 414.701   8.748   3
   1   3  -2 479.454  10.754   2
   1   3  -2 468.738   9.818   1
  -1  -3   2 469.567  10.126   3
   0   3  -2 842.840  17.495   3
   0   3  -2 845.490  18.576   2
   0   3  -2 834.133  16.577   1
  -1   3  -2 104.734   3.116   3
  -1   3  -2 100.959   3.702   2
  -1   3  -2 103.713   2.843   1
  -2   3  -2 158.488   4.451   3
  -2   3  -2 160.620   5.329   2
   2  -3   2 152.971   3.949   1
  -3   3  -2 1159.93   24.22   3
  -3   3  -2 1138.14   26.06   2
   3  -3   2 1147.75   22.45   1
   3  -3   2 1137.53   22.65   4
  -4   3  -2 624.098  14.246   3
  -4   3  -2 621.216  15.989   2
   4  -3   2 622.158  12.975   1
  -5   3  -2 227.273   7.977   2
  -5   3  -2 231.327   6.713   3
   5  -3   2 232.869   5.892   1
  -6   3  -2 81.5326  4.5123   2
  -6   3  -2 72.2540  3.3850   3
   6  -3   2 75.9650  2.8820   1
  -7   3  -2 117.999   4.764   3
  -7   3  -2 112.876   5.779   2
   7  -3   2 120.593   4.055   1
  -8   3  -2 9.44463 1.53402   3
  -8   3  -2 8.16790 1.93759   2
   8  -3   2 9.92233 1.24056   1
  -9   3  -2 4.32237 1.26223   3
  -9   3  -2 5.21910 1.77768   2
   9  -3   2 3.80706 0.99912   1
   9  -3   2 3.85492 1.73982   2
 -10   3  -2 36.2054  3.1178   3
  10  -3   2 39.3697  4.0277   2
  10  -3   2 36.4382  2.4932   1
  10   2  -2 1.17466 0.82590   1
 -10  -2   2 1.52165 0.85491   3
   9   2  -2 2.67534 0.87354   1
  -9  -2   2 3.17384 0.87963   3
   8   2  -2 6.30573 1.04095   1
  -8  -2   2 5.05797 0.77003   4
  -8  -2   2 5.24008 0.99009   3
   7   2  -2 383.593   9.158   1
  -7  -2   2 386.165   9.336   3
  -7  -2   2 371.207   8.877   4
   6   2  -2 30.4964  1.7002   1
   6   2  -2 33.1076  1.3938   2
  -6  -2   2 34.5199  1.7030   3
  -6  -2   2 33.1175  1.6745   4
   5   2  -2 126.264   3.141   2
   5   2  -2 123.400   3.682   1
  -5  -2   2 125.346   3.716   4
  -5  -2   2 126.359   3.544   3
   4   2  -2 79.7133  2.5787   1
   4   2  -2 79.8982  1.9942   2
  -4  -2   2 83.8186  2.7358   4
  -4  -2   2 83.0831  2.4048   3
   3   2  -2 823.558  16.582   1
  -3  -2   2 834.687  17.108   3
  -3  -2   2 866.114  17.455   4
   2   2  -2 472.797   9.710   2
   2   2  -2 448.311   9.410   1
  -2  -2   2 460.710   9.518   3
  -2  -2   2 456.718   9.961   4
   1   2  -2 676.745  14.239   2
   1   2  -2 665.163  13.220   1
  -1  -2   2 674.338  13.670   3
   0   2  -2 1524.17   28.25   1
   0   2  -2 1488.37   31.00   2
   0   2  -2 1491.19   29.86   3
   0  -2   2 1453.98   29.40   4
  -1   2  -2 458.705   9.319   1
  -1   2  -2 480.828   9.948   3
  -1   2  -2 455.192  10.750   2
   1  -2   2 450.996   9.517   4
  -2   2  -2 2563.99   54.46   2
  -2   2  -2 2638.13   52.33   3
   2  -2   2 2601.68   49.13   1
   2  -2   2 2676.44   51.00   4
  -3   2  -2 265.945   7.636   2
  -3   2  -2 275.243   6.590   3
   3  -2   2 263.752   6.024   1
  -4   2  -2 65.2268  3.2478   2
  -4   2  -2 58.4133  2.4148   3
   4  -2   2 59.3399  2.1424   1
  -5   2  -2 77.8588  3.8839   2
  -5   2  -2 75.3335  3.0004   3
   5  -2   2 79.6500  2.7211   1
  -6   2  -2 99.6870  4.7661   2
  -6   2  -2 100.129   3.776   3
   6  -2   2 100.123   3.367   1
  -7   2  -2 119.117   4.568   3
  -7   2  -2 124.980   5.772   2
   7  -2   2 127.121   4.088   1
  -8   2  -2 47.0813  3.5813   2
  -8   2  -2 47.4349  2.8742   3
   8  -2   2 46.1436  2.4257   1
  -9   2  -2 7.77506 1.47840   3
  -9   2  -2 5.43162 1.74635   2
   9  -2   2 8.90477 1.26065   1
   9  -2   2 7.84166 2.02081   2
 -10   2  -2 -0.1559  0.7712   3
  10  -2   2 0.84116 1.37467   2
  10  -2   2 -0.1283  0.6503   1
  10   1  -2 42.9652  2.6510   1
 -10  -1   2 44.8765  2.9917   3
   9   1  -2 6.46971 1.09847   1
  -9  -1   2 8.06012 1.30708   3
   8   1  -2 6.20965 1.01675   1
  -8  -1   2 5.35779 1.03958   3
   7   1  -2 81.7005  3.0591   1
   7   1  -2 83.4992  3.3735   2
  -7  -1   2 81.8835  3.2092   3
  -7  -1   2 82.0141  2.5118   4
   6   1  -2 95.5913  3.4214   2
   6   1  -2 94.2193  3.1571   1
  -6  -1   2 97.0134  2.8103   4
  -6  -1   2 95.9189  3.2778   3
   5   1  -2 58.3366  2.1595   1
   5   1  -2 58.0159  2.2892   2
  -5  -1   2 57.9572  1.9339   4
  -5  -1   2 56.8366  2.1469   3
   4   1  -2 1153.81   23.14   1
   4   1  -2 1236.43   25.15   2
  -4  -1   2 1205.19   23.92   4
  -4  -1   2 1194.34   24.34   3
   3   1  -2 333.368   7.396   2
   3   1  -2 332.430   7.065   1
  -3  -1   2 330.544   7.219   3
  -3  -1   2 341.464   7.297   4
   2   1  -2 1119.45   21.26   1
   2   1  -2 1089.09   22.78   2
  -2  -1   2 1119.96   22.26   3
  -2  -1   2 1135.80   22.17   4
   1   1  -2 78.4744  1.8660   2
   1   1  -2 76.1524  1.9352   1
  -1  -1   2 77.4896  1.7288   3
  -1  -1   2 78.1837  2.0254   4
   0   1  -2 3617.89   67.00   1
   0   1  -2 3560.13   73.60   2
   0  -1   2 3527.68   70.08   4
  -1   1  -2 4196.87   82.50   3
  -1   1  -2 4149.78   83.71   2
   1  -1   2 4095.16   81.04   4
   1  -1   2 4048.69   77.72   1
  -2   1  -2 294.593   6.505   3
   2  -1   2 299.653   6.260   1
  -3   1  -2 118.449   3.960   2
  -3   1  -2 117.413   3.167   3
   3  -1   2 111.690   3.025   1
  -4   1  -2 96.2540  2.9951   3
  -4   1  -2 97.4007  3.8419   2
   4  -1   2 97.9870  2.8657   1
  -5   1  -2 17.5041  1.7210   2
  -5   1  -2 17.7490  1.2573   3
   5  -1   2 17.4383  1.1559   1
  -6   1  -2 19.8311  1.9776   2
  -6   1  -2 20.3244  1.4526   3
   6  -1   2 21.5295  1.3803   1
  -7   1  -2 146.258   4.881   3
  -7   1  -2 144.159   5.894   2
   7  -1   2 139.350   4.412   1
  -8   1  -2 26.4133  1.9715   3
  -8   1  -2 23.2131  2.4070   2
   8  -1   2 25.7042  1.7804   1
  -9   1  -2 9.02963 1.47519   3
   9  -1   2 9.58609 2.07210   2
   9  -1   2 10.2350  1.3196   1
 -10   1  -2 6.56857 1.46149   3
  10  -1   2 11.7812  1.5581   1
  10   0  -2 7.24871 1.26424   1
 -10   0   2 10.1227  1.7068   3
   9   0  -2 13.9461  1.4575   1
  -9   0   2 15.1283  1.7864   3
   8   0  -2 2.12116 0.70487   1
   8   0  -2 2.85366 1.05878   2
  -8   0   2 3.23255 0.85838   3
   7   0  -2 257.174   6.535   1
   7   0  -2 259.654   7.788   2
  -7   0   2 253.226   7.157   3
   6   0  -2 163.885   4.418   1
   6   0  -2 158.146   5.367   2
  -6   0   2 167.186   4.896   3
  -6   0   2 159.891   3.677   4
   5   0  -2 10.5859  0.8550   1
   5   0  -2 7.87267 1.05399   2
  -5   0   2 11.2467  0.9928   3
  -5   0   2 10.3418  0.5686   4
   4   0  -2 273.737   7.191   2
   4   0  -2 274.383   6.120   1
  -4   0   2 280.892   5.863   4
  -4   0   2 289.383   6.708   3
   3   0  -2 467.719   9.434   1
   3   0  -2 473.839  10.757   2
  -3   0   2 457.245  10.091   3
  -3   0   2 488.754   9.502   4
   2   0  -2 67.7439  1.6994   1
   2   0  -2 67.4544  2.0979   2
  -2   0   2 67.9051  1.6092   4
   1   0  -2 574.450  11.033   1
   1   0  -2 579.457  12.059   2
  -1   0   2 567.415  11.337   4
   0   0  -2 3359.96   63.88   1
   0   0  -2 3383.32   69.34   2
   0   0  -2 3345.26   69.19   3
  -1   0  -2 1366.77   27.88   3
  -1   0  -2 1424.34   28.72   2
   1   0   2 1404.66   26.30   1
  -2   0  -2 309.981   6.591   3
  -2   0  -2 312.832   7.234   2
   2   0   2 311.404   6.449   1
  -3   0  -2 118.748   3.104   3
  -3   0  -2 125.217   3.816   2
   3   0   2 127.559   3.190   1
  -4   0  -2 4.03035 0.50579   3
  -4   0  -2 2.67279 0.67428   2
   4   0   2 2.20347 0.44583   1
  -5   0  -2 312.365   8.588   2
  -5   0  -2 306.210   7.412   3
   5   0   2 318.678   7.237   1
  -6   0  -2 53.9317  2.3369   3
  -6   0  -2 56.9162  3.0327   2
   6   0   2 60.4000  2.4089   1
  -7   0  -2 53.8792  3.2332   2
  -7   0  -2 53.7250  2.5396   3
   7   0   2 55.2827  2.4702   1
  -8   0  -2 58.2345  3.5462   2
  -8   0  -2 61.1610  2.9997   3
   8   0   2 63.4361  2.8794   1
  -9   0  -2 0.30191 0.56322   3
   9   0   2 1.16330 0.64758   1
 -10   0  -2 115.728   5.113   3
  10   0   2 119.870   4.695   1
  10  -1  -2 46.7476  2.6555   1
 -10   1   2 44.4902  3.2239   3
   9  -1  -2 5.95916 1.01169   1
   9  -1  -2 5.52662 1.52724   2
  -9   1   2 5.18662 1.25791   3
   8  -1  -2 4.73211 1.31331   2
   8  -1  -2 6.09355 0.93940   1
  -8   1   2 5.81436 1.19324   3
   7  -1  -2 75.6044  2.8627   1
   7  -1  -2 83.5035  4.1214   2
  -7   1   2 80.7338  3.4798   3
   6  -1  -2 93.1007  4.1688   2
   6  -1  -2 96.9324  3.0347   1
  -6   1   2 92.5697  3.5598   3
   5  -1  -2 57.9325  2.0023   1
   5  -1  -2 53.1542  2.8467   2
  -5   1   2 55.6831  2.4118   3
   4  -1  -2 1192.06   22.75   1
   4  -1  -2 1190.46   26.07   2
  -4   1   2 1171.11   24.75   3
   3  -1  -2 337.971   8.441   2
   3  -1  -2 333.015   6.771   1
  -3   1   2 323.891   7.736   3
   2  -1  -2 1143.03   24.61   2
   2  -1  -2 1176.30   21.82   1
  -2   1   2 1152.19   23.69   3
   1  -1  -2 82.7145  2.4824   2
   0  -1  -2 3562.87   72.18   2
   0   1   2 3490.22   71.35   3
  -1  -1  -2 3882.49   76.59   3
  -1  -1  -2 3813.70   78.14   2
   1   1   2 3753.73   71.60   1
  -2  -1  -2 288.530   6.328   2
  -2  -1  -2 284.762   6.187   3
   2   1   2 285.634   5.981   1
  -3  -1  -2 114.868   3.193   2
  -3  -1  -2 115.221   2.890   3
   3   1   2 105.759   2.897   1
  -4  -1  -2 98.6861  3.2037   2
  -4  -1  -2 97.9080  2.7603   3
   4   1   2 93.7987  2.8222   1
  -5  -1  -2 17.5784  1.0638   3
  -5  -1  -2 15.4242  1.3623   2
   5   1   2 18.3000  1.1823   1
  -6  -1  -2 21.1075  1.3307   3
  -6  -1  -2 19.6995  1.6741   2
   6   1   2 18.0891  1.3098   1
  -7  -1  -2 137.077   4.333   3
  -7  -1  -2 132.485   4.874   2
   7   1   2 132.841   4.269   1
  -8  -1  -2 28.3241  1.8969   3
   8   1   2 27.4240  1.8798   1
  -9  -1  -2 8.65146 1.30662   3
   9   1   2 7.63660 1.24266   1
 -10  -1  -2 9.49672 1.57607   3
  10   1   2 10.9518  1.5215   1
  10  -2  -2 1.08814 1.19712   2
  10  -2  -2 1.33050 0.84253   1
 -10   2   2 1.51680 1.05060   3
   9  -2  -2 2.81978 0.83446   1
   9  -2  -2 2.27638 1.24017   2
  -9   2   2 2.51690 0.95413   3
   8  -2  -2 5.94069 0.93573   1
   8  -2  -2 7.72905 1.69250   2
  -8   2   2 7.40624 1.37719   3
   7  -2  -2 375.950  11.424   2
   7  -2  -2 371.268   8.665   1
  -7   2   2 382.372  10.298   3
   6  -2  -2 33.7202  1.6061   1
   6  -2  -2 30.3029  2.4911   2
  -6   2   2 34.6892  2.1924   3
   5  -2  -2 119.566   4.898   2
   5  -2  -2 122.277   3.296   1
  -5   2   2 118.831   4.205   3
   4  -2  -2 87.3221  3.7637   2
   4  -2  -2 83.5915  2.3547   1
  -4   2   2 83.8945  3.1590   3
   3  -2  -2 918.108  16.952   1
   3  -2  -2 850.523  19.977   2
  -3   2   2 875.975  18.940   3
   2  -2  -2 473.029  11.414   2
   2  -2  -2 490.586   9.300   1
  -2   2   2 470.938  10.772   3
   1  -2  -2 695.583  15.393   2
  -1   2   2 694.880  14.871   3
  -1   2   2 699.564  13.303   1
   0  -2  -2 1498.56   30.39   2
   0   2   2 1436.14   29.69   3
   0   2   2 1463.56   27.55   1
  -1  -2  -2 463.050   9.492   2
  -1  -2  -2 431.845   9.698   3
   1   2   2 454.544   8.865   1
  -2  -2  -2 2547.87   50.73   2
  -2  -2  -2 2449.35   49.39   3
   2   2   2 2461.49   46.51   1
  -3  -2  -2 262.222   5.828   2
  -3  -2  -2 255.717   5.922   3
   3   2   2 254.838   5.743   1
  -4  -2  -2 57.5249  1.9518   3
  -4  -2  -2 54.7682  1.9302   2
   4   2   2 55.8404  2.0626   1
  -5  -2  -2 75.1204  2.5209   3
  -5  -2  -2 77.3208  2.6272   2
   5   2   2 71.3183  2.6265   1
  -6  -2  -2 97.6598  3.1906   3
   6   2   2 95.9189  3.3201   1
  -7  -2  -2 124.084   4.020   3
   7   2   2 115.468   4.021   1
  -8  -2  -2 48.6484  2.4991   3
   8   2   2 47.2376  2.5280   1
  -9  -2  -2 7.48828 1.23166   3
   9   2   2 8.93734 1.29322   1
 -10  -2  -2 0.14700 0.64707   3
  10   2   2 -0.0173  0.6061   1
  10  -3  -2 4.79590 1.13209   1
  10  -3  -2 3.12749 1.60904   2
 -10   3   2 5.49009 1.52655   3
   9  -3  -2 20.0032  2.7874   2
   9  -3  -2 20.8579  1.6747   1
  -9   3   2 21.5016  2.3451   3
   8  -3  -2 2.80825 1.26293   2
   8  -3  -2 2.06609 0.71366   1
  -8   3   2 3.54124 1.09281   3
   7  -3  -2 13.0118  2.0447   2
   7  -3  -2 11.5542  1.0999   1
  -7   3   2 11.3248  1.5776   3
   6  -3  -2 26.5551  1.4054   1
   6  -3  -2 23.1901  2.4114   2
  -6   3   2 23.3519  1.9357   3
   5  -3  -2 180.222   6.805   2
   5  -3  -2 192.423   4.636   1
  -5   3   2 190.953   6.030   3
   4  -3  -2 201.397   7.004   2
   4  -3  -2 219.189   4.884   1
  -4   3   2 215.759   6.277   3
   3  -3  -2 148.828   5.360   2
   3  -3  -2 155.741   3.567   1
  -3   3   2 154.980   4.817   3
   2  -3  -2 420.304  10.848   2
   2  -3  -2 440.791   8.510   1
  -2   3   2 424.336  10.204   3
   1  -3  -2 460.683  11.208   2
  -1   3   2 468.286  10.792   3
  -1   3   2 475.481   9.174   1
   0  -3  -2 834.742  18.097   2
   0   3   2 833.273  15.972   1
   0   3   2 829.740  17.760   3
  -1  -3  -2 106.899   2.820   2
  -1  -3  -2 98.5308  3.1046   3
   1   3   2 97.9026  2.5401   1
  -2  -3  -2 147.656   4.048   3
  -2  -3  -2 152.118   3.308   2
   2   3   2 151.091   3.676   1
  -3  -3  -2 1100.42   22.54   3
   3   3   2 1081.39   21.28   1
  -4  -3  -2 579.196  12.621   3
   4   3   2 585.572  12.195   1
  -5  -3  -2 223.452   5.720   3
   5   3   2 224.309   5.783   1
  -6  -3  -2 72.2861  2.7059   3
   6   3   2 73.4978  2.8923   1
  -7  -3  -2 112.693   3.799   3
   7   3   2 113.135   4.028   1
  -8  -3  -2 9.92615 1.18342   3
   8   3   2 6.28831 1.09084   1
  -9  -3  -2 5.20292 1.08180   3
   9   3   2 3.00015 0.95965   1
 -10  -3  -2 31.6432  2.3951   3
  10   3   2 30.8482  2.3798   1
   9  -4  -2 58.2331  4.6208   2
  -9   4   2 56.0891  3.7885   3
   8  -4  -2 22.4779  2.9011   2
  -8   4   2 23.7911  2.3433   3
   7  -4  -2 45.5084  3.6804   2
   7  -4  -2 45.0161  2.1094   1
  -7   4   2 44.7314  3.0358   3
   6  -4  -2 130.944   3.763   1
   6  -4  -2 122.616   6.019   2
  -6   4   2 133.406   5.226   3
   5  -4  -2 115.904   3.320   1
   5  -4  -2 119.222   5.519   2
  -5   4   2 116.420   4.659   3
   4  -4  -2 113.165   3.061   1
   4  -4  -2 110.625   5.060   2
  -4   4   2 117.260   4.450   3
   3  -4  -2 128.600   3.162   1
   3  -4  -2 123.922   5.058   2
  -3   4   2 120.666   4.432   3
   2  -4  -2 316.374   8.959   2
   2  -4  -2 310.384   6.549   1
  -2   4   2 313.310   8.312   3
   1  -4  -2 444.256  11.223   2
  -1   4   2 441.649  10.738   3
  -1   4   2 453.671   9.023   1
   0  -4  -2 656.148  14.822   2
   0   4   2 651.483  12.817   1
   0   4   2 637.293  14.481   3
  -1  -4  -2 74.1878  2.7835   3
  -1  -4  -2 73.1534  2.4776   2
   1   4   2 72.3297  2.1954   1
  -2  -4  -2 498.568  11.476   3
  -2  -4  -2 515.916  10.709   2
   2   4   2 505.212  10.500   1
  -3  -4  -2 10.1848  0.9319   3
   3   4   2 9.52698 0.85918   1
  -4  -4  -2 37.7169  1.7519   3
   4   4   2 37.3796  1.7753   1
  -5  -4  -2 525.179  12.072   3
   5   4   2 547.305  11.798   1
  -6  -4  -2 116.057   3.771   3
   6   4   2 119.162   4.017   1
  -7  -4  -2 15.7148  1.2888   3
   7   4   2 14.0151  1.4458   1
  -8  -4  -2 7.14128 1.05918   3
   8   4   2 5.59532 1.13820   1
  -9  -4  -2 28.9231  2.1256   3
   9   4   2 30.2479  2.3212   1
   9  -5  -2 22.6147  3.3711   2
  -9   5   2 23.5374  2.7096   3
   8  -5  -2 6.74433 2.12740   2
  -8   5   2 9.46359 1.79044   3
   7  -5  -2 76.1580  5.0862   2
  -7   5   2 80.0319  4.3202   3
   6  -5  -2 165.780   7.396   2
  -6   5   2 161.564   6.286   3
   5  -5  -2 92.1056  5.1178   2
  -5   5   2 99.8929  4.5178   3
   4  -5  -2 94.1277  2.8299   1
   4  -5  -2 98.8815  5.0153   2
  -4   5   2 89.9940  4.0808   3
   3  -5  -2 70.3462  3.9208   2
   3  -5  -2 69.1564  2.2187   1
  -3   5   2 68.4911  3.3362   3
   2  -5  -2 252.098   8.009   2
   2  -5  -2 255.847   5.673   1
  -2   5   2 248.378   7.328   3
   1  -5  -2 57.6719  3.0642   2
  -1   5   2 62.5680  1.9774   1
  -1   5   2 57.3514  2.8017   3
   0  -5  -2 239.177   6.758   3
   0  -5  -2 241.760   6.832   2
   0   5   2 230.494   6.659   3
   0   5   2 243.593   5.513   1
  -1  -5  -2 249.375   6.565   2
  -1  -5  -2 249.156   6.939   3
   1   5   2 263.291   5.965   1
  -2  -5  -2 192.279   5.607   3
   2   5   2 204.259   5.045   1
  -3  -5  -2 17.9711  1.3137   3
   3   5   2 17.6764  1.2228   1
  -4  -5  -2 105.290   3.562   3
   4   5   2 105.225   3.459   1
  -5  -5  -2 48.7972  2.2572   3
   5   5   2 51.3185  2.3303   1
  -6  -5  -2 70.3842  2.8354   3
   6   5   2 68.6659  2.9968   1
  -7  -5  -2 19.4463  1.5076   3
   7   5   2 20.0662  1.7034   1
  -8  -5  -2 126.160   4.494   3
   8   5   2 126.341   4.759   1
   8  -6  -2 3.38883 1.73470   2
  -8   6   2 5.48824 1.62418   3
   7  -6  -2 2.51541 1.55417   2
  -7   6   2 1.92683 1.08599   3
   6  -6  -2 29.6567  3.3354   2
  -6   6   2 34.6777  2.8338   3
   5  -6  -2 7.19225 1.82366   2
  -5   6   2 9.03433 1.56462   3
   4  -6  -2 52.3817  3.7470   2
  -4   6   2 47.8636  3.0755   3
   3  -6  -2 78.4901  4.3432   2
  -3   6   2 66.4266  3.5263   3
   2  -6  -2 361.610  10.776   2
  -2   6   2 360.048   9.967   3
   1  -6  -2 45.5020  2.8689   2
  -1   6   2 41.9055  2.5357   3
  -1   6   2 42.6941  1.7668   1
   0  -6  -2 20.9111  1.8279   2
   0  -6  -2 23.1157  1.7879   3
   0   6   2 25.9743  1.3576   1
  -1  -6  -2 46.1292  2.5048   3
   1   6   2 45.6361  1.9598   1
  -2  -6  -2 359.499   9.313   3
   2   6   2 360.261   8.301   1
  -3  -6  -2 103.625   3.835   3
   3   6   2 107.048   3.541   1
  -4  -6  -2 5.35043 0.91248   3
   4   6   2 5.72865 0.89315   1
  -5  -6  -2 0.86108 0.52383   3
   5   6   2 0.27950 0.48770   1
  -6  -6  -2 3.13706 0.79668   3
   6   6   2 2.30711 0.76994   1
  -7  -6  -2 8.74067 1.18056   3
   7   6   2 8.70287 1.31924   1
   6  -7  -2 24.4650  3.2568   2
  -6   7   2 15.6612  2.2223   3
   5  -7  -2 54.7952  4.3442   2
  -5   7   2 50.3476  3.4617   3
   4  -7  -2 3.43885 1.44321   2
  -4   7   2 3.04232 1.00498   3
   3  -7  -2 23.5526  2.7059   2
  -3   7   2 17.0351  1.9294   3
   2  -7  -2 36.5462  3.0259   2
  -2   7   2 34.7151  2.5339   3
   1  -7  -2 189.245   6.774   2
   1  -7  -2 187.725   6.429   3
  -1   7   2 180.647   6.308   3
   0  -7  -2 5.15855 1.11925   3
  -1  -7  -2 7.55957 1.25147   3
  -2  -7  -2 27.5695  1.9823   3
   2   7   2 22.8770  1.6219   1
  -3  -7  -2 3.96370 0.92137   3
   3   7   2 3.34132 0.75138   1
  -4  -7  -2 16.8046  1.5580   3
   4   7   2 17.8514  1.5256   1
  -5  -7  -2 13.3679  1.3505   3
   5   7   2 12.9964  1.4603   1
  -6  -7  -2 6.60753 1.11152   3
   6   7   2 6.33893 1.20485   1
   5  -8  -2 58.9884  4.7499   2
  -5   8   2 54.4391  3.8314   3
   4  -8  -2 46.4185  4.0011   2
  -4   8   2 36.0069  2.9897   3
   3  -8  -2 2.54783 1.42685   2
  -3   8   2 2.61369 1.07711   3
   2  -8  -2 1.29044 1.11865   2
  -2   8   2 3.30277 1.10268   3
   1  -8  -2 55.8929  3.3547   3
   0  -8  -2 0.38436 0.68401   3
  -1  -8  -2 43.6362  2.7874   3
  -2  -8  -2 28.2689  2.1733   3
  -3  -8  -2 3.66244 0.98036   3
  -4  -8  -2 75.5882  3.5639   3
   0  -9  -2 0.60912 0.82719   3
  -5  -8   3 5.83886 1.50318   4
   4   8  -3 13.5546  1.6872   1
  -4  -8   3 9.54510 1.69882   4
   3   8  -3 29.1733  2.1589   1
  -3  -8   3 25.8291  2.3578   4
   2   8  -3 115.575   4.427   1
  -2  -8   3 115.357   5.018   4
   1   8  -3 11.3960  1.3988   1
  -1  -8   3 9.20837 1.56820   4
   0   8  -3 12.7458  1.4165   1
   0  -8   3 13.8470  1.7122   4
  -1   8  -3 90.3620  3.6282   1
   1  -8   3 86.0517  3.9368   4
  -2   8  -3 32.3147  3.2993   2
   2  -8   3 29.2121  1.9916   1
  -3   8  -3 79.7196  5.1425   2
   3  -8   3 57.6661  2.9760   1
  -4   8  -3 28.1099  3.3912   2
   6   7  -3 73.2967  3.5842   1
  -6  -7   3 78.9094  4.0769   4
  -6  -7   3 64.7174  2.8649   3
   5   7  -3 38.7305  2.4821   1
  -5  -7   3 29.5774  1.8272   3
  -5  -7   3 35.9194  2.6517   4
   4   7  -3 72.5915  3.2789   1
  -4  -7   3 73.5470  3.7469   4
  -4  -7   3 54.0617  2.5063   3
   3   7  -3 70.5188  3.1384   1
  -3  -7   3 50.8111  2.4359   3
  -3  -7   3 62.4201  3.4015   4
   2   7  -3 49.8012  2.5632   1
  -2  -7   3 50.1067  2.9324   4
  -2  -7   3 42.0048  2.2168   3
   1   7  -3 208.124   6.076   1
  -1  -7   3 209.489   6.063   3
   0   7  -3 123.264   4.215   1
   0  -7   3 119.925   4.321   3
  -1   7  -3 76.3343  3.0975   1
  -1   7  -3 79.4966  4.4660   2
  -1   7  -3 73.6596  3.2957   3
   1  -7   3 75.4548  3.3710   3
   1  -7   3 72.5028  3.3269   4
  -2   7  -3 15.7498  1.6353   3
  -2   7  -3 14.8703  2.2420   2
   2  -7   3 16.5165  1.4415   1
   2  -7   3 11.0046  1.2870   4
  -3   7  -3 33.3058  2.3830   3
  -3   7  -3 34.7780  3.3176   2
   3  -7   3 37.6308  2.1642   1
  -4   7  -3 8.43791 1.43846   3
  -4   7  -3 7.63508 2.03436   2
   4  -7   3 9.73042 1.26515   1
  -5   7  -3 22.3974  2.2673   3
  -5   7  -3 24.0531  3.1543   2
   5  -7   3 24.0787  1.8727   1
  -6   7  -3 0.43293 0.94161   3
  -6   7  -3 2.27793 1.49921   2
   6  -7   3 2.01486 0.90243   1
   8   6  -3 21.2641  2.0226   1
  -8  -6   3 21.4151  2.0719   4
  -8  -6   3 24.2699  1.8599   3
   7   6  -3 4.81909 1.14267   1
  -7  -6   3 7.76668 1.08250   3
  -7  -6   3 5.21156 1.19953   4
   6   6  -3 15.9121  1.6521   1
  -6  -6   3 18.3399  1.3952   3
  -6  -6   3 17.2447  1.8765   4
   5   6  -3 7.46432 1.15786   1
  -5  -6   3 12.6368  1.0888   3
  -5  -6   3 9.66088 1.43686   4
   4   6  -3 16.5467  1.4740   1
  -4  -6   3 17.2651  1.2281   3
  -4  -6   3 18.5326  1.7537   4
   3   6  -3 1.00613 0.52326   1
  -3  -6   3 3.49699 0.95885   4
  -3  -6   3 2.68304 0.58949   3
   2   6  -3 91.7432  3.4335   1
  -2  -6   3 90.6333  3.1408   3
   1   6  -3 2.22699 0.65114   1
   1   6  -3 2.76082 0.98074   2
  -1  -6   3 2.67876 0.65696   3
   0   6  -3 83.6756  4.0711   2
   0   6  -3 81.3570  3.0805   1
   0  -6   3 77.9871  3.1105   3
  -1   6  -3 210.713   6.175   3
  -1   6  -3 212.816   5.703   1
  -1   6  -3 205.757   7.462   2
  -2   6  -3 283.285   7.835   3
  -2   6  -3 287.720   9.500   2
  -2   6  -3 282.623   7.051   1
   2  -6   3 266.037   7.211   4
  -3   6  -3 132.302   6.134   2
  -3   6  -3 133.368   4.907   3
   3  -6   3 129.893   4.249   1
  -4   6  -3 87.0442  5.1228   2
  -4   6  -3 95.0256  4.1510   3
   4  -6   3 94.5824  3.5564   1
  -5   6  -3 9.27502 2.06601   2
  -5   6  -3 10.2863  1.5667   3
   5  -6   3 11.1353  1.2837   1
  -6   6  -3 24.8821  3.1923   2
  -6   6  -3 21.3280  2.2985   3
   6  -6   3 27.2113  1.9749   1
  -7   6  -3 97.1394  6.1767   2
  -7   6  -3 104.145   5.116   3
   7  -6   3 106.657   4.198   1
   9   5  -3 52.2804  3.1260   1
  -9  -5   3 52.6088  3.0184   4
  -9  -5   3 54.0226  2.9571   3
   8   5  -3 3.28853 0.99261   1
  -8  -5   3 3.82875 1.06152   4
  -8  -5   3 5.86352 1.04568   3
   7   5  -3 0.94421 0.65578   1
  -7  -5   3 0.78768 0.69702   4
  -7  -5   3 2.42607 0.69093   3
   6   5  -3 9.92831 1.28667   1
  -6  -5   3 10.6772  1.0062   3
  -6  -5   3 10.8394  1.4112   4
   5   5  -3 32.0732  1.9759   1
  -5  -5   3 28.3829  2.0714   4
  -5  -5   3 31.3755  1.5790   3
   4   5  -3 81.7362  3.1607   1
  -4  -5   3 78.0099  2.6240   3
  -4  -5   3 80.0205  3.4737   4
   3   5  -3 98.9861  3.4568   1
  -3  -5   3 98.0075  3.0251   3
  -3  -5   3 97.4258  3.8412   4
   2   5  -3 94.5654  3.3244   1
  -2  -5   3 100.448   3.105   3
   1   5  -3 2.45252 0.58432   1
   1   5  -3 4.19932 0.92369   2
  -1  -5   3 3.32091 0.59650   3
   0   5  -3 9.73198 0.97325   1
   0   5  -3 9.84269 1.35950   2
   0  -5   3 11.5299  1.0181   3
  -1   5  -3 12.0456  1.0616   1
  -1   5  -3 11.9689  1.6225   2
  -1   5  -3 14.6360  1.2112   3
  -2   5  -3 116.725   4.055   3
  -2   5  -3 115.764   5.115   2
  -2   5  -3 114.664   3.574   1
   2  -5   3 112.107   3.565   4
  -3   5  -3 51.8055  3.5116   2
  -3   5  -3 57.8429  2.7947   3
   3  -5   3 57.2888  2.1719   4
   3  -5   3 55.7599  2.4056   1
  -4   5  -3 57.3469  3.8578   2
  -4   5  -3 56.5034  2.9912   3
   4  -5   3 58.9419  2.5414   1
  -5   5  -3 110.928   4.568   3
  -5   5  -3 107.577   5.708   2
   5  -5   3 115.084   3.925   1
  -6   5  -3 19.3924  1.9572   3
  -6   5  -3 20.1643  2.7511   2
   6  -5   3 18.8094  1.5905   1
  -7   5  -3 168.558   8.025   2
  -7   5  -3 168.147   6.393   3
   7  -5   3 164.963   5.430   1
  -8   5  -3 39.4756  3.9715   2
  -8   5  -3 41.9363  3.1550   3
   8  -5   3 40.7135  2.6167   1
   9   4  -3 12.3967  1.5965   1
  -9  -4   3 9.93344 1.31314   4
  -9  -4   3 11.0126  1.4469   3
   8   4  -3 2.56991 0.82441   1
  -8  -4   3 1.80600 0.75172   4
  -8  -4   3 3.53788 0.89066   3
   7   4  -3 33.2178  2.0781   1
  -7  -4   3 31.0521  1.7755   3
  -7  -4   3 29.3384  1.9928   4
   6   4  -3 44.2910  2.2997   1
  -6  -4   3 46.2125  2.4637   4
  -6  -4   3 44.1722  1.9982   3
   5   4  -3 136.646   4.338   1
  -5  -4   3 137.040   3.864   3
  -5  -4   3 141.591   4.684   4
   4   4  -3 175.869   4.934   1
  -4  -4   3 175.993   5.356   4
  -4  -4   3 178.347   4.497   3
   3   4  -3 106.459   3.409   1
  -3  -4   3 100.467   3.673   4
  -3  -4   3 110.553   2.991   3
   2   4  -3 190.946   5.002   1
   2   4  -3 198.032   5.273   2
  -2  -4   3 180.425   5.347   4
  -2  -4   3 188.565   4.645   3
   1   4  -3 103.926   3.226   1
   1   4  -3 105.117   3.710   2
  -1  -4   3 107.888   3.083   3
   0   4  -3 43.1711  1.8365   1
   0   4  -3 41.4966  1.7442   3
   0   4  -3 44.9508  2.3885   2
  -1   4  -3 102.181   3.107   1
  -1   4  -3 103.060   4.125   2
  -1   4  -3 99.7284  3.2623   3
   1  -4   3 99.8533  3.1496   4
  -2   4  -3 315.338   7.878   3
  -2   4  -3 300.714   9.105   2
  -2   4  -3 323.329   7.247   1
   2  -4   3 312.677   7.219   4
   2  -4   3 310.672   7.296   1
  -3   4  -3 187.447   5.544   3
  -3   4  -3 188.861   6.786   2
   3  -4   3 186.974   4.982   1
   3  -4   3 185.836   4.509   4
  -4   4  -3 22.2895  1.6941   3
  -4   4  -3 23.2636  2.3374   2
   4  -4   3 22.3750  1.4618   1
  -5   4  -3 306.984   8.580   3
  -5   4  -3 319.816  10.374   2
   5  -4   3 296.849   7.620   1
  -6   4  -3 38.8314  3.3467   2
  -6   4  -3 40.5103  2.6066   3
   6  -4   3 36.9578  2.0719   1
  -7   4  -3 87.8736  5.3875   2
  -7   4  -3 93.7676  4.3533   3
   7  -4   3 90.2533  3.5956   1
  -8   4  -3 59.1285  3.5928   3
  -8   4  -3 53.4258  4.4115   2
   8  -4   3 62.2970  3.0627   1
  -9   4  -3 128.468   5.894   3
  -9   4  -3 129.315   7.229   2
   9  -4   3 138.654   5.022   1
  10   3  -3 17.4117  1.8686   1
 -10  -3   3 16.5119  1.8927   3
   9   3  -3 25.7157  2.0286   1
  -9  -3   3 27.1647  2.0937   3
   8   3  -3 14.4068  1.4895   1
  -8  -3   3 14.5858  1.4008   3
  -8  -3   3 16.0767  1.3636   4
   7   3  -3 58.5170  2.7277   1
  -7  -3   3 63.5698  2.6380   3
  -7  -3   3 59.9669  2.6347   4
   6   3  -3 136.026   4.237   1
  -6  -3   3 131.853   3.932   3
  -6  -3   3 129.166   4.227   4
   5   3  -3 250.516   6.377   1
  -5  -3   3 257.734   6.143   3
  -5  -3   3 254.167   6.691   4
   4   3  -3 186.506   4.221   2
   4   3  -3 178.109   4.830   1
  -4  -3   3 188.957   4.505   3
  -4  -3   3 177.263   5.113   4
   3   3  -3 115.567   3.456   1
   3   3  -3 129.340   3.184   2
  -3  -3   3 123.941   3.157   3
  -3  -3   3 121.538   3.796   4
   2   3  -3 322.062   7.380   2
   2   3  -3 305.960   7.111   1
  -2  -3   3 316.880   7.583   4
  -2  -3   3 326.216   6.931   3
   1   3  -3 23.0070  1.1842   1
   1   3  -3 21.1642  1.2561   2
  -1  -3   3 21.5802  1.2314   4
  -1  -3   3 22.1650  0.9545   3
   0   3  -3 460.311  10.919   2
   0   3  -3 468.104   9.911   3
   0   3  -3 454.623   9.642   1
   0  -3   3 452.934  10.016   4
  -1   3  -3 55.3165  2.0102   3
  -1   3  -3 59.1550  1.9880   1
  -1   3  -3 54.1729  2.6030   2
   1  -3   3 54.3117  1.8867   4
  -2   3  -3 347.505   9.525   2
  -2   3  -3 361.817   8.388   3
   2  -3   3 351.530   7.632   4
   2  -3   3 358.193   7.853   1
  -3   3  -3 311.361   9.157   2
  -3   3  -3 318.822   7.864   3
   3  -3   3 321.226   6.622   4
   3  -3   3 310.350   7.224   1
  -4   3  -3 389.615  11.089   2
  -4   3  -3 387.367   9.509   3
   4  -3   3 377.490   8.694   1
  -5   3  -3 225.031   8.036   2
  -5   3  -3 226.109   6.563   3
   5  -3   3 223.855   5.893   1
  -6   3  -3 62.5192  3.0940   3
  -6   3  -3 64.8601  4.1163   2
   6  -3   3 65.2376  2.7339   1
  -7   3  -3 23.2215  2.7681   2
  -7   3  -3 25.0337  2.0469   3
   7  -3   3 27.1167  1.8489   1
  -8   3  -3 19.8769  2.0010   3
  -8   3  -3 16.7305  2.5695   2
   8  -3   3 18.8637  1.6270   1
  -9   3  -3 2.39285 1.02125   3
  -9   3  -3 0.39362 1.28229   2
   9  -3   3 1.63480 0.80265   1
  10   2  -3 6.52820 1.25745   1
 -10  -2   3 5.13394 1.27723   3
   9   2  -3 8.55565 1.26045   1
  -9  -2   3 7.85118 1.29070   3
   8   2  -3 56.9717  2.7292   1
  -8  -2   3 60.8215  2.8533   3
  -8  -2   3 54.7030  2.2590   4
   7   2  -3 25.0958  1.6529   1
  -7  -2   3 26.9579  1.6878   3
  -7  -2   3 26.5946  1.4979   4
   6   2  -3 237.980   6.205   1
   6   2  -3 251.803   5.765   2
  -6  -2   3 251.088   6.179   4
  -6  -2   3 238.348   6.231   3
   5   2  -3 53.2252  2.1723   1
   5   2  -3 55.6557  1.6680   2
  -5  -2   3 54.2960  2.0060   3
  -5  -2   3 57.7186  2.2029   4
   4   2  -3 80.3730  2.5909   1
   4   2  -3 79.7872  2.0432   2
  -4  -2   3 78.4481  2.6439   4
  -4  -2   3 79.5621  2.3401   3
   3   2  -3 399.674   8.464   1
   3   2  -3 395.168   8.383   2
  -3  -2   3 397.790   8.381   3
  -3  -2   3 392.170   8.850   4
   2   2  -3 441.279   9.233   1
   2   2  -3 450.392   9.459   2
  -2  -2   3 439.973   9.653   4
  -2  -2   3 443.452   9.126   3
   1   2  -3 1746.33   35.22   2
   1   2  -3 1663.51   32.44   1
  -1  -2   3 1746.76   34.07   3
  -1  -2   3 1701.65   33.86   4
   0   2  -3 675.675  13.607   3
   0   2  -3 644.661  13.147   1
   0   2  -3 657.362  14.479   2
   0  -2   3 678.568  13.598   4
  -1   2  -3 1498.51   29.38   3
  -1   2  -3 1440.57   30.83   2
  -1   2  -3 1466.86   27.78   1
   1  -2   3 1425.70   28.59   4
  -2   2  -3 126.543   3.399   3
  -2   2  -3 118.725   4.118   2
   2  -2   3 123.821   2.769   4
   2  -2   3 124.390   3.278   1
  -3   2  -3 118.565   3.478   3
   3  -2   3 117.896   3.318   1
  -4   2  -3 226.582   5.959   3
  -4   2  -3 237.731   7.339   2
   4  -2   3 224.585   5.594   1
  -5   2  -3 177.904   5.263   3
  -5   2  -3 180.973   6.582   2
   5  -2   3 188.332   4.947   1
  -6   2  -3 191.761   5.867   3
  -6   2  -3 202.158   7.361   2
   6  -2   3 196.770   5.453   1
  -7   2  -3 338.151   9.142   3
  -7   2  -3 342.442  10.869   2
   7  -2   3 326.429   8.314   1
  -8   2  -3 4.26226 1.05320   3
  -8   2  -3 7.10070 1.77171   2
   8  -2   3 3.13799 0.87922   1
  -9   2  -3 26.7274  2.3451   3
  -9   2  -3 32.0159  3.2442   2
   9  -2   3 31.1420  2.1700   1
 -10   2  -3 21.0484  2.4031   3
  10  -2   3 18.8906  2.9994   2
  10  -2   3 20.1654  1.9109   1
  10   1  -3 55.7325  2.9968   1
 -10  -1   3 55.1338  3.3488   3
   9   1  -3 0.37772 0.56385   1
  -9  -1   3 0.91948 0.72775   3
   8   1  -3 10.1538  1.1605   1
  -8  -1   3 10.1736  1.2990   3
   7   1  -3 115.676   4.075   2
   7   1  -3 117.918   3.816   1
  -7  -1   3 119.861   4.126   3
  -7  -1   3 118.807   3.250   4
   6   1  -3 164.572   4.558   1
   6   1  -3 166.708   4.875   2
  -6  -1   3 161.822   4.154   4
  -6  -1   3 169.657   4.811   3
   5   1  -3 318.184   7.570   2
   5   1  -3 305.919   7.123   1
  -5  -1   3 309.159   6.969   4
  -5  -1   3 316.161   7.438   3
   4   1  -3 229.947   5.399   1
   4   1  -3 230.168   5.648   2
  -4  -1   3 236.635   5.558   3
  -4  -1   3 240.338   5.414   4
   3   1  -3 44.1227  1.4323   2
   3   1  -3 44.3865  1.5689   1
  -3  -1   3 43.2571  1.5280   4
  -3  -1   3 44.9270  1.4873   3
   2   1  -3 231.454   4.999   1
   2   1  -3 224.084   5.024   2
  -2  -1   3 225.916   5.097   4
  -2  -1   3 234.547   4.936   3
   1   1  -3 2965.29   61.20   2
   1   1  -3 2957.39   55.69   1
  -1  -1   3 2953.15   58.13   4
  -1  -1   3 3085.87   60.74   3
   0   1  -3 1182.74   22.51   1
   0   1  -3 1186.35   24.46   2
   0  -1   3 1182.45   23.18   4
  -1   1  -3 1975.14   40.78   2
  -1   1  -3 2032.07   39.42   3
   1  -1   3 1975.93   38.41   4
   1  -1   3 1946.45   37.22   1
  -2   1  -3 657.507  13.549   3
  -2   1  -3 660.998  14.764   2
   2  -1   3 660.110  13.073   1
  -3   1  -3 451.428   9.944   3
  -3   1  -3 467.058  11.255   2
   3  -1   3 469.340   9.661   1
  -4   1  -3 604.548  13.211   3
  -4   1  -3 620.309  14.807   2
   4  -1   3 614.300  12.673   1
  -5   1  -3 258.306   7.946   2
  -5   1  -3 258.896   6.619   3
   5  -1   3 266.712   6.413   1
  -6   1  -3 47.6327  3.1275   2
  -6   1  -3 49.0495  2.3614   3
   6  -1   3 47.4592  2.1905   1
  -7   1  -3 252.249   8.443   2
  -7   1  -3 248.487   7.034   3
   7  -1   3 238.855   6.491   1
  -8   1  -3 33.2329  2.2356   3
  -8   1  -3 32.5353  2.9500   2
   8  -1   3 32.5402  2.0273   1
  -9   1  -3 32.1788  3.0829   2
  -9   1  -3 31.4371  2.4183   3
   9  -1   3 31.6810  2.1753   1
 -10   1  -3 77.1522  4.2090   3
  10  -1   3 76.3445  3.6863   1
  10   0  -3 55.7673  2.9286   1
 -10   0   3 59.1166  3.5579   3
   9   0  -3 23.2482  1.7691   1
  -9   0   3 26.8489  2.2101   3
   8   0  -3 169.552   5.957   2
   8   0  -3 158.514   4.915   1
  -8   0   3 163.157   5.603   3
   7   0  -3 25.9875  1.5984   1
   7   0  -3 31.2235  2.2677   2
  -7   0   3 31.3605  1.9697   3
   6   0  -3 3.92719 0.65003   1
   6   0  -3 3.32639 0.86023   2
  -6   0   3 3.90056 0.40262   4
  -6   0   3 4.74413 0.79996   3
   5   0  -3 112.420   3.919   2
   5   0  -3 112.175   3.154   1
  -5   0   3 109.287   3.487   3
  -5   0   3 111.998   2.699   4
   4   0  -3 72.6946  2.1723   1
   4   0  -3 74.6214  2.7295   2
  -4   0   3 68.1405  2.3773   3
  -4   0   3 71.3301  1.8593   4
   3   0  -3 434.866   9.832   2
   3   0  -3 423.912   8.611   1
  -3   0   3 419.340   8.640   4
  -3   0   3 429.269   9.348   3
   2   0  -3 2128.26   39.11   1
   2   0  -3 2090.41   42.75   2
  -2   0   3 2149.25   41.73   3
  -2   0   3 2000.48   40.64   4
   1   0  -3 2.59256 0.26008   2
   1   0  -3 2.11770 0.22327   1
   0   0  -3 3641.73   67.37   1
   0   0  -3 3610.80   72.38   3
   0   0  -3 3505.15   73.60   2
  -1   0  -3 805.413  16.815   2
  -1   0  -3 811.759  16.161   3
   1   0   3 801.978  15.462   1
  -2   0  -3 1568.13   31.76   3
  -2   0  -3 1611.97   33.17   2
   2   0   3 1619.83   30.28   1
  -3   0  -3 1179.54   23.84   3
  -3   0  -3 1184.77   25.27   2
   3   0   3 1181.51   22.84   1
  -4   0  -3 284.018   6.618   3
  -4   0  -3 287.098   7.708   2
   4   0   3 291.077   6.577   1
  -5   0  -3 18.8402  1.6671   2
  -5   0  -3 17.3462  1.1404   3
   5   0   3 19.4206  1.2421   1
  -6   0  -3 23.3482  1.4845   3
  -6   0  -3 21.3936  1.9704   2
   6   0   3 24.5206  1.5266   1
  -7   0  -3 11.3095  1.6365   2
  -7   0  -3 10.4141  1.1610   3
   7   0   3 8.74301 1.06920   1
  -8   0  -3 15.1291  2.0174   2
  -8   0  -3 18.2386  1.6151   3
   8   0   3 15.4976  1.4883   1
  -9   0  -3 2.82668 0.96457   3
   9   0   3 3.28954 0.94719   1
 -10   0  -3 22.7376  2.3413   3
  10   0   3 21.0637  1.9904   1
  10  -1  -3 46.9905  2.6219   1
  10  -1  -3 41.8134  3.3923   2
 -10   1   3 56.5299  3.6196   3
   9  -1  -3 0.57930 0.58631   1
   9  -1  -3 0.97199 1.02839   2
  -9   1   3 0.81268 0.77237   3
   8  -1  -3 10.6044  1.6835   2
   8  -1  -3 9.63629 1.07392   1
  -8   1   3 8.86237 1.40753   3
   7  -1  -3 118.212   4.974   2
   7  -1  -3 117.021   3.650   1
  -7   1   3 112.123   4.395   3
   6  -1  -3 165.243   4.396   1
   6  -1  -3 164.552   5.809   2
  -6   1   3 167.887   5.290   3
   5  -1  -3 314.613   8.679   2
   5  -1  -3 311.092   6.877   1
  -5   1   3 309.472   7.985   3
   4  -1  -3 232.746   6.680   2
   4  -1  -3 235.005   5.160   1
  -4   1   3 233.380   6.140   3
   3  -1  -3 43.8406  2.1174   2
   3  -1  -3 44.1361  1.3532   1
  -3   1   3 47.0438  1.9366   3
   2  -1  -3 235.478   4.548   1
   2  -1  -3 226.633   5.787   2
  -2   1   3 213.836   5.468   3
   1  -1  -3 3013.31   61.00   2
  -1   1   3 2984.09   59.57   3
   0  -1  -3 1150.33   23.73   2
   0   1   3 1161.20   22.00   1
   0   1   3 1161.26   23.39   3
  -1  -1  -3 1916.59   39.01   2
  -1  -1  -3 1929.88   38.24   3
   1   1   3 1924.69   35.98   1
  -2  -1  -3 636.231  13.385   3
  -2  -1  -3 671.633  13.774   2
   2   1   3 646.951  12.763   1
  -3  -1  -3 458.322  10.198   2
  -3  -1  -3 444.602   9.604   3
   3   1   3 451.907   9.338   1
  -4  -1  -3 605.449  12.670   3
  -4  -1  -3 604.993  13.614   2
   4   1   3 582.638  12.288   1
  -5  -1  -3 251.490   6.141   3
  -5  -1  -3 255.565   6.986   2
   5   1   3 250.341   6.152   1
  -6  -1  -3 46.5912  2.6227   2
  -6  -1  -3 48.4623  2.0889   3
   6   1   3 51.1260  2.2529   1
  -7  -1  -3 250.373   6.765   3
  -7  -1  -3 244.187   7.588   2
   7   1   3 254.107   6.738   1
  -8  -1  -3 31.1492  2.0288   3
   8   1   3 29.9361  1.9560   1
  -9  -1  -3 32.5070  2.2684   3
   9   1   3 33.1543  2.2436   1
 -10  -1  -3 82.8778  4.0676   3
  10   1   3 76.5045  3.7615   1
  10  -2  -3 5.61670 1.75359   2
  10  -2  -3 8.60475 1.26826   1
 -10   2   3 6.28209 1.62704   3
   9  -2  -3 5.62077 1.59462   2
   9  -2  -3 7.51763 1.10081   1
  -9   2   3 6.95255 1.49716   3
   8  -2  -3 55.3346  3.7401   2
   8  -2  -3 58.1619  2.5314   1
  -8   2   3 60.6844  3.4488   3
   7  -2  -3 24.8746  2.4571   2
   7  -2  -3 27.4053  1.5500   1
  -7   2   3 23.3940  2.0132   3
   6  -2  -3 243.065   5.845   1
   6  -2  -3 241.185   8.017   2
  -6   2   3 244.868   7.244   3
   5  -2  -3 53.6465  3.0773   2
   5  -2  -3 54.1607  1.8786   1
  -5   2   3 56.4208  2.6749   3
   4  -2  -3 77.5164  3.5069   2
   4  -2  -3 80.0941  2.2000   1
  -4   2   3 81.2367  3.1479   3
   3  -2  -3 411.047   8.042   1
   3  -2  -3 399.214  10.305   2
  -3   2   3 407.402   9.659   3
   2  -2  -3 462.770  10.895   2
   2  -2  -3 458.497   8.742   1
  -2   2   3 437.446  10.367   3
   1  -2  -3 1676.48   35.17   2
  -1   2   3 1700.56   34.36   3
   0  -2  -3 671.277  14.203   2
   0   2   3 664.653  12.636   1
   0   2   3 651.902  14.084   3
  -1  -2  -3 1367.85   28.00   2
  -1  -2  -3 1360.23   27.86   3
   1   2   3 1391.30   25.87   1
  -2  -2  -3 113.869   3.079   3
  -2  -2  -3 114.888   2.679   2
   2   2   3 111.992   2.833   1
  -3  -2  -3 103.475   2.946   3
  -3  -2  -3 111.025   2.875   2
   3   2   3 105.157   2.929   1
  -4  -2  -3 224.445   5.600   2
  -4  -2  -3 221.952   5.422   3
   4   2   3 222.445   5.423   1
  -5  -2  -3 174.889   4.943   2
  -5  -2  -3 173.466   4.621   3
   5   2   3 178.578   4.782   1
  -6  -2  -3 188.332   5.185   3
   6   2   3 191.959   5.314   1
  -7  -2  -3 334.210   8.537   3
   7   2   3 348.756   8.585   1
  -8  -2  -3 4.29152 0.86891   3
   8   2   3 3.61621 0.89486   1
  -9  -2  -3 31.3772  2.1742   3
   9   2   3 32.8545  2.2813   1
 -10  -2  -3 16.2131  1.8420   3
  10   2   3 22.2735  2.0271   1
  10  -3  -3 13.3955  2.4605   2
 -10   3   3 14.9253  2.2333   3
   9  -3  -3 18.9199  2.6561   2
   9  -3  -3 17.8472  1.5409   1
  -9   3   3 26.0008  2.4613   3
   8  -3  -3 12.4418  1.2122   1
   8  -3  -3 17.8735  2.4264   2
  -8   3   3 15.0275  1.9556   3
   7  -3  -3 54.6109  3.8279   2
   7  -3  -3 60.3138  2.3913   1
  -7   3   3 66.5574  3.5557   3
   6  -3  -3 140.050   3.804   1
   6  -3  -3 130.907   5.823   2
  -6   3   3 136.906   5.158   3
   5  -3  -3 270.675   5.982   1
   5  -3  -3 262.452   8.591   2
  -5   3   3 261.431   7.728   3
   4  -3  -3 176.189   6.301   2
   4  -3  -3 186.013   4.168   1
  -4   3   3 181.007   5.688   3
   3  -3  -3 127.788   2.936   1
   3  -3  -3 125.414   4.727   2
  -3   3   3 126.309   4.273   3
   2  -3  -3 323.794   6.385   1
   2  -3  -3 324.133   8.644   2
  -2   3   3 320.732   8.147   3
   1  -3  -3 24.3683  1.5374   2
  -1   3   3 23.2472  0.7472   1
  -1   3   3 20.8925  1.3654   3
   0  -3  -3 459.654  10.532   2
   0   3   3 470.106   9.025   1
   0   3   3 448.545  10.491   3
  -1  -3  -3 56.9973  1.8123   2
  -1  -3  -3 63.0910  2.2757   3
   1   3   3 56.2352  1.6856   1
  -2  -3  -3 340.693   7.925   3
  -2  -3  -3 339.697   7.191   2
   2   3   3 334.139   7.148   1
  -3  -3  -3 294.832   6.993   3
   3   3   3 288.941   6.523   1
  -4  -3  -3 353.131   8.201   3
   4   3   3 355.290   7.973   1
  -5  -3  -3 208.294   5.400   3
   5   3   3 207.583   5.455   1
  -6  -3  -3 60.7643  2.4214   3
   6   3   3 59.1408  2.5682   1
  -7  -3  -3 25.7405  1.6374   3
   7   3   3 26.0793  1.7669   1
  -8  -3  -3 18.9248  1.5515   3
   8   3   3 17.3415  1.5997   1
  -9  -3  -3 3.32498 0.89470   3
   9   3   3 2.04292 0.83339   1
   9  -4  -3 14.7936  2.6000   2
  -9   4   3 9.68517 1.88335   3
   8  -4  -3 2.08590 1.20911   2
  -8   4   3 4.63409 1.30260   3
   7  -4  -3 34.0544  3.1938   2
  -7   4   3 33.0228  2.6161   3
   6  -4  -3 46.5918  1.9360   1
   6  -4  -3 44.7473  3.4626   2
  -6   4   3 47.8586  2.9863   3
   5  -4  -3 143.691   3.707   1
   5  -4  -3 143.231   6.129   2
  -5   4   3 137.732   5.253   3
   4  -4  -3 197.115   4.510   1
   4  -4  -3 195.931   7.056   2
  -4   4   3 188.713   6.329   3
   3  -4  -3 114.834   2.797   1
   3  -4  -3 118.384   4.817   2
  -3   4   3 107.436   4.190   3
   2  -4  -3 191.057   4.128   1
   2  -4  -3 187.162   6.199   2
  -2   4   3 195.461   5.884   3
   1  -4  -3 106.455   3.927   2
  -1   4   3 108.897   2.582   1
  -1   4   3 105.317   3.788   3
   0  -4  -3 40.7583  1.9729   2
   0   4   3 43.2063  1.4136   1
   0   4   3 41.7675  2.0757   3
  -1  -4  -3 94.9050  3.3943   3
  -1  -4  -3 104.527   3.004   2
   1   4   3 97.7560  2.6296   1
  -2  -4  -3 301.566   6.444   2
  -2  -4  -3 290.973   7.374   3
   2   4   3 291.684   6.511   1
  -3  -4  -3 172.165   4.839   3
   3   4   3 171.914   4.430   1
  -4  -4  -3 19.5340  1.2825   3
   4   4   3 20.7812  1.3211   1
  -5  -4  -3 281.389   7.198   3
   5   4   3 292.045   7.125   1
  -6  -4  -3 35.9487  1.8623   3
   6   4   3 32.3801  1.9374   1
  -7  -4  -3 90.2815  3.4527   3
   7   4   3 99.4387  3.7630   1
  -8  -4  -3 57.2683  2.7435   3
   8   4   3 54.7541  2.9113   1
  -9  -4  -3 124.402   4.697   3
   9   4   3 123.241   4.828   1
   9  -5  -3 51.9653  4.5873   2
  -9   5   3 55.0669  3.9943   3
   8  -5  -3 2.50766 1.54022   2
  -8   5   3 4.10578 1.31765   3
   7  -5  -3 2.30649 1.39950   2
  -7   5   3 1.42436 0.87650   3
   6  -5  -3 12.9170  2.2417   2
  -6   5   3 12.5316  1.8037   3
   5  -5  -3 34.6943  3.0741   2
  -5   5   3 31.9983  2.5069   3
   4  -5  -3 89.4252  4.7058   2
  -4   5   3 89.4844  4.0920   3
   3  -5  -3 99.2809  4.6785   2
  -3   5   3 96.4941  4.1600   3
   2  -5  -3 99.8992  4.3820   2
   2  -5  -3 100.047   2.600   1
  -2   5   3 95.8211  3.9895   3
   1  -5  -3 4.05455 0.95273   2
  -1   5   3 3.27318 0.81986   3
  -1   5   3 3.71790 0.46763   1
   0  -5  -3 8.75102 1.12867   3
   0  -5  -3 11.4292  1.1878   2
   0   5   3 9.57571 0.75494   1
  -1  -5  -3 12.1313  1.0475   2
  -1  -5  -3 15.0034  1.3312   3
   1   5   3 12.8552  0.9080   1
  -2  -5  -3 109.824   3.827   3
   2   5   3 109.157   3.170   1
  -3  -5  -3 48.7341  2.3002   3
   3   5   3 51.3341  2.0746   1
  -4  -5  -3 59.2082  2.5552   3
   4   5   3 57.4419  2.3507   1
  -5  -5  -3 103.476   3.620   3
   5   5   3 106.997   3.665   1
  -6  -5  -3 17.0831  1.3707   3
   6   5   3 19.6888  1.5837   1
  -7  -5  -3 159.765   5.098   3
   7   5   3 159.911   5.259   1
  -8  -5  -3 43.2994  2.4616   3
   8   5   3 41.9067  2.6132   1
   8  -6  -3 25.2998  3.4168   2
  -8   6   3 26.0328  2.9116   3
   7  -6  -3 7.91863 2.18372   2
  -7   6   3 5.47104 1.52549   3
   6  -6  -3 17.7848  2.7418   2
  -6   6   3 16.1874  2.0957   3
   5  -6  -3 12.1605  2.1775   2
  -5   6   3 12.5476  1.8225   3
   4  -6  -3 18.4862  2.4011   2
  -4   6   3 17.7482  1.9768   3
   3  -6  -3 3.10779 1.15282   2
  -3   6   3 3.48330 0.98821   3
   2  -6  -3 92.9043  4.4034   2
  -2   6   3 84.1296  3.9525   3
   1  -6  -3 2.52162 0.88210   2
  -1   6   3 0.73696 0.57363   3
   0  -6  -3 72.0354  3.3629   3
   0  -6  -3 77.2975  3.3109   2
  -1  -6  -3 211.733   6.458   3
   1   6   3 208.741   5.259   1
  -2  -6  -3 271.792   7.688   3
   2   6   3 282.392   6.697   1
  -3  -6  -3 133.148   4.598   3
   3   6   3 137.972   4.148   1
  -4  -6  -3 86.2070  3.4233   3
   4   6   3 82.0193  3.1201   1
  -5  -6  -3 9.97736 1.16780   3
   5   6   3 11.1897  1.2187   1
  -6  -6  -3 24.9078  1.7623   3
   6   6   3 25.1607  1.8371   1
  -7  -6  -3 97.2331  3.8549   3
   7   6   3 100.056   4.037   1
   6  -7  -3 88.7996  5.7432   2
  -6   7   3 81.3600  4.7200   3
   5  -7  -3 43.7094  3.8670   2
  -5   7   3 42.6855  3.2373   3
   4  -7  -3 83.8559  5.0394   2
  -4   7   3 84.5220  4.4113   3
   3  -7  -3 72.5753  4.3462   2
  -3   7   3 67.5812  3.7883   3
   2  -7  -3 50.4806  3.4061   2
  -2   7   3 47.6003  3.0408   3
   1  -7  -3 215.203   7.031   3
   1  -7  -3 187.286   6.956   2
  -1   7   3 217.523   7.031   3
   0  -7  -3 118.935   4.822   3
  -1  -7  -3 70.5648  3.4881   3
  -2  -7  -3 12.9993  1.4738   3
  -3  -7  -3 33.8816  2.2342   3
  -4  -7  -3 10.2773  1.3301   3
  -5  -7  -3 20.0054  1.6761   3
   5   7   3 20.1972  1.7094   1
  -6  -7  -3 1.95818 0.78398   3
   6   7   3 1.82764 0.86132   1
   5  -8  -3 11.2055  2.4577   2
   4  -8  -3 15.0890  2.5202   2
  -4   8   3 15.4137  2.1252   3
   3  -8  -3 24.9576  2.9010   2
  -3   8   3 31.1688  2.7066   3
   2  -8  -3 87.6032  4.9470   2
  -2   8   3 107.397   4.883   3
   1  -8  -3 10.9951  1.6846   3
   0  -8  -3 14.2777  1.8118   3
  -1  -8  -3 89.0044  4.1711   3
  -2  -8  -3 31.3892  2.3545   3
  -3  -8  -3 72.0952  3.5003   3
  -4  -8  -3 20.7145  1.8885   3
   4   8  -4 141.777   5.377   1
  -4  -8   4 137.272   5.797   4
   3   8  -4 96.0774  4.1253   1
  -3  -8   4 87.6812  4.3906   4
   2   8  -4 5.41270 1.12622   1
  -2  -8   4 3.78120 1.22302   4
   1   8  -4 76.0500  3.5354   1
  -1  -8   4 81.6421  3.9913   4
   0   8  -4 2.29574 0.82327   1
   0  -8   4 1.64732 0.84155   4
  -1   8  -4 4.09712 0.98272   1
   1  -8   4 4.97497 1.12033   4
  -2   8  -4 35.8714  3.4814   2
   2  -8   4 36.9040  2.3398   1
  -3   8  -4 2.39548 1.68458   2
   3  -8   4 2.23076 0.86771   1
  -4   8  -4 19.9114  3.0429   2
   4  -8   4 21.5075  1.9663   1
   6   7  -4 0.27032 0.63892   1
  -6  -7   4 0.45240 0.78137   4
   5   7  -4 4.36718 1.08041   1
  -5  -7   4 3.50155 1.09609   4
   4   7  -4 49.7038  2.8104   1
  -4  -7   4 45.8778  2.9761   4
   3   7  -4 28.2766  2.0691   1
  -3  -7   4 24.3169  2.1320   4
   2   7  -4 53.8980  2.7933   1
  -2  -7   4 56.7466  3.1485   4
   1   7  -4 100.280   3.843   1
  -1  -7   4 98.9061  4.1917   4
   0   7  -4 40.5156  2.2722   1
   0   7  -4 43.3319  3.2688   2
   0  -7   4 40.3370  2.5105   4
  -1   7  -4 54.9040  2.6824   1
  -1   7  -4 60.5081  3.9849   2
   1  -7   4 56.8667  2.8658   4
  -2   7  -4 29.2233  2.9616   2
   2  -7   4 21.3408  1.6695   4
   2  -7   4 26.2446  1.8399   1
  -3   7  -4 46.4115  3.8126   2
   3  -7   4 46.1697  2.4997   1
  -4   7  -4 15.3715  2.5737   2
   4  -7   4 19.8424  1.7902   1
  -5   7  -4 44.5027  4.2076   2
   5  -7   4 46.7035  2.7137   1
  -6   7  -4 3.88406 1.76712   2
   6  -7   4 7.46214 1.38031   1
   8   6  -4 5.14398 1.28961   1
  -8  -6   4 4.96554 1.21738   4
   7   6  -4 11.5831  1.5422   1
  -7  -6   4 17.3361  1.8678   4
  -7  -6   4 11.9753  1.2453   3
   6   6  -4 4.38583 1.04935   1
  -6  -6   4 2.50000 0.65066   3
  -6  -6   4 2.67704 0.94871   4
   5   6  -4 55.4246  2.8126   1
  -5  -6   4 58.5720  3.1215   4
  -5  -6   4 41.7201  2.0048   3
   4   6  -4 63.0192  2.9755   1
  -4  -6   4 64.3099  2.4066   3
  -4  -6   4 65.7451  3.3256   4
   3   6  -4 106.552   3.971   1
  -3  -6   4 105.816   4.306   4
  -3  -6   4 107.469   3.345   3
   2   6  -4 182.094   5.415   1
  -2  -6   4 181.771   4.919   3
  -2  -6   4 172.979   5.781   4
   1   6  -4 83.9795  3.2809   1
   1   6  -4 85.6018  4.0499   2
  -1  -6   4 88.4967  3.0642   3
  -1  -6   4 86.5661  3.6131   4
   0   6  -4 15.2454  1.3319   1
   0   6  -4 17.7056  1.9962   2
   0  -6   4 18.0000  1.5486   4
   0  -6   4 16.0215  1.2891   3
  -1   6  -4 343.763  10.737   2
  -1   6  -4 350.679   8.549   1
  -1   6  -4 367.707   9.013   3
   1  -6   4 344.819   8.855   4
  -2   6  -4 30.9520  2.0411   3
  -2   6  -4 33.5918  3.0030   2
  -2   6  -4 34.5340  1.9469   1
   2  -6   4 35.2195  1.9279   4
   2  -6   4 35.4268  2.0306   1
  -3   6  -4 153.560   6.735   2
  -3   6  -4 138.932   5.058   3
   3  -6   4 147.111   4.692   1
  -4   6  -4 23.2308  1.9831   3
  -4   6  -4 20.6339  2.7220   2
   4  -6   4 22.3330  1.7436   1
  -5   6  -4 22.9282  2.1023   3
  -5   6  -4 22.3180  2.9286   2
   5  -6   4 24.2397  1.8555   1
  -6   6  -4 21.9580  2.3332   3
  -6   6  -4 20.6124  3.0900   2
   6  -6   4 26.1793  2.0116   1
  -7   6  -4 28.7153  2.7095   3
  -7   6  -4 33.4047  3.8608   2
   7  -6   4 29.3808  2.2191   1
   9   5  -4 33.8303  2.5751   1
  -9  -5   4 32.0864  2.3097   4
  -9  -5   4 37.2350  2.4657   3
   8   5  -4 57.9822  3.1867   1
  -8  -5   4 59.7240  3.1434   4
  -8  -5   4 60.6490  2.8674   3
   7   5  -4 19.5654  1.7952   1
  -7  -5   4 18.1543  1.7295   4
  -7  -5   4 22.2550  1.5392   3
   6   5  -4 27.3174  1.9535   1
  -6  -5   4 29.5283  2.1389   4
  -6  -5   4 31.5694  1.6710   3
   5   5  -4 22.4349  1.6778   1
  -5  -5   4 19.9595  1.2196   3
  -5  -5   4 19.0638  1.6677   4
   4   5  -4 114.606   3.997   1
  -4  -5   4 117.156   4.356   4
  -4  -5   4 116.725   3.386   3
   3   5  -4 79.5531  3.0953   1
  -3  -5   4 83.1956  2.5730   3
  -3  -5   4 77.7159  3.3605   4
   2   5  -4 123.267   4.278   2
   2   5  -4 114.901   3.843   1
  -2  -5   4 117.845   4.202   4
  -2  -5   4 118.850   3.372   3
   1   5  -4 155.002   4.562   1
   1   5  -4 157.649   5.336   2
  -1  -5   4 155.078   4.241   3
  -1  -5   4 153.422   4.857   4
   0   5  -4 191.278   6.396   2
   0   5  -4 189.434   5.232   1
   0  -5   4 195.241   5.154   3
   0  -5   4 186.960   5.456   4
  -1   5  -4 104.896   3.485   3
  -1   5  -4 105.897   3.420   1
  -1   5  -4 97.8252  4.4830   2
   1  -5   4 93.9058  3.3393   4
  -2   5  -4 269.920   7.137   3
  -2   5  -4 261.674   8.671   2
  -2   5  -4 259.982   6.591   1
   2  -5   4 257.273   6.705   1
   2  -5   4 262.758   6.556   4
  -3   5  -4 323.338  10.371   2
  -3   5  -4 318.672   8.514   3
   3  -5   4 320.381   7.893   1
   3  -5   4 318.499   7.380   4
  -4   5  -4 30.0895  2.1077   3
  -4   5  -4 29.6374  2.8867   2
   4  -5   4 32.0481  1.9222   1
  -5   5  -4 6.43453 1.20849   3
  -5   5  -4 6.37520 1.75171   2
   5  -5   4 7.64754 1.10646   1
  -6   5  -4 29.6626  3.2523   2
  -6   5  -4 33.3655  2.5002   3
   6  -5   4 29.7903  2.0660   1
  -7   5  -4 48.0440  4.2499   2
  -7   5  -4 45.6133  3.0872   3
   7  -5   4 44.8530  2.6188   1
  -8   5  -4 100.056   5.026   3
  -8   5  -4 93.3955  6.2287   2
   8  -5   4 103.288   4.313   1
   9   4  -4 17.7769  1.8779   1
  -9  -4   4 22.0046  1.7471   4
  -9  -4   4 18.7031  1.7741   3
   8   4  -4 8.73809 1.33391   1
  -8  -4   4 8.41033 1.15562   4
  -8  -4   4 9.09555 1.20773   3
   7   4  -4 12.4853  1.3903   1
  -7  -4   4 13.0321  1.3807   4
  -7  -4   4 12.1423  1.1725   3
   6   4  -4 21.4239  1.6505   1
  -6  -4   4 23.8397  1.4389   3
  -6  -4   4 22.2450  1.6906   4
   5   4  -4 212.217   5.971   1
  -5  -4   4 215.931   5.409   3
  -5  -4   4 219.790   6.333   4
   4   4  -4 245.250   6.359   1
  -4  -4   4 237.351   6.677   4
  -4  -4   4 244.045   5.729   3
   3   4  -4 66.1114  2.5930   1
  -3  -4   4 71.2869  2.1066   3
  -3  -4   4 66.0190  2.8037   4
   2   4  -4 149.035   4.462   2
   2   4  -4 146.226   4.219   1
  -2  -4   4 147.546   4.510   4
  -2  -4   4 146.250   3.662   3
   1   4  -4 229.798   6.431   2
   1   4  -4 222.488   5.691   1
  -1  -4   4 229.735   5.372   3
  -1  -4   4 225.064   5.998   4
   0   4  -4 102.111   2.961   3
   0   4  -4 94.6184  3.1223   1
   0   4  -4 101.546   3.917   2
   0  -4   4 102.839   3.272   4
  -1   4  -4 43.7147  1.9153   1
  -1   4  -4 47.4803  1.9437   3
  -1   4  -4 47.3811  2.7417   2
   1  -4   4 45.6855  1.9021   4
  -2   4  -4 114.726   4.777   2
   2  -4   4 116.394   3.275   4
   2  -4   4 115.360   3.564   1
  -3   4  -4 93.0419  3.4415   3
  -3   4  -4 90.5458  4.4358   2
   3  -4   4 94.3943  3.2208   1
   3  -4   4 95.1127  2.6110   4
  -4   4  -4 478.274  11.538   3
  -4   4  -4 454.840  13.332   2
   4  -4   4 473.230  10.697   1
  -5   4  -4 196.813   6.229   3
  -5   4  -4 193.765   7.783   2
   5  -4   4 198.585   5.670   1
  -6   4  -4 35.2161  3.3008   2
  -6   4  -4 42.2664  2.6732   3
   6  -4   4 41.7726  2.3013   1
  -7   4  -4 113.417   6.180   2
  -7   4  -4 115.863   4.918   3
   7  -4   4 113.820   4.255   1
  -8   4  -4 27.7587  3.4217   2
  -8   4  -4 26.5140  2.4323   3
   8  -4   4 26.8219  2.1159   1
  -9   4  -4 4.39918 1.92522   2
  -9   4  -4 5.02424 1.46303   3
   9  -4   4 4.45071 1.20900   1
  10   3  -4 2.18179 0.93893   1
 -10  -3   4 2.86135 1.10289   3
   9   3  -4 0.26129 0.59583   1
  -9  -3   4 0.29967 0.65295   3
   8   3  -4 3.20604 0.86133   1
  -8  -3   4 4.69639 0.85671   4
  -8  -3   4 4.41619 0.94737   3
   7   3  -4 52.7833  2.5739   1
  -7  -3   4 55.4660  2.4784   4
  -7  -3   4 58.3091  2.5270   3
   6   3  -4 8.40792 1.05215   1
  -6  -3   4 10.2817  0.9445   3
  -6  -3   4 10.1704  1.0765   4
   5   3  -4 31.3077  1.7208   1
  -5  -3   4 28.0735  1.6704   4
  -5  -3   4 30.6972  1.4347   3
   4   3  -4 56.3789  1.7407   2
   4   3  -4 55.3158  2.2659   1
  -4  -3   4 55.2700  2.3529   4
  -4  -3   4 55.7934  1.8383   3
   3   3  -4 226.285   5.286   2
   3   3  -4 211.413   5.453   1
  -3  -3   4 222.116   4.976   3
  -3  -3   4 217.707   5.757   4
   2   3  -4 1061.18   21.72   1
   2   3  -4 1130.76   23.26   2
  -2  -3   4 1105.83   22.10   3
  -2  -3   4 1109.40   22.71   4
   1   3  -4 833.759  17.121   1
   1   3  -4 868.809  18.636   2
  -1  -3   4 847.419  17.790   4
  -1  -3   4 871.809  17.342   3
   0   3  -4 1204.77   23.97   3
   0   3  -4 1194.54   23.13   1
   0   3  -4 1170.78   25.57   2
   0  -3   4 1164.87   23.89   4
  -1   3  -4 1238.52   23.92   1
  -1   3  -4 1240.24   25.10   3
  -1   3  -4 1213.46   26.86   2
   1  -3   4 1217.63   24.53   4
  -2   3  -4 17.3019  1.6083   2
  -2   3  -4 18.4366  1.1660   3
   2  -3   4 19.7607  1.1872   1
   2  -3   4 18.5385  0.8702   4
  -3   3  -4 79.9789  2.8956   3
  -3   3  -4 78.2403  3.7396   2
   3  -3   4 75.4490  2.6963   1
   3  -3   4 80.0034  1.9791   4
  -4   3  -4 186.007   5.361   3
  -4   3  -4 177.687   6.618   2
   4  -3   4 176.630   4.920   1
  -5   3  -4 95.2256  3.6765   3
  -5   3  -4 90.3560  4.6860   2
   5  -3   4 94.9358  3.3550   1
  -6   3  -4 632.178  14.969   3
  -6   3  -4 630.983  17.306   2
   6  -3   4 611.218  13.724   1
  -7   3  -4 75.3471  3.6948   3
  -7   3  -4 79.8760  4.8972   2
   7  -3   4 82.5670  3.3976   1
  -8   3  -4 14.5410  2.4874   2
  -8   3  -4 13.3765  1.7385   3
   8  -3   4 12.8492  1.4884   1
  -9   3  -4 34.3919  2.7958   3
  -9   3  -4 31.1749  3.6132   2
   9  -3   4 33.9779  2.3921   1
  10   2  -4 8.91397 1.44156   1
 -10  -2   4 10.4328  1.6579   3
   9   2  -4 26.0566  1.9788   1
  -9  -2   4 19.5812  1.8670   3
   8   2  -4 105.831   3.930   1
  -8  -2   4 104.744   4.060   3
  -8  -2   4 109.825   3.413   4
   7   2  -4 61.2488  2.6976   1
  -7  -2   4 63.3448  2.3903   4
  -7  -2   4 63.8090  2.7337   3
   6   2  -4 561.090  12.109   2
   6   2  -4 573.440  12.281   1
  -6  -2   4 552.332  12.555   3
  -6  -2   4 559.933  12.264   4
   5   2  -4 46.4879  1.5282   2
   5   2  -4 49.2982  2.0252   1
  -5  -2   4 46.5118  1.8562   3
  -5  -2   4 46.9433  1.9324   4
   4   2  -4 39.3271  1.2779   2
   4   2  -4 39.7349  1.7216   1
  -4  -2   4 37.0525  1.6336   4
  -4  -2   4 37.8261  1.4671   3
   3   2  -4 81.1080  2.5412   1
   3   2  -4 77.8680  2.1211   2
  -3  -2   4 80.5753  2.5505   4
  -3  -2   4 80.3969  2.1534   3
   2   2  -4 13.7097  0.7374   2
   2   2  -4 14.5630  0.8969   1
  -2  -2   4 14.5813  0.8979   4
  -2  -2   4 14.6292  0.5785   3
   1   2  -4 56.1547  1.9075   2
   1   2  -4 57.6255  1.9180   1
  -1  -2   4 56.1277  1.8562   4
  -1  -2   4 58.3383  1.3614   3
   0   2  -4 330.812   7.983   2
   0   2  -4 349.364   7.104   3
   0   2  -4 335.423   7.248   1
   0  -2   4 335.040   7.256   4
  -1   2  -4 889.056  17.487   1
  -1   2  -4 861.043  19.514   2
  -1   2  -4 931.596  18.245   3
   1  -2   4 881.899  17.683   4
  -2   2  -4 689.182  14.064   3
  -2   2  -4 652.585  15.466   2
   2  -2   4 671.511  13.186   4
   2  -2   4 646.702  13.478   1
  -3   2  -4 74.8783  3.3435   2
  -3   2  -4 76.8202  2.5285   3
   3  -2   4 74.5642  2.5180   1
  -4   2  -4 126.193   3.834   3
  -4   2  -4 126.628   4.959   2
   4  -2   4 126.010   3.763   1
  -5   2  -4 71.4664  2.8638   3
  -5   2  -4 72.1288  3.8631   2
   5  -2   4 77.6266  2.7962   1
  -6   2  -4 12.0157  1.3012   3
  -6   2  -4 13.3151  1.9464   2
   6  -2   4 9.47075 1.12522   1
  -7   2  -4 286.027   8.141   3
  -7   2  -4 284.485   9.825   2
   7  -2   4 288.610   7.567   1
  -8   2  -4 16.1767  2.4580   2
  -8   2  -4 19.4361  1.8679   3
   8  -2   4 21.1750  1.7170   1
  -9   2  -4 39.0998  2.8111   3
  -9   2  -4 40.6215  3.8171   2
   9  -2   4 35.1272  2.3757   1
 -10   2  -4 50.7010  4.4197   2
  10   1  -4 19.6087  1.8351   1
 -10  -1   4 16.0529  2.0030   3
   9   1  -4 8.61374 1.24322   1
  -9  -1   4 7.96324 1.34906   3
   8   1  -4 6.48322 1.01839   1
  -8  -1   4 4.12673 0.97315   3
   7   1  -4 325.873   8.322   2
   7   1  -4 325.878   7.903   1
  -7  -1   4 315.129   8.385   3
  -7  -1   4 321.744   7.228   4
   6   1  -4 330.810   8.046   2
   6   1  -4 321.896   7.602   1
  -6  -1   4 316.804   8.097   3
  -6  -1   4 328.234   7.256   4
   5   1  -4 191.436   4.964   2
   5   1  -4 188.963   4.811   1
  -5  -1   4 186.161   5.013   3
  -5  -1   4 189.117   4.560   4
   4   1  -4 478.446  10.001   1
   4   1  -4 478.939  10.496   2
  -4  -1   4 475.089  10.414   3
  -4  -1   4 476.143  10.050   4
   3   1  -4 449.084   9.827   2
   3   1  -4 455.018   9.416   1
  -3  -1   4 459.781   9.595   4
  -3  -1   4 467.532   9.762   3
   2   1  -4 626.396  13.413   2
   2   1  -4 645.228  12.698   1
  -2  -1   4 626.699  13.004   4
  -2  -1   4 671.949  13.141   3
   1   1  -4 1205.16   24.45   2
   1   1  -4 1175.82   22.70   1
  -1  -1   4 1188.81   23.38   4
   0   1  -4 3435.78   69.28   2
   0   1  -4 3461.98   64.09   1
   0  -1   4 3363.72   66.54   4
  -1   1  -4 235.540   5.046   3
  -1   1  -4 233.958   5.878   2
   1  -1   4 243.719   5.268   1
  -2   1  -4 346.348   7.467   3
  -2   1  -4 345.630   8.567   2
   2  -1   4 354.467   7.476   1
  -3   1  -4 398.659   9.977   2
  -3   1  -4 389.779   8.656   3
   3  -1   4 399.238   8.589   1
  -4   1  -4 382.485   8.847   3
  -4   1  -4 404.922  10.438   2
   4  -1   4 392.355   8.669   1
  -5   1  -4 190.798   6.498   2
  -5   1  -4 194.051   5.238   3
   5  -1   4 195.065   5.186   1
  -6   1  -4 989.789  23.269   2
  -6   1  -4 958.493  20.965   3
   6  -1   4 965.275  19.928   1
  -7   1  -4 90.4582  3.6104   3
  -7   1  -4 91.5083  4.7113   2
   7  -1   4 94.7791  3.5163   1
  -8   1  -4 21.2356  2.5257   2
  -8   1  -4 24.1886  1.9261   3
   8  -1   4 19.6527  1.6793   1
  -9   1  -4 100.471   4.353   3
  -9   1  -4 74.8503  4.8448   2
   9  -1   4 90.2108  3.8589   1
 -10   1  -4 131.185   5.671   3
  10  -1   4 132.436   5.114   1
  10   0  -4 0.69702 0.70624   1
 -10   0   4 0.38122 0.85002   3
   9   0  -4 84.1866  4.1445   2
   9   0  -4 94.8148  3.6107   1
  -9   0   4 93.7645  4.2848   3
   8   0  -4 150.978   4.668   1
   8   0  -4 152.619   5.573   2
  -8   0   4 152.962   5.431   3
   7   0  -4 44.7469  2.5894   2
   7   0  -4 40.8524  1.9921   1
  -7   0   4 43.5679  2.4317   3
   6   0  -4 132.420   4.602   2
   6   0  -4 130.352   3.791   1
  -6   0   4 138.243   4.415   3
  -6   0   4 133.620   3.233   4
   5   0  -4 2.45259 0.66111   2
   5   0  -4 3.09898 0.51174   1
  -5   0   4 2.84660 0.63844   3
  -5   0   4 3.27819 0.37386   4
   4   0  -4 53.8877  2.2201   2
   4   0  -4 53.8033  1.8019   1
  -4   0   4 53.9049  2.0846   3
  -4   0   4 51.7337  1.5273   4
   3   0  -4 57.1103  2.0398   2
   3   0  -4 53.5668  1.6497   1
  -3   0   4 54.5405  1.5099   4
  -3   0   4 54.2259  1.9463   3
   2   0  -4 1630.32   30.34   1
   2   0  -4 1650.33   33.12   2
  -2   0   4 1563.41   32.40   3
   1   0  -4 907.309  19.221   2
   1   0  -4 953.958  17.747   1
  -1   0   4 936.044  18.933   3
   0   0  -4 555.709  10.868   1
   0   0  -4 571.309  11.449   3
   0   0  -4 553.925  11.780   2
  -1   0  -4 331.103   7.388   2
  -1   0  -4 334.842   6.887   3
   1   0   4 327.664   6.811   1
  -2   0  -4 93.8034  2.8871   2
  -2   0  -4 94.4792  2.3561   3
   2   0   4 95.1710  2.5634   1
  -3   0  -4 82.4655  2.2966   3
  -3   0  -4 80.2971  2.9255   2
   3   0   4 83.3727  2.4964   1
  -4   0  -4 290.649   6.764   3
  -4   0  -4 287.607   7.847   2
   4   0   4 298.850   6.814   1
  -5   0  -4 0.70419 0.57928   2
  -5   0  -4 1.43831 0.43573   3
   5   0   4 1.66857 0.50128   1
  -6   0  -4 135.691   5.220   2
  -6   0  -4 136.839   4.168   3
   6   0   4 128.111   4.063   1
  -7   0  -4 293.012   7.719   3
  -7   0  -4 286.304   9.013   2
   7   0   4 278.810   7.346   1
  -8   0  -4 34.6681  2.9568   2
  -8   0  -4 42.2207  2.4496   3
   8   0   4 48.5707  2.5076   1
  -9   0  -4 1.69195 0.82418   3
   9   0   4 4.69518 1.05157   1
 -10   0  -4 29.5387  2.5435   3
  10   0   4 32.2779  2.4818   1
  10  -1  -4 18.3049  2.3470   2
  10  -1  -4 18.2956  1.6789   1
 -10   1   4 17.6698  2.2795   3
   9  -1  -4 7.07132 1.51343   2
   9  -1  -4 8.34196 1.15270   1
  -9   1   4 7.05185 1.47294   3
   8  -1  -4 5.60349 1.34927   2
   8  -1  -4 7.50881 0.98914   1
  -8   1   4 7.68344 1.35697   3
   7  -1  -4 318.193   7.510   1
   7  -1  -4 315.404   9.397   2
  -7   1   4 312.272   8.786   3
   6  -1  -4 320.541   9.088   2
   6  -1  -4 308.993   7.177   1
  -6   1   4 315.968   8.442   3
   5  -1  -4 181.836   5.829   2
   5  -1  -4 182.458   4.416   1
  -5   1   4 181.901   5.422   3
   4  -1  -4 466.358  11.270   2
   4  -1  -4 463.937   9.315   1
  -4   1   4 447.014  10.696   3
   3  -1  -4 477.122   9.104   1
   3  -1  -4 457.273  10.924   2
  -3   1   4 447.275  10.459   3
   2  -1  -4 651.912  12.279   1
   2  -1  -4 653.572  14.174   2
  -2   1   4 622.348  13.759   3
   1  -1  -4 1177.80   24.86   2
   1  -1  -4 1200.13   22.85   1
  -1   1   4 1216.25   24.48   3
   0  -1  -4 3378.12   67.80   3
   0  -1  -4 3432.45   69.18   2
  -1  -1  -4 225.856   5.238   3
  -1  -1  -4 236.624   5.203   2
   1   1   4 234.050   4.876   1
  -2  -1  -4 335.270   7.543   2
  -2  -1  -4 333.297   7.316   3
   2   1   4 344.721   7.079   1
  -3  -1  -4 388.217   8.962   2
  -3  -1  -4 385.627   8.391   3
   3   1   4 384.373   8.204   1
  -4  -1  -4 393.408   9.453   2
  -4  -1  -4 386.902   8.596   3
   4   1   4 379.763   8.472   1
  -5  -1  -4 188.481   5.745   2
  -5  -1  -4 187.714   4.901   3
   5   1   4 189.926   5.008   1
  -6  -1  -4 937.590  19.918   3
  -6  -1  -4 952.374  21.476   2
   6   1   4 910.405  19.138   1
  -7  -1  -4 97.5082  3.4791   3
  -7  -1  -4 89.2442  4.1108   2
   7   1   4 88.7030  3.4359   1
  -8  -1  -4 20.5365  1.6376   3
   8   1   4 20.2585  1.7083   1
  -9  -1  -4 99.5987  4.2597   3
   9   1   4 101.203   4.176   1
 -10  -1  -4 130.208   5.289   3
  10   1   4 131.116   5.117   1
  10  -2  -4 9.34034 1.29906   1
  10  -2  -4 10.3719  2.0531   2
 -10   2   4 9.76737 1.91486   3
   9  -2  -4 20.3327  1.6292   1
   9  -2  -4 20.9766  2.5602   2
  -9   2   4 22.2109  2.2658   3
   8  -2  -4 103.281   5.135   2
   8  -2  -4 104.265   3.533   1
  -8   2   4 102.148   4.671   3
   7  -2  -4 59.1461  2.3204   1
   7  -2  -4 56.8814  3.5000   2
  -7   2   4 54.9540  3.1233   3
   6  -2  -4 578.659  11.965   1
   6  -2  -4 571.793  14.969   2
  -6   2   4 576.290  14.041   3
   5  -2  -4 48.5632  1.7083   1
   5  -2  -4 48.6236  2.8456   2
  -5   2   4 46.7693  2.5116   3
   4  -2  -4 37.0843  2.2982   2
   4  -2  -4 37.6938  1.2861   1
  -4   2   4 36.9522  2.0732   3
   3  -2  -4 72.6830  3.1211   2
   3  -2  -4 82.0099  1.8943   1
  -3   2   4 78.0384  2.9581   3
   2  -2  -4 13.5737  1.1322   2
  -2   2   4 15.6437  1.1443   3
   1  -2  -4 58.7364  2.1687   2
  -1   2   4 58.4800  2.2156   3
   0  -2  -4 335.748   7.509   2
   0   2   4 323.281   7.650   3
   0   2   4 340.090   6.512   1
  -1  -2  -4 836.078  17.426   3
  -1  -2  -4 822.426  17.237   2
   1   2   4 844.281  15.966   1
  -2  -2  -4 604.327  12.932   3
  -2  -2  -4 614.576  12.792   2
   2   2   4 610.018  12.103   1
  -3  -2  -4 71.7075  2.2375   2
  -3  -2  -4 73.4152  2.3131   3
   3   2   4 72.7130  2.2854   1
  -4  -2  -4 113.564   3.471   2
  -4  -2  -4 115.495   3.290   3
   4   2   4 115.492   3.361   1
  -5  -2  -4 73.7130  2.5253   3
  -5  -2  -4 72.6561  2.8800   2
   5   2   4 75.1422  2.7199   1
  -6  -2  -4 10.1628  0.9685   3
   6   2   4 12.0622  1.1496   1
  -7  -2  -4 276.125   7.268   3
   7   2   4 277.416   7.357   1
  -8  -2  -4 19.3217  1.5435   3
   8   2   4 16.5630  1.5893   1
  -9  -2  -4 43.7356  2.5543   3
   9   2   4 37.3526  2.4668   1
  10  -3  -4 2.37904 1.51029   2
 -10   3   4 1.88354 1.24554   3
   9  -3  -4 2.17397 1.33508   2
  -9   3   4 0.61192 0.74922   3
   8  -3  -4 2.82549 1.27309   2
  -8   3   4 2.64178 1.01273   3
   7  -3  -4 48.9329  3.5119   2
   7  -3  -4 55.0355  2.2320   1
  -7   3   4 52.1736  3.1666   3
   6  -3  -4 8.48322 0.82348   1
   6  -3  -4 6.56520 1.47140   2
  -6   3   4 8.16841 1.36398   3
   5  -3  -4 30.3359  1.2906   1
   5  -3  -4 29.7526  2.4255   2
  -5   3   4 26.8478  2.0194   3
   4  -3  -4 51.8419  3.0102   2
   4  -3  -4 56.0841  1.6420   1
  -4   3   4 57.2834  2.7973   3
   3  -3  -4 226.706   4.610   1
   3  -3  -4 229.409   6.911   2
  -3   3   4 219.595   6.447   3
   2  -3  -4 1109.37   24.56   2
  -2   3   4 1119.49   23.88   3
   1  -3  -4 855.137  18.778   2
  -1   3   4 841.263  18.403   3
   0  -3  -4 1139.16   24.31   2
   0   3   4 1171.51   21.77   1
   0   3   4 1150.93   24.17   3
  -1  -3  -4 1147.19   24.34   3
  -1  -3  -4 1190.76   24.12   2
   1   3   4 1165.38   22.18   1
  -2  -3  -4 18.3237  0.7808   2
  -2  -3  -4 18.0152  1.1416   3
   2   3   4 18.4361  0.9524   1
  -3  -3  -4 76.9106  2.1212   2
  -3  -3  -4 73.4171  2.5637   3
   3   3   4 73.0087  2.3606   1
  -4  -3  -4 166.703   4.539   3
   4   3   4 167.834   4.453   1
  -5  -3  -4 95.2643  3.0879   3
   5   3   4 87.8803  3.0939   1
  -6  -3  -4 584.873  13.121   3
   6   3   4 583.244  12.915   1
  -7  -3  -4 74.1589  2.9712   3
   7   3   4 76.8589  3.2039   1
  -8  -3  -4 12.4357  1.3154   3
   8   3   4 9.52334 1.29221   1
  -9  -3  -4 33.8218  2.2647   3
   9   3   4 33.5838  2.4006   1
   9  -4  -4 16.1239  2.6603   2
  -9   4   4 16.9111  2.2894   3
   8  -4  -4 8.17392 1.97679   2
  -8   4   4 7.47678 1.58238   3
   7  -4  -4 15.3522  2.2483   2
  -7   4   4 11.4392  1.7703   3
   6  -4  -4 23.9183  2.5125   2
  -6   4   4 25.8726  2.2349   3
   5  -4  -4 223.084   7.926   2
  -5   4   4 215.864   7.132   3
   4  -4  -4 261.243   8.325   2
  -4   4   4 245.254   7.571   3
   3  -4  -4 74.3360  1.8893   1
   3  -4  -4 72.6448  3.5992   2
  -3   4   4 72.0854  3.3009   3
   2  -4  -4 151.507   5.288   2
   2  -4  -4 150.008   3.196   1
  -2   4   4 149.513   4.975   3
   1  -4  -4 219.756   6.412   2
  -1   4   4 231.388   4.670   1
  -1   4   4 226.397   6.484   3
   0  -4  -4 104.397   3.401   2
   0  -4  -4 102.018   3.645   3
   0   4   4 102.221   2.520   1
   0   4   4 101.626   3.610   3
  -1  -4  -4 43.0849  1.6579   2
  -1  -4  -4 42.5764  2.0887   3
   1   4   4 43.0947  1.4968   1
  -2  -4  -4 111.017   2.719   2
  -2  -4  -4 103.341   3.533   3
   2   4   4 106.571   2.954   1
  -3  -4  -4 82.3830  3.0252   3
   3   4   4 92.0329  2.7760   1
  -4  -4  -4 420.029  10.186   3
   4   4   4 455.748   9.739   1
  -5  -4  -4 165.748   4.836   3
   5   4   4 171.530   4.825   1
  -6  -4  -4 38.1907  1.9989   3
   6   4   4 40.0764  2.1134   1
  -7  -4  -4 105.064   3.801   3
   7   4   4 107.733   3.982   1
  -8  -4  -4 25.9762  1.8496   3
   8   4   4 22.9485  1.9040   1
  -9  -4  -4 3.17897 0.95987   3
   9   4   4 3.07036 1.04803   1
   9  -5  -4 28.1083  3.5190   2
  -9   5   4 40.8064  3.4142   3
   8  -5  -4 56.2018  4.5027   2
  -8   5   4 57.0133  3.8460   3
   7  -5  -4 19.4280  2.7341   2
  -7   5   4 19.9268  2.2994   3
   6  -5  -4 27.9950  2.9294   2
  -6   5   4 34.8031  2.7415   3
   5  -5  -4 22.1004  2.4912   2
  -5   5   4 17.4074  1.9529   3
   4  -5  -4 125.252   5.588   2
  -4   5   4 126.656   5.094   3
   3  -5  -4 80.4866  4.0629   2
  -3   5   4 78.1893  3.7115   3
   2  -5  -4 117.261   4.759   2
  -2   5   4 117.033   4.498   3
   1  -5  -4 150.133   5.088   2
  -1   5   4 147.612   5.114   3
   0  -5  -4 185.791   5.518   2
   0  -5  -4 185.296   5.845   3
   0   5   4 195.882   4.405   1
  -1  -5  -4 94.6643  3.6982   3
  -1  -5  -4 99.2272  3.0905   2
   1   5   4 100.253   2.808   1
  -2  -5  -4 252.649   6.904   3
   2   5   4 244.753   5.837   1
  -3  -5  -4 314.525   8.064   3
   3   5   4 306.288   7.217   1
  -4  -5  -4 26.9354  1.7072   3
   4   5   4 28.2212  1.6171   1
  -5  -5  -4 6.38231 0.91593   3
   5   5   4 6.75890 0.93954   1
  -6  -5  -4 29.2994  1.8280   3
   6   5   4 27.8584  1.8449   1
  -7  -5  -4 42.0120  2.3283   3
   7   5   4 41.5344  2.4375   1
  -8  -5  -4 90.6693  3.7644   3
   8  -6  -4 6.13311 2.05559   2
  -8   6   4 6.65826 1.81138   3
   7  -6  -4 11.9724  2.4848   2
  -7   6   4 18.8663  2.3927   3
   6  -6  -4 2.29886 1.39288   2
  -6   6   4 2.72931 1.09692   3
   5  -6  -4 66.1080  4.3864   2
  -5   6   4 64.2143  3.7892   3
   4  -6  -4 68.9907  4.2454   2
  -4   6   4 62.5903  3.6347   3
   3  -6  -4 112.575   5.170   2
  -3   6   4 108.285   4.762   3
   2  -6  -4 187.441   6.734   2
  -2   6   4 179.684   6.369   3
   1  -6  -4 86.3121  3.7935   2
  -1   6   4 80.2679  3.7289   3
   0  -6  -4 15.5641  1.4716   2
   0  -6  -4 16.3958  1.5940   3
  -1  -6  -4 337.009   9.126   3
  -2  -6  -4 33.1287  2.1186   3
  -3  -6  -4 145.627   4.876   3
   3   6   4 136.602   4.081   1
  -4  -6  -4 17.2934  1.5051   3
   4   6   4 21.1441  1.4849   1
  -5  -6  -4 22.8369  1.6927   3
   5   6   4 22.1750  1.6401   1
  -6  -6  -4 18.1063  1.5638   3
   6   6   4 22.1541  1.7138   1
  -7  -6  -4 27.7457  1.9485   3
   7   6   4 26.7614  2.0098   1
   6  -7  -4 1.22574 1.33902   2
  -6   7   4 -0.1912  0.7421   3
   5  -7  -4 6.83264 1.87488   2
  -5   7   4 2.27328 1.04045   3
   4  -7  -4 48.7141  3.7710   2
  -4   7   4 50.1150  3.3980   3
   3  -7  -4 29.4425  2.8037   2
  -3   7   4 24.6833  2.3193   3
   2  -7  -4 55.6513  3.5055   2
  -2   7   4 56.8518  3.3779   3
   1  -7  -4 88.8741  4.0654   3
   1  -7  -4 64.0452  3.5367   2
   0  -7  -4 45.1117  2.8743   3
  -1  -7  -4 51.0097  2.9612   3
  -2  -7  -4 29.9841  2.1575   3
  -3  -7  -4 46.4775  2.6749   3
  -4  -7  -4 17.4093  1.6649   3
  -5  -7  -4 50.7690  2.7459   3
  -6  -7  -4 4.78997 1.04344   3
   4  -8  -4 140.447   7.000   2
  -4   8   4 148.704   6.479   3
   3  -8  -4 104.629   5.443   2
  -3   8   4 89.5428  4.8043   3
  -2   8   4 4.73938 1.30617   3
   1  -8  -4 77.3157  4.1193   3
   0  -8  -4 2.21361 1.01156   3
  -1  -8  -4 3.55038 1.07991   3
  -2  -8  -4 31.6580  2.3991   3
  -3  -8  -4 2.92903 0.93176   3
  -4  -8  -4 23.2981  2.0466   3
   4   8  -5 14.8843  1.7708   1
  -4  -8   5 15.5669  2.0199   4
   3   8  -5 1.22851 0.81266   1
  -3  -8   5 2.60183 1.08997   4
   2   8  -5 86.2538  3.8948   1
  -2  -8   5 82.5591  4.1199   4
   1   8  -5 55.7192  3.0428   1
  -1  -8   5 56.7725  3.2611   4
   0   8  -5 1.90046 0.85100   1
   0  -8   5 2.13574 0.92121   4
  -1   8  -5 8.66656 1.30641   1
   1  -8   5 10.6737  1.4224   4
  -2   8  -5 4.17766 1.82612   2
   2  -8   5 3.50909 1.00654   1
  -3   8  -5 6.05702 2.11714   2
   3  -8   5 9.69894 1.43258   1
   6   7  -5 3.96210 1.12770   1
  -6  -7   5 3.87190 1.17157   4
   5   7  -5 62.0719  3.3166   1
  -5  -7   5 62.7608  3.5187   4
   4   7  -5 61.7665  3.1584   1
  -4  -7   5 52.3370  3.1921   4
   3   7  -5 88.2293  3.7746   1
  -3  -7   5 85.9979  4.0250   4
   2   7  -5 16.4934  1.6411   1
  -2  -7   5 18.6285  1.8071   4
   1   7  -5 6.54138 1.12524   1
  -1  -7   5 4.47647 1.06354   4
   0   7  -5 180.043   7.458   2
   0   7  -5 215.286   6.115   1
   0  -7   5 206.193   6.378   4
  -1   7  -5 48.6678  2.5946   1
  -1   7  -5 52.4208  3.8432   2
   1  -7   5 54.2531  2.6965   4
  -2   7  -5 13.8581  2.3137   2
   2  -7   5 16.1010  1.4897   1
  -3   7  -5 5.04982 1.64316   2
   3  -7   5 3.36566 0.92157   1
  -4   7  -5 35.4696  3.6177   2
   4  -7   5 38.1586  2.5009   1
  -5   7  -5 19.8109  3.1100   2
   5  -7   5 18.4882  1.8650   1
   7   6  -5 33.0872  2.4454   1
  -7  -6   5 30.6346  2.3680   4
   6   6  -5 71.5119  3.4641   1
  -6  -6   5 73.3420  3.6642   4
   5   6  -5 82.3148  3.6959   1
  -5  -6   5 95.4435  4.1181   4
   4   6  -5 73.6033  3.3086   1
  -4  -6   5 75.0223  3.5989   4
   3   6  -5 4.25108 0.93829   1
  -3  -6   5 5.52775 1.11167   4
   2   6  -5 16.6064  1.4743   1
  -2  -6   5 18.4517  1.6326   4
   1   6  -5 210.069   7.034   2
   1   6  -5 202.361   5.886   1
  -1  -6   5 191.206   6.036   4
   0   6  -5 3.42401 0.79285   1
   0   6  -5 3.16923 1.11186   2
   0  -6   5 2.75595 0.77045   4
  -1   6  -5 38.7535  3.0406   2
  -1   6  -5 41.4079  2.2145   1
   1  -6   5 43.3482  2.2226   4
  -2   6  -5 205.575   7.963   2
  -2   6  -5 210.637   5.939   1
   2  -6   5 201.350   5.964   1
   2  -6   5 212.418   5.738   4
  -3   6  -5 3.33881 1.35342   2
   3  -6   5 5.45354 0.98279   1
  -4   6  -5 54.7191  4.1779   2
   4  -6   5 53.6382  2.8067   1
  -5   6  -5 55.3855  4.4568   2
   5  -6   5 62.7862  3.0623   1
  -6   6  -5 1.05018 1.14031   2
   6  -6   5 0.11144 0.65874   1
  -7   6  -5 27.4917  3.6622   2
   7  -6   5 34.0290  2.4358   1
   8   5  -5 29.8431  2.2907   1
  -8  -5   5 30.9637  2.2033   4
  -8  -5   5 23.4566  1.8833   3
   7   5  -5 1.23947 0.71714   1
  -7  -5   5 1.41767 0.69395   4
  -7  -5   5 1.01961 0.55459   3
   6   5  -5 9.03424 1.24401   1
  -6  -5   5 6.92736 0.85823   3
  -6  -5   5 10.0107  1.3293   4
   5   5  -5 90.7689  3.6170   1
  -5  -5   5 83.8779  3.6677   4
  -5  -5   5 90.5064  2.8674   3
   4   5  -5 135.061   4.578   1
  -4  -5   5 141.949   4.931   4
  -4  -5   5 152.481   3.903   3
   3   5  -5 39.9377  2.1655   1
  -3  -5   5 38.8439  1.5391   3
  -3  -5   5 38.2097  2.2582   4
   2   5  -5 128.624   4.263   1
   2   5  -5 134.713   4.695   2
  -2  -5   5 127.447   4.446   4
  -2  -5   5 135.776   3.535   3
   1   5  -5 16.1530  1.6918   2
   1   5  -5 15.9956  1.3048   1
  -1  -5   5 16.5640  1.3849   4
  -1  -5   5 16.0408  1.0096   3
   0   5  -5 133.642   5.262   2
   0   5  -5 133.875   4.203   1
   0  -5   5 137.715   3.873   3
   0  -5   5 136.582   4.274   4
  -1   5  -5 137.730   5.527   2
  -1   5  -5 140.048   4.130   3
  -1   5  -5 134.277   4.199   1
   1  -5   5 135.688   4.126   4
  -2   5  -5 94.9102  3.4710   3
  -2   5  -5 99.5354  3.4452   1
  -2   5  -5 97.0692  4.7553   2
   2  -5   5 97.7538  3.5103   1
   2  -5   5 99.3599  3.1267   4
  -3   5  -5 87.0519  3.4679   3
  -3   5  -5 83.4308  4.6112   2
   3  -5   5 89.4791  3.3598   1
  -4   5  -5 28.9927  2.0402   3
  -4   5  -5 25.5925  2.7875   2
   4  -5   5 24.6509  1.7506   1
  -5   5  -5 194.715   8.304   2
  -5   5  -5 194.211   6.437   3
   5  -5   5 191.948   5.881   1
  -6   5  -5 79.1614  3.9488   3
  -6   5  -5 75.1453  5.1262   2
   6  -5   5 83.3954  3.5891   1
  -7   5  -5 48.2561  4.2968   2
  -7   5  -5 47.7833  3.1786   3
   7  -5   5 47.6194  2.7770   1
  -8   5  -5 2.31651 1.73186   2
  -8   5  -5 5.18849 1.46901   3
   8  -5   5 5.22198 1.28032   1
   9   4  -5 90.2149  4.1056   1
  -9  -4   5 91.8884  3.6852   4
  -9  -4   5 94.9332  4.0533   3
   8   4  -5 46.7608  2.7454   1
  -8  -4   5 48.4929  2.5806   3
  -8  -4   5 44.0756  2.4567   4
   7   4  -5 21.1216  1.7276   1
  -7  -4   5 19.3906  1.5785   4
  -7  -4   5 19.6271  1.5043   3
   6   4  -5 103.855   3.889   1
  -6  -4   5 104.406   3.896   4
  -6  -4   5 107.676   3.395   3
   5   4  -5 280.286   7.293   1
  -5  -4   5 263.598   7.384   4
  -5  -4   5 283.438   6.608   3
   4   4  -5 113.763   3.860   1
  -4  -4   5 118.025   3.162   3
  -4  -4   5 114.885   3.996   4
   3   4  -5 27.6007  1.6647   1
   3   4  -5 28.8990  1.5925   2
  -3  -4   5 29.2776  1.7625   4
  -3  -4   5 28.9964  1.1496   3
   2   4  -5 63.1995  2.6382   2
   2   4  -5 62.6341  2.4889   1
  -2  -4   5 59.1264  2.5455   4
  -2  -4   5 63.2885  1.8461   3
   1   4  -5 33.4769  1.9690   2
   1   4  -5 29.9931  1.6543   1
  -1  -4   5 32.0620  1.2180   3
  -1  -4   5 31.7441  1.6942   4
   0   4  -5 155.129   5.246   2
   0   4  -5 152.474   4.383   1
   0  -4   5 152.681   4.349   4
   0  -4   5 155.278   3.942   3
  -1   4  -5 111.159   3.463   1
  -1   4  -5 107.464   3.246   3
  -1   4  -5 112.744   4.512   2
   1  -4   5 107.222   3.224   4
  -2   4  -5 9.62764 1.49974   2
   2  -4   5 8.99881 0.95180   1
   2  -4   5 8.71312 0.74266   4
  -3   4  -5 464.270  13.138   2
  -3   4  -5 485.115  11.286   3
   3  -4   5 467.675   9.878   4
   3  -4   5 479.090  10.752   1
  -4   4  -5 84.7286  4.6031   2
  -4   4  -5 89.3988  3.5501   3
   4  -4   5 89.0336  3.3486   1
  -5   4  -5 348.888  11.613   2
  -5   4  -5 376.805   9.762   3
   5  -4   5 365.108   9.052   1
  -6   4  -5 62.9124  3.2608   3
  -6   4  -5 52.7836  4.1103   2
   6  -4   5 61.2240  2.9046   1
  -7   4  -5 30.3757  2.4474   3
  -7   4  -5 29.8235  3.3375   2
   7  -4   5 30.7867  2.1744   1
  -8   4  -5 29.0706  2.5711   3
  -8   4  -5 34.5419  3.8113   2
   8  -4   5 34.9306  2.4633   1
  10   3  -5 5.30088 1.26380   1
 -10  -3   5 5.37023 1.34320   3
   9   3  -5 29.8945  2.2039   1
  -9  -3   5 27.5583  1.7396   4
  -9  -3   5 27.4917  2.1451   3
   8   3  -5 87.0470  3.6628   1
  -8  -3   5 95.5392  3.3669   4
  -8  -3   5 87.8629  3.5795   3
   7   3  -5 64.6071  2.9426   1
  -7  -3   5 63.6641  2.6842   4
  -7  -3   5 68.8528  2.7945   3
   6   3  -5 8.06946 1.05597   1
  -6  -3   5 9.36652 0.96861   3
  -6  -3   5 10.6462  1.0644   4
   5   3  -5 298.080   6.658   2
   5   3  -5 289.745   7.297   1
  -5  -3   5 294.615   6.918   3
  -5  -3   5 288.094   7.313   4
   4   3  -5 16.1947  1.2528   1
   4   3  -5 18.8556  0.9709   2
  -4  -3   5 16.3814  0.9158   3
  -4  -3   5 17.2835  1.2211   4
   3   3  -5 35.6161  1.4757   2
   3   3  -5 34.5595  1.6988   1
  -3  -3   5 35.8718  1.7416   4
  -3  -3   5 35.6460  1.2246   3
   2   3  -5 326.575   7.560   1
   2   3  -5 329.277   7.845   2
  -2  -3   5 331.155   7.771   4
  -2  -3   5 327.429   6.885   3
   1   3  -5 100.681   3.317   2
   1   3  -5 96.0716  3.0540   1
  -1  -3   5 102.237   3.052   4
  -1  -3   5 98.3830  2.3406   3
   0   3  -5 20.7629  0.8474   3
   0   3  -5 20.3546  1.4755   2
   0   3  -5 18.5777  1.1799   1
   0  -3   5 21.6376  1.1349   4
  -1   3  -5 44.3185  1.8359   1
  -1   3  -5 35.8297  2.1607   2
   1  -3   5 39.8058  1.4894   4
  -2   3  -5 161.358   4.294   3
  -2   3  -5 157.723   5.490   2
   2  -3   5 155.431   4.350   1
   2  -3   5 157.215   3.704   4
  -3   3  -5 242.544   7.915   2
  -3   3  -5 263.105   6.568   3
   3  -3   5 259.804   5.365   4
   3  -3   5 247.444   6.340   1
  -4   3  -5 115.715   5.053   2
  -4   3  -5 107.439   3.748   3
   4  -3   5 107.495   3.597   1
  -5   3  -5 804.537  20.436   2
  -5   3  -5 806.774  18.008   3
   5  -3   5 788.332  16.957   1
  -6   3  -5 122.044   5.973   2
  -6   3  -5 125.438   4.604   3
   6  -3   5 125.063   4.251   1
  -7   3  -5 59.8183  3.1810   3
  -7   3  -5 55.1775  4.1925   2
   7  -3   5 60.5836  2.9477   1
  -8   3  -5 74.4190  3.8480   3
  -8   3  -5 67.6207  4.8849   2
   8  -3   5 70.8595  3.4176   1
  -9   3  -5 8.05694 2.28424   2
  -9   3  -5 6.97596 1.53930   3
   9  -3   5 9.76986 1.48057   1
  10   2  -5 1.73342 0.90273   1
 -10  -2   5 3.72890 1.15715   3
   9   2  -5 23.0727  1.8883   1
  -9  -2   5 24.1085  2.0547   3
   8   2  -5 26.3263  1.9177   1
  -8  -2   5 29.7575  2.0259   3
  -8  -2   5 28.4504  1.5395   4
   7   2  -5 35.0629  1.9681   1
  -7  -2   5 32.0545  1.6196   4
  -7  -2   5 30.7799  1.8988   3
   6   2  -5 3.59803 0.49497   2
   6   2  -5 3.82194 0.75511   1
  -6  -2   5 3.64149 0.71573   3
  -6  -2   5 3.86787 0.64492   4
   5   2  -5 249.852   5.909   2
   5   2  -5 258.480   6.368   1
  -5  -2   5 263.709   6.346   3
  -5  -2   5 257.399   6.266   4
   4   2  -5 166.801   4.405   1
   4   2  -5 162.245   3.955   2
  -4  -2   5 161.334   4.094   3
  -4  -2   5 160.398   4.296   4
   3   2  -5 166.952   4.061   2
   3   2  -5 168.085   4.335   1
  -3  -2   5 168.509   3.937   3
  -3  -2   5 168.743   4.330   4
   2   2  -5 772.007  15.775   1
   2   2  -5 778.636  16.630   2
  -2  -2   5 821.120  15.905   3
  -2  -2   5 783.857  16.204   4
   1   2  -5 569.059  12.410   2
   1   2  -5 564.618  11.607   1
  -1  -2   5 565.136  11.783   4
   0   2  -5 880.279  17.375   1
   0   2  -5 874.550  19.000   2
   0  -2   5 883.088  17.620   4
  -1   2  -5 171.726   5.027   2
  -1   2  -5 169.388   4.243   1
   1  -2   5 170.938   3.859   4
  -2   2  -5 257.977   7.364   2
  -2   2  -5 271.684   6.178   3
   2  -2   5 265.049   6.260   1
   2  -2   5 271.653   5.586   4
  -3   2  -5 102.891   3.090   3
  -3   2  -5 105.661   4.165   2
   3  -2   5 99.0490  3.1709   1
  -4   2  -5 21.2527  1.9608   2
  -4   2  -5 21.9539  1.3465   3
   4  -2   5 22.5424  1.4092   1
  -5   2  -5 487.827  13.578   2
  -5   2  -5 501.191  11.659   3
   5  -2   5 509.451  11.231   1
  -6   2  -5 266.107   9.064   2
  -6   2  -5 263.194   7.255   3
   6  -2   5 256.841   6.892   1
  -7   2  -5 92.6214  3.8660   3
  -7   2  -5 93.9629  5.1848   2
   7  -2   5 89.7802  3.6102   1
  -8   2  -5 13.9885  1.6747   3
  -8   2  -5 13.4014  2.3296   2
   8  -2   5 14.2863  1.4989   1
  -9   2  -5 35.9087  3.6781   2
  -9   2  -5 32.9909  2.6426   3
   9  -2   5 34.9066  2.4074   1
  10   1  -5 21.4316  1.9338   1
 -10  -1   5 18.5564  2.1586   3
   9   1  -5 36.4649  2.2392   1
  -9  -1   5 34.1085  2.4984   3
   8   1  -5 20.4527  1.5883   1
  -8  -1   5 22.0197  1.8442   3
  -8  -1   5 18.4301  1.0840   4
   7   1  -5 151.920   4.564   2
   7   1  -5 148.526   4.476   1
  -7  -1   5 141.497   4.751   3
  -7  -1   5 146.766   3.822   4
   6   1  -5 207.269   5.461   2
   6   1  -5 200.804   5.264   1
  -6  -1   5 194.882   4.823   4
  -6  -1   5 200.076   5.628   3
   5   1  -5 255.519   6.187   2
   5   1  -5 246.579   5.965   1
  -5  -1   5 251.454   5.748   4
  -5  -1   5 247.026   6.329   3
   4   1  -5 749.861  15.011   1
   4   1  -5 743.605  15.865   2
  -4  -1   5 747.899  15.222   4
  -4  -1   5 744.048  15.748   3
   3   1  -5 64.7685  2.0335   1
   3   1  -5 63.5704  1.9316   2
  -3  -1   5 61.2789  1.9708   3
  -3  -1   5 64.4421  1.9106   4
   2   1  -5 246.538   5.471   1
   2   1  -5 244.543   5.594   2
  -2  -1   5 244.535   5.409   4
  -2  -1   5 247.497   5.415   3
   1   1  -5 1129.69   23.53   2
   1   1  -5 1146.12   21.87   1
  -1  -1   5 1137.97   22.40   4
   0   1  -5 11.5719  0.8155   2
   0   1  -5 11.4836  0.7606   1
   0  -1   5 12.0422  0.6140   4
  -1   1  -5 361.438   7.519   3
  -1   1  -5 361.102   8.569   2
   1  -1   5 369.697   7.759   1
  -2   1  -5 649.401  13.283   3
  -2   1  -5 642.060  14.669   2
   2  -1   5 647.076  13.105   1
  -3   1  -5 90.2420  2.5679   3
  -3   1  -5 91.3798  3.5239   2
   3  -1   5 88.9248  2.8139   1
  -4   1  -5 25.0744  1.9098   2
  -4   1  -5 21.0577  1.1957   3
   4  -1   5 21.5266  1.3156   1
  -5   1  -5 92.9981  3.1544   3
  -5   1  -5 92.6411  4.2379   2
   5  -1   5 96.2713  3.2519   1
  -6   1  -5 605.813  15.734   2
  -6   1  -5 591.413  13.604   3
   6  -1   5 586.964  13.131   1
  -7   1  -5 50.6999  2.6405   3
  -7   1  -5 54.0757  3.6492   2
   7  -1   5 49.2800  2.4919   1
  -8   1  -5 48.0480  3.6951   2
  -8   1  -5 44.0178  2.6681   3
   8  -1   5 48.5129  2.5899   1
  -9   1  -5 67.0804  4.7642   2
  -9   1  -5 88.8136  4.0621   3
   9  -1   5 81.2284  3.6860   1
  10   0  -5 246.163   7.239   1
 -10   0   5 250.903   8.538   3
   9   0  -5 10.4725  1.5192   2
   9   0  -5 14.1833  1.4528   1
  -9   0   5 13.2570  1.7745   3
   8   0  -5 8.92890 1.10834   1
   8   0  -5 7.64281 1.24235   2
  -8   0   5 7.08632 1.28218   3
   7   0  -5 146.430   4.323   1
   7   0  -5 146.161   5.021   2
  -7   0   5 144.399   5.022   3
   6   0  -5 166.724   4.476   1
   6   0  -5 165.059   5.180   2
  -6   0   5 167.150   3.968   4
  -6   0   5 170.688   5.246   3
   5   0  -5 33.8232  1.8230   2
   5   0  -5 31.1436  1.4352   1
  -5   0   5 32.3368  1.1820   4
  -5   0   5 31.8443  1.7912   3
   4   0  -5 14.2492  1.0393   2
   4   0  -5 13.0207  0.8279   1
  -4   0   5 12.5969  1.0126   3
  -4   0   5 13.1790  0.6850   4
   3   0  -5 0.26427 0.20260   1
   3   0  -5 0.08569 0.21163   2
  -3   0   5 0.63115 0.30189   3
   2   0  -5 1574.20   28.73   1
   2   0  -5 1512.48   31.25   2
  -2   0   5 1479.38   30.66   3
   1   0  -5 917.880  19.542   2
   1   0  -5 972.810  18.054   1
  -1   0   5 936.542  19.141   3
   0   0  -5 554.144  12.136   2
   0   0  -5 586.746  11.704   3
   0   0  -5 560.951  11.180   1
   0   0   5 584.529  11.281   1
  -1   0  -5 2107.90   41.25   3
  -1   0  -5 2086.69   42.66   2
   1   0   5 2063.74   39.20   1
  -2   0  -5 1430.12   28.05   3
  -2   0  -5 1408.20   29.43   2
   2   0   5 1376.93   26.91   1
  -3   0  -5 7.01416 0.88104   2
  -3   0  -5 6.62853 0.52989   3
   3   0   5 7.40851 0.70566   1
  -4   0  -5 74.9909  3.1884   2
  -4   0  -5 73.7323  2.3501   3
   4   0   5 69.9894  2.5110   1
  -5   0  -5 316.782   9.025   2
  -5   0  -5 319.924   7.621   3
   5   0   5 322.653   7.633   1
  -6   0  -5 140.352   5.463   2
  -6   0  -5 139.943   4.284   3
   6   0   5 141.118   4.376   1
  -7   0  -5 41.4562  2.2086   3
  -7   0  -5 38.9663  2.9553   2
   7   0   5 42.7909  2.2761   1
  -8   0  -5 198.711   6.005   3
  -8   0  -5 146.661   6.642   2
   8   0   5 195.983   5.847   1
  -9   0  -5 158.608   5.712   3
   9   0   5 146.185   5.307   1
 -10   0  -5 0.34148 0.78952   3
  10   0   5 0.43181 0.82964   1
  10  -1  -5 22.0250  1.8357   1
  10  -1  -5 20.9957  2.4208   2
 -10   1   5 24.7750  2.6399   3
   9  -1  -5 36.5299  2.1058   1
   9  -1  -5 31.9272  2.7604   2
  -9   1   5 33.9750  2.7646   3
   8  -1  -5 22.8038  1.5701   1
   8  -1  -5 23.5247  2.2055   2
  -8   1   5 22.2912  2.1155   3
   7  -1  -5 151.702   5.606   2
   7  -1  -5 151.569   4.306   1
  -7   1   5 151.536   5.448   3
   6  -1  -5 198.063   4.902   1
   6  -1  -5 191.658   6.303   2
  -6   1   5 195.782   6.069   3
   5  -1  -5 249.928   7.290   2
   5  -1  -5 259.762   5.784   1
  -5   1   5 251.518   6.997   3
   4  -1  -5 723.215  16.445   2
   4  -1  -5 744.319  14.101   1
  -4   1   5 691.390  15.898   3
   3  -1  -5 63.6478  1.6846   1
   3  -1  -5 61.5229  2.4436   2
  -3   1   5 59.7528  2.3591   3
   2  -1  -5 257.035   5.053   1
   2  -1  -5 249.450   6.149   2
  -2   1   5 242.116   6.145   3
   1  -1  -5 1137.58   21.55   1
   1  -1  -5 1141.57   23.73   2
  -1   1   5 1148.64   23.43   3
   0  -1  -5 12.6007  0.8043   3
   0  -1  -5 12.2644  0.7130   2
  -1  -1  -5 363.398   7.833   3
  -1  -1  -5 355.089   7.902   2
   1   1   5 360.334   7.322   1
  -2  -1  -5 619.079  13.407   2
  -2  -1  -5 619.400  12.959   3
   2   1   5 629.549  12.446   1
  -3  -1  -5 89.9523  2.9598   2
  -3  -1  -5 90.6732  2.5859   3
   3   1   5 92.9120  2.7288   1
  -4  -1  -5 22.1675  1.5078   2
  -4  -1  -5 22.3056  1.1324   3
   4   1   5 22.4734  1.2986   1
  -5  -1  -5 95.9684  3.8119   2
  -5  -1  -5 98.7116  3.1001   3
   5   1   5 100.605   3.286   1
  -6  -1  -5 597.434  14.405   2
  -6  -1  -5 566.729  12.900   3
   6   1   5 559.852  12.660   1
  -7  -1  -5 44.9654  2.2462   3
   7   1   5 45.5671  2.3633   1
  -8  -1  -5 43.6471  2.4244   3
   8   1   5 45.7841  2.5636   1
  -9  -1  -5 85.6964  3.9160   3
   9   1   5 88.3348  3.8896   1
  10  -2  -5 1.28193 1.20346   2
 -10   2   5 0.93140 1.05763   3
   9  -2  -5 24.8708  2.6199   2
   9  -2  -5 17.5867  1.5379   1
  -9   2   5 25.6329  2.4641   3
   8  -2  -5 22.5697  1.5664   1
   8  -2  -5 22.9402  2.4028   2
  -8   2   5 30.5651  2.4507   3
   7  -2  -5 33.8935  1.6863   1
   7  -2  -5 27.6863  2.4170   2
  -7   2   5 30.9362  2.3782   3
   6  -2  -5 3.95102 0.62240   1
   6  -2  -5 2.68912 0.98824   2
  -6   2   5 5.42129 1.12238   3
   5  -2  -5 259.752   5.571   1
   5  -2  -5 233.456   7.444   2
  -5   2   5 244.793   7.139   3
   4  -2  -5 159.990   5.396   2
   4  -2  -5 169.390   3.718   1
  -4   2   5 164.412   5.152   3
   3  -2  -5 169.811   5.226   2
   3  -2  -5 169.467   3.485   1
  -3   2   5 162.609   4.965   3
   2  -2  -5 787.583  17.399   2
  -2   2   5 784.819  17.076   3
   1  -2  -5 560.049  12.402   2
  -1   2   5 557.167  12.395   3
   0  -2  -5 860.414  18.210   3
   0  -2  -5 861.381  18.129   2
   0   2   5 869.571  16.369   1
  -1  -2  -5 164.040   3.921   2
  -1  -2  -5 165.144   4.309   3
   1   2   5 160.522   3.606   1
  -2  -2  -5 244.353   5.892   3
  -2  -2  -5 244.099   5.640   2
   2   2   5 253.654   5.459   1
  -3  -2  -5 98.0197  2.8849   2
  -3  -2  -5 95.7550  2.8573   3
   3   2   5 95.2667  2.7819   1
  -4  -2  -5 20.2117  1.1696   3
  -4  -2  -5 23.7206  1.4418   2
   4   2   5 19.8035  1.2241   1
  -5  -2  -5 488.265  10.929   3
  -5  -2  -5 485.272  11.697   2
   5   2   5 485.214  10.752   1
  -6  -2  -5 245.018   6.367   3
   6   2   5 243.846   6.488   1
  -7  -2  -5 82.4547  3.2131   3
   7   2   5 87.8321  3.4161   1
  -8  -2  -5 15.2592  1.4287   3
   8   2   5 14.5771  1.5321   1
  -9  -2  -5 38.7834  2.4769   3
   9   2   5 38.9769  2.5971   1
  10  -3  -5 5.54643 1.78672   2
 -10   3   5 2.71050 1.31416   3
   9  -3  -5 25.2299  2.8611   2
  -9   3   5 29.0912  2.7250   3
   8  -3  -5 82.6324  4.8011   2
  -8   3   5 91.1984  4.5863   3
   7  -3  -5 65.6604  4.0488   2
  -7   3   5 63.3384  3.6032   3
   6  -3  -5 8.73713 1.62198   2
  -6   3   5 7.09482 1.28720   3
   5  -3  -5 296.115   9.163   2
   5  -3  -5 300.098   6.381   1
  -5   3   5 297.173   8.546   3
   4  -3  -5 18.6314  0.7906   1
   4  -3  -5 18.7734  1.7601   2
  -4   3   5 17.0243  1.5492   3
   3  -3  -5 39.3850  2.3317   2
  -3   3   5 37.8294  2.1702   3
   2  -3  -5 323.058   8.452   2
  -2   3   5 316.674   8.288   3
   1  -3  -5 92.4398  3.2255   2
  -1   3   5 100.222   3.456   3
   0  -3  -5 21.1474  1.1573   2
   0  -3  -5 19.6419  1.3256   3
   0   3   5 20.6935  0.7077   1
  -1  -3  -5 37.1134  1.7876   3
  -1  -3  -5 38.7662  1.3946   2
   1   3   5 38.8943  1.2669   1
  -2  -3  -5 149.726   3.640   2
  -2  -3  -5 144.694   4.223   3
   2   3   5 153.562   3.678   1
  -3  -3  -5 248.542   5.709   2
  -3  -3  -5 237.815   6.126   3
   3   3   5 241.241   5.657   1
  -4  -3  -5 85.0724  2.8698   2
  -4  -3  -5 98.5192  3.0813   3
   4   3   5 95.2799  2.9915   1
  -5  -3  -5 762.095  16.456   3
   5   3   5 756.991  15.846   1
  -6  -3  -5 112.948   3.713   3
   6   3   5 117.928   3.925   1
  -7  -3  -5 51.9137  2.4299   3
   7   3   5 54.4873  2.6533   1
  -8  -3  -5 64.4442  3.0368   3
   8   3   5 76.6718  3.3949   1
  -9  -3  -5 7.63060 1.24991   3
   9   3   5 8.18428 1.38916   1
   9  -4  -5 94.9321  5.7131   2
  -9   4   5 89.9167  5.0481   3
   8  -4  -5 51.2641  4.0086   2
  -8   4   5 46.4433  3.3955   3
   7  -4  -5 20.8703  2.5756   2
  -7   4   5 20.5452  2.2715   3
   6  -4  -5 102.824   5.218   2
  -6   4   5 105.282   4.736   3
   5  -4  -5 298.530   9.661   2
  -5   4   5 299.802   9.078   3
   4  -4  -5 125.468   5.234   2
  -4   4   5 122.492   4.795   3
   3  -4  -5 30.3847  2.2026   2
  -3   4   5 28.3613  2.0405   3
   2  -4  -5 65.7373  3.0288   2
  -2   4   5 62.8794  2.9682   3
   1  -4  -5 35.0872  1.9529   2
  -1   4   5 31.6477  1.9772   3
   0  -4  -5 143.817   4.690   3
   0  -4  -5 145.904   4.235   2
   0   4   5 149.521   3.269   1
  -1  -4  -5 102.699   3.678   3
  -1  -4  -5 108.044   3.033   2
   1   4   5 108.216   2.736   1
  -2  -4  -5 10.0866  0.6651   2
  -2  -4  -5 8.55201 0.95450   3
   2   4   5 9.15970 0.76541   1
  -3  -4  -5 455.107  10.644   3
   3   4   5 448.954   9.652   1
  -4  -4  -5 80.2506  2.9738   3
   4   4   5 79.3450  2.7610   1
  -5  -4  -5 330.254   8.220   3
   5   4   5 332.109   7.971   1
  -6  -4  -5 53.4438  2.4490   3
   6   4   5 56.3303  2.5737   1
  -7  -4  -5 28.1782  1.8045   3
   7   4   5 29.7638  1.9959   1
  -8  -4  -5 29.2472  1.9858   3
   8   4   5 28.9507  2.1640   1
   8  -5  -5 33.7491  3.6040   2
  -8   5   5 27.8799  2.9461   3
   7  -5  -5 1.28323 1.15579   2
  -7   5   5 1.36936 0.97946   3
   6  -5  -5 8.24874 1.84075   2
  -6   5   5 8.38169 1.61134   3
   5  -5  -5 92.5342  4.9308   2
  -5   5   5 93.8827  4.4758   3
   4  -5  -5 159.662   6.474   2
  -4   5   5 161.346   5.996   3
   3  -5  -5 36.3978  2.6219   2
  -3   5   5 37.4892  2.4943   3
   2  -5  -5 138.130   5.069   2
  -2   5   5 126.917   4.866   3
   1  -5  -5 15.8990  1.4804   2
  -1   5   5 14.4426  1.4562   3
   0  -5  -5 136.652   4.266   2
   0  -5  -5 134.777   4.746   3
  -1  -5  -5 135.185   3.813   2
  -1  -5  -5 136.572   4.661   3
  -2  -5  -5 98.5892  3.6886   3
   2   5   5 95.8639  2.8657   1
  -3  -5  -5 82.5025  3.2364   3
   3   5   5 80.6551  2.6821   1
  -4  -5  -5 22.5580  1.5826   3
   4   5   5 23.2611  1.4830   1
  -5  -5  -5 173.172   5.288   3
   5   5   5 179.657   5.132   1
  -6  -5  -5 73.4845  3.0804   3
   6   5   5 75.6476  3.1418   1
  -7  -5  -5 43.6447  2.4023   3
   7   5   5 51.3537  2.7149   1
  -8  -5  -5 4.09238 1.00342   3
   8   5   5 4.56056 1.13694   1
   7  -6  -5 35.6016  3.6821   2
  -7   6   5 37.0890  3.1485   3
   6  -6  -5 73.9756  4.8865   2
  -6   6   5 77.6159  4.4374   3
   5  -6  -5 86.6428  5.1110   2
  -5   6   5 89.3087  4.6272   3
   4  -6  -5 77.7389  4.4679   2
  -4   6   5 72.3731  3.9512   3
   3  -6  -5 3.69909 1.22720   2
  -3   6   5 4.15206 1.06762   3
   2  -6  -5 18.1921  1.9040   2
  -2   6   5 16.0380  1.8113   3
   1  -6  -5 197.692   6.323   2
  -1   6   5 193.491   6.475   3
   0  -6  -5 2.10457 0.80113   3
   0  -6  -5 2.20121 0.71570   2
  -1  -6  -5 42.3135  2.5138   3
  -2  -6  -5 200.988   6.300   3
  -3  -6  -5 4.18816 0.90731   3
  -4  -6  -5 50.9815  2.6485   3
  -5  -6  -5 53.8572  2.7084   3
   5   6   5 56.4728  2.5930   1
  -6  -6  -5 0.25088 0.52958   3
   6   6   5 0.32782 0.52864   1
  -7  -6  -5 30.2922  2.1112   3
   7   6   5 30.3154  2.2071   1
   6  -7  -5 5.01006 1.79465   2
  -6   7   5 5.33837 1.52025   3
   5  -7  -5 69.6223  4.7100   2
  -5   7   5 68.8089  4.1764   3
   4  -7  -5 56.8747  3.9566   2
  -4   7   5 58.6140  3.6778   3
   3  -7  -5 90.9249  4.7133   2
  -3   7   5 87.2966  4.4703   3
   2  -7  -5 17.4007  2.0077   2
  -2   7   5 16.4973  1.9451   3
   1  -7  -5 3.60340 1.06914   3
   1  -7  -5 4.28611 1.10956   2
   0  -7  -5 202.574   6.891   3
  -1  -7  -5 51.5746  3.0305   3
  -2  -7  -5 16.8592  1.6712   3
  -3  -7  -5 4.61402 1.03962   3
  -4  -7  -5 38.8853  2.4579   3
  -5  -7  -5 16.6451  1.6053   3
   4  -8  -5 17.8279  2.5363   2
  -4   8   5 20.0383  2.4243   3
   3  -8  -5 2.89507 1.44748   2
  -3   8   5 2.45029 1.14895   3
   2  -8  -5 79.7290  4.3559   3
  -2   8   5 88.5238  4.5329   3
   1  -8  -5 50.5342  3.3007   3
   0  -8  -5 2.17567 0.96937   3
  -1  -8  -5 9.83557 1.56167   3
  -2  -8  -5 3.70266 1.09423   3
  -3  -8  -5 5.95017 1.24039   3
   3   8  -6 20.7377  1.9714   1
  -3  -8   6 21.0530  2.0919   4
   2   8  -6 49.5698  2.9442   1
  -2  -8   6 41.7871  2.8654   4
   1   8  -6 33.9884  2.3883   1
  -1  -8   6 33.0968  2.4763   4
   0   8  -6 2.95271 0.93948   1
   0  -8   6 3.92822 1.09402   4
  -1   8  -6 54.1259  2.8986   1
   1  -8   6 44.0039  2.6582   4
  -2   8  -6 134.631   7.035   2
   2  -8   6 131.069   4.949   1
  -3   8  -6 87.2697  5.8111   2
   3  -8   6 80.2743  3.8217   1
   6   7  -6 14.0901  1.8051   1
  -6  -7   6 12.5832  1.7550   4
   5   7  -6 43.7015  2.8441   1
  -5  -7   6 38.8452  2.7627   4
   4   7  -6 31.4617  2.3542   1
  -4  -7   6 32.7238  2.4597   4
   3   7  -6 35.3683  2.3932   1
  -3  -7   6 34.5478  2.4840   4
   2   7  -6 11.1141  1.4234   1
  -2  -7   6 11.7258  1.5216   4
   1   7  -6 82.1886  3.6447   1
  -1  -7   6 87.8120  3.7872   4
   0   7  -6 32.6969  3.0613   2
   0   7  -6 37.8616  2.3295   1
   0  -7   6 34.4756  2.2576   4
  -1   7  -6 26.1746  1.9011   1
  -1   7  -6 20.0737  2.6058   2
   1  -7   6 21.3426  1.7368   4
  -2   7  -6 4.19989 1.56242   2
   2  -7   6 3.62941 0.95195   1
  -3   7  -6 3.77482 1.65252   2
   3  -7   6 4.41586 1.03447   1
  -4   7  -6 43.8453  4.1993   2
   4  -7   6 49.8672  2.9262   1
  -5   7  -6 42.7160  4.2700   2
   5  -7   6 42.4095  2.7927   1
   7   6  -6 1.46343 0.85109   1
  -7  -6   6 2.07593 0.85233   4
   6   6  -6 19.0584  1.8235   1
  -6  -6   6 20.6451  1.9174   4
   5   6  -6 111.565   4.471   1
  -5  -6   6 117.879   4.681   4
   4   6  -6 63.7118  3.1739   1
  -4  -6   6 69.4115  3.3970   4
   3   6  -6 18.1851  1.6393   1
  -3  -6   6 20.5716  1.7531   4
   2   6  -6 17.0433  1.5476   1
  -2  -6   6 17.0310  1.5893   4
   1   6  -6 211.249   6.214   1
   1   6  -6 216.664   7.370   2
  -1  -6   6 213.372   6.360   4
   0   6  -6 7.16310 1.04313   1
   0   6  -6 4.73639 1.36826   2
   0  -6   6 8.58464 1.09498   4
  -1   6  -6 204.393   7.770   2
  -1   6  -6 202.294   5.996   1
   1  -6   6 210.393   5.820   4
  -2   6  -6 111.978   5.544   2
   2  -6   6 97.6889  3.4131   4
   2  -6   6 105.748   3.898   1
  -3   6  -6 69.0506  4.5571   2
   3  -6   6 73.2724  3.2256   1
  -4   6  -6 224.571   9.195   2
   4  -6   6 219.488   6.737   1
  -5   6  -6 62.8476  4.7240   2
   5  -6   6 54.6843  2.9792   1
  -6   6  -6 34.9156  3.9010   2
   6  -6   6 37.4541  2.5859   1
   8   5  -6 32.4448  2.4375   1
  -8  -5   6 31.7283  2.2178   4
   7   5  -6 3.62374 1.03758   1
  -7  -5   6 2.35652 0.82971   4
   6   5  -6 27.8586  2.1002   1
  -6  -5   6 31.4802  2.1168   4
   5   5  -6 25.6949  1.8916   1
  -5  -5   6 23.9013  1.8474   4
   4   5  -6 1.20204 0.56297   1
  -4  -5   6 0.82462 0.54260   4
   3   5  -6 191.339   5.677   1
  -3  -5   6 196.712   5.933   4
   2   5  -6 136.501   4.824   2
   2   5  -6 131.188   4.296   1
  -2  -5   6 121.732   4.309   4
   1   5  -6 390.294  10.527   2
   1   5  -6 371.394   9.206   1
  -1  -5   6 388.191   9.400   4
   0   5  -6 240.618   6.496   1
   0   5  -6 251.713   7.917   2
   0  -5   6 245.548   6.478   4
  -1   5  -6 56.3295  3.4375   2
  -1   5  -6 60.0427  2.6248   1
   1  -5   6 59.2144  2.3506   4
  -2   5  -6 110.712   5.251   2
   2  -5   6 115.190   3.946   1
   2  -5   6 119.979   3.456   4
  -3   5  -6 15.6092  2.1787   2
   3  -5   6 16.1543  1.4212   1
  -4   5  -6 126.492   6.254   2
   4  -5   6 133.435   4.578   1
  -5   5  -6 15.3488  2.4356   2
   5  -5   6 14.2823  1.5271   1
  -6   5  -6 23.0653  3.1153   2
   6  -5   6 23.4455  1.9451   1
  -7   5  -6 17.4583  2.9592   2
   7  -5   6 17.9157  1.8404   1
   9   4  -6 54.7838  3.1525   1
  -9  -4   6 56.8731  2.7203   4
  -9  -4   6 46.3443  2.8378   3
   8   4  -6 22.2999  1.9847   1
  -8  -4   6 19.4244  1.6941   3
  -8  -4   6 25.5726  1.8058   4
   7   4  -6 57.8067  2.8369   1
  -7  -4   6 58.9152  2.7102   4
  -7  -4   6 45.4022  2.3425   3
   6   4  -6 90.7071  3.6003   1
  -6  -4   6 83.5896  3.4018   4
  -6  -4   6 82.2071  2.9527   3
   5   4  -6 11.4000  1.2704   1
  -5  -4   6 11.4097  1.2009   4
  -5  -4   6 12.8919  0.9409   3
   4   4  -6 51.0988  2.4255   1
  -4  -4   6 52.8917  1.7998   3
  -4  -4   6 51.8959  2.4294   4
   3   4  -6 342.060   8.357   2
   3   4  -6 332.341   8.150   1
  -3  -4   6 331.295   7.231   3
  -3  -4   6 330.205   8.307   4
   2   4  -6 8.22438 1.01150   2
   2   4  -6 8.07096 0.96808   1
  -2  -4   6 6.70919 0.88110   4
  -2  -4   6 6.64196 0.49488   3
   1   4  -6 28.3321  1.6218   1
   1   4  -6 30.9442  1.9614   2
  -1  -4   6 23.0952  0.9584   3
  -1  -4   6 30.3081  1.5835   4
   0   4  -6 62.0994  2.5272   1
   0   4  -6 69.2434  3.2152   2
   0  -4   6 60.8818  1.9088   3
   0  -4   6 62.0699  2.3552   4
  -1   4  -6 101.861   4.385   2
  -1   4  -6 104.697   3.064   3
  -1   4  -6 106.804   3.503   1
   1  -4   6 106.264   3.126   4
  -2   4  -6 233.430   7.890   2
   2  -4   6 248.891   5.688   4
   2  -4   6 249.102   6.410   1
  -3   4  -6 153.011   6.275   2
   3  -4   6 152.393   4.684   1
   3  -4   6 154.068   3.667   4
  -4   4  -6 108.846   3.950   3
  -4   4  -6 99.3687  5.1069   2
   4  -4   6 101.994   3.778   1
  -5   4  -6 104.922   5.622   2
  -5   4  -6 114.693   4.353   3
   5  -4   6 119.430   4.211   1
  -6   4  -6 54.5002  3.0344   3
  -6   4  -6 49.5373  4.0139   2
   6  -4   6 47.2321  2.6634   1
  -7   4  -6 30.7723  2.4532   3
  -7   4  -6 34.2389  3.5701   2
   7  -4   6 24.7051  2.0128   1
  -8   4  -6 21.5186  3.1747   2
  -8   4  -6 20.9884  2.3022   3
   8  -4   6 24.5210  2.1582   1
 -10  -3   6 24.8335  2.3201   3
   9   3  -6 4.84754 1.13388   1
  -9  -3   6 4.04508 0.81406   4
  -9  -3   6 3.12896 1.06377   3
   8   3  -6 6.97400 1.16709   1
  -8  -3   6 6.98300 0.95674   4
  -8  -3   6 4.62924 1.01474   3
   7   3  -6 10.6633  1.2953   1
  -7  -3   6 7.94003 0.98708   4
  -7  -3   6 8.41903 1.08666   3
   6   3  -6 409.723   9.792   1
  -6  -3   6 405.284   9.640   4
  -6  -3   6 404.869   9.600   3
   5   3  -6 19.9686  1.4805   1
   5   3  -6 21.2367  1.0927   2
  -5  -3   6 20.1754  1.3728   4
  -5  -3   6 22.6668  1.2914   3
   4   3  -6 89.2505  2.7355   2
   4   3  -6 88.6359  3.1704   1
  -4  -3   6 96.8299  3.1812   4
  -4  -3   6 91.5533  2.6284   3
   3   3  -6 345.405   8.038   1
   3   3  -6 340.000   8.002   2
  -3  -3   6 332.967   8.065   4
  -3  -3   6 348.332   7.334   3
   2   3  -6 61.8811  2.3996   1
   2   3  -6 63.8133  2.3689   2
  -2  -3   6 62.1973  2.2949   4
  -2  -3   6 62.5098  1.5860   3
   1   3  -6 74.1264  2.6192   1
   1   3  -6 72.6465  2.8099   2
  -1  -3   6 72.8110  2.4396   4
   0   3  -6 621.656  13.034   1
   0   3  -6 625.458  14.542   2
   0  -3   6 613.853  12.983   4
  -1   3  -6 100.046   3.205   1
  -1   3  -6 103.293   4.018   2
   1  -3   6 106.178   2.807   4
  -2   3  -6 156.120   5.719   2
   2  -3   6 169.287   4.650   1
   2  -3   6 172.016   3.896   4
  -3   3  -6 145.639   5.755   2
  -3   3  -6 167.375   4.582   3
   3  -3   6 158.667   4.639   1
  -4   3  -6 178.112   5.151   3
  -4   3  -6 168.489   6.636   2
   4  -3   6 173.366   5.095   1
  -5   3  -6 83.4329  4.5658   2
  -5   3  -6 74.8900  3.2134   3
   5  -3   6 76.5625  3.1959   1
  -6   3  -6 67.0315  4.3801   2
  -6   3  -6 66.2713  3.1455   3
   6  -3   6 68.7191  3.0439   1
  -7   3  -6 14.2724  2.4390   2
  -7   3  -6 13.1170  1.6082   3
   7  -3   6 14.4896  1.5306   1
  -8   3  -6 31.1431  2.4737   3
  -8   3  -6 26.2296  3.2528   2
   8  -3   6 30.6120  2.2850   1
  -9   3  -6 29.8739  2.6371   3
  -9   3  -6 30.1451  3.6586   2
   9  -3   6 24.6824  2.1535   1
  10   2  -6 42.7522  2.7075   1
 -10  -2   6 39.7958  2.9429   3
   9   2  -6 33.4865  2.2543   1
  -9  -2   6 34.7075  2.4335   3
   8   2  -6 8.85462 1.21236   1
  -8  -2   6 9.73348 1.31955   3
  -8  -2   6 9.94390 0.93926   4
   7   2  -6 38.4423  2.1514   1
  -7  -2   6 41.5482  1.8191   4
  -7  -2   6 40.1999  2.2344   3
   6   2  -6 706.816  15.161   1
   6   2  -6 726.350  15.328   2
  -6  -2   6 700.466  15.092   4
  -6  -2   6 718.736  15.773   3
   5   2  -6 30.5512  1.6975   1
   5   2  -6 33.1412  1.3653   2
  -5  -2   6 32.9611  1.6198   3
  -5  -2   6 34.3232  1.5690   4
   4   2  -6 297.419   6.894   2
   4   2  -6 291.132   7.049   1
  -4  -2   6 312.946   6.961   3
  -4  -2   6 302.648   7.027   4
   3   2  -6 2.76005 0.39969   2
   3   2  -6 2.36206 0.51774   1
  -3  -2   6 3.02842 0.40774   3
  -3  -2   6 2.91498 0.49736   4
   2   2  -6 58.6446  2.1559   1
   2   2  -6 67.1194  2.1173   2
  -2  -2   6 60.1720  2.0234   4
  -2  -2   6 63.3172  1.6175   3
   1   2  -6 33.2571  1.4992   1
   1   2  -6 31.8739  1.4814   2
  -1  -2   6 31.9625  1.2722   4
   0   2  -6 1042.68   22.53   2
   0   2  -6 1034.39   20.54   1
   0  -2   6 1063.51   20.84   4
  -1   2  -6 362.166   7.937   1
  -1   2  -6 354.246   9.019   2
   1  -2   6 360.025   7.514   4
  -2   2  -6 60.5470  2.8858   2
   2  -2   6 64.5219  2.3661   1
  -3   2  -6 96.4527  2.9436   3
  -3   2  -6 99.6675  4.1324   2
   3  -2   6 93.8511  3.1657   1
  -4   2  -6 34.7571  1.6926   3
  -4   2  -6 30.2746  2.3700   2
   4  -2   6 35.5221  1.8563   1
  -5   2  -6 296.850   7.666   3
  -5   2  -6 299.873   9.591   2
   5  -2   6 308.871   7.701   1
  -6   2  -6 40.4364  3.2269   2
  -6   2  -6 44.0178  2.3297   3
   6  -2   6 41.4344  2.2811   1
  -7   2  -6 209.828   8.257   2
  -7   2  -6 205.340   6.385   3
   7  -2   6 192.921   6.071   1
  -8   2  -6 8.59536 1.39991   3
  -8   2  -6 7.33037 1.96923   2
   8  -2   6 7.41704 1.24507   1
  -9   2  -6 38.3939  3.8396   2
  -9   2  -6 42.9408  2.9744   3
   9  -2   6 44.6911  2.7371   1
  10   1  -6 151.554   5.305   1
 -10  -1   6 140.407   5.964   3
   9   1  -6 127.940   4.513   1
  -9  -1   6 119.217   4.988   3
   8   1  -6 10.0063  1.2335   1
  -8  -1   6 12.8829  0.9539   4
  -8  -1   6 12.7039  1.5124   3
   7   1  -6 245.616   6.473   1
   7   1  -6 256.013   6.644   2
  -7  -1   6 252.342   5.901   4
  -7  -1   6 244.319   7.083   3
   6   1  -6 596.636  13.003   2
   6   1  -6 582.431  12.357   1
  -6  -1   6 567.226  13.209   3
  -6  -1   6 550.468  12.037   4
   5   1  -6 58.4908  2.1290   2
   5   1  -6 63.7142  2.2948   1
  -5  -1   6 60.1709  1.9886   4
  -5  -1   6 59.3083  2.4064   3
   4   1  -6 142.777   3.763   2
   4   1  -6 139.115   3.810   1
  -4  -1   6 141.900   3.584   4
  -4  -1   6 144.222   3.959   3
   3   1  -6 13.2115  0.7903   2
   3   1  -6 13.1212  0.8903   1
  -3  -1   6 13.9236  0.7790   4
  -3  -1   6 13.5358  0.8617   3
   2   1  -6 433.846   9.368   2
   2   1  -6 420.936   8.896   1
  -2  -1   6 410.906   8.959   3
  -2  -1   6 432.772   8.897   4
   1   1  -6 698.705  15.053   2
   1   1  -6 715.962  14.094   1
  -1  -1   6 705.290  14.216   4
   0   1  -6 163.320   4.236   2
   0   1  -6 155.290   3.862   1
  -1   1  -6 690.583  13.980   3
  -1   1  -6 700.074  15.336   2
   1  -1   6 689.421  13.925   1
  -2   1  -6 587.455  12.109   3
  -2   1  -6 578.379  13.568   2
   2  -1   6 592.668  12.163   1
  -3   1  -6 127.675   4.523   2
  -3   1  -6 130.536   3.427   3
   3  -1   6 131.158   3.737   1
  -4   1  -6 237.560   5.857   3
  -4   1  -6 240.909   7.343   2
   4  -1   6 234.080   6.016   1
  -5   1  -6 261.170   8.338   2
  -5   1  -6 264.852   6.723   3
   5  -1   6 269.673   6.817   1
  -6   1  -6 15.5846  1.3073   3
  -6   1  -6 17.4472  2.0876   2
   6  -1   6 15.3017  1.3695   1
  -7   1  -6 53.3964  2.7087   3
  -7   1  -6 54.3935  3.7575   2
   7  -1   6 52.9096  2.6620   1
  -8   1  -6 27.1250  2.9924   2
  -8   1  -6 22.1908  1.8891   3
   8  -1   6 19.9741  1.7157   1
  -9   1  -6 34.5763  3.5316   2
  -9   1  -6 44.7486  2.8789   3
   9  -1   6 43.7519  2.7126   1
  10   0  -6 3.68379 1.08103   1
 -10   0   6 3.44576 1.36988   3
   9   0  -6 254.003   7.030   1
   9   0  -6 264.240   7.891   2
  -9   0   6 251.386   8.245   3
   8   0  -6 0.47286 0.54581   1
   8   0  -6 0.86795 0.65153   2
  -8   0   6 -0.1404  0.5855   3
   7   0  -6 443.591  11.237   2
   7   0  -6 452.103  10.096   1
  -7   0   6 444.741  11.405   3
   6   0  -6 271.374   6.513   1
   6   0  -6 274.102   7.378   2
  -6   0   6 275.033   7.509   3
   5   0  -6 23.7643  1.4756   2
   5   0  -6 20.5121  1.1810   1
  -5   0   6 21.7440  1.5265   3
   4   0  -6 8.91753 0.84719   2
   4   0  -6 9.42541 0.71974   1
  -4   0   6 8.42503 0.90402   3
   3   0  -6 44.7036  1.5319   1
   3   0  -6 44.4018  1.7251   2
  -3   0   6 42.9641  1.7988   3
   2   0  -6 23.0825  1.0707   2
   2   0  -6 22.6228  0.9842   1
  -2   0   6 23.8702  1.1441   3
   1   0  -6 26.1496  1.0184   1
   1   0  -6 23.9660  1.0652   2
  -1   0   6 24.7141  1.0119   3
   0   0  -6 1088.11   22.88   2
   0   0  -6 1121.34   22.07   3
   0   0   6 1088.36   21.06   1
  -1   0  -6 299.699   6.235   3
  -1   0  -6 288.190   6.873   2
   1   0   6 286.025   6.323   1
  -2   0  -6 82.9228  2.1964   3
  -2   0  -6 82.3523  2.8379   2
   2   0   6 81.1470  2.5036   1
  -3   0  -6 108.880   3.754   2
  -3   0  -6 111.675   2.946   3
   3   0   6 111.279   3.237   1
  -4   0  -6 838.999  17.696   3
  -4   0  -6 860.403  19.514   2
   4   0   6 849.852  17.305   1
  -5   0  -6 307.929   9.029   2
  -5   0  -6 316.520   7.569   3
   5   0   6 324.649   7.748   1
  -6   0  -6 373.300  10.839   2
  -6   0  -6 380.661   9.173   3
   6   0   6 385.125   9.139   1
  -7   0  -6 3.27161 0.76724   3
  -7   0  -6 2.22192 1.09184   2
   7   0   6 4.61509 0.93324   1
  -8   0  -6 0.26052 0.56506   3
  -8   0  -6 1.11331 1.16433   2
   8   0   6 1.31774 0.68151   1
  -9   0  -6 63.2008  3.4023   3
   9   0   6 66.0776  3.3396   1
  10  -1  -6 108.744   4.405   1
  10  -1  -6 153.579   5.964   2
 -10   1   6 148.558   6.304   3
   9  -1  -6 102.863   3.976   1
   9  -1  -6 128.570   5.337   2
  -9   1   6 127.178   5.474   3
   8  -1  -6 10.3694  1.5689   2
   8  -1  -6 12.6365  1.2443   1
  -8   1   6 12.7384  1.7155   3
   7  -1  -6 244.614   7.627   2
   7  -1  -6 254.789   6.168   1
  -7   1   6 230.933   7.436   3
   6  -1  -6 534.593  13.663   2
   6  -1  -6 573.815  11.628   1
  -6   1   6 557.203  13.498   3
   5  -1  -6 58.6786  2.7876   2
   5  -1  -6 64.3295  2.0638   1
  -5   1   6 63.0579  2.8621   3
   4  -1  -6 138.907   4.429   2
   4  -1  -6 144.661   3.403   1
  -4   1   6 138.005   4.412   3
   3  -1  -6 14.0519  1.0660   2
   3  -1  -6 14.2751  0.7081   1
  -3   1   6 13.3727  1.0863   3
   2  -1  -6 448.265   8.613   1
   2  -1  -6 434.234   9.956   2
  -2   1   6 431.734   9.918   3
   1  -1  -6 689.044  15.018   2
  -1   1   6 708.259  13.529   1
  -1   1   6 719.039  14.969   3
   0  -1  -6 161.383   4.028   2
   0  -1  -6 163.879   4.111   3
  -1  -1  -6 685.640  14.666   2
  -1  -1  -6 704.146  14.351   3
   1   1   6 676.308  13.505   1
  -2  -1  -6 554.447  12.412   2
  -2  -1  -6 570.158  11.922   3
   2   1   6 573.924  11.487   1
  -3  -1  -6 126.602   3.843   2
  -3  -1  -6 127.225   3.358   3
   3   1   6 123.753   3.479   1
  -4  -1  -6 230.667   6.489   2
  -4  -1  -6 225.262   5.552   3
   4   1   6 233.897   5.721   1
  -5  -1  -6 248.617   7.301   2
  -5  -1  -6 250.790   6.213   3
   5   1   6 246.289   6.281   1
  -6  -1  -6 16.2815  1.2003   3
  -6  -1  -6 15.4271  1.7513   2
   6   1   6 12.5708  1.1997   1
  -7  -1  -6 50.7625  2.4401   3
   7   1   6 55.9557  2.6785   1
  -8  -1  -6 20.2864  1.6543   3
   8   1   6 21.2596  1.7967   1
  -9  -1  -6 43.0266  2.6558   3
   9   1   6 41.7991  2.6941   1
  10  -2  -6 47.5424  3.5970   2
 -10   2   6 38.8187  3.3248   3
   9  -2  -6 31.1321  2.8298   2
  -9   2   6 31.7847  2.8246   3
   8  -2  -6 7.93538 1.58174   2
  -8   2   6 8.15096 1.56952   3
   7  -2  -6 43.1913  1.9133   1
   7  -2  -6 40.9642  2.8623   2
  -7   2   6 40.1565  2.7458   3
   6  -2  -6 720.446  14.160   1
   6  -2  -6 696.319  17.334   2
  -6   2   6 683.008  16.670   3
   5  -2  -6 34.5653  1.3362   1
   5  -2  -6 31.9764  2.2354   2
  -5   2   6 32.3267  2.1234   3
   4  -2  -6 286.589   8.062   2
   4  -2  -6 290.889   5.983   1
  -4   2   6 295.145   7.904   3
   3  -2  -6 2.39138 0.65268   2
   3  -2  -6 3.35257 0.29875   1
  -3   2   6 2.47118 0.63728   3
   2  -2  -6 61.2475  2.3996   2
  -2   2   6 61.6027  2.5281   3
   1  -2  -6 32.9413  1.5020   2
  -1   2   6 33.7063  1.6859   3
   0  -2  -6 1008.73   21.05   3
   0  -2  -6 1016.26   21.02   2
   0   2   6 988.037  18.964   1
  -1  -2  -6 355.830   8.095   3
  -1  -2  -6 349.041   7.826   2
   1   2   6 345.347   7.139   1
  -2  -2  -6 59.6211  2.0911   3
  -2  -2  -6 56.8710  1.8757   2
   2   2   6 56.6889  1.8601   1
  -3  -2  -6 90.4627  2.8248   3
  -3  -2  -6 94.1520  2.9352   2
   3   2   6 94.5339  2.8053   1
  -4  -2  -6 31.2411  1.5161   3
  -4  -2  -6 32.2314  1.7620   2
   4   2   6 32.0363  1.5895   1
  -5  -2  -6 296.811   8.023   2
  -5  -2  -6 294.559   7.221   3
   5   2   6 295.205   7.240   1
  -6  -2  -6 40.3403  1.9528   3
   6   2   6 40.7018  2.1275   1
  -7  -2  -6 197.512   5.727   3
   7   2   6 196.945   5.891   1
  -8  -2  -6 7.51810 1.10461   3
   8   2   6 7.45149 1.23312   1
  -9  -2  -6 41.0247  2.5743   3
   9   2   6 39.6852  2.6452   1
  10  -3  -6 23.0289  2.8994   2
   9  -3  -6 3.26225 1.33975   2
  -9   3   6 3.62576 1.39734   3
   8  -3  -6 5.66096 1.51637   2
  -8   3   6 5.16850 1.35428   3
   7  -3  -6 7.82151 1.56946   2
  -7   3   6 6.40519 1.39441   3
   6  -3  -6 386.320  11.444   2
  -6   3   6 409.789  11.113   3
   5  -3  -6 18.4522  1.8698   2
  -5   3   6 19.4491  1.7677   3
   4  -3  -6 84.7639  3.8321   2
  -4   3   6 90.5466  3.7820   3
   3  -3  -6 316.777   8.746   2
  -3   3   6 330.732   8.663   3
   2  -3  -6 62.4049  2.6748   2
  -2   3   6 60.4489  2.7391   3
   1  -3  -6 70.6294  2.6188   2
  -1   3   6 72.9134  2.9133   3
   0  -3  -6 607.899  13.896   3
   0  -3  -6 610.312  13.504   2
   0   3   6 635.900  11.850   1
  -1  -3  -6 100.489   3.425   3
  -1  -3  -6 106.350   2.874   2
   1   3   6 104.399   2.580   1
  -2  -3  -6 157.052   4.510   3
  -2  -3  -6 160.169   3.985   2
   2   3   6 159.895   3.878   1
  -3  -3  -6 153.509   3.978   2
  -3  -3  -6 147.013   4.298   3
   3   3   6 149.892   3.932   1
  -4  -3  -6 152.824   4.448   3
  -4  -3  -6 164.771   4.525   2
   4   3   6 160.828   4.368   1
  -5  -3  -6 72.8830  2.6934   3
   5   3   6 68.8892  2.7125   1
  -6  -3  -6 61.8528  2.5779   3
   6   3   6 65.3143  2.8110   1
  -7  -3  -6 14.8830  1.2789   3
   7   3   6 13.1203  1.4035   1
  -8  -3  -6 28.8104  1.9486   3
   8   3   6 28.8978  2.0803   1
  -9  -3  -6 27.7037  2.0767   3
   9   3   6 22.7663  2.1063   1
   9  -4  -6 55.2629  4.2280   2
  -9   4   6 50.0790  3.7763   3
   8  -4  -6 25.3052  2.8319   2
  -8   4   6 25.4394  2.5968   3
   7  -4  -6 56.1896  3.8628   2
  -7   4   6 58.5279  3.6455   3
   6  -4  -6 82.7271  4.4918   2
  -6   4   6 83.9305  4.2685   3
   5  -4  -6 11.3116  1.6808   2
  -5   4   6 12.0129  1.6584   3
   4  -4  -6 53.4158  3.1404   2
  -4   4   6 51.9021  2.9499   3
   3  -4  -6 325.535   9.261   2
  -3   4   6 328.008   9.122   3
   2  -4  -6 6.02881 0.99630   2
  -2   4   6 7.64303 1.12745   3
   1  -4  -6 26.9586  1.6773   2
  -1   4   6 29.4541  1.9170   3
   0  -4  -6 60.5700  2.3182   2
   0  -4  -6 65.9982  2.8556   3
  -1  -4  -6 106.809   2.982   2
  -1  -4  -6 99.4658  3.6390   3
   1   4   6 101.597   2.607   1
  -2  -4  -6 248.378   5.710   2
  -2  -4  -6 235.518   6.502   3
   2   4   6 240.620   5.520   1
  -3  -4  -6 145.068   4.495   3
   3   4   6 144.904   3.895   1
  -4  -4  -6 96.9742  3.3673   3
   4   4   6 91.6589  3.0789   1
  -5  -4  -6 104.181   3.598   3
   5   4   6 106.143   3.563   1
  -6  -4  -6 42.2629  2.2040   3
   6   4   6 47.2451  2.3710   1
  -7  -4  -6 30.4118  1.9044   3
   7   4   6 28.0165  1.9990   1
  -8  -4  -6 23.1048  1.8131   3
   8   4   6 24.6919  1.9999   1
   8  -5  -6 28.8801  3.2052   2
  -8   5   6 29.0711  3.0550   3
   7  -5  -6 3.81024 1.48312   2
  -7   5   6 5.11506 1.44865   3
   6  -5  -6 28.6768  2.8058   2
  -6   5   6 30.8664  2.6585   3
   5  -5  -6 24.8486  2.4507   2
  -5   5   6 22.2938  2.2217   3
   4  -5  -6 0.58428 0.78952   2
  -4   5   6 1.22646 0.76328   3
   3  -5  -6 205.255   6.916   2
  -3   5   6 194.829   6.686   3
   2  -5  -6 123.596   4.711   2
  -2   5   6 126.640   4.890   3
   1  -5  -6 383.200   9.907   2
  -1   5   6 388.966  10.292   3
   0  -5  -6 235.758   6.253   2
   0  -5  -6 228.860   6.922   3
  -1  -5  -6 62.1045  2.9184   3
  -1  -5  -6 59.3256  2.1579   2
  -2  -5  -6 109.234   3.997   3
  -3  -5  -6 14.7133  1.3157   3
   3   5   6 18.7417  1.2281   1
  -4  -5  -6 116.903   4.151   3
   4   5   6 125.691   3.803   1
  -5  -5  -6 15.9404  1.3664   3
   5   5   6 18.2935  1.4361   1
  -6  -5  -6 18.4454  1.5022   3
   6   5   6 19.4500  1.6170   1
  -7  -5  -6 16.3180  1.4968   3
   7   5   6 17.5915  1.7055   1
   7  -6  -6 2.72743 1.50925   2
  -7   6   6 0.95869 0.99447   3
   6  -6  -6 18.2498  2.5692   2
  -6   6   6 18.5147  2.3114   3
   5  -6  -6 118.050   5.788   2
  -5   6   6 123.554   5.590   3
   4  -6  -6 77.8265  4.3166   2
  -4   6   6 69.7475  3.9367   3
   3  -6  -6 17.9468  2.0498   2
  -3   6   6 15.7201  1.8587   3
   2  -6  -6 17.6990  1.7998   2
  -2   6   6 17.6377  1.8872   3
   1  -6  -6 207.817   6.444   2
   1  -6  -6 211.295   6.927   3
  -1   6   6 210.517   6.900   3
   0  -6  -6 9.41789 1.08329   2
   0  -6  -6 7.07587 1.25146   3
  -1  -6  -6 207.063   6.650   3
  -2  -6  -6 101.350   4.087   3
  -3  -6  -6 60.4793  2.9638   3
  -4  -6  -6 205.590   6.332   3
  -5  -6  -6 57.7800  2.8530   3
  -6  -6  -6 31.3179  2.1094   3
   6  -7  -6 13.3864  2.4481   2
  -6   7   6 18.8292  2.4504   3
   5  -7  -6 38.9728  3.4828   2
  -5   7   6 41.6629  3.2848   3
   4  -7  -6 35.2645  3.0921   2
  -4   7   6 32.5579  2.7880   3
   3  -7  -6 38.4555  3.0250   2
  -3   7   6 35.5433  2.8328   3
   2  -7  -6 10.4760  1.6131   2
  -2   7   6 8.86061 1.51265   3
   1  -7  -6 59.7405  3.1986   2
   1  -7  -6 81.6460  3.9822   3
   0  -7  -6 37.2916  2.6991   3
  -1  -7  -6 21.8063  1.9965   3
  -2  -7  -6 3.22703 0.96392   3
  -3  -7  -6 5.64456 1.13883   3
  -4  -7  -6 47.8523  2.7935   3
  -5  -7  -6 44.8009  2.6556   3
   3  -8  -6 23.3110  2.5793   2
  -3   8   6 22.5004  2.4881   3
   2  -8  -6 42.5210  3.1738   3
   1  -8  -6 33.9065  2.7913   3
   0  -8  -6 3.60251 1.15138   3
  -1  -8  -6 53.5192  3.2873   3
  -2  -8  -6 129.466   5.338   3
  -3  -8  -6 79.3021  3.9178   3
   3   8  -7 2.67334 1.01371   1
  -3  -8   7 3.57235 1.18261   4
   2   8  -7 4.13486 1.18607   1
  -2  -8   7 2.90324 1.04785   4
   1   8  -7 14.7450  1.6910   1
  -1  -8   7 14.6184  1.7043   4
   0   8  -7 6.99386 1.30062   1
   0  -8   7 8.88298 1.36277   4
  -1   8  -7 39.5272  2.5832   1
  -2   8  -7 14.1540  2.7764   2
   2  -8   7 14.3568  1.7297   1
   5   7  -7 94.2258  4.3372   1
  -5  -7   7 91.5120  4.2592   4
   4   7  -7 36.7491  2.5346   1
  -4  -7   7 32.9052  2.4408   4
   3   7  -7 22.7922  2.0524   1
  -3  -7   7 23.2566  2.0485   4
   2   7  -7 57.0693  3.1134   1
  -2  -7   7 61.1525  3.1737   4
   1   7  -7 24.9037  2.0012   1
  -1  -7   7 25.1578  1.9677   4
   0   7  -7 66.7271  4.2839   2
   0   7  -7 59.4552  3.0530   1
   0  -7   7 66.0044  3.0276   4
  -1   7  -7 51.7039  3.9285   2
  -1   7  -7 43.3703  2.5490   1
   1  -7   7 39.3466  2.2650   4
  -2   7  -7 26.1960  3.1444   2
   2  -7   7 30.8765  2.1703   1
  -3   7  -7 2.21166 1.43774   2
   3  -7   7 1.02935 0.74834   1
  -4   7  -7 59.0563  4.8342   2
   4  -7   7 59.3370  3.2921   1
   7   6  -7 77.8494  3.8499   1
  -7  -6   7 74.4742  3.7075   4
   6   6  -7 46.4876  2.8774   1
  -6  -6   7 49.6019  2.8881   4
   5   6  -7 66.7316  3.3850   1
  -5  -6   7 64.1561  3.2552   4
   4   6  -7 12.2668  1.5037   1
  -4  -6   7 10.9041  1.4232   4
   3   6  -7 13.1546  1.4770   1
  -3  -6   7 15.3019  1.5720   4
   2   6  -7 25.6846  1.8974   1
  -2  -6   7 26.0500  1.8725   4
   1   6  -7 111.512   4.219   1
   1   6  -7 115.171   5.137   2
  -1  -6   7 116.355   4.138   4
   0   6  -7 2.28727 1.14052   2
   0   6  -7 0.76582 0.54961   1
   0  -6   7 0.83362 0.54212   4
  -1   6  -7 55.3675  3.7608   2
  -1   6  -7 55.3647  2.7399   1
   1  -6   7 56.9607  2.4729   4
  -2   6  -7 35.3883  3.1516   2
   2  -6   7 24.8967  1.5094   4
   2  -6   7 32.2112  2.0894   1
  -3   6  -7 7.48479 1.83765   2
   3  -6   7 4.82071 1.05743   1
  -4   6  -7 59.1899  4.5194   2
   4  -6   7 53.7894  2.9935   1
   5  -6   7 38.8201  2.5961   1
  -6   6  -7 41.0063  4.1901   2
   6  -6   7 46.4616  2.9866   1
   8   5  -7 86.5606  4.1361   1
  -8  -5   7 93.4638  3.8793   4
   7   5  -7 0.77760 0.72238   1
  -7  -5   7 1.11335 0.69390   4
   6   5  -7 32.4424  2.2517   1
  -6  -5   7 32.0727  2.1650   4
   5   5  -7 33.1129  2.1985   1
  -5  -5   7 30.4891  2.0518   4
   4   5  -7 96.5755  3.8419   1
  -4  -5   7 99.2773  3.8100   4
   3   5  -7 10.3350  1.2615   1
  -3  -5   7 10.0032  1.2009   4
   2   5  -7 374.526  10.122   2
   2   5  -7 367.017   9.234   1
  -2  -5   7 373.687   9.260   4
   1   5  -7 7.96109 1.08548   1
   1   5  -7 10.1411  1.4917   2
  -1  -5   7 9.76872 1.09529   4
   0   5  -7 24.0460  2.1989   2
   0   5  -7 23.2413  1.6175   1
   0  -5   7 23.9496  1.5027   4
  -1   5  -7 28.2892  2.4937   2
  -1   5  -7 28.6232  1.8288   1
   1  -5   7 26.6293  1.4870   4
  -2   5  -7 37.2251  3.0158   2
   2  -5   7 35.8819  2.0985   1
   2  -5   7 35.5900  1.6073   4
  -3   5  -7 166.775   7.127   2
   3  -5   7 175.429   5.478   1
  -4   5  -7 205.345   8.544   2
   4  -5   7 222.736   6.517   1
  -5   5  -7 2.01438 1.25775   2
   5  -5   7 1.15318 0.73067   1
  -6   5  -7 5.33317 1.80494   2
   6  -5   7 3.62142 1.05446   1
  -7   5  -7 19.7644  3.2551   2
   7  -5   7 23.7096  2.1267   1
   9   4  -7 20.0008  1.9908   1
  -9  -4   7 18.2046  1.6079   4
   8   4  -7 5.76561 1.23022   1
  -8  -4   7 6.48588 1.04925   4
   7   4  -7 57.0204  2.9703   1
  -7  -4   7 56.4611  2.6935   4
   6   4  -7 56.2119  2.8086   1
  -6  -4   7 55.7069  2.6242   4
   5   4  -7 3.63605 0.85237   1
  -5  -4   7 2.32004 0.66166   4
   4   4  -7 476.382  11.145   1
   4   4  -7 494.367  11.288   2
  -4  -4   7 461.573  11.147   4
   3   4  -7 179.401   5.299   2
   3   4  -7 178.658   5.224   1
  -3  -4   7 176.348   5.147   4
   2   4  -7 235.111   6.676   2
   2   4  -7 228.739   6.246   1
  -2  -4   7 237.852   6.164   4
   1   4  -7 22.8861  1.7711   2
   1   4  -7 18.2357  1.3789   1
  -1  -4   7 17.9547  1.2451   4
   0   4  -7 103.619   3.522   1
   0   4  -7 102.513   4.263   2
   0  -4   7 111.285   3.294   4
  -1   4  -7 234.994   6.197   1
  -1   4  -7 231.710   7.577   2
   1  -4   7 235.112   5.644   4
  -2   4  -7 40.3452  2.8690   2
   2  -4   7 41.5787  1.5535   4
   2  -4   7 40.9396  2.1252   1
  -3   4  -7 39.8471  3.0307   2
   3  -4   7 40.5869  1.4246   4
   3  -4   7 36.9241  2.0997   1
  -4   4  -7 42.2214  3.2957   2
   4  -4   7 42.5480  2.3538   1
  -5   4  -7 4.05500 1.44726   2
   5  -4   7 2.91937 0.82848   1
  -6   4  -7 52.4167  4.1743   2
   6  -4   7 58.1449  3.0172   1
  -7   4  -7 53.4255  4.5265   2
   7  -4   7 60.3983  3.1771   1
  -8   4  -7 19.4165  3.1755   2
   8  -4   7 14.6884  1.8256   1
   9   3  -7 15.1397  1.7175   1
  -9  -3   7 9.81615 1.46107   3
  -9  -3   7 14.8742  1.2782   4
   8   3  -7 33.0445  2.2433   1
  -8  -3   7 39.5288  1.9723   4
  -8  -3   7 27.2384  2.0671   3
   7   3  -7 192.520   5.739   1
  -7  -3   7 194.536   5.280   4
  -7  -3   7 165.918   5.433   3
   6   3  -7 45.6164  2.4091   1
  -6  -3   7 42.7709  2.0690   4
  -6  -3   7 44.8479  2.1307   3
   5   3  -7 277.402   7.164   1
   5   3  -7 274.884   6.628   2
  -5  -3   7 271.370   6.924   4
  -5  -3   7 280.744   6.700   3
   4   3  -7 118.515   3.442   2
   4   3  -7 114.370   3.772   1
  -4  -3   7 121.020   3.208   3
  -4  -3   7 111.313   3.592   4
   3   3  -7 32.2415  1.7418   1
   3   3  -7 32.5954  1.5523   2
  -3  -3   7 35.2163  1.6555   4
  -3  -3   7 25.7922  1.0840   3
   2   3  -7 40.3615  1.9299   1
   2   3  -7 40.5228  1.9132   2
  -2  -3   7 42.2932  1.7832   4
   1   3  -7 399.329   9.989   2
   1   3  -7 411.694   9.277   1
  -1  -3   7 416.024   9.090   4
   0   3  -7 164.978   4.578   1
   0   3  -7 168.646   5.301   2
   0  -3   7 167.533   4.184   4
  -1   3  -7 498.440  10.862   1
  -1   3  -7 496.398  12.576   2
   1  -3   7 494.098  10.387   4
  -2   3  -7 13.5113  0.9621   3
  -2   3  -7 13.2517  1.5633   2
   2  -3   7 13.5017  0.7662   4
   2  -3   7 11.3848  1.0619   1
  -3   3  -7 96.3418  4.4878   2
   3  -3   7 97.2439  3.4535   1
  -4   3  -7 47.2246  3.2773   2
   4  -3   7 43.9944  2.3021   1
  -5   3  -7 2.38334 1.09397   2
  -5   3  -7 1.92652 0.68450   3
   5  -3   7 3.50372 0.87876   1
  -6   3  -7 39.1747  3.4301   2
  -6   3  -7 38.7727  2.3787   3
   6  -3   7 42.5711  2.4165   1
  -7   3  -7 34.2757  2.4381   3
  -7   3  -7 37.9951  3.5969   2
   7  -3   7 35.9716  2.3694   1
  -8   3  -7 1.82073 0.93546   3
  -8   3  -7 2.08438 1.66178   2
   8  -3   7 2.57600 0.97508   1
  10   2  -7 31.2385  2.3866   1
 -10  -2   7 28.0349  2.5346   3
   9   2  -7 15.9594  1.6681   1
  -9  -2   7 16.8838  1.9017   3
   8   2  -7 34.0725  2.1439   1
  -8  -2   7 29.5233  1.5820   4
  -8  -2   7 29.9404  2.1549   3
   7   2  -7 390.245   9.537   1
  -7  -2   7 390.383   9.896   3
  -7  -2   7 396.974   9.020   4
   6   2  -7 45.4991  1.7977   2
   6   2  -7 42.7956  2.1766   1
  -6  -2   7 42.7732  2.1219   3
  -6  -2   7 40.8605  1.8045   4
   5   2  -7 210.373   5.195   2
   5   2  -7 211.591   5.621   1
  -5  -2   7 199.682   5.220   4
  -5  -2   7 210.371   5.466   3
   4   2  -7 133.534   3.919   1
   4   2  -7 128.771   3.563   2
  -4  -2   7 134.460   3.631   3
  -4  -2   7 126.585   3.615   4
   3   2  -7 117.033   3.319   2
   3   2  -7 116.509   3.505   1
  -3  -2   7 114.870   3.270   4
  -3  -2   7 121.399   3.078   3
   2   2  -7 153.898   4.208   2
   2   2  -7 155.655   4.213   1
  -2  -2   7 159.746   3.987   4
   1   2  -7 606.754  13.719   2
   1   2  -7 626.289  12.842   1
  -1  -2   7 619.871  12.742   4
   0   2  -7 37.4008  1.8768   2
   0   2  -7 38.6685  1.6895   1
   0  -2   7 39.4482  1.3822   4
  -1   2  -7 215.976   6.171   2
  -1   2  -7 205.621   5.255   1
   1  -2   7 216.912   4.790   4
  -2   2  -7 36.4460  2.2179   2
   2  -2   7 31.5932  1.6535   1
  -3   2  -7 161.452   4.287   3
  -3   2  -7 158.855   5.708   2
   3  -2   7 163.392   4.671   1
  -4   2  -7 92.2087  4.3927   2
   4  -2   7 100.321   3.487   1
  -5   2  -7 23.1689  1.5230   3
  -5   2  -7 24.4128  2.4238   2
   5  -2   7 22.7071  1.6691   1
  -6   2  -7 35.1058  3.0481   2
  -6   2  -7 36.2263  2.1161   3
   6  -2   7 36.5857  2.1957   1
  -7   2  -7 43.0620  3.6289   2
  -7   2  -7 43.4371  2.5691   3
   7  -2   7 43.4650  2.5521   1
  -8   2  -7 9.01701 1.48295   3
  -8   2  -7 7.62172 2.16988   2
   8  -2   7 7.46762 1.27858   1
  -9   2  -7 0.38389 1.34311   2
  -9   2  -7 0.58720 0.81101   3
   9  -2   7 1.00542 0.81020   1
  10   1  -7 138.424   5.010   1
 -10  -1   7 126.046   5.699   3
   9   1  -7 6.01163 1.14626   1
  -9  -1   7 9.03313 1.55144   3
   8   1  -7 5.51794 1.01091   1
   8   1  -7 5.23647 0.85232   2
  -8  -1   7 5.81119 0.71031   4
  -8  -1   7 4.84583 1.16378   3
   7   1  -7 305.615   7.568   1
   7   1  -7 304.236   7.638   2
  -7  -1   7 294.370   6.947   4
  -7  -1   7 299.234   8.330   3
   6   1  -7 139.950   4.098   1
   6   1  -7 133.579   3.989   2
  -6  -1   7 139.264   3.674   4
  -6  -1   7 135.018   4.524   3
   5   1  -7 130.268   3.665   2
   5   1  -7 130.456   3.773   1
  -5  -1   7 123.548   3.366   4
  -5  -1   7 124.920   3.996   3
   4   1  -7 56.4535  2.1251   1
   4   1  -7 58.2955  2.0227   2
  -4  -1   7 57.1513  1.8729   4
  -4  -1   7 55.3285  2.1746   3
   3   1  -7 139.941   3.726   1
   3   1  -7 139.683   3.722   2
  -3  -1   7 136.447   3.684   3
  -3  -1   7 143.292   3.532   4
   2   1  -7 1196.29   23.32   1
   2   1  -7 1201.13   25.05   2
  -2  -1   7 1209.90   23.85   4
  -2  -1   7 1202.07   24.26   3
   1   1  -7 269.249   6.122   1
   1   1  -7 272.901   6.486   2
   0   1  -7 222.282   5.649   2
   0   1  -7 219.915   5.176   1
  -1   1  -7 372.786   7.730   3
  -1   1  -7 371.670   9.053   2
   1  -1   7 376.395   8.173   1
  -2   1  -7 33.4391  1.1954   3
  -2   1  -7 33.5227  1.9104   2
   2  -1   7 32.9551  1.5813   1
  -3   1  -7 35.9650  1.4240   3
  -3   1  -7 35.1961  2.2237   2
   3  -1   7 35.9211  1.7420   1
  -4   1  -7 86.9140  2.7831   3
  -4   1  -7 84.8909  3.8954   2
   4  -1   7 91.4529  3.1736   1
  -5   1  -7 312.418   7.704   3
  -5   1  -7 316.242   9.575   2
   5  -1   7 310.746   7.834   1
  -6   1  -7 19.3203  1.4412   3
  -6   1  -7 19.1820  2.2298   2
   6  -1   7 17.2909  1.5164   1
  -7   1  -7 73.6166  3.2673   3
  -7   1  -7 73.5854  4.4777   2
   7  -1   7 75.0335  3.3268   1
  -8   1  -7 -0.1483  1.1398   2
  -8   1  -7 -0.0747  0.5533   3
   8  -1   7 -0.0471  0.5484   1
  -9   1  -7 6.14527 1.34113   3
  -9   1  -7 5.91275 2.03563   2
   9  -1   7 5.91369 1.27356   1
  10   0  -7 6.84592 1.27932   1
 -10   0   7 8.86337 1.86277   3
   9   0  -7 60.1043  3.1167   2
   9   0  -7 62.3912  2.9682   1
  -9   0   7 56.8898  3.5611   3
   8   0  -7 171.967   5.098   1
   8   0  -7 171.836   5.612   2
  -8   0   7 171.040   6.147   3
   7   0  -7 278.703   6.782   1
   7   0  -7 270.676   7.540   2
  -7   0   7 263.262   7.913   3
   6   0  -7 112.902   3.844   2
   6   0  -7 109.698   3.366   1
  -6   0   7 108.340   4.100   3
   5   0  -7 41.8625  1.7562   1
   5   0  -7 42.1187  1.9641   2
  -5   0   7 38.4300  2.0850   3
   4   0  -7 665.565  13.290   1
   4   0  -7 659.203  14.559   2
  -4   0   7 650.180  14.563   3
   3   0  -7 120.687   3.090   1
   3   0  -7 119.422   3.397   2
  -3   0   7 113.113   3.458   3
   2   0  -7 3.56642 0.44667   1
   2   0  -7 2.84056 0.43531   2
  -2   0   7 3.56343 0.49232   3
   1   0  -7 1038.47   20.29   1
   1   0  -7 1060.76   22.13   2
  -1   0   7 1068.23   21.41   3
   0   0  -7 1095.21   23.28   2
   0   0  -7 1131.92   22.35   3
   0   0   7 1107.42   21.45   1
  -1   0  -7 1775.93   34.43   3
  -1   0  -7 1730.34   35.94   2
   1   0   7 1693.59   32.98   1
  -2   0  -7 622.151  12.774   3
  -2   0  -7 617.241  13.984   2
   2   0   7 617.106  12.725   1
  -3   0  -7 42.7169  1.5346   3
  -3   0  -7 41.5321  2.1721   2
   3   0   7 43.0198  1.8684   1
  -4   0  -7 4.80244 0.58095   3
  -4   0  -7 3.43612 0.89136   2
   4   0   7 4.26641 0.72704   1
  -5   0  -7 115.259   4.675   2
  -5   0  -7 107.174   3.394   3
   5   0   7 110.277   3.737   1
  -6   0  -7 85.3418  4.2888   2
  -6   0  -7 82.9118  3.0587   3
   6   0   7 79.5005  3.2061   1
  -7   0  -7 96.2037  4.9508   2
  -7   0  -7 99.7484  3.7527   3
   7   0   7 99.9915  3.8370   1
  -8   0  -7 175.913   5.832   3
   8   0   7 174.072   5.748   1
  -9   0  -7 8.81884 1.47188   3
   9   0   7 8.55083 1.42524   1
  10  -1  -7 132.530   5.550   2
 -10   1   7 126.425   5.915   3
   9  -1  -7 5.97364 1.35587   2
  -9   1   7 6.60685 1.54722   3
   8  -1  -7 8.59404 1.43057   2
   8  -1  -7 4.63898 0.84895   1
  -8   1   7 5.61439 1.30143   3
   7  -1  -7 289.202   8.589   2
   7  -1  -7 304.321   7.115   1
  -7   1   7 294.760   8.716   3
   6  -1  -7 138.904   3.656   1
   6  -1  -7 127.554   4.628   2
  -6   1   7 122.784   4.703   3
   5  -1  -7 122.498   4.201   2
   5  -1  -7 126.072   3.292   1
  -5   1   7 118.654   4.288   3
   4  -1  -7 61.2743  1.8686   1
   4  -1  -7 58.2957  2.5202   2
  -4   1   7 58.2443  2.5987   3
   3  -1  -7 147.026   3.366   1
   3  -1  -7 144.863   4.212   2
  -3   1   7 145.783   4.424   3
   2  -1  -7 1277.98   23.41   1
   2  -1  -7 1196.68   25.86   2
  -2   1   7 1232.10   25.64   3
   1  -1  -7 272.344   6.529   2
  -1   1   7 281.740   5.745   1
  -1   1   7 276.466   6.584   3
   0  -1  -7 228.013   5.560   2
   0  -1  -7 233.683   5.541   3
  -1  -1  -7 375.358   8.163   3
  -1  -1  -7 367.846   8.434   2
   1   1   7 366.342   7.765   1
  -2  -1  -7 33.3483  1.3237   3
  -2  -1  -7 31.1556  1.4887   2
   2   1   7 31.8767  1.4086   1
  -3  -1  -7 36.0403  1.4594   3
  -3  -1  -7 36.4859  1.8507   2
   3   1   7 34.8127  1.6176   1
  -4  -1  -7 85.7367  3.4072   2
  -4  -1  -7 86.2858  2.7019   3
   4   1   7 88.2205  2.9790   1
  -5  -1  -7 313.136   8.770   2
  -5  -1  -7 303.046   7.403   3
   5   1   7 306.672   7.557   1
  -6  -1  -7 17.3351  1.2753   3
  -6  -1  -7 15.4758  1.8206   2
   6   1   7 18.3619  1.4548   1
  -7  -1  -7 69.8181  2.9294   3
   7   1   7 68.7671  3.0997   1
  -8  -1  -7 0.22627 0.47553   3
   8   1   7 0.42491 0.63805   1
  -9  -1  -7 6.52697 1.21238   3
   9   1   7 6.53140 1.32788   1
  10  -2  -7 25.4641  2.6513   2
 -10   2   7 27.3022  2.9662   3
   9  -2  -7 18.3381  2.2545   2
  -9   2   7 20.9583  2.4061   3
   8  -2  -7 32.1671  2.6255   2
  -8   2   7 29.4051  2.5550   3
   7  -2  -7 368.207  10.674   2
  -7   2   7 372.635  10.614   3
   6  -2  -7 40.8540  2.6202   2
  -6   2   7 41.4748  2.6382   3
   5  -2  -7 206.172   4.717   1
   5  -2  -7 207.140   6.529   2
  -5   2   7 214.800   6.559   3
   4  -2  -7 116.519   4.107   2
   4  -2  -7 100.592   2.601   1
  -4   2   7 120.062   4.200   3
   3  -2  -7 114.013   3.862   2
  -3   2   7 116.174   3.992   3
   2  -2  -7 157.724   4.464   2
  -2   2   7 149.833   4.601   3
   1  -2  -7 619.431  13.566   2
  -1   2   7 619.320  13.752   3
   0  -2  -7 39.8577  1.5365   2
   0  -2  -7 38.3696  1.7718   3
   0   2   7 38.1627  1.1759   1
  -1  -2  -7 218.398   5.470   3
  -1  -2  -7 215.402   5.252   2
   1   2   7 209.337   4.718   1
  -2  -2  -7 32.4224  1.4385   2
  -2  -2  -7 30.5320  1.4611   3
   2   2   7 32.4492  1.3461   1
  -3  -2  -7 158.597   4.441   2
  -3  -2  -7 155.171   4.201   3
   3   2   7 154.150   4.097   1
  -4  -2  -7 96.5123  3.0973   3
  -4  -2  -7 98.8077  3.5008   2
   4   2   7 97.2130  3.1603   1
  -5  -2  -7 23.5764  1.8465   2
  -5  -2  -7 21.6361  1.3457   3
   5   2   7 24.0152  1.5136   1
  -6  -2  -7 37.5685  1.8982   3
   6   2   7 37.1182  2.0897   1
  -7  -2  -7 40.4940  2.1447   3
   7   2   7 41.2075  2.3823   1
  -8  -2  -7 8.58812 1.19838   3
   8   2   7 6.61483 1.15420   1
  -9  -2  -7 0.46118 0.67716   3
   9   2   7 0.23350 0.74203   1
   9  -3  -7 13.1202  2.1494   2
  -9   3   7 15.8239  2.2615   3
   8  -3  -7 30.9607  2.8704   2
  -8   3   7 35.1907  2.9168   3
   7  -3  -7 190.025   7.199   2
  -7   3   7 194.847   7.016   3
   6  -3  -7 38.3830  2.7898   2
  -6   3   7 36.9551  2.6468   3
   5  -3  -7 269.710   8.337   2
  -5   3   7 276.611   8.315   3
   4  -3  -7 111.658   4.346   2
  -4   3   7 115.721   4.438   3
   3  -3  -7 34.1574  2.0605   2
  -3   3   7 31.5124  2.0672   3
   2  -3  -7 42.6092  2.1033   2
  -2   3   7 42.1568  2.2796   3
   1  -3  -7 419.674   9.990   2
  -1   3   7 432.892  10.418   3
   0  -3  -7 167.396   4.405   2
   0  -3  -7 163.423   4.923   3
   0   3   7 167.237   3.489   1
  -1  -3  -7 500.570  11.525   3
  -1  -3  -7 498.207  10.999   2
   1   3   7 498.486   9.945   1
  -2  -3  -7 11.9098  1.0283   3
  -2  -3  -7 13.6820  0.9038   2
   2   3   7 12.9115  0.8392   1
  -3  -3  -7 89.2772  3.0615   3
  -3  -3  -7 95.2024  2.9026   2
   3   3   7 84.9933  2.7500   1
  -4  -3  -7 39.6812  1.9853   2
  -4  -3  -7 43.0080  1.9396   3
   4   3   7 42.1974  1.9121   1
  -5  -3  -7 2.31402 0.58075   3
   5   3   7 2.66283 0.66367   1
  -6  -3  -7 38.9852  1.9931   3
   6   3   7 38.3877  2.1350   1
  -7  -3  -7 34.1259  1.9886   3
   7   3   7 32.9967  2.1473   1
  -8  -3  -7 1.75381 0.70152   3
   8   3   7 1.57129 0.79603   1
   9  -4  -7 19.6744  2.7309   2
  -9   4   7 17.3767  2.4923   3
   8  -4  -7 8.10929 1.82958   2
  -8   4   7 5.11382 1.54784   3
   7  -4  -7 55.7838  3.8218   2
  -7   4   7 58.1491  3.7055   3
   6  -4  -7 51.5715  3.4409   2
  -6   4   7 51.9884  3.3288   3
   5  -4  -7 1.15353 0.85544   2
  -5   4   7 3.08417 1.03161   3
   4  -4  -7 466.855  12.658   2
  -4   4   7 493.671  12.631   3
   3  -4  -7 164.507   5.568   2
  -3   4   7 164.418   5.680   3
   2  -4  -7 224.456   6.649   2
  -2   4   7 238.067   6.998   3
   1  -4  -7 18.5664  1.3371   2
  -1   4   7 17.8287  1.5222   3
   0  -4  -7 103.734   3.255   2
   0  -4  -7 106.331   3.903   3
  -1  -4  -7 231.918   5.679   2
  -1  -4  -7 228.433   6.524   3
  -2  -4  -7 42.2214  1.6345   2
  -2  -4  -7 40.2791  2.1079   3
   2   4   7 38.0054  1.5491   1
  -3  -4  -7 39.1084  2.0145   3
   3   4   7 40.7747  1.7600   1
  -4  -4  -7 41.9330  2.0630   3
   4   4   7 38.6791  1.8800   1
  -5  -4  -7 1.84620 0.55643   3
   5   4   7 2.13865 0.64092   1
  -6  -4  -7 46.9720  2.3757   3
   6   4   7 54.6330  2.5692   1
  -7  -4  -7 48.9140  2.5297   3
   7   4   7 58.3899  2.8907   1
  -8  -4  -7 13.7941  1.4779   3
   8   4   7 13.1525  1.6047   1
   8  -5  -7 87.3138  5.3351   2
  -8   5   7 99.8461  5.3899   3
   7  -5  -7 0.06818 0.82277   2
  -7   5   7 0.18214 0.73625   3
   6  -5  -7 33.1025  2.9411   2
  -6   5   7 34.7467  2.8822   3
   5  -5  -7 32.0323  2.7497   2
  -5   5   7 32.0314  2.6470   3
   4  -5  -7 101.847   4.704   2
  -4   5   7 101.186   4.624   3
   3  -5  -7 11.7694  1.5188   2
  -3   5   7 9.54095 1.44270   3
   2  -5  -7 360.572   9.781   2
  -2   5   7 366.246  10.131   3
   1  -5  -7 9.66906 1.11099   2
  -1   5   7 9.44150 1.32865   3
   0  -5  -7 24.5181  1.4909   2
   0  -5  -7 23.2099  1.8287   3
  -1  -5  -7 27.0419  1.3860   2
  -1  -5  -7 25.7920  1.8819   3
  -2  -5  -7 32.7828  2.0386   3
  -3  -5  -7 166.142   5.271   3
  -4  -5  -7 199.214   5.939   3
  -5  -5  -7 0.96708 0.50324   3
   5   5   7 0.87584 0.54715   1
  -6  -5  -7 5.16214 0.95722   3
   6   5   7 4.82034 0.97192   1
  -7  -5  -7 19.5707  1.6255   3
   7   5   7 19.3961  1.7759   1
   7  -6  -7 78.1605  5.0582   2
  -7   6   7 72.9069  4.6358   3
   6  -6  -7 51.2405  3.9070   2
  -6   6   7 52.7837  3.7611   3
   5  -6  -7 65.9380  4.1994   2
  -5   6   7 68.7671  4.0592   3
   4  -6  -7 12.8541  1.8872   2
  -4   6   7 11.9454  1.7874   3
   3  -6  -7 15.5887  1.8370   2
  -3   6   7 17.2163  2.0075   3
   2  -6  -7 27.3553  2.1258   2
  -2   6   7 26.3111  2.2556   3
   1  -6  -7 106.740   4.022   2
   1  -6  -7 107.207   4.604   3
   0  -6  -7 1.54741 0.70340   3
   0  -6  -7 1.13002 0.56967   2
  -1  -6  -7 59.3687  3.1222   3
  -2  -6  -7 28.5056  2.0688   3
  -3  -6  -7 5.32042 1.03162   3
  -4  -6  -7 48.6227  2.6604   3
  -5  -6  -7 34.5911  2.2036   3
  -6  -6  -7 36.9865  2.3323   3
   5  -7  -7 95.7507  5.3639   2
  -5   7   7 95.2834  5.1107   3
   4  -7  -7 39.2860  3.1679   2
  -4   7   7 32.5652  2.8558   3
   3  -7  -7 22.5550  2.2257   2
  -3   7   7 22.9086  2.3248   3
   2  -7  -7 54.3138  3.1553   2
  -2   7   7 54.0053  3.4064   3
   1  -7  -7 21.5591  2.0546   3
   1  -7  -7 16.8695  1.6660   2
   0  -7  -7 58.4525  3.3900   3
  -1  -7  -7 46.6616  2.9143   3
  -2  -7  -7 29.7899  2.2901   3
  -3  -7  -7 1.26356 0.74232   3
  -4  -7  -7 54.9670  3.0450   3
   3  -8  -7 4.02276 1.38686   2
  -3   8   7 1.06620 0.89650   3
   2  -8  -7 3.35812 1.20722   3
   1  -8  -7 16.7799  2.1126   3
   0  -8  -7 8.99239 1.58927   3
  -1  -8  -7 35.8216  2.6827   3
  -2  -8  -7 14.9931  1.8891   3
   1   8  -8 6.01244 1.31054   1
  -1  -8   8 5.14159 1.20825   4
   0   8  -8 12.7208  1.6559   1
   0  -8   8 14.1696  1.5729   4
   5   7  -8 10.6997  1.6728   1
  -5  -7   8 11.7762  1.6767   4
   4   7  -8 10.5277  1.5507   1
  -4  -7   8 12.3104  1.6435   4
   3   7  -8 79.9710  3.8147   1
  -3  -7   8 78.4810  3.7315   4
   2   7  -8 11.3982  1.5250   1
  -2  -7   8 13.3910  1.5610   4
   1   7  -8 0.27506 0.66988   1
  -1  -7   8 1.11298 0.74291   4
   0   7  -8 52.4723  2.9224   1
   0   7  -8 55.6132  4.0530   2
   0  -7   8 57.1434  2.7499   4
  -1   7  -8 17.3001  2.5372   2
  -1   7  -8 17.6823  1.6855   1
   1  -7   8 12.7019  1.3004   4
  -2   7  -8 45.2500  3.9948   2
   2  -7   8 48.4502  2.8472   1
  -3   7  -8 63.2648  4.9486   2
   3  -7   8 69.2889  3.5127   1
  -4   7  -8 6.40205 2.13193   2
   4  -7   8 8.24105 1.47222   1
   7   6  -8 7.23505 1.44528   1
  -7  -6   8 5.99386 1.23080   4
   6   6  -8 29.4529  2.3731   1
  -6  -6   8 24.0579  1.9976   4
   5   6  -8 31.3270  2.3320   1
  -5  -6   8 29.9079  2.1829   4
   4   6  -8 69.8301  3.4525   1
  -4  -6   8 71.4935  3.4094   4
   3   6  -8 35.6982  2.3768   1
  -3  -6   8 38.9292  2.3776   4
   2   6  -8 28.0724  2.0671   1
  -2  -6   8 27.5990  1.9534   4
   1   6  -8 66.4953  3.9098   2
   1   6  -8 65.8426  3.1587   1
  -1  -6   8 63.0798  2.8400   4
   0   6  -8 76.9860  4.4344   2
   0   6  -8 75.1601  3.3895   1
   0  -6   8 83.1149  3.1705   4
  -1   6  -8 43.8114  3.4750   2
  -1   6  -8 39.3785  2.3685   1
   1  -6   8 42.8079  2.0539   4
  -2   6  -8 5.69311 1.62470   2
   2  -6   8 7.27327 1.17130   1
  -3   6  -8 94.9969  5.6207   2
   3  -6   8 95.4555  4.0319   1
  -4   6  -8 46.3443  4.0973   2
   4  -6   8 51.6339  2.9743   1
  -5   6  -8 43.9891  4.2657   2
   5  -6   8 51.2674  3.0082   1
   8   5  -8 47.4419  3.0651   1
  -8  -5   8 46.4838  2.6600   4
   7   5  -8 66.3426  3.4559   1
  -7  -5   8 64.7982  3.1312   4
   6   5  -8 3.80120 1.04177   1
  -6  -5   8 4.16596 0.92373   4
   5   5  -8 72.6706  3.3703   1
  -5  -5   8 67.5114  3.0951   4
   4   5  -8 20.2471  1.7582   1
  -4  -5   8 20.8961  1.6497   4
   3   5  -8 12.7988  1.4913   2
   3   5  -8 17.1774  1.5405   1
  -3  -5   8 13.6160  1.3234   4
   2   5  -8 137.720   4.718   1
   2   5  -8 141.515   5.301   2
  -2  -5   8 147.504   4.599   4
   1   5  -8 274.229   7.401   1
   1   5  -8 275.176   8.492   2
  -1  -5   8 269.249   7.025   4
   0   5  -8 45.6847  3.0593   2
   0   5  -8 42.1408  2.3043   1
   0  -5   8 43.6824  2.0162   4
  -1   5  -8 58.0668  3.6962   2
  -1   5  -8 65.5122  2.9202   1
   1  -5   8 66.1189  2.4045   4
  -2   5  -8 12.1025  1.9522   2
   2  -5   8 12.2089  0.9328   4
   2  -5   8 11.8441  1.3319   1
  -3   5  -8 60.7694  4.2115   2
   3  -5   8 69.6658  3.1765   1
  -4   5  -8 16.1323  2.4567   2
   4  -5   8 16.2129  1.6354   1
  -5   5  -8 39.3011  3.7212   2
   5  -5   8 36.3892  2.4638   1
  -6   5  -8 0.25326 1.23145   2
   6  -5   8 0.62178 0.75821   1
   8   4  -8 116.761   4.687   1
  -8  -4   8 117.134   4.131   4
   7   4  -8 86.5521  3.8359   1
  -7  -4   8 88.5880  3.4395   4
   6   4  -8 78.9483  3.4473   1
  -6  -4   8 75.8145  3.0811   4
   5   4  -8 33.8249  2.1129   1
  -5  -4   8 32.4713  1.9099   4
   4   4  -8 2.48539 0.74110   1
   4   4  -8 2.22139 0.64791   2
  -4  -4   8 1.89036 0.62003   4
   3   4  -8 204.480   5.896   2
   3   4  -8 195.846   5.798   1
  -3  -4   8 201.209   5.582   4
   2   4  -8 167.004   5.073   1
   2   4  -8 168.673   5.370   2
  -2  -4   8 165.252   4.735   4
   1   4  -8 24.0595  1.6340   1
   1   4  -8 23.0315  1.8263   2
  -1  -4   8 22.8460  1.3755   4
   0   4  -8 104.061   4.350   2
   0   4  -8 96.4046  3.4965   1
   0  -4   8 99.3842  3.0611   4
  -1   4  -8 104.972   4.661   2
  -1   4  -8 108.680   3.708   1
   1  -4   8 105.956   3.078   4
  -2   4  -8 120.245   5.432   2
   2  -4   8 131.472   4.366   1
   2  -4   8 139.431   3.486   4
  -3   4  -8 117.639   5.543   2
   3  -4   8 120.914   4.220   1
  -4   4  -8 96.2147  5.3122   2
   4  -4   8 109.869   4.118   1
  -5   4  -8 28.8158  3.1196   2
   5  -4   8 31.0472  2.1595   1
  -6   4  -8 18.3970  2.7355   2
   6  -4   8 18.1455  1.8199   1
  -7   4  -8 57.9335  4.8293   2
   7  -4   8 58.0807  3.2404   1
   9   3  -8 2.02454 0.87705   1
  -9  -3   8 2.11592 0.66616   4
   8   3  -8 111.957   4.353   1
  -8  -3   8 109.195   3.696   4
   7   3  -8 28.7458  1.9909   1
  -7  -3   8 24.4152  1.5713   4
   6   3  -8 24.2584  1.7675   1
  -6  -3   8 25.0060  1.5201   4
   5   3  -8 278.818   7.224   1
   5   3  -8 274.968   6.709   2
  -5  -3   8 268.527   6.842   4
   4   3  -8 235.470   6.061   2
   4   3  -8 234.286   6.275   1
  -4  -3   8 233.288   5.998   4
   3   3  -8 4.02716 0.66560   2
   3   3  -8 4.38780 0.79216   1
  -3  -3   8 5.06082 0.69531   4
   2   3  -8 89.1284  3.1434   1
   2   3  -8 85.3902  3.1306   2
  -2  -3   8 82.4426  2.7120   4
   1   3  -8 28.3953  1.6405   1
   1   3  -8 26.7509  1.7393   2
  -1  -3   8 30.0087  1.3870   4
   0   3  -8 67.2608  3.0743   2
   0   3  -8 70.3846  2.6914   1
   0  -3   8 72.0389  2.2464   4
  -1   3  -8 47.9613  2.1560   1
  -1   3  -8 44.4021  2.6112   2
   1  -3   8 46.5948  1.6311   4
  -2   3  -8 9.99411 1.47387   2
   2  -3   8 9.12417 1.02774   1
  -3   3  -8 17.1523  2.0016   2
   3  -3   8 22.4333  1.6172   1
  -4   3  -8 32.6413  2.8107   2
   4  -3   8 32.8292  2.0286   1
  -5   3  -8 108.952   5.674   2
   5  -3   8 121.815   4.405   1
  -6   3  -8 8.22180 1.90542   2
   6  -3   8 7.07507 1.21553   1
  -7   3  -8 33.1940  3.5723   2
   7  -3   8 33.1644  2.3459   1
  -8   3  -8 4.66820 2.00056   2
   8  -3   8 2.97110 1.05699   1
   9   2  -8 2.91835 0.94085   1
  -9  -2   8 3.10912 1.13294   3
  -9  -2   8 2.90544 0.70980   4
   8   2  -8 11.1299  1.3682   1
  -8  -2   8 7.13799 1.27651   3
  -8  -2   8 11.0674  1.0317   4
   7   2  -8 7.33033 1.08683   1
  -7  -2   8 6.36472 0.81066   4
  -7  -2   8 6.54393 1.10933   3
   6   2  -8 265.397   6.463   2
   6   2  -8 260.258   6.832   1
  -6  -2   8 248.063   6.322   4
  -6  -2   8 267.774   7.019   3
   5   2  -8 203.874   5.202   2
   5   2  -8 204.724   5.519   1
  -5  -2   8 198.471   5.438   3
  -5  -2   8 194.231   5.065   4
   4   2  -8 7.42364 0.73488   2
   4   2  -8 8.22341 0.91892   1
  -4  -2   8 9.58516 0.79391   4
  -4  -2   8 8.13355 0.81713   3
   3   2  -8 6.20845 0.77937   1
   3   2  -8 6.12015 0.67678   2
  -3  -2   8 6.75097 0.60450   3
  -3  -2   8 5.61682 0.62974   4
   2   2  -8 67.1029  2.4736   1
   2   2  -8 67.6776  2.4319   2
  -2  -2   8 64.2612  2.1344   4
   1   2  -8 192.927   4.978   1
   1   2  -8 193.263   5.267   2
  -1  -2   8 186.544   4.555   4
   0   2  -8 316.516   7.359   1
   0   2  -8 313.522   8.147   2
   0  -2   8 323.240   6.967   4
  -1   2  -8 204.407   6.212   2
   1  -2   8 216.499   5.497   1
  -2   2  -8 5.36409 1.04222   2
   2  -2   8 4.88680 0.77076   1
  -3   2  -8 21.5495  1.9619   2
   3  -2   8 21.3320  1.4894   1
  -4   2  -8 25.2610  2.2955   2
   4  -2   8 27.3898  1.7554   1
  -5   2  -8 88.9503  4.6824   2
   5  -2   8 92.0959  3.5755   1
  -6   2  -8 165.459   5.246   3
  -6   2  -8 166.220   7.105   2
   6  -2   8 161.464   5.340   1
  -7   2  -8 11.9497  2.2633   2
  -7   2  -8 11.3333  1.4329   3
   7  -2   8 10.7270  1.4401   1
  -8   2  -8 33.5370  2.4785   3
  -8   2  -8 34.9635  3.6986   2
   8  -2   8 33.0849  2.4339   1
  10   1  -8 13.6939  1.6605   1
 -10  -1   8 11.8444  2.0136   3
   9   1  -8 12.6717  1.4834   1
  -9  -1   8 13.5257  1.8903   3
   8   1  -8 24.6595  1.6194   2
   8   1  -8 30.1986  1.9361   1
  -8  -1   8 29.9997  2.3006   3
   7   1  -8 207.753   5.722   1
   7   1  -8 205.099   5.547   2
  -7  -1   8 201.230   5.091   4
  -7  -1   8 196.386   6.292   3
   6   1  -8 11.1132  0.9620   2
   6   1  -8 10.7844  1.0659   1
  -6  -1   8 9.54191 0.83144   4
  -6  -1   8 9.38636 1.20217   3
   5   1  -8 118.530   3.535   2
   5   1  -8 117.457   3.602   1
  -5  -1   8 119.218   3.300   4
  -5  -1   8 120.742   3.929   3
   4   1  -8 12.9183  0.9351   2
   4   1  -8 12.4822  0.9950   1
  -4  -1   8 13.4251  0.8708   4
  -4  -1   8 12.6412  1.0411   3
   3   1  -8 133.020   3.681   2
   3   1  -8 135.426   3.692   1
  -3  -1   8 131.689   3.564   3
  -3  -1   8 133.596   3.453   4
   2   1  -8 175.072   4.682   2
   2   1  -8 180.501   4.563   1
  -2  -1   8 185.612   4.140   3
   1   1  -8 93.0489  2.9155   2
   1   1  -8 93.3357  2.7821   1
   0   1  -8 521.392  12.020   2
   0   1  -8 534.224  11.020   1
   0   1  -8 527.582  10.653   3
  -1   1  -8 190.676   4.161   3
  -1   1  -8 192.304   5.445   2
   1  -1   8 186.886   4.852   1
  -2   1  -8 117.527   3.016   3
  -2   1  -8 123.804   4.275   2
   2  -1   8 122.803   3.643   1
  -3   1  -8 15.0210  0.9034   3
  -3   1  -8 15.3024  1.5006   2
   3  -1   8 14.2562  1.1583   1
  -4   1  -8 24.3431  1.3075   3
  -4   1  -8 22.6075  2.0174   2
   4  -1   8 23.5714  1.5977   1
  -5   1  -8 15.4779  1.9181   2
  -5   1  -8 17.2806  1.2559   3
   5  -1   8 14.6471  1.3357   1
  -6   1  -8 58.4638  3.7970   2
  -6   1  -8 56.3502  2.5542   3
   6  -1   8 54.4445  2.7368   1
  -7   1  -8 2.43507 0.79055   3
  -7   1  -8 2.77114 1.32984   2
   7  -1   8 2.43755 0.81277   1
  -8   1  -8 33.7421  2.4139   3
  -8   1  -8 34.7179  3.5068   2
   8  -1   8 35.4009  2.4156   1
 -10   0   8 21.9598  2.5517   3
   9   0  -8 5.50403 1.10671   2
   9   0  -8 2.24517 0.84603   1
  -9   0   8 3.56592 1.19959   3
   8   0  -8 38.0450  2.1280   1
   8   0  -8 35.8592  2.2144   2
  -8   0   8 35.4182  2.6052   3
   7   0  -8 0.48717 0.49673   1
   7   0  -8 0.10002 0.43065   2
  -7   0   8 0.80213 0.62047   3
   6   0  -8 72.4754  2.6078   1
   6   0  -8 67.5546  2.7951   2
  -6   0   8 67.3899  3.1448   3
   5   0  -8 91.2402  3.1604   2
   5   0  -8 94.8984  2.9107   1
  -5   0   8 89.2563  3.4480   3
   4   0  -8 2.51414 0.48696   1
   4   0  -8 1.99765 0.49495   2
  -4   0   8 1.70397 0.56662   3
   3   0  -8 85.6702  2.5350   1
   3   0  -8 89.9367  2.7947   2
  -3   0   8 83.5867  2.8669   3
   2   0  -8 28.4998  1.3576   2
   2   0  -8 29.8046  1.2786   1
  -2   0   8 29.6183  1.3401   3
   1   0  -8 11.0072  0.7817   1
   1   0  -8 12.6799  0.7458   3
   1   0  -8 10.7238  0.8265   2
   0   0  -8 290.724   7.151   2
   0   0  -8 303.919   6.473   3
   0   0   8 300.689   6.594   1
  -1   0  -8 33.6845  1.1695   3
  -1   0  -8 33.8142  1.6459   2
   1   0   8 35.0114  1.5136   1
  -2   0  -8 109.956   2.891   3
  -2   0  -8 117.467   3.823   2
   2   0   8 114.236   3.360   1
  -3   0  -8 2.63606 0.41784   3
  -3   0  -8 2.41532 0.69744   2
   3   0   8 2.79448 0.59388   1
  -4   0  -8 31.2295  1.4553   3
  -4   0  -8 35.0241  2.2950   2
   4   0   8 33.1798  1.7823   1
  -5   0  -8 44.0453  1.9434   3
  -5   0  -8 46.7564  2.9283   2
   5   0   8 40.2754  2.1563   1
  -6   0  -8 1.54569 0.94399   2
  -6   0  -8 1.54033 0.56052   3
   6   0   8 1.66161 0.68029   1
  -7   0  -8 113.651   4.140   3
  -7   0  -8 120.989   5.712   2
   7   0   8 116.742   4.346   1
  -8   0  -8 1.74093 0.76745   3
   8   0   8 1.93837 0.87578   1
  -9   0  -8 31.2918  2.4348   3
   9   0   8 27.2793  2.2720   1
  10  -1  -8 11.3185  1.7430   2
 -10   1   8 15.3114  2.2927   3
   9  -1  -8 9.16958 1.50037   2
  -9   1   8 8.67959 1.70777   3
   8  -1  -8 28.4781  2.2079   2
  -8   1   8 27.8330  2.4430   3
   7  -1  -8 203.354   6.461   2
   7  -1  -8 205.693   5.354   1
  -7   1   8 203.653   6.820   3
   6  -1  -8 7.67564 0.82995   1
   6  -1  -8 10.7666  1.2606   2
  -6   1   8 10.5115  1.3861   3
   5  -1  -8 121.911   3.249   1
   5  -1  -8 119.545   4.103   2
  -5   1   8 110.699   4.197   3
   4  -1  -8 13.3553  0.8240   1
   4  -1  -8 14.6794  1.1782   2
  -4   1   8 14.4755  1.2791   3
   3  -1  -8 144.426   3.348   1
   3  -1  -8 138.318   4.083   2
  -3   1   8 138.386   4.287   3
   2  -1  -8 177.277   4.726   2
   2  -1  -8 177.217   3.939   1
  -2   1   8 178.262   4.851   3
   1  -1  -8 101.978   3.038   2
  -1   1   8 99.9079  3.0244   3
   0  -1  -8 556.684  11.792   3
   0  -1  -8 533.055  12.030   2
  -1  -1  -8 192.360   4.960   2
  -1  -1  -8 190.343   4.643   3
   1   1   8 185.974   4.503   1
  -2  -1  -8 122.933   3.295   3
  -2  -1  -8 121.606   3.737   2
   2   1   8 123.422   3.403   1
  -3  -1  -8 12.4344  0.8515   3
  -3  -1  -8 15.3453  1.2756   2
   3   1   8 12.8642  1.0126   1
  -4  -1  -8 22.6972  1.7414   2
  -4  -1  -8 22.1010  1.2063   3
   4   1   8 24.0630  1.4662   1
  -5  -1  -8 16.0605  1.1344   3
  -5  -1  -8 17.5889  1.7955   2
   5   1   8 14.6592  1.2710   1
  -6  -1  -8 54.6842  2.3915   3
  -6  -1  -8 56.0760  3.3609   2
   6   1   8 54.1512  2.6148   1
  -7  -1  -8 2.29619 0.71465   3
   7   1   8 3.51188 0.87479   1
  -8  -1  -8 32.3256  2.1518   3
   8   1   8 31.4163  2.2417   1
   9  -2  -8 3.42471 1.25466   2
  -9   2   8 1.89200 1.19697   3
   8  -2  -8 9.08463 1.58286   2
  -8   2   8 11.7821  1.8355   3
   7  -2  -8 8.49706 1.41714   2
  -7   2   8 7.30501 1.40465   3
   6  -2  -8 249.675   7.622   2
  -6   2   8 252.382   7.801   3
   5  -2  -8 182.437   5.799   2
  -5   2   8 179.122   5.969   3
   4  -2  -8 9.38754 1.10281   2
  -4   2   8 8.63783 1.15905   3
   3  -2  -8 6.58046 0.86061   2
  -3   2   8 7.01378 1.00441   3
   2  -2  -8 66.2565  2.4735   2
  -2   2   8 65.0524  2.6996   3
   1  -2  -8 195.021   5.100   2
  -1   2   8 199.300   4.051   1
  -1   2   8 192.891   5.361   3
   0  -2  -8 326.616   7.729   2
   0  -2  -8 334.718   8.003   3
   0   2   8 327.743   6.734   1
  -1  -2  -8 196.242   5.184   3
  -1  -2  -8 205.756   5.116   2
   1   2   8 196.724   4.543   1
  -2  -2  -8 5.81541 0.67320   3
  -2  -2  -8 5.88069 0.69742   2
   2   2   8 6.11182 0.64053   1
  -3  -2  -8 22.3093  1.2368   3
  -3  -2  -8 19.8655  1.3485   2
   3   2   8 22.0774  1.2634   1
  -4  -2  -8 24.5308  1.7140   2
  -4  -2  -8 26.2961  1.4089   3
   4   2   8 23.1441  1.4457   1
  -5  -2  -8 93.8234  3.1908   3
  -5  -2  -8 97.7179  4.0074   2
   5   2   8 94.8292  3.3773   1
  -6  -2  -8 153.330   4.688   3
   6   2   8 161.433   4.963   1
  -7  -2  -8 10.7973  1.1956   3
   7   2   8 11.3620  1.3617   1
  -8  -2  -8 28.7921  2.0064   3
   8   2   8 30.2382  2.2271   1
   9  -3  -8 3.98961 1.40407   2
  -9   3   8 3.14355 1.33293   3
   8  -3  -8 102.050   4.938   2
  -8   3   8 95.0965  4.9256   3
   7  -3  -8 27.5410  2.4120   2
  -7   3   8 28.1512  2.4699   3
   6  -3  -8 24.5872  2.1700   2
  -6   3   8 26.3348  2.3057   3
   5  -3  -8 273.740   8.284   2
  -5   3   8 279.630   8.377   3
   4  -3  -8 228.216   6.939   2
  -4   3   8 229.239   7.040   3
   3  -3  -8 5.74756 0.93656   2
  -3   3   8 4.74707 0.94049   3
   2  -3  -8 84.2317  3.1505   2
  -2   3   8 90.3306  3.5271   3
   1  -3  -8 30.9124  1.5698   2
  -1   3   8 28.1643  1.7743   3
   0  -3  -8 74.8173  2.9755   3
   0  -3  -8 74.2103  2.5154   2
  -1  -3  -8 45.7150  1.7789   2
  -1  -3  -8 43.3996  2.0756   3
   1   3   8 43.0717  1.4689   1
  -2  -3  -8 10.5490  0.8583   2
  -2  -3  -8 9.72313 0.95109   3
   2   3   8 9.66735 0.78018   1
  -3  -3  -8 18.6254  1.2816   3
  -3  -3  -8 21.4525  1.3130   2
   3   3   8 20.1472  1.2128   1
  -4  -3  -8 30.4731  1.6374   3
  -4  -3  -8 29.5526  1.7655   2
   4   3   8 28.1396  1.5792   1
  -5  -3  -8 98.0894  3.4083   3
   5   3   8 101.854   3.479   1
  -6  -3  -8 5.74398 0.86371   3
   6   3   8 5.49541 0.94755   1
  -7  -3  -8 31.9645  1.9515   3
   7   3   8 33.1331  2.1951   1
  -8  -3  -8 5.57387 1.06181   3
   8   3   8 5.59900 1.17990   1
   8  -4  -8 112.807   5.702   2
  -8   4   8 118.050   5.824   3
   7  -4  -8 83.5540  4.6283   2
  -7   4   8 88.5124  4.7102   3
   6  -4  -8 82.4738  4.3193   2
  -6   4   8 88.0941  4.4585   3
   5  -4  -8 31.0100  2.3982   2
  -5   4   8 35.2788  2.6201   3
   4  -4  -8 1.44581 0.75713   2
  -4   4   8 2.21613 0.84163   3
   3  -4  -8 196.577   6.157   2
  -3   4   8 192.902   6.392   3
   2  -4  -8 161.294   5.140   2
  -2   4   8 167.732   5.613   3
   1  -4  -8 23.8877  1.5042   2
  -1   4   8 22.1454  1.7311   3
   0  -4  -8 102.327   3.915   3
   0  -4  -8 101.682   3.232   2
  -1  -4  -8 103.491   3.146   2
  -1  -4  -8 100.860   3.772   3
  -2  -4  -8 128.617   3.652   2
  -2  -4  -8 126.622   4.265   3
  -3  -4  -8 110.956   3.828   3
   3   4   8 112.580   3.307   1
  -4  -4  -8 99.3475  3.5572   3
   4   4   8 100.677   3.299   1
  -5  -4  -8 28.6693  1.7864   3
   5   4   8 32.1294  1.8392   1
  -6  -4  -8 19.4919  1.5251   3
   6   4   8 18.1861  1.5660   1
  -7  -4  -8 57.4117  2.7910   3
   7   4   8 58.0822  2.9409   1
   8  -5  -8 38.4198  3.4939   2
  -8   5   8 47.0468  3.6892   3
   7  -5  -8 68.4131  4.3534   2
  -7   5   8 64.2571  4.1599   3
   6  -5  -8 3.23720 1.35460   2
  -6   5   8 1.14348 0.89436   3
   5  -5  -8 79.6271  4.2437   2
  -5   5   8 77.7593  4.2305   3
   4  -5  -8 21.7554  2.0671   2
  -4   5   8 22.3451  2.1530   3
   3  -5  -8 13.0308  1.5260   2
  -3   5   8 16.2342  1.8240   3
   2  -5  -8 141.344   4.945   2
  -2   5   8 153.672   5.592   3
   1  -5  -8 256.784   7.695   3
   1  -5  -8 255.403   6.966   2
   0  -5  -8 41.8249  2.5168   3
   0  -5  -8 43.3176  1.9636   2
  -1  -5  -8 63.0287  3.0559   3
  -1  -5  -8 63.2434  2.3077   2
  -2  -5  -8 10.6057  1.2696   3
  -3  -5  -8 64.1171  2.9835   3
  -4  -5  -8 16.4908  1.4367   3
  -5  -5  -8 33.5735  2.0490   3
  -6  -5  -8 1.00149 0.61287   3
   7  -6  -8 4.19448 1.62157   2
  -7   6   8 4.29884 1.53000   3
   6  -6  -8 22.4597  2.7045   2
  -6   6   8 30.2593  2.8556   3
   5  -6  -8 27.5192  2.6582   2
  -5   6   8 32.4410  2.8344   3
   4  -6  -8 72.7919  4.0003   2
  -4   6   8 76.4091  4.1950   3
   3  -6  -8 35.7841  2.5704   2
  -3   6   8 35.2879  2.7220   3
   2  -6  -8 27.7617  2.0571   2
  -2   6   8 24.8145  2.2124   3
   1  -6  -8 60.9743  3.3657   3
   1  -6  -8 64.3009  2.8962   2
   0  -6  -8 78.1164  3.6915   3
   0  -6  -8 56.2618  2.5042   2
  -1  -6  -8 40.2205  2.5658   3
  -2  -6  -8 6.27865 1.16637   3
  -3  -6  -8 90.4857  3.8587   3
  -4  -6  -8 46.0334  2.6403   3
  -5  -6  -8 42.5702  2.4709   3
   5  -7  -8 10.3389  1.9470   2
  -5   7   8 8.41157 1.79644   3
   4  -7  -8 9.77504 1.77570   2
  -4   7   8 9.13122 1.80181   3
   3  -7  -8 82.7461  4.0992   2
  -3   7   8 70.6431  4.1895   3
   2  -7  -8 10.1713  1.4964   2
   2  -7  -8 12.2710  1.7874   3
  -2   7   8 10.0919  1.6789   3
   1  -7  -8 1.45543 0.82883   3
   0  -7  -8 58.8053  3.4334   3
  -1  -7  -8 13.9525  1.7297   3
  -2  -7  -8 50.4148  3.0245   3
  -3  -7  -8 61.7427  3.3094   3
  -4  -7  -8 8.51812 1.34632   3
   1  -8  -8 5.48489 1.37134   3
   0  -8  -8 14.3127  1.9616   3
   4   7  -9 6.27466 1.38849   1
  -4  -7   9 5.74806 1.26119   4
   3   7  -9 27.3097  2.3231   1
  -3  -7   9 31.6960  2.2900   4
   2   7  -9 18.1306  1.9307   1
  -2  -7   9 16.9969  1.6901   4
   1   7  -9 22.0567  1.9529   1
  -1  -7   9 22.6571  1.7923   4
   0   7  -9 34.7496  3.3461   2
   0   7  -9 30.2706  2.2872   1
   0  -7   9 34.9429  2.0769   4
  -1   7  -9 72.1156  4.8920   2
  -1   7  -9 70.8452  3.4948   1
  -2   7  -9 5.18899 1.86998   2
   2  -7   9 7.69855 1.36026   1
  -3   7  -9 15.4210  2.7864   2
   3  -7   9 14.1821  1.7629   1
   6   6  -9 2.15073 0.95962   1
  -6  -6   9 1.23682 0.75754   4
   5   6  -9 0.07985 0.66294   1
  -5  -6   9 -0.0718  0.5240   4
   4   6  -9 19.7055  1.8731   1
  -4  -6   9 21.4150  1.8033   4
   3   6  -9 6.90589 1.25959   1
  -3  -6   9 9.99191 1.28408   4
   2   6  -9 72.7116  3.4590   1
  -2  -6   9 74.2863  3.1936   4
   1   6  -9 6.76097 1.60061   2
   1   6  -9 6.16230 1.14828   1
  -1  -6   9 6.28072 0.98271   4
   0   6  -9 29.2817  2.0694   1
   0   6  -9 26.2353  2.7132   2
   0  -6   9 25.8649  1.6728   4
  -1   6  -9 6.78534 1.14265   1
  -1   6  -9 6.29195 1.71387   2
   1  -6   9 8.35397 0.94492   4
  -2   6  -9 32.9311  3.1978   2
   2  -6   9 29.0482  2.1859   1
  -3   6  -9 7.63064 1.99148   2
   3  -6   9 8.83794 1.36728   1
  -4   6  -9 6.47992 2.08068   2
   4  -6   9 4.48685 1.16934   1
  -5   6  -9 17.0186  3.0165   2
   5  -6   9 18.4370  1.9980   1
   7   5  -9 0.94868 0.86768   1
  -7  -5   9 -0.0596  0.5615   4
   6   5  -9 70.3153  3.4726   1
  -6  -5   9 62.4668  3.0057   4
   5   5  -9 23.7594  1.9479   1
  -5  -5   9 22.6281  1.7143   4
   4   5  -9 23.3513  1.9324   1
  -4  -5   9 27.3138  1.8353   4
   3   5  -9 78.0547  3.5014   1
   3   5  -9 82.5931  3.7447   2
  -3  -5   9 80.0024  3.2012   4
   2   5  -9 105.146   4.502   2
   2   5  -9 98.3083  3.9370   1
  -2  -5   9 102.527   3.604   4
   1   5  -9 170.388   5.477   1
   1   5  -9 173.127   6.388   2
  -1  -5   9 178.204   5.058   4
   0   5  -9 83.2142  4.3156   2
   0   5  -9 78.4255  3.3291   1
   0  -5   9 79.5354  2.8205   4
  -1   5  -9 107.157   5.221   2
  -1   5  -9 101.624   3.918   1
   1  -5   9 106.851   3.281   4
  -2   5  -9 0.41575 0.90392   2
   2  -5   9 0.15358 0.49414   1
   2  -5   9 0.60409 0.39816   4
  -3   5  -9 1.74558 1.15436   2
   3  -5   9 1.87823 0.77397   1
  -4   5  -9 86.7995  5.3496   2
   4  -5   9 85.0956  3.8255   1
  -5   5  -9 12.3247  2.5125   2
   5  -5   9 15.7247  1.7626   1
  -6   5  -9 79.2050  5.7085   2
   6  -5   9 92.9209  4.2940   1
   8   4  -9 12.0308  1.6637   1
  -8  -4   9 13.2356  1.3450   4
   7   4  -9 3.93945 1.05507   1
  -7  -4   9 3.26625 0.82428   4
   6   4  -9 17.5952  1.6632   1
  -6  -4   9 16.4616  1.3927   4
   5   4  -9 23.1180  1.8051   1
  -5  -4   9 21.1640  1.5275   4
   4   4  -9 100.664   3.665   2
   4   4  -9 98.1129  3.8373   1
  -4  -4   9 100.348   3.482   4
   3   4  -9 64.7585  2.9138   2
   3   4  -9 64.4379  2.9281   1
  -3  -4   9 61.9529  2.5511   4
   2   4  -9 16.5886  1.4470   1
   2   4  -9 16.2731  1.5644   2
  -2  -4   9 16.4223  1.2049   4
   1   4  -9 89.9458  3.9277   2
   1   4  -9 94.1394  3.5362   1
  -1  -4   9 93.9103  3.0692   4
   0   4  -9 131.274   5.211   2
   0   4  -9 129.120   4.247   1
   0  -4   9 125.033   3.637   4
  -1   4  -9 482.959  11.346   1
  -1   4  -9 494.595  13.429   2
   1  -4   9 502.479  10.651   4
  -2   4  -9 20.5895  2.2793   2
   2  -4   9 19.7607  1.0779   4
   2  -4   9 21.2034  1.6469   1
  -3   4  -9 12.5303  2.0080   2
   3  -4   9 11.8870  1.3267   1
  -4   4  -9 0.81193 0.93686   2
   4  -4   9 -0.3207  0.4418   1
  -5   4  -9 36.9286  3.4665   2
   5  -4   9 33.8549  2.3326   1
  -6   4  -9 13.0457  2.5325   2
   6  -4   9 17.5092  1.8527   1
  -7   4  -9 23.4315  3.3491   2
   7  -4   9 24.2426  2.2059   1
   9   3  -9 4.12676 1.08266   1
  -9  -3   9 3.72338 0.79829   4
   8   3  -9 59.7104  3.0957   1
  -8  -3   9 53.8199  2.4446   4
   7   3  -9 0.85224 0.71639   1
  -7  -3   9 1.52493 0.58760   4
   6   3  -9 4.10101 0.91710   1
  -6  -3   9 4.66104 0.75617   4
   5   3  -9 45.6591  2.3654   1
   5   3  -9 43.6861  1.9538   2
  -5  -3   9 38.7341  1.8967   4
   4   3  -9 72.5627  2.9624   1
   4   3  -9 65.7472  2.6260   2
  -4  -3   9 72.8844  2.6207   4
   3   3  -9 211.364   5.894   2
   3   3  -9 214.013   5.884   1
  -3  -3   9 217.996   5.532   4
   2   3  -9 140.956   4.378   1
   2   3  -9 139.409   4.533   2
  -2  -3   9 145.951   3.972   4
   1   3  -9 234.740   6.210   1
   1   3  -9 226.981   6.734   2
  -1  -3   9 242.095   5.715   4
   0   3  -9 186.844   5.963   2
   0   3  -9 180.227   5.127   1
   0  -3   9 183.225   4.555   4
  -1   3  -9 335.624   9.526   2
   1  -3   9 329.467   7.364   4
   1  -3   9 336.705   8.241   1
  -2   3  -9 38.7914  2.7020   2
   2  -3   9 38.8686  2.1065   1
  -3   3  -9 212.529   7.648   2
   3  -3   9 216.899   6.259   1
  -4   3  -9 133.298   6.022   2
   4  -3   9 133.890   4.609   1
  -5   3  -9 52.9004  3.8932   2
   5  -3   9 52.6962  2.8512   1
  -6   3  -9 18.5769  2.6839   2
   6  -3   9 18.8166  1.8031   1
  -7   3  -9 13.8007  2.5660   2
   7  -3   9 13.7874  1.7237   1
   9   2  -9 9.87711 1.37802   1
  -9  -2   9 8.85944 0.97761   4
   8   2  -9 1.22333 0.73573   1
  -8  -2   9 1.05069 0.50893   4
   7   2  -9 36.2718  2.1556   1
  -7  -2   9 32.4161  1.6627   4
   6   2  -9 80.4536  2.7382   2
   6   2  -9 78.1961  3.1397   1
  -6  -2   9 75.3855  2.6723   4
   5   2  -9 13.0192  1.0193   2
   5   2  -9 11.1733  1.1483   1
  -5  -2   9 10.9977  0.9303   4
   4   2  -9 38.2407  1.7174   2
   4   2  -9 37.4356  1.9323   1
  -4  -2   9 36.2476  1.6156   4
   3   2  -9 65.8141  2.5752   1
   3   2  -9 66.5618  2.4859   2
  -3  -2   9 69.0832  2.2834   4
   2   2  -9 383.153   9.291   2
   2   2  -9 392.697   8.858   1
  -2  -2   9 381.391   8.525   4
   1   2  -9 18.5805  1.3296   2
   1   2  -9 18.5947  1.2498   1
  -1  -2   9 17.0924  0.9830   4
   0   2  -9 52.2863  2.5064   2
   0   2  -9 57.5810  2.2902   1
  -1   2  -9 190.158   6.033   2
   1  -2   9 198.215   5.332   1
  -2   2  -9 20.2566  1.7825   2
   2  -2   9 21.6607  1.4864   1
  -3   2  -9 226.327   7.529   2
   3  -2   9 228.993   6.256   1
  -4   2  -9 145.316   5.987   2
   4  -2   9 145.256   4.743   1
  -5   2  -9 152.558   6.545   2
   5  -2   9 154.518   5.096   1
  -6   2  -9 8.99013 1.98145   2
   6  -2   9 8.14961 1.27577   1
  -7   2  -9 45.1741  3.8968   2
   7  -2   9 42.2014  2.6699   1
  -8   2  -9 8.90809 2.26146   2
   8  -2   9 7.85644 1.41269   1
  -9  -1   9 26.2717  2.4474   3
   8   1  -9 9.78816 1.27400   1
   8   1  -9 11.9063  1.1865   2
  -8  -1   9 7.41463 1.36718   3
   7   1  -9 32.9341  1.7936   2
   7   1  -9 33.7481  2.0197   1
  -7  -1   9 33.2844  2.3039   3
   6   1  -9 131.204   4.081   1
   6   1  -9 129.864   3.955   2
  -6  -1   9 127.944   4.471   3
   5   1  -9 23.4752  1.3349   2
   5   1  -9 20.2723  1.3643   1
  -5  -1   9 20.8254  1.5163   3
   4   1  -9 9.61189 0.86964   2
   4   1  -9 10.1255  0.9328   1
  -4  -1   9 11.2916  0.9980   3
   3   1  -9 19.7578  1.1715   2
   3   1  -9 19.8868  1.2093   1
  -3  -1   9 16.2060  1.0024   3
   2   1  -9 231.399   5.623   1
   2   1  -9 222.726   5.868   2
  -2  -1   9 240.513   5.099   3
   1   1  -9 103.333   3.078   1
   1   1  -9 101.537   3.255   2
   0   1  -9 377.952   8.343   1
   0   1  -9 377.450   9.225   2
  -1   1  -9 59.9364  2.6228   2
   1  -1   9 60.1940  2.3601   1
  -2   1  -9 128.689   3.255   3
  -2   1  -9 134.838   4.644   2
   2  -1   9 129.342   3.971   1
  -3   1  -9 53.2917  1.8637   3
  -3   1  -9 51.9270  2.8701   2
   3  -1   9 50.7073  2.3132   1
  -4   1  -9 53.0998  3.1644   2
  -4   1  -9 54.2456  2.0851   3
   4  -1   9 51.3798  2.4852   1
  -5   1  -9 8.31493 1.58662   2
  -5   1  -9 10.1416  1.0165   3
   5  -1   9 9.46433 1.19548   1
  -6   1  -9 4.22558 0.84409   3
  -6   1  -9 3.17897 1.30436   2
   6  -1   9 5.17980 1.02350   1
  -7   1  -9 15.3476  1.5441   3
  -7   1  -9 12.7406  2.2425   2
   7  -1   9 13.0139  1.5432   1
  -8   1  -9 0.43810 1.28064   2
  -8   1  -9 0.76341 0.74824   3
   8  -1   9 0.54580 0.75001   1
   9   0  -9 0.04975 0.57580   2
  -9   0   9 -0.1887  0.8373   3
   8   0  -9 4.36985 0.91827   1
   8   0  -9 5.19258 0.98668   2
  -8   0   9 7.55418 1.41169   3
   7   0  -9 1.35485 0.61530   1
   7   0  -9 1.22665 0.59298   2
  -7   0   9 1.19547 0.74608   3
   6   0  -9 37.0376  1.9395   2
   6   0  -9 35.4075  1.7928   1
  -6   0   9 34.8208  2.2495   3
   5   0  -9 13.9026  1.1146   2
   5   0  -9 14.5362  1.0640   1
  -5   0   9 12.2121  1.2531   3
   4   0  -9 40.3340  1.8285   2
   4   0  -9 40.8033  1.6906   1
  -4   0   9 37.3406  1.9463   3
   3   0  -9 73.0588  2.5504   2
   3   0  -9 73.8144  2.3474   1
  -3   0   9 71.6565  2.5583   3
   2   0  -9 69.5162  2.4451   2
   2   0  -9 69.5421  2.2399   1
  -2   0   9 72.4537  2.3189   3
   1   0  -9 16.5337  1.0901   2
   1   0  -9 17.7940  0.9102   3
   1   0  -9 18.4968  1.0134   1
   0   0  -9 0.47507 0.31908   2
   0   0  -9 0.91777 0.24910   3
   0   0   9 1.25956 0.38226   1
  -1   0  -9 0.85499 0.39863   2
  -1   0  -9 0.44779 0.20299   3
   1   0   9 0.41987 0.34100   1
  -2   0  -9 66.7609  1.9903   3
  -2   0  -9 67.5571  2.8289   2
   2   0   9 64.4185  2.4341   1
  -3   0  -9 4.71886 0.93100   2
  -3   0  -9 4.84196 0.53445   3
   3   0   9 4.60181 0.74269   1
  -4   0  -9 11.2862  1.4629   2
  -4   0  -9 11.1693  0.8771   3
   4   0   9 12.1825  1.1631   1
  -5   0  -9 19.3988  1.9700   2
  -5   0  -9 19.8601  1.3092   3
   5   0   9 23.1137  1.6586   1
  -6   0  -9 248.485   6.734   3
  -6   0  -9 260.161   8.774   2
   6   0   9 248.862   7.047   1
  -7   0  -9 34.3317  2.1122   3
  -7   0  -9 38.6374  3.3380   2
   7   0   9 34.5204  2.2825   1
  -8   0  -9 16.5087  1.6776   3
   8   0   9 14.2009  1.6882   1
   9  -1  -9 36.6850  2.5587   2
  -9   1   9 40.2950  3.1289   3
   8  -1  -9 10.8979  1.4596   2
  -8   1   9 10.7063  1.7119   3
   7  -1  -9 33.0673  2.1956   2
  -7   1   9 32.6553  2.4708   3
   6  -1  -9 126.989   4.476   2
  -6   1   9 135.154   4.959   3
   5  -1  -9 21.0942  1.1686   1
   5  -1  -9 20.3814  1.4943   2
  -5   1   9 18.9607  1.6099   3
   4  -1  -9 11.1618  1.0263   2
   4  -1  -9 10.1695  0.7835   1
  -4   1   9 9.16795 1.10855   3
   3  -1  -9 20.7382  1.2859   2
   3  -1  -9 19.6168  0.9820   1
  -3   1   9 22.4216  1.4827   3
   2  -1  -9 231.906   5.071   1
   2  -1  -9 233.030   5.965   2
  -2   1   9 236.380   6.045   3
   1  -1  -9 109.630   3.361   2
   1  -1  -9 113.386   3.363   3
   0  -1  -9 386.417   8.683   3
   0  -1  -9 391.809   9.059   2
   0   1   9 381.686   8.151   1
  -1  -1  -9 58.9441  2.0016   3
  -1  -1  -9 60.4218  2.2797   2
   1   1   9 59.3366  2.0613   1
  -2  -1  -9 132.517   4.118   2
  -2  -1  -9 134.442   3.552   3
   2   1   9 129.793   3.669   1
  -3  -1  -9 53.9386  2.5712   2
  -3  -1  -9 52.3785  1.9213   3
   3   1   9 51.3348  2.1541   1
  -4  -1  -9 54.0416  2.0739   3
  -4  -1  -9 58.5526  2.9186   2
   4   1   9 53.5444  2.3715   1
  -5  -1  -9 8.73824 1.44501   2
  -5  -1  -9 11.6036  0.9908   3
   5   1   9 10.5311  1.1402   1
  -6  -1  -9 3.19106 1.11620   2
  -6  -1  -9 3.43669 0.72563   3
   6   1   9 3.91724 0.86987   1
  -7  -1  -9 14.8700  1.3821   3
   7   1   9 13.7432  1.4948   1
  -8  -1  -9 1.37278 0.71237   3
   8   1   9 1.41423 0.78439   1
   9  -2  -9 9.54775 1.62589   2
  -9   2   9 9.59638 1.88805   3
   8  -2  -9 1.77831 0.89053   2
  -8   2   9 1.34898 0.90617   3
   7  -2  -9 35.3803  2.4520   2
  -7   2   9 33.2002  2.6191   3
   6  -2  -9 77.5663  3.5315   2
  -6   2   9 78.6111  3.8017   3
   5  -2  -9 11.7311  1.3123   2
  -5   2   9 11.5009  1.4490   3
   4  -2  -9 39.5378  2.1191   2
  -4   2   9 41.3204  2.3644   3
   3  -2  -9 66.8671  2.6863   2
  -3   2   9 66.2232  2.9027   3
   2  -2  -9 388.458   9.341   2
  -2   2   9 394.669   9.634   3
   1  -2  -9 17.6007  1.1438   2
   1  -2  -9 19.7756  1.3591   3
   0  -2  -9 54.2623  2.2338   3
   0  -2  -9 55.7050  2.0929   2
   0   2   9 53.3623  1.6587   1
  -1  -2  -9 195.971   5.201   3
  -1  -2  -9 202.895   5.197   2
   1   2   9 186.809   4.539   1
  -2  -2  -9 21.2642  1.3420   2
  -2  -2  -9 19.2471  1.1976   3
   2   2   9 19.7302  1.1278   1
  -3  -2  -9 209.767   5.455   3
  -3  -2  -9 219.863   6.017   2
   3   2   9 207.181   5.321   1
  -4  -2  -9 137.865   4.760   2
  -4  -2  -9 143.050   4.132   3
   4   2   9 143.889   4.238   1
  -5  -2  -9 148.830   4.345   3
  -5  -2  -9 137.885   5.216   2
   5   2   9 147.043   4.545   1
  -6  -2  -9 8.62312 0.99474   3
   6   2   9 8.21131 1.12426   1
  -7  -2  -9 43.6602  2.3359   3
   7   2   9 40.3855  2.4485   1
  -8  -2  -9 7.90976 1.18294   3
   8   2   9 6.47499 1.24627   1
   9  -3  -9 6.77211 1.59623   2
  -9   3   9 4.26934 1.49528   3
   8  -3  -9 54.3023  3.5329   2
  -8   3   9 60.8592  3.9199   3
   7  -3  -9 1.04721 0.78202   2
  -7   3   9 1.78998 1.03697   3
   6  -3  -9 2.97305 0.94846   2
  -6   3   9 4.42338 1.18435   3
   5  -3  -9 35.4025  2.3600   2
  -5   3   9 43.3971  2.7680   3
   4  -3  -9 74.5472  3.3243   2
  -4   3   9 73.7889  3.5389   3
   3  -3  -9 213.836   6.340   2
  -3   3   9 235.173   6.862   3
   2  -3  -9 145.652   4.539   2
  -2   3   9 155.017   5.041   3
   1  -3  -9 233.610   6.114   2
   1  -3  -9 231.236   6.612   3
  -1   3   9 237.627   6.590   3
   0  -3  -9 194.414   5.657   3
   0  -3  -9 188.548   5.106   2
  -1  -3  -9 333.602   8.464   3
  -1  -3  -9 345.397   8.159   2
  -2  -3  -9 38.3696  1.7777   2
  -2  -3  -9 39.8109  1.9239   3
   2   3   9 37.0476  1.5678   1
  -3  -3  -9 203.006   5.613   3
  -3  -3  -9 211.698   5.703   2
   3   3   9 202.341   5.192   1
  -4  -3  -9 121.030   3.872   3
   4   3   9 120.368   3.772   1
  -5  -3  -9 52.0367  2.3006   3
   5   3   9 47.0980  2.3247   1
  -6  -3  -9 17.5788  1.3682   3
   6   3   9 15.9740  1.4660   1
  -7  -3  -9 12.7725  1.2897   3
   7   3   9 12.1221  1.4576   1
   8  -4  -9 9.94613 1.86745   2
  -8   4   9 11.7340  2.1024   3
   7  -4  -9 4.54321 1.33049   2
  -7   4   9 6.19820 1.58448   3
   6  -4  -9 17.7159  2.0364   2
  -6   4   9 16.3474  2.0665   3
   5  -4  -9 19.0123  1.9233   2
  -5   4   9 21.1397  2.0798   3
   4  -4  -9 89.8457  3.9129   2
  -4   4   9 91.0404  4.1693   3
   3  -4  -9 59.2785  2.8645   2
  -3   4   9 57.6814  3.1234   3
   2  -4  -9 15.9725  1.3789   2
  -2   4   9 17.7085  1.6657   3
   1  -4  -9 86.5084  3.6850   3
   1  -4  -9 90.3073  3.1523   2
   0  -4  -9 127.072   4.522   3
   0  -4  -9 122.357   3.778   2
  -1  -4  -9 495.217  11.261   2
  -1  -4  -9 490.545  11.915   3
  -2  -4  -9 21.0950  1.5626   3
  -2  -4  -9 19.9112  1.2874   2
  -3  -4  -9 13.0279  1.2006   3
  -4  -4  -9 -0.0021  0.3258   3
  -5  -4  -9 34.0815  1.9654   3
   5   4   9 32.9230  1.9458   1
  -6  -4  -9 18.3963  1.5031   3
   6   4   9 17.8281  1.5953   1
  -7  -4  -9 25.2019  1.8671   3
   7   4   9 25.2417  2.0032   1
   7  -5  -9 1.41071 1.10408   2
  -7   5   9 1.11009 1.07932   3
   6  -5  -9 65.8784  3.9642   2
  -6   5   9 65.5734  4.0735   3
   5  -5  -9 22.2478  2.1745   2
  -5   5   9 23.0642  2.3250   3
   4  -5  -9 25.7605  2.1404   2
  -4   5   9 26.7977  2.3834   3
   3  -5  -9 81.0042  3.6231   2
  -3   5   9 79.8086  4.0162   3
   2  -5  -9 94.1936  3.7215   2
  -2   5   9 99.0733  4.3494   3
   1  -5  -9 172.653   5.992   3
   1  -5  -9 176.123   5.241   2
   0  -5  -9 78.5943  2.8822   2
   0  -5  -9 78.3295  3.6426   3
  -1  -5  -9 96.4352  3.9985   3
  -1  -5  -9 103.817   3.307   2
  -2  -5  -9 0.61678 0.52108   3
  -3  -5  -9 0.94070 0.52388   3
  -4  -5  -9 86.9578  3.5748   3
  -5  -5  -9 15.0566  1.4067   3
  -6  -5  -9 79.4929  3.4347   3
   6  -6  -9 1.00881 1.07060   2
  -6   6   9 0.29020 0.89206   3
   5  -6  -9 0.69430 0.96560   2
  -5   6   9 0.48733 0.82694   3
   4  -6  -9 18.6937  2.0806   2
  -4   6   9 22.9801  2.4199   3
   3  -6  -9 6.59159 1.26163   2
  -3   6   9 8.91642 1.59190   3
   2  -6  -9 73.8422  3.3795   2
  -2   6   9 73.4199  3.8905   3
   1  -6  -9 6.94008 1.02412   2
   1  -6  -9 5.13097 1.19811   3
   0  -6  -9 19.9831  1.4243   2
   0  -6  -9 25.4349  2.1128   3
  -1  -6  -9 4.80825 1.09282   3
  -2  -6  -9 28.0711  2.1157   3
  -3  -6  -9 7.07295 1.21594   3
  -4  -6  -9 5.11633 1.07420   3
  -5  -6  -9 17.3073  1.6205   3
   4  -7  -9 5.51731 1.43460   2
  -4   7   9 4.50197 1.40659   3
   3  -7  -9 29.7809  2.4156   2
  -3   7   9 27.6632  2.6226   3
   2  -7  -9 16.9433  1.7088   2
   2  -7  -9 18.0754  2.1427   3
   1  -7  -9 21.9604  2.2248   3
   0  -7  -9 36.8155  2.7341   3
  -1  -7  -9 67.4219  3.5864   3
  -2  -7  -9 3.06046 1.02123   3
  -3  -7  -9 15.1796  1.7829   3
   3   7 -10 94.4876  4.3832   1
  -3  -7  10 90.9451  3.9046   4
   2   7 -10 44.4542  2.9257   1
  -2  -7  10 44.4706  2.5472   4
   1   7 -10 0.00191 0.66633   1
  -1  -7  10 0.52448 0.60775   4
   0   7 -10 37.9282  2.6151   1
   0   7 -10 40.2354  3.6918   2
   0  -7  10 40.3483  2.2026   4
  -1   7 -10 130.807   6.868   2
   1  -7  10 132.592   5.213   1
  -2   7 -10 17.0523  2.8641   2
   2  -7  10 19.8920  2.0468   1
  -6  -6  10 8.34093 1.30224   4
   5   6 -10 21.5268  2.0952   1
  -5  -6  10 15.0875  1.6193   4
   4   6 -10 5.54027 1.26205   1
  -4  -6  10 7.18305 1.18612   4
   3   6 -10 38.7936  2.6269   1
  -3  -6  10 38.7150  2.2957   4
   2   6 -10 30.6938  2.2537   1
  -2  -6  10 26.7184  1.8606   4
   1   6 -10 7.77448 1.75757   2
   1   6 -10 8.37005 1.29857   1
  -1  -6  10 8.26917 1.05907   4
   0   6 -10 2.31423 0.91782   1
   0   6 -10 2.92537 1.30999   2
   0  -6  10 2.50880 0.71074   4
  -1   6 -10 27.5632  2.0726   1
  -1   6 -10 28.1270  3.0116   2
   1  -6  10 20.1251  1.3843   4
   1  -6  10 25.9971  2.1054   1
  -2   6 -10 28.1447  3.1971   2
   2  -6  10 30.5795  2.2665   1
  -3   6 -10 108.450   6.294   2
   3  -6  10 107.404   4.491   1
  -4   6 -10 45.1514  4.2537   2
   4  -6  10 49.4945  3.0264   1
   7   5 -10 4.00794 1.17522   1
  -7  -5  10 4.21153 0.99953   4
   6   5 -10 33.8463  2.4974   1
  -6  -5  10 33.2309  2.0882   4
   5   5 -10 16.6245  1.7696   1
  -5  -5  10 17.7615  1.5079   4
   4   5 -10 54.2756  2.9939   1
  -4  -5  10 59.3990  2.7277   4
   3   5 -10 117.433   4.449   1
   3   5 -10 114.682   4.733   2
  -3  -5  10 110.795   3.898   4
   2   5 -10 46.2073  2.6252   1
   2   5 -10 46.8353  3.0558   2
  -2  -5  10 44.2016  2.1580   4
   1   5 -10 78.8613  3.3958   1
   1   5 -10 75.7205  4.0742   2
  -1  -5  10 81.3650  2.9564   4
   0   5 -10 37.3634  2.9380   2
   0   5 -10 31.4256  2.1282   1
   0  -5  10 35.1104  1.7613   4
  -1   5 -10 45.6258  2.5424   1
  -1   5 -10 49.5188  3.5563   2
   1  -5  10 50.6904  2.0315   4
   1  -5  10 44.0812  2.5967   1
  -2   5 -10 7.40999 1.78632   2
   2  -5  10 8.20482 1.26564   1
  -3   5 -10 4.39867 1.49308   2
   3  -5  10 3.28631 0.93872   1
  -4   5 -10 20.7825  2.9212   2
   4  -5  10 23.1205  2.0337   1
  -5   5 -10 39.4707  3.8947   2
   5  -5  10 39.5135  2.7599   1
   8   4 -10 27.3976  2.2879   1
  -8  -4  10 25.8335  1.7808   4
   7   4 -10 4.73596 1.15610   1
  -7  -4  10 4.85643 0.91854   4
   6   4 -10 25.0290  2.0251   1
  -6  -4  10 23.8245  1.6367   4
   5   4 -10 103.623   4.083   1
  -5  -4  10 100.927   3.579   4
   4   4 -10 178.392   5.681   1
   4   4 -10 183.214   5.674   2
  -4  -4  10 182.772   5.211   4
   3   4 -10 15.7260  1.5335   1
   3   4 -10 14.6884  1.4892   2
  -3  -4  10 15.8142  1.2319   4
   2   4 -10 70.3858  3.0638   1
   2   4 -10 65.7594  3.2450   2
  -2  -4  10 67.1860  2.5868   4
   1   4 -10 40.0656  2.2126   1
   1   4 -10 37.3139  2.5289   2
  -1  -4  10 41.1084  1.8371   4
   0   4 -10 82.5690  4.0828   2
   0   4 -10 80.6847  3.3225   1
   0  -4  10 83.2096  2.7081   4
  -1   4 -10 67.1864  3.8343   2
   1  -4  10 67.4481  2.2807   4
   1  -4  10 64.9324  3.0044   1
  -2   4 -10 62.8290  3.8869   2
   2  -4  10 59.5781  2.8788   1
  -3   4 -10 45.6848  3.4769   2
   3  -4  10 44.4737  2.5717   1
  -4   4 -10 28.9457  2.9851   2
   4  -4  10 29.5583  2.1696   1
  -5   4 -10 3.04416 1.52304   2
   5  -4  10 2.46514 0.92184   1
  -6   4 -10 99.7381  6.1904   2
   6  -4  10 106.185   4.640   1
   8   3 -10 3.46068 1.06217   1
  -8  -3  10 0.68798 0.57187   4
   7   3 -10 29.3029  2.1146   1
  -7  -3  10 30.4149  1.7368   4
   6   3 -10 16.3193  1.5507   1
  -6  -3  10 18.2268  1.3131   4
   5   3 -10 110.024   4.061   1
   5   3 -10 111.445   3.692   2
  -5  -3  10 112.144   3.596   4
   4   3 -10 33.5285  2.0408   1
   4   3 -10 30.3356  1.7542   2
  -4  -3  10 30.8711  1.6305   4
   3   3 -10 237.757   6.680   2
   3   3 -10 244.659   6.657   1
  -3  -3  10 251.194   6.150   4
   2   3 -10 116.900   4.147   2
   2   3 -10 118.153   3.951   1
  -2  -3  10 116.827   3.456   4
   1   3 -10 211.959   5.905   1
   1   3 -10 215.834   6.613   2
  -1  -3  10 227.151   5.463   4
   0   3 -10 171.252   5.863   2
   0   3 -10 172.016   5.062   1
   0  -3  10 175.749   4.436   4
  -1   3 -10 128.156   5.022   2
   1  -3  10 117.467   4.070   1
  -2   3 -10 174.930   6.565   2
   2  -3  10 178.212   5.439   1
  -3   3 -10 58.0037  3.6853   2
   3  -3  10 58.8396  2.8506   1
  -4   3 -10 202.954   7.935   2
   4  -3  10 202.851   6.242   1
  -5   3 -10 17.9716  2.5498   2
   5  -3  10 25.7472  2.0555   1
  -6   3 -10 32.0390  3.4544   2
   6  -3  10 29.8620  2.3027   1
  -7   3 -10 23.6560  3.2786   2
   7  -3  10 20.6600  2.0981   1
   9   2 -10 27.3719  2.1999   1
   8   2 -10 28.9000  2.1278   1
   7   2 -10 27.9138  1.6583   2
   7   2 -10 34.0040  2.1150   1
  -7  -2  10 30.8417  1.6461   4
   6   2 -10 19.5381  1.3675   2
   6   2 -10 21.5650  1.6278   1
  -6  -2  10 22.0225  1.3315   4
   5   2 -10 69.6663  2.9020   1
   5   2 -10 74.2215  2.7144   2
  -5  -2  10 72.1728  2.5647   4
   4   2 -10 20.0385  1.3150   2
   4   2 -10 19.8349  1.4446   1
  -4  -2  10 20.0017  1.2089   4
   3   2 -10 86.1934  3.1487   1
   3   2 -10 85.7432  2.9984   2
  -3  -2  10 87.2077  2.7616   4
   2   2 -10 186.819   5.174   1
   2   2 -10 191.556   5.434   2
  -2  -2  10 189.359   4.769   4
   1   2 -10 54.0490  2.3067   1
   1   2 -10 56.9400  2.5530   2
   0   2 -10 940.133  21.472   2
   0   2 -10 968.272  19.458   1
  -1   2 -10 91.1859  3.8200   2
   1  -2  10 90.3512  3.2655   1
  -2   2 -10 100.565   4.335   2
   2  -2  10 102.218   3.621   1
  -3   2 -10 108.967   4.876   2
   3  -2  10 107.499   3.923   1
  -4   2 -10 23.8922  2.3822   2
   4  -2  10 22.4691  1.7745   1
  -5   2 -10 89.3913  4.9530   2
   5  -2  10 89.0480  3.7476   1
  -6   2 -10 6.69396 1.86376   2
   6  -2  10 7.96657 1.32622   1
  -7   2 -10 8.65901 2.19388   2
   7  -2  10 7.94811 1.41590   1
   9   1 -10 4.90747 1.12301   1
   8   1 -10 15.4031  1.5279   1
   8   1 -10 18.2189  1.4316   2
   7   1 -10 2.41322 0.77341   1
   7   1 -10 4.63662 0.78629   2
   6   1 -10 18.8450  1.4373   1
   6   1 -10 18.8515  1.3109   2
   5   1 -10 90.1674  3.1380   1
   5   1 -10 90.0813  3.1135   2
   4   1 -10 102.013   3.285   1
   4   1 -10 97.9148  3.2589   2
   3   1 -10 98.0839  3.1541   1
   3   1 -10 97.8270  3.2082   2
   2   1 -10 2.54194 0.55715   2
   2   1 -10 2.02800 0.54820   1
   1   1 -10 166.846   4.483   1
   1   1 -10 166.899   4.844   2
   0   1 -10 365.580   9.270   2
   0  -1  10 376.305   8.496   1
  -1   1 -10 93.1531  3.6617   2
   1  -1  10 104.345   3.345   1
  -2   1 -10 26.1507  1.9100   2
   2  -1  10 26.3489  1.6303   1
  -3   1 -10 49.6176  2.8989   2
   3  -1  10 45.8800  2.2869   1
  -4   1 -10 59.1176  3.4953   2
   4  -1  10 62.9191  2.8506   1
  -5   1 -10 44.8423  3.3405   2
   5  -1  10 49.7045  2.5686   1
  -6   1 -10 51.0437  3.7986   2
   6  -1  10 53.5956  2.8377   1
  -7   1 -10 2.42276 1.39831   2
   7  -1  10 0.11879 0.63852   1
  -8   1 -10 3.97241 1.79833   2
   8  -1  10 3.09208 1.04507   1
   9   0 -10 1.63630 0.77934   2
  -9   0  10 0.39160 0.92445   3
   8   0 -10 9.67128 1.20156   2
  -8   0  10 8.86637 1.55475   3
   7   0 -10 75.2847  2.9636   2
  -7   0  10 59.5469  3.3045   3
   6   0 -10 5.17326 0.82310   2
   6   0 -10 2.42305 0.67972   1
  -6   0  10 2.88563 0.87995   3
   5   0 -10 9.99956 0.99291   2
   5   0 -10 10.2075  0.9281   1
  -5   0  10 8.69771 1.12297   3
   4   0 -10 15.9888  1.1514   2
   4   0 -10 16.9105  1.1149   1
  -4   0  10 14.6268  1.2494   3
   3   0 -10 290.308   7.338   2
   3   0 -10 305.456   6.742   1
  -3   0  10 288.995   7.117   3
   2   0 -10 365.893   8.726   2
   2   0 -10 359.800   7.897   1
  -2   0  10 364.696   8.173   3
   1   0 -10 12.3087  0.9196   1
   1   0 -10 15.0881  0.8459   3
   1   0 -10 14.5793  1.0934   2
  -1   0  10 14.6777  1.0357   1
   0   0 -10 480.916   9.813   3
   0   0 -10 454.722  10.889   2
   0   0  10 454.061   9.938   1
  -1   0 -10 242.244   5.415   3
  -1   0 -10 239.326   6.588   2
   1   0  10 239.181   5.931   1
  -2   0 -10 63.0396  1.9332   3
  -2   0 -10 61.0751  2.8231   2
   2   0  10 59.9624  2.4470   1
  -3   0 -10 3.80154 0.93354   2
  -3   0 -10 3.19945 0.48754   3
   3   0  10 4.48886 0.77726   1
  -4   0 -10 32.4400  1.5568   3
  -4   0 -10 33.4542  2.4287   2
   4   0  10 34.1048  1.9761   1
  -5   0 -10 116.317   3.639   3
  -5   0 -10 105.104   4.949   2
   5   0  10 113.842   4.098   1
  -6   0 -10 0.41818 0.96337   2
  -6   0 -10 0.42766 0.44501   3
   6   0  10 0.30792 0.56810   1
  -7   0 -10 3.50758 0.88787   3
  -7   0 -10 3.18986 1.45320   2
   7   0  10 2.27200 0.88571   1
  -8   0 -10 7.52926 1.24977   3
   8   0  10 8.25602 1.43183   1
   9  -1 -10 3.30363 1.04959   2
  -9   1  10 3.33362 1.27127   3
   8  -1 -10 22.0132  1.8782   2
  -8   1  10 20.2401  2.2056   3
   7  -1 -10 3.10696 0.86418   2
  -7   1  10 2.84384 1.06789   3
   6  -1 -10 18.9978  1.5277   2
  -6   1  10 16.3004  1.7050   3
   5  -1 -10 87.3819  3.3054   2
  -5   1  10 88.7573  3.7006   3
   4  -1 -10 102.190   3.520   2
  -4   1  10 106.126   3.810   3
   3  -1 -10 97.2558  3.2512   2
   3  -1 -10 94.6164  2.6110   1
  -3   1  10 98.6286  3.4174   3
   2  -1 -10 3.58203 0.63229   2
  -2   1  10 1.85371 0.53055   3
  -2   1  10 2.25340 0.44905   1
   1  -1 -10 181.675   5.061   2
   1  -1 -10 185.858   4.911   3
   0  -1 -10 385.365   8.557   3
   0  -1 -10 374.285   9.033   2
   0   1  10 369.994   8.071   1
  -1  -1 -10 99.3045  3.3878   2
  -1  -1 -10 101.104   2.934   3
   1   1  10 101.218   3.026   1
  -2  -1 -10 28.6004  1.7527   2
  -2  -1 -10 27.6031  1.3016   3
   2   1  10 28.1914  1.5025   1
  -3  -1 -10 52.3681  1.9369   3
  -3  -1 -10 47.7666  2.5531   2
   3   1  10 45.4736  2.1116   1
  -4  -1 -10 61.3992  2.2738   3
  -4  -1 -10 59.2318  3.0916   2
   4   1  10 58.2383  2.5621   1
  -5  -1 -10 47.3803  3.0732   2
  -5  -1 -10 46.1246  2.0834   3
   5   1  10 48.7087  2.4223   1
  -6  -1 -10 48.8531  2.2984   3
  -6  -1 -10 35.1143  2.9335   2
   6   1  10 47.0026  2.5152   1
  -7  -1 -10 0.02332 0.52449   3
   7   1  10 0.06429 0.60329   1
  -8  -1 -10 2.79860 0.91230   3
   8   1  10 1.57387 0.88109   1
   9  -2 -10 31.2043  2.5078   2
  -9   2  10 31.6782  2.9928   3
   8  -2 -10 23.9058  2.1389   2
  -8   2  10 22.2820  2.4361   3
   7  -2 -10 32.2110  2.3309   2
  -7   2  10 32.9138  2.6524   3
   6  -2 -10 20.6984  1.7506   2
  -6   2  10 21.8457  2.0582   3
   5  -2 -10 74.3784  3.2443   2
  -5   2  10 74.3815  3.5412   3
   4  -2 -10 18.4899  1.4246   2
  -4   2  10 15.6728  1.5296   3
   3  -2 -10 89.1951  3.2333   2
  -3   2  10 92.1222  3.5628   3
   2  -2 -10 190.139   5.331   2
  -2   2  10 191.700   5.580   3
   1  -2 -10 60.2830  2.3479   2
   1  -2 -10 57.1094  2.4822   3
   0  -2 -10 981.585  21.080   3
   0  -2 -10 1002.78   21.41   2
  -1  -2 -10 97.3455  3.2067   2
  -1  -2 -10 94.1502  3.1265   3
   1   2  10 87.9230  2.6720   1
  -2  -2 -10 101.353   3.457   2
  -2  -2 -10 99.0647  3.2045   3
   2   2  10 98.7640  3.0186   1
  -3  -2 -10 104.385   3.810   2
  -3  -2 -10 104.554   3.295   3
   3   2  10 103.768   3.317   1
  -4  -2 -10 21.8650  1.8087   2
  -4  -2 -10 20.7806  1.3207   3
   4   2  10 22.6227  1.5032   1
  -5  -2 -10 69.3766  3.7530   2
  -5  -2 -10 90.0467  3.0723   3
   5   2  10 85.3933  3.2606   1
  -6  -2 -10 7.28472 0.96409   3
   6   2  10 7.45307 1.13755   1
  -7  -2 -10 8.47023 1.12327   3
   7   2  10 5.64936 1.15256   1
   8  -3 -10 1.70717 1.00090   2
  -8   3  10 2.25959 1.20099   3
   7  -3 -10 24.0132  2.1565   2
  -7   3  10 31.1221  2.6835   3
   6  -3 -10 13.8831  1.6463   2
  -6   3  10 17.4821  2.0096   3
   5  -3 -10 105.742   4.289   2
  -5   3  10 109.956   4.668   3
   4  -3 -10 31.6425  2.0228   2
  -4   3  10 30.8994  2.2271   3
   3  -3 -10 247.188   6.962   2
  -3   3  10 257.934   7.456   3
   2  -3 -10 124.880   4.099   2
  -2   3  10 130.176   4.575   3
   1  -3 -10 227.566   6.115   2
   1  -3 -10 230.275   6.579   3
   0  -3 -10 182.765   5.460   3
   0  -3 -10 182.291   5.074   2
  -1  -3 -10 127.408   4.153   3
  -1  -3 -10 131.021   3.951   2
  -2  -3 -10 175.784   5.121   3
  -2  -3 -10 171.324   4.939   2
  -3  -3 -10 54.8921  2.4207   3
  -3  -3 -10 59.0988  2.5810   2
  -4  -3 -10 196.975   5.496   3
   4   3  10 194.111   5.345   1
  -5  -3 -10 24.8862  1.6256   3
   5   3  10 26.2016  1.7585   1
  -6  -3 -10 26.9353  1.7696   3
   6   3  10 31.2956  2.0221   1
  -7  -3 -10 20.2476  1.6260   3
   7   3  10 21.4491  1.8569   1
   8  -4 -10 29.0709  2.6463   2
  -8   4  10 25.9915  2.8708   3
   7  -4 -10 7.16661 1.46274   2
  -7   4  10 4.83198 1.51747   3
   6  -4 -10 21.9253  2.0960   2
  -6   4  10 23.5894  2.3255   3
   5  -4 -10 106.764   4.481   2
  -5   4  10 100.960   4.738   3
   4  -4 -10 176.110   5.962   2
  -4   4  10 182.461   6.427   3
   3  -4 -10 15.8740  1.4813   2
  -3   4  10 15.0144  1.6970   3
   2  -4 -10 65.2018  2.7797   2
  -2   4  10 64.5052  3.2367   3
   1  -4 -10 37.7348  2.3464   3
   1  -4 -10 39.3813  1.9765   2
   0  -4 -10 81.0935  3.4810   3
   0  -4 -10 83.8903  2.9865   2
  -1  -4 -10 69.3986  2.6212   2
  -1  -4 -10 68.8067  3.0714   3
  -2  -4 -10 68.1441  2.6165   2
  -2  -4 -10 63.0129  2.8678   3
  -3  -4 -10 43.8124  2.2939   3
  -4  -4 -10 32.1621  1.9325   3
  -5  -4 -10 3.01342 0.76226   3
  -6  -4 -10 104.093   3.932   3
   7  -5 -10 1.82974 1.14200   2
  -7   5  10 5.35522 1.63161   3
   6  -5 -10 29.3937  2.5640   2
  -6   5  10 30.6876  2.8228   3
   5  -5 -10 16.0068  1.8709   2
  -5   5  10 18.3400  2.1470   3
   4  -5 -10 54.9454  3.1207   2
  -4   5  10 59.9653  3.5705   3
   3  -5 -10 110.760   4.387   2
  -3   5  10 125.502   5.168   3
   2  -5 -10 45.8577  2.4194   2
  -2   5  10 43.1015  2.7873   3
   1  -5 -10 78.3551  3.7183   3
   1  -5 -10 76.1953  3.0495   2
   0  -5 -10 32.5733  2.2750   3
   0  -5 -10 36.0436  1.8739   2
  -1  -5 -10 49.2634  2.6324   3
  -1  -5 -10 35.2898  1.8275   2
  -2  -5 -10 8.05728 1.19195   3
  -3  -5 -10 4.46350 0.93985   3
  -4  -5 -10 19.7306  1.6074   3
  -5  -5 -10 37.5710  2.2380   3
   5  -6 -10 20.1509  2.2074   2
  -5   6  10 17.8040  2.2941   3
   4  -6 -10 4.90033 1.22094   2
  -4   6  10 7.22057 1.57633   3
   3  -6 -10 37.4436  2.4769   2
  -3   6  10 37.0905  2.8854   3
   2  -6 -10 26.0282  1.8853   2
   2  -6 -10 20.0436  2.0556   3
   1  -6 -10 10.7851  1.6258   3
   1  -6 -10 7.81127 1.04780   2
   0  -6 -10 2.15784 0.90049   3
  -1  -6 -10 27.1881  2.1555   3
  -2  -6 -10 28.6323  2.1816   3
  -3  -6 -10 115.433   4.571   3
  -4  -6 -10 50.2635  2.8267   3
   3  -7 -10 88.1066  4.1123   2
  -3   7  10 90.7621  4.8024   3
   2  -7 -10 37.7051  2.9731   3
   2  -7 -10 41.8628  2.5255   2
   1  -7 -10 0.58964 0.73832   3
   0  -7 -10 38.7712  2.8459   3
  -1  -7 -10 123.630   5.223   3
  -2  -7 -10 18.9891  2.0379   3
   1   7 -11 25.7642  2.2334   1
  -1  -7  11 25.4956  1.8561   4
   5   6 -11 31.9474  2.5664   1
  -5  -6  11 28.6821  2.0587   4
   4   6 -11 2.48536 0.99299   1
  -4  -6  11 2.57557 0.82674   4
   3   6 -11 12.4551  1.6910   1
  -3  -6  11 12.6379  1.3533   4
   2   6 -11 46.9879  2.8703   1
  -2  -6  11 48.2740  2.4667   4
   1   6 -11 12.1769  1.5711   1
   1   6 -11 10.6196  2.0139   2
  -1  -6  11 11.8329  1.2464   4
   0   6 -11 41.7600  2.6642   1
   0   6 -11 43.7339  3.6450   2
   0  -6  11 48.4361  2.2105   4
  -1   6 -11 64.0331  4.4947   2
   1  -6  11 68.0708  3.3829   1
   1  -6  11 52.6510  2.3161   4
  -2   6 -11 20.8025  2.9598   2
   2  -6  11 22.2724  2.0425   1
  -3   6 -11 49.0453  4.3425   2
   3  -6  11 58.5524  3.2891   1
   6   5 -11 58.1475  3.2932   1
  -6  -5  11 52.0683  2.6682   4
   5   5 -11 12.3394  1.6372   1
  -5  -5  11 14.8175  1.3883   4
   4   5 -11 27.9683  2.2216   1
  -4  -5  11 28.4162  1.8586   4
   3   5 -11 20.1538  1.8455   1
   3   5 -11 18.7526  1.9892   2
  -3  -5  11 19.8153  1.5029   4
   2   5 -11 18.0912  1.7246   1
   2   5 -11 20.3037  2.1650   2
  -2  -5  11 21.8717  1.5334   4
   1   5 -11 13.8839  1.5235   1
   1   5 -11 10.0069  1.7264   2
  -1  -5  11 12.9252  1.1605   4
   0   5 -11 17.8325  2.2549   2
   0   5 -11 17.1502  1.6365   1
   0  -5  11 15.3837  1.1904   4
  -1   5 -11 105.139   5.473   2
   1  -5  11 105.241   3.250   4
   1  -5  11 95.3734  4.0332   1
  -2   5 -11 32.9747  3.1971   2
   2  -5  11 32.0173  2.2988   1
  -3   5 -11 37.2058  3.5402   2
   3  -5  11 42.1250  2.6661   1
  -4   5 -11 8.06750 2.17456   2
   4  -5  11 12.1371  1.6374   1
  -5   5 -11 13.5899  2.6950   2
   5  -5  11 15.5261  1.8741   1
   7   4 -11 45.1407  2.8558   1
  -7  -4  11 47.9085  2.3957   4
   6   4 -11 38.7563  2.5215   1
  -6  -4  11 37.8765  2.0793   4
   5   4 -11 5.87177 1.16658   1
  -5  -4  11 6.34668 0.92603   4
   4   4 -11 188.312   6.055   2
   4   4 -11 202.560   6.148   1
  -4  -4  11 189.203   5.402   4
   3   4 -11 25.7801  1.9983   2
   3   4 -11 26.2539  1.9511   1
  -3  -4  11 28.0988  1.6460   4
   2   4 -11 25.7729  1.8891   1
   2   4 -11 23.8870  2.0207   2
  -2  -4  11 26.7129  1.5563   4
   1   4 -11 7.33376 1.11831   1
   1   4 -11 10.9135  1.5255   2
  -1  -4  11 8.14837 0.87586   4
   0   4 -11 54.2184  3.3254   2
   0   4 -11 56.1418  2.7689   1
   0  -4  11 55.5470  2.1482   4
  -1   4 -11 25.0356  2.4181   2
   1  -4  11 25.9556  1.9160   1
  -2   4 -11 9.01713 1.80712   2
   2  -4  11 9.76672 1.32736   1
  -3   4 -11 44.7067  3.6084   2
   3  -4  11 50.5543  2.8637   1
  -4   4 -11 2.00467 1.34292   2
   4  -4  11 2.15854 0.86339   1
  -5   4 -11 44.1807  4.1233   2
   5  -4  11 43.2534  2.8468   1
  -6   4 -11 38.4852  3.9805   2
   6  -4  11 32.7672  2.6698   1
   8   3 -11 1.42692 0.82716   1
  -8  -3  11 0.30364 0.50955   4
   7   3 -11 49.2459  2.7615   1
  -7  -3  11 40.3086  2.0650   4
   6   3 -11 4.66611 1.03444   1
  -6  -3  11 5.32529 0.85456   4
   5   3 -11 3.89321 0.92011   1
   5   3 -11 5.45080 0.89035   2
  -5  -3  11 5.62742 0.80759   4
   4   3 -11 22.6604  1.7475   1
   4   3 -11 27.1603  1.7489   2
  -4  -3  11 23.3873  1.4205   4
   3   3 -11 28.9074  1.8947   2
   3   3 -11 33.0576  2.0384   1
  -3  -3  11 32.3507  1.6439   4
   2   3 -11 60.4905  2.9065   2
   2   3 -11 60.3259  2.7221   1
  -2  -3  11 61.4756  2.2941   4
   1   3 -11 519.878  12.001   1
   1   3 -11 528.756  13.384   2
  -1  -3  11 547.366  11.587   4
   0   3 -11 245.324   6.768   1
   0   3 -11 270.732   8.042   2
  -1   3 -11 4.57243 1.14480   2
   1  -3  11 3.96466 0.88937   1
  -2   3 -11 20.5786  2.2032   2
   2  -3  11 15.3068  1.4791   1
  -3   3 -11 4.02785 1.33822   2
   3  -3  11 3.65227 0.91235   1
  -4   3 -11 37.9424  3.2557   2
   4  -3  11 30.5199  2.1966   1
  -5   3 -11 17.4645  2.6137   2
   5  -3  11 20.1244  1.9168   1
  -6   3 -11 -0.1821  1.1668   2
   6  -3  11 1.63939 0.86390   1
   8   2 -11 0.81300 0.77548   1
   7   2 -11 31.0338  2.1005   1
   7   2 -11 33.5678  1.9275   2
   6   2 -11 107.473   3.951   1
   6   2 -11 112.635   3.715   2
  -6  -2  11 108.398   3.470   4
   5   2 -11 146.615   4.390   2
   5   2 -11 142.181   4.590   1
  -5  -2  11 138.718   4.082   4
   4   2 -11 136.890   4.345   1
   4   2 -11 129.768   4.197   2
  -4  -2  11 134.138   3.855   4
   3   2 -11 164.868   4.974   2
   3   2 -11 165.579   4.875   1
   2   2 -11 33.0385  1.8520   1
   2   2 -11 33.3727  1.9130   2
   1   2 -11 392.815   9.030   1
   1   2 -11 375.572   9.822   2
   0   2 -11 85.3214  3.5725   2
   0   2 -11 76.7226  2.9483   1
   0  -2  11 78.6004  3.0875   1
  -1   2 -11 38.7157  2.4278   2
   1  -2  11 32.1474  1.9205   1
  -2   2 -11 64.6493  3.5058   2
   2  -2  11 68.7366  2.9645   1
  -3   2 -11 161.816   6.460   2
   3  -2  11 169.511   5.330   1
  -4   2 -11 66.1765  4.0623   2
   4  -2  11 63.8794  3.0961   1
  -5   2 -11 81.3144  4.8438   2
   5  -2  11 80.3533  3.6661   1
  -6   2 -11 13.6755  2.4194   2
   6  -2  11 14.5972  1.7153   1
  -7   2 -11 13.7335  2.6379   2
   7  -2  11 12.3893  1.6912   1
   8   1 -11 57.4023  2.6237   2
   7   1 -11 1.43032 0.65664   1
   7   1 -11 2.19118 0.67290   2
   6   1 -11 41.0544  2.1656   1
   6   1 -11 44.6675  2.1337   2
   5   1 -11 110.131   3.653   1
   5   1 -11 105.413   3.576   2
   4   1 -11 47.1976  2.1679   2
   4   1 -11 45.3259  2.1053   1
   3   1 -11 119.732   3.921   2
   3   1 -11 129.979   3.838   1
   2   1 -11 14.2647  1.1181   1
   2   1 -11 15.5628  1.2393   2
   1   1 -11 588.433  13.729   2
   1   1 -11 589.707  12.501   1
   0   1 -11 136.409   4.597   2
   0  -1  11 145.784   4.217   1
  -1   1 -11 40.3724  2.3715   2
   1  -1  11 43.9958  2.1110   1
  -2   1 -11 332.588   9.373   2
   2  -1  11 336.053   8.261   1
  -3   1 -11 27.7325  2.2611   2
   3  -1  11 27.6662  1.8480   1
  -4   1 -11 131.456   5.668   2
   4  -1  11 134.032   4.590   1
  -5   1 -11 70.7552  4.2971   2
   5  -1  11 72.2763  3.3161   1
  -6   1 -11 1.70808 1.13641   2
   6  -1  11 1.03888 0.71410   1
  -7   1 -11 36.1454  3.6995   2
   7  -1  11 32.9160  2.4746   1
   9   0 -11 1.84010 0.78577   2
   8   0 -11 24.7967  1.7878   2
   7   0 -11 14.8428  1.3349   2
   6   0 -11 57.9714  2.5864   2
   5   0 -11 135.586   4.258   2
   5   0 -11 133.740   3.935   1
   4   0 -11 235.427   6.345   2
   4   0 -11 236.074   5.786   1
   3   0 -11 26.3952  1.5344   2
   3   0 -11 28.5541  1.4505   1
   2   0 -11 51.1882  1.9786   1
   2   0 -11 49.7155  2.1914   2
   1   0 -11 311.704   7.904   2
  -1   0  11 309.644   7.169   1
   0   0 -11 1048.75   22.88   2
   0   0  11 1041.40   20.82   1
  -1   0 -11 32.6751  1.9751   2
   1   0  11 30.9569  1.7097   1
  -2   0 -11 -0.0330  0.4757   2
   2   0  11 0.11519 0.41356   1
  -3   0 -11 7.09152 1.23356   2
   3   0  11 6.29573 0.94974   1
  -4   0 -11 42.1313  2.8699   2
   4   0  11 41.4811  2.2741   1
  -5   0 -11 72.0211  4.0534   2
   5   0  11 60.1505  2.9550   1
  -6   0 -11 74.4237  4.4914   2
   6   0  11 70.0079  3.3149   1
  -7   0 -11 59.8598  4.4083   2
   7   0  11 63.8299  3.3323   1
   9  -1 -11 17.3792  1.7946   2
  -9   1  11 11.2089  1.9771   3
   8  -1 -11 55.3889  2.8770   2
  -8   1  11 43.7235  3.2421   3
   7  -1 -11 2.77951 0.81418   2
  -7   1  11 1.04662 0.83561   3
   6  -1 -11 43.4675  2.2928   2
  -6   1  11 40.1171  2.6879   3
   5  -1 -11 104.066   3.749   2
  -5   1  11 108.833   4.179   3
   4  -1 -11 45.9618  2.2042   2
  -4   1  11 45.4341  2.3894   3
   3  -1 -11 128.443   4.050   2
  -3   1  11 126.087   4.090   3
   2  -1 -11 15.8556  1.2261   2
   2  -1 -11 13.1964  1.1890   3
  -2   1  11 15.7628  1.1898   3
   1  -1 -11 589.281  13.054   2
   1  -1 -11 615.013  12.549   3
  -1   1  11 493.939  11.509   1
   0  -1 -11 154.706   4.134   3
   0  -1 -11 150.186   4.590   2
  -1  -1 -11 50.0323  1.8640   3
  -1  -1 -11 48.3300  2.3148   2
   1   1  11 45.1712  1.9625   1
  -2  -1 -11 348.827   7.898   3
  -2  -1 -11 345.033   9.030   2
   2   1  11 342.825   8.006   1
  -3  -1 -11 27.5318  2.0158   2
  -3  -1 -11 24.2806  1.3062   3
   3   1  11 25.0242  1.5996   1
  -4  -1 -11 134.918   5.145   2
  -4  -1 -11 131.694   3.832   3
   4   1  11 124.541   4.208   1
  -5  -1 -11 70.2318  3.8968   2
  -5  -1 -11 69.3224  2.7106   3
   5   1  11 71.7335  3.0744   1
  -6  -1 -11 1.10878 1.10469   2
  -6  -1 -11 1.09897 0.56225   3
   6   1  11 0.77267 0.67597   1
  -7  -1 -11 34.6997  2.2100   3
   7   1  11 35.7355  2.4610   1
   8  -2 -11 2.53560 1.00463   2
  -8   2  11 0.57322 1.01556   3
   7  -2 -11 32.1526  2.2854   2
  -7   2  11 35.0900  2.8089   3
   6  -2 -11 106.831   4.221   2
  -6   2  11 113.856   4.801   3
   5  -2 -11 142.047   4.779   2
  -5   2  11 144.647   5.268   3
   4  -2 -11 131.955   4.410   2
  -4   2  11 135.963   4.806   3
   3  -2 -11 159.660   4.848   2
  -3   2  11 159.097   5.126   3
   2  -2 -11 34.4911  1.8167   2
  -2   2  11 32.4389  1.8923   3
   1  -2 -11 432.315  10.158   3
   1  -2 -11 408.022  10.039   2
   0  -2 -11 77.7364  2.9247   2
   0  -2 -11 82.0565  2.9234   3
  -1  -2 -11 34.4382  1.8813   2
  -1  -2 -11 38.1421  1.7965   3
  -2  -2 -11 62.5769  2.4166   3
  -2  -2 -11 63.1457  2.7800   2
   2   2  11 67.8851  2.4043   1
  -3  -2 -11 163.999   4.599   3
  -3  -2 -11 170.530   5.445   2
   3   2  11 163.998   4.642   1
  -4  -2 -11 72.8218  2.7124   3
  -4  -2 -11 68.4922  3.3888   2
   4   2  11 65.6056  2.7713   1
  -5  -2 -11 72.4816  2.7898   3
  -5  -2 -11 55.1675  3.4315   2
   5   2  11 73.0963  3.0282   1
  -6  -2 -11 14.6716  1.3463   3
   6   2  11 16.0686  1.5777   1
  -7  -2 -11 13.9301  1.4232   3
   7   2  11 18.2067  1.8067   1
   8  -3 -11 1.11490 0.97026   2
  -8   3  11 0.41174 1.04762   3
   7  -3 -11 40.2189  2.7432   2
  -7   3  11 45.2277  3.2337   3
   6  -3 -11 4.85784 1.06677   2
  -6   3  11 4.94391 1.30488   3
   5  -3 -11 6.40964 1.11369   2
  -5   3  11 6.39621 1.33175   3
   4  -3 -11 19.5107  1.6118   2
  -4   3  11 24.2339  2.0073   3
   3  -3 -11 33.6870  1.9329   2
  -3   3  11 30.3035  2.1899   3
   2  -3 -11 55.7785  2.5391   2
  -2   3  11 64.5896  2.9574   3
   1  -3 -11 578.959  13.700   3
   1  -3 -11 575.674  13.348   2
   0  -3 -11 268.704   7.056   2
   0  -3 -11 268.854   7.323   3
  -1  -3 -11 3.41743 0.70272   2
  -1  -3 -11 4.07685 0.79589   3
  -2  -3 -11 18.0451  1.3468   3
  -2  -3 -11 19.9293  1.4761   2
  -3  -3 -11 4.00877 0.88540   2
  -3  -3 -11 5.51669 0.81369   3
  -4  -3 -11 34.4353  1.8999   3
  -5  -3 -11 17.1805  1.4064   3
  -6  -3 -11 1.35432 0.61920   3
   6   3  11 1.89305 0.76563   1
   7  -4 -11 39.5112  2.9238   2
  -7   4  11 50.7023  3.6104   3
   6  -4 -11 43.1792  2.8751   2
  -6   4  11 43.1857  3.2204   3
   5  -4 -11 6.55107 1.20112   2
  -5   4  11 8.21124 1.52632   3
   4  -4 -11 186.481   6.159   2
  -4   4  11 201.493   6.846   3
   3  -4 -11 28.9364  1.9163   2
  -3   4  11 25.5402  2.1554   3
   2  -4 -11 22.5198  1.6069   2
   2  -4 -11 21.9746  1.8793   3
  -2   4  11 22.3810  1.8774   3
   1  -4 -11 9.43482 1.05131   2
   1  -4 -11 10.4204  1.3455   3
   0  -4 -11 57.4592  2.9354   3
   0  -4 -11 61.1036  2.5559   2
  -1  -4 -11 28.3446  1.6580   2
  -1  -4 -11 27.1790  1.8659   3
  -2  -4 -11 9.73836 1.04026   2
  -2  -4 -11 12.3643  1.2395   3
  -3  -4 -11 48.7931  2.4651   3
  -4  -4 -11 2.99344 0.76057   3
  -5  -4 -11 41.8712  2.3182   3
  -6  -4 -11 37.9739  2.2777   3
   6  -5 -11 53.8281  3.4502   2
  -6   5  11 54.5304  3.7735   3
   5  -5 -11 10.9102  1.6001   2
  -5   5  11 10.9328  1.8129   3
   4  -5 -11 26.2453  2.0749   2
  -4   5  11 27.5527  2.5159   3
   3  -5 -11 18.6109  1.6741   2
  -3   5  11 20.7484  2.1524   3
   2  -5 -11 18.4989  1.5266   2
   2  -5 -11 21.0816  2.0117   3
   1  -5 -11 12.8108  1.6277   3
   1  -5 -11 13.3801  1.2958   2
   0  -5 -11 14.9328  1.3074   2
   0  -5 -11 15.2697  1.6855   3
  -1  -5 -11 98.1053  3.9660   3
  -1  -5 -11 75.7073  3.0758   2
  -2  -5 -11 33.0558  2.2103   3
  -3  -5 -11 42.6244  2.4903   3
  -4  -5 -11 12.9257  1.4293   3
  -5  -5 -11 13.6892  1.4770   3
   5  -6 -11 34.1072  2.6867   2
  -5   6  11 29.9459  2.9208   3
   4  -6 -11 3.87999 1.09984   2
  -4   6  11 4.41834 1.35327   3
   3  -6 -11 10.1270  1.4141   2
  -3   6  11 13.9988  1.8895   3
   2  -6 -11 50.7463  2.6323   2
   2  -6 -11 44.7926  3.0531   3
   1  -6 -11 13.7945  1.8186   3
   1  -6 -11 14.0293  1.3704   2
   0  -6 -11 43.2221  2.8569   3
  -1  -6 -11 65.0873  3.4351   3
  -2  -6 -11 19.8227  1.8500   3
  -3  -6 -11 47.7462  2.7683   3
   1  -7 -11 23.4372  2.3604   3
   4   6 -12 35.6047  2.7090   1
  -4  -6  12 35.5365  2.2533   4
   3   6 -12 62.6762  3.4657   1
  -3  -6  12 57.1925  2.8082   4
   2   6 -12 44.8339  2.9246   1
  -2  -6  12 50.9227  2.4904   4
   1   6 -12 11.9798  2.1946   2
   1   6 -12 14.1333  1.7079   1
  -1  -6  12 17.9879  1.4946   4
   0   6 -12 9.92054 2.10601   2
   0   6 -12 7.73686 1.38181   1
   0  -6  12 12.2772  1.2069   4
  -1   6 -12 18.9759  2.8323   2
   1  -6  12 19.3347  1.9732   1
  -2   6 -12 40.0590  3.8281   2
   2  -6  12 31.0741  2.4663   1
  -6  -5  12 24.5743  1.8336   4
   5   5 -12 38.0607  2.6926   1
  -5  -5  12 41.3689  2.2762   4
   4   5 -12 2.32705 0.89418   1
  -4  -5  12 4.83955 0.92373   4
   3   5 -12 33.9959  2.6867   2
   3   5 -12 37.7641  2.5529   1
  -3  -5  12 32.3719  1.9280   4
   2   5 -12 61.8519  3.1797   1
   2   5 -12 65.5205  3.8173   2
  -2  -5  12 58.1918  2.5598   4
   1   5 -12 165.031   5.628   1
   1   5 -12 174.515   6.911   2
  -1  -5  12 165.858   4.812   4
   0   5 -12 23.1602  2.5975   2
   0   5 -12 23.7225  1.9823   1
   0  -5  12 24.0420  1.4880   4
  -1   5 -12 14.9783  2.3458   2
   1  -5  12 14.2680  1.6502   1
  -2   5 -12 11.9365  2.2322   2
   2  -5  12 12.9142  1.6165   1
  -3   5 -12 6.36626 1.89398   2
   3  -5  12 3.15563 1.09034   1
  -4   5 -12 62.1293  4.8992   2
   4  -5  12 63.0560  3.5724   1
   7   4 -12 4.10566 1.20611   1
  -7  -4  12 5.11172 0.94138   4
   6   4 -12 76.5806  3.7305   1
  -6  -4  12 70.2812  3.0017   4
   5   4 -12 23.6682  2.0226   1
  -5  -4  12 26.6445  1.6986   4
   4   4 -12 3.28594 0.96415   1
   4   4 -12 3.62625 0.97071   2
  -4  -4  12 2.64509 0.71402   4
   3   4 -12 2.61987 0.92827   2
   3   4 -12 1.24822 0.75159   1
  -3  -4  12 3.07641 0.70453   4
   2   4 -12 98.5859  4.3723   2
   2   4 -12 90.3897  3.7463   1
  -2  -4  12 94.0868  3.2568   4
   1   4 -12 29.9085  2.4895   2
   1   4 -12 35.8030  2.2449   1
  -1  -4  12 32.8322  1.6970   4
   0   4 -12 19.9485  1.7058   1
   0   4 -12 17.2764  2.0592   2
  -1   4 -12 48.5395  3.4826   2
   1  -4  12 42.9196  2.5697   1
  -2   4 -12 47.9259  3.5966   2
   2  -4  12 46.7346  2.7332   1
  -3   4 -12 56.0797  4.1255   2
   3  -4  12 58.2324  3.1667   1
  -4   4 -12 17.5211  2.7014   2
   4  -4  12 15.2994  1.7920   1
  -5   4 -12 41.2975  4.0287   2
   5  -4  12 43.4729  2.9638   1
   7   3 -12 21.6485  1.9647   1
  -7  -3  12 21.0504  1.5083   4
   6   3 -12 23.3720  1.9112   1
  -6  -3  12 19.6078  1.4179   4
   5   3 -12 66.3623  3.1206   1
   5   3 -12 68.5843  3.0098   2
  -5  -3  12 64.2776  2.6141   4
   4   3 -12 63.6267  2.9740   1
   4   3 -12 61.7607  2.9028   2
  -4  -3  12 59.0103  2.4470   4
   3   3 -12 22.4297  1.7328   1
   3   3 -12 20.7761  1.6825   2
  -3  -3  12 19.9515  1.3175   4
   2   3 -12 16.2170  1.5715   2
   2   3 -12 16.0501  1.4398   1
   1   3 -12 4.94050 1.09439   2
   1   3 -12 7.06689 1.07940   1
   0   3 -12 105.138   3.806   1
   0   3 -12 99.1180  4.4657   2
  -1   3 -12 33.1771  2.5978   2
   1  -3  12 30.9175  2.0430   1
  -2   3 -12 127.536   5.734   2
   2  -3  12 120.375   4.445   1
  -3   3 -12 31.5951  2.9034   2
   3  -3  12 28.5947  2.1394   1
  -4   3 -12 16.5811  2.4874   2
   4  -3  12 18.0279  1.8301   1
  -5   3 -12 31.3239  3.4240   2
   5  -3  12 25.6219  2.2438   1
  -6   3 -12 79.3609  5.5426   2
   6  -3  12 76.8558  3.9245   1
   8   2 -12 0.21760 0.71889   1
   7   2 -12 54.6558  2.8740   1
   7   2 -12 59.6983  2.6885   2
   6   2 -12 51.3189  2.6958   1
   6   2 -12 54.5481  2.5226   2
   5   2 -12 6.76270 0.96782   2
   5   2 -12 6.87992 1.05892   1
   4   2 -12 0.98583 0.57133   1
   4   2 -12 1.22125 0.55503   2
   3   2 -12 28.8536  1.8238   1
   3   2 -12 29.2726  1.8410   2
   2   2 -12 442.153  11.117   2
   2   2 -12 440.915  10.217   1
   1   2 -12 164.471   5.485   2
   1   2 -12 169.953   4.963   1
   0   2 -12 19.8047  1.7414   2
   0  -2  12 17.9426  1.4548   1
  -1   2 -12 91.5080  4.1912   2
   1  -2  12 101.275   3.728   1
  -2   2 -12 19.7947  2.0429   2
   2  -2  12 21.9147  1.6898   1
  -3   2 -12 104.022   5.182   2
   3  -2  12 113.432   4.204   1
  -4   2 -12 28.0015  2.7839   2
   4  -2  12 28.9829  2.1694   1
  -5   2 -12 16.0937  2.4557   2
   5  -2  12 15.4919  1.7279   1
  -6   2 -12 23.8176  3.0758   2
   6  -2  12 19.2400  2.0190   1
   8   1 -12 3.73524 0.89410   2
   7   1 -12 19.2634  1.5393   2
   6   1 -12 51.6251  2.5465   1
   6   1 -12 66.2977  2.7215   2
   5   1 -12 100.435   3.535   1
   5   1 -12 104.957   3.665   2
   4   1 -12 1.07634 0.55374   1
   4   1 -12 1.52982 0.58974   2
   3   1 -12 23.5824  1.5867   2
   3   1 -12 23.2244  1.4843   1
   2   1 -12 28.2361  1.7105   2
   2   1 -12 28.8496  1.6358   1
   1   1 -12 299.296   8.095   2
   1   1 -12 302.526   7.243   1
   0   1 -12 257.604   7.446   2
   0  -1  12 264.451   6.698   1
  -1   1 -12 63.4767  3.1749   2
   1  -1  12 64.6596  2.7674   1
  -2   1 -12 24.5868  2.0778   2
   2  -1  12 28.6000  1.8537   1
  -3   1 -12 102.889   4.742   2
   3  -1  12 109.510   4.015   1
  -4   1 -12 4.86611 1.41122   2
   4  -1  12 7.34475 1.18549   1
  -5   1 -12 31.9258  3.0036   2
   5  -1  12 32.2890  2.2769   1
  -6   1 -12 46.0282  3.8351   2
   6  -1  12 45.3210  2.8506   1
   8   0 -12 0.32516 0.58157   2
   7   0 -12 65.7643  2.9572   2
   6   0 -12 4.61128 0.86073   2
   5   0 -12 101.101   3.639   2
   4   0 -12 5.99643 0.88076   2
   3   0 -12 3.30225 0.73558   2
   3   0 -12 1.57874 0.51273   1
   2   0 -12 4.19864 0.68028   1
   2   0 -12 3.85228 0.73461   2
   1   0 -12 350.733   8.986   2
   0   0 -12 72.1537  3.1052   2
   0   0  12 75.6293  2.7689   1
  -1   0 -12 473.317  11.885   2
   1   0  12 476.207  10.651   1
  -2   0 -12 33.1680  2.2503   2
   2   0  12 36.8750  2.0403   1
  -3   0 -12 20.3215  1.9510   2
   3   0  12 19.7936  1.5553   1
  -4   0 -12 57.1893  3.4711   2
   4   0  12 53.6838  2.6867   1
  -5   0 -12 -0.1255  0.8863   2
   5   0  12 0.20381 0.60515   1
  -6   0 -12 130.487   6.325   2
   6   0  12 129.285   4.860   1
   8  -1 -12 3.63977 0.96944   2
   7  -1 -12 17.0127  1.5324   2
   6  -1 -12 68.1000  3.0212   2
   5  -1 -12 99.2439  3.6569   2
   4  -1 -12 0.63127 0.47162   2
   3  -1 -12 23.0472  1.5467   2
   2  -1 -12 30.9613  1.8122   2
   1  -1 -12 308.995   7.993   2
   0  -1 -12 262.931   7.158   2
  -1  -1 -12 62.0267  2.7995   2
   1   1  12 62.0662  2.4416   1
  -2  -1 -12 26.0687  1.8806   2
   2   1  12 23.6661  1.5327   1
  -3  -1 -12 101.487   4.277   2
   3   1  12 100.307   3.562   1
  -4  -1 -12 8.47175 1.45051   2
   4   1  12 4.81459 0.94580   1
  -5  -1 -12 29.1735  2.6592   2
   5   1  12 29.2123  1.9912   1
  -6  -1 -12 29.8036  3.0742   2
   6   1  12 42.9503  2.5437   1
   8  -2 -12 0.38895 0.65665   2
  -8   2  12 0.99877 1.11933   3
   7  -2 -12 55.8077  2.8960   2
  -7   2  12 38.2696  2.9536   3
   6  -2 -12 51.4274  2.6230   2
  -6   2  12 37.9240  2.7718   3
   5  -2 -12 5.60629 0.97632   2
  -5   2  12 5.17526 1.11548   3
   4  -2 -12 0.59104 0.50330   2
  -4   2  12 1.23857 0.69424   3
   3  -2 -12 31.5254  1.8403   2
  -3   2  12 31.4605  2.0242   3
   2  -2 -12 475.103  11.334   3
   2  -2 -12 461.383  11.249   2
   1  -2 -12 175.763   5.349   2
   1  -2 -12 189.467   5.362   3
   0  -2 -12 20.7250  1.4141   3
   0  -2 -12 19.4133  1.4462   2
  -1  -2 -12 95.0251  3.5223   2
  -1  -2 -12 97.1395  3.2308   3
  -2  -2 -12 25.2470  1.4522   3
  -2  -2 -12 24.2051  1.8104   2
  -3  -2 -12 114.915   4.479   2
  -3  -2 -12 115.703   3.651   3
  -4  -2 -12 31.0954  1.7108   3
  -4  -2 -12 32.4574  2.4131   2
   4   2  12 31.0255  1.8920   1
  -5  -2 -12 15.5559  1.2960   3
   5   2  12 13.9896  1.4249   1
  -6  -2 -12 23.2924  1.6776   3
   6   2  12 20.2314  1.8014   1
   7  -3 -12 22.5485  2.0169   2
  -7   3  12 24.2426  2.5856   3
   6  -3 -12 20.0741  1.7922   2
  -6   3  12 21.7009  2.2811   3
   5  -3 -12 70.2150  3.2589   2
  -5   3  12 74.3828  3.7909   3
   4  -3 -12 59.6569  2.8741   2
  -4   3  12 67.1952  3.4066   3
   3  -3 -12 18.3723  1.4585   2
  -3   3  12 16.7115  1.6828   3
   2  -3 -12 16.7130  1.3601   2
   2  -3 -12 16.8059  1.5790   3
   1  -3 -12 5.76983 1.02131   3
   1  -3 -12 6.23998 0.92914   2
   0  -3 -12 105.592   3.816   3
   0  -3 -12 104.448   3.680   2
  -1  -3 -12 35.1791  2.0117   3
  -1  -3 -12 37.8724  2.0508   2
  -2  -3 -12 133.799   4.330   3
  -2  -3 -12 130.171   4.498   2
  -3  -3 -12 23.4391  1.8505   2
  -3  -3 -12 25.4598  1.6287   3
  -4  -3 -12 16.3679  1.3578   3
  -5  -3 -12 27.7251  1.8131   3
  -6  -3 -12 72.0656  3.1248   3
   7  -4 -12 4.26904 1.22544   2
  -7   4  12 3.85611 1.46411   3
   6  -4 -12 64.5777  3.5270   2
  -6   4  12 72.3560  4.1275   3
  -5   4  12 23.5970  2.2995   3
   4  -4 -12 3.06893 0.90251   2
  -4   4  12 3.06374 1.12056   3
   3  -4 -12 2.12934 0.72419   2
  -3   4  12 1.70331 0.87279   3
   2  -4 -12 92.8765  4.0811   3
   2  -4 -12 96.0507  3.5924   2
   1  -4 -12 34.8931  2.3633   3
   1  -4 -12 34.7702  1.9953   2
   0  -4 -12 18.1228  1.4470   2
   0  -4 -12 17.4722  1.6035   3
  -1  -4 -12 53.6138  2.7180   3
  -1  -4 -12 52.2441  2.4427   2
  -2  -4 -12 33.9216  2.0625   2
  -2  -4 -12 43.4192  2.3120   3
  -3  -4 -12 56.4352  2.7252   3
  -4  -4 -12 16.8777  1.4754   3
  -5  -4 -12 44.1670  2.4388   3
   5  -5 -12 43.8179  2.8118   2
  -5   5  12 40.5131  3.2095   3
   4  -5 -12 5.24153 1.14438   2
  -4   5  12 2.85489 1.12404   3
   3  -5 -12 34.9512  2.2164   2
  -3   5  12 33.4380  2.6023   3
   2  -5 -12 61.0826  3.4162   3
   2  -5 -12 57.8967  2.7937   2
   1  -5 -12 171.886   5.384   2
   1  -5 -12 178.786   6.304   3
   0  -5 -12 28.2437  1.8129   2
   0  -5 -12 22.4099  1.9705   3
  -1  -5 -12 13.8002  1.5593   3
  -2  -5 -12 13.8745  1.5026   3
  -3  -5 -12 5.98551 1.11838   3
  -4  -5 -12 60.4879  3.0190   3
   4  -6 -12 33.8178  2.5040   2
  -4   6  12 37.9141  3.1388   3
   3  -6 -12 52.7419  3.4985   3
   3  -6 -12 60.3886  3.0642   2
  -3   6  12 58.2512  3.6576   3
   2  -6 -12 45.7900  3.1364   3
   2  -6 -12 47.2703  2.5746   2
   1  -6 -12 15.3987  1.9267   3
   1  -6 -12 16.5287  1.4989   2
   0  -6 -12 9.53993 1.52440   3
  -1  -6 -12 18.9946  1.9111   3
  -2  -6 -12 33.1751  2.4121   3
   1   6 -13 45.6076  3.8640   2
   1   6 -13 48.0698  3.0633   1
  -1  -6  13 49.1692  2.3748   4
  -5  -5  13 24.1300  1.7957   4
   4   5 -13 10.4990  1.5827   1
  -4  -5  13 9.55509 1.18909   4
   3   5 -13 37.1165  2.8955   2
   3   5 -13 35.5637  2.5807   1
  -3  -5  13 39.5863  2.1223   4
   2   5 -13 6.19457 1.54506   2
   2   5 -13 4.37346 1.12548   1
  -2  -5  13 4.97828 0.91399   4
   1   5 -13 24.5774  2.6647   2
   1   5 -13 27.3775  2.2040   1
  -1  -5  13 24.3718  1.6270   4
   0   5 -13 100.869   5.400   2
   0   5 -13 98.5346  4.2193   1
   0  -5  13 102.527   4.423   1
  -1   5 -13 4.35078 1.60411   2
   1  -5  13 4.79947 1.17983   1
  -2   5 -13 31.6300  3.2872   2
   2  -5  13 31.6254  2.4620   1
   3  -5  13 10.9664  1.6713   1
   6   4 -13 22.2867  2.1425   1
  -6  -4  13 21.0093  1.6298   4
   5   4 -13 5.06801 1.17004   1
  -5  -4  13 5.91115 0.97939   4
   4   4 -13 32.0622  2.3846   2
   4   4 -13 31.2679  2.2884   1
  -4  -4  13 31.4220  1.8305   4
   3   4 -13 41.1215  2.5602   1
   3   4 -13 43.7713  2.8370   2
  -3  -4  13 42.5563  2.1254   4
   2   4 -13 216.240   6.575   1
   2   4 -13 213.896   7.413   2
  -2  -4  13 214.408   5.784   4
   1   4 -13 20.1558  1.7965   1
   1   4 -13 19.4801  2.1746   2
   0   4 -13 17.0532  2.1691   2
   0  -4  13 18.6251  1.7682   1
  -1   4 -13 114.347   5.664   2
   1  -4  13 112.704   4.474   1
  -2   4 -13 70.9749  4.5478   2
   2  -4  13 64.0117  3.3353   1
  -3   4 -13 13.2111  2.4344   2
   3  -4  13 15.4188  1.7793   1
  -4   4 -13 45.9055  4.1112   2
   4  -4  13 45.7163  3.0086   1
   7   3 -13 62.7466  3.3557   1
   6   3 -13 10.4650  1.4329   1
   5   3 -13 9.06631 1.32219   1
   5   3 -13 9.59679 1.25719   2
   4   3 -13 1.63427 0.76693   1
   4   3 -13 0.94208 0.61387   2
   3   3 -13 43.5479  2.5551   2
   3   3 -13 45.3260  2.4928   1
   2   3 -13 14.5119  1.6363   2
   2   3 -13 13.8248  1.4232   1
   1   3 -13 21.0940  1.9679   2
   1   3 -13 19.3174  1.6273   1
   0   3 -13 66.3014  3.6612   2
   0  -3  13 60.8229  2.9662   1
  -1   3 -13 20.1635  2.2199   2
   1  -3  13 19.3877  1.6963   1
  -2   3 -13 6.74779 1.62892   2
   2  -3  13 6.27308 1.16917   1
  -3   3 -13 10.6531  2.0119   2
   3  -3  13 9.15335 1.39122   1
  -4   3 -13 44.0582  3.8593   2
   4  -3  13 41.8326  2.7625   1
  -5   3 -13 73.7189  5.1464   2
   5  -3  13 73.3963  3.8277   1
   7   2 -13 20.9647  1.8869   1
   7   2 -13 26.3700  1.8138   2
   6   2 -13 8.87648 1.14723   2
   6   2 -13 8.36549 1.23784   1
   5   2 -13 20.3899  1.7135   1
   5   2 -13 21.6885  1.6565   2
   4   2 -13 33.8355  2.0431   2
   4   2 -13 34.3578  2.0906   1
   3   2 -13 0.81722 0.57695   1
   3   2 -13 1.97125 0.68979   2
   2   2 -13 35.0284  2.0311   1
   2   2 -13 33.2738  2.1501   2
   1   2 -13 35.9003  2.3461   2
   1   2 -13 39.2052  2.1333   1
   0   2 -13 34.4535  2.4279   2
   0  -2  13 34.4276  2.0563   1
  -1   2 -13 30.1844  2.4395   2
   1  -2  13 32.4122  2.0531   1
  -2   2 -13 49.0951  3.2642   2
   2  -2  13 44.4777  2.5591   1
  -3   2 -13 34.9956  3.0554   2
   3  -2  13 37.7773  2.4145   1
  -4   2 -13 3.11107 1.41377   2
   4  -2  13 2.43900 0.98239   1
  -5   2 -13 29.1110  3.2639   2
   5  -2  13 32.6315  2.4496   1
   8   1 -13 18.7017  1.6630   2
   7   1 -13 15.7195  1.4849   2
   6   1 -13 20.3763  1.6124   2
   5   1 -13 4.91434 0.89496   2
   4   1 -13 18.1825  1.4198   2
   4   1 -13 13.8631  1.3077   1
   3   1 -13 53.6261  2.5711   2
   3   1 -13 52.0346  2.3353   1
   2   1 -13 21.5995  1.6322   2
   2   1 -13 17.8290  1.3764   1
   1   1 -13 66.9598  3.0906   2
  -1  -1  13 67.8458  2.7738   1
   0   1 -13 122.454   4.632   2
   0  -1  13 125.651   4.127   1
  -1   1 -13 43.9337  2.7506   2
   1  -1  13 48.7054  2.4238   1
  -2   1 -13 32.9620  2.5229   2
   2  -1  13 29.7078  1.9854   1
  -3   1 -13 1.60573 0.96508   2
   3  -1  13 2.14538 0.75775   1
  -4   1 -13 60.4472  3.9587   2
   4  -1  13 62.3435  3.1514   1
  -5   1 -13 14.2518  2.3084   2
   5  -1  13 16.8842  1.7749   1
  -6   1 -13 17.9125  2.7339   2
   6  -1  13 11.5697  1.6716   1
   8   0 -13 5.34035 1.02474   2
   7   0 -13 65.0444  3.0388   2
   6   0 -13 29.2173  1.9260   2
   5   0 -13 129.522   4.422   2
   4   0 -13 67.7060  2.9394   2
   3   0 -13 191.680   5.727   2
   2   0 -13 43.9077  2.2975   2
   1   0 -13 26.8207  1.7745   2
  -1   0  13 22.8647  1.5041   1
   0   0 -13 32.8008  2.0893   2
   0   0  13 28.8117  1.7251   1
  -1   0 -13 67.9921  3.2687   2
   1   0  13 69.0345  2.8180   1
  -2   0 -13 10.1552  1.4475   2
   2   0  13 9.89829 1.18817   1
  -3   0 -13 10.4813  1.6014   2
   3   0  13 9.96448 1.21829   1
  -4   0 -13 8.82931 1.65425   2
   4   0  13 8.73224 1.25430   1
  -5   0 -13 3.64242 1.38983   2
   5   0  13 4.75945 1.11590   1
  -6   0 -13 120.765   6.264   2
   6   0  13 117.960   4.771   1
   8  -1 -13 17.2025  1.6701   2
   7  -1 -13 13.4309  1.4766   2
   6  -1 -13 19.4305  1.6145   2
   5  -1 -13 5.59233 0.93442   2
   4  -1 -13 18.0102  1.4524   2
   3  -1 -13 52.8232  2.4735   2
   2  -1 -13 19.0770  1.4879   2
   1  -1 -13 68.5469  2.9858   2
   0  -1 -13 115.462   4.149   2
  -1  -1 -13 49.9623  2.6442   2
  -2  -1 -13 35.9361  2.3597   2
   2   1  13 34.6094  1.9367   1
  -3  -1 -13 2.97918 1.00155   2
   3   1  13 1.91474 0.70761   1
  -4  -1 -13 63.4638  3.6754   2
   4   1  13 60.2689  2.9055   1
  -5  -1 -13 20.6013  2.4179   2
   5   1  13 14.8520  1.5516   1
   6   1  13 13.7720  1.6457   1
   7  -2 -13 25.6380  2.0065   2
   6  -2 -13 7.26733 1.12852   2
   5  -2 -13 18.6223  1.5869   2
   4  -2 -13 35.0113  2.0441   2
   3  -2 -13 2.20594 0.70059   2
   2  -2 -13 34.9457  1.9834   2
   1  -2 -13 39.0687  2.1348   2
   0  -2 -13 38.0434  2.1443   2
  -1  -2 -13 32.2679  2.0573   2
  -2  -2 -13 47.6251  2.6498   2
  -3  -2 -13 36.9332  2.5139   2
  -4  -2 -13 4.61489 1.29179   2
   7  -3 -13 60.9979  3.2409   2
  -7   3  13 52.3479  3.6809   3
   6  -3 -13 8.14538 1.25995   2
  -6   3  13 7.13136 1.47789   3
   5  -3 -13 8.70256 1.22884   2
  -5   3  13 7.28986 1.38295   3
   4  -3 -13 3.23934 0.82247   2
  -4   3  13 1.18302 0.80701   3
   3  -3 -13 48.2656  2.4564   2
  -3   3  13 50.3152  2.7618   3
   2  -3 -13 14.8415  1.3820   2
   2  -3 -13 16.5640  1.5976   3
   1  -3 -13 22.4666  1.7731   3
   1  -3 -13 20.1957  1.5682   2
   0  -3 -13 67.8683  2.9826   3
   0  -3 -13 70.3476  2.9952   2
  -1  -3 -13 20.0041  1.5812   2
  -1  -3 -13 20.2667  1.5284   3
  -2  -3 -13 7.73661 1.01670   3
  -2  -3 -13 6.21414 1.09061   2
  -3  -3 -13 10.7610  1.1611   3
  -3  -3 -13 7.08215 1.26048   2
  -4  -3 -13 50.5980  2.4409   3
  -5  -3 -13 77.3124  3.2379   3
   6  -4 -13 21.8920  1.9900   2
  -6   4  13 21.3220  2.4505   3
   5  -4 -13 3.62989 0.98880   2
  -5   4  13 4.57241 1.35655   3
   4  -4 -13 30.2849  2.0743   2
  -4   4  13 28.7818  2.4401   3
   3  -4 -13 44.6716  2.4994   2
  -3   4  13 45.3769  2.8477   3
   2  -4 -13 212.940   6.360   2
   2  -4 -13 221.434   7.016   3
   1  -4 -13 18.8021  1.7626   3
   1  -4 -13 21.1578  1.6390   2
   0  -4 -13 20.5960  1.6070   2
   0  -4 -13 19.9436  1.7303   3
  -1  -4 -13 132.314   4.562   2
  -1  -4 -13 132.398   4.739   3
  -2  -4 -13 51.9298  2.7880   2
  -2  -4 -13 63.6884  2.8689   3
  -3  -4 -13 11.0463  1.2619   3
  -4  -4 -13 45.9194  2.4749   3
   4  -5 -13 8.79786 1.29701   2
  -4   5  13 12.4056  1.8938   3
   3  -5 -13 36.5957  2.3128   2
   3  -5 -13 38.1979  2.8140   3
   2  -5 -13 6.55968 1.36066   3
   2  -5 -13 5.77901 1.06150   2
   1  -5 -13 27.2372  1.9107   2
   1  -5 -13 25.5823  2.1950   3
   0  -5 -13 102.545   4.346   3
   0  -5 -13 105.971   3.924   2
  -1  -5 -13 5.34973 1.15518   3
  -2  -5 -13 31.8043  2.1997   3
  -3  -5 -13 8.93205 1.30574   3
   1  -6 -13 47.2405  3.1815   3
   3   5 -14 7.55391 1.38804   1
   3   5 -14 8.71262 1.73542   2
  -3  -5  14 10.7388  1.2511   4
   2   5 -14 24.6221  2.6750   2
   2   5 -14 27.4902  2.2798   1
  -2  -5  14 27.1486  1.7707   4
   1   5 -14 30.2666  2.9815   2
   1   5 -14 29.0681  2.3291   1
   0   5 -14 31.8195  3.1691   2
   0  -5  14 29.5935  2.3731   1
  -1   5 -14 0.60870 1.26479   2
   1  -5  14 0.23355 0.73806   1
   5   4 -14 22.8761  2.1116   1
  -5  -4  14 25.4063  1.7439   4
   4   4 -14 37.6528  2.7519   2
   4   4 -14 43.2120  2.7443   1
  -4  -4  14 38.9839  2.1380   4
   3   4 -14 55.0419  3.3400   2
   3   4 -14 55.2418  2.9888   1
   2   4 -14 16.3421  2.0255   2
   2   4 -14 19.1583  1.8345   1
   1   4 -14 17.3056  1.7381   1
   1   4 -14 16.0993  2.1156   2
   0   4 -14 12.8318  2.0143   2
   0  -4  14 13.9237  1.6062   1
  -1   4 -14 4.93733 1.55980   2
   1  -4  14 3.79096 1.01389   1
  -2   4 -14 81.1430  5.0714   2
   2  -4  14 79.9115  3.9119   1
  -3   4 -14 41.4245  3.8445   2
   3  -4  14 40.1159  2.8318   1
   6   3 -14 6.35491 1.33633   1
   5   3 -14 15.2546  1.6383   2
   5   3 -14 13.9462  1.6264   1
   4   3 -14 3.01067 0.95843   2
   4   3 -14 2.84088 0.90967   1
   3   3 -14 11.8225  1.3948   1
   3   3 -14 8.78009 1.35704   2
   2   3 -14 1.88606 0.87182   2
   2   3 -14 1.07799 0.71472   1
   1   3 -14 12.7119  1.7082   2
   1   3 -14 11.6797  1.3921   1
   0   3 -14 36.9180  2.8381   2
   0  -3  14 35.3455  2.3138   1
  -1   3 -14 5.44200 1.43963   2
   1  -3  14 6.33883 1.20142   1
  -2   3 -14 26.1004  2.8400   2
   2  -3  14 26.0976  2.1359   1
  -3   3 -14 5.52474 1.76831   2
   3  -3  14 8.06498 1.40578   1
  -4   3 -14 33.3589  3.5759   2
   4  -3  14 32.8819  2.5845   1
   7   2 -14 25.8892  1.9954   2
   6   2 -14 23.9309  1.8511   2
   5   2 -14 16.8809  1.6365   1
   5   2 -14 24.2545  1.7708   2
   4   2 -14 27.9791  2.0179   2
   4   2 -14 30.3276  2.0050   1
   3   2 -14 61.5349  3.0958   2
   3   2 -14 66.2903  2.9224   1
   2   2 -14 0.53975 0.60149   1
   2   2 -14 2.31606 0.80246   2
   1   2 -14 62.3296  3.3066   2
  -1  -2  14 59.1970  2.8250   1
   0   2 -14 17.6016  1.9407   2
   0  -2  14 18.0671  1.6033   1
  -1   2 -14 1.57985 0.90709   2
   1  -2  14 1.71171 0.78223   1
  -2   2 -14 5.89847 1.51254   2
   2  -2  14 5.70062 1.12385   1
  -3   2 -14 82.2111  4.8931   2
   3  -2  14 88.3909  3.8675   1
  -4   2 -14 43.4302  3.7211   2
   4  -2  14 40.8761  2.7249   1
   7   1 -14 43.0912  2.5304   2
   6   1 -14 49.3836  2.5860   2
   5   1 -14 34.7552  2.1482   2
   4   1 -14 52.0541  2.6743   2
   3   1 -14 12.3806  1.2487   1
   3   1 -14 17.0448  1.4946   2
   2   1 -14 4.62027 0.83779   1
   2   1 -14 7.16822 1.12646   2
   1   1 -14 55.1723  2.9600   2
  -1  -1  14 57.6213  2.6413   1
   0   1 -14 22.9937  1.9558   2
   0  -1  14 20.8998  1.6198   1
  -1   1 -14 49.0757  3.0500   2
   1  -1  14 47.5621  2.5341   1
  -2   1 -14 70.8436  3.9534   2
   2  -1  14 71.1767  3.2443   1
  -3   1 -14 12.4857  1.9374   2
   3  -1  14 12.6125  1.4953   1
  -4   1 -14 23.6826  2.7327   2
   4  -1  14 19.9868  1.8776   1
  -5   1 -14 21.5934  2.8055   2
   5  -1  14 19.8583  1.9997   1
   7   0 -14 0.97671 0.71912   2
   6   0 -14 0.28152 0.56002   2
   5   0 -14 0.80350 0.61031   2
   4   0 -14 4.96898 0.92955   2
   3   0 -14 22.4227  1.6566   2
   2   0 -14 4.69018 0.92100   2
   1   0 -14 9.03525 1.23743   2
   0   0 -14 119.352   4.619   2
  -1   0 -14 3.70584 1.01703   2
   1   0  14 2.57118 0.75218   1
  -2   0 -14 26.1590  2.3067   2
   2   0  14 31.5923  1.9847   1
  -3   0 -14 17.3932  2.0849   2
   3   0  14 17.2368  1.6245   1
  -4   0 -14 7.31159 1.72104   2
   4   0  14 5.30487 1.12131   1
  -5   0 -14 21.4056  2.7147   2
   5   0  14 23.4434  2.0387   1
   7  -1 -14 37.5107  2.3381   2
   6  -1 -14 52.7191  2.7700   2
   5  -1 -14 39.1683  2.3000   2
   4  -1 -14 50.9596  2.5867   2
   3  -1 -14 15.8659  1.4497   2
   2  -1 -14 6.93848 1.05627   2
   1  -1 -14 57.2961  2.8118   2
   0  -1 -14 25.2159  1.9262   2
  -1  -1 -14 51.4065  2.8559   2
  -2  -1 -14 66.8641  3.5001   2
  -3  -1 -14 11.8683  1.7337   2
  -4  -1 -14 23.9485  2.4641   2
  -5  -1 -14 23.5706  2.6782   2
   5   1  14 17.8164  1.7659   1
   7  -2 -14 26.9902  2.0692   2
   6  -2 -14 20.7192  1.7760   2
   5  -2 -14 26.2281  1.8705   2
   4  -2 -14 27.1072  1.9107   2
   3  -2 -14 66.4500  3.0344   2
   2  -2 -14 3.52931 0.84187   2
   1  -2 -14 61.8023  2.8771   2
   0  -2 -14 21.0130  1.7173   2
  -1  -2 -14 1.89603 0.81067   2
  -2  -2 -14 5.66506 1.14789   2
  -3  -2 -14 92.5890  4.3513   2
  -4  -2 -14 39.4317  2.9828   2
   6  -3 -14 5.23255 1.12286   2
   5  -3 -14 12.3838  1.4811   2
   4  -3 -14 2.83986 0.84677   2
   3  -3 -14 12.7927  1.3921   2
   2  -3 -14 0.78183 0.58458   2
   1  -3 -14 15.1249  1.4415   2
   0  -3 -14 40.1773  2.3622   2
  -1  -3 -14 5.82891 1.10117   2
  -2  -3 -14 25.8636  2.1127   2
  -3  -3 -14 7.16332 1.39639   2
   5  -4 -14 22.2478  1.9012   2
  -5   4  14 24.0234  2.4099   3
   4  -4 -14 37.0581  2.3471   2
  -4   4  14 34.7571  2.6662   3
   3  -4 -14 55.4859  2.8446   2
   3  -4 -14 57.6256  3.3175   3
   2  -4 -14 15.4605  1.7794   3
   2  -4 -14 15.4048  1.5080   2
   1  -4 -14 17.7599  1.6136   2
   1  -4 -14 19.9687  1.8476   3
   0  -4 -14 14.5445  1.5517   3
   0  -4 -14 14.8084  1.4704   2
  -1  -4 -14 3.44681 0.93857   2
  -1  -4 -14 3.22143 0.86185   3
  -2  -4 -14 85.0487  3.5924   3
  -3  -4 -14 39.5334  2.3134   3
   3  -5 -14 6.47127 1.40972   3
   3  -5 -14 8.95991 1.34070   2
   2  -5 -14 29.2690  2.4721   3
   2  -5 -14 27.1949  2.0235   2
   1  -5 -14 30.7763  2.3998   3
   1  -5 -14 27.9050  1.9799   2
   0  -5 -14 32.8423  2.1396   2
   0  -5 -14 27.9735  2.2398   3
  -1  -5 -14 0.28942 0.66783   3
   3   4 -15 5.68458 1.30646   1
   3   4 -15 3.48831 1.24668   2
   2   4 -15 10.7272  1.5078   1
   2   4 -15 11.5963  1.8957   2
   1   4 -15 19.8708  2.4457   2
   1   4 -15 21.4164  1.9550   1
  -1  -4  15 21.4162  1.9987   1
   0   4 -15 21.8237  2.6100   2
   0  -4  15 20.8081  1.9673   1
  -1   4 -15 15.3523  2.4171   2
   1  -4  15 13.0881  1.6824   1
   5   3 -15 21.5065  2.0273   1
   5   3 -15 24.7524  2.1183   2
   4   3 -15 6.42854 1.19444   1
   4   3 -15 7.37910 1.31959   2
   3   3 -15 5.40935 1.25526   2
   3   3 -15 4.04070 1.05706   1
   2   3 -15 10.8161  1.6416   2
   2   3 -15 9.62840 1.35881   1
   1   3 -15 25.5356  2.3919   2
  -1  -3  15 26.4083  2.0851   1
   0   3 -15 45.1393  3.3351   2
   0  -3  15 49.1374  2.7965   1
  -1   3 -15 64.2311  4.1581   2
   1  -3  15 68.7363  3.4257   1
  -2   3 -15 67.0361  4.5254   2
   2  -3  15 64.6024  3.4755   1
   3  -3  15 18.9843  2.0315   1
   6   2 -15 19.5239  1.7504   2
   5   2 -15 11.9889  1.4841   2
   4   2 -15 0.46983 0.65952   1
   4   2 -15 0.27028 0.59111   2
   3   2 -15 2.59185 0.94197   2
   3   2 -15 2.68106 0.90093   1
   2   2 -15 10.0695  1.4690   2
   2   2 -15 9.48404 1.24260   1
   1   2 -15 6.18569 1.31806   2
  -1  -2  15 5.92163 1.10609   1
   0   2 -15 54.0322  3.4180   2
   0  -2  15 61.0905  3.0294   1
  -1   2 -15 6.28149 1.46315   2
   1  -2  15 4.92928 1.11620   1
  -2   2 -15 25.7907  2.6773   2
   2  -2  15 24.8244  2.0936   1
  -3   2 -15 34.8806  3.3268   2
   3  -2  15 38.5141  2.6435   1
   6   1 -15 40.9475  2.4641   2
   5   1 -15 0.85720 0.70137   2
   4   1 -15 25.0389  1.9388   2
   3   1 -15 4.34466 1.00610   2
   2   1 -15 14.0404  1.5563   2
   1   1 -15 15.4510  1.7140   2
   0   1 -15 17.3425  1.8890   2
   0  -1  15 19.3587  1.6839   1
  -1   1 -15 50.4284  3.3015   2
   1  -1  15 51.2362  2.7694   1
  -2   1 -15 63.2702  3.9077   2
   2  -1  15 66.2935  3.2243   1
  -3   1 -15 3.45903 1.31117   2
   3  -1  15 5.21082 1.19772   1
  -4   1 -15 1.20947 1.20451   2
   4  -1  15 -0.1214  0.6728   1
   6   0 -15 13.4174  1.5070   2
   5   0 -15 3.14068 0.90482   2
   4   0 -15 1.44784 0.69852   2
   3   0 -15 42.1888  2.4859   2
   2   0 -15 73.4606  3.3234   2
   1   0 -15 3.22695 0.94053   2
   0   0 -15 15.4334  1.7380   2
  -1   0 -15 3.82216 1.12322   2
  -2   0 -15 1.82584 0.96740   2
  -3   0 -15 50.0009  3.5025   2
   3   0  15 50.1568  2.7707   1
  -4   0 -15 21.4390  2.6116   2
   4   0  15 17.0227  1.7831   1
   6  -1 -15 37.7244  2.4054   2
   5  -1 -15 1.39706 0.74154   2
   4  -1 -15 24.2741  1.8651   2
   3  -1 -15 4.89789 0.99429   2
   2  -1 -15 17.2894  1.6066   2
   1  -1 -15 16.6875  1.5542   2
   0  -1 -15 17.0814  1.7039   2
  -1  -1 -15 56.0788  3.1868   2
  -2  -1 -15 65.1035  3.6596   2
  -3  -1 -15 5.43665 1.44100   2
  -4  -1 -15 1.00091 1.04408   2
   6  -2 -15 18.9912  1.7615   2
   5  -2 -15 11.9330  1.4033   2
   4  -2 -15 0.97263 0.69090   2
   3  -2 -15 1.74394 0.70577   2
   2  -2 -15 12.0624  1.3782   2
   1  -2 -15 4.82950 1.02144   2
   0  -2 -15 64.0541  3.2117   2
  -1  -2 -15 6.68228 1.28454   2
  -2  -2 -15 24.8271  2.2028   2
  -3  -2 -15 39.8771  2.9811   2
   5  -3 -15 22.9392  1.9185   2
   4  -3 -15 7.32365 1.21346   2
   3  -3 -15 4.02446 0.98279   2
   2  -3 -15 10.2921  1.3287   2
   1  -3 -15 31.8566  2.1640   2
   0  -3 -15 46.0475  2.6831   2
  -1  -3 -15 80.8402  3.7917   2
  -2  -3 -15 67.7990  3.5697   2
   3  -4 -15 4.69953 1.08463   2
   2  -4 -15 11.7251  1.3964   2
   1  -4 -15 20.0209  1.7717   2
   0  -4 -15 27.3532  2.0958   2
  -1  -4 -15 17.2645  1.7998   2
   3   3 -16 41.1684  2.6471   1
   3   3 -16 40.6980  2.9722   2
   2   3 -16 28.9058  2.1998   1
   2   3 -16 21.5525  2.3672   2
   1   3 -16 32.5831  2.8302   2
  -1  -3  16 33.3508  2.4213   1
   0   3 -16 51.3065  3.7104   2
   0  -3  16 55.4268  3.1653   1
   1  -3  16 86.3415  4.0631   1
   4   2 -16 5.20747 1.20111   2
   3   2 -16 5.11357 1.23158   2
   2   2 -16 43.1816  2.9259   2
   1   2 -16 21.8396  2.2305   2
  -1  -2  16 24.2061  1.9212   1
   0   2 -16 1.96093 1.06184   2
   0  -2  16 1.26373 0.77053   1
  -1   2 -16 16.8269  2.2980   2
   1  -2  16 17.3487  1.8247   1
  -2   2 -16 0.57170 1.06309   2
   2  -2  16 0.64435 0.82370   1
   5   1 -16 1.51381 0.80934   2
   4   1 -16 45.9627  2.7467   2
   3   1 -16 33.6686  2.4475   2
   2   1 -16 6.42656 1.30012   2
   1   1 -16 59.5452  3.4085   2
   0   1 -16 65.7915  3.7874   2
  -1   1 -16 9.66642 1.73626   2
  -2   1 -16 28.4936  2.8073   2
   2  -1  16 24.3761  2.1365   1
   5   0 -16 38.4963  2.4733   2
   4   0 -16 36.7399  2.4400   2
   3   0 -16 3.12819 0.96487   2
   2   0 -16 143.810   5.395   2
   1   0 -16 1.88731 0.88719   2
   0   0 -16 7.62487 1.40261   2
  -1   0 -16 0.62839 0.86116   2
  -2   0 -16 37.8454  3.0250   2
   5  -1 -16 0.87942 0.69414   2
   4  -1 -16 46.4451  2.6704   2
   3  -1 -16 29.2058  2.1302   2
   2  -1 -16 6.88609 1.26257   2
   1  -1 -16 68.2090  3.4830   2
   0  -1 -16 69.8272  3.6803   2
  -1  -1 -16 10.5638  1.6424   2
  -2  -1 -16 27.9251  2.5491   2
   4  -2 -16 4.56891 1.09230   2
   3  -2 -16 4.46725 1.08521   2
   2  -2 -16 46.0069  2.6977   2
   1  -2 -16 21.5131  1.9502   2
   0  -2 -16 2.27519 0.94048   2
  -1  -2 -16 15.1035  1.8548   2
  -2  -2 -16 -0.0714  0.8409   2
   3  -3 -16 41.0722  2.5901   2
   2  -3 -16 21.6392  1.9221   2
   1  -3 -16 35.3105  2.4509   2
   0  -3 -16 60.0790  3.1931   2
   3   1 -17 17.1670  1.9066   2
   2   1 -17 14.3023  1.8438   2
   1   1 -17 34.6205  2.7578   2
   0   1 -17 18.5363  2.2267   2
   3   0 -17 38.0844  2.6182   2
   2   0 -17 1.47016 0.87614   2
   1   0 -17 82.4422  4.2193   2
   0   0 -17 9.15052 1.66043   2
   3  -1 -17 16.8573  1.8012   2
   2  -1 -17 11.8210  1.5666   2
   1  -1 -17 29.7732  2.4517   2
   0  -1 -17 22.6959  2.2872   2
   0   0   0    0.00    0.00   0
;
_shelx_hkl_checksum              42217
#END Tags that were not found in dictionaries
loop_
_space_group_symop_operation_xyz
'x, y, z'
'-x, y+1/2, -z'
loop_
_atom_site_label
_atom_site_type_symbol
_atom_site_fract_x
_atom_site_fract_y
_atom_site_fract_z
_atom_site_U_iso_or_equiv
_atom_site_adp_type
_atom_site_occupancy
_atom_site_site_symmetry_order
_atom_site_calc_flag
_atom_site_refinement_flags_posn
_atom_site_refinement_flags_adp
C6 C 0.20722(18) 1.0099(2) 0.82289(12) 0.0244(3) Uani 1 1 d . .
C13 C 0.3445(2) 0.7334(2) 0.64516(12) 0.0242(3) Uani 1 1 d . .
C7 C 0.33036(18) 0.8526(2) 0.82281(11) 0.0227(3) Uani 1 1 d . .
C12 C 0.52100(19) 0.7712(3) 0.65050(12) 0.0275(3) Uani 1 1 d . .
H00A H 0.5387 0.8925 0.6181 0.033 Uiso 1 1 calc R U
H00B H 0.5711 0.6709 0.6151 0.033 Uiso 1 1 calc R U
C10 C 0.59634(18) 0.7776(2) 0.76095(12) 0.0243(3) Uani 1 1 d . .
O1 O 0.6103(2) 1.1545(2) 0.93806(12) 0.0533(4) Uani 1 1 d . .
C14 C 0.29094(18) 0.6880(2) 0.74545(11) 0.0229(3) Uani 1 1 d . .
C17 C 0.2483(2) 0.7261(2) 0.55651(12) 0.0276(3) Uani 1 1 d . .
C16 C 0.5714(2) 0.5809(3) 0.80859(13) 0.0288(3) Uani 1 1 d . .
H00C H 0.5992 0.5889 0.8811 0.035 Uiso 1 1 calc R U
H00D H 0.6414 0.4874 0.7828 0.035 Uiso 1 1 calc R U
C18 C 0.3163(2) 0.7564(3) 0.46357(13) 0.0320(4) Uani 1 1 d . .
C11 C 0.7733(2) 0.8292(3) 0.76659(15) 0.0353(4) Uani 1 1 d . .
H01A H 0.8196 0.8329 0.8358 0.053 Uiso 1 1 calc R U
H01B H 0.8275 0.7346 0.7311 0.053 Uiso 1 1 calc R U
H01C H 0.7842 0.9526 0.7364 0.053 Uiso 1 1 calc R U
C19 C 0.0801(2) 0.6842(3) 0.54814(12) 0.0330(4) Uani 1 1 d . .
C8 C 0.50063(19) 0.9328(2) 0.81160(12) 0.0236(3) Uani 1 1 d . .
C15 C 0.3958(2) 0.5146(2) 0.78459(13) 0.0273(3) Uani 1 1 d . .
H01D H 0.3582 0.4630 0.8449 0.033 Uiso 1 1 calc R U
H01E H 0.3883 0.4146 0.7338 0.033 Uiso 1 1 calc R U
C9 C 0.5788(2) 0.9926(3) 0.91376(13) 0.0309(4) Uani 1 1 d . .
H015 H 0.6044 0.8970 0.9615 0.037 Uiso 1 1 calc R U
C1 C 0.1468(2) 1.1094(3) 0.73645(14) 0.0304(4) Uani 1 1 d . .
H016 H 0.1797 1.0767 0.6747 0.036 Uiso 1 1 calc R U
N1 N 0.3760(2) 0.7763(3) 0.39215(13) 0.0456(4) Uani 1 1 d . .
C2 C 0.0373(2) 1.2577(3) 0.74166(16) 0.0373(4) Uani 1 1 d . .
H018 H -0.0032 1.3232 0.6835 0.045 Uiso 1 1 calc R U
C4 C 0.0473(2) 1.2101(4) 0.91941(17) 0.0453(5) Uani 1 1 d . .
H020 H 0.0147 1.2439 0.9810 0.054 Uiso 1 1 calc R U
C5 C 0.1550(2) 1.0613(3) 0.91423(14) 0.0332(4) Uani 1 1 d . .
H021 H 0.1931 0.9948 0.9726 0.040 Uiso 1 1 calc R U
C3 C -0.0111(2) 1.3075(3) 0.83360(18) 0.0437(5) Uani 1 1 d . .
H022 H -0.0835 1.4072 0.8372 0.052 Uiso 1 1 calc R U
N2 N -0.0534(2) 0.6481(3) 0.53999(14) 0.0479(5) Uani 1 1 d . .
H3 H 0.490(3) 1.044(3) 0.7699(16) 0.031(5) Uiso 1 1 d . .
H2 H 0.175(2) 0.657(3) 0.7395(14) 0.021(4) Uiso 1 1 d . .
H1 H 0.336(2) 0.798(3) 0.8908(14) 0.022(4) Uiso 1 1 d . .
loop_
_atom_site_aniso_label
_atom_site_aniso_U_11
_atom_site_aniso_U_22
_atom_site_aniso_U_33
_atom_site_aniso_U_23
_atom_site_aniso_U_13
_atom_site_aniso_U_12
C6 0.0221(7) 0.0226(7) 0.0283(7) -0.0016(6) 0.0019(5) -0.0020(6)
C13 0.0308(7) 0.0173(7) 0.0245(7) -0.0015(6) 0.0036(6) -0.0016(6)
C7 0.0257(7) 0.0225(7) 0.0194(7) 0.0005(6) 0.0006(5) -0.0010(6)
C12 0.0291(8) 0.0287(8) 0.0254(7) -0.0013(6) 0.0055(6) -0.0031(7)
C10 0.0235(7) 0.0229(8) 0.0265(7) -0.0009(6) 0.0021(6) -0.0012(6)
O1 0.0721(11) 0.0398(9) 0.0452(8) -0.0174(7) -0.0035(7) -0.0115(8)
C14 0.0248(7) 0.0204(7) 0.0234(7) 0.0007(6) 0.0021(5) -0.0030(6)
C17 0.0337(8) 0.0245(8) 0.0239(7) -0.0007(6) 0.0009(6) -0.0009(6)
C16 0.0288(7) 0.0230(8) 0.0333(8) 0.0012(6) -0.0013(6) 0.0031(6)
C18 0.0407(9) 0.0288(9) 0.0253(8) -0.0006(7) -0.0013(7) -0.0005(7)
C11 0.0252(8) 0.0365(10) 0.0441(10) -0.0041(8) 0.0039(7) -0.0028(7)
C19 0.0389(9) 0.0351(9) 0.0233(7) -0.0002(7) -0.0028(6) -0.0028(8)
C8 0.0252(7) 0.0206(7) 0.0246(8) -0.0004(6) 0.0006(6) -0.0014(6)
C15 0.0325(8) 0.0196(7) 0.0295(8) 0.0026(6) 0.0026(6) -0.0011(6)
C9 0.0281(8) 0.0343(9) 0.0294(8) -0.0050(7) 0.0001(6) -0.0008(7)
C1 0.0306(8) 0.0259(8) 0.0333(8) 0.0012(7) -0.0010(6) -0.0007(7)
N1 0.0620(11) 0.0443(10) 0.0319(8) 0.0025(7) 0.0107(7) -0.0004(9)
C2 0.0299(8) 0.0277(9) 0.0510(11) 0.0050(8) -0.0081(7) -0.0003(7)
C4 0.0369(9) 0.0513(13) 0.0493(11) -0.0131(10) 0.0118(8) 0.0082(9)
C5 0.0311(8) 0.0383(10) 0.0306(8) -0.0017(7) 0.0048(6) 0.0022(7)
C3 0.0289(8) 0.0329(10) 0.0684(13) -0.0077(10) 0.0028(9) 0.0081(8)
N2 0.0387(9) 0.0616(13) 0.0411(9) -0.0014(9) -0.0038(7) -0.0097(8)
loop_
_atom_type_symbol
_atom_type_description
_atom_type_scat_dispersion_real
_atom_type_scat_dispersion_imag
_atom_type_scat_source
C C 0.0033 0.0016 'International Tables Vol C Tables 4.2.6.8 and 6.1.1.4'
H H 0.0000 0.0000 'International Tables Vol C Tables 4.2.6.8 and 6.1.1.4'
N N 0.0061 0.0033 'International Tables Vol C Tables 4.2.6.8 and 6.1.1.4'
O O 0.0106 0.0060 'International Tables Vol C Tables 4.2.6.8 and 6.1.1.4'
loop_
_geom_angle_atom_site_label_1
_geom_angle_atom_site_label_2
_geom_angle_atom_site_label_3
_geom_angle
C1 C6 C5 118.51(16)
C1 C6 C7 122.96(15)
C5 C6 C7 118.51(15)
C17 C13 C14 124.23(15)
C17 C13 C12 122.11(14)
C14 C13 C12 113.43(13)
C6 C7 C14 116.50(13)
C6 C7 C8 112.23(13)
C14 C7 C8 108.96(12)
C13 C12 C10 109.98(12)
C11 C10 C12 109.95(13)
C11 C10 C16 111.83(14)
C12 C10 C16 108.12(13)
C11 C10 C8 111.68(14)
C12 C10 C8 105.28(13)
C16 C10 C8 109.71(13)
C13 C14 C15 104.21(13)
C13 C14 C7 112.09(13)
C15 C14 C7 106.56(12)
C13 C17 C19 123.73(14)
C13 C17 C18 119.37(15)
C19 C17 C18 116.88(14)
C10 C16 C15 110.87(13)
N1 C18 C17 176.9(2)
N2 C19 C17 178.6(2)
C9 C8 C10 113.37(14)
C9 C8 C7 108.54(13)
C10 C8 C7 108.84(13)
C16 C15 C14 109.16(13)
O1 C9 C8 124.57(18)
C6 C1 C2 120.44(17)
C3 C2 C1 119.89(18)
C3 C4 C5 119.98(18)
C4 C5 C6 120.96(18)
C4 C3 C2 120.21(18)
loop_
_geom_bond_atom_site_label_1
_geom_bond_atom_site_label_2
_geom_bond_distance
C6 C1 1.390(2)
C6 C5 1.394(2)
C6 C7 1.510(2)
C13 C17 1.352(2)
C13 C14 1.499(2)
C13 C12 1.503(2)
C7 C14 1.554(2)
C7 C8 1.563(2)
C12 C10 1.535(2)
C10 C11 1.526(2)
C10 C16 1.538(2)
C10 C8 1.553(2)
O1 C9 1.196(3)
C14 C15 1.551(2)
C17 C19 1.437(2)
C17 C18 1.445(2)
C16 C15 1.545(2)
C18 N1 1.140(2)
C19 N2 1.145(3)
C8 C9 1.501(2)
C1 C2 1.394(3)
C2 C3 1.385(3)
C4 C3 1.372(3)
C4 C5 1.386(3)
