#------------------------------------------------------------------------------
#$Date: 2016-03-22 21:49:03 +0200 (Tue, 22 Mar 2016) $
#$Revision: 179025 $
#$URL: svn://www.crystallography.net/cod/cif/4/12/23/4122378.cif $
#------------------------------------------------------------------------------
#
# This file is available in the Crystallography Open Database (COD),
# http://www.crystallography.net/
#
# All data on this site have been placed in the public domain by the
# contributors.
#
data_4122378
loop_
_publ_author_name
'Constantinides, Christos P.'
'Berezin, Andrey A.'
'Zissimou, Georgia A.'
'Manoli, Maria'
'Leitus, Gregory M.'
'Bendikov, Michael'
'Probert, Michael R.'
'Rawson, Jeremy M.'
'Koutentis, Panayiotis A.'
_publ_section_title
;
 A Magnetostructural Investigation of an Abrupt Spin Transition for
 1-Phenyl-3-trifluoromethyl-1,4-dihydrobenzo[e][1,2,4]triazin-4-yl.
;
_journal_issue                   34
_journal_name_full               'Journal of the American Chemical Society'
_journal_page_first              11906
_journal_paper_doi               10.1021/ja5063746
_journal_volume                  136
_journal_year                    2014
_chemical_formula_moiety         'C14 H9 F3 N3'
_chemical_formula_sum            'C14 H9 F3 N3'
_chemical_formula_weight         276.24
_chemical_name_systematic
;
 ?
;
_space_group_crystal_system      triclinic
_space_group_IT_number           2
_space_group_name_Hall           '-P 1'
_space_group_name_H-M_alt        'P -1'
_symmetry_space_group_name_Hall  '-P 1'
_symmetry_space_group_name_H-M   'P -1'
_atom_sites_solution_hydrogens   geom
_atom_sites_solution_primary     direct
_audit_creation_date             2014-04-01
_audit_creation_method
;
Olex2 1.2-alpha
(compiled 2014.03.19 svn.r2915 for OlexSys, GUI svn.r4811)
;
_cell_angle_alpha                80.493(3)
_cell_angle_beta                 67.797(3)
_cell_angle_gamma                90.205(4)
_cell_formula_units_Z            2
_cell_length_a                   8.1117(6)
_cell_length_b                   8.6455(6)
_cell_length_c                   9.4731(7)
_cell_measurement_reflns_used    2153
_cell_measurement_temperature    4.0
_cell_measurement_theta_max      26.27
_cell_measurement_theta_min      2.36
_cell_volume                     605.05(8)
_computing_data_reduction        'SAINT v7.68A (Bruker, 2009)'
_computing_molecular_graphics    'Olex2 (Dolomanov et al., 2009)'
_computing_publication_material  'Olex2 (Dolomanov et al., 2009)'
_computing_structure_refinement  'XL (Sheldrick, 2008)'
_computing_structure_solution    'XS (Sheldrick, 2008)'
_diffrn_ambient_temperature      4.0
_diffrn_detector                 'Bruker APEX-II CCD area detector'
_diffrn_detector_area_resol_mean 8.3333
_diffrn_detector_type            'CCD area detector'
_diffrn_measured_fraction_theta_full 0.837
_diffrn_measured_fraction_theta_max 0.829
_diffrn_measurement_device       'XIPHOS four-circle diffractometer'
_diffrn_measurement_device_type  Xiphos
_diffrn_measurement_method       '\f scans'
_diffrn_measurement_specimen_support '0.5mm graphite fibre'
_diffrn_radiation_collimation    focused
_diffrn_radiation_monochromator  'multilayer optics'
_diffrn_radiation_probe          x-ray
_diffrn_radiation_type           MoK\a
_diffrn_radiation_wavelength     0.71073
_diffrn_reflns_av_R_equivalents  0.0287
_diffrn_reflns_av_unetI/netI     0.0233
_diffrn_reflns_Laue_measured_fraction_full 0.837
_diffrn_reflns_Laue_measured_fraction_max 0.829
_diffrn_reflns_limit_h_max       9
_diffrn_reflns_limit_h_min       -8
_diffrn_reflns_limit_k_max       10
_diffrn_reflns_limit_k_min       -9
_diffrn_reflns_limit_l_max       11
_diffrn_reflns_limit_l_min       -11
_diffrn_reflns_number            10392
_diffrn_reflns_point_group_measured_fraction_full 0.837
_diffrn_reflns_point_group_measured_fraction_max 0.829
_diffrn_reflns_theta_full        26.000
_diffrn_reflns_theta_max         26.332
_diffrn_reflns_theta_min         2.361
_diffrn_source                   'Bruker TXS with Helios Optics'
_diffrn_source_current           75.0
_diffrn_source_power             3.75
_diffrn_source_target            Mo
_diffrn_source_type              'Rotating Anode'
_diffrn_source_voltage           50.0
_diffrn_standards_number         0
_exptl_absorpt_coefficient_mu    0.126
_exptl_absorpt_correction_T_max  0.7454
_exptl_absorpt_correction_T_min  0.6528
_exptl_absorpt_correction_type   multi-scan
_exptl_absorpt_process_details
'SADABS-2008/1 (Bruker,2008) was used for absorption correction. wR2(int) was 0.0966 before and 0.0500 after correction. The Ratio of minimum to maximum transmission is 0.8758. The \l/2 correction factor is 0.0015.'
_exptl_crystal_colour            'dark black'
_exptl_crystal_colour_modifier   dark
_exptl_crystal_colour_primary    black
_exptl_crystal_density_diffrn    1.516
_exptl_crystal_description       needle
_exptl_crystal_F_000             282
_exptl_crystal_size_max          0.35
_exptl_crystal_size_mid          0.15
_exptl_crystal_size_min          0.12
_refine_diff_density_max         0.289
_refine_diff_density_min         -0.211
_refine_diff_density_rms         0.046
_refine_ls_extinction_method     none
_refine_ls_goodness_of_fit_ref   1.070
_refine_ls_hydrogen_treatment    constr
_refine_ls_matrix_type           full
_refine_ls_number_parameters     181
_refine_ls_number_reflns         2043
_refine_ls_number_restraints     0
_refine_ls_restrained_S_all      1.070
_refine_ls_R_factor_all          0.0455
_refine_ls_R_factor_gt           0.0352
_refine_ls_shift/su_max          0.000
_refine_ls_shift/su_mean         0.000
_refine_ls_structure_factor_coef Fsqd
_refine_ls_weighting_details
'w=1/[\s^2^(Fo^2^)+(0.0201P)^2^+0.5645P] where P=(Fo^2^+2Fc^2^)/3'
_refine_ls_weighting_scheme      calc
_refine_ls_wR_factor_gt          0.0748
_refine_ls_wR_factor_ref         0.0808
_reflns_Friedel_coverage         0.000
_reflns_number_gt                1731
_reflns_number_total             2043
_reflns_threshold_expression     'I > 2\s(I)'
_cod_data_source_file            ja5063746_si_002.cif
_cod_data_source_block           data4k_christos
_cod_depositor_comments
'Adding full bibliography for 4122377--4122379.cif.'
_cod_database_code               4122378
#BEGIN Tags that were not found in dictionaries:
_shelxl_version_number           2013-4
_shelx_space_group_comment
;
The symmetry employed for this shelxl refinement is uniquely defined
by the following loop, which should always be used as a source of
symmetry information in preference to the above space-group names.
They are only intended as comments.
;
_olex2_refinement_description
;
1. Fixed Uiso
 At 1.2 times of:
  All C(H) groups
2.a Aromatic/amide H refined with riding coordinates:
 C3(H3), C4(H4), C5(H5), C6(H6), C9(H9), C10(H10), C11(H11), C12(H12), C13(H13)
;
_shelx_res_file
;
TITL data4K_christos in P-1 #2
CELL 0.71073 8.1117 8.6455 9.4731 80.4935 67.7973 90.2053
ZERR 2 0.0006 0.0006 0.0007 0.0032 0.0031 0.0038
LATT 1

SFAC C H N F
UNIT 28 18 6 6

L.S. 4 0 0
PLAN  20
TEMP -269.15
REM reset to P-1 #2
BOND $H
MORE -1
CONF
fmap 2 53
acta 52
OMIT 0 5 2
REM <HKL>/media/datastore/christos/christos/work/data4K_christos.hkl</HKL>

WGHT    0.020100    0.564500
FVAR       0.32149
F1    4    0.079609    0.638572    0.922692    11.00000    0.02007    0.01326 =
         0.01502   -0.00019   -0.00795   -0.00071
F2    4    0.262706    0.844276    0.816973    11.00000    0.01153    0.01935 =
         0.01559   -0.00283   -0.00614   -0.00236
F3    4   -0.015604    0.868715    0.947025    11.00000    0.01673    0.01932 =
         0.01390   -0.00743   -0.00603    0.00378
N1    3    0.155454    0.747279    0.457140    11.00000    0.00984    0.01475 =
         0.01202   -0.00373   -0.00497    0.00094
N2    3    0.187360    0.744480    0.589751    11.00000    0.01325    0.01436 =
         0.01133   -0.00173   -0.00606    0.00004
N3    3   -0.100250    0.843983    0.709790    11.00000    0.01283    0.01302 =
         0.01233   -0.00263   -0.00514   -0.00017
C1    1    0.055991    0.794289    0.702365    11.00000    0.01269    0.00898 =
         0.01369   -0.00089   -0.00452   -0.00211
C2    1   -0.137567    0.830507    0.580568    11.00000    0.01493    0.00945 =
         0.01242   -0.00119   -0.00538   -0.00043
C3    1   -0.304530    0.864948    0.579325    11.00000    0.01291    0.01238 =
         0.01341   -0.00262   -0.00359    0.00060
AFIX  43
H3    2   -0.390565    0.900600    0.665496    11.00000   -1.20000
AFIX   0
C4    1   -0.346499    0.847769    0.453746    11.00000    0.01113    0.01131 =
         0.01766   -0.00033   -0.00700   -0.00039
AFIX  43
H4    2   -0.460819    0.871382    0.453825    11.00000   -1.20000
AFIX   0
C5    1   -0.220035    0.795592    0.327043    11.00000    0.01871    0.01191 =
         0.01358   -0.00148   -0.00804   -0.00111
AFIX  43
H5    2   -0.249467    0.784148    0.241127    11.00000   -1.20000
AFIX   0
C6    1   -0.053379    0.760350    0.324065    11.00000    0.01348    0.01266 =
         0.01217   -0.00197   -0.00294    0.00012
AFIX  43
H6    2    0.030738    0.723506    0.237668    11.00000   -1.20000
AFIX   0
C7    1   -0.009337    0.779528    0.450198    11.00000    0.01151    0.00897 =
         0.01487   -0.00031   -0.00538   -0.00154
C8    1    0.301208    0.701703    0.331417    11.00000    0.00833    0.01514 =
         0.01364   -0.00621   -0.00468   -0.00129
C9    1    0.363994    0.798614    0.185878    11.00000    0.01450    0.01393 =
         0.01675   -0.00296   -0.00903    0.00032
AFIX  43
H9    2    0.310432    0.893728    0.168904    11.00000   -1.20000
AFIX   0
C10   1    0.505963    0.753531    0.066530    11.00000    0.01321    0.01658 =
         0.01228   -0.00247   -0.00450   -0.00361
AFIX  43
H10   2    0.549953    0.818125   -0.033290    11.00000   -1.20000
AFIX   0
C11   1    0.584536    0.614450    0.091765    11.00000    0.00986    0.01954 =
         0.01653   -0.00870   -0.00502   -0.00125
AFIX  43
H11   2    0.681411    0.584093    0.009241    11.00000   -1.20000
AFIX   0
C12   1    0.521129    0.519773    0.238017    11.00000    0.01237    0.01419 =
         0.01898   -0.00549   -0.00760    0.00162
AFIX  43
H12   2    0.575196    0.425003    0.255165    11.00000   -1.20000
AFIX   0
C13   1    0.379317    0.563244    0.358822    11.00000    0.01511    0.01441 =
         0.01239   -0.00236   -0.00614   -0.00171
AFIX  43
H13   2    0.336229    0.499192    0.458909    11.00000   -1.20000
AFIX   0
C14   1    0.095708    0.788438    0.847861    11.00000    0.00852    0.01222 =
         0.01438   -0.00248   -0.00308   -0.00046
HKLF 4

REM  data4K_christos in P-1 #2
REM R1 =  0.0352 for    1731 Fo > 4sig(Fo)  and  0.0455 for all    2043 data
REM    181 parameters refined using      0 restraints

END

WGHT      0.0201      0.5645

REM Highest difference peak  0.289,  deepest hole -0.211,  1-sigma level  0.046
Q1    1   0.0979  0.8115  0.7566  11.00000  0.05    0.29
Q2    1   0.3210  0.7373  0.2542  11.00000  0.05    0.24
Q3    1  -0.3548  0.8018  0.5433  11.00000  0.05    0.22
Q4    1   0.4620  0.5595  0.2974  11.00000  0.05    0.22
Q5    1   0.3328  0.6262  0.3332  11.00000  0.05    0.21
Q6    1  -0.0275  0.8238  1.0591  11.00000  0.05    0.20
Q7    1   0.5483  0.5598  0.1623  11.00000  0.05    0.20
Q8    1  -0.0855  0.7566  0.5313  11.00000  0.05    0.20
Q9    1   0.2241  0.7168  0.3946  11.00000  0.05    0.19
Q10   1   0.2570  0.7886  0.9358  11.00000  0.05    0.19
Q11   1  -0.0661  0.7310  0.4103  11.00000  0.05    0.19
Q12   1   0.4101  0.7627  0.1242  11.00000  0.05    0.18
Q13   1  -0.1847  0.8241  0.8010  11.00000  0.05    0.18
Q14   1   0.1532  0.7243  0.5382  11.00000  0.05    0.17
Q15   1   0.5213  0.6744  0.0872  11.00000  0.05    0.17
Q16   1   0.2625  0.6955  0.6097  11.00000  0.05    0.17
Q17   1  -0.1972  0.8797  0.5617  11.00000  0.05    0.17
Q18   1  -0.0614  0.8454  0.5025  11.00000  0.05    0.17
Q19   1  -0.3035  0.8946  0.4928  11.00000  0.05    0.16
Q20   1  -0.0849  0.9585  0.2164  11.00000  0.05    0.16
;
_shelx_res_checksum              40537
_shelx_hkl_file
;
   1   0   0  153.10    5.51
   1   0   0  145.47    4.77
  -1   0   0  140.78    4.77
  -1   0   0  143.43    5.20
  -1   0   0  147.67    5.51
   2   0   0   45.18    1.43
   2   0   0   42.56    1.42
   2   0   0   44.17    1.64
  -2   0   0   43.22    1.55
  -2   0   0   40.38    1.42
  -2   0   0   43.17    1.64
   3   0   0   33.20    1.25
   3   0   0   35.33    1.15
   3   0   0   34.43    1.15
  -3   0   0   34.20    1.23
  -3   0   0   33.66    1.15
  -3   0   0   36.01    1.33
  -3   0   0   34.10    1.25
   4   0   0    0.91    0.12
   4   0   0    0.55    0.08
  -4   0   0    0.72    0.11
  -4   0   0    0.67    0.10
  -4   0   0    0.46    0.10
   5   0   0    8.47    0.38
  -5   0   0    8.51    0.40
  -5   0   0    9.39    0.41
   6  -1   0    2.80    0.24
  -5   1   0    1.48    0.19
  -5   1   0    1.41    0.17
  -5   1   0    1.10    0.19
  -4   1   0    4.83    0.24
  -4   1   0    3.83    0.26
  -4   1   0    3.96    0.30
  -4   1   0    4.64    0.25
   4  -1   0    4.19    0.22
   4  -1   0    3.98    0.25
  -3   1   0   46.76    1.65
  -3   1   0   46.92    1.75
  -3   1   0   46.80    1.61
  -3   1   0   48.40    1.86
  -3   1   0   48.27    1.72
   3  -1   0   49.95    1.76
   3  -1   0   48.48    1.61
  -2   1   0   77.33    2.79
  -2   1   0   75.26    2.70
  -2   1   0   80.41    2.63
  -2   1   0   81.89    3.03
  -2   1   0   81.69    2.86
   2  -1   0   81.33    3.03
   2  -1   0   78.37    2.62
   2  -1   0   79.96    2.86
  -1   1   0   15.37    0.54
  -1   1   0   15.21    0.53
  -1   1   0   15.61    0.61
  -1   1   0   15.12    0.57
   1  -1   0   15.30    0.61
   1  -1   0   14.88    0.57
   1  -1   0   14.17    0.52
   0   1   0   33.26    1.33
   0   1   0   33.59    1.15
   0   1   0   33.67    1.26
   0  -1   0   33.67    1.33
   0  -1   0   33.70    1.15
   0  -1   0   32.63    1.26
   1   1   0  329.85   12.51
   1   1   0  329.71   12.51
   1   1   0  317.99   11.82
   1   1   0  327.58   11.82
   1   1   0  306.22   11.22
   1   1   0  332.19   10.84
   1   1   0  334.89   10.84
  -1  -1   0  337.09   10.84
  -1  -1   0  333.17   11.83
  -1  -1   0  344.70   10.85
  -1  -1   0  339.37   12.53
  -1  -1   0  345.61   12.52
  -6   2   0    0.29    0.27
  -5   2   0    1.87    0.27
  -5   2   0    1.84    0.25
  -5   2   0    1.50    0.21
  -5   2   0    2.11    0.20
  -4   2   0   23.13    0.98
  -4   2   0   22.34    0.87
  -4   2   0   24.28    0.93
  -4   2   0   24.89    0.89
  -4   2   0   21.02    0.91
  -4   2   0   23.96    0.86
   4  -2   0   23.61    0.93
  -3   2   0   59.75    2.15
  -3   2   0   61.00    2.08
  -3   2   0   61.94    2.23
  -3   2   0   62.10    2.15
  -3   2   0   63.67    2.27
  -3   2   0   62.64    2.41
   3  -2   0   62.49    2.27
   3  -2   0   61.71    2.08
  -2   2   0   60.96    2.18
  -2   2   0   59.80    2.15
  -2   2   0   54.53    2.07
  -2   2   0   58.82    2.06
  -2   2   0   57.56    2.00
  -2   2   0   62.85    2.32
   2  -2   0   60.07    2.00
   2  -2   0   61.83    2.18
  -1   2   0   59.63    2.10
  -1   2   0   61.05    2.17
  -1   2   0   63.10    2.36
  -1   2   0   58.07    2.11
  -1   2   0   61.28    2.05
  -1   2   0   60.47    2.23
   1  -2   0   63.30    2.23
   1  -2   0   62.72    2.04
   1  -2   0   61.69    2.36
   0   2   0 1000.00   31.82
   0   2   0  939.16   32.72
   0   2   0  966.18   34.71
   0   2   0  995.53   36.73
   0   2   0  949.20   32.92
   0  -2   0  976.01   34.70
   0  -2   0  994.04   31.80
   0  -2   0  992.05   36.72
   0  -2   0  957.89   32.75
   0  -2   0  950.36   33.88
   1   2   0  578.45   20.04
   1   2   0  601.43   22.33
   1   2   0  606.17   21.11
   1   2   0  605.59   19.35
   1   2   0  559.01   19.90
   1   2   0  591.12   19.36
   1   2   0  600.87   21.12
   1   2   0  592.91   22.30
  -1  -2   0  566.71   20.57
  -1  -2   0  599.01   21.10
  -1  -2   0  559.44   19.91
  -1  -2   0  603.68   19.35
  -1  -2   0  619.51   22.33
   2   2   0   19.83    0.73
   2   2   0   19.93    0.72
   2   2   0   20.81    0.77
   2   2   0   21.39    0.82
   2   2   0   19.96    0.77
   2   2   0   20.58    0.70
   2   2   0   20.33    0.83
   2   2   0   20.86    0.71
  -2  -2   0   20.22    0.77
  -2  -2   0   21.04    0.84
  -2  -2   0   20.69    0.70
  -2  -2   0   21.28    0.82
  -2  -2   0   20.50    0.76
  -2  -2   0   19.98    0.73
   3   2   0   37.77    1.35
  -3  -2   0   38.40    1.34
  -3  -2   0   35.92    1.43
  -3  -2   0   37.19    1.24
  -3  -2   0   35.35    1.23
  -3  -2   0   36.78    1.45
  -7   3   0    8.18    0.52
  -6   3   0   12.95    0.73
  -6   3   0   14.89    0.70
  -5   3   0    8.00    0.42
  -5   3   0    8.75    0.51
  -5   3   0    7.84    0.45
  -5   3   0    8.22    0.50
  -4   3   0   19.06    0.75
  -4   3   0   19.26    0.79
  -4   3   0   20.51    0.84
  -4   3   0   19.06    0.88
  -4   3   0   17.67    0.79
  -4   3   0   19.64    0.82
   4  -3   0   21.41    0.83
  -3   3   0    5.10    0.31
  -3   3   0    5.28    0.35
  -3   3   0    5.10    0.40
  -3   3   0    5.12    0.34
  -3   3   0    5.11    0.32
  -3   3   0    4.60    0.37
   3  -3   0    5.30    0.35
  -2   3   0    0.46    0.13
  -2   3   0    0.39    0.12
  -2   3   0    0.50    0.14
  -2   3   0    0.53    0.13
  -2   3   0    0.57    0.13
  -2   3   0    0.53    0.14
   2  -3   0    0.40    0.13
  -1   3   0   14.89    0.66
  -1   3   0   14.25    0.58
  -1   3   0   14.32    0.58
  -1   3   0   14.92    0.61
  -1   3   0   14.65    0.62
  -1   3   0   14.85    0.56
   1  -3   0   15.15    0.61
   1  -3   0   14.51    0.56
   0   3   0  585.14   18.44
   0   3   0  560.99   20.14
   0   3   0  553.16   18.96
   0   3   0  544.10   19.54
   0   3   0  554.21   19.09
   0   3   0  601.88   21.25
   0  -3   0  523.18   19.58
   0  -3   0  539.50   18.99
   0  -3   0  552.96   20.08
   0  -3   0  577.34   18.41
   0  -3   0  598.00   21.25
   1   3   0   86.43    2.77
   1   3   0   80.08    2.86
   1   3   0   83.05    2.78
   1   3   0   83.90    3.02
   1   3   0   83.20    3.02
   1   3   0   89.72    3.21
   1   3   0   80.40    2.94
   1   3   0   79.19    2.84
  -1  -3   0   86.83    3.02
  -1  -3   0   79.51    2.85
  -1  -3   0   83.81    2.77
  -1  -3   0   79.21    2.97
  -1  -3   0   88.30    3.21
   2   3   0    1.05    0.19
   2   3   0    1.32    0.18
   2   3   0    1.01    0.16
   2   3   0    1.20    0.14
   2   3   0    1.18    0.18
   2   3   0    1.28    0.20
  -2  -3   0    1.31    0.18
  -2  -3   0    1.16    0.14
  -2  -3   0    1.13    0.14
   3   3   0   23.73    0.89
   3   3   0   21.39    0.88
   3   3   0   22.51    0.83
   3   3   0   22.81    0.81
   3   3   0   23.27    0.85
   3   3   0   26.24    0.83
  -3  -3   0   23.02    0.81
  -3  -3   0   22.83    0.92
  -3  -3   0   22.75    0.86
   4   3   0    1.36    0.14
   4   3   0    1.35    0.19
   4   3   0    1.46    0.16
  -4  -3   0    1.35    0.26
  -7   4   0   28.62    1.20
  -6   4   0   46.16    1.79
  -6   4   0   46.24    1.71
  -5   4   0    2.90    0.36
  -5   4   0    2.77    0.31
  -5   4   0    3.18    0.39
  -5   4   0    2.79    0.39
  -4   4   0    2.50    0.31
  -4   4   0    1.91    0.27
  -4   4   0    2.00    0.29
  -4   4   0    1.83    0.34
  -4   4   0    2.45    0.35
  -3   4   0   62.20    2.36
  -3   4   0   64.16    2.24
  -3   4   0   62.31    2.50
  -3   4   0   64.18    2.32
  -3   4   0   62.47    2.17
  -3   4   0   62.34    2.23
  -2   4   0    9.09    0.44
  -2   4   0    9.07    0.47
  -2   4   0    9.67    0.49
  -2   4   0    9.81    0.50
  -2   4   0    9.12    0.51
  -2   4   0    8.65    0.51
  -1   4   0   16.22    0.70
  -1   4   0   17.24    0.73
  -1   4   0   16.90    0.68
  -1   4   0   15.89    0.70
  -1   4   0   16.97    0.76
  -1   4   0   17.46    0.71
   0   4   0    4.15    0.30
   0   4   0    3.52    0.32
   0   4   0    3.70    0.34
   0   4   0    3.65    0.30
   0   4   0    3.97    0.29
   0  -4   0    3.42    0.39
   1   4   0    1.46    0.24
   1   4   0    1.68    0.23
   1   4   0    1.42    0.16
   1   4   0    1.68    0.20
   1   4   0    1.65    0.24
   1   4   0    1.56    0.18
  -1  -4   0    1.53    0.22
  -1  -4   0    1.63    0.23
   2   4   0   24.17    0.96
   2   4   0   22.41    0.90
   2   4   0   22.93    0.91
   2   4   0   22.99    0.88
   2   4   0   21.80    0.87
   2   4   0   22.75    0.83
  -2  -4   0   22.22    0.87
  -2  -4   0   22.80    0.96
  -2  -4   0   21.05    0.98
   3   4   0   65.34    2.38
   3   4   0   64.01    2.25
   3   4   0   63.27    2.26
   3   4   0   66.45    2.19
  -3  -4   0   68.28    2.19
  -3  -4   0   63.69    2.37
  -3  -4   0   63.37    2.26
   4   4   0    2.00    0.25
   4   4   0    2.34    0.21
  -4  -4   0    2.20    0.25
  -8   5   0    0.09    0.28
  -7   5   0   15.28    0.82
  -6   5   0   16.95    0.80
  -6   5   0   16.19    0.75
  -6   5   0   17.29    0.83
  -5   5   0   79.22    2.87
  -5   5   0   75.00    2.73
  -5   5   0   75.18    2.67
  -4   5   0    0.72    0.24
  -4   5   0    0.98    0.26
  -4   5   0    0.88    0.25
  -4   5   0    0.75    0.24
  -4   5   0    0.84    0.26
  -4   5   0    0.81    0.26
  -3   5   0    9.28    0.57
  -3   5   0    9.71    0.49
  -3   5   0   10.06    0.53
  -3   5   0   10.25    0.54
  -3   5   0   10.40    0.58
  -3   5   0   10.05    0.55
  -2   5   0    1.57    0.32
  -2   5   0    1.79    0.27
  -2   5   0    1.97    0.34
  -2   5   0    1.86    0.31
  -2   5   0    1.94    0.25
  -2   5   0    1.55    0.30
  -1   5   0    1.09    0.25
  -1   5   0    1.51    0.25
  -1   5   0    1.82    0.26
  -1   5   0    1.10    0.28
   0   5   0   51.53    2.09
   0   5   0   53.39    1.99
   0   5   0   52.84    1.88
   0   5   0   50.45    1.86
   0   5   0   52.74    1.83
   0   5   0   49.52    1.92
   1   5   0   70.12    2.65
   1   5   0   65.94    2.44
   1   5   0   67.52    2.48
   1   5   0   65.72    2.28
   1   5   0   64.87    2.34
   1   5   0   66.16    2.35
  -1  -5   0   65.97    2.48
   2   5   0    2.66    0.27
  -2  -5   0    2.45    0.40
   3   5   0    8.83    0.45
   3   5   0    9.04    0.42
   3   5   0    8.87    0.47
   3   5   0    8.76    0.45
  -3  -5   0    8.77    0.56
   4   5   0   33.72    1.26
  -4  -5   0   34.54    1.38
  -8   6   0   17.25    0.93
  -7   6   0    0.27    0.32
  -6   6   0    4.36    0.47
  -6   6   0    4.19    0.48
  -5   6   0   19.89    0.95
  -5   6   0   19.00    0.86
  -5   6   0   20.92    0.92
  -4   6   0   27.43    1.25
  -4   6   0   27.19    1.15
  -4   6   0   27.53    1.14
  -4   6   0   27.43    1.12
  -4   6   0   28.80    1.23
  -3   6   0   11.28    0.62
  -3   6   0   10.80    0.60
  -3   6   0   11.23    0.64
  -3   6   0   10.52    0.55
  -3   6   0    9.30    0.62
  -3   6   0   11.67    0.64
  -2   6   0   21.93    1.09
  -2   6   0   23.58    0.95
  -2   6   0   23.86    1.03
  -2   6   0   23.19    0.97
  -2   6   0   24.96    0.99
  -2   6   0   23.65    1.02
  -1   6   0    0.28    0.18
  -1   6   0    0.01    0.24
  -1   6   0    0.21    0.19
  -1   6   0    0.38    0.21
  -1   6   0    0.42    0.20
  -1   6   0    0.51    0.23
   0   6   0    6.30    0.42
   0   6   0    5.43    0.37
   0   6   0    5.89    0.45
   0   6   0    5.77    0.40
   0   6   0    5.65    0.45
   0   6   0    5.34    0.39
   1   6   0    0.54    0.19
   1   6   0    0.48    0.19
   1   6   0    0.41    0.21
   1   6   0    0.34    0.17
   2   6   0    0.62    0.20
   2   6   0    1.53    0.29
   2   6   0    0.86    0.21
  -2  -6   0    0.99    0.30
   3   6   0   55.66    2.18
   3   6   0   59.33    2.07
   3   6   0   58.06    2.07
  -3  -6   0   57.93    2.22
   4   6   0   23.91    1.00
   4   6   0   23.89    0.96
  -4  -6   0   23.30    1.07
  -7   7   0   18.43    0.96
  -6   7   0    0.48    0.32
  -6   7   0    0.13    0.33
  -5   7   0   13.56    0.73
  -5   7   0   13.07    0.77
  -4   7   0   12.30    0.70
  -4   7   0   11.29    0.71
  -4   7   0   11.52    0.69
  -4   7   0   11.60    0.66
  -3   7   0    3.84    0.50
  -3   7   0    3.75    0.43
  -2   7   0   -0.06    0.27
  -2   7   0    0.04    0.23
  -2   7   0    0.01    0.26
  -2   7   0   -0.04    0.25
  -1   7   0    2.49    0.42
  -1   7   0    2.59    0.36
  -1   7   0    3.05    0.41
  -1   7   0    2.80    0.39
   0   7   0    0.26    0.23
   0   7   0    0.10    0.22
   0   7   0    0.50    0.25
   0   7   0    0.11    0.22
   1   7   0   11.03    0.60
   1   7   0   10.89    0.61
   1   7   0   10.65    0.60
   1   7   0   11.70    0.63
   2   7   0   88.44    3.09
   2   7   0   86.07    3.09
   2   7   0   85.01    3.26
   2   7   0   88.94    3.00
   3   7   0    8.45    0.51
   3   7   0    6.24    0.47
   4   7   0    9.30    0.53
  -6   8   0    4.07    0.55
  -6   8   0    4.66    0.56
  -5   8   0    5.75    0.62
  -5   8   0    6.63    0.58
  -4   8   0   28.15    1.20
  -4   8   0   27.98    1.20
  -4   8   0   26.43    1.25
  -3   8   0   19.50    0.93
  -3   8   0   19.58    0.99
  -3   8   0   20.10    0.94
  -2   8   0   20.28    0.99
  -2   8   0   21.11    1.03
  -2   8   0   23.89    1.00
  -1   8   0   10.32    0.67
  -1   8   0   11.87    0.69
   0   8   0   17.81    0.86
   0   8   0   17.43    0.86
   1   8   0    0.28    0.26
   1   8   0    0.53    0.29
   1   8   0    0.64    0.28
   2   8   0    1.36    0.29
   2   8   0    1.46    0.30
   2   8   0    0.99    0.28
   3   8   0   45.96    1.73
   4   8   0   -0.15    0.26
  -5   9   0    5.69    0.63
  -5   9   0    5.96    0.60
  -4   9   0   28.58    1.25
  -4   9   0   28.33    1.27
  -4   9   0   27.09    1.32
  -3   9   0   24.70    1.23
  -3   9   0   24.85    1.16
  -3   9   0   27.24    1.17
  -2   9   0    0.39    0.30
  -2   9   0    0.49    0.34
  -2   9   0    0.86    0.37
  -1   9   0    4.54    0.50
  -1   9   0    4.63    0.50
   0   9   0    0.10    0.29
   0   9   0   -0.17    0.30
   1   9   0    2.11    0.38
   1   9   0    1.43    0.36
   2   9   0   34.60    1.43
   2   9   0   35.45    1.43
   4   9   0    4.28    0.51
  -3  10   0    0.49    0.38
  -3  10   0    0.19    0.35
  -3  10   0    0.09    0.37
  -2  10   0    0.10    0.35
  -2  10   0    0.27    0.36
  -1  10   0    0.36    0.36
  -1  10   0    0.77    0.36
   0  10   0    7.86    0.63
   0  10   0    8.62    0.66
   1  10   0    1.56    0.37
   1  10   0    1.84    0.39
   3  10   1   -0.20    0.30
   2  10   1    1.25    0.35
   1  10   1   -0.32    0.33
   1  10   1   -0.12    0.32
   0  10   1    2.38    0.42
   0  10   1    2.23    0.41
  -1  10   1    0.82    0.36
  -1  10   1    0.92    0.38
  -2  10   1    8.73    0.67
  -2  10   1    9.65    0.71
  -3  10   1    1.12    0.37
  -3  10   1    1.27    0.40
   4   9   1   13.37    0.73
   3   9   1    0.95    0.34
   2   9   1   24.20    1.09
   2   9   1   25.37    1.09
   1   9   1    0.65    0.30
   1   9   1    0.70    0.31
   0   9   1    2.36    0.37
   0   9   1    2.68    0.46
  -1   9   1   -0.15    0.29
  -1   9   1    0.06    0.29
  -2   9   1    0.48    0.31
  -2   9   1    0.56    0.34
  -2   9   1    0.70    0.35
  -3   9   1   21.59    1.03
  -3   9   1   22.08    1.03
  -3   9   1   21.59    1.12
  -4   9   1   38.58    1.67
  -4   9   1   39.40    1.59
  -4   9   1   37.54    1.59
  -5   9   1   14.82    0.89
  -5   9   1   13.30    0.81
   4   8   1    0.11    0.29
   3   8   1    5.45    0.50
   2   8   1    3.16    0.44
   2   8   1    2.84    0.39
   2   8   1    3.43    0.45
   1   8   1    4.34    0.41
   1   8   1    4.35    0.52
   1   8   1    4.69    0.46
   0   8   1    0.84    0.30
   0   8   1    1.04    0.31
  -1   8   1    0.53    0.30
  -1   8   1    0.43    0.32
  -1   8   1    0.12    0.30
  -2   8   1   56.75    2.07
  -2   8   1   54.06    2.06
  -2   8   1   52.47    2.13
  -3   8   1    3.03    0.47
  -3   8   1    3.47    0.46
  -3   8   1    3.38    0.49
  -4   8   1    0.73    0.34
  -4   8   1   -0.31    0.30
  -4   8   1   -0.02    0.28
  -5   8   1    4.05    0.56
  -5   8   1    5.41    0.57
  -6   8   1    0.51    0.32
  -6   8   1    0.46    0.33
   4   7   1   -0.22    0.23
   3   7   1    6.05    0.46
   3   7   1    5.13    0.54
   2   7   1    0.63    0.26
   2   7   1    0.98    0.27
   1   7   1    0.53    0.25
   1   7   1    0.33    0.23
   1   7   1    0.20    0.24
   1   7   1    0.17    0.21
   0   7   1   14.73    0.76
   0   7   1   14.83    0.73
   0   7   1   14.72    0.75
   0   7   1   16.21    0.80
   0   7   1   14.98    0.71
   0   7   1   16.65    0.85
  -1   7   1   -0.38    0.28
  -1   7   1    0.13    0.21
  -1   7   1    0.43    0.35
  -1   7   1    0.17    0.23
  -1   7   1    0.41    0.24
  -1   7   1    0.34    0.25
  -2   7   1    6.13    0.53
  -2   7   1    6.72    0.48
  -2   7   1    6.29    0.53
  -2   7   1    6.21    0.69
  -2   7   1    7.16    0.51
  -3   7   1   22.40    1.07
  -3   7   1   23.97    1.04
  -3   7   1   22.10    1.04
  -3   7   1   23.47    1.07
  -4   7   1  112.13    4.27
  -4   7   1  112.64    4.19
  -4   7   1  114.76    4.03
  -4   7   1  118.10    4.05
  -5   7   1   68.94    2.48
  -5   7   1   65.49    2.57
  -6   7   1    8.56    0.65
  -6   7   1    8.73    0.62
  -7   7   1    1.59    0.42
   4   6   1    8.93    0.51
   3   6   1   -0.14    0.19
   3   6   1    0.07    0.19
   3   6   1   -0.28    0.19
   3   6   1   -0.17    0.16
   2   6   1    2.77    0.32
   2   6   1    2.99    0.37
   2   6   1    3.06    0.36
   2   6   1    3.02    0.30
   1   6   1   28.05    1.22
   1   6   1   28.12    1.09
   1   6   1   26.99    1.14
   1   6   1   28.27    1.05
   1   6   1   27.12    1.09
   0   6   1    6.39    0.45
   0   6   1    6.48    0.47
   0   6   1    6.23    0.47
   0   6   1    6.21    0.42
   0   6   1    6.91    0.46
   0   6   1    6.31    0.39
  -1   6   1    3.84    0.36
  -1   6   1    4.43    0.41
  -1   6   1    4.18    0.33
  -1   6   1    4.11    0.41
  -1   6   1    3.76    0.38
  -1   6   1    4.05    0.39
  -2   6   1   13.09    0.66
  -2   6   1   11.15    0.70
  -2   6   1   14.21    0.70
  -2   6   1   12.53    0.60
  -2   6   1   12.82    0.66
  -2   6   1   12.84    0.65
  -3   6   1    0.72    0.27
  -3   6   1    0.90    0.30
  -3   6   1    0.82    0.25
  -3   6   1    0.68    0.22
  -4   6   1    1.03    0.34
  -4   6   1    0.97    0.29
  -4   6   1    1.25    0.30
  -5   6   1   16.45    0.81
  -5   6   1   17.08    0.85
  -6   6   1    1.97    0.38
  -7   6   1    3.57    0.49
   4   5   1    2.71    0.28
   4   5   1    3.76    0.34
   3   5   1   -0.08    0.15
   3   5   1    0.15    0.16
   3   5   1    0.02    0.16
   3   5   1   -0.31    0.17
   2   5   1    0.44    0.18
   2   5   1    0.61    0.16
   2   5   1    0.60    0.16
   2   5   1    0.94    0.17
   1   5   1   42.95    1.57
   1   5   1   45.06    1.76
   1   5   1   41.45    1.57
   1   5   1   43.06    1.53
   1   5   1   42.81    1.62
   1   5   1   42.70    1.66
   0   5   1  128.89    4.55
   0   5   1  123.03    4.39
   0   5   1  129.36    4.42
   0   5   1  132.63    4.94
   0   5   1  124.45    4.66
   0   5   1  128.63    4.28
  -1   5   1    7.37    0.52
  -1   5   1    9.63    0.52
  -1   5   1    7.94    0.47
  -1   5   1    8.24    0.51
  -1   5   1    8.58    0.55
  -1   5   1    8.84    0.52
  -2   5   1    1.41    0.27
  -2   5   1    1.38    0.24
  -2   5   1    0.74    0.28
  -2   5   1    1.54    0.25
  -2   5   1    1.41    0.23
  -2   5   1    1.34    0.27
  -3   5   1    0.28    0.19
  -3   5   1    0.48    0.21
  -3   5   1    0.79    0.24
  -3   5   1    0.32    0.20
  -3   5   1    0.33    0.23
  -3   5   1    0.48    0.19
  -4   5   1   14.12    0.69
  -4   5   1   13.97    0.68
  -4   5   1   13.51    0.63
  -4   5   1   15.02    0.74
  -4   5   1   13.82    0.69
  -4   5   1   13.10    0.73
  -5   5   1  138.66    4.74
  -5   5   1  135.52    5.05
  -5   5   1  148.56    4.90
  -6   5   1   25.51    1.14
  -6   5   1   27.18    1.08
  -7   5   1    0.49    0.29
  -8   5   1    4.18    0.52
  -4  -4  -1    3.40    0.37
   4   4   1    2.73    0.25
  -3  -4  -1   13.38    0.50
   3   4   1   12.64    0.52
   3   4   1   12.66    0.55
   3   4   1   12.58    0.56
   3   4   1   14.04    0.56
   3   4   1   13.08    0.52
   3   4   1   11.97    0.54
  -2  -4  -1    0.64    0.10
  -2  -4  -1    0.69    0.13
   2   4   1    0.78    0.15
   2   4   1    0.66    0.13
   2   4   1    0.59    0.14
   2   4   1    0.57    0.15
   2   4   1    0.57    0.13
   1   4   1   94.21    3.50
   1   4   1   88.30    3.13
   1   4   1   91.52    3.31
   1   4   1   88.76    3.22
   1   4   1   88.26    3.11
   1   4   1   92.51    3.03
   0   4   1   65.16    2.25
   0   4   1   64.51    2.27
   0   4   1   65.53    2.39
   0   4   1   63.20    2.52
   0   4   1   66.40    2.19
   0   4   1   60.65    2.32
  -1   4   1    1.16    0.18
  -1   4   1    1.16    0.18
  -1   4   1    1.46    0.27
  -1   4   1    1.16    0.18
  -1   4   1    1.12    0.17
  -1   4   1    1.33    0.24
  -2   4   1   52.04    1.82
  -2   4   1   53.46    1.88
  -2   4   1   52.72    1.98
  -2   4   1   53.42    2.10
  -2   4   1   50.35    1.87
  -2   4   1   51.57    1.94
  -3   4   1   33.83    1.33
  -3   4   1   36.52    1.35
  -3   4   1   32.93    1.27
  -3   4   1   32.34    1.42
  -3   4   1   33.04    1.23
  -3   4   1   33.63    1.27
  -4   4   1    0.90    0.19
  -4   4   1    0.53    0.23
  -4   4   1    0.58    0.20
  -4   4   1    0.84    0.18
  -4   4   1    0.43    0.22
  -4   4   1    0.82    0.19
  -5   4   1  136.34    5.49
  -5   4   1  141.19    4.88
  -5   4   1  149.35    5.08
  -5   4   1  140.78    4.75
  -6   4   1   10.72    0.61
  -7   4   1    4.54    0.45
  -3  -3  -1    0.97    0.15
  -3  -3  -1    1.26    0.13
   3   3   1    0.81    0.15
   3   3   1    1.15    0.14
   3   3   1    1.12    0.17
   3   3   1    0.97    0.15
  -2  -3  -1   48.34    1.59
  -2  -3  -1   47.72    1.73
  -2  -3  -1   47.44    1.84
   2   3   1   49.11    1.60
   2   3   1   47.23    1.84
   2   3   1   45.64    1.64
   2   3   1   48.60    1.74
   2   3   1   45.47    1.65
  -1  -3  -1    0.01    0.07
  -1  -3  -1    0.02    0.10
  -1  -3  -1    0.00    0.06
   1   3   1    0.09    0.10
   1   3   1    0.09    0.08
   1   3   1    0.15    0.08
   1   3   1    0.16    0.09
   1   3   1    0.03    0.12
   0  -3  -1    2.64    0.37
   0  -3  -1    3.31    0.23
   0  -3  -1    3.34    0.22
   0   3   1    3.11    0.24
   0   3   1    3.82    0.39
   0   3   1    3.23    0.21
   0   3   1    2.47    0.30
   0   3   1    3.23    0.25
   0   3   1    3.24    0.23
   1  -3  -1   16.09    0.64
  -1   3   1   15.58    0.59
  -1   3   1   14.28    0.63
  -1   3   1   15.39    0.64
  -1   3   1   15.19    0.61
  -1   3   1   14.71    0.61
  -1   3   1   15.12    0.68
   2  -3  -1   26.02    1.02
  -2   3   1   27.02    0.97
  -2   3   1   23.37    1.00
  -2   3   1   24.73    1.01
  -2   3   1   26.55    0.94
  -2   3   1   27.91    0.97
  -2   3   1   24.47    1.08
   3  -3  -1   46.12    1.66
  -3   3   1   44.33    1.57
  -3   3   1   43.58    1.62
  -3   3   1   41.90    1.56
  -3   3   1   42.51    1.74
  -3   3   1   42.56    1.51
  -3   3   1   42.55    1.64
  -4   3   1   41.60    1.73
  -4   3   1   40.39    1.59
  -4   3   1   40.55    1.61
  -4   3   1   41.45    1.53
  -4   3   1   42.06    1.49
  -4   3   1   46.77    1.55
  -5   3   1   31.45    1.23
  -5   3   1   31.59    1.31
  -5   3   1   30.73    1.18
  -5   3   1   30.28    1.13
   6  -3  -1    0.13    0.18
  -6   3   1    0.05    0.23
  -7   3   1    6.02    0.46
  -2  -2  -1  372.70   11.86
  -2  -2  -1  371.41   13.69
  -2  -2  -1  364.76   12.94
   2   2   1  352.28   12.19
   2   2   1  334.41   12.28
   2   2   1  370.53   13.67
   2   2   1  382.63   12.95
   2   2   1  356.73   11.85
  -1  -2  -1  266.18    9.41
  -1  -2  -1  270.32    8.64
  -1  -2  -1  270.48    9.93
   1   2   1  261.07    8.62
   1   2   1  245.50    8.93
   1   2   1  265.13    9.41
   1   2   1  253.12    8.86
   1   2   1  275.85    9.93
   0  -2  -1   17.63    0.68
   0  -2  -1   17.89    0.72
   0  -2  -1   17.76    0.62
   0   2   1   18.02    0.68
   0   2   1   17.10    0.64
   0   2   1   17.06    0.66
   0   2   1   17.38    0.72
   0   2   1   16.83    0.64
   0   2   1   17.67    0.63
   1  -2  -1    0.51    0.11
   1  -2  -1    0.54    0.11
  -1   2   1    0.68    0.15
   2  -2  -1  109.79    3.45
   2  -2  -1  108.55    3.76
  -2   2   1  106.70    3.55
  -2   2   1  103.27    3.98
  -2   2   1  101.10    3.67
  -2   2   1  101.35    3.45
  -2   2   1  102.31    3.75
  -2   2   1   99.27    3.56
  -3   2   1    0.42    0.12
  -3   2   1    0.32    0.13
  -3   2   1    0.29    0.11
  -3   2   1    0.30    0.14
  -3   2   1    0.09    0.11
   4  -2  -1    1.74    0.27
  -4   2   1    1.37    0.26
  -4   2   1    1.70    0.24
  -4   2   1    2.50    0.33
  -4   2   1    2.02    0.20
  -4   2   1    1.79    0.21
   5  -2  -1  141.70    4.64
   5  -2  -1  138.06    5.04
  -5   2   1  137.27    4.62
  -5   2   1  137.88    5.34
  -5   2   1  138.02    4.75
  -5   2   1  143.73    4.93
   6  -2  -1  100.35    3.77
  -6   2   1  103.81    3.70
  -6   2   1  106.25    4.01
  -1  -1  -1   50.22    1.80
  -1  -1  -1   50.40    1.80
  -1  -1  -1   52.24    1.91
  -1  -1  -1   50.76    1.65
   1   1   1   48.97    1.65
   1   1   1   51.31    1.90
   1   1   1   47.34    1.71
   1   1   1   49.27    1.80
   0  -1  -1   38.86    1.43
   0  -1  -1   38.72    1.23
   0  -1  -1   36.99    1.34
   0   1   1   35.34    1.26
   0   1   1   37.51    1.42
   0   1   1   36.85    1.23
   0   1   1   34.21    1.27
   0   1   1   37.93    1.34
   1  -1  -1  239.74    8.49
   1  -1  -1  236.17    8.97
   1  -1  -1  243.57    8.94
  -1   1   1  232.83    8.23
  -1   1   1  224.36    7.97
  -1   1   1  240.35    8.46
  -1   1   1  225.65    7.76
  -1   1   1  238.04    8.03
  -1   1   1  251.53    8.94
   2  -1  -1    1.73    0.17
   2  -1  -1    1.11    0.13
  -2   1   1    1.34    0.16
  -2   1   1    1.03    0.16
  -2   1   1    1.86    0.13
  -2   1   1    1.32    0.17
  -2   1   1    1.76    0.14
   3  -1  -1   70.61    2.48
   3  -1  -1   64.85    2.62
   3  -1  -1   66.02    2.48
   3  -1  -1   72.27    2.29
   3  -1  -1   70.63    2.28
  -3   1   1   69.60    2.63
  -3   1   1   67.45    2.42
  -3   1   1   67.51    2.48
  -3   1   1   65.31    2.34
  -3   1   1   68.60    2.27
  -3   1   1   65.11    2.34
   4  -1  -1   15.67    0.67
   4  -1  -1   15.99    0.65
   4  -1  -1   16.84    0.62
   4  -1  -1   16.52    0.61
  -4   1   1   16.96    0.68
  -4   1   1   15.44    0.60
  -4   1   1   14.61    0.63
  -4   1   1   15.45    0.65
  -4   1   1   15.19    0.70
   5  -1  -1   24.38    1.01
   5  -1  -1   25.56    0.94
  -5   1   1   27.40    1.02
  -5   1   1   27.65    1.10
  -5   1   1   25.64    0.94
   6  -1  -1   17.89    0.72
  -6   1   1   15.94    0.74
  -2   0  -1  499.44   18.96
  -2   0  -1  484.96   16.41
  -2   0  -1  504.80   17.91
  -2   0  -1  503.42   16.41
  -2   0  -1  517.25   18.97
   2   0   1  504.25   16.41
   2   0   1  509.10   17.92
  -1   0  -1    0.36    0.03
  -1   0  -1    0.35    0.04
  -1   0  -1    0.31    0.03
  -1   0  -1    0.27    0.04
  -1   0  -1    0.31    0.03
   1   0   1    0.37    0.04
   1   0   1    0.25    0.06
   1   0   1    0.33    0.04
   1   0   1    0.31    0.04
   1   0   1    0.31    0.03
   0   0  -1   58.61    2.08
   0   0  -1   59.14    1.91
   0   0  -1   58.85    2.21
   0   0  -1   59.39    2.21
   0   0  -1   56.98    1.91
   0   0  -1   56.34    2.08
   0   0   1   56.63    2.21
   0   0   1   58.20    2.21
   0   0   1   58.87    1.91
   0   0   1   59.46    2.08
   0   0   1   56.53    2.08
   0   0   1   58.41    1.91
   1   0  -1   37.76    1.30
   1   0  -1   35.45    1.37
   1   0  -1   39.42    1.26
   1   0  -1   36.92    1.30
   1   0  -1   40.25    1.46
   1   0  -1   37.62    1.45
   1   0  -1   36.98    1.26
   1   0  -1   38.82    1.37
  -1   0   1   37.75    1.26
  -1   0   1   38.55    1.46
  -1   0   1   38.50    1.46
  -1   0   1   34.97    1.37
  -1   0   1   39.05    1.26
  -1   0   1   36.90    1.29
  -1   0   1   37.91    1.37
   2   0  -1   26.62    1.02
   2   0  -1   30.52    1.11
   2   0  -1   33.49    1.19
   2   0  -1   28.54    1.11
   2   0  -1   30.66    1.06
   2   0  -1   32.84    1.03
  -2   0   1   25.67    1.12
  -2   0   1   30.70    1.04
  -2   0   1   32.53    1.10
  -2   0   1   30.72    1.20
  -2   0   1   31.19    1.03
  -2   0   1   29.31    1.11
   3   0  -1    6.20    0.28
   3   0  -1    6.23    0.26
   3   0  -1    5.37    0.30
   3   0  -1    6.03    0.30
   3   0  -1    6.29    0.29
  -3   0   1    5.84    0.31
  -3   0   1    5.89    0.29
  -3   0   1    5.42    0.29
  -3   0   1    5.68    0.28
  -3   0   1    6.00    0.33
  -3   0   1    6.05    0.31
   4   0  -1   34.05    1.32
   4   0  -1   37.50    1.33
   4   0  -1   36.48    1.23
   4   0  -1   38.14    1.23
   4   0  -1   37.26    1.28
  -4   0   1   33.82    1.26
  -4   0   1   35.12    1.32
  -4   0   1   34.80    1.22
  -4   0   1   35.72    1.42
  -4   0   1   34.43    1.31
   5   0  -1  112.03    3.83
   5   0  -1  110.48    4.04
  -5   0   1  113.04    4.29
  -5   0   1  112.73    3.95
   6   0  -1   48.07    1.72
  -5   1  -1    6.17    0.31
  -5   1  -1    6.30    0.35
  -5   1  -1    5.96    0.28
   5  -1   1    5.82    0.30
  -4   1  -1   24.36    0.85
  -4   1  -1   23.14    0.91
  -4   1  -1   24.66    0.99
  -4   1  -1   24.52    0.89
  -4   1  -1   24.42    0.93
   4  -1   1   25.29    0.93
   4  -1   1   25.11    0.85
  -3   1  -1   85.84    3.11
  -3   1  -1   89.22    3.22
  -3   1  -1   92.39    3.30
  -3   1  -1   93.18    3.50
  -3   1  -1   95.59    3.03
  -3   1  -1   96.87    3.03
  -3   1  -1   94.15    3.30
   3  -1   1   86.93    3.13
   3  -1   1   92.10    3.02
   3  -1   1   91.04    3.30
  -2   1  -1    4.17    0.22
  -2   1  -1    4.06    0.23
  -2   1  -1    4.08    0.24
  -2   1  -1    4.12    0.21
  -2   1  -1    4.21    0.22
  -2   1  -1    4.35    0.28
  -2   1  -1    4.08    0.22
   2  -1   1    4.45    0.20
   2  -1   1    4.20    0.22
   2  -1   1    4.00    0.25
   2  -1   1    4.81    0.22
  -1   1  -1   96.37    3.70
  -1   1  -1   98.49    3.20
  -1   1  -1  102.08    3.69
  -1   1  -1   99.25    3.48
  -1   1  -1  101.71    3.19
  -1   1  -1   90.14    3.30
  -1   1  -1   90.04    3.28
  -1   1  -1  100.45    3.48
   1  -1   1   92.35    3.30
   1  -1   1   99.84    3.70
   1  -1   1   99.62    3.48
   1  -1   1   93.25    3.29
   1  -1   1   99.96    3.69
   1  -1   1   99.49    3.20
   1  -1   1   97.68    3.19
   1  -1   1   93.59    3.48
   0   1  -1    7.03    0.28
   0   1  -1    6.57    0.26
   0   1  -1    7.22    0.28
   0   1  -1    7.20    0.27
   0   1  -1    7.13    0.32
   0   1  -1    7.11    0.26
   0   1  -1    6.40    0.26
   0   1  -1    6.77    0.30
   0  -1   1    6.70    0.28
   0  -1   1    7.01    0.26
   0  -1   1    6.64    0.26
   0  -1   1    6.88    0.28
   0  -1   1    6.81    0.28
   0  -1   1    7.17    0.31
   0  -1   1    7.16    0.27
   0  -1   1    6.91    0.32
   1   1  -1  200.06    7.49
   1   1  -1  216.61    7.89
   1   1  -1  225.54    7.90
   1   1  -1  221.04    7.22
   1   1  -1  230.58    8.35
   1   1  -1  215.92    7.44
   1   1  -1  221.16    8.34
   1   1  -1  232.37    7.22
  -1  -1   1  228.51    7.22
  -1  -1   1  221.36    8.35
  -1  -1   1  212.74    7.44
  -1  -1   1  229.45    7.22
  -1  -1   1  232.18    8.35
  -1  -1   1  210.76    7.69
  -1  -1   1  217.66    7.89
  -1  -1   1  226.34    7.89
   2   1  -1    9.21    0.41
   2   1  -1    9.51    0.34
   2   1  -1    8.03    0.36
   2   1  -1    9.09    0.37
   2   1  -1    9.64    0.37
   2   1  -1    8.08    0.36
   2   1  -1    9.66    0.34
  -2  -1   1    9.24    0.41
  -2  -1   1    8.95    0.37
  -2  -1   1    9.42    0.35
  -2  -1   1    9.32    0.37
  -2  -1   1    8.35    0.38
  -2  -1   1    9.28    0.35
  -2  -1   1    9.58    0.37
   3   1  -1   37.76    1.53
   3   1  -1   40.69    1.37
   3   1  -1   40.01    1.45
   3   1  -1   39.93    1.44
   3   1  -1   40.49    1.33
   3   1  -1   37.08    1.37
   3   1  -1   39.10    1.33
  -3  -1   1   37.70    1.54
  -3  -1   1   41.06    1.45
  -3  -1   1   40.31    1.45
  -3  -1   1   38.87    1.56
  -3  -1   1   39.20    1.37
  -3  -1   1   39.78    1.43
  -3  -1   1   40.10    1.34
  -3  -1   1   39.52    1.33
   4   1  -1   74.70    2.40
   4   1  -1   69.67    2.61
   4   1  -1   74.83    2.40
   4   1  -1   73.04    2.62
   4   1  -1   72.96    2.49
  -4  -1   1   72.68    2.41
  -4  -1   1   71.00    2.47
  -4  -1   1   72.08    2.61
  -4  -1   1   72.37    2.41
  -4  -1   1   70.60    2.79
  -4  -1   1   72.81    2.57
   5   1  -1   -0.04    0.09
   5   1  -1   -0.08    0.11
  -6   2  -1    0.74    0.19
  -6   2  -1    0.63    0.19
  -5   2  -1   -0.19    0.20
  -5   2  -1    0.20    0.14
  -5   2  -1    0.36    0.17
  -5   2  -1    0.24    0.15
  -4   2  -1    0.15    0.11
  -4   2  -1    0.20    0.14
  -4   2  -1    0.32    0.12
  -4   2  -1    0.07    0.15
  -4   2  -1    0.21    0.13
  -4   2  -1    0.21    0.12
   4  -2   1    0.15    0.10
  -3   2  -1    6.85    0.35
  -3   2  -1    7.60    0.33
  -3   2  -1    6.82    0.35
  -3   2  -1    7.34    0.37
  -3   2  -1    7.46    0.38
  -3   2  -1    7.42    0.36
   3  -2   1    7.80    0.36
   3  -2   1    8.35    0.39
   3  -2   1    7.24    0.33
  -2   2  -1    5.14    0.27
  -2   2  -1    4.33    0.26
   2  -2   1    5.65    0.29
   2  -2   1    4.57    0.30
  -1   2  -1   13.96    0.67
  -1   2  -1   13.04    0.57
  -1   2  -1   13.63    0.60
  -1   2  -1   15.53    0.53
  -1   2  -1   13.04    0.53
  -1   2  -1   12.43    0.55
  -1   2  -1   15.18    0.57
   1  -2   1   13.71    0.51
   1  -2   1   12.42    0.53
   1  -2   1   14.43    0.56
   1  -2   1   13.95    0.59
   0   2  -1  360.62   13.23
   0   2  -1  394.62   13.29
   0   2  -1  411.49   12.86
   0   2  -1  390.52   14.04
   0   2  -1  402.55   12.87
   0   2  -1  412.10   14.06
   0   2  -1  401.23   14.79
   0   2  -1  375.33   13.61
   0   2  -1  419.16   14.82
   0  -2   1  395.68   14.04
   0  -2   1  362.32   13.32
   0  -2   1  405.69   14.84
   0  -2   1  375.56   13.23
   0  -2   1  375.46   13.64
   0  -2   1  394.82   12.86
   0  -2   1  391.49   14.80
   0  -2   1  375.53   14.03
   0  -2   1  415.44   12.87
   1   2  -1  586.35   21.79
   1   2  -1  582.82   20.63
   1   2  -1  568.04   19.44
   1   2  -1  577.23   18.89
   1   2  -1  577.26   18.92
   1   2  -1  552.96   19.57
   1   2  -1  569.53   20.61
  -1  -2   1  599.88   20.66
  -1  -2   1  554.42   19.59
  -1  -2   1  609.93   18.94
  -1  -2   1  577.35   21.80
  -1  -2   1  581.96   21.80
  -1  -2   1  583.46   20.06
  -1  -2   1  560.09   19.43
  -1  -2   1  570.87   18.88
  -1  -2   1  587.17   20.62
   2   2  -1   49.59    1.79
   2   2  -1   50.12    1.65
   2   2  -1   47.43    1.70
   2   2  -1   49.74    1.79
   2   2  -1   48.23    1.90
   2   2  -1   46.69    1.69
   2   2  -1   50.67    1.65
  -2  -2   1   49.05    1.79
  -2  -2   1   49.35    1.79
  -2  -2   1   48.03    1.70
  -2  -2   1   50.15    1.65
  -2  -2   1   48.92    1.93
  -2  -2   1   47.37    1.77
  -2  -2   1   51.46    1.66
  -2  -2   1   49.69    1.91
   3   2  -1    4.51    0.25
   3   2  -1    4.39    0.23
   3   2  -1    4.39    0.25
   3   2  -1    4.46    0.26
   3   2  -1    4.62    0.27
   3   2  -1    4.48    0.24
   3   2  -1    4.37    0.25
  -3  -2   1    4.15    0.22
  -3  -2   1    3.79    0.25
  -3  -2   1    4.06    0.25
  -3  -2   1    4.91    0.32
  -3  -2   1    5.54    0.32
   4   2  -1    0.35    0.10
   4   2  -1    0.67    0.11
   4   2  -1    0.59    0.11
  -4  -2   1    0.39    0.11
  -4  -2   1    0.50    0.17
  -4  -2   1    0.59    0.15
   5   2  -1    1.36    0.16
  -7   3  -1   18.81    0.85
  -6   3  -1   13.59    0.68
  -6   3  -1   12.70    0.74
  -5   3  -1   27.90    1.21
  -5   3  -1   29.68    1.09
  -5   3  -1   27.84    1.05
  -5   3  -1   28.68    1.14
  -4   3  -1    1.08    0.19
  -4   3  -1    1.15    0.22
  -4   3  -1    1.11    0.19
   4  -3   1    1.32    0.24
  -3   3  -1  150.55    5.28
  -3   3  -1  153.20    5.40
  -3   3  -1  147.40    5.12
  -3   3  -1  148.13    5.72
  -3   3  -1  146.06    4.95
  -3   3  -1  150.87    5.09
   3  -3   1  146.23    5.12
   3  -3   1  154.98    5.40
  -2   3  -1   14.44    0.60
  -2   3  -1   15.23    0.58
  -2   3  -1   14.46    0.63
  -2   3  -1   15.35    0.68
  -2   3  -1   14.76    0.60
  -2   3  -1   14.78    0.64
   2  -3   1   14.75    0.66
   2  -3   1   15.55    0.62
   2  -3   1   15.05    0.63
   2  -3   1   15.36    0.64
  -1   3  -1    8.97    0.42
  -1   3  -1    8.90    0.41
  -1   3  -1    8.57    0.40
  -1   3  -1    8.96    0.39
  -1   3  -1    8.52    0.42
  -1   3  -1    8.97    0.44
  -1   3  -1    9.20    0.42
   1  -3   1    8.90    0.49
   1  -3   1    8.68    0.42
   1  -3   1    9.03    0.45
   0   3  -1  117.43    4.48
   0   3  -1  119.79    3.89
   0   3  -1  115.19    4.22
   0   3  -1  114.93    3.87
   0   3  -1  117.91    4.01
   0   3  -1  116.04    3.98
   0   3  -1  120.85    4.23
   0   3  -1  117.62    4.13
   0  -3   1  115.93    3.99
   0  -3   1  115.38    4.01
   0  -3   1  118.62    3.87
   0  -3   1  114.79    4.15
   1   3  -1   87.20    3.16
   1   3  -1   92.17    3.44
   1   3  -1   88.30    2.97
   1   3  -1   89.53    3.07
   1   3  -1   89.91    3.24
   1   3  -1   90.07    3.24
   1   3  -1   91.76    2.98
   1   3  -1   85.02    3.05
  -1  -3   1   89.19    2.97
  -1  -3   1   88.56    3.19
  -1  -3   1   86.50    3.06
  -1  -3   1   89.92    3.47
  -1  -3   1   91.28    3.24
  -1  -3   1   92.57    3.44
  -1  -3   1   86.32    3.07
  -1  -3   1   90.31    2.99
   2   3  -1    6.21    0.32
   2   3  -1    6.38    0.32
   2   3  -1    5.52    0.34
   2   3  -1    6.14    0.28
   2   3  -1    5.21    0.31
   2   3  -1    5.64    0.31
   2   3  -1    5.42    0.32
  -2  -3   1    5.71    0.33
  -2  -3   1    5.74    0.39
  -2  -3   1    6.19    0.29
  -2  -3   1    6.12    0.33
  -2  -3   1    6.21    0.35
  -2  -3   1    6.70    0.39
  -2  -3   1    6.20    0.34
  -2  -3   1    5.79    0.39
   3   3  -1   41.29    1.41
   3   3  -1   40.12    1.45
   3   3  -1   41.50    1.53
   3   3  -1   41.44    1.41
   3   3  -1   39.06    1.44
   3   3  -1   42.15    1.53
  -3  -3   1   41.52    1.53
  -3  -3   1   40.52    1.40
  -3  -3   1   41.23    1.46
  -3  -3   1   42.01    1.42
  -3  -3   1   39.95    1.66
  -3  -3   1   41.48    1.54
   4   3  -1    5.54    0.32
   4   3  -1    5.78    0.29
  -4  -3   1    4.41    0.42
  -4  -3   1    5.64    0.39
  -7   4  -1    7.46    0.54
  -6   4  -1    4.14    0.44
  -6   4  -1    3.43    0.36
  -5   4  -1    0.46    0.23
  -5   4  -1    0.40    0.22
  -5   4  -1    1.03    0.24
  -5   4  -1    0.39    0.21
  -4   4  -1    1.20    0.23
  -4   4  -1    1.00    0.22
  -4   4  -1    1.59    0.24
  -4   4  -1    1.58    0.26
  -4   4  -1    0.89    0.21
  -4   4  -1    1.10    0.23
  -3   4  -1    0.48    0.22
  -3   4  -1    0.30    0.23
  -3   4  -1    0.26    0.17
  -3   4  -1    0.09    0.22
  -3   4  -1    0.00    0.20
  -3   4  -1    0.35    0.18
  -2   4  -1   18.46    0.77
  -2   4  -1   17.51    0.83
  -2   4  -1   17.81    0.76
  -2   4  -1   17.38    0.75
  -2   4  -1   17.05    0.78
  -2   4  -1   17.59    0.71
   2  -4   1   20.96    0.81
  -1   4  -1  122.07    4.36
  -1   4  -1  116.31    4.26
  -1   4  -1  121.03    4.13
  -1   4  -1  122.95    4.00
  -1   4  -1  116.82    4.11
  -1   4  -1  120.95    4.62
   1  -4   1  120.55    4.13
   1  -4   1  118.12    4.29
   1  -4   1  120.82    4.14
   0   4  -1  124.03    4.27
   0   4  -1  124.13    4.24
   0   4  -1  125.26    4.13
   0   4  -1  125.72    4.77
   0   4  -1  125.79    4.50
   0   4  -1  124.06    4.40
   0  -4   1  120.71    4.26
   0  -4   1  122.12    4.43
   0  -4   1  124.74    4.27
   1   4  -1  392.25   12.68
   1   4  -1  389.76   13.51
   1   4  -1  397.99   13.15
   1   4  -1  402.83   13.84
   1   4  -1  384.04   13.06
   1   4  -1  378.45   13.84
   1   4  -1  390.00   14.65
  -1  -4   1  369.23   13.06
  -1  -4   1  383.93   13.14
  -1  -4   1  390.09   13.54
   2   4  -1   41.53    1.53
   2   4  -1   43.16    1.53
   2   4  -1   43.76    1.61
   2   4  -1   42.06    1.60
   2   4  -1   42.38    1.48
  -2  -4   1   42.86    1.63
  -2  -4   1   42.75    1.52
  -2  -4   1   42.23    1.53
   3   4  -1    4.47    0.33
   3   4  -1    4.04    0.28
  -3  -4   1    3.99    0.33
   4   4  -1   12.63    0.60
   4   4  -1   12.34    0.59
  -4  -4   1   16.15    0.76
  -4  -4   1   15.42    0.81
   5   4  -1    0.47    0.17
  -8   5  -1   16.44    0.85
  -7   5  -1   -0.05    0.28
  -6   5  -1    3.84    0.45
  -6   5  -1    3.88    0.50
  -6   5  -1    4.16    0.37
  -5   5  -1   -0.19    0.21
  -5   5  -1    0.40    0.28
  -5   5  -1   -0.03    0.21
  -4   5  -1    0.91    0.23
  -4   5  -1    0.83    0.26
  -4   5  -1    2.09    0.39
  -4   5  -1    1.53    0.28
  -3   5  -1    2.65    0.36
  -3   5  -1    2.34    0.30
  -3   5  -1    3.11    0.37
  -3   5  -1    2.40    0.27
  -3   5  -1    2.38    0.32
  -3   5  -1    2.66    0.36
  -2   5  -1    0.36    0.23
  -2   5  -1    0.54    0.17
  -2   5  -1    0.67    0.19
  -2   5  -1    0.36    0.18
  -2   5  -1    0.55    0.19
  -2   5  -1    0.24    0.28
  -1   5  -1   24.48    1.11
  -1   5  -1   24.21    1.04
  -1   5  -1   24.93    0.99
  -1   5  -1   25.45    0.96
  -1   5  -1   24.78    1.03
  -1   5  -1   25.71    1.00
   1  -5   1   26.00    1.11
   1  -5   1   25.03    0.98
   1  -5   1   24.70    1.01
   0   5  -1   82.14    2.90
   0   5  -1   84.35    3.02
   0   5  -1   82.63    2.83
   0   5  -1   83.16    2.92
   0   5  -1   83.12    3.08
   0   5  -1   82.77    3.27
   0  -5   1   82.65    3.06
   0  -5   1   83.73    2.92
   0  -5   1   83.99    2.91
   1   5  -1  280.83   10.59
   1   5  -1  296.76    9.72
   1   5  -1  294.34   10.06
   1   5  -1  299.63   10.35
   1   5  -1  297.21    9.99
   1   5  -1  308.98   11.23
  -1  -5   1  297.73   10.39
  -1  -5   1  290.69   10.01
  -1  -5   1  294.89   10.06
   2   5  -1   52.50    1.91
   2   5  -1   53.77    1.86
   2   5  -1   52.66    2.02
   2   5  -1   55.09    1.92
  -2  -5   1   55.48    2.06
  -2  -5   1   52.68    1.93
   3   5  -1    3.27    0.28
   3   5  -1    2.90    0.33
   3   5  -1    3.10    0.28
   3   5  -1    2.35    0.35
  -3  -5   1    3.25    0.50
  -3  -5   1    2.58    0.36
   4   5  -1   42.92    1.57
  -4  -5   1   42.28    1.68
   5   5  -1    0.08    0.18
  -8   6  -1    4.71    0.55
  -7   6  -1    1.35    0.37
  -6   6  -1    9.13    0.60
  -6   6  -1    8.53    0.62
  -5   6  -1    0.21    0.26
  -5   6  -1    0.02    0.24
  -5   6  -1   -0.05    0.30
  -4   6  -1    7.07    0.52
  -4   6  -1    7.71    0.57
  -4   6  -1    8.25    0.66
  -4   6  -1    8.03    0.52
  -4   6  -1    5.99    0.53
  -3   6  -1   33.79    1.37
  -3   6  -1   32.82    1.30
  -3   6  -1   31.41    1.45
  -3   6  -1   32.61    1.26
  -3   6  -1   34.34    1.32
  -3   6  -1   33.08    1.35
  -2   6  -1   19.00    0.88
  -2   6  -1   19.05    0.82
  -2   6  -1   19.17    0.86
  -2   6  -1   19.23    0.83
  -2   6  -1   17.45    0.91
  -2   6  -1   18.35    0.78
  -1   6  -1   13.15    0.62
  -1   6  -1   13.15    0.63
  -1   6  -1   12.96    0.59
  -1   6  -1   12.86    0.66
  -1   6  -1   13.25    0.65
  -1   6  -1   12.58    0.71
   0   6  -1    2.29    0.35
   0   6  -1    2.68    0.29
   0   6  -1    3.57    0.40
   0   6  -1    2.04    0.38
   0   6  -1    2.99    0.40
   0   6  -1    2.39    0.29
   0  -6   1    3.72    0.44
   0  -6   1    3.04    0.51
   1   6  -1   30.39    1.15
   1   6  -1   27.83    1.10
   1   6  -1   29.47    1.21
   1   6  -1   29.24    1.15
  -1  -6   1   29.36    1.17
  -1  -6   1   28.69    1.27
   2   6  -1   60.64    2.20
   2   6  -1   58.56    2.32
   2   6  -1   62.53    2.20
   2   6  -1   61.70    2.14
  -2  -6   1   65.71    2.42
  -2  -6   1   58.97    2.22
   3   6  -1   13.52    0.66
   3   6  -1   12.45    0.65
  -3  -6   1   13.37    0.77
   4   6  -1    1.18    0.25
   4   6  -1    1.86    0.28
  -7   7  -1    5.24    0.58
  -6   7  -1   -0.16    0.33
  -6   7  -1    0.03    0.36
  -5   7  -1    6.44    0.57
  -5   7  -1    6.86    0.54
  -4   7  -1   25.79    1.12
  -4   7  -1   26.05    1.17
  -4   7  -1   25.89    1.17
  -4   7  -1   26.30    1.12
  -3   7  -1   12.64    0.81
  -3   7  -1   13.24    0.76
  -3   7  -1   14.39    0.81
  -3   7  -1   12.72    0.73
  -2   7  -1    6.01    0.52
  -2   7  -1    6.15    0.50
  -2   7  -1    4.91    0.51
  -2   7  -1    5.16    0.57
  -2   7  -1    5.60    0.62
  -1   7  -1    0.91    0.25
  -1   7  -1    0.80    0.27
  -1   7  -1    0.89    0.43
  -1   7  -1    0.40    0.28
  -1   7  -1    0.42    0.27
  -1   7  -1    0.41    0.26
   0   7  -1    4.13    0.40
   0   7  -1    3.21    0.39
   0   7  -1    3.68    0.43
   0   7  -1    4.10    0.44
   0  -7   1    3.43    0.56
   1   7  -1   94.97    3.26
   1   7  -1   90.02    3.55
   1   7  -1   96.69    3.35
   1   7  -1   96.52    3.36
  -1  -7   1   96.14    3.55
   2   7  -1   52.43    1.93
   2   7  -1   52.32    1.89
   2   7  -1   53.69    1.95
  -2  -7   1   52.00    2.10
   3   7  -1   19.74    0.87
  -3  -7   1   20.63    1.02
   4   7  -1   15.15    0.71
  -4  -7   1   15.03    0.88
  -6   8  -1    0.34    0.34
  -6   8  -1    0.54    0.33
  -5   8  -1    0.67    0.36
  -5   8  -1    1.23    0.35
  -4   8  -1    7.28    0.62
  -4   8  -1    7.32    0.59
  -4   8  -1    7.24    0.57
  -3   8  -1    9.55    0.61
  -3   8  -1    9.39    0.67
  -3   8  -1    9.26    0.62
  -2   8  -1    4.27    0.52
  -2   8  -1    4.53    0.49
  -2   8  -1    4.46    0.52
  -1   8  -1    0.43    0.31
  -1   8  -1    0.68    0.29
  -1   8  -1    0.39    0.29
   0   8  -1   19.89    0.92
   0   8  -1   20.38    0.92
   1   8  -1    2.91    0.41
   1   8  -1    2.59    0.43
   2   8  -1    5.52    0.47
   2   8  -1    5.38    0.49
  -2  -8   1    6.34    0.69
   3   8  -1   10.21    0.60
  -3  -8   1    9.83    0.74
   4   8  -1    7.34    0.52
  -4  -8   1    8.14    0.71
  -5   9  -1    1.71    0.40
  -5   9  -1    1.81    0.44
  -4   9  -1   15.43    0.86
  -4   9  -1   15.64    0.86
  -4   9  -1   14.59    0.90
  -3   9  -1    0.75    0.38
  -3   9  -1    0.24    0.33
  -3   9  -1    0.44    0.33
  -2   9  -1    0.61    0.36
  -2   9  -1    0.34    0.36
  -2   9  -1    0.77    0.33
  -1   9  -1   -0.23    0.32
  -1   9  -1   -0.04    0.29
   0   9  -1    3.67    0.59
   0   9  -1    4.50    0.54
   1   9  -1    0.76    0.33
   1   9  -1   -0.18    0.34
   2   9  -1   69.08    2.55
   3   9  -1    0.41    0.27
  -3  10  -1    5.50    0.69
  -3  10  -1    3.57    0.58
  -3  10  -1    4.07    0.54
  -2  10  -1    3.49    0.53
  -2  10  -1    3.35    0.53
  -1  10  -1    3.48    0.54
  -1  10  -1    3.08    0.53
   0  10  -1   -0.18    0.34
   0  10  -1   -0.46    0.37
   1  10  -1    0.30    0.36
   1  10  -1    0.54    0.34
   3  10   2    0.51    0.31
   2  10   2    5.70    0.56
   1  10   2    6.54    0.57
   1  10   2    5.69    0.57
   0  10   2   30.15    1.28
   0  10   2   28.50    1.28
  -1  10   2    0.23    0.34
  -1  10   2    0.37    0.36
  -2  10   2    0.25    0.33
  -2  10   2   -0.05    0.33
  -2  10   2   -0.02    0.35
  -3  10   2    2.01    0.44
  -3  10   2    1.50    0.39
  -3  10   2    1.08    0.46
   4   9   2   12.26    0.69
   3   9   2    2.03    0.35
   2   9   2    0.07    0.29
   2   9   2   -0.44    0.28
   1   9   2    5.09    0.51
   1   9   2    5.14    0.50
   0   9   2    0.08    0.28
   0   9   2   -0.02    0.29
  -1   9   2    2.40    0.45
  -1   9   2    2.49    0.44
  -2   9   2    7.38    0.66
  -2   9   2    6.96    0.60
  -2   9   2    7.25    0.58
  -3   9   2   16.34    0.92
  -3   9   2   16.05    0.91
  -3   9   2   16.83    0.88
  -4   9   2   10.18    0.67
  -4   9   2    8.57    0.71
  -4   9   2    9.25    0.68
  -5   9   2   -0.29    0.35
  -5   9   2    0.56    0.33
   4   8   2    2.38    0.32
   3   8   2    0.89    0.29
   2   8   2    9.98    0.62
   2   8   2   10.02    0.61
   2   8   2   10.51    0.57
   1   8   2    6.42    0.45
   1   8   2    6.31    0.55
   1   8   2    5.71    0.51
   0   8   2   51.63    1.94
   0   8   2   50.97    1.93
  -1   8   2   43.25    1.68
  -1   8   2   39.67    1.61
  -1   8   2   40.03    1.61
  -2   8   2    0.25    0.29
  -2   8   2    0.18    0.31
  -2   8   2   -0.03    0.31
  -3   8   2    6.05    0.56
  -3   8   2    5.84    0.53
  -3   8   2    5.93    0.56
  -4   8   2    3.13    0.53
  -4   8   2    2.67    0.50
  -4   8   2    2.49    0.45
  -5   8   2    0.76    0.31
  -5   8   2    0.48    0.32
  -6   8   2   -0.25    0.36
   4   7   2    1.84    0.30
   4   7   2    2.67    0.32
   3   7   2    1.53    0.28
   3   7   2    1.49    0.27
   2   7   2    0.29    0.22
   2   7   2   -0.06    0.25
   2   7   2    0.39    0.25
   1   7   2   20.22    0.85
   1   7   2   20.52    0.89
   1   7   2   20.34    0.89
   1   7   2   19.17    0.90
   0   7   2    0.09    0.22
   0   7   2    0.80    0.34
   0   7   2    0.24    0.25
   0   7   2   -0.07    0.28
   0   7   2    0.23    0.24
   0   7   2    0.16    0.20
  -1   7   2    9.21    0.58
  -1   7   2    8.89    0.56
  -1   7   2   10.06    0.66
  -1   7   2    9.06    0.58
  -1   7   2    8.78    0.52
  -1   7   2    8.76    0.69
  -2   7   2   48.40    1.97
  -2   7   2   49.60    1.86
  -2   7   2   52.52    1.90
  -2   7   2   52.82    1.91
  -2   7   2   48.42    2.01
  -3   7   2   11.42    0.71
  -3   7   2   11.32    0.70
  -3   7   2   13.58    0.77
  -3   7   2   11.74    0.69
  -4   7   2    1.08    0.35
  -4   7   2    1.26    0.31
  -5   7   2    1.43    0.31
  -5   7   2    1.09    0.42
  -6   7   2   10.75    0.65
  -6   7   2    9.84    0.69
   5   6   2   34.60    1.30
   4   6   2    1.47    0.26
   4   6   2    2.25    0.40
   3   6   2    8.71    0.45
   3   6   2    8.91    0.50
   3   6   2    9.18    0.52
   3   6   2    8.30    0.47
   2   6   2   25.30    1.05
   2   6   2   25.93    1.02
   2   6   2   25.69    0.98
   2   6   2   25.99    1.02
   1   6   2    1.98    0.34
   1   6   2    2.61    0.30
   1   6   2    2.56    0.36
   1   6   2    2.41    0.36
   1   6   2    2.63    0.29
   1   6   2    2.45    0.38
   0   6   2    7.62    0.46
   0   6   2    7.88    0.52
   0   6   2    7.57    0.48
   0   6   2    7.70    0.49
   0   6   2    7.76    0.43
   0   6   2    7.52    0.50
  -1   6   2   61.18    2.38
  -1   6   2   63.03    2.25
  -1   6   2   62.24    2.25
  -1   6   2   62.17    2.19
  -1   6   2   60.84    2.53
  -1   6   2   65.39    2.34
  -2   6   2    8.09    0.53
  -2   6   2    6.48    0.48
  -2   6   2    7.24    0.52
  -2   6   2    6.07    0.49
  -2   6   2    7.82    0.54
  -2   6   2    7.68    0.47
  -3   6   2   90.89    3.44
  -3   6   2   89.70    3.37
  -3   6   2   91.44    3.25
  -3   6   2   96.90    3.27
  -3   6   2   90.15    3.16
  -4   6   2   25.34    1.11
  -4   6   2   26.81    1.07
  -4   6   2   25.55    1.13
  -4   6   2   24.06    1.08
  -4   6   2   25.02    1.03
  -5   6   2    0.89    0.31
  -5   6   2    1.07    0.27
  -6   6   2    3.53    0.49
  -6   6   2    3.79    0.48
  -7   6   2    0.25    0.29
   4   5   2    5.94    0.36
   4   5   2    6.46    0.40
   3   5   2    3.44    0.29
   3   5   2    3.62    0.34
   3   5   2    3.43    0.28
   2   5   2    4.50    0.36
   2   5   2    4.59    0.37
   2   5   2    4.47    0.31
   2   5   2    4.57    0.33
   1   5   2    0.95    0.21
   1   5   2    0.88    0.21
   1   5   2    0.69    0.20
   0   5   2    2.63    0.28
  -1   5   2   41.50    1.73
  -1   5   2   43.50    1.62
  -1   5   2   41.06    1.50
  -1   5   2   42.87    1.55
  -1   5   2   41.26    1.54
  -1   5   2   41.38    1.63
  -2   5   2    0.03    0.20
  -2   5   2   -0.04    0.19
  -2   5   2    0.11    0.19
  -2   5   2   -0.04    0.21
  -2   5   2   -0.02    0.17
  -3   5   2    5.04    0.37
  -3   5   2    4.88    0.37
  -3   5   2    5.68    0.47
  -3   5   2    5.26    0.47
  -3   5   2    4.76    0.44
  -3   5   2    5.86    0.45
  -4   5   2   53.91    2.03
  -4   5   2   53.85    1.95
  -4   5   2   56.00    1.95
  -4   5   2   49.87    1.88
  -4   5   2   50.70    2.04
  -5   5   2   -0.12    0.27
  -5   5   2    0.35    0.19
  -5   5   2    0.16    0.24
  -6   5   2    5.49    0.46
  -6   5   2    5.05    0.45
  -7   5   2   -0.01    0.28
   4   4   2    7.18    0.38
   4   4   2    7.65    0.35
  -3  -4  -2   18.38    0.67
   3   4   2   18.35    0.71
   3   4   2   17.73    0.74
   3   4   2   16.37    0.72
   3   4   2   18.77    0.68
  -2  -4  -2  121.51    4.54
   2   4   2  118.92    4.53
   2   4   2  117.85    3.93
   2   4   2  115.61    4.04
   2   4   2  120.29    4.29
   2   4   2  117.12    4.07
   1   4   2   21.74    0.84
   1   4   2   21.52    0.85
   1   4   2   20.28    0.84
   1   4   2   21.90    0.87
   1   4   2   21.87    0.80
   1   4   2   21.81    0.92
   0   4   2   11.84    0.56
   0   4   2   11.64    0.57
   0   4   2   11.82    0.56
   0   4   2   13.13    0.58
   0   4   2   13.17    0.53
   0   4   2   13.27    0.61
  -1   4   2    4.72    0.34
  -1   4   2    5.09    0.39
  -1   4   2    4.66    0.40
  -1   4   2    4.61    0.31
  -1   4   2    4.76    0.36
  -1   4   2    4.62    0.38
  -2   4   2    7.79    0.46
  -2   4   2    7.63    0.49
  -2   4   2    6.63    0.48
  -2   4   2    7.45    0.45
  -2   4   2    7.22    0.44
  -3   4   2   27.06    1.03
  -3   4   2   26.00    1.03
  -3   4   2   25.47    0.99
  -3   4   2   27.20    1.08
  -3   4   2   24.97    1.14
  -3   4   2   26.61    1.08
  -4   4   2    0.64    0.22
  -4   4   2    0.59    0.20
  -4   4   2    0.51    0.23
  -4   4   2    0.26    0.19
  -4   4   2    1.00    0.22
  -4   4   2    0.35    0.23
   5  -4  -2   29.93    1.17
  -5   4   2   29.11    1.14
  -5   4   2   30.19    1.25
  -5   4   2   31.44    1.23
  -6   4   2    0.72    0.26
  -7   4   2    0.16    0.25
  -3  -3  -2    5.12    0.25
  -3  -3  -2    4.45    0.28
  -3  -3  -2    4.55    0.23
   3   3   2    4.44    0.24
   3   3   2    4.52    0.27
   3   3   2    4.08    0.25
   3   3   2    4.40    0.24
   3   3   2    4.56    0.21
  -2  -3  -2   20.72    0.79
  -2  -3  -2   21.17    0.84
  -2  -3  -2   20.58    0.73
   2   3   2   19.41    0.75
   2   3   2   19.09    0.75
   2   3   2   20.58    0.83
   2   3   2   20.45    0.72
   2   3   2   20.10    0.79
  -1  -3  -2   11.10    0.44
  -1  -3  -2   11.03    0.52
   1   3   2   10.17    0.47
   1   3   2   11.23    0.44
   1   3   2   10.20    0.46
   1   3   2   10.92    0.48
   1   3   2   10.99    0.46
   1   3   2   10.71    0.50
   0   3   2   22.33    0.91
   0   3   2   23.30    0.87
   0   3   2   23.09    0.87
   0   3   2   22.85    0.89
   0   3   2   24.00    0.97
   0   3   2   22.73    0.84
  -1   3   2   42.92    1.59
  -1   3   2   44.04    1.64
  -1   3   2   45.03    1.78
  -1   3   2   44.55    1.67
  -1   3   2   45.02    1.54
  -1   3   2   46.16    1.59
  -2   3   2    0.28    0.13
  -2   3   2    0.53    0.14
  -2   3   2    0.04    0.17
  -2   3   2    0.31    0.14
  -2   3   2    0.28    0.14
   3  -3  -2   83.84    3.21
  -3   3   2   82.81    2.85
  -3   3   2   85.95    2.95
  -3   3   2   78.58    2.84
  -3   3   2   80.48    2.76
  -3   3   2   80.29    3.19
  -3   3   2   80.09    3.00
   4  -3  -2   21.12    0.84
   4  -3  -2   21.03    0.88
  -4   3   2   21.63    0.84
  -4   3   2   22.03    0.89
  -4   3   2   21.10    0.81
  -4   3   2   20.83    0.85
  -4   3   2   20.23    0.94
  -4   3   2   20.92    0.88
   5  -3  -2   39.88    1.51
   5  -3  -2   37.59    1.41
  -5   3   2   39.93    1.51
  -5   3   2   37.82    1.43
  -5   3   2   37.43    1.63
  -5   3   2   38.05    1.39
   6  -3  -2   79.77    3.00
  -6   3   2   81.15    2.94
  -7   3   2    2.63    0.44
   3   2   2   64.18    2.30
   3   2   2   64.11    2.11
  -2  -2  -2   74.55    2.42
  -2  -2  -2   73.93    2.42
  -2  -2  -2   72.72    2.63
  -2  -2  -2   74.53    2.80
  -2  -2  -2   73.68    2.64
   2   2   2   69.68    2.48
   2   2   2   71.22    2.50
   2   2   2   73.61    2.79
   2   2   2   74.07    2.63
   2   2   2   73.92    2.41
  -1  -2  -2    1.68    0.20
  -1  -2  -2    1.66    0.15
   1   2   2    1.38    0.18
   0   2   2    0.26    0.12
   0   2   2    0.42    0.12
   1  -2  -2   76.42    2.54
   1  -2  -2   74.82    2.75
   1  -2  -2   79.52    2.75
   1  -2  -2   73.95    2.92
   1  -2  -2   80.35    2.53
  -1   2   2   79.25    2.92
  -1   2   2   73.81    2.61
  -1   2   2   72.90    2.59
  -1   2   2   73.22    2.52
  -1   2   2   72.23    2.74
  -1   2   2   74.25    2.69
   2  -2  -2    2.40    0.22
   2  -2  -2    2.89    0.23
   2  -2  -2    3.02    0.25
   2  -2  -2    2.51    0.22
  -2   2   2    2.32    0.26
  -2   2   2    2.49    0.26
  -2   2   2    2.75    0.24
   3  -2  -2   21.68    0.88
   3  -2  -2   22.13    1.00
   3  -2  -2   22.63    0.93
   3  -2  -2   25.69    0.96
  -3   2   2   23.26    0.94
  -3   2   2   24.67    0.92
  -3   2   2   24.11    1.00
  -3   2   2   22.34    0.90
  -3   2   2   24.54    0.88
  -3   2   2   24.28    0.93
   4  -2  -2    1.19    0.18
  -4   2   2    0.93    0.18
  -4   2   2    1.40    0.20
  -4   2   2    1.03    0.18
  -4   2   2    1.43    0.25
  -4   2   2    0.83    0.19
   5  -2  -2   22.26    0.87
   5  -2  -2   21.84    0.92
  -5   2   2   22.62    0.89
  -5   2   2   21.99    0.86
  -5   2   2   24.07    1.02
  -5   2   2   22.45    0.93
   6  -2  -2   84.72    3.22
  -6   2   2   90.13    3.18
  -2  -1  -2  473.00   17.92
  -2  -1  -2  481.59   16.93
  -2  -1  -2  483.35   15.52
  -2  -1  -2  489.42   16.94
  -2  -1  -2  455.00   16.51
  -2  -1  -2  484.26   15.53
  -2  -1  -2  487.28   17.92
  -2  -1  -2  456.67   15.98
   2   1   2  486.75   16.95
   2   1   2  462.16   15.97
   2   1   2  479.08   15.53
   2   1   2  448.56   16.08
   2   1   2  478.43   17.91
   2   1   2  487.25   16.95
   2   1   2  469.18   15.52
  -1  -1  -2  419.13   14.61
  -1  -1  -2  399.39   13.38
  -1  -1  -2  415.23   13.40
  -1  -1  -2  433.00   15.44
  -1  -1  -2  397.75   14.61
  -1  -1  -2  381.15   13.76
  -1  -1  -2  390.15   13.85
  -1  -1  -2  398.14   15.44
   1   1   2  432.11   14.62
   1   1   2  407.80   14.61
   1   1   2  429.34   15.43
   1   1   2  385.93   13.85
   1   1   2  405.01   15.45
   1   1   2  395.37   13.75
   1   1   2  413.25   13.38
   1   1   2  422.01   13.40
   0  -1  -2   36.82    1.23
   0  -1  -2   36.07    1.41
   0  -1  -2   35.91    1.41
   0  -1  -2   35.98    1.25
   0  -1  -2   34.07    1.21
   0  -1  -2   36.30    1.33
   0  -1  -2   35.73    1.33
   0   1   2   33.96    1.26
   0   1   2   36.19    1.33
   0   1   2   38.35    1.41
   0   1   2   37.02    1.33
   0   1   2   34.85    1.25
   0   1   2   33.79    1.29
   0   1   2   37.00    1.22
   0   1   2   36.31    1.41
   0   1   2   37.52    1.23
   1  -1  -2   66.02    2.18
   1  -1  -2   63.41    2.18
   1  -1  -2   65.57    2.38
   1  -1  -2   62.95    2.52
   1  -1  -2   63.28    2.37
   1  -1  -2   68.51    2.34
  -1   1   2   68.02    2.52
  -1   1   2   62.40    2.24
  -1   1   2   67.88    2.33
  -1   1   2   64.33    2.37
  -1   1   2   69.40    2.53
  -1   1   2   63.78    2.18
  -1   1   2   66.99    2.19
  -1   1   2   66.88    2.38
  -1   1   2   59.60    2.25
   2  -1  -2   81.58    2.94
   2  -1  -2   83.15    3.00
   2  -1  -2   81.13    2.75
   2  -1  -2   82.65    3.00
   2  -1  -2   84.80    2.76
   2  -1  -2   80.29    3.18
  -2   1   2   88.83    3.19
  -2   1   2   78.07    2.83
  -2   1   2   87.43    3.20
  -2   1   2   81.69    2.93
  -2   1   2   81.50    3.00
  -2   1   2   82.81    2.85
  -2   1   2   82.11    2.75
   3  -1  -2   -0.17    0.14
   3  -1  -2    0.14    0.15
   3  -1  -2    0.35    0.13
  -3   1   2    0.07    0.14
  -3   1   2    0.41    0.14
  -3   1   2   -0.14    0.12
  -3   1   2    0.29    0.12
  -3   1   2    0.16    0.13
   4  -1  -2   12.59    0.50
   4  -1  -2   11.53    0.53
  -4   1   2   12.20    0.60
  -4   1   2   11.01    0.57
  -4   1   2   13.17    0.57
   5  -1  -2    9.01    0.45
  -5   1   2    8.79    0.53
  -5   1   2   10.09    0.50
   6  -1  -2   78.63    2.98
   6  -1  -2   82.29    2.84
  -6   1   2   82.89    2.94
  -4   0  -2    6.28    0.28
  -4   0  -2    6.13    0.28
   4   0   2    6.01    0.25
  -3   0  -2   31.20    1.12
  -3   0  -2   31.58    1.21
  -3   0  -2   29.50    1.10
  -3   0  -2   29.89    1.12
  -3   0  -2   31.49    1.04
  -3   0  -2   31.65    1.20
  -3   0  -2   32.12    1.03
  -3   0  -2   28.74    1.06
   3   0   2   31.84    1.13
   3   0   2   31.49    1.03
   3   0   2   31.75    1.13
   3   0   2   29.84    1.07
   3   0   2   29.77    1.19
   3   0   2   30.66    1.21
   3   0   2   29.48    1.07
   3   0   2   30.78    1.04
  -2   0  -2   18.73    0.74
  -2   0  -2   16.71    0.65
  -2   0  -2   18.35    0.69
  -2   0  -2   17.08    0.68
  -2   0  -2   20.28    0.64
  -2   0  -2   16.79    0.64
  -2   0  -2   18.56    0.75
  -2   0  -2   19.34    0.70
   2   0   2   19.78    0.67
   2   0   2   18.03    0.73
   2   0   2   17.94    0.64
   2   0   2   18.74    0.68
   2   0   2   18.25    0.75
   2   0   2   17.56    0.63
   2   0   2   18.05    0.69
   2   0   2   18.04    0.69
  -1   0  -2  202.33    7.06
  -1   0  -2  212.34    6.63
  -1   0  -2  210.70    7.65
  -1   0  -2  202.54    7.68
  -1   0  -2  208.47    7.24
  -1   0  -2  204.69    7.25
  -1   0  -2  174.28    6.87
  -1   0  -2  201.10    6.84
  -1   0  -2  205.97    6.66
   1   0   2  197.72    6.83
   1   0   2  209.99    7.65
   1   0   2  198.29    7.26
   1   0   2  206.60    6.64
   1   0   2  200.69    6.64
   1   0   2  194.81    6.88
   1   0   2  205.11    7.66
   1   0   2  207.73    7.26
   0   0  -2    4.04    0.20
   0   0  -2    3.40    0.18
   0   0  -2    3.37    0.19
   0   0  -2    3.72    0.21
   0   0  -2    3.15    0.18
   0   0  -2    3.21    0.19
   0   0  -2    3.44    0.18
   0   0  -2    3.70    0.21
   0   0  -2    3.97    0.18
   0   0   2    3.59    0.21
   0   0   2    3.61    0.19
   0   0   2    3.50    0.20
   0   0   2    3.77    0.19
   0   0   2    3.57    0.20
   0   0   2    3.55    0.21
   0   0   2    4.31    0.21
   0   0   2    3.31    0.17
   1   0  -2   25.22    0.89
   1   0  -2   27.71    0.93
   1   0  -2   25.81    0.97
   1   0  -2   26.34    0.89
   1   0  -2   26.52    0.96
   1   0  -2   25.79    0.91
   1   0  -2   23.62    0.95
   1   0  -2   25.60    1.04
  -1   0   2   26.20    0.89
  -1   0   2   29.24    0.97
  -1   0   2   23.13    0.91
  -1   0   2   26.18    1.05
  -1   0   2   25.49    0.96
  -1   0   2   25.23    1.03
  -1   0   2   25.74    0.89
  -1   0   2   25.30    0.96
  -1   0   2   22.00    0.91
   2   0  -2   17.83    0.64
   2   0  -2   17.22    0.66
   2   0  -2   17.41    0.66
   2   0  -2   17.29    0.69
   2   0  -2   17.39    0.73
   2   0  -2   17.11    0.68
   2   0  -2   17.27    0.63
  -2   0   2   17.56    0.74
  -2   0   2   18.31    0.75
  -2   0   2   16.67    0.65
  -2   0   2   17.87    0.64
  -2   0   2   17.40    0.69
  -2   0   2   17.85    0.64
  -2   0   2   16.48    0.65
  -2   0   2   17.58    0.69
   3   0  -2   10.67    0.50
   3   0  -2    9.90    0.48
   3   0  -2    9.85    0.46
   3   0  -2   10.52    0.46
   3   0  -2    8.88    0.45
   3   0  -2   10.18    0.42
   3   0  -2   10.19    0.42
  -3   0   2   10.77    0.44
  -3   0   2    9.81    0.49
  -3   0   2    9.80    0.52
  -3   0   2   11.69    0.44
  -3   0   2   10.67    0.46
  -3   0   2    9.92    0.44
  -3   0   2   11.05    0.46
  -3   0   2    9.46    0.46
   4   0  -2    9.92    0.49
   4   0  -2   12.20    0.46
   4   0  -2   10.46    0.48
  -4   0   2   10.37    0.46
  -4   0   2    9.27    0.49
  -4   0   2   10.93    0.53
  -4   0   2   11.66    0.52
   5   0  -2   13.77    0.61
   5   0  -2   14.50    0.62
  -5   0   2   14.69    0.70
  -5   0   2   14.13    0.65
   6   0  -2  151.76    5.20
  -6   1  -2    1.26    0.18
  -5   1  -2    2.74    0.28
  -5   1  -2    2.92    0.30
  -5   1  -2    3.20    0.22
  -5   1  -2    2.47    0.21
  -5   1  -2    2.60    0.25
   5  -1   2    2.91    0.24
   5  -1   2    3.10    0.21
  -4   1  -2  160.54    5.23
  -4   1  -2  161.61    6.06
  -4   1  -2  155.48    5.38
  -4   1  -2  159.01    6.03
  -4   1  -2  161.09    5.57
  -4   1  -2  159.88    5.22
  -4   1  -2  161.60    5.70
   4  -1   2  147.05    5.41
   4  -1   2  165.03    5.70
   4  -1   2  160.41    5.38
  -3   1  -2    1.32    0.15
  -3   1  -2    1.24    0.14
  -3   1  -2    1.05    0.16
  -3   1  -2    1.22    0.16
  -3   1  -2    1.37    0.16
  -3   1  -2    1.26    0.15
  -3   1  -2    1.26    0.15
  -3   1  -2    1.52    0.22
  -3   1  -2    1.34    0.15
   3  -1   2    1.29    0.19
   3  -1   2    1.62    0.19
   3  -1   2    1.24    0.12
   3  -1   2    1.08    0.13
   3  -1   2    1.33    0.18
  -2   1  -2    5.65    0.28
  -2   1  -2    5.78    0.28
  -2   1  -2    4.65    0.28
  -2   1  -2    5.14    0.29
   2  -1   2    4.74    0.26
   2  -1   2    4.80    0.27
   2  -1   2    4.57    0.38
  -1   1  -2   56.30    1.76
  -1   1  -2   55.40    2.02
  -1   1  -2   48.29    1.79
  -1   1  -2   48.89    1.75
  -1   1  -2   58.47    1.91
  -1   1  -2   48.83    1.90
  -1   1  -2   47.77    1.80
  -1   1  -2   56.85    2.04
  -1   1  -2   49.16    1.86
   1  -1   2   54.54    2.05
   1  -1   2   51.78    2.02
   1  -1   2   51.94    1.90
   1  -1   2   50.40    1.75
   1  -1   2   50.48    1.90
   1  -1   2   54.82    1.81
   1  -1   2   51.75    1.76
   1  -1   2   53.86    1.81
   1  -1   2   50.04    1.88
   0   1  -2   70.19    2.26
   0   1  -2   70.65    2.46
   0   1  -2   66.81    2.40
   0   1  -2   67.97    2.60
   0   1  -2   71.29    2.46
   0   1  -2   66.80    2.61
   0   1  -2   65.39    2.33
   0   1  -2   68.85    2.25
   0  -1   2   61.78    2.40
   0  -1   2   62.93    2.33
   0  -1   2   70.29    2.25
   0  -1   2   68.63    2.45
   0  -1   2   66.79    2.45
   0  -1   2   71.36    2.61
   0  -1   2   65.41    2.32
   0  -1   2   70.01    2.62
   0  -1   2   65.55    2.25
   1   1  -2   18.33    0.71
   1   1  -2   19.16    0.72
   1   1  -2   20.60    0.82
   1   1  -2   19.07    0.75
   1   1  -2   18.40    0.70
   1   1  -2   20.46    0.78
   1   1  -2   20.19    0.70
   1   1  -2   19.47    0.76
  -1  -1   2   19.65    0.76
  -1  -1   2   18.18    0.72
  -1  -1   2   20.17    0.70
  -1  -1   2   20.47    0.83
  -1  -1   2   17.74    0.75
  -1  -1   2   20.32    0.75
  -1  -1   2   21.28    0.82
  -1  -1   2   18.31    0.73
  -1  -1   2   19.89    0.71
   2   1  -2   96.54    3.54
   2   1  -2  100.06    3.55
   2   1  -2   98.34    3.37
   2   1  -2   97.71    3.76
   2   1  -2   99.30    3.25
   2   1  -2   96.40    3.35
   2   1  -2  101.71    3.26
  -2  -1   2  100.67    3.26
  -2  -1   2  104.02    3.26
  -2  -1   2   98.18    3.77
  -2  -1   2   97.26    3.54
  -2  -1   2   95.78    3.36
  -2  -1   2   91.60    3.35
  -2  -1   2   99.02    3.77
  -2  -1   2   98.24    3.47
   3   1  -2  128.38    5.08
   3   1  -2  140.60    4.41
   3   1  -2  133.76    4.80
   3   1  -2  131.21    4.80
   3   1  -2  136.21    4.55
   3   1  -2  129.19    4.53
   3   1  -2  131.87    4.40
  -3  -1   2  134.15    4.80
  -3  -1   2  135.95    4.41
  -3  -1   2  131.33    4.53
  -3  -1   2  132.84    5.10
  -3  -1   2  130.90    4.40
  -3  -1   2  138.45    4.70
   4   1  -2    2.03    0.28
   4   1  -2    2.19    0.28
   4   1  -2    3.09    0.24
   4   1  -2    2.67    0.23
  -4  -1   2    3.32    0.32
  -4  -1   2    2.39    0.22
  -4  -1   2    2.92    0.30
  -4  -1   2    2.99    0.29
   5   1  -2    1.66    0.27
   5   1  -2    1.06    0.21
  -6   2  -2    4.07    0.34
  -6   2  -2    4.57    0.35
  -5   2  -2   47.60    1.87
  -5   2  -2   47.35    1.74
  -5   2  -2   46.84    1.65
  -5   2  -2   46.84    1.61
   5  -2   2   45.02    1.66
  -4   2  -2   76.41    3.00
  -4   2  -2   78.62    3.04
  -4   2  -2   77.85    2.77
  -4   2  -2   78.80    2.83
  -4   2  -2   77.82    2.68
  -4   2  -2   77.26    2.67
  -4   2  -2   75.34    2.59
   4  -2   2   75.18    2.68
   4  -2   2   81.27    2.83
   4  -2   2   75.43    2.68
  -3   2  -2   91.28    2.84
  -3   2  -2   82.68    3.01
  -3   2  -2   88.98    3.30
  -3   2  -2   81.99    3.07
  -3   2  -2   83.19    2.82
  -3   2  -2   83.86    2.91
  -3   2  -2   81.06    2.90
  -3   2  -2   88.20    3.27
   3  -2   2   82.32    2.91
   3  -2   2   82.73    2.82
   3  -2   2   84.36    3.03
   3  -2   2   83.78    2.92
   3  -2   2   84.47    3.07
  -2   2  -2   48.54    1.87
  -2   2  -2   46.52    1.75
  -2   2  -2   44.18    1.65
  -2   2  -2   47.10    1.73
  -2   2  -2   48.65    1.63
  -2   2  -2   46.49    1.66
  -2   2  -2   47.00    1.61
   2  -2   2   47.89    1.75
   2  -2   2   46.84    1.75
   2  -2   2   46.43    1.67
   2  -2   2   47.46    1.67
   2  -2   2   48.69    1.90
   2  -2   2   49.18    1.76
   2  -2   2   48.80    1.62
   2  -2   2   49.24    1.63
  -1   2  -2   77.01    2.93
  -1   2  -2   77.41    2.53
  -1   2  -2   77.10    2.70
  -1   2  -2   73.50    2.60
  -1   2  -2   73.86    2.74
  -1   2  -2   70.53    2.59
  -1   2  -2   75.95    2.74
  -1   2  -2   77.31    2.52
   1  -2   2   78.33    2.75
   1  -2   2   76.16    2.75
   1  -2   2   76.81    2.95
   1  -2   2   76.12    2.71
   1  -2   2   71.30    2.60
   1  -2   2   72.66    2.60
   1  -2   2   77.48    2.52
   1  -2   2   77.13    2.54
   0   2  -2   11.13    0.49
   0   2  -2   11.05    0.45
   0   2  -2   11.47    0.53
   0   2  -2   10.96    0.46
   0   2  -2   11.85    0.46
   0   2  -2   11.40    0.47
   0   2  -2   12.94    0.53
   0   2  -2   11.24    0.48
   0  -2   2   11.20    0.45
   0  -2   2   11.57    0.48
   0  -2   2   11.72    0.49
   0  -2   2   11.62    0.56
   0  -2   2   11.48    0.52
   0  -2   2   11.89    0.47
   0  -2   2   10.85    0.49
   0  -2   2   10.93    0.48
   0  -2   2   12.51    0.55
   1   2  -2   17.99    0.70
   1   2  -2   16.91    0.69
   1   2  -2   18.10    0.67
   1   2  -2   18.10    0.75
   1   2  -2   17.13    0.64
   1   2  -2   17.28    0.66
   1   2  -2   17.64    0.65
   1   2  -2   17.98    0.70
  -1  -2   2   17.19    0.70
  -1  -2   2   18.51    0.76
  -1  -2   2   17.26    0.73
  -1  -2   2   17.75    0.67
  -1  -2   2   17.24    0.78
  -1  -2   2   18.07    0.65
  -1  -2   2   16.85    0.66
  -1  -2   2   17.32    0.69
   2   2  -2    0.31    0.11
   2   2  -2    0.56    0.13
   2   2  -2    0.45    0.11
   2   2  -2    0.54    0.11
   2   2  -2    0.49    0.10
   2   2  -2    0.42    0.12
   2   2  -2    0.43    0.10
  -2  -2   2    0.55    0.13
  -2  -2   2    0.52    0.17
  -2  -2   2    0.56    0.13
  -2  -2   2    0.65    0.15
  -2  -2   2    0.54    0.11
   3   2  -2   17.62    0.71
   3   2  -2   18.98    0.66
   3   2  -2   17.14    0.70
   3   2  -2   18.52    0.69
   3   2  -2   17.21    0.67
  -3  -2   2   17.49    0.67
  -3  -2   2   17.21    0.69
  -3  -2   2   17.18    0.74
  -3  -2   2   17.28    0.70
  -3  -2   2   16.12    0.79
   4   2  -2    6.44    0.34
   4   2  -2    7.31    0.35
   4   2  -2    6.51    0.32
  -4  -2   2    6.52    0.42
  -4  -2   2    5.96    0.42
   5   2  -2    1.28    0.24
  -7   3  -2    8.68    0.54
  -6   3  -2    0.76    0.23
  -6   3  -2    0.74    0.27
  -5   3  -2    2.11    0.30
  -5   3  -2    1.93    0.26
  -5   3  -2    2.88    0.33
  -5   3  -2    2.34    0.30
  -4   3  -2    3.83    0.34
  -4   3  -2    4.11    0.38
  -4   3  -2    3.96    0.36
  -4   3  -2    3.62    0.35
  -4   3  -2    3.93    0.33
  -4   3  -2    3.86    0.28
   4  -3   2    3.78    0.33
   4  -3   2    4.24    0.36
  -3   3  -2   23.39    0.91
  -3   3  -2   23.10    1.02
  -3   3  -2   23.62    0.88
  -3   3  -2   23.82    0.95
  -3   3  -2   24.15    0.97
  -3   3  -2   24.21    0.91
   3  -3   2   24.51    0.94
   3  -3   2   24.74    0.92
   3  -3   2   23.16    0.99
  -2   3  -2   -0.04    0.12
  -2   3  -2    0.01    0.12
  -2   3  -2   -0.12    0.12
  -2   3  -2   -0.03    0.13
  -2   3  -2   -0.01    0.12
  -2   3  -2    0.03    0.13
   2  -3   2   -0.02    0.20
   2  -3   2    0.37    0.14
   2  -3   2    0.08    0.14
  -1   3  -2    3.04    0.25
  -1   3  -2    3.25    0.28
  -1   3  -2    2.99    0.28
  -1   3  -2    3.17    0.23
  -1   3  -2    2.98    0.22
   1  -3   2    2.26    0.30
   1  -3   2    3.11    0.31
   1  -3   2    2.94    0.28
   1  -3   2    2.69    0.27
   1  -3   2    3.24    0.34
   1  -3   2    2.37    0.34
   0   3  -2   30.41    1.13
   0   3  -2   31.85    1.20
   0   3  -2   33.13    1.20
   0   3  -2   30.09    1.18
   0   3  -2   31.96    1.15
   0   3  -2   31.46    1.10
   0   3  -2   29.76    1.27
   0  -3   2   29.47    1.14
   0  -3   2   29.45    1.16
   0  -3   2   31.36    1.20
   0  -3   2   31.07    1.13
   0  -3   2   30.82    1.23
   0  -3   2   31.68    1.33
   1   3  -2   14.63    0.61
   1   3  -2   13.57    0.59
   1   3  -2   13.50    0.55
   1   3  -2   14.13    0.58
   1   3  -2   13.91    0.58
   1   3  -2   13.91    0.60
   1   3  -2   14.09    0.65
  -1  -3   2   13.77    0.60
  -1  -3   2   15.39    0.61
  -1  -3   2   14.29    0.66
  -1  -3   2   13.68    0.69
  -1  -3   2   14.77    0.64
  -1  -3   2   13.36    0.66
   2   3  -2    4.11    0.27
   2   3  -2    4.46    0.33
   2   3  -2    4.97    0.32
   2   3  -2    4.86    0.35
   2   3  -2    3.59    0.29
   2   3  -2    4.41    0.30
  -2  -3   2    4.31    0.28
  -2  -3   2    4.13    0.34
  -2  -3   2    4.14    0.44
  -2  -3   2    4.51    0.30
  -2  -3   2    4.51    0.29
  -2  -3   2    3.84    0.34
   3   3  -2   31.69    1.09
   3   3  -2   27.40    1.04
  -3  -3   2   27.61    1.13
  -3  -3   2   27.01    1.01
  -3  -3   2   26.02    1.19
  -3  -3   2   26.97    1.04
   4   3  -2    0.77    0.15
  -4  -3   2    0.75    0.32
   5   3  -2    1.47    0.22
  -8   4  -2    2.87    0.44
  -7   4  -2   13.47    0.71
  -6   4  -2    1.33    0.25
  -6   4  -2    1.58    0.28
  -5   4  -2   24.42    1.11
  -5   4  -2   24.48    1.04
  -5   4  -2   25.91    1.02
  -5   4  -2   24.43    0.97
  -4   4  -2   36.30    1.40
  -4   4  -2   35.25    1.28
  -4   4  -2   32.77    1.32
  -4   4  -2   37.24    1.39
  -4   4  -2   36.22    1.33
  -4   4  -2   34.22    1.48
   4  -4   2   35.00    1.34
  -3   4  -2   96.84    3.34
  -3   4  -2  101.34    3.48
  -3   4  -2   96.73    3.77
  -3   4  -2   92.91    3.25
  -3   4  -2   94.76    3.35
  -3   4  -2   95.35    3.54
   3  -4   2   94.37    3.51
   3  -4   2   96.89    3.36
   3  -4   2   98.19    3.36
  -2   4  -2   20.94    0.89
  -2   4  -2   19.93    0.89
  -2   4  -2   21.31    0.88
  -2   4  -2   20.67    0.82
  -2   4  -2   22.29    0.88
  -2   4  -2   24.32    0.97
   2  -4   2   19.89    0.87
   2  -4   2   21.46    0.85
   2  -4   2   19.19    1.06
  -1   4  -2   90.71    3.47
  -1   4  -2   86.55    3.25
  -1   4  -2   85.28    3.19
  -1   4  -2   90.90    3.07
  -1   4  -2   86.43    3.08
  -1   4  -2   88.93    2.99
   1  -4   2   89.94    3.24
   1  -4   2   89.17    3.09
   1  -4   2   89.25    3.09
   0   4  -2   23.05    0.92
   0   4  -2   22.12    0.95
   0   4  -2   23.45    1.00
   0   4  -2   27.48    1.09
   0   4  -2   22.98    0.97
   0  -4   2   26.29    1.13
   0  -4   2   24.85    1.01
   0  -4   2   27.04    0.97
   0  -4   2   27.67    1.17
   0  -4   2   23.14    0.98
   0  -4   2   24.33    0.95
   1   4  -2   67.04    2.55
   1   4  -2   61.75    2.25
   1   4  -2   64.78    2.26
   1   4  -2   63.93    2.19
   1   4  -2   63.54    2.38
   1   4  -2   62.45    2.33
  -1  -4   2   62.37    2.25
  -1  -4   2   66.05    2.21
  -1  -4   2   65.30    2.38
  -1  -4   2   65.39    2.39
  -1  -4   2   61.19    2.58
  -1  -4   2   64.08    2.26
   2   4  -2    4.32    0.32
   2   4  -2    3.32    0.31
   2   4  -2    3.44    0.27
   2   4  -2    3.31    0.29
   2   4  -2    3.45    0.29
  -2  -4   2    3.18    0.41
  -2  -4   2    3.80    0.28
  -2  -4   2    3.63    0.35
  -2  -4   2    3.79    0.29
  -2  -4   2    3.39    0.38
   3   4  -2    3.94    0.28
   3   4  -2    4.02    0.30
   3   4  -2    3.82    0.34
   3   4  -2    3.61    0.33
  -3  -4   2    3.24    0.47
  -3  -4   2    3.94    0.32
  -3  -4   2    4.51    0.42
  -3  -4   2    3.87    0.37
   4   4  -2    0.00    0.19
  -4  -4   2   -0.04    0.26
  -4  -4   2    0.26    0.26
   5   4  -2   -0.23    0.18
  -8   5  -2    2.26    0.37
  -7   5  -2    0.97    0.31
  -6   5  -2   -0.18    0.26
  -6   5  -2   -0.46    0.28
  -6   5  -2   -0.38    0.20
  -5   5  -2    0.57    0.23
  -5   5  -2    0.51    0.29
  -4   5  -2   11.28    0.66
  -4   5  -2   13.41    0.68
  -4   5  -2   12.98    0.66
  -4   5  -2   13.72    0.66
  -4   5  -2   12.09    0.65
  -4   5  -2   13.35    0.62
  -3   5  -2   25.65    1.01
  -3   5  -2   25.37    1.01
  -3   5  -2   25.87    1.08
  -3   5  -2   24.27    1.13
  -3   5  -2   25.19    0.98
  -3   5  -2   25.09    1.06
   3  -5   2   25.29    1.04
   3  -5   2   25.56    1.02
  -2   5  -2   22.47    0.95
  -2   5  -2   22.42    0.90
  -2   5  -2   21.76    0.90
  -2   5  -2   21.79    0.94
  -2   5  -2   21.23    1.02
  -2   5  -2   21.32    0.86
   2  -5   2   21.74    0.93
   2  -5   2   21.77    0.91
   2  -5   2   22.53    1.02
  -1   5  -2   51.82    2.15
  -1   5  -2   53.09    2.00
  -1   5  -2   51.68    2.01
  -1   5  -2   51.44    1.85
  -1   5  -2   53.69    1.91
  -1   5  -2   52.78    1.90
   1  -5   2   53.05    2.04
   1  -5   2   53.39    1.93
   1  -5   2   53.13    1.91
   0   5  -2    8.91    0.48
   0   5  -2    8.62    0.54
   0   5  -2    8.04    0.46
   0   5  -2    8.94    0.48
   0   5  -2    8.23    0.56
   0   5  -2    8.66    0.44
   0  -5   2    8.22    0.51
   0  -5   2    8.59    0.48
   0  -5   2    8.32    0.59
   1   5  -2    4.77    0.37
   1   5  -2    4.55    0.31
   1   5  -2    4.97    0.37
   1   5  -2    4.91    0.33
  -1  -5   2    5.39    0.54
  -1  -5   2    4.17    0.42
  -1  -5   2    4.50    0.38
   2   5  -2    3.80    0.37
   2   5  -2    4.04    0.36
   2   5  -2    4.36    0.31
   2   5  -2    3.72    0.33
  -2  -5   2    3.97    0.39
  -2  -5   2    3.40    0.46
  -2  -5   2    3.97    0.49
   3   5  -2   36.67    1.43
   3   5  -2   35.88    1.35
   3   5  -2   37.22    1.36
  -3  -5   2   33.53    1.58
  -3  -5   2   36.00    1.38
  -3  -5   2   37.72    1.50
   4   5  -2    7.67    0.48
   4   5  -2    8.83    0.49
  -4  -5   2    8.38    0.62
   5   5  -2    0.94    0.23
  -8   6  -2    6.26    0.57
  -7   6  -2    4.91    0.55
  -6   6  -2    9.63    0.65
  -6   6  -2   10.04    0.62
  -5   6  -2    0.17    0.28
  -5   6  -2    0.35    0.27
  -4   6  -2    4.82    0.54
  -4   6  -2    3.56    0.49
  -4   6  -2    3.08    0.48
  -3   6  -2    5.05    0.47
  -3   6  -2    6.00    0.43
  -3   6  -2    5.80    0.47
  -3   6  -2    5.97    0.40
  -3   6  -2    6.13    0.47
  -3   6  -2    6.04    0.49
  -2   6  -2   24.22    1.04
  -2   6  -2   23.51    1.03
  -2   6  -2   22.05    1.08
  -2   6  -2   21.65    0.94
  -2   6  -2   23.66    0.98
  -2   6  -2   24.15    1.00
   2  -6   2   23.00    0.97
   2  -6   2   24.24    1.15
   2  -6   2   23.73    1.02
  -1   6  -2   28.92    1.24
  -1   6  -2   30.00    1.18
  -1   6  -2   30.01    1.23
  -1   6  -2   29.67    1.15
  -1   6  -2   28.87    1.32
  -1   6  -2   30.04    1.19
   1  -6   2   29.73    1.33
   1  -6   2   29.73    1.17
   1  -6   2   30.15    1.21
   0   6  -2    8.89    0.56
   0   6  -2    8.88    0.55
   0   6  -2    8.98    0.53
   0   6  -2    8.63    0.55
   0   6  -2    9.92    0.56
   0   6  -2    9.37    0.50
   0  -6   2    9.02    0.51
   0  -6   2    9.06    0.71
   0  -6   2    8.77    0.56
   1   6  -2   10.12    0.55
   1   6  -2   10.20    0.51
   1   6  -2    9.21    0.54
   1   6  -2    9.66    0.54
  -1  -6   2   11.14    0.63
  -1  -6   2    8.94    0.86
   2   6  -2   12.74    0.69
   2   6  -2   13.85    0.72
   2   6  -2   13.08    0.66
   2   6  -2   14.66    0.66
  -2  -6   2   12.66    0.79
  -2  -6   2   11.38    0.67
   3   6  -2    0.65    0.24
  -3  -6   2    0.88    0.33
   4   6  -2    1.75    0.27
  -4  -6   2    1.80    0.39
   5   6  -2    6.25    0.48
  -7   7  -2    2.66    0.50
  -7   7  -2    2.95    0.52
  -6   7  -2    5.90    0.60
  -6   7  -2    6.54    0.59
  -5   7  -2   -0.21    0.26
  -5   7  -2    0.08    0.31
  -4   7  -2    2.95    0.44
  -4   7  -2    4.03    0.47
  -4   7  -2    3.94    0.47
  -4   7  -2    3.08    0.47
  -3   7  -2    6.55    0.54
  -3   7  -2    6.22    0.54
  -3   7  -2    7.84    0.59
  -3   7  -2    6.57    0.57
  -2   7  -2   10.16    0.64
  -2   7  -2    8.67    0.61
  -2   7  -2    8.47    0.57
  -2   7  -2    8.02    0.63
   2  -7   2    8.24    0.60
  -1   7  -2    0.45    0.26
  -1   7  -2    0.01    0.22
  -1   7  -2    0.10    0.26
  -1   7  -2   -0.15    0.24
  -1   7  -2    0.01    0.28
  -1   7  -2   -0.01    0.27
   1  -7   2    0.77    0.41
   1  -7   2    0.53    0.27
   0   7  -2    5.96    0.45
   0   7  -2    6.41    0.61
   0   7  -2    4.95    0.59
   0  -7   2    5.81    0.53
   0  -7   2    5.86    0.66
   1   7  -2   87.70    3.18
   1   7  -2   91.68    3.18
   1   7  -2   86.19    3.08
  -1  -7   2   89.87    3.38
  -1  -7   2   90.94    3.20
   2   7  -2    0.59    0.24
   2   7  -2    0.58    0.25
   2   7  -2    0.58    0.24
  -2  -7   2    0.50    0.25
  -2  -7   2    0.67    0.35
   3   7  -2    5.70    0.44
  -3  -7   2    4.76    0.73
   4   7  -2   -0.30    0.24
  -4  -7   2    0.04    0.36
  -6   8  -2    0.41    0.35
  -6   8  -2    0.37    0.33
  -5   8  -2    4.13    0.54
  -5   8  -2    3.73    0.57
  -4   8  -2    1.72    0.34
  -4   8  -2    1.33    0.37
  -4   8  -2    0.84    0.39
  -3   8  -2    1.36    0.33
  -3   8  -2    1.19    0.32
  -3   8  -2    1.58    0.37
  -2   8  -2   12.69    0.69
  -2   8  -2   12.58    0.75
  -2   8  -2   12.10    0.69
  -1   8  -2   -0.36    0.25
  -1   8  -2   -0.09    0.25
   0   8  -2    9.77    0.61
   0   8  -2   10.68    0.62
   0  -8   2    9.85    0.63
   0  -8   2   10.34    0.77
   1   8  -2   12.23    0.68
   1   8  -2   12.53    0.68
  -1  -8   2   12.72    0.87
  -1  -8   2   12.76    0.71
   2   8  -2    0.43    0.28
   2   8  -2   -0.03    0.26
  -2  -8   2    0.31    0.28
  -2  -8   2    0.45    0.38
   3   8  -2   11.34    0.69
  -3  -8   2   13.30    0.86
   4   8  -2    1.60    0.32
  -4  -8   2    1.87    0.44
  -5   9  -2    1.42    0.44
  -5   9  -2    1.52    0.39
  -4   9  -2    0.88    0.37
  -4   9  -2    0.60    0.38
  -4   9  -2    0.93    0.37
  -3   9  -2    0.00    0.35
  -3   9  -2    0.41    0.39
  -2   9  -2   -0.37    0.32
  -2   9  -2   -0.12    0.32
  -2   9  -2   -0.02    0.31
  -1   9  -2   -0.56    0.31
  -1   9  -2    0.18    0.29
   0   9  -2    1.04    0.36
   0   9  -2    0.41    0.31
   1   9  -2   23.81    1.11
   1   9  -2   23.27    1.07
  -1  -9   2   25.05    1.25
   2   9  -2   28.43    1.22
  -2  -9   2   28.93    1.44
  -3  -9   2   19.27    1.09
  -2  10  -2    1.31    0.39
  -2  10  -2    1.42    0.44
  -1  10  -2   -0.40    0.33
   0  10  -2    0.65    0.34
   0  10  -2    1.02    0.36
   3  10   3    9.51    0.64
   2  10   3   18.43    0.93
   2  10   3   20.13    0.95
   1  10   3   -0.21    0.32
   1  10   3   -0.33    0.32
   0  10   3    1.34    0.38
   0  10   3    1.21    0.38
  -1  10   3   -0.01    0.33
  -1  10   3   -0.32    0.35
  -2  10   3    0.45    0.34
  -2  10   3    0.19    0.33
   4   9   3    4.95    0.48
   3   9   3    4.47    0.48
   2   9   3    3.88    0.49
   2   9   3    4.36    0.47
   1   9   3   21.09    0.97
   1   9   3   20.88    0.97
   0   9   3    0.54    0.30
   0   9   3    0.51    0.32
  -1   9   3    3.19    0.51
  -1   9   3    2.64    0.47
  -2   9   3    3.66    0.52
  -2   9   3    4.05    0.50
  -2   9   3    4.19    0.52
  -3   9   3    0.36    0.33
  -3   9   3    0.51    0.35
  -3   9   3    1.22    0.32
  -4   9   3    1.73    0.39
   5   8   3   11.97    0.67
   4   8   3    4.09    0.43
   3   8   3    5.60    0.47
   2   8   3    4.40    0.47
   2   8   3    3.80    0.40
   2   8   3    4.14    0.46
   1   8   3    1.52    0.32
   1   8   3    1.60    0.27
   1   8   3    1.18    0.31
   0   8   3   -0.07    0.32
   0   8   3   -0.28    0.31
  -1   8   3    4.67    0.50
  -1   8   3    4.00    0.52
  -1   8   3    3.67    0.51
  -2   8   3    7.03    0.56
  -2   8   3    7.04    0.58
  -2   8   3    6.82    0.56
  -3   8   3    4.32    0.50
  -3   8   3    5.33    0.47
  -3   8   3    5.52    0.50
  -4   8   3    0.41    0.30
  -4   8   3   -0.20    0.31
  -5   8   3    0.55    0.29
  -5   8   3    0.43    0.30
   5   7   3   -0.14    0.22
   4   7   3    8.51    0.50
   4   7   3    9.59    0.56
   3   7   3   35.21    1.28
   3   7   3   28.54    1.27
   3   7   3   29.90    1.22
   2   7   3    2.88    0.43
   1   7   3    2.12    0.41
   1   7   3    2.82    0.35
   1   7   3    3.67    0.38
   1   7   3    3.07    0.43
   0   7   3    0.47    0.25
   0   7   3    0.30    0.26
   0   7   3    0.42    0.26
   0   7   3    0.96    0.39
  -1   7   3   26.09    1.10
  -1   7   3   29.83    1.20
  -1   7   3   25.10    1.10
  -1   7   3   23.61    1.20
  -1   7   3   27.43    1.11
  -1   7   3   23.70    1.14
  -2   7   3    0.26    0.25
  -2   7   3    0.56    0.31
  -3   7   3   16.42    0.86
  -3   7   3   17.23    0.82
  -3   7   3   16.61    0.83
  -3   7   3   18.15    0.85
  -4   7   3    1.03    0.30
  -4   7   3    1.06    0.28
  -5   7   3    3.02    0.50
  -5   7   3    2.33    0.45
  -6   7   3    0.32    0.29
  -6   7   3    0.22    0.28
   5   6   3   13.02    0.63
   4   6   3   34.22    1.27
   4   6   3   32.24    1.32
   3   6   3    5.04    0.33
   3   6   3    4.85    0.44
   3   6   3    4.65    0.40
   3   6   3    4.60    0.36
   2   6   3   49.57    1.75
   2   6   3   48.26    1.90
   2   6   3   50.05    1.82
   2   6   3   50.48    1.80
   1   6   3    1.07    0.29
   1   6   3    0.81    0.20
   1   6   3    1.15    0.26
   1   6   3    1.02    0.24
   1   6   3    0.66    0.20
   1   6   3    0.97    0.22
   0   6   3    0.40    0.27
   0   6   3    0.06    0.23
   0   6   3    0.04    0.17
   0   6   3   -0.09    0.18
   0   6   3   -0.16    0.21
   0   6   3    0.20    0.21
  -1   6   3   38.02    1.56
  -1   6   3   41.38    1.56
  -1   6   3   39.42    1.45
  -1   6   3   39.69    1.51
  -1   6   3   39.46    1.50
  -1   6   3   37.69    1.66
  -2   6   3    1.95    0.29
  -2   6   3    2.92    0.45
  -2   6   3    2.42    0.32
  -2   6   3    2.25    0.30
  -2   6   3    1.75    0.28
  -3   6   3    3.46    0.41
  -3   6   3    3.36    0.38
  -3   6   3    3.27    0.49
  -4   6   3    0.20    0.25
  -4   6   3    0.52    0.27
  -5   6   3    1.35    0.29
  -5   6   3    1.33    0.31
  -6   6   3    5.20    0.48
  -6   6   3    4.42    0.49
   5   5   3   10.50    0.52
   4   5   3    7.02    0.37
   4   5   3    6.83    0.42
   3   5   3    1.86    0.23
   3   5   3    1.20    0.18
   3   5   3    1.58    0.21
   2   5   3    0.70    0.17
   2   5   3    0.53    0.18
   2   5   3    0.64    0.16
   2   5   3    0.73    0.17
   1   5   3   47.06    1.88
   1   5   3   43.48    1.76
   1   5   3   47.16    1.63
   1   5   3   43.89    1.72
   1   5   3   47.36    1.69
   1   5   3   47.74    1.68
   0   5   3    5.90    0.43
   0   5   3    6.22    0.37
   0   5   3    6.58    0.50
   0   5   3    6.21    0.39
   0   5   3    6.08    0.43
   0   5   3    6.45    0.45
  -1   5   3    4.37    0.38
  -1   5   3    4.12    0.40
  -1   5   3    4.10    0.33
  -1   5   3    4.41    0.37
  -1   5   3    3.64    0.39
  -1   5   3    4.24    0.32
  -2   5   3   46.96    1.70
  -2   5   3   44.49    1.89
  -2   5   3   47.23    1.76
  -2   5   3   44.11    1.63
  -2   5   3   45.18    1.69
  -2   5   3   46.25    1.78
  -3   5   3    1.51    0.26
  -3   5   3    1.51    0.29
  -3   5   3    1.47    0.27
   4  -5  -3    0.31    0.22
  -4   5   3    0.65    0.27
  -4   5   3    0.70    0.21
   5  -5  -3    5.87    0.44
  -5   5   3    6.77    0.49
  -5   5   3    6.60    0.51
  -6   5   3    2.44    0.44
  -7   5   3    1.93    0.35
  -4  -4  -3   18.81    0.69
   4   4   3   19.03    0.68
   4   4   3   19.33    0.73
   4   4   3   18.57    0.74
  -3  -4  -3  140.65    5.07
   3   4   3  148.52    4.83
   3   4   3  134.56    4.79
   3   4   3  142.31    4.65
   3   4   3  139.58    5.08
   2   4   3   28.00    1.06
   2   4   3   28.42    1.03
   2   4   3   27.22    0.99
   2   4   3   28.21    1.14
   2   4   3   27.06    1.08
   2   4   3   26.24    1.05
   1   4   3    0.54    0.19
   0   4   3    7.17    0.46
   0   4   3    6.75    0.42
   0   4   3    7.09    0.43
   0   4   3    7.37    0.40
  -1   4   3   95.45    3.31
  -1   4   3   97.09    3.82
  -1   4   3   96.58    3.41
  -1   4   3  101.45    3.43
  -1   4   3   98.76    3.61
  -1   4   3  100.42    3.53
  -2   4   3   29.16    1.16
  -2   4   3   29.99    1.11
  -2   4   3   28.20    1.07
  -2   4   3   28.56    1.10
  -2   4   3   28.44    1.25
  -2   4   3   27.89    1.15
   3  -4  -3   32.82    1.44
   3  -4  -3   32.98    1.24
   3  -4  -3   32.05    1.31
  -3   4   3   33.07    1.26
  -3   4   3   32.94    1.22
  -3   4   3   34.23    1.32
  -3   4   3   32.70    1.32
  -3   4   3   32.82    1.27
  -3   4   3   33.22    1.42
   4  -4  -3    2.34    0.34
  -4   4   3    2.43    0.31
  -4   4   3    2.63    0.41
  -4   4   3    1.90    0.36
   5  -4  -3    4.20    0.38
  -5   4   3    4.58    0.37
  -5   4   3    3.44    0.42
  -5   4   3    4.29    0.44
  -6   4   3    0.98    0.27
  -7   4   3    0.52    0.29
  -4  -3  -3   21.52    0.74
  -4  -3  -3   20.07    0.86
  -4  -3  -3   21.97    0.74
   4   3   3   21.69    0.80
   4   3   3   20.88    0.78
   4   3   3   21.83    0.74
   4   3   3   19.60    0.76
  -3  -3  -3   77.36    2.80
  -3  -3  -3   70.48    2.79
  -3  -3  -3   69.90    2.42
  -3  -3  -3   74.43    2.42
  -3  -3  -3   70.74    2.62
   3   3   3   72.10    2.63
   3   3   3   71.28    2.50
   3   3   3   73.67    2.78
   3   3   3   74.95    2.41
   3   3   3   69.75    2.48
  -2  -3  -3   80.34    2.96
  -2  -3  -3   85.05    3.14
  -2  -3  -3   79.87    3.15
  -2  -3  -3   80.64    2.73
  -2  -3  -3   86.02    2.72
   2   3   3   79.23    2.79
   2   3   3   79.53    2.82
   2   3   3   85.05    3.14
   2   3   3   82.05    2.72
   2   3   3   78.59    2.88
   2   3   3   80.54    2.96
  -1  -3  -3    1.76    0.21
   1   3   3    1.88    0.18
   1   3   3    2.21    0.24
   1   3   3    2.04    0.23
   1   3   3    2.38    0.20
   1   3   3    1.82    0.23
   0   3   3    0.64    0.15
   0   3   3    0.61    0.15
   0   3   3    0.72    0.15
   0   3   3    1.05    0.18
   1  -3  -3  280.34   10.65
   1  -3  -3  280.90    9.23
   1  -3  -3  281.17   10.05
  -1   3   3  276.70   10.05
  -1   3   3  281.09    9.48
  -1   3   3  279.68    9.21
  -1   3   3  286.46    9.81
  -1   3   3  264.58   10.64
  -1   3   3  295.50    9.55
   2  -3  -3  178.20    5.85
   2  -3  -3  178.00    6.36
   2  -3  -3  179.80    6.75
  -2   3   3  170.73    6.73
  -2   3   3  176.80    6.36
  -2   3   3  172.74    5.83
  -2   3   3  180.00    6.03
  -2   3   3  176.42    6.21
  -2   3   3  172.94    6.00
   3  -3  -3   15.30    0.69
   3  -3  -3   15.57    0.77
   3  -3  -3   15.91    0.66
  -3   3   3   15.54    0.66
  -3   3   3   15.06    0.74
  -3   3   3   15.99    0.68
  -3   3   3   15.08    0.69
  -3   3   3   14.69    0.63
  -3   3   3   15.24    0.70
   4  -3  -3    7.29    0.42
   4  -3  -3    7.16    0.44
  -4   3   3    7.16    0.41
  -4   3   3    7.60    0.48
  -4   3   3    7.20    0.48
  -4   3   3    6.80    0.46
   5  -3  -3    2.42    0.30
   5  -3  -3    2.67    0.32
  -5   3   3    3.04    0.32
  -5   3   3    2.85    0.39
  -5   3   3    2.66    0.39
  -6   3   3    7.34    0.52
  -7   3   3   -0.20    0.25
  -4  -2  -3   50.95    1.82
  -3  -2  -3    7.35    0.35
  -3  -2  -3    6.61    0.31
  -3  -2  -3    6.01    0.30
  -3  -2  -3    7.02    0.34
  -3  -2  -3    6.46    0.33
  -3  -2  -3    7.17    0.29
   3   2   3    7.01    0.33
   3   2   3    7.38    0.32
   3   2   3    7.43    0.30
   3   2   3    7.95    0.33
   3   2   3    7.44    0.34
  -2  -2  -3    2.03    0.21
  -2  -2  -3    2.25    0.19
  -2  -2  -3    2.06    0.19
  -2  -2  -3    2.22    0.17
  -2  -2  -3    2.19    0.16
  -2  -2  -3    2.05    0.21
  -2  -2  -3    2.47    0.16
  -2  -2  -3    2.34    0.17
   2   2   3    2.40    0.21
   2   2   3    2.31    0.17
   2   2   3    2.39    0.20
   2   2   3    2.26    0.18
   2   2   3    1.73    0.18
  -1  -2  -3   74.73    2.74
  -1  -2  -3   71.20    2.36
  -1  -2  -3   65.66    2.43
  -1  -2  -3   70.69    2.57
  -1  -2  -3   72.15    2.57
  -1  -2  -3   69.96    2.37
  -1  -2  -3   70.00    2.73
   1   2   3   68.85    2.44
   1   2   3   73.02    2.58
   1   2   3   73.90    2.36
   1   2   3   69.00    2.51
   1   2   3   73.74    2.58
   1   2   3   67.24    2.42
   1   2   3   69.16    2.73
   0  -2  -3    0.59    0.13
   0  -2  -3    0.60    0.11
   0  -2  -3    0.59    0.11
   0   2   3    0.58    0.12
   0   2   3    0.60    0.13
   0   2   3    0.47    0.10
   0   2   3    0.40    0.12
   0   2   3    0.40    0.11
   0   2   3    0.42    0.12
   1  -2  -3  126.02    4.51
   1  -2  -3  124.79    4.78
   1  -2  -3  124.84    4.14
  -1   2   3  125.38    4.28
  -1   2   3  129.13    4.26
  -1   2   3  122.95    4.51
  -1   2   3  120.46    4.40
  -1   2   3  120.56    4.78
  -1   2   3  128.89    4.14
   2  -2  -3    9.64    0.51
   2  -2  -3    9.01    0.48
   2  -2  -3    9.02    0.46
  -2   2   3   10.94    0.48
  -2   2   3    9.55    0.47
  -2   2   3    9.37    0.43
  -2   2   3    8.96    0.49
  -2   2   3    9.49    0.48
   3  -2  -3    0.18    0.20
   3  -2  -3    0.52    0.24
   3  -2  -3    0.03    0.13
   3  -2  -3    0.04    0.13
  -3   2   3   -0.08    0.17
  -3   2   3   -0.12    0.14
  -3   2   3   -0.34    0.22
  -3   2   3    0.12    0.14
  -3   2   3    0.13    0.14
   4  -2  -3   12.12    0.56
   4  -2  -3   11.51    0.59
  -4   2   3   12.27    0.63
  -4   2   3   13.13    0.59
  -4   2   3   13.27    0.57
  -4   2   3   12.55    0.63
   5  -2  -3    0.16    0.18
  -5   2   3   -0.29    0.22
   6  -2  -3    0.95    0.23
  -6   2   3    0.89    0.25
   7  -2  -3   13.66    0.68
  -3  -1  -3   29.34    1.19
  -3  -1  -3   30.96    1.11
  -3  -1  -3   31.97    1.20
  -3  -1  -3   30.22    1.03
  -3  -1  -3   30.63    1.12
  -3  -1  -3   29.17    1.11
  -3  -1  -3   29.76    1.03
  -3  -1  -3   29.19    1.06
   3   1   3   30.22    1.12
   3   1   3   30.81    1.03
   3   1   3   29.61    1.03
   3   1   3   30.49    1.07
   3   1   3   29.82    1.06
   3   1   3   30.37    1.20
   3   1   3   30.70    1.12
  -2  -1  -3    2.20    0.16
  -2  -1  -3    1.91    0.15
  -2  -1  -3    1.77    0.21
  -2  -1  -3    1.68    0.16
  -2  -1  -3    1.91    0.14
   2   1   3    2.17    0.18
   2   1   3    2.36    0.16
   2   1   3    2.24    0.17
   2   1   3    2.31    0.19
   2   1   3    2.27    0.17
   2   1   3    2.11    0.16
  -1  -1  -3  195.36    6.99
  -1  -1  -3  182.30    6.22
  -1  -1  -3  183.83    6.04
  -1  -1  -3  185.88    6.98
  -1  -1  -3  182.28    6.45
  -1  -1  -3  195.91    6.59
  -1  -1  -3  170.90    6.25
  -1  -1  -3  191.09    6.59
  -1  -1  -3  186.42    6.05
   1   1   3  178.94    6.26
   1   1   3  189.30    6.05
   1   1   3  181.65    6.04
   1   1   3  184.65    6.99
   1   1   3  170.47    6.43
   1   1   3  177.47    6.22
   1   1   3  188.59    6.59
   1   1   3  187.11    6.59
   0  -1  -3   21.08    0.78
   0  -1  -3   21.50    0.87
   0  -1  -3   21.57    0.82
   0  -1  -3   21.73    0.80
   0  -1  -3   21.36    0.91
   0  -1  -3   22.31    0.85
   0  -1  -3   22.14    0.79
   0  -1  -3   21.99    0.85
   0   1   3   21.03    0.80
   0   1   3   21.89    0.91
   0   1   3   21.18    0.81
   0   1   3   22.64    0.85
   0   1   3   22.27    0.79
   0   1   3   23.67    0.80
   0   1   3   22.61    0.85
   0   1   3   19.98    0.84
   1  -1  -3   43.62    1.50
   1  -1  -3   44.92    1.55
   1  -1  -3   43.41    1.61
   1  -1  -3   46.21    1.64
   1  -1  -3   42.18    1.72
   1  -1  -3   42.90    1.54
   1  -1  -3   42.89    1.62
  -1   1   3   45.42    1.74
  -1   1   3   42.34    1.54
  -1   1   3   44.70    1.63
  -1   1   3   41.60    1.54
  -1   1   3   41.50    1.59
  -1   1   3   45.11    1.50
   2  -1  -3  209.66    6.97
   2  -1  -3  218.99    7.18
   2  -1  -3  205.62    8.04
   2  -1  -3  218.20    7.60
   2  -1  -3  211.39    7.21
   2  -1  -3  210.01    7.43
   2  -1  -3  199.56    7.59
  -2   1   3  213.81    7.60
  -2   1   3  217.97    7.42
  -2   1   3  211.29    8.05
  -2   1   3  213.72    6.97
  -2   1   3  212.29    7.21
  -2   1   3  211.07    7.17
   3  -1  -3    2.76    0.32
   3  -1  -3    2.14    0.30
   3  -1  -3    2.96    0.24
   3  -1  -3    2.48    0.22
   3  -1  -3    2.82    0.32
  -3   1   3    3.26    0.30
  -3   1   3    3.04    0.25
  -3   1   3    2.57    0.25
   4  -1  -3    9.28    0.46
   4  -1  -3    7.86    0.40
   4  -1  -3    7.55    0.41
   4  -1  -3    7.54    0.47
  -4   1   3    8.37    0.42
  -4   1   3    8.02    0.48
  -4   1   3    8.61    0.46
   5  -1  -3   14.75    0.69
   5  -1  -3   14.47    0.67
  -5   1   3   13.28    0.70
  -5   1   3   14.23    0.72
   6  -1  -3    0.35    0.21
  -6   1   3    0.54    0.23
  -5   0  -3    1.89    0.16
  -5   0  -3    2.48    0.26
  -5   0  -3    2.56    0.21
  -5   0  -3    1.93    0.16
   5   0   3    2.68    0.19
   5   0   3    2.32    0.22
   5   0   3    1.75    0.22
  -4   0  -3    4.81    0.25
  -4   0  -3    5.01    0.27
  -4   0  -3    4.76    0.23
  -4   0  -3    4.87    0.27
  -4   0  -3    4.34    0.32
   4   0   3    4.75    0.24
   4   0   3    4.41    0.30
   4   0   3    5.70    0.23
   4   0   3    5.48    0.29
   4   0   3    4.59    0.32
   4   0   3    5.86    0.33
   4   0   3    5.38    0.30
  -3   0  -3   56.12    2.09
  -3   0  -3   59.79    1.96
  -3   0  -3   60.48    2.27
  -3   0  -3   55.69    2.01
  -3   0  -3   60.45    1.96
  -3   0  -3   60.55    2.28
  -3   0  -3   56.25    2.02
  -3   0  -3   59.17    2.13
  -3   0  -3   59.81    2.13
   3   0   3   57.60    2.14
   3   0   3   60.47    2.13
   3   0   3   60.38    1.96
   3   0   3   57.70    2.03
   3   0   3   57.95    2.02
   3   0   3   60.39    1.97
   3   0   3   54.41    2.28
  -2   0  -3   62.57    2.42
  -2   0  -3   60.24    2.08
  -2   0  -3   64.71    2.23
  -2   0  -3   61.76    2.26
  -2   0  -3   62.11    2.14
  -2   0  -3   61.00    2.26
  -2   0  -3   62.15    2.08
  -2   0  -3   66.67    2.15
  -2   0  -3   62.20    2.41
   2   0   3   57.42    2.15
   2   0   3   59.09    2.14
   2   0   3   63.18    2.26
   2   0   3   67.75    2.09
   2   0   3   64.93    2.42
   2   0   3   60.14    2.23
   2   0   3   62.40    2.09
   2   0   3   60.65    2.27
  -1   0  -3   26.39    1.07
  -1   0  -3   23.63    1.01
  -1   0  -3   25.35    0.97
  -1   0  -3   27.89    1.07
  -1   0  -3   25.73    0.92
  -1   0  -3   25.95    0.91
  -1   0  -3   24.41    0.93
  -1   0  -3   25.26    0.90
  -1   0  -3   28.00    0.98
   1   0   3   23.70    1.06
   1   0   3   26.30    1.00
   1   0   3   24.55    0.93
   1   0   3   24.71    0.93
   1   0   3   25.16    0.90
   1   0   3   26.42    0.90
   1   0   3   26.67    0.98
   1   0   3   26.48    0.98
   0   0  -3    5.62    0.34
   0   0  -3    6.07    0.28
   0   0  -3    5.83    0.28
   0   0  -3    5.81    0.30
   0   0  -3    5.96    0.30
   0   0  -3    5.77    0.29
   0   0  -3    5.67    0.29
   0   0   3    5.58    0.33
   0   0   3    6.36    0.30
   0   0   3    6.37    0.29
   0   0   3    6.60    0.30
   0   0   3    6.04    0.31
   0   0   3    5.04    0.32
   0   0   3    6.08    0.30
   0   0   3    6.67    0.32
   1   0  -3   17.90    0.76
   1   0  -3   17.63    0.69
   1   0  -3   16.95    0.70
   1   0  -3   16.16    0.70
   1   0  -3   17.55    0.66
   1   0  -3   18.18    0.71
   1   0  -3   17.20    0.67
  -1   0   3   18.17    0.68
  -1   0   3   18.39    0.72
  -1   0   3   18.08    0.69
  -1   0   3   19.23    0.68
  -1   0   3   17.14    0.77
  -1   0   3   16.43    0.71
   2   0  -3   13.99    0.59
   2   0  -3   13.40    0.60
   2   0  -3   13.98    0.59
   2   0  -3   13.13    0.59
   2   0  -3   14.06    0.59
   2   0  -3   13.90    0.65
   2   0  -3   13.86    0.56
  -2   0   3   13.47    0.58
  -2   0   3   14.02    0.61
  -2   0   3   12.90    0.63
  -2   0   3   14.47    0.56
  -2   0   3   13.87    0.59
  -2   0   3   14.89    0.60
   3   0  -3    6.67    0.38
   3   0  -3    5.77    0.37
   3   0  -3    6.61    0.36
   3   0  -3    6.14    0.34
   3   0  -3    6.41    0.32
  -3   0   3    6.22    0.38
  -3   0   3    5.71    0.39
  -3   0   3    6.22    0.40
  -3   0   3    6.29    0.35
  -3   0   3    6.26    0.33
   4   0  -3    1.35    0.21
   4   0  -3    1.39    0.20
   4   0  -3    1.68    0.31
   4   0  -3    1.31    0.21
  -4   0   3    1.24    0.23
  -4   0   3    1.34    0.21
  -4   0   3    1.34    0.21
  -4   0   3    1.57    0.26
   6   0  -3    6.35    0.42
  -6   1  -3    0.80    0.17
  -6   1  -3    1.15    0.21
   6  -1   3    0.91    0.15
  -5   1  -3    1.53    0.21
  -5   1  -3    1.28    0.18
  -5   1  -3    1.68    0.17
  -5   1  -3    1.75    0.25
  -5   1  -3    1.75    0.21
   5  -1   3    1.48    0.23
   5  -1   3    1.57    0.25
   5  -1   3    2.10    0.21
  -4   1  -3    4.59    0.26
  -4   1  -3    4.27    0.35
  -4   1  -3    4.39    0.24
  -4   1  -3    3.89    0.30
  -4   1  -3    4.01    0.27
  -4   1  -3    4.26    0.24
  -4   1  -3    3.58    0.26
  -4   1  -3    3.88    0.31
   4  -1   3    4.19    0.28
   4  -1   3    4.47    0.27
   4  -1   3    4.30    0.23
   4  -1   3    4.35    0.25
   4  -1   3    4.80    0.30
  -3   1  -3    3.88    0.25
  -3   1  -3    4.07    0.24
  -3   1  -3    4.72    0.26
  -3   1  -3    4.13    0.32
  -3   1  -3    3.69    0.25
  -3   1  -3    4.07    0.30
  -3   1  -3    3.88    0.22
  -3   1  -3    3.95    0.28
   3  -1   3    4.29    0.24
   3  -1   3    3.99    0.27
   3  -1   3    4.15    0.28
   3  -1   3    4.29    0.23
   3  -1   3    3.72    0.31
   3  -1   3    4.13    0.33
  -2   1  -3   22.89    0.88
  -2   1  -3   23.39    0.88
  -2   1  -3   22.19    0.83
  -2   1  -3   23.23    0.82
  -2   1  -3   23.35    0.95
  -2   1  -3   21.50    0.84
  -2   1  -3   23.01    0.97
  -2   1  -3   22.81    0.83
   2  -1   3   23.39    0.83
   2  -1   3   21.59    0.84
   2  -1   3   23.51    0.88
   2  -1   3   23.01    0.90
   2  -1   3   22.19    0.85
   2  -1   3   23.06    0.82
   2  -1   3   23.76    0.89
   2  -1   3   23.88    0.98
  -1   1  -3  252.84    8.07
  -1   1  -3  248.36    8.60
  -1   1  -3  232.79    8.30
  -1   1  -3  248.49    8.07
  -1   1  -3  250.18    9.33
  -1   1  -3  244.93    8.80
  -1   1  -3  227.44    8.35
  -1   1  -3  249.58    8.80
   1  -1   3  248.15    8.80
   1  -1   3  265.04    9.35
   1  -1   3  244.80    8.07
   1  -1   3  234.55    8.60
   1  -1   3  255.60    8.07
   1  -1   3  247.26    8.36
   1  -1   3  241.70    8.31
   1  -1   3  250.33    8.80
   0   1  -3    1.89    0.18
   0   1  -3    2.01    0.19
   0   1  -3    1.94    0.20
   0   1  -3    1.74    0.20
   0   1  -3    1.38    0.21
   0   1  -3    1.87    0.18
   0   1  -3    1.68    0.20
   0  -1   3    2.11    0.23
   0  -1   3    2.05    0.23
   0  -1   3    1.84    0.18
   0  -1   3    1.81    0.18
   0  -1   3    1.74    0.23
   0  -1   3    1.74    0.22
   1   1  -3   30.34    1.08
   1   1  -3   29.21    1.15
   1   1  -3   31.36    1.11
   1   1  -3   29.12    1.11
   1   1  -3   31.59    1.26
   1   1  -3   31.58    1.18
   1   1  -3   31.94    1.18
  -1  -1   3   30.29    1.09
  -1  -1   3   32.55    1.18
  -1  -1   3   28.45    1.16
  -1  -1   3   30.99    1.27
  -1  -1   3   30.39    1.12
  -1  -1   3   30.51    1.11
   2   1  -3    0.06    0.11
   2   1  -3    0.01    0.13
   2   1  -3   -0.07    0.12
   2   1  -3   -0.02    0.14
  -2  -1   3   -0.07    0.17
  -2  -1   3   -0.17    0.12
  -2  -1   3   -0.07    0.12
   3   1  -3    1.00    0.17
   3   1  -3    1.52    0.18
   3   1  -3    1.49    0.18
   3   1  -3    1.25    0.19
   3   1  -3    1.55    0.20
  -3  -1   3    1.19    0.18
  -3  -1   3    1.91    0.29
  -3  -1   3    1.25    0.21
  -3  -1   3    1.25    0.19
  -3  -1   3    1.14    0.20
   4   1  -3    6.88    0.37
   4   1  -3    7.14    0.35
   4   1  -3    7.41    0.41
  -4  -1   3    6.31    0.36
  -4  -1   3    6.93    0.46
  -4  -1   3    6.79    0.43
  -4  -1   3    5.35    0.45
   5   1  -3    0.38    0.16
  -5  -1   3    0.69    0.25
  -5  -1   3    0.72    0.26
   6   1  -3    0.46    0.19
  -7   2  -3    5.99    0.42
  -6   2  -3    6.72    0.42
  -6   2  -3    6.50    0.41
   6  -2   3    6.78    0.40
  -5   2  -3   90.12    3.04
  -5   2  -3   88.30    3.17
  -5   2  -3   90.35    2.96
  -5   2  -3   86.10    3.42
   5  -2   3   88.71    3.05
   5  -2   3   85.88    3.06
  -4   2  -3    1.40    0.21
  -4   2  -3    0.95    0.18
  -4   2  -3    0.82    0.18
  -4   2  -3    0.91    0.14
  -4   2  -3    0.94    0.15
   4  -2   3    0.96    0.21
   4  -2   3    1.14    0.17
   4  -2   3    1.01    0.18
   4  -2   3    1.10    0.16
   4  -2   3    1.29    0.21
  -3   2  -3    2.35    0.22
  -3   2  -3    2.12    0.20
  -3   2  -3    2.19    0.29
  -3   2  -3    2.29    0.27
  -3   2  -3    2.38    0.30
   3  -2   3    1.97    0.29
   3  -2   3    2.41    0.36
   3  -2   3    1.90    0.24
   3  -2   3    2.05    0.32
   3  -2   3    2.02    0.32
   3  -2   3    2.29    0.26
   3  -2   3    1.94    0.27
  -2   2  -3   -0.07    0.13
  -2   2  -3    0.01    0.10
  -2   2  -3    0.00    0.10
  -2   2  -3   -0.10    0.09
  -2   2  -3   -0.09    0.10
  -2   2  -3    0.07    0.14
   2  -2   3   -0.10    0.17
   2  -2   3    0.17    0.13
   2  -2   3    0.30    0.13
   2  -2   3   -0.04    0.09
   2  -2   3    0.22    0.14
   2  -2   3   -0.01    0.14
   2  -2   3    0.07    0.13
  -1   2  -3    4.08    0.28
  -1   2  -3    4.15    0.28
  -1   2  -3    3.79    0.26
  -1   2  -3    3.98    0.30
  -1   2  -3    4.12    0.25
  -1   2  -3    4.35    0.25
   1  -2   3    3.30    0.28
   1  -2   3    4.29    0.34
   1  -2   3    3.88    0.34
   1  -2   3    3.44    0.27
   0   2  -3    0.60    0.15
   0   2  -3    0.16    0.12
   0   2  -3    0.33    0.12
   0   2  -3    0.35    0.11
   0   2  -3    0.74    0.17
   0  -2   3    0.24    0.15
   0  -2   3    0.38    0.14
   0  -2   3    0.36    0.16
   0  -2   3    0.46    0.13
   1   2  -3  101.19    3.40
   1   2  -3   99.75    3.60
   1   2  -3   91.60    3.51
   1   2  -3  101.46    3.83
   1   2  -3   98.71    3.31
   1   2  -3   98.18    3.41
   1   2  -3  101.89    3.61
  -1  -2   3   99.51    3.55
  -1  -2   3   98.27    3.32
  -1  -2   3  102.08    3.42
  -1  -2   3   98.41    3.61
  -1  -2   3   95.65    3.85
  -1  -2   3  101.90    3.42
   2   2  -3    9.46    0.45
   2   2  -3    9.41    0.49
   2   2  -3   10.30    0.48
   2   2  -3    8.70    0.46
   2   2  -3   10.54    0.47
   2   2  -3   10.05    0.43
   2   2  -3    9.81    0.46
  -2  -2   3    8.64    0.56
  -2  -2   3    8.26    0.52
  -2  -2   3    9.41    0.47
  -2  -2   3    9.27    0.45
  -2  -2   3    9.29    0.45
  -2  -2   3    9.24    0.43
   3   2  -3   10.02    0.47
   3   2  -3    9.41    0.46
   3   2  -3    9.69    0.43
   3   2  -3    9.86    0.46
  -3  -2   3   10.78    0.55
  -3  -2   3    9.30    0.45
  -3  -2   3    8.59    0.55
  -3  -2   3    9.58    0.48
   4   2  -3   19.66    0.86
   4   2  -3   21.04    0.83
  -4  -2   3   20.02    0.99
  -4  -2   3   23.50    0.97
   5   2  -3    8.81    0.46
   5   2  -3    8.67    0.46
  -5  -2   3    8.13    0.53
  -7   3  -3   13.31    0.66
   6  -3   3    0.30    0.20
  -5   3  -3    1.11    0.23
  -5   3  -3    1.20    0.22
  -5   3  -3    1.21    0.20
  -5   3  -3    0.74    0.23
   5  -3   3    2.16    0.40
   5  -3   3    1.17    0.21
  -4   3  -3   60.78    2.14
  -4   3  -3   59.88    2.08
  -4   3  -3   61.52    2.25
  -4   3  -3   57.61    2.41
  -4   3  -3   61.31    2.15
  -4   3  -3   63.73    2.27
   4  -3   3   62.00    2.16
   4  -3   3   58.09    2.29
   4  -3   3   60.96    2.16
  -3   3  -3    4.85    0.41
  -3   3  -3    6.18    0.38
  -3   3  -3    5.87    0.40
  -3   3  -3    5.79    0.36
  -3   3  -3    5.74    0.35
  -3   3  -3    5.64    0.38
   3  -3   3    5.97    0.41
   3  -3   3    6.43    0.39
   3  -3   3    7.08    0.57
   3  -3   3    5.99    0.36
   3  -3   3    6.23    0.37
  -2   3  -3    3.95    0.34
  -2   3  -3    3.99    0.27
  -2   3  -3    4.06    0.29
  -2   3  -3    4.83    0.35
  -2   3  -3    4.20    0.39
  -2   3  -3    4.26    0.34
   2  -3   3    3.93    0.40
   2  -3   3    4.62    0.42
   2  -3   3    4.18    0.43
   2  -3   3    3.13    0.34
   2  -3   3    4.25    0.32
   2  -3   3    3.84    0.31
  -1   3  -3    1.63    0.21
  -1   3  -3    2.10    0.28
  -1   3  -3    2.02    0.22
  -1   3  -3    2.26    0.21
  -1   3  -3    1.96    0.27
   1  -3   3    1.88    0.22
   1  -3   3    1.63    0.24
   1  -3   3    2.44    0.41
   1  -3   3    1.81    0.24
   1  -3   3    1.83    0.30
   1  -3   3    2.38    0.33
   0   3  -3   34.51    1.26
   0   3  -3   32.80    1.33
   0   3  -3   31.56    1.31
   0   3  -3   35.03    1.27
   0   3  -3   34.28    1.43
   0   3  -3   34.46    1.23
   0  -3   3   35.06    1.26
   0  -3   3   35.04    1.29
   0  -3   3   36.84    1.35
   0  -3   3   35.50    1.28
   0  -3   3   34.04    1.37
   0  -3   3   34.13    1.48
   1   3  -3    2.63    0.30
   1   3  -3    2.52    0.28
  -1  -3   3    3.00    0.40
  -1  -3   3    2.84    0.31
  -1  -3   3    2.40    0.30
  -1  -3   3    3.05    0.27
  -1  -3   3    2.84    0.41
  -1  -3   3    2.74    0.25
   2   3  -3    0.42    0.16
   2   3  -3    0.55    0.15
  -2  -3   3    0.69    0.16
  -2  -3   3    0.81    0.18
  -2  -3   3    0.52    0.15
  -2  -3   3    0.55    0.23
  -2  -3   3    0.52    0.21
   3   3  -3   15.67    0.67
   3   3  -3   15.42    0.64
   3   3  -3   15.53    0.69
   3   3  -3   16.06    0.68
  -3  -3   3   15.25    0.79
  -3  -3   3   17.19    0.78
  -3  -3   3   14.54    0.68
  -3  -3   3   16.18    0.67
   4   3  -3    2.14    0.33
   4   3  -3    2.76    0.36
  -4  -3   3    2.53    0.46
  -4  -3   3    2.24    0.40
   5   3  -3   65.31    2.48
   5   3  -3   67.90    2.35
  -8   4  -3    1.02    0.32
  -7   4  -3    1.06    0.28
  -6   4  -3    0.98    0.27
  -6   4  -3    0.87    0.23
  -6   4  -3    0.54    0.33
   6  -4   3    1.09    0.23
  -5   4  -3    9.53    0.54
  -5   4  -3    8.92    0.57
  -5   4  -3    8.02    0.45
  -5   4  -3    8.48    0.53
   5  -4   3    8.30    0.53
   5  -4   3    8.71    0.50
  -4   4  -3    0.34    0.15
  -4   4  -3    0.27    0.17
  -4   4  -3    0.61    0.24
  -4   4  -3    0.25    0.17
  -4   4  -3    0.19    0.19
  -4   4  -3    0.02    0.17
   4  -4   3    0.53    0.24
   4  -4   3    0.29    0.20
   4  -4   3    0.25    0.30
  -3   4  -3    0.08    0.14
  -3   4  -3    0.02    0.16
  -3   4  -3    0.14    0.16
  -3   4  -3   -0.01    0.16
  -3   4  -3   -0.01    0.19
  -3   4  -3    0.41    0.25
   3  -4   3    0.21    0.26
   3  -4   3    0.01    0.17
   3  -4   3    0.16    0.19
  -2   4  -3   25.77    1.14
  -2   4  -3   25.40    0.97
  -2   4  -3   25.32    1.01
  -2   4  -3   25.60    1.05
  -2   4  -3   26.61    1.01
  -2   4  -3   26.92    1.08
   2  -4   3   25.36    1.03
   2  -4   3   25.37    1.00
   2  -4   3   25.65    1.13
   2  -4   3   24.85    1.05
   2  -4   3   25.19    1.20
   2  -4   3   24.47    0.99
  -1   4  -3   43.85    1.69
  -1   4  -3   44.24    1.57
  -1   4  -3   44.12    1.70
  -1   4  -3   48.71    1.63
  -1   4  -3   44.24    1.62
  -1   4  -3   42.37    1.82
   1  -4   3   42.97    1.73
   1  -4   3   43.10    1.63
   1  -4   3   44.94    1.60
   1  -4   3   45.06    1.62
   1  -4   3   43.44    1.88
   1  -4   3   44.94    1.71
   0   4  -3    7.44    0.48
   0   4  -3    6.98    0.46
   0   4  -3    6.85    0.43
   0   4  -3    6.95    0.41
   0   4  -3    7.08    0.38
   0   4  -3    7.04    0.42
   0  -4   3    7.53    0.41
   0  -4   3    7.09    0.53
   0  -4   3    7.24    0.43
   0  -4   3    7.27    0.46
   0  -4   3    6.89    0.53
   0  -4   3    7.29    0.42
   1   4  -3    9.27    0.54
   1   4  -3    9.42    0.48
   1   4  -3    9.08    0.55
   1   4  -3    8.63    0.47
   1   4  -3    8.76    0.47
   1   4  -3    9.14    0.44
  -1  -4   3    9.89    0.49
  -1  -4   3    9.32    0.48
  -1  -4   3    9.37    0.60
  -1  -4   3    9.07    0.51
  -1  -4   3    9.29    0.47
  -1  -4   3    8.40    0.58
   2   4  -3    0.06    0.15
   2   4  -3    0.00    0.14
   2   4  -3    0.00    0.13
   2   4  -3   -0.09    0.18
  -2  -4   3   -0.21    0.17
  -2  -4   3   -0.07    0.17
  -2  -4   3    0.07    0.23
  -2  -4   3    0.27    0.27
   3   4  -3   28.40    1.06
   3   4  -3   27.54    1.14
   3   4  -3   28.79    1.09
   3   4  -3   27.94    1.08
  -3  -4   3   30.00    1.16
  -3  -4   3   27.27    1.08
  -3  -4   3   27.27    1.29
  -3  -4   3   29.05    1.23
   4   4  -3   12.45    0.59
   4   4  -3   12.00    0.61
  -4  -4   3   13.16    0.72
   5   4  -3    2.25    0.32
  -8   5  -3   10.02    0.67
  -7   5  -3    1.04    0.29
  -6   5  -3    6.91    0.51
  -6   5  -3    6.24    0.44
  -6   5  -3    5.33    0.52
  -5   5  -3    0.75    0.32
  -5   5  -3    0.32    0.35
  -5   5  -3    0.47    0.25
   5  -5   3   -0.22    0.25
  -4   5  -3    0.31    0.19
  -4   5  -3    0.39    0.24
  -4   5  -3    0.57    0.22
  -4   5  -3    0.51    0.21
  -4   5  -3    0.65    0.24
   4  -5   3    0.49    0.24
   4  -5   3    0.46    0.21
  -3   5  -3   -0.03    0.23
  -3   5  -3    0.65    0.21
  -3   5  -3    0.38    0.22
  -3   5  -3    0.38    0.16
  -3   5  -3    0.31    0.18
  -3   5  -3    0.34    0.20
   3  -5   3    0.05    0.25
   3  -5   3    0.93    0.25
   3  -5   3    0.41    0.28
  -2   5  -3   17.72    0.77
  -2   5  -3   16.30    0.74
  -2   5  -3   17.11    0.72
  -2   5  -3   16.39    0.83
  -2   5  -3   16.89    0.75
  -2   5  -3   17.52    0.81
   2  -5   3   17.24    0.76
   2  -5   3   15.76    0.77
   2  -5   3   16.63    0.89
  -1   5  -3   14.07    0.67
  -1   5  -3   14.87    0.67
  -1   5  -3   14.52    0.63
  -1   5  -3   14.69    0.72
  -1   5  -3   13.37    0.74
  -1   5  -3   13.67    0.67
   1  -5   3   14.52    0.67
   1  -5   3   14.15    0.71
   1  -5   3   15.88    0.82
   0   5  -3   22.09    1.05
   0   5  -3   21.97    0.92
   0   5  -3   22.33    0.88
   0   5  -3   24.12    0.94
   0   5  -3   22.53    0.98
   0   5  -3   22.57    0.96
   0  -5   3   20.23    1.08
   0  -5   3   23.05    0.97
   0  -5   3   22.85    0.95
   0  -5   3   21.95    0.93
   0  -5   3   21.55    1.05
   0  -5   3   22.67    0.97
   1   5  -3    6.88    0.41
   1   5  -3    7.87    0.45
   1   5  -3    8.13    0.49
   1   5  -3    6.54    0.46
  -1  -5   3    6.92    0.62
  -1  -5   3    6.12    0.57
  -1  -5   3    6.64    0.43
  -1  -5   3    7.18    0.44
  -1  -5   3    6.86    0.46
  -1  -5   3    6.74    0.48
   2   5  -3    8.68    0.46
   2   5  -3    8.36    0.50
   2   5  -3    8.30    0.49
   2   5  -3    7.63    0.49
  -2  -5   3    8.20    0.64
  -2  -5   3    7.85    0.48
  -2  -5   3    7.09    0.63
   3   5  -3   36.94    1.37
   3   5  -3   34.11    1.42
  -3  -5   3   36.39    1.49
   4   5  -3    0.16    0.21
  -4  -5   3    0.02    0.30
   5   5  -3    5.91    0.44
  -8   6  -3   13.06    0.79
  -7   6  -3   13.03    0.77
  -6   6  -3    0.79    0.29
  -6   6  -3    0.97    0.31
  -5   6  -3   25.62    1.17
  -5   6  -3   27.34    1.13
  -4   6  -3    9.83    0.56
  -4   6  -3   10.31    0.61
  -4   6  -3    9.95    0.67
  -4   6  -3   12.38    0.71
  -4   6  -3   11.16    0.73
   4  -6   3   10.56    0.60
   4  -6   3    9.74    0.65
  -3   6  -3    2.83    0.41
  -3   6  -3    3.05    0.38
  -3   6  -3    3.64    0.43
  -3   6  -3    2.52    0.34
   3  -6   3    3.65    0.60
  -2   6  -3    8.96    0.50
  -2   6  -3    8.99    0.54
  -2   6  -3    9.08    0.55
  -2   6  -3    9.76    0.56
  -2   6  -3    8.53    0.62
  -2   6  -3   10.19    0.69
   2  -6   3    8.42    0.56
  -1   6  -3   19.99    0.86
  -1   6  -3   21.63    0.97
  -1   6  -3   20.31    0.89
  -1   6  -3   19.38    1.04
  -1   6  -3   19.05    0.89
  -1   6  -3   19.57    0.92
   1  -6   3   20.75    0.91
   1  -6   3   23.31    0.97
   1  -6   3   23.08    1.20
   0   6  -3   12.32    0.63
   0   6  -3   12.16    0.64
   0   6  -3   14.44    0.80
   0   6  -3   10.94    0.62
   0   6  -3   11.69    0.60
   0  -6   3   11.14    0.70
   0  -6   3   12.44    0.76
   0  -6   3   11.44    0.78
   1   6  -3    0.57    0.23
   1   6  -3    0.35    0.28
   1   6  -3    0.61    0.24
   1   6  -3    0.82    0.27
  -1  -6   3    0.24    0.35
  -1  -6   3    1.01    0.28
   2   6  -3    0.35    0.24
   2   6  -3    0.28    0.20
   2   6  -3    0.14    0.24
  -2  -6   3    0.24    0.32
  -2  -6   3    0.16    0.23
   3   6  -3   19.80    0.86
  -3  -6   3   19.47    0.99
   4   6  -3   34.76    1.36
  -4  -6   3   35.35    1.51
   5   6  -3    0.20    0.25
  -7   7  -3    0.02    0.31
  -7   7  -3    0.11    0.35
  -6   7  -3    2.54    0.39
  -6   7  -3    3.27    0.50
  -5   7  -3    1.21    0.32
  -5   7  -3    1.23    0.33
  -4   7  -3   26.78    1.21
  -4   7  -3   25.80    1.10
  -4   7  -3   26.79    1.13
  -3   7  -3   13.76    0.76
  -3   7  -3   14.03    0.74
  -3   7  -3   14.07    0.79
   3  -7   3   14.22    0.76
   3  -7   3   13.84    0.71
   3  -7   3   14.10    0.89
  -2   7  -3    9.43    0.65
  -2   7  -3    9.79    0.60
  -2   7  -3    9.74    0.62
   2  -7   3    9.68    0.76
   2  -7   3   10.00    0.67
   2  -7   3    9.02    0.57
  -1   7  -3   16.14    0.79
  -1   7  -3   15.80    0.86
  -1   7  -3   15.05    0.78
   1  -7   3   15.87    0.94
   1  -7   3   18.03    0.85
   1  -7   3   15.53    0.77
   0   7  -3    2.59    0.42
   0   7  -3    2.76    0.43
   0  -7   3    2.95    0.44
   0  -7   3    2.55    0.44
   1   7  -3    0.94    0.28
   1   7  -3    0.70    0.25
  -1  -7   3    1.10    0.28
  -1  -7   3    0.89    0.37
   2   7  -3   16.91    0.80
   2   7  -3   17.97    0.82
  -2  -7   3   17.33    0.85
  -2  -7   3   17.99    1.03
   3   7  -3    0.05    0.27
  -3  -7   3    0.08    0.39
   4   7  -3    0.07    0.25
  -4  -7   3   -0.28    0.44
  -6   8  -3    5.39    0.60
  -6   8  -3    4.90    0.59
  -5   8  -3   10.85    0.76
  -5   8  -3   11.83    0.77
  -4   8  -3    0.40    0.38
  -4   8  -3    0.11    0.37
  -3   8  -3    7.14    0.54
  -3   8  -3    6.57    0.61
  -3   8  -3    6.97    0.53
  -2   8  -3   18.76    0.91
  -2   8  -3   18.48    0.96
  -2   8  -3   19.36    0.90
   2  -8   3   19.37    1.12
   2  -8   3   19.24    0.94
  -1   8  -3    9.02    0.61
  -1   8  -3    9.26    0.60
   1  -8   3    9.59    0.66
   1  -8   3   10.29    0.84
   0   8  -3    3.90    0.45
   0   8  -3    3.57    0.45
   0  -8   3    3.79    0.64
   0  -8   3    3.78    0.53
   1   8  -3    4.29    0.57
  -1  -8   3    5.66    0.68
  -1  -8   3    5.23    0.55
   2   8  -3    0.23    0.33
  -2  -8   3    0.36    0.39
   3   8  -3    0.12    0.27
  -3  -8   3   -0.37    0.39
  -5   9  -3    5.18    0.61
  -5   9  -3    5.40    0.71
  -4   9  -3    9.96    0.74
  -4   9  -3    9.05    0.72
  -4   9  -3    9.63    0.69
  -3   9  -3    0.57    0.35
  -3   9  -3    0.55    0.35
  -3   9  -3    0.66    0.35
  -2   9  -3    7.33    0.60
  -2   9  -3    6.90    0.58
  -1   9  -3    0.98    0.37
  -1   9  -3    0.99    0.33
   1  -9   3    0.97    0.45
   0   9  -3    9.77    0.65
   0   9  -3    8.97    0.64
   0  -9   3    9.71    0.69
   0  -9   3    9.53    0.81
   1   9  -3    0.96    0.34
   1   9  -3    0.66    0.32
  -1  -9   3    1.33    0.36
  -1  -9   3    0.22    0.48
   3  10   4    5.38    0.53
   2  10   4    2.17    0.38
   1  10   4    0.04    0.31
   1  10   4    0.93    0.30
   0  10   4    0.63    0.33
   0  10   4    0.87    0.31
  -1  10   4    9.06    0.63
  -1  10   4    8.56    0.62
  -2  10   4    2.57    0.44
  -2  10   4    2.56    0.45
  -2  10   4    1.51    0.40
   5   9   4    2.89    0.41
   4   9   4   23.24    1.02
   3   9   4    4.32    0.48
   2   9   4    2.64    0.46
   1   9   4    0.25    0.30
   1   9   4    0.69    0.28
   0   9   4    3.12    0.46
   0   9   4    3.38    0.47
  -1   9   4   13.34    0.76
  -1   9   4   13.76    0.74
  -1   9   4   13.93    0.83
  -2   9   4    0.34    0.34
  -2   9   4    1.31    0.37
  -2   9   4    0.52    0.30
  -3   9   4    4.85    0.51
  -3   9   4    4.43    0.53
  -3   9   4    4.84    0.54
  -4   9   4   -0.16    0.32
  -4   9   4    0.28    0.31
   5   8   4    0.35    0.28
   4   8   4    5.17    0.45
   3   8   4   17.39    0.83
   2   8   4    0.48    0.28
   2   8   4    1.11    0.25
   1   8   4    0.54    0.25
   1   8   4    0.01    0.27
   0   8   4   13.25    0.70
   0   8   4   12.60    0.71
  -1   8   4    2.45    0.42
  -1   8   4    2.13    0.39
  -2   8   4    0.53    0.28
  -2   8   4    0.50    0.26
  -2   8   4    0.48    0.28
  -4   8   4    0.18    0.30
  -4   8   4    0.30    0.30
  -5   8   4    0.82    0.31
  -5   8   4    0.35    0.35
   5   7   4    9.52    0.52
   4   7   4   16.38    0.76
   4   7   4   16.54    0.74
   3   7   4   13.06    0.59
   3   7   4   10.39    0.68
   3   7   4   12.99    0.64
   3   7   4   13.93    0.65
   2   7   4    0.36    0.18
   0   7   4   -0.11    0.24
   0   7   4    0.53    0.24
   0   7   4    0.57    0.28
   0   7   4    0.24    0.26
  -1   7   4  101.22    3.90
  -1   7   4  106.34    3.72
  -1   7   4  102.63    3.70
  -1   7   4  107.35    3.82
  -2   7   4    6.11    0.53
  -2   7   4    4.67    0.54
  -2   7   4    6.91    0.53
  -3   7   4    6.80    0.54
  -3   7   4    6.30    0.52
  -3   7   4    6.80    0.55
  -4   7   4    2.64    0.40
  -4   7   4    3.74    0.54
  -5   7   4    4.42    0.49
  -5   7   4    4.84    0.52
   5   6   4    4.35    0.39
   4   6   4    5.68    0.43
   4   6   4    7.51    0.48
   3   6   4    6.09    0.36
   3   6   4    6.23    0.39
   3   6   4    6.82    0.43
   3   6   4    5.88    0.43
   2   6   4    5.70    0.40
   2   6   4    5.12    0.34
   2   6   4    5.47    0.45
   2   6   4    4.51    0.44
   1   6   4    3.30    0.40
   1   6   4    3.53    0.35
   1   6   4    4.08    0.35
   1   6   4    3.18    0.36
   1   6   4    3.64    0.39
   0   6   4    0.70    0.23
   0   6   4    0.61    0.21
   0   6   4    1.14    0.26
   0   6   4    0.57    0.24
   0   6   4    0.55    0.24
   0   6   4    0.71    0.22
  -1   6   4    0.47    0.26
  -1   6   4    1.00    0.26
  -1   6   4    0.59    0.23
  -1   6   4    0.58    0.21
  -1   6   4    0.94    0.27
  -1   6   4    0.52    0.18
   2  -6  -4   19.69    1.06
  -2   6   4   21.63    0.95
  -2   6   4   19.77    0.99
  -2   6   4   23.09    0.93
  -2   6   4   22.66    0.94
  -2   6   4   18.02    1.00
  -3   6   4    8.60    0.59
  -3   6   4    9.33    0.58
  -3   6   4    8.74    0.55
  -3   6   4    7.48    0.60
  -4   6   4    6.26    0.51
  -4   6   4    6.32    0.51
  -5   6   4   12.56    0.74
  -5   6   4   13.00    0.73
  -6   6   4    3.82    0.48
   5   5   4    1.56    0.24
  -4  -5  -4    5.42    0.42
   4   5   4    5.50    0.33
   4   5   4    5.29    0.39
  -3  -5  -4   36.29    1.55
  -3  -5  -4   37.20    1.33
   3   5   4   38.36    1.38
   3   5   4   36.43    1.43
   3   5   4   38.02    1.32
   3   5   4   36.82    1.36
  -2  -5  -4   54.73    1.96
  -2  -5  -4   57.01    2.11
   2   5   4   54.24    1.93
   2   5   4   57.54    2.00
   2   5   4   55.47    2.10
   2   5   4   55.87    2.00
  -1  -5  -4   45.33    1.80
   1   5   4   47.11    1.92
   1   5   4   47.77    1.71
   1   5   4   48.07    1.81
   1   5   4   46.68    1.76
   1   5   4   47.81    1.72
   1   5   4   45.79    1.65
   0  -5  -4    1.67    0.28
   0   5   4    2.22    0.34
   0   5   4    2.36    0.26
   0   5   4    2.35    0.25
   0   5   4    2.31    0.29
   0   5   4    2.24    0.35
   0   5   4    2.34    0.34
   1  -5  -4    0.93    0.30
   1  -5  -4    1.63    0.26
   1  -5  -4    1.15    0.21
  -1   5   4    0.97    0.19
  -1   5   4    0.94    0.23
  -1   5   4    1.18    0.24
  -1   5   4    0.78    0.23
  -1   5   4    0.98    0.20
   2  -5  -4    5.98    0.42
   2  -5  -4    7.11    0.56
   2  -5  -4    6.71    0.43
  -2   5   4    5.90    0.49
  -2   5   4    5.38    0.49
  -2   5   4    5.83    0.44
  -2   5   4    5.50    0.39
  -2   5   4    4.96    0.41
  -2   5   4    4.74    0.46
  -3   5   4    0.98    0.29
  -3   5   4    0.25    0.33
   4  -5  -4    3.40    0.38
  -4   5   4    3.20    0.41
  -4   5   4    3.74    0.43
  -5   5   4    3.21    0.44
  -5   5   4    3.26    0.41
  -6   5   4    0.59    0.32
   5   4   4   -0.16    0.13
   5   4   4   -0.06    0.11
  -4  -4  -4    0.87    0.13
  -4  -4  -4    0.63    0.17
   4   4   4    0.85    0.14
   4   4   4    1.08    0.17
   4   4   4    0.76    0.13
   4   4   4    0.90    0.16
  -3  -4  -4   27.23    1.18
  -3  -4  -4   27.98    1.08
  -3  -4  -4   28.05    1.01
   3   4   4   27.42    1.09
   3   4   4   27.44    1.03
   3   4   4   28.60    1.05
   3   4   4   28.51    1.00
  -2  -4  -4   17.45    0.70
  -2  -4  -4   17.53    0.73
  -2  -4  -4   17.61    0.82
   2   4   4   17.21    0.74
   2   4   4   18.26    0.81
   2   4   4   18.19    0.75
   2   4   4   17.37    0.73
   2   4   4   17.35    0.68
   2   4   4   17.05    0.72
  -1  -4  -4    0.38    0.18
  -1  -4  -4   -0.02    0.16
   1   4   4    0.36    0.18
   1   4   4    0.55    0.21
   0  -4  -4    1.22    0.24
   0  -4  -4    1.03    0.20
   0  -4  -4    0.39    0.25
   0   4   4    0.81    0.18
   0   4   4    0.49    0.20
   0   4   4    0.76    0.21
   0   4   4    0.80    0.21
   0   4   4    0.82    0.20
   1  -4  -4   15.80    0.70
   1  -4  -4   15.45    0.67
   1  -4  -4   15.35    0.80
  -1   4   4   15.33    0.71
  -1   4   4   15.17    0.72
  -1   4   4   15.26    0.68
  -1   4   4   16.19    0.70
  -1   4   4   15.30    0.65
  -1   4   4   15.50    0.79
   2  -4  -4   20.67    0.83
   2  -4  -4   20.39    0.87
   2  -4  -4   21.55    1.01
  -2   4   4   20.41    0.88
  -2   4   4   20.05    0.81
  -2   4   4   18.64    0.86
  -2   4   4   19.82    0.87
  -2   4   4   20.49    0.85
  -2   4   4   20.04    0.95
   3  -4  -4    3.45    0.33
   3  -4  -4    2.60    0.30
  -3   4   4    2.65    0.29
  -3   4   4    2.63    0.37
  -3   4   4    2.79    0.32
  -3   4   4    3.10    0.40
  -3   4   4    2.61    0.40
  -3   4   4    2.62    0.37
   4  -4  -4    1.29    0.24
  -4   4   4    1.64    0.28
  -4   4   4    1.72    0.32
  -4   4   4    1.89    0.31
   5  -4  -4    0.14    0.19
  -5   4   4    0.25    0.20
  -5   4   4    0.18    0.23
  -5   4   4   -0.04    0.26
  -6   4   4    0.11    0.28
  -7   4   4    1.56    0.37
   5   3   4   70.17    2.48
   5   3   4   66.85    2.36
  -4  -3  -4   12.80    0.52
  -4  -3  -4   13.53    0.61
  -4  -3  -4   13.02    0.50
  -4  -3  -4   13.03    0.54
   4   3   4   13.26    0.50
   4   3   4   12.61    0.54
   4   3   4   12.36    0.52
   4   3   4   12.41    0.53
  -3  -3  -4   16.46    0.74
  -3  -3  -4   15.45    0.63
  -3  -3  -4   18.55    0.67
  -3  -3  -4   17.42    0.63
   3   3   4   16.44    0.71
   3   3   4   16.09    0.66
   3   3   4   15.65    0.63
   3   3   4   14.12    0.65
   3   3   4   15.48    0.67
  -2  -3  -4   23.72    0.90
  -2  -3  -4   24.80    1.04
  -2  -3  -4   24.52    0.97
  -2  -3  -4   23.92    0.92
   2   3   4   24.83    0.90
   2   3   4   25.43    1.04
   2   3   4   24.64    0.94
   2   3   4   24.14    0.96
   2   3   4   24.94    0.94
   2   3   4   24.90    0.97
  -1  -3  -4    1.11    0.20
  -1  -3  -4    0.81    0.16
  -1  -3  -4    0.96    0.19
   1   3   4    1.41    0.24
   1   3   4    1.67    0.28
   1   3   4    1.56    0.23
   0  -3  -4   60.83    2.42
   0  -3  -4   60.78    2.27
   0  -3  -4   62.07    2.11
   0   3   4   64.00    2.29
   0   3   4   60.93    2.09
   0   3   4   62.86    2.22
   0   3   4   59.39    2.16
   0   3   4   58.52    2.41
   0   3   4   58.75    2.15
   1  -3  -4   10.37    0.62
   1  -3  -4   10.37    0.51
   1  -3  -4   10.16    0.48
  -1   3   4    9.53    0.54
  -1   3   4   10.12    0.55
  -1   3   4    9.62    0.49
  -1   3   4    9.86    0.56
  -1   3   4   10.51    0.57
  -1   3   4    9.30    0.53
   2  -3  -4   44.44    1.69
   2  -3  -4   44.68    1.57
   2  -3  -4   43.87    1.82
  -2   3   4   44.17    1.67
  -2   3   4   43.20    1.56
  -2   3   4   44.08    1.69
  -2   3   4   42.06    1.60
  -2   3   4   46.76    1.61
  -2   3   4   42.04    1.80
   3  -3  -4    0.21    0.20
   3  -3  -4    0.34    0.20
  -3   3   4    0.17    0.20
  -3   3   4    0.32    0.23
  -3   3   4    0.23    0.21
  -3   3   4    0.27    0.19
  -3   3   4    0.62    0.22
   4  -3  -4   15.06    0.69
  -4   3   4   16.64    0.77
  -4   3   4   13.21    0.71
   5  -3  -4    0.04    0.23
  -5   3   4    0.25    0.24
  -5   3   4    0.30    0.22
   6  -3  -4    0.82    0.27
  -6   3   4    0.10    0.27
   7  -3  -4   26.28    1.10
  -7   3   4   26.49    1.18
  -5  -2  -4   83.00    2.93
  -5  -2  -4   80.63    3.16
   5   2   4   84.42    2.98
  -4  -2  -4   32.27    1.19
  -4  -2  -4   32.72    1.26
  -4  -2  -4   32.55    1.14
  -4  -2  -4   37.47    1.16
  -4  -2  -4   32.95    1.24
  -4  -2  -4   31.59    1.32
   4   2   4   31.64    1.24
   4   2   4   35.10    1.15
   4   2   4   33.63    1.17
   4   2   4   31.50    1.18
   4   2   4   32.61    1.18
   4   2   4   34.00    1.24
  -3  -2  -4  264.00    9.08
  -3  -2  -4  270.80   10.14
  -3  -2  -4  266.60    9.36
  -3  -2  -4  266.06    9.57
  -3  -2  -4  260.83    9.03
  -3  -2  -4  262.78    8.77
  -3  -2  -4  272.43   10.14
  -3  -2  -4  266.17    8.77
   3   2   4  272.31    9.57
   3   2   4  276.47    8.79
   3   2   4  261.62    9.10
   3   2   4  275.01    9.58
   3   2   4  267.98   10.14
   3   2   4  274.10    8.78
   3   2   4  265.97    9.03
  -2  -2  -4  132.43    4.71
  -2  -2  -4  123.01    4.32
  -2  -2  -4  128.31    4.45
  -2  -2  -4  127.37    4.47
  -2  -2  -4  125.01    4.62
  -2  -2  -4  124.63    4.99
  -2  -2  -4  135.13    5.00
   2   2   4  131.32    4.45
   2   2   4  134.20    4.72
   2   2   4  130.08    4.60
   2   2   4  135.96    4.72
   2   2   4  132.02    4.48
   2   2   4  135.21    4.33
   2   2   4  136.95    5.00
  -1  -2  -4    0.40    0.14
  -1  -2  -4    0.33    0.11
  -1  -2  -4    0.35    0.14
  -1  -2  -4    0.25    0.11
  -1  -2  -4    0.70    0.14
   1   2   4    0.43    0.12
   1   2   4    0.12    0.11
   1   2   4    0.18    0.12
   1   2   4    0.26    0.13
   1   2   4    0.42    0.14
   1   2   4    0.02    0.13
   0  -2  -4    0.62    0.16
   0  -2  -4    0.49    0.16
   0  -2  -4    0.35    0.13
   0  -2  -4    0.41    0.15
   0  -2  -4    0.47    0.14
   0  -2  -4    0.53    0.15
   0   2   4    0.64    0.16
   0   2   4    0.74    0.15
   0   2   4    0.59    0.14
   0   2   4    0.61    0.14
   0   2   4    0.68    0.19
   1  -2  -4    0.45    0.18
  -1   2   4    0.77    0.19
  -1   2   4    0.89    0.20
   2  -2  -4   23.93    1.05
   2  -2  -4   24.26    0.91
   2  -2  -4   24.31    0.95
   2  -2  -4   22.98    1.08
   2  -2  -4   23.47    0.97
   2  -2  -4   23.86    0.93
  -2   2   4   22.90    0.98
  -2   2   4   24.61    0.93
  -2   2   4   24.02    0.94
  -2   2   4   23.39    0.90
  -2   2   4   23.63    0.97
  -2   2   4   24.42    1.07
   3  -2  -4    7.64    0.40
   3  -2  -4    8.56    0.49
   3  -2  -4    8.99    0.47
   3  -2  -4    7.52    0.42
  -3   2   4    8.10    0.49
  -3   2   4    7.31    0.47
  -3   2   4    7.72    0.44
  -3   2   4    7.07    0.41
  -3   2   4    7.63    0.44
  -3   2   4    6.67    0.50
   4  -2  -4    2.39    0.36
  -4   2   4    2.54    0.39
   5  -2  -4   25.69    1.03
  -5   2   4   25.52    1.10
   6  -2  -4    0.82    0.25
  -6   2   4   -0.01    0.30
   7  -2  -4    0.51    0.26
  -5  -1  -4   19.20    0.74
  -5  -1  -4   17.50    0.76
  -5  -1  -4   18.14    0.65
   5   1   4   18.37    0.71
   5   1   4   17.45    0.66
   5   1   4   18.11    0.68
  -4  -1  -4    6.11    0.30
  -4  -1  -4    5.75    0.34
  -4  -1  -4    6.01    0.28
  -4  -1  -4    5.76    0.33
  -4  -1  -4    6.13    0.30
  -4  -1  -4    4.96    0.35
   4   1   4    5.64    0.30
   4   1   4    5.33    0.33
   4   1   4    6.28    0.29
   4   1   4    6.98    0.37
   4   1   4    5.79    0.30
   4   1   4    6.12    0.31
  -3  -1  -4   66.26    2.38
  -3  -1  -4   65.46    2.53
  -3  -1  -4   64.62    2.25
  -3  -1  -4   60.46    2.24
  -3  -1  -4   64.02    2.18
  -3  -1  -4   64.63    2.19
  -3  -1  -4   63.09    2.34
  -3  -1  -4   66.83    2.53
   3   1   4   66.79    2.19
   3   1   4   63.50    2.26
   3   1   4   64.99    2.38
   3   1   4   64.58    2.25
   3   1   4   66.67    2.19
   3   1   4   68.18    2.38
   3   1   4   67.43    2.55
  -2  -1  -4  192.55    6.89
  -2  -1  -4  178.89    6.16
  -2  -1  -4  181.13    6.89
  -2  -1  -4  178.83    6.14
  -2  -1  -4  178.14    6.36
  -2  -1  -4  185.74    5.97
  -2  -1  -4  188.47    6.50
   2   1   4  174.95    6.14
   2   1   4  179.98    6.50
   2   1   4  187.52    6.90
   2   1   4  176.09    6.18
   2   1   4  173.97    6.35
   2   1   4  178.28    6.50
   2   1   4  183.86    5.97
  -1  -1  -4  123.98    4.83
  -1  -1  -4  125.62    4.30
  -1  -1  -4  126.49    4.55
  -1  -1  -4  121.31    4.46
  -1  -1  -4  125.29    4.18
  -1  -1  -4  121.99    4.31
   1   1   4  128.88    4.30
   1   1   4  122.01    4.55
   1   1   4  131.71    4.83
   1   1   4  127.09    4.18
   1   1   4  123.15    4.45
   1   1   4  135.72    4.56
   1   1   4  125.69    4.32
   0  -1  -4    4.55    0.27
   0  -1  -4    4.41    0.31
   0  -1  -4    4.39    0.33
   0  -1  -4    5.05    0.36
   0  -1  -4    4.58    0.29
   0  -1  -4    4.50    0.31
   0   1   4    4.17    0.31
   0   1   4    4.45    0.32
   0   1   4    4.67    0.29
   0   1   4    4.78    0.32
   0   1   4    5.32    0.29
   1  -1  -4    3.44    0.27
   1  -1  -4    3.47    0.26
   1  -1  -4    2.85    0.37
   1  -1  -4    2.96    0.35
   1  -1  -4    4.32    0.33
  -1   1   4    3.84    0.36
  -1   1   4    3.40    0.31
  -1   1   4    3.38    0.29
  -1   1   4    3.96    0.29
  -1   1   4    4.10    0.29
   2  -1  -4   28.17    1.05
   2  -1  -4   28.56    1.08
   2  -1  -4   29.64    1.22
   2  -1  -4   28.36    1.13
   2  -1  -4   28.57    1.10
   2  -1  -4   28.61    1.16
  -2   1   4   28.24    1.13
  -2   1   4   29.77    1.08
  -2   1   4   28.86    1.24
  -2   1   4   25.55    1.13
  -2   1   4   28.83    1.09
  -2   1   4   29.33    1.06
   3  -1  -4    0.10    0.17
   3  -1  -4    0.38    0.17
   3  -1  -4    0.37    0.15
  -3   1   4   -0.04    0.14
  -3   1   4   -0.07    0.15
  -3   1   4   -0.11    0.14
  -3   1   4    0.13    0.17
  -3   1   4    0.22    0.23
  -3   1   4   -0.04    0.16
   4  -1  -4   16.59    0.73
   4  -1  -4   15.43    0.69
   4  -1  -4   16.27    0.75
   4  -1  -4   15.91    0.74
  -4   1   4   14.77    0.83
  -4   1   4   18.73    0.82
  -4   1   4   18.06    0.72
  -4   1   4   18.19    0.76
   5  -1  -4    1.21    0.25
   5  -1  -4    1.34    0.24
  -5   1   4    1.12    0.27
   6  -1  -4    5.12    0.40
  -6   1   4    4.19    0.48
   7  -1  -4    2.02    0.37
  -6   0  -4   25.41    0.98
   6   0   4   25.74    0.95
  -5   0  -4    4.90    0.25
  -5   0  -4    4.89    0.33
  -5   0  -4    4.98    0.38
  -5   0  -4    5.07    0.29
  -5   0  -4    4.65    0.27
   5   0   4    5.06    0.27
   5   0   4    5.06    0.28
   5   0   4    4.83    0.30
   5   0   4    5.24    0.29
   5   0   4    5.04    0.31
  -4   0  -4    9.81    0.46
  -4   0  -4    9.74    0.46
  -4   0  -4   11.02    0.42
  -4   0  -4    9.76    0.47
  -4   0  -4    9.67    0.43
  -4   0  -4   10.03    0.44
  -4   0  -4    9.42    0.41
   4   0   4    9.36    0.42
   4   0   4    9.60    0.44
   4   0   4    9.78    0.42
   4   0   4   10.07    0.45
   4   0   4    9.66    0.55
   4   0   4    9.92    0.44
  -3   0  -4   47.21    1.53
  -3   0  -4   45.03    1.60
  -3   0  -4   44.99    1.48
  -3   0  -4   40.54    1.51
  -3   0  -4   42.64    1.58
  -3   0  -4   43.92    1.72
  -3   0  -4   43.45    1.71
   3   0   4   40.16    1.59
   3   0   4   42.56    1.60
   3   0   4   44.40    1.60
   3   0   4   40.91    1.48
   3   0   4   42.08    1.53
   3   0   4   41.87    1.53
   3   0   4   41.55    1.74
  -2   0  -4   92.86    3.22
  -2   0  -4   88.42    3.43
  -2   0  -4   89.43    2.96
  -2   0  -4   85.57    3.16
  -2   0  -4   83.92    3.05
  -2   0  -4   85.81    3.04
   2   0   4   87.69    3.16
   2   0   4   88.90    2.97
   2   0   4   87.85    3.23
   2   0   4   94.47    3.23
   2   0   4   92.13    3.44
   2   0   4   88.87    3.05
   2   0   4   87.42    3.06
  -1   0  -4    0.75    0.13
  -1   0  -4    0.87    0.12
  -1   0  -4    0.75    0.12
  -1   0  -4    0.77    0.12
  -1   0  -4    0.81    0.16
  -1   0  -4    1.01    0.20
   1   0   4    0.76    0.14
   1   0   4    0.72    0.14
   1   0   4    0.74    0.14
   1   0   4    0.83    0.18
   1   0   4    0.83    0.14
   1   0   4    0.59    0.15
   0   0  -4   11.23    0.51
   0   0  -4   10.97    0.50
   0   0  -4   10.18    0.52
   0   0  -4   10.44    0.47
   0   0  -4   11.38    0.50
   0   0  -4   10.49    0.54
   0   0   4   10.14    0.55
   0   0   4   10.42    0.51
   0   0   4   11.75    0.51
   0   0   4   10.80    0.51
   0   0   4   10.52    0.48
   0   0   4   12.69    0.54
   1   0  -4    0.09    0.11
   1   0  -4   -0.01    0.12
   1   0  -4   -0.16    0.13
  -1   0   4    0.19    0.16
  -1   0   4    0.06    0.14
   2   0  -4    0.11    0.14
   2   0  -4    0.05    0.12
   2   0  -4    0.40    0.19
   2   0  -4    0.05    0.15
   2   0  -4    0.27    0.14
  -2   0   4    0.08    0.14
  -2   0   4    0.07    0.14
  -2   0   4   -0.01    0.14
  -2   0   4   -0.14    0.13
  -2   0   4    0.10    0.17
   3   0  -4   22.52    0.87
   3   0  -4   22.82    0.89
   3   0  -4   22.14    0.92
   3   0  -4   23.71    0.90
  -3   0   4   23.10    0.87
  -3   0   4   21.87    1.02
  -3   0   4   22.90    0.96
  -3   0   4   22.88    0.90
  -3   0   4   21.83    0.93
   4   0  -4    7.72    0.47
   4   0  -4    7.19    0.44
   4   0  -4    6.91    0.43
   4   0  -4    6.71    0.41
  -4   0   4    6.97    0.50
  -4   0   4    8.61    0.60
   5   0  -4    0.09    0.19
   5   0  -4    0.02    0.15
  -5   0   4   -0.05    0.23
   6   0  -4    0.98    0.22
  -6   0   4    1.09    0.28
   7  -1   4    0.08    0.15
  -6   1  -4    0.27    0.15
  -6   1  -4    0.25    0.15
   6  -1   4    0.17    0.14
  -5   1  -4    6.00    0.40
  -5   1  -4    5.89    0.38
  -5   1  -4    5.19    0.29
  -5   1  -4    5.03    0.34
   5  -1   4    5.18    0.32
   5  -1   4    5.12    0.35
   5  -1   4    5.58    0.32
   5  -1   4    5.23    0.36
  -4   1  -4   62.26    2.23
  -4   1  -4   65.02    2.35
  -4   1  -4   60.70    2.22
  -4   1  -4   64.24    2.17
  -4   1  -4   64.27    2.32
  -4   1  -4   64.38    2.51
   4  -1   4   67.51    2.36
   4  -1   4   62.12    2.24
   4  -1   4   64.90    2.36
   4  -1   4   63.98    2.18
   4  -1   4   64.97    2.55
   4  -1   4   63.26    2.24
  -3   1  -4   52.67    1.97
  -3   1  -4   53.65    2.13
  -3   1  -4   53.88    1.88
  -3   1  -4   54.50    1.88
  -3   1  -4   55.42    1.99
  -3   1  -4   52.83    1.83
   3  -1   4   55.28    2.16
   3  -1   4   53.36    1.91
   3  -1   4   53.51    1.85
   3  -1   4   53.59    2.00
   3  -1   4   56.53    2.00
   3  -1   4   51.97    1.98
   3  -1   4   50.44    1.89
  -2   1  -4   97.85    3.54
  -2   1  -4   97.70    3.35
  -2   1  -4   96.18    3.76
  -2   1  -4   97.82    3.47
  -2   1  -4   95.23    3.34
  -2   1  -4   99.90    3.25
   2  -1   4   97.16    3.36
   2  -1   4  102.18    3.79
   2  -1   4  100.49    3.27
   2  -1   4   93.37    3.35
   2  -1   4   94.28    3.48
   2  -1   4   95.92    3.54
  -1   1  -4   95.89    3.56
  -1   1  -4  102.99    3.35
  -1   1  -4   97.80    3.43
  -1   1  -4  102.25    3.87
  -1   1  -4  102.00    3.45
  -1   1  -4  104.09    3.64
   1  -1   4  101.79    3.45
   1  -1   4   97.33    3.88
   1  -1   4  102.79    3.58
   1  -1   4  100.15    3.64
   1  -1   4   96.63    3.44
   1  -1   4   95.85    3.34
   0   1  -4    0.69    0.16
   0   1  -4    1.08    0.19
   0   1  -4    0.65    0.15
   0   1  -4    0.69    0.14
   0  -1   4    0.66    0.18
   0  -1   4    0.84    0.22
   1   1  -4   51.84    1.98
   1   1  -4   54.63    1.88
   1   1  -4   53.26    2.11
   1   1  -4   52.09    1.88
   1   1  -4   53.25    1.95
   1   1  -4   50.80    1.82
  -1  -1   4   53.49    1.83
  -1  -1   4   54.62    1.97
  -1  -1   4   51.74    1.88
  -1  -1   4   54.00    1.98
  -1  -1   4   52.57    1.88
  -1  -1   4   49.61    2.12
   2   1  -4   81.69    3.17
   2   1  -4   83.71    3.12
   2   1  -4   84.52    3.39
   2   1  -4   86.26    3.01
   2   1  -4   89.48    3.01
   2   1  -4   89.37    2.93
  -2  -1   4   89.64    3.02
  -2  -1   4   85.46    3.41
  -2  -1   4   88.64    2.94
  -2  -1   4   88.55    3.02
  -2  -1   4   85.21    3.18
  -2  -1   4   87.67    3.13
   3   1  -4   60.64    2.11
   3   1  -4   59.04    2.22
   3   1  -4   59.81    2.11
   3   1  -4   56.60    2.04
  -3  -1   4   60.00    2.06
  -3  -1   4   60.18    2.20
  -3  -1   4   57.67    2.39
  -3  -1   4   60.77    2.12
   4   1  -4   27.56    1.11
   4   1  -4   31.06    1.14
   4   1  -4   27.10    1.07
  -4  -1   4   26.44    1.08
  -4  -1   4   27.53    1.14
  -4  -1   4   25.08    1.22
   5   1  -4   31.58    1.29
   5   1  -4   33.04    1.23
  -5  -1   4   32.61    1.31
   6   1  -4   -0.31    0.24
  -7   2  -4    4.19    0.43
   7  -2   4    5.50    0.39
  -6   2  -4    3.31    0.38
   6  -2   4    3.90    0.35
  -5   2  -4   18.59    0.78
  -5   2  -4   18.03    0.82
  -5   2  -4   17.78    0.73
  -5   2  -4   17.31    0.69
   5  -2   4   16.96    0.76
   5  -2   4   17.49    0.76
   5  -2   4   18.49    0.75
  -4   2  -4    0.24    0.15
  -4   2  -4    0.04    0.12
  -4   2  -4    0.10    0.12
  -4   2  -4   -0.17    0.16
  -4   2  -4    0.23    0.16
  -4   2  -4    0.10    0.13
   4  -2   4    0.10    0.15
   4  -2   4    0.19    0.14
   4  -2   4    0.13    0.15
  -3   2  -4    0.27    0.15
  -3   2  -4   -0.05    0.14
  -3   2  -4    0.25    0.15
  -3   2  -4    0.55    0.15
  -3   2  -4    0.06    0.13
   3  -2   4    0.75    0.27
   3  -2   4    0.22    0.20
   3  -2   4    0.28    0.14
   3  -2   4    0.33    0.16
   3  -2   4    0.21    0.13
   3  -2   4    0.29    0.15
  -2   2  -4   17.78    0.75
  -2   2  -4   18.30    0.80
  -2   2  -4   18.36    0.74
  -2   2  -4   18.61    0.72
  -2   2  -4   18.66    0.84
  -2   2  -4   17.60    0.76
   2  -2   4   17.72    0.74
   2  -2   4   18.55    0.88
   2  -2   4   18.21    0.74
   2  -2   4   19.77    0.79
   2  -2   4   18.52    0.84
   2  -2   4   18.73    0.78
  -1   2  -4   12.92    0.66
  -1   2  -4   13.69    0.63
  -1   2  -4   13.06    0.59
  -1   2  -4   13.50    0.56
  -1   2  -4   13.09    0.58
  -1   2  -4   12.86    0.59
   1  -2   4   13.02    0.67
   1  -2   4   13.39    0.61
   1  -2   4   13.22    0.59
   1  -2   4   13.29    0.69
   1  -2   4   13.08    0.57
   0   2  -4   15.13    0.63
   0   2  -4   12.71    0.65
   0   2  -4   14.01    0.63
   0   2  -4   12.91    0.60
   0   2  -4   13.63    0.57
   0   2  -4   12.54    0.62
   0  -2   4   14.63    0.73
   0  -2   4   13.34    0.61
   0  -2   4   12.98    0.59
   0  -2   4   13.19    0.58
   0  -2   4   12.53    0.61
   0  -2   4   14.04    0.71
   1   2  -4    0.01    0.13
   1   2  -4    0.09    0.21
   1   2  -4    0.05    0.14
   1   2  -4    0.12    0.15
   1   2  -4   -0.07    0.21
   1   2  -4    0.09    0.13
  -1  -2   4    0.18    0.16
  -1  -2   4   -0.04    0.14
  -1  -2   4   -0.17    0.20
  -1  -2   4    0.18    0.14
  -1  -2   4    0.04    0.13
  -1  -2   4    0.00    0.20
   2   2  -4   41.54    1.50
   2   2  -4   41.48    1.49
   2   2  -4   42.18    1.58
   2   2  -4   40.52    1.45
  -2  -2   4   40.47    1.57
  -2  -2   4   42.69    1.52
  -2  -2   4   39.60    1.46
  -2  -2   4   39.06    1.71
  -2  -2   4   42.45    1.60
  -2  -2   4   40.10    1.49
   3   2  -4   15.78    0.72
   3   2  -4   17.19    0.72
   3   2  -4   15.51    0.73
   3   2  -4   16.35    0.68
  -3  -2   4   16.95    0.74
  -3  -2   4   17.32    0.82
  -3  -2   4   16.23    0.70
  -3  -2   4   19.33    0.90
   5   2  -4    2.36    0.32
  -5  -2   4    2.05    0.32
  -7   3  -4   24.70    1.06
   7  -3   4   24.86    1.00
  -6   3  -4    0.45    0.18
  -6   3  -4    0.36    0.22
  -6   3  -4    0.43    0.29
   6  -3   4    0.28    0.23
   6  -3   4    0.04    0.29
  -5   3  -4    5.65    0.43
  -5   3  -4    5.32    0.35
  -5   3  -4    5.71    0.42
   5  -3   4    6.38    0.43
   5  -3   4    6.34    0.46
  -4   3  -4   36.74    1.25
  -4   3  -4   29.05    1.31
  -4   3  -4   29.91    1.23
  -4   3  -4   35.27    1.19
   4  -3   4   28.13    1.22
   4  -3   4   29.42    1.16
   4  -3   4   31.31    1.21
   4  -3   4   28.41    1.29
   4  -3   4   27.86    1.18
  -3   3  -4    6.47    0.37
  -3   3  -4    6.69    0.41
  -3   3  -4    6.67    0.44
  -3   3  -4    7.40    0.42
  -3   3  -4    6.61    0.40
  -3   3  -4    6.13    0.49
   3  -3   4    6.62    0.54
   3  -3   4    6.78    0.40
   3  -3   4    6.82    0.45
   3  -3   4    6.92    0.43
   3  -3   4    6.52    0.39
   3  -3   4    6.57    0.53
  -2   3  -4    0.98    0.19
  -2   3  -4    1.13    0.22
  -2   3  -4    1.05    0.24
   2  -3   4    1.40    0.24
   2  -3   4    1.20    0.22
   2  -3   4    0.53    0.33
   2  -3   4    0.99    0.27
   2  -3   4    1.41    0.25
   2  -3   4    1.21    0.20
  -1   3  -4   19.81    0.77
  -1   3  -4   19.75    0.86
  -1   3  -4   19.31    0.81
  -1   3  -4   20.16    0.80
  -1   3  -4   19.50    0.82
  -1   3  -4   18.25    0.88
   1  -3   4   18.87    0.82
   1  -3   4   18.75    0.90
   1  -3   4   18.73    0.82
   1  -3   4   18.71    0.79
   1  -3   4   18.88    0.78
   1  -3   4   17.66    0.95
   0   3  -4    0.41    0.15
   0   3  -4    0.32    0.16
   0   3  -4    0.36    0.15
   0   3  -4    0.14    0.20
   0   3  -4    0.43    0.17
   0  -3   4    0.27    0.16
   0  -3   4    0.05    0.24
   0  -3   4    0.12    0.15
   0  -3   4    0.09    0.16
   0  -3   4    0.27    0.23
   0  -3   4    0.29    0.17
   1   3  -4    1.56    0.28
   1   3  -4    1.12    0.20
   1   3  -4    1.57    0.22
   1   3  -4    0.94    0.18
   1   3  -4    0.90    0.20
   1   3  -4    1.03    0.21
  -1  -3   4    1.12    0.27
  -1  -3   4    0.97    0.27
  -1  -3   4    0.98    0.19
  -1  -3   4    1.06    0.19
  -1  -3   4    0.90    0.18
  -1  -3   4    0.88    0.21
   2   3  -4    5.67    0.37
   2   3  -4    6.15    0.40
   2   3  -4    5.52    0.35
   2   3  -4    5.48    0.41
  -2  -3   4    5.70    0.44
  -2  -3   4    5.60    0.39
  -2  -3   4    5.61    0.53
  -2  -3   4    5.49    0.46
   3   3  -4   25.71    1.00
   3   3  -4   25.90    1.08
   3   3  -4   25.34    1.03
   3   3  -4   26.47    1.03
  -3  -3   4   26.53    1.14
  -3  -3   4   26.46    1.02
  -3  -3   4   25.64    1.06
   4   3  -4    0.41    0.18
   4   3  -4    0.31    0.21
  -4  -3   4    0.29    0.28
   5   3  -4   10.94    0.54
  -5  -3   4   11.01    0.69
  -8   4  -4    8.43    0.59
  -7   4  -4    9.75    0.59
   7  -4   4    9.56    0.54
  -6   4  -4    2.71    0.42
  -6   4  -4    2.15    0.39
  -6   4  -4    2.52    0.31
   6  -4   4    3.20    0.37
   6  -4   4    2.77    0.35
  -5   4  -4    0.22    0.23
  -5   4  -4    0.13    0.17
  -5   4  -4   -0.01    0.20
   5  -4   4    0.24    0.22
   5  -4   4    0.10    0.25
  -4   4  -4    1.98    0.32
  -4   4  -4    1.82    0.27
  -4   4  -4    1.53    0.29
  -4   4  -4    2.12    0.37
  -4   4  -4    2.97    0.43
  -4   4  -4    1.95    0.34
   4  -4   4    2.27    0.34
   4  -4   4    2.04    0.28
   4  -4   4    2.02    0.27
  -3   4  -4   44.46    1.60
  -3   4  -4   41.86    1.86
  -3   4  -4   44.25    1.64
  -3   4  -4   44.77    1.74
  -3   4  -4   45.34    1.65
  -3   4  -4   46.83    1.74
   3  -4   4   45.45    1.94
   3  -4   4   44.47    1.80
   3  -4   4   45.08    1.64
   3  -4   4   46.62    1.69
   3  -4   4   43.17    1.74
   3  -4   4   44.64    1.65
  -2   4  -4    0.72    0.24
  -2   4  -4    0.80    0.20
  -2   4  -4    0.66    0.20
  -2   4  -4    0.74    0.24
  -2   4  -4    0.56    0.17
  -2   4  -4    0.58    0.20
   2  -4   4    0.81    0.26
   2  -4   4    0.78    0.30
   2  -4   4    0.75    0.21
   2  -4   4    0.80    0.21
   2  -4   4    0.86    0.29
  -1   4  -4    0.48    0.21
  -1   4  -4    0.06    0.16
  -1   4  -4    0.26    0.20
  -1   4  -4    0.35    0.20
  -1   4  -4    0.31    0.16
  -1   4  -4    0.22    0.19
   1  -4   4    0.17    0.18
   1  -4   4    0.68    0.22
   1  -4   4    0.36    0.19
   1  -4   4    0.50    0.24
   1  -4   4    0.31    0.27
   1  -4   4    0.27    0.26
   0   4  -4    2.11    0.30
   0   4  -4    1.77    0.23
   0   4  -4    2.28    0.32
   0   4  -4    2.19    0.32
   0   4  -4    2.23    0.36
   0   4  -4    1.75    0.25
   0  -4   4    1.78    0.34
   0  -4   4    1.86    0.27
   0  -4   4    1.72    0.30
   0  -4   4    2.55    0.37
   0  -4   4    1.60    0.35
   0  -4   4    1.98    0.30
   1   4  -4    2.29    0.29
   1   4  -4    3.63    0.33
   1   4  -4    2.62    0.35
   1   4  -4    2.72    0.39
  -1  -4   4    3.80    0.45
  -1  -4   4    3.42    0.41
  -1  -4   4    2.96    0.50
  -1  -4   4    3.45    0.35
  -1  -4   4    2.89    0.30
  -1  -4   4    2.92    0.33
   2   4  -4    6.43    0.39
   2   4  -4    6.70    0.44
   2   4  -4    6.44    0.40
   2   4  -4    6.27    0.43
  -2  -4   4    5.80    0.60
  -2  -4   4    5.71    0.60
  -2  -4   4    5.31    0.44
   3   4  -4    2.42    0.30
   3   4  -4    2.16    0.35
   3   4  -4    2.11    0.35
  -3  -4   4    2.28    0.37
  -3  -4   4    1.92    0.28
   4   4  -4    0.07    0.20
  -4  -4   4   -0.05    0.31
   5   4  -4    2.97    0.39
  -8   5  -4   -0.05    0.30
  -7   5  -4   53.84    2.10
  -6   5  -4    8.70    0.52
  -6   5  -4    8.67    0.55
  -6   5  -4    8.71    0.63
   6  -5   4    9.00    0.58
   6  -5   4    8.88    0.53
  -5   5  -4    0.14    0.20
  -5   5  -4    0.12    0.29
  -5   5  -4    0.31    0.27
   5  -5   4    0.43    0.23
   5  -5   4    0.14    0.25
  -4   5  -4   -0.20    0.21
  -4   5  -4    0.32    0.21
  -4   5  -4   -0.21    0.21
  -4   5  -4   -0.16    0.27
  -4   5  -4   -0.03    0.21
   4  -5   4   -0.08    0.30
   4  -5   4    0.57    0.34
   4  -5   4    0.28    0.26
  -3   5  -4    2.64    0.31
  -3   5  -4    2.74    0.32
  -3   5  -4    2.87    0.39
  -3   5  -4    2.50    0.39
  -3   5  -4    2.13    0.37
  -3   5  -4    3.25    0.43
   3  -5   4    2.94    0.39
   3  -5   4    3.52    0.44
  -2   5  -4   81.56    3.00
  -2   5  -4   82.35    2.89
  -2   5  -4   79.36    3.05
  -2   5  -4   79.26    3.25
  -2   5  -4   83.65    2.90
  -2   5  -4   80.58    2.81
   2  -5   4   80.35    3.35
   2  -5   4   83.95    3.08
   2  -5   4   82.10    2.85
   2  -5   4   81.12    2.91
   2  -5   4   79.27    3.06
   2  -5   4   80.45    2.89
  -1   5  -4    1.37    0.28
  -1   5  -4    0.93    0.27
  -1   5  -4    1.01    0.27
  -1   5  -4    1.67    0.29
  -1   5  -4    1.39    0.22
  -1   5  -4    1.26    0.26
   1  -5   4    1.55    0.30
   1  -5   4    1.29    0.25
   1  -5   4    1.14    0.25
   1  -5   4    0.95    0.38
   0   5  -4   26.38    1.24
   0   5  -4   27.55    1.09
   0   5  -4   26.78    1.06
   0   5  -4   26.67    1.14
   0   5  -4   27.92    1.17
   0   5  -4   27.57    1.09
   0  -5   4   27.69    1.10
   0  -5   4   26.52    1.32
   0  -5   4   27.02    1.16
   0  -5   4   26.41    1.12
   0  -5   4   26.69    1.11
   1   5  -4   20.87    0.90
   1   5  -4   21.21    0.89
   1   5  -4   18.32    0.93
   1   5  -4   21.44    0.89
  -1  -5   4   21.35    1.04
  -1  -5   4   21.02    0.89
  -1  -5   4   20.27    0.96
   2   5  -4   17.81    0.79
   2   5  -4   17.42    0.79
   2   5  -4   17.02    0.75
  -2  -5   4   17.53    0.82
  -2  -5   4   17.58    0.93
  -2  -5   4   17.12    0.79
   3   5  -4    0.15    0.22
  -3  -5   4   -0.07    0.31
   4   5  -4    6.53    0.46
  -4  -5   4    6.61    0.62
   5   5  -4    0.15    0.23
  -8   6  -4    5.72    0.57
  -7   6  -4    6.23    0.56
  -7   6  -4    5.16    0.55
  -6   6  -4    0.28    0.24
  -6   6  -4    0.01    0.27
   6  -6   4   -0.04    0.23
  -5   6  -4   15.00    0.82
  -5   6  -4   14.77    0.75
   5  -6   4   14.58    0.74
   5  -6   4   14.79    0.78
  -4   6  -4    0.66    0.27
  -4   6  -4    0.92    0.29
  -4   6  -4    1.21    0.35
  -4   6  -4    0.73    0.27
   4  -6   4    0.42    0.27
   4  -6   4    0.57    0.26
   4  -6   4    0.43    0.35
  -3   6  -4    8.17    0.66
  -3   6  -4    7.62    0.53
  -3   6  -4    6.95    0.60
   3  -6   4    7.66    0.69
   3  -6   4    7.14    0.51
   3  -6   4    7.04    0.57
  -2   6  -4    4.89    0.50
  -2   6  -4    4.33    0.51
  -2   6  -4    4.52    0.46
  -2   6  -4    4.18    0.51
   2  -6   4    4.42    0.50
   2  -6   4    5.87    0.64
   2  -6   4    4.24    0.45
  -1   6  -4   12.92    0.79
  -1   6  -4   14.71    0.78
  -1   6  -4   14.51    0.69
  -1   6  -4   15.46    0.76
  -1   6  -4   13.73    0.77
   1  -6   4   14.30    0.76
   1  -6   4   14.51    0.72
   1  -6   4   13.84    0.89
   0   6  -4    8.13    0.48
   0   6  -4    8.73    0.57
   0  -6   4    7.68    0.56
   0  -6   4    6.77    0.58
   1   6  -4    0.94    0.22
   1   6  -4    0.46    0.26
   1   6  -4    0.28    0.26
  -1  -6   4    0.68    0.23
  -1  -6   4    0.62    0.35
  -1  -6   4    0.68    0.26
   2   6  -4    4.68    0.42
   2   6  -4    4.85    0.43
  -2  -6   4    5.02    0.47
  -2  -6   4    4.66    0.59
   3   6  -4    4.96    0.43
  -3  -6   4    4.95    0.61
   4   6  -4   -0.01    0.25
  -4  -6   4    0.02    0.36
  -7   7  -4   12.20    0.75
  -7   7  -4   13.24    0.80
  -6   7  -4   26.88    1.25
  -6   7  -4   27.73    1.22
  -5   7  -4    7.64    0.71
  -5   7  -4    9.03    0.58
   5  -7   4    7.20    0.59
  -4   7  -4   16.26    0.88
  -4   7  -4   16.13    0.82
  -4   7  -4   16.31    0.80
   4  -7   4   16.59    1.04
   4  -7   4   16.24    0.86
   4  -7   4   15.51    0.80
  -3   7  -4    0.65    0.33
  -3   7  -4    0.83    0.29
  -3   7  -4    0.71    0.31
   3  -7   4    0.96    0.30
   3  -7   4    0.79    0.39
   3  -7   4    0.69    0.27
  -2   7  -4    0.69    0.32
  -2   7  -4    0.80    0.29
  -2   7  -4    1.00    0.29
   2  -7   4    0.75    0.39
   2  -7   4    0.70    0.26
   2  -7   4    1.00    0.30
  -1   7  -4   14.35    0.74
  -1   7  -4   14.25    0.80
  -1   7  -4   14.52    0.74
   1  -7   4   13.70    0.88
   1  -7   4   14.39    0.72
   1  -7   4   13.79    0.77
   0   7  -4   -0.06    0.25
   0   7  -4    0.07    0.25
   0  -7   4   -0.19    0.26
   0  -7   4   -0.01    0.36
   1   7  -4    9.40    0.59
   1   7  -4    9.24    0.58
  -1  -7   4   10.55    0.67
   2   7  -4   12.64    0.71
   2   7  -4   11.01    0.71
  -2  -7   4   14.57    0.75
  -2  -7   4   12.23    0.86
   3   7  -4   -0.10    0.27
  -3  -7   4   -0.25    0.39
  -6   8  -4   -0.38    0.31
  -6   8  -4   -0.40    0.32
  -5   8  -4    0.38    0.33
  -5   8  -4    0.19    0.31
  -4   8  -4    1.53    0.36
  -4   8  -4    1.45    0.44
  -4   8  -4   -0.23    0.33
   4  -8   4    0.64    0.35
  -3   8  -4    1.08    0.36
  -3   8  -4    1.22    0.39
  -3   8  -4    0.26    0.35
   3  -8   4    0.70    0.46
   3  -8   4    1.60    0.36
  -2   8  -4   -0.03    0.31
  -2   8  -4   -0.23    0.32
  -2   8  -4    0.04    0.30
   2  -8   4   -0.03    0.26
   2  -8   4   -0.23    0.31
   2  -8   4    0.37    0.49
  -1   8  -4   -0.10    0.30
   1  -8   4    0.12    0.29
   1  -8   4   -0.24    0.43
   0   8  -4    3.07    0.48
   0   8  -4    1.69    0.37
   0  -8   4    2.39    0.51
   0  -8   4    1.97    0.40
   1   8  -4    1.91    0.35
  -1  -8   4    1.79    0.48
  -1  -8   4    1.70    0.36
   2   8  -4    0.42    0.30
  -2  -8   4    0.83    0.46
  -4   9  -4   -0.40    0.33
  -4   9  -4    0.08    0.39
  -4   9  -4    0.20    0.32
  -3   9  -4    1.56    0.35
  -3   9  -4    1.44    0.37
  -3   9  -4    1.57    0.41
  -2   9  -4    0.13    0.32
  -2   9  -4    0.20    0.32
   2  -9   4    0.92    0.49
   2  -9   4    0.04    0.34
  -1   9  -4   16.63    0.87
  -1   9  -4   16.55    0.87
   1  -9   4   15.85    1.07
   1  -9   4   15.51    0.91
   0   9  -4    0.04    0.30
   0   9  -4    0.11    0.33
   0  -9   4    0.24    0.45
   0  -9   4    0.65    0.43
   3  10   5    2.23    0.39
   2  10   5   16.32    0.83
   2  10   5   16.05    0.82
   1  10   5    5.26    0.52
   1  10   5    5.08    0.50
   0  10   5    4.96    0.54
   0  10   5    4.71    0.52
  -1  10   5    2.98    0.48
  -1  10   5    2.95    0.49
   5   9   5    0.54    0.24
   4   9   5    8.38    0.54
   3   9   5    2.91    0.45
   2   9   5    0.49    0.28
   2   9   5    0.42    0.30
   1   9   5   33.55    1.35
   1   9   5   30.02    1.33
   0   9   5    0.94    0.32
  -1   9   5   33.06    1.38
  -1   9   5   31.22    1.37
  -2   9   5    5.78    0.57
  -2   9   5    6.25    0.57
  -2   9   5    5.85    0.54
  -3   9   5    1.16    0.36
  -3   9   5    0.93    0.38
  -3   9   5    0.78    0.33
   5   8   5   19.72    0.87
   4   8   5    0.47    0.24
   3   8   5    2.43    0.38
   3   8   5    3.11    0.39
   2   8   5    7.14    0.51
   2   8   5    6.59    0.50
   1   8   5    1.44    0.29
   1   8   5    1.30    0.30
   0   8   5    4.88    0.47
   0   8   5    4.67    0.47
  -1   8   5    0.44    0.29
  -1   8   5    0.45    0.28
  -1   8   5    0.31    0.26
  -2   8   5   46.34    1.78
  -2   8   5   45.53    1.84
  -2   8   5   43.12    1.75
  -3   8   5    0.59    0.33
  -3   8   5   -0.20    0.32
  -3   8   5    0.47    0.31
  -4   8   5    3.55    0.50
  -4   8   5    4.54    0.56
   5   7   5    7.74    0.48
   4   7   5   20.70    0.88
   3   7   5    0.78    0.20
   3   7   5   -0.23    0.24
   3   7   5    0.83    0.25
  -2  -7  -5    5.96    0.47
   2   7   5    7.07    0.50
   2   7   5    6.72    0.43
   2   7   5    6.37    0.52
  -1  -7  -5    8.77    0.55
  -1  -7  -5    8.70    0.53
   1   7   5    8.27    0.56
   1   7   5    8.95    0.50
   0  -7  -5    7.06    0.50
   0   7   5    7.20    0.54
   0   7   5    6.95    0.55
   0   7   5    8.36    0.57
  -1   7   5    7.86    0.55
  -1   7   5    5.50    0.53
  -2   7   5    5.07    0.50
  -2   7   5    5.03    0.49
  -2   7   5    5.51    0.49
  -3   7   5   12.25    0.77
  -3   7   5   12.70    0.71
  -4   7   5    3.42    0.49
  -5   7   5    6.75    0.57
  -5   7   5    9.35    0.71
   5   6   5    3.47    0.37
   5   6   5    4.37    0.32
   4   6   5    4.27    0.35
   4   6   5    4.21    0.49
  -3  -6  -5   14.89    0.75
   3   6   5   18.36    0.76
   3   6   5   16.44    0.77
   3   6   5   16.86    0.75
  -2  -6  -5    2.91    0.35
   2   6   5    2.24    0.37
   2   6   5    2.43    0.35
   2   6   5    2.19    0.30
   2   6   5    3.23    0.30
  -1  -6  -5    0.46    0.22
  -1  -6  -5    0.98    0.24
   1   6   5    0.63    0.20
   1   6   5    0.86    0.23
   1   6   5    0.82    0.40
   1   6   5    0.48    0.19
   1   6   5    0.23    0.23
   0  -6  -5   12.17    0.62
   0   6   5   14.05    0.75
   0   6   5   11.20    0.63
   0   6   5   10.97    0.62
   0   6   5   11.07    0.59
   0   6   5    9.88    0.68
   0   6   5   11.16    0.63
   1  -6  -5   -0.06    0.22
   1  -6  -5    0.00    0.24
  -1   6   5    0.04    0.28
  -1   6   5    0.25    0.29
  -1   6   5   -0.39    0.24
  -2   6   5   16.44    0.85
  -2   6   5   16.77    0.85
  -2   6   5   16.20    0.81
  -2   6   5   17.17    0.82
  -3   6   5    9.95    0.61
  -3   6   5    9.96    0.61
  -3   6   5    9.85    0.61
  -3   6   5   10.06    0.64
  -4   6   5    7.33    0.66
  -4   6   5    9.36    0.62
  -5   6   5    2.54    0.43
  -5   6   5    1.96    0.39
   5   5   5   21.13    0.89
   5   5   5   22.20    0.89
  -4  -5  -5    3.05    0.48
   4   5   5    2.23    0.32
   4   5   5    1.81    0.26
  -3  -5  -5    3.67    0.31
  -3  -5  -5    2.53    0.37
   3   5   5    3.58    0.33
   3   5   5    3.10    0.30
   3   5   5    3.63    0.37
   3   5   5    3.46    0.37
  -2  -5  -5   11.94    0.58
  -2  -5  -5   11.64    0.66
  -2  -5  -5   11.32    0.56
   2   5   5   12.30    0.58
   2   5   5   12.61    0.59
   2   5   5   12.16    0.54
   2   5   5   11.14    0.60
  -1  -5  -5    5.00    0.37
  -1  -5  -5    5.51    0.37
  -1  -5  -5    5.22    0.46
   1   5   5    5.25    0.44
   1   5   5    5.83    0.38
   1   5   5    6.04    0.44
   1   5   5    4.91    0.42
   1   5   5    6.24    0.37
   1   5   5    5.05    0.46
   0  -5  -5    4.70    0.40
   0  -5  -5    6.31    0.42
   0  -5  -5    5.42    0.48
   0   5   5    5.09    0.45
   0   5   5    5.65    0.44
   0   5   5    4.72    0.40
   0   5   5    5.45    0.38
   0   5   5    5.68    0.47
   0   5   5    5.05    0.40
   1  -5  -5   14.98    0.83
   1  -5  -5   13.58    0.67
   1  -5  -5   13.14    0.64
  -1   5   5   13.28    0.68
  -1   5   5   13.60    0.63
  -1   5   5   13.39    0.75
  -1   5   5   13.22    0.72
  -1   5   5   12.98    0.68
  -1   5   5   13.36    0.69
   2  -5  -5    4.49    0.56
   2  -5  -5    4.72    0.44
   2  -5  -5    3.66    0.44
  -2   5   5    3.59    0.56
  -2   5   5    4.25    0.48
  -2   5   5    5.53    0.48
  -2   5   5    5.48    0.47
  -3   5   5    7.97    0.53
  -3   5   5    7.13    0.57
  -3   5   5    8.18    0.54
  -3   5   5    7.35    0.52
  -4   5   5    0.21    0.28
  -4   5   5    0.18    0.24
  -5   5   5    0.29    0.31
  -5   5   5    0.09    0.28
  -6   5   5   -0.29    0.36
  -5  -4  -5   55.47    1.96
  -5  -4  -5   50.27    2.08
   5   4   5   53.76    1.95
   5   4   5   49.78    1.85
  -4  -4  -5   63.25    2.19
  -4  -4  -5   64.89    2.26
  -4  -4  -5   63.57    2.53
   4   4   5   66.43    2.19
   4   4   5   63.06    2.26
   4   4   5   63.67    2.38
   4   4   5   65.69    2.25
  -3  -4  -5   35.74    1.31
  -3  -4  -5   36.00    1.52
  -3  -4  -5   35.93    1.41
   3   4   5   35.58    1.42
   3   4   5   37.63    1.32
   3   4   5   34.91    1.35
   3   4   5   41.49    1.37
  -2  -4  -5    4.93    0.32
  -2  -4  -5    4.52    0.31
  -2  -4  -5    4.75    0.43
   2   4   5    3.67    0.39
   2   4   5    5.23    0.42
   2   4   5    4.74    0.40
   2   4   5    4.81    0.35
   2   4   5    5.56    0.35
  -1  -4  -5   16.22    0.71
  -1  -4  -5   15.86    0.68
   1   4   5   16.34    0.73
   1   4   5   16.85    0.71
   1   4   5   16.75    0.70
   1   4   5   16.53    0.68
   1   4   5   14.77    0.77
   1   4   5   16.10    0.73
   0  -4  -5    0.14    0.15
   0  -4  -5    0.00    0.15
   0  -4  -5    0.13    0.20
   0   4   5    0.13    0.18
   0   4   5    0.10    0.17
   0   4   5    0.12    0.15
   0   4   5    0.25    0.16
   0   4   5    0.10    0.18
   0   4   5    0.00    0.18
   1  -4  -5   17.76    0.88
   1  -4  -5   16.09    0.75
   1  -4  -5   16.14    0.72
  -1   4   5   16.31    0.75
  -1   4   5   18.97    0.81
  -1   4   5   16.80    0.77
  -1   4   5   16.71    0.72
  -1   4   5   16.08    0.84
  -1   4   5   17.13    0.78
   2  -4  -5    7.54    0.64
   2  -4  -5    6.95    0.45
   2  -4  -5    7.45    0.45
  -2   4   5    6.54    0.42
  -2   4   5    5.72    0.51
  -2   4   5    8.16    0.51
  -2   4   5    6.73    0.45
  -2   4   5    7.16    0.48
  -2   4   5    7.85    0.52
   3  -4  -5    0.02    0.20
   3  -4  -5    0.00    0.19
  -3   4   5   -0.10    0.21
  -3   4   5    0.38    0.26
  -3   4   5   -0.40    0.23
  -3   4   5    0.33    0.23
   4  -4  -5    9.17    0.57
  -4   4   5    9.85    0.60
  -4   4   5    9.19    0.56
   5  -4  -5    7.47    0.56
  -5   4   5    5.69    0.51
  -5   4   5    6.01    0.56
   6  -4  -5    0.23    0.28
  -6   4   5   -0.10    0.28
  -5  -3  -5   29.32    1.22
  -5  -3  -5   30.34    1.16
   5   3   5   30.10    1.15
   5   3   5   30.01    1.11
  -4  -3  -5   12.49    0.61
  -4  -3  -5   12.85    0.55
  -4  -3  -5   12.43    0.61
  -4  -3  -5   12.34    0.50
   4   3   5   12.46    0.55
   4   3   5   12.77    0.54
   4   3   5   11.84    0.54
   4   3   5   12.94    0.51
  -3  -3  -5    2.00    0.21
  -3  -3  -5    1.80    0.26
  -3  -3  -5    2.15    0.32
  -3  -3  -5    2.54    0.23
   3   3   5    1.99    0.28
   3   3   5    1.99    0.22
   3   3   5    1.70    0.22
   3   3   5    1.87    0.28
  -2  -3  -5    2.28    0.31
  -2  -3  -5    1.59    0.31
  -2  -3  -5    2.12    0.24
  -2  -3  -5    2.68    0.25
  -2  -3  -5    1.97    0.33
   2   3   5    2.09    0.31
   2   3   5    1.52    0.29
   2   3   5    2.00    0.24
   2   3   5    2.05    0.22
   2   3   5    2.47    0.31
  -1  -3  -5    5.28    0.33
  -1  -3  -5    4.65    0.48
  -1  -3  -5    5.22    0.35
   1   3   5    6.19    0.36
   1   3   5    4.97    0.40
   1   3   5    5.68    0.36
   0  -3  -5  102.10    3.46
   0  -3  -5  105.04    3.56
   0  -3  -5   97.46    3.71
   0  -3  -5   94.48    3.54
   0  -3  -5  101.46    3.75
   0  -3  -5  105.94    4.01
   0   3   5  105.26    3.55
   0   3   5  103.38    4.00
   0   3   5  105.83    3.57
   0   3   5   97.75    3.67
   0   3   5  105.18    3.76
   0   3   5  104.89    3.46
   1  -3  -5    8.88    0.45
   1  -3  -5    8.49    0.54
   1  -3  -5    7.14    0.47
   1  -3  -5    8.21    0.46
   1  -3  -5    8.06    0.57
   1  -3  -5    8.57    0.47
  -1   3   5    9.25    0.50
  -1   3   5    9.02    0.48
  -1   3   5    8.40    0.50
  -1   3   5    7.97    0.47
  -1   3   5    8.46    0.44
  -1   3   5    7.95    0.51
   2  -3  -5   11.99    0.62
   2  -3  -5   11.62    0.68
   2  -3  -5   11.74    0.59
   2  -3  -5   12.12    0.69
   2  -3  -5   11.29    0.62
   2  -3  -5   13.04    0.64
  -2   3   5   12.31    0.63
  -2   3   5   13.77    0.62
  -2   3   5   12.53    0.60
  -2   3   5   12.44    0.63
  -2   3   5   11.70    0.66
  -2   3   5   11.54    0.65
   3  -3  -5    2.95    0.39
   3  -3  -5    2.79    0.43
   3  -3  -5    4.12    0.42
   3  -3  -5    3.03    0.40
  -3   3   5    3.88    0.42
  -3   3   5    2.97    0.45
   4  -3  -5    3.33    0.47
   4  -3  -5    3.58    0.33
  -4   3   5    3.97    0.45
  -4   3   5    3.79    0.35
  -4   3   5    3.67    0.41
   5  -3  -5    0.90    0.28
   5  -3  -5    1.02    0.26
  -5   3   5    0.65    0.33
  -5   3   5    0.87    0.25
   6  -3  -5    0.11    0.27
  -6   3   5    0.21    0.29
   6   2   5   19.94    0.76
  -5  -2  -5    8.79    0.46
  -5  -2  -5    8.56    0.44
   5   2   5    8.48    0.42
   5   2   5    8.83    0.41
  -4  -2  -5    0.71    0.13
  -4  -2  -5    0.91    0.16
  -4  -2  -5    0.67    0.13
   4   2   5    1.36    0.25
   4   2   5    1.25    0.19
  -3  -2  -5   15.30    0.73
  -3  -2  -5   17.40    0.68
  -3  -2  -5   15.75    0.62
  -3  -2  -5   16.37    0.68
  -3  -2  -5   15.03    0.73
   3   2   5   15.96    0.70
   3   2   5   15.32    0.67
   3   2   5   15.12    0.66
   3   2   5   15.76    0.63
   3   2   5   15.32    0.66
   3   2   5   16.79    0.76
   3   2   5   17.60    0.70
  -2  -2  -5   77.23    2.81
  -2  -2  -5   79.16    2.74
  -2  -2  -5   82.82    2.83
  -2  -2  -5   81.23    3.16
  -2  -2  -5   81.66    2.97
  -2  -2  -5   82.72    2.94
   2   2   5   82.63    3.17
   2   2   5   84.46    2.98
   2   2   5   83.43    2.83
   2   2   5   78.28    2.81
   2   2   5   79.17    2.91
   2   2   5   79.83    2.74
  -1  -2  -5   29.67    1.23
  -1  -2  -5   35.12    1.18
  -1  -2  -5   29.86    1.22
  -1  -2  -5   29.49    1.29
  -1  -2  -5   29.64    1.20
  -1  -2  -5   30.40    1.14
   1   2   5   31.45    1.16
   1   2   5   30.33    1.22
   1   2   5   29.50    1.13
   1   2   5   32.86    1.17
   0  -2  -5    6.22    0.38
   0  -2  -5    5.79    0.52
   0  -2  -5    7.05    0.49
   0  -2  -5    6.51    0.44
   0   2   5    5.44    0.45
   0   2   5    5.49    0.37
   0   2   5    7.17    0.48
   0   2   5    5.64    0.40
   0   2   5    5.83    0.44
   1  -2  -5   40.88    1.58
   1  -2  -5   41.13    1.50
   1  -2  -5   41.50    1.52
   1  -2  -5   40.20    1.46
   1  -2  -5   39.92    1.59
   1  -2  -5   42.56    1.71
  -1   2   5   39.23    1.56
  -1   2   5   41.10    1.59
  -1   2   5   40.82    1.70
  -1   2   5   41.24    1.50
  -1   2   5   40.50    1.51
  -1   2   5   40.16    1.46
   2  -2  -5   14.50    0.77
   2  -2  -5   13.91    0.66
   2  -2  -5   14.44    0.63
   2  -2  -5   14.38    0.69
   2  -2  -5   15.03    0.74
   2  -2  -5   14.89    0.68
  -2   2   5   14.90    0.71
  -2   2   5   14.62    0.68
  -2   2   5   13.47    0.73
  -2   2   5   13.80    0.67
  -2   2   5   14.80    0.66
  -2   2   5   13.84    0.63
   3  -2  -5    0.34    0.20
   3  -2  -5    0.77    0.25
   3  -2  -5    0.27    0.19
  -3   2   5    0.61    0.25
  -3   2   5    0.15    0.21
   4  -2  -5    3.93    0.42
   4  -2  -5    4.80    0.35
   4  -2  -5    3.87    0.44
  -4   2   5    2.99    0.34
  -4   2   5    3.76    0.41
  -4   2   5    3.47    0.45
   5  -2  -5   26.01    1.07
  -5   2   5   26.49    1.13
   6  -2  -5    3.74    0.42
  -6   2   5    3.73    0.47
   6   1   5   11.40    0.49
   6   1   5   10.79    0.49
  -5  -1  -5   16.68    0.69
  -5  -1  -5   15.92    0.60
  -5  -1  -5   15.79    0.71
  -5  -1  -5   15.93    0.63
   5   1   5   15.55    0.64
   5   1   5   15.55    0.65
   5   1   5   16.28    0.62
   5   1   5   15.85    0.66
  -4  -1  -5   23.39    0.99
  -4  -1  -5   23.65    0.90
  -4  -1  -5   24.02    0.87
  -4  -1  -5   24.26    0.93
  -4  -1  -5   22.98    1.01
   4   1   5   24.81    0.94
   4   1   5   23.51    0.91
   4   1   5   24.12    0.88
   4   1   5   23.47    0.90
   4   1   5   23.24    0.94
  -3  -1  -5   50.86    2.09
  -3  -1  -5   49.87    1.84
  -3  -1  -5   52.10    1.95
  -3  -1  -5   51.88    1.86
  -3  -1  -5   51.43    1.94
  -3  -1  -5   51.54    1.80
   3   1   5   52.99    1.87
   3   1   5   52.90    1.96
   3   1   5   55.13    2.11
   3   1   5   53.21    1.94
   3   1   5   57.05    1.97
   3   1   5   52.22    1.81
   3   1   5   52.93    1.87
  -2  -1  -5   23.58    0.94
  -2  -1  -5   23.16    0.87
  -2  -1  -5   22.70    1.01
  -2  -1  -5   22.51    0.91
  -2  -1  -5   23.11    0.95
  -2  -1  -5   23.41    0.90
   2   1   5   23.47    0.94
   2   1   5   23.70    0.92
   2   1   5   24.24    1.03
   2   1   5   24.72    0.94
   2   1   5   24.27    0.90
   2   1   5   23.12    0.96
  -1  -1  -5   15.81    0.67
  -1  -1  -5   15.32    0.63
  -1  -1  -5   14.46    0.68
  -1  -1  -5   15.61    0.70
  -1  -1  -5   13.75    0.65
  -1  -1  -5   15.60    0.72
   1   1   5   15.03    0.68
   1   1   5   16.73    0.74
   1   1   5   15.39    0.68
   1   1   5   15.03    0.70
   1   1   5   15.29    0.65
   1   1   5   16.32    0.67
   0  -1  -5    1.30    0.20
   0  -1  -5    0.98    0.26
   0  -1  -5    1.59    0.23
   0  -1  -5    1.41    0.23
   0  -1  -5    0.93    0.19
   0   1   5    1.94    0.28
   0   1   5    1.07    0.26
   0   1   5    1.51    0.23
   0   1   5    1.99    0.35
   1  -1  -5   10.45    0.50
   1  -1  -5   10.42    0.50
   1  -1  -5   10.15    0.52
   1  -1  -5   10.22    0.63
   1  -1  -5   10.40    0.48
  -1   1   5   10.77    0.52
  -1   1   5    9.64    0.57
  -1   1   5    9.54    0.52
  -1   1   5    9.69    0.48
  -1   1   5   10.17    0.51
  -1   1   5   10.21    0.54
   2  -1  -5    0.26    0.14
   2  -1  -5    0.12    0.21
   2  -1  -5    0.40    0.14
   2  -1  -5    0.29    0.17
   2  -1  -5    0.26    0.20
   2  -1  -5    0.43    0.18
  -2   1   5    0.31    0.16
  -2   1   5    0.35    0.16
  -2   1   5    0.50    0.25
  -2   1   5    0.35    0.19
  -2   1   5    0.52    0.18
   3  -1  -5    0.73    0.21
   3  -1  -5    0.66    0.18
   3  -1  -5    0.66    0.19
   3  -1  -5    0.58    0.20
  -3   1   5    0.37    0.25
  -3   1   5    0.65    0.22
   4  -1  -5    8.54    0.47
   4  -1  -5    8.28    0.52
   4  -1  -5    8.34    0.51
  -4   1   5    8.13    0.46
  -4   1   5    8.62    0.56
  -4   1   5    8.36    0.55
   5  -1  -5    0.38    0.22
   6  -1  -5    5.99    0.45
  -6   1   5    5.80    0.53
   7   0   5   12.56    0.56
  -6   0  -5   31.92    1.20
  -6   0  -5   30.63    1.27
   6   0   5   30.67    1.20
   6   0   5   30.46    1.14
  -5   0  -5    0.08    0.14
  -5   0  -5    0.27    0.11
  -5   0  -5    0.20    0.12
  -5   0  -5    0.27    0.15
   5   0   5    0.38    0.13
   5   0   5    0.15    0.12
   5   0   5    0.18    0.14
   5   0   5    0.12    0.13
  -4   0  -5    2.10    0.26
  -4   0  -5    2.60    0.23
  -4   0  -5    2.59    0.29
  -4   0  -5    1.82    0.27
  -4   0  -5    2.05    0.20
   4   0   5    2.10    0.23
   4   0   5    2.41    0.22
   4   0   5    2.51    0.28
   4   0   5    2.02    0.28
  -3   0  -5    4.31    0.31
  -3   0  -5    3.65    0.31
  -3   0  -5    3.26    0.28
  -3   0  -5    3.59    0.35
  -3   0  -5    3.05    0.29
   3   0   5    4.12    0.29
   3   0   5    3.88    0.29
   3   0   5    3.71    0.32
   3   0   5    4.71    0.40
   3   0   5    3.95    0.35
   3   0   5    4.52    0.40
  -2   0  -5  361.13   11.90
  -2   0  -5  358.12   11.56
  -2   0  -5  350.46   13.36
  -2   0  -5  322.49   11.95
  -2   0  -5  354.72   12.60
  -2   0  -5  365.05   12.32
   2   0   5  328.24   12.31
   2   0   5  368.23   13.38
   2   0   5  356.80   12.61
   2   0   5  356.52   11.56
   2   0   5  357.10   11.97
   2   0   5  354.57   11.90
  -1   0  -5   41.49    1.51
  -1   0  -5   42.63    1.75
  -1   0  -5   41.03    1.55
  -1   0  -5   43.57    1.63
  -1   0  -5   41.74    1.56
  -1   0  -5   41.63    1.62
   1   0   5   42.63    1.63
   1   0   5   46.03    1.57
   1   0   5   39.71    1.76
   1   0   5   43.64    1.56
   1   0   5   46.52    1.64
   1   0   5   43.72    1.52
   0   0  -5    3.13    0.36
   0   0  -5    4.07    0.34
   0   0  -5    4.04    0.30
   0   0   5    4.65    0.48
   0   0   5    4.28    0.39
   0   0   5    3.79    0.31
   0   0   5    3.97    0.37
   0   0   5    3.62    0.31
   1   0  -5    8.68    0.44
   1   0  -5    8.18    0.56
   1   0  -5    6.88    0.58
   1   0  -5    8.63    0.47
   1   0  -5    8.48    0.43
   1   0  -5    8.83    0.45
  -1   0   5    8.45    0.43
  -1   0   5    8.47    0.52
  -1   0   5    8.31    0.48
  -1   0   5    9.03    0.51
  -1   0   5    8.67    0.45
  -1   0   5    9.25    0.48
   2   0  -5   -0.05    0.16
   2   0  -5    0.13    0.16
   2   0  -5    0.04    0.14
   2   0  -5    0.14    0.13
  -2   0   5   -0.04    0.20
  -2   0   5    0.07    0.18
  -2   0   5    0.35    0.16
  -2   0   5    0.14    0.22
  -2   0   5    0.20    0.20
  -2   0   5    0.37    0.17
   3   0  -5    3.62    0.37
   3   0  -5    3.00    0.31
   3   0  -5    3.78    0.35
   3   0  -5    2.72    0.31
   4   0  -5    0.60    0.22
  -4   0   5    0.57    0.26
  -4   0   5    0.55    0.23
   5   0  -5    4.27    0.38
   6   0  -5    3.97    0.40
  -6   0   5    2.93    0.47
   7  -1   5   11.77    0.56
  -6   1  -5   30.04    1.20
  -6   1  -5   29.33    1.27
   6  -1   5   30.59    1.14
   6  -1   5   30.48    1.20
  -5   1  -5   11.04    0.52
  -5   1  -5   11.39    0.58
  -5   1  -5   11.30    0.48
  -5   1  -5   11.33    0.58
   5  -1   5   11.42    0.54
   5  -1   5   11.82    0.57
   5  -1   5   11.26    0.54
   5  -1   5   11.37    0.52
  -4   1  -5    5.02    0.32
  -4   1  -5    6.19    0.44
  -4   1  -5    4.86    0.30
  -4   1  -5    4.97    0.33
  -4   1  -5    4.89    0.36
  -4   1  -5    6.07    0.42
   4  -1   5    4.27    0.36
   4  -1   5    5.29    0.34
   4  -1   5    5.22    0.43
   4  -1   5    5.21    0.36
  -3   1  -5   19.30    0.73
  -3   1  -5   18.47    0.75
  -3   1  -5   19.10    0.76
  -3   1  -5   18.49    0.84
  -3   1  -5   18.45    0.79
  -3   1  -5   18.06    0.83
   3  -1   5   18.42    0.78
   3  -1   5   19.21    0.92
   3  -1   5   18.47    0.75
   3  -1   5   16.66    0.89
   3  -1   5   17.88    0.76
   3  -1   5   17.90    0.73
  -2   1  -5    4.47    0.33
  -2   1  -5    4.02    0.35
  -2   1  -5    4.52    0.36
  -2   1  -5    3.72    0.39
   2  -1   5    4.60    0.36
   2  -1   5    4.57    0.31
   2  -1   5    4.35    0.35
   2  -1   5    4.77    0.31
  -1   1  -5   26.81    0.97
  -1   1  -5   26.91    1.00
  -1   1  -5   25.53    1.11
  -1   1  -5   25.65    1.06
  -1   1  -5   27.57    1.05
  -1   1  -5   23.79    0.98
   1  -1   5   22.59    1.10
   1  -1   5   25.90    0.98
   1  -1   5   25.14    1.15
   1  -1   5   25.87    1.04
   1  -1   5   24.88    1.00
   1  -1   5   26.16    1.02
   0   1  -5   17.85    0.77
   0   1  -5   17.76    0.85
   0   1  -5   18.78    0.75
   0   1  -5   17.08    0.80
   0   1  -5   18.36    0.78
   0   1  -5   17.41    0.72
   0  -1   5   17.97    0.74
   0  -1   5   18.82    0.84
   0  -1   5   18.61    0.78
   0  -1   5   17.28    0.88
   0  -1   5   19.74    0.77
   0  -1   5   19.05    0.78
   1   1  -5   63.28    2.40
   1   1  -5   61.90    2.56
   1   1  -5   63.03    2.27
   1   1  -5   64.13    2.28
   1   1  -5   64.95    2.37
   1   1  -5   64.43    2.22
  -1  -1   5   65.98    2.28
  -1  -1   5   64.17    2.40
  -1  -1   5   62.71    2.38
  -1  -1   5   61.86    2.59
  -1  -1   5   64.28    2.23
  -1  -1   5   68.65    2.29
   2   1  -5    4.89    0.35
   2   1  -5    5.33    0.35
   2   1  -5    4.90    0.40
   2   1  -5    5.09    0.41
  -2  -1   5    5.71    0.41
  -2  -1   5    5.23    0.46
  -2  -1   5    5.33    0.46
  -2  -1   5    5.08    0.36
  -2  -1   5    5.10    0.43
  -2  -1   5    4.88    0.35
   3   1  -5   15.33    0.72
   3   1  -5   12.06    0.68
   3   1  -5   15.27    0.68
   3   1  -5   14.35    0.70
  -3  -1   5   16.03    0.78
  -3  -1   5   14.82    0.67
  -3  -1   5   14.62    0.76
   4   1  -5    3.56    0.37
  -4  -1   5    2.84    0.46
   5   1  -5    5.61    0.41
  -5  -1   5    5.41    0.53
   6   1  -5    0.18    0.22
   8  -2   5    3.08    0.35
  -7   2  -5    3.93    0.42
   7  -2   5    5.13    0.38
  -6   2  -5    1.78    0.26
  -6   2  -5    1.56    0.22
  -6   2  -5    1.03    0.26
   6  -2   5    1.83    0.33
  -5   2  -5    3.35    0.27
  -5   2  -5    3.62    0.41
  -5   2  -5    3.15    0.34
  -5   2  -5    3.09    0.35
   5  -2   5    3.32    0.30
   5  -2   5    3.17    0.38
   5  -2   5    3.09    0.32
  -4   2  -5    0.78    0.21
  -4   2  -5    0.47    0.18
   4  -2   5    0.67    0.20
   4  -2   5    0.71    0.19
   4  -2   5    1.42    0.33
   4  -2   5    0.53    0.26
   4  -2   5    0.89    0.22
   4  -2   5    0.87    0.20
  -3   2  -5   10.32    0.48
  -3   2  -5    9.49    0.50
  -3   2  -5   10.08    0.50
  -3   2  -5   10.13    0.52
  -3   2  -5   11.04    0.60
  -3   2  -5    9.96    0.57
   3  -2   5    8.40    0.63
   3  -2   5   10.39    0.50
   3  -2   5   10.63    0.54
   3  -2   5   12.10    0.67
   3  -2   5   10.62    0.52
   3  -2   5   10.04    0.52
  -2   2  -5   58.02    2.04
  -2   2  -5   58.08    2.20
  -2   2  -5   59.18    2.22
  -2   2  -5   59.57    2.10
  -2   2  -5   58.73    2.37
  -2   2  -5   57.04    2.09
   2  -2   5   59.79    2.06
   2  -2   5   59.41    2.11
   2  -2   5   59.55    2.41
   2  -2   5   62.58    2.24
   2  -2   5   58.46    2.10
   2  -2   5   56.22    2.21
  -1   2  -5   10.33    0.64
  -1   2  -5   10.35    0.51
  -1   2  -5   10.55    0.52
  -1   2  -5   10.43    0.49
  -1   2  -5   10.69    0.52
  -1   2  -5   10.50    0.58
   1  -2   5   10.33    0.64
   1  -2   5   10.70    0.51
   1  -2   5   11.20    0.56
   1  -2   5   11.06    0.53
   1  -2   5   10.03    0.61
   1  -2   5   10.77    0.52
   0   2  -5    0.39    0.17
   0   2  -5    0.61    0.16
   0   2  -5    0.98    0.27
   0   2  -5    0.58    0.17
   0   2  -5    0.61    0.16
   0   2  -5    0.41    0.20
   0  -2   5    0.63    0.17
   0  -2   5    0.53    0.23
   0  -2   5    0.94    0.22
   0  -2   5    0.89    0.18
   0  -2   5    0.63    0.18
   0  -2   5    0.66    0.26
   1   2  -5   11.31    0.54
   1   2  -5   10.34    0.59
   1   2  -5   10.42    0.53
   1   2  -5   10.89    0.50
   1   2  -5   10.93    0.53
   1   2  -5    9.97    0.59
  -1  -2   5   10.92    0.54
  -1  -2   5    9.73    0.63
  -1  -2   5   10.63    0.65
  -1  -2   5   10.97    0.60
  -1  -2   5   11.44    0.56
   2   2  -5   14.22    0.64
   2   2  -5   13.42    0.62
   2   2  -5   14.08    0.67
   2   2  -5   13.40    0.66
  -2  -2   5   14.07    0.86
  -2  -2   5   15.03    0.69
  -2  -2   5   13.25    0.63
  -2  -2   5   14.12    0.77
   3   2  -5    6.09    0.38
   3   2  -5    6.86    0.50
   3   2  -5    6.15    0.41
  -3  -2   5    5.82    0.53
  -3  -2   5    5.40    0.49
  -3  -2   5    5.64    0.40
   4   2  -5   32.79    1.27
  -4  -2   5   34.37    1.40
   5   2  -5    0.17    0.24
  -5  -2   5    0.48    0.29
   6   2  -5    0.95    0.25
   8  -3   5    0.70    0.30
  -7   3  -5   -0.07    0.24
   7  -3   5    0.22    0.20
  -6   3  -5    5.84    0.39
  -6   3  -5    5.68    0.50
  -6   3  -5    6.03    0.53
   6  -3   5    5.40    0.49
   6  -3   5    6.02    0.44
  -5   3  -5   21.31    0.89
  -5   3  -5   20.92    1.01
  -5   3  -5   21.14    0.95
  -5   3  -5   20.59    0.85
   5  -3   5   22.60    0.95
   5  -3   5   22.49    0.91
   5  -3   5   20.98    0.93
   5  -3   5   21.27    0.89
  -4   3  -5    7.21    0.45
  -4   3  -5    6.57    0.43
  -4   3  -5    7.43    0.45
  -4   3  -5    7.24    0.40
  -4   3  -5    8.11    0.50
  -4   3  -5    7.42    0.50
   4  -3   5    7.02    0.55
   4  -3   5    5.50    0.54
   4  -3   5    7.63    0.48
   4  -3   5    6.25    0.44
   4  -3   5    6.84    0.44
   4  -3   5    7.56    0.59
  -3   3  -5    2.67    0.38
  -3   3  -5    2.23    0.30
  -3   3  -5    2.13    0.33
  -3   3  -5    2.38    0.26
  -3   3  -5    2.55    0.31
  -3   3  -5    2.52    0.28
   3  -3   5    2.06    0.42
   3  -3   5    2.22    0.28
   3  -3   5    2.13    0.39
   3  -3   5    3.03    0.51
   3  -3   5    2.58    0.33
   3  -3   5    2.04    0.29
  -2   3  -5  166.71    5.74
  -2   3  -5  162.54    6.05
  -2   3  -5  173.48    5.94
  -2   3  -5  171.86    6.44
  -2   3  -5  162.73    5.71
  -2   3  -5  167.05    5.57
   2  -3   5  167.01    5.97
   2  -3   5  161.75    6.06
   2  -3   5  169.47    5.74
   2  -3   5  166.18    5.59
   2  -3   5  166.71    6.49
   2  -3   5  167.98    5.75
  -1   3  -5  114.67    4.06
  -1   3  -5  108.76    4.13
  -1   3  -5  114.16    3.81
  -1   3  -5  117.53    3.92
  -1   3  -5  107.45    4.39
  -1   3  -5  114.52    3.90
   1  -3   5  112.53    3.82
   1  -3   5  112.95    4.14
   1  -3   5  106.93    3.91
   1  -3   5  119.02    4.11
   1  -3   5  108.34    4.45
   1  -3   5  113.62    3.92
   0   3  -5    0.32    0.21
   0   3  -5   -0.02    0.23
   0   3  -5    0.00    0.20
   0   3  -5    0.10    0.15
   0   3  -5    0.00    0.15
   0   3  -5   -0.04    0.16
   0  -3   5    0.39    0.27
   0  -3   5    0.27    0.21
   0  -3   5    0.05    0.25
   0  -3   5    0.45    0.22
   0  -3   5   -0.15    0.18
   1   3  -5    0.32    0.18
   1   3  -5    0.65    0.23
   1   3  -5    0.20    0.22
   1   3  -5    0.15    0.16
  -1  -3   5    0.03    0.18
  -1  -3   5    0.03    0.20
  -1  -3   5    0.12    0.18
  -1  -3   5    0.02    0.17
  -1  -3   5    0.48    0.31
  -1  -3   5    0.22    0.31
   2   3  -5    0.27    0.27
   2   3  -5   -0.11    0.22
   2   3  -5   -0.01    0.27
   2   3  -5   -0.27    0.20
  -2  -3   5   -0.14    0.29
  -2  -3   5    0.00    0.19
   3   3  -5   -0.10    0.23
   3   3  -5   -0.05    0.20
  -3  -3   5   -0.02    0.18
  -3  -3   5   -0.11    0.20
   4   3  -5    4.02    0.37
  -4  -3   5    4.30    0.71
   5   3  -5    0.41    0.23
  -5  -3   5    0.07    0.33
  -8   4  -5    1.26    0.30
   8  -4   5    1.16    0.26
  -7   4  -5    2.25    0.40
   7  -4   5    2.04    0.36
  -6   4  -5    1.62    0.33
  -6   4  -5    1.71    0.29
  -6   4  -5    1.46    0.33
   6  -4   5    2.02    0.30
  -5   4  -5    1.33    0.33
   5  -4   5    1.50    0.30
   5  -4   5    1.75    0.28
  -4   4  -5    0.37    0.25
  -4   4  -5    0.31    0.21
  -4   4  -5    0.42    0.20
  -4   4  -5    0.47    0.23
  -4   4  -5    0.31    0.20
   4  -4   5    0.15    0.36
   4  -4   5    0.89    0.29
   4  -4   5    0.91    0.39
   4  -4   5    0.37    0.22
   4  -4   5    0.31    0.24
   4  -4   5    0.78    0.28
  -3   4  -5   17.53    0.84
  -3   4  -5   17.82    0.76
  -3   4  -5   17.44    0.81
  -3   4  -5   16.61    0.87
  -3   4  -5   17.60    0.80
  -3   4  -5   16.45    0.79
   3  -4   5   17.82    0.79
   3  -4   5   17.62    0.83
   3  -4   5   16.78    0.81
   3  -4   5   17.37    0.79
   3  -4   5   20.47    0.96
  -2   4  -5    0.86    0.24
  -2   4  -5    0.94    0.24
  -2   4  -5    0.68    0.23
  -2   4  -5    0.87    0.23
  -2   4  -5    0.41    0.25
  -2   4  -5    1.00    0.25
   2  -4   5    1.04    0.25
   2  -4   5    0.90    0.23
   2  -4   5    0.87    0.33
   2  -4   5    0.89    0.22
   2  -4   5    0.95    0.22
   2  -4   5    0.77    0.37
  -1   4  -5   10.47    0.62
  -1   4  -5   10.61    0.58
  -1   4  -5   10.62    0.62
  -1   4  -5   11.16    0.55
  -1   4  -5   10.54    0.59
  -1   4  -5   10.32    0.57
   1  -4   5   11.04    0.58
   1  -4   5   10.80    0.75
   1  -4   5   10.65    0.58
   1  -4   5   11.73    0.75
   1  -4   5   10.18    0.61
   1  -4   5   10.42    0.56
   0   4  -5    1.65    0.27
   0   4  -5    1.61    0.26
   0   4  -5    0.95    0.28
   0   4  -5    1.45    0.25
   0   4  -5    1.78    0.27
   0  -4   5    1.92    0.36
   1   4  -5    0.93    0.31
   1   4  -5    0.44    0.22
   1   4  -5    0.36    0.24
  -1  -4   5    0.39    0.34
  -1  -4   5    0.30    0.28
  -1  -4   5    0.55    0.22
   2   4  -5   23.57    0.98
   2   4  -5   23.82    0.98
   2   4  -5   23.01    0.96
  -2  -4   5   23.48    1.12
  -2  -4   5   23.27    0.98
  -2  -4   5   24.75    1.02
   3   4  -5    4.48    0.39
  -3  -4   5    4.06    0.55
  -4  -4   5    1.30    0.39
   5   4  -5    4.06    0.41
  -8   5  -5    8.61    0.61
  -7   5  -5    8.14    0.64
   7  -5   5    6.68    0.54
  -6   5  -5    0.12    0.24
  -6   5  -5    0.05    0.27
   6  -5   5   -0.03    0.24
   6  -5   5   -0.15    0.24
  -5   5  -5    4.42    0.46
  -5   5  -5    4.28    0.48
   5  -5   5    3.74    0.46
   5  -5   5    4.09    0.42
  -4   5  -5    6.04    0.44
  -4   5  -5    5.93    0.54
  -4   5  -5    5.95    0.53
  -4   5  -5    5.38    0.47
   4  -5   5    5.70    0.46
   4  -5   5    5.47    0.52
   4  -5   5    6.60    0.66
  -3   5  -5    7.89    0.64
  -3   5  -5    8.53    0.54
  -3   5  -5    5.46    0.61
  -3   5  -5    7.28    0.53
   3  -5   5    6.54    0.48
   3  -5   5    6.99    0.70
   3  -5   5    6.99    0.61
   3  -5   5    8.38    0.56
   3  -5   5    6.93    0.69
   3  -5   5    7.15    0.52
  -2   5  -5   76.53    2.74
  -2   5  -5   79.18    2.96
  -2   5  -5   79.42    2.81
  -2   5  -5   75.46    2.80
  -2   5  -5   74.82    2.97
   2  -5   5   79.40    2.98
   2  -5   5   76.47    2.76
   2  -5   5   81.31    2.83
   2  -5   5   76.68    2.99
   2  -5   5   82.42    2.86
  -1   5  -5   41.38    1.93
  -1   5  -5   44.20    1.70
  -1   5  -5   48.04    1.73
  -1   5  -5   46.24    1.73
  -1   5  -5   46.71    1.85
  -1   5  -5   46.05    1.82
   1  -5   5   46.26    1.72
   1  -5   5   44.67    1.82
   1  -5   5   45.50    1.77
   1  -5   5   47.08    1.90
   1  -5   5   45.31    1.71
   0   5  -5   21.42    0.96
   0   5  -5   26.10    1.05
   0   5  -5   24.92    1.06
   0  -5   5   23.22    1.20
   0  -5   5   23.46    1.00
   0  -5   5   23.00    1.04
   0  -5   5   22.95    1.03
   0  -5   5   23.23    1.08
   1   5  -5    8.09    0.52
   1   5  -5    7.15    0.49
   1   5  -5    7.42    0.46
  -1  -5   5    7.13    0.62
  -1  -5   5    6.67    0.47
  -1  -5   5    7.17    0.53
   2   5  -5    4.33    0.40
   2   5  -5    4.28    0.41
  -2  -5   5    4.67    0.58
  -2  -5   5    4.33    0.46
   3   5  -5    5.87    0.46
  -3  -5   5    6.58    0.64
   4   5  -5    4.50    0.42
  -4  -5   5    5.13    0.64
  -8   6  -5    0.65    0.41
  -7   6  -5    0.25    0.33
  -7   6  -5    0.78    0.28
   7  -6   5    0.29    0.27
  -6   6  -5    0.09    0.29
  -6   6  -5   -0.36    0.37
   6  -6   5    0.23    0.30
   6  -6   5   -0.28    0.29
  -5   6  -5    0.67    0.32
  -5   6  -5    0.60    0.27
   5  -6   5    0.55    0.29
   5  -6   5    0.87    0.27
  -4   6  -5    9.11    0.56
  -4   6  -5    8.62    0.58
  -4   6  -5    8.79    0.64
   4  -6   5    8.04    0.55
   4  -6   5    8.35    0.59
   4  -6   5    8.31    0.73
  -3   6  -5   -0.31    0.25
  -3   6  -5   -0.23    0.27
  -3   6  -5   -0.17    0.29
   3  -6   5   -0.08    0.24
   3  -6   5   -0.07    0.34
   3  -6   5   -0.24    0.22
  -2   6  -5    4.85    0.49
  -2   6  -5    5.73    0.50
  -2   6  -5    6.22    0.53
   2  -6   5    5.98    0.48
   2  -6   5    5.66    0.52
   2  -6   5    6.33    0.66
  -1   6  -5   17.29    0.87
  -1   6  -5   15.29    0.80
  -1   6  -5   15.08    0.81
   1  -6   5   17.67    0.98
   1  -6   5   16.99    0.79
   1  -6   5   16.27    0.83
   1  -6   5   16.78    0.83
   0   6  -5    0.18    0.24
   0   6  -5    0.12    0.26
   0  -6   5    0.05    0.35
   0  -6   5    0.47    0.28
   1   6  -5    3.70    0.41
   1   6  -5    4.03    0.43
  -1  -6   5    3.37    0.59
  -1  -6   5    4.24    0.48
   2   6  -5   20.71    0.93
   2   6  -5   20.21    0.96
  -2  -6   5   20.89    0.98
  -2  -6   5   21.41    1.09
   3   6  -5   16.21    0.79
  -3  -6   5   16.68    0.96
  -7   7  -5    3.32    0.60
  -6   7  -5    0.29    0.32
  -6   7  -5    0.35    0.29
   6  -7   5    0.15    0.28
   6  -7   5    0.22    0.30
  -5   7  -5    1.88    0.45
  -5   7  -5    2.75    0.50
   5  -7   5    2.71    0.45
   5  -7   5    1.88    0.40
  -4   7  -5    4.29    0.49
  -4   7  -5    5.43    0.67
   4  -7   5    4.87    0.66
   4  -7   5    4.50    0.75
   4  -7   5    4.12    0.56
  -3   7  -5    0.32    0.32
  -3   7  -5    0.34    0.28
  -3   7  -5    0.64    0.28
   3  -7   5    0.24    0.29
   3  -7   5    1.31    0.49
  -2   7  -5    2.80    0.42
  -2   7  -5    3.06    0.43
  -2   7  -5    2.82    0.49
   2  -7   5    2.94    0.55
   2  -7   5    3.32    0.44
   2  -7   5    3.78    0.48
  -1   7  -5    2.51    0.42
  -1   7  -5    2.30    0.40
   1  -7   5    2.44    0.49
   1  -7   5    3.44    0.49
   1  -7   5    2.49    0.46
   0   7  -5   12.49    0.71
   0   7  -5   13.56    0.73
   0  -7   5   13.63    0.92
   0  -7   5   12.38    0.76
   1   7  -5   -0.09    0.29
  -1  -7   5    0.47    0.30
  -1  -7   5   -0.28    0.39
   2   7  -5    0.30    0.29
  -2  -7   5    0.34    0.48
  -5   8  -5    4.03    0.51
  -5   8  -5    3.56    0.56
   5  -8   5    4.20    0.58
   5  -8   5    3.19    0.47
  -4   8  -5    0.23    0.34
  -4   8  -5    0.68    0.34
  -4   8  -5    0.59    0.34
   4  -8   5    0.53    0.31
   4  -8   5    0.55    0.35
  -3   8  -5    3.43    0.56
  -3   8  -5    3.77    0.52
  -3   8  -5    3.00    0.51
   3  -8   5    3.97    0.72
   3  -8   5    3.81    0.48
   3  -8   5    3.23    0.53
  -2   8  -5   -0.05    0.30
  -2   8  -5   -0.02    0.33
   2  -8   5    0.11    0.32
   2  -8   5   -0.09    0.27
   2  -8   5   -0.43    0.41
  -1   8  -5   -0.08    0.29
  -1   8  -5   -0.11    0.31
   1  -8   5    0.01    0.33
   1  -8   5    0.00    0.44
   0   8  -5    0.02    0.30
   0   8  -5    0.26    0.31
   0  -8   5   -0.10    0.32
   0  -8   5    0.89    0.55
   1   8  -5    5.66    0.52
   1   8  -5    5.82    0.55
  -1  -8   5    5.67    0.73
  -1  -8   5    7.18    0.66
   2  10   6   24.92    1.13
   1  10   6    6.95    0.58
   1  10   6    7.05    0.57
   5   9   6    2.22    0.41
   4   9   6   19.93    0.92
   3   9   6   55.80    2.11
   2   9   6    5.71    0.55
   2   9   6    6.91    0.54
   1   9   6   19.76    0.95
   1   9   6   18.40    0.96
   0   9   6    0.50    0.32
   0   9   6    0.71    0.35
  -1   9   6    0.63    0.34
  -1   9   6    0.77    0.32
  -2   9   6   15.21    0.83
  -2   9   6   14.23    0.89
  -2   9   6   14.78    0.83
   5   8   6    0.58    0.26
   3   8   6    2.67    0.40
   3   8   6    1.69    0.31
   2   8   6    2.54    0.41
   2   8   6    2.31    0.39
   1   8   6   60.18    2.28
   1   8   6   61.64    2.27
   0   8   6   54.68    2.09
   0   8   6   55.66    2.10
  -1   8   6    1.60    0.40
  -1   8   6    2.49    0.46
  -1   8   6    1.63    0.36
  -2   8   6   -0.10    0.29
  -2   8   6   -0.39    0.29
  -2   8   6   -0.20    0.31
  -3   8   6    0.53    0.34
  -3   8   6    0.64    0.35
  -3   8   6    0.46    0.32
   5   7   6    0.61    0.24
   4   7   6    1.84    0.29
  -3  -7  -6    0.02    0.18
   3   7   6    0.18    0.18
   3   7   6    0.41    0.21
   3   7   6    0.40    0.26
   2   7   6   42.74    1.58
   2   7   6   42.26    1.62
   2   7   6   42.50    1.64
   1   7   6   24.45    1.06
   1   7   6   24.70    1.06
   0  -7  -6    9.15    0.56
   0   7   6    9.01    0.60
   0   7   6    9.93    0.64
   0   7   6    9.43    0.60
  -1   7   6    6.74    0.53
  -1   7   6    6.10    0.53
  -1   7   6    6.75    0.57
  -2   7   6    6.82    0.54
  -2   7   6    5.57    0.61
  -3   7   6    0.15    0.31
  -3   7   6   -0.16    0.35
  -3   7   6   -0.24    0.30
  -4   7   6    3.32    0.47
  -4   7   6    3.94    0.55
   5   6   6    3.66    0.36
   5   6   6    4.30    0.34
   4   6   6    2.88    0.40
   4   6   6    3.68    0.35
  -3  -6  -6   11.67    0.59
   3   6   6   13.43    0.71
   3   6   6   12.18    0.62
   3   6   6   11.57    0.63
   3   6   6   12.08    0.58
  -2  -6  -6    5.76    0.43
   2   6   6    5.21    0.44
   2   6   6    6.86    0.57
   2   6   6    6.66    0.43
  -1  -6  -6    7.86    0.51
  -1  -6  -6    8.08    0.51
   1   6   6    8.79    0.58
   1   6   6    8.32    0.51
   1   6   6   10.20    0.67
   1   6   6    7.83    0.53
   0   6   6    0.83    0.33
   0   6   6    1.11    0.30
   0   6   6    1.70    0.33
  -1   6   6    2.27    0.38
  -1   6   6    2.28    0.34
  -1   6   6    2.72    0.46
  -2   6   6    3.13    0.42
  -2   6   6    2.39    0.45
  -2   6   6    2.92    0.42
  -3   6   6    1.82    0.41
  -3   6   6    2.06    0.44
  -3   6   6    2.48    0.41
  -4   6   6    9.70    0.65
  -4   6   6    8.56    0.65
   5  -6  -6    1.27    0.34
  -5   6   6    0.45    0.35
  -5   6   6   -0.08    0.31
  -5  -5  -6    0.61    0.21
   5   5   6    0.49    0.21
  -4  -5  -6   17.13    0.90
  -4  -5  -6   19.32    0.86
   4   5   6   16.40    0.84
   4   5   6   20.77    0.82
   4   5   6   19.55    0.84
  -3  -5  -6   21.16    0.87
  -3  -5  -6   20.10    0.88
  -3  -5  -6   22.84    1.07
   3   5   6   20.70    0.88
   3   5   6   21.55    0.89
   3   5   6   20.99    0.92
   3   5   6   21.82    0.86
  -2  -5  -6    3.89    0.48
  -2  -5  -6    3.28    0.39
  -2  -5  -6    3.06    0.33
  -2  -5  -6    3.24    0.32
   2   5   6    2.71    0.39
   2   5   6    3.56    0.32
   2   5   6    3.51    0.38
   2   5   6    3.29    0.32
  -1  -5  -6   60.93    2.52
  -1  -5  -6   61.36    2.17
  -1  -5  -6   60.89    2.34
  -1  -5  -6   60.33    2.20
   1   5   6   58.75    2.49
   1   5   6   60.63    2.34
   1   5   6   63.83    2.30
   1   5   6   61.64    2.16
   1   5   6   61.93    2.23
   1   5   6   61.84    2.22
   0  -5  -6   16.15    0.77
   0  -5  -6   16.03    0.74
   0   5   6   14.41    0.84
   0   5   6   16.81    0.84
   0   5   6   15.73    0.75
   0   5   6   15.79    0.73
   0   5   6   16.41    0.76
   0   5   6   15.39    0.77
   1  -5  -6    6.60    0.48
   1  -5  -6    6.47    0.48
  -1   5   6    7.86    0.52
  -1   5   6    6.47    0.52
  -1   5   6    6.25    0.45
  -2   5   6    0.47    0.24
  -2   5   6    0.38    0.28
  -2   5   6    0.34    0.29
  -2   5   6    0.75    0.29
  -3   5   6    2.12    0.40
  -3   5   6    2.00    0.32
  -3   5   6    2.06    0.40
   4  -5  -6    8.04    0.59
  -4   5   6    6.90    0.60
  -4   5   6    6.49    0.58
   5  -5  -6    0.43    0.28
   5  -5  -6    0.48    0.31
  -5   5   6    0.11    0.28
  -5   5   6    0.65    0.34
   6   4   6    0.19    0.19
  -5  -4  -6    1.13    0.26
  -5  -4  -6    1.09    0.24
   5   4   6    0.85    0.21
  -4  -4  -6   16.48    0.78
  -4  -4  -6   15.50    0.65
  -4  -4  -6   16.59    0.77
  -4  -4  -6   14.95    0.71
   4   4   6   15.46    0.65
   4   4   6   15.81    0.69
   4   4   6   15.53    0.69
   4   4   6   15.19    0.69
  -3  -4  -6    3.17    0.38
  -3  -4  -6    3.49    0.31
  -3  -4  -6    3.84    0.42
  -3  -4  -6    4.13    0.39
   3   4   6    4.60    0.35
   3   4   6    3.72    0.39
  -2  -4  -6    1.85    0.35
  -2  -4  -6    2.63    0.39
  -2  -4  -6    1.84    0.34
  -2  -4  -6    2.06    0.27
  -2  -4  -6    2.05    0.32
  -2  -4  -6    1.74    0.24
   2   4   6    2.26    0.28
   2   4   6    1.33    0.24
   2   4   6    1.63    0.25
   2   4   6    2.16    0.34
   2   4   6    1.49    0.28
  -1  -4  -6    2.37    0.38
  -1  -4  -6    1.84    0.36
  -1  -4  -6    1.43    0.23
  -1  -4  -6    1.32    0.22
   1   4   6    1.53    0.30
   1   4   6    2.14    0.36
   1   4   6    2.10    0.35
   1   4   6    1.58    0.27
   1   4   6    1.63    0.27
   1   4   6    2.02    0.28
   0  -4  -6    1.75    0.31
   0  -4  -6    2.94    0.32
   0  -4  -6    2.15    0.29
   0  -4  -6    2.40    0.44
   0  -4  -6    2.39    0.41
   0  -4  -6    2.54    0.31
   0   4   6    1.87    0.30
   0   4   6    2.18    0.30
   0   4   6    2.26    0.33
   0   4   6    2.43    0.41
   0   4   6    1.83    0.31
   1  -4  -6   33.37    1.41
   1  -4  -6   28.53    1.21
   1  -4  -6   29.90    1.16
   1  -4  -6   28.61    1.14
   1  -4  -6   27.56    1.16
   1  -4  -6   30.50    1.31
  -1   4   6   29.70    1.23
  -1   4   6   29.35    1.17
  -1   4   6   28.80    1.23
  -1   4   6   27.34    1.13
  -1   4   6   26.83    1.16
  -1   4   6   26.43    1.35
   2  -4  -6    4.49    0.56
   2  -4  -6    3.76    0.52
   2  -4  -6    4.40    0.56
   2  -4  -6    4.42    0.54
   2  -4  -6    4.60    0.38
  -2   4   6    4.31    0.39
  -2   4   6    3.22    0.52
  -2   4   6    3.57    0.44
  -2   4   6    4.53    0.49
  -2   4   6    4.53    0.41
   3  -4  -6   38.00    1.55
   3  -4  -6   40.03    1.54
  -3   4   6   41.36    1.55
  -3   4   6   40.28    1.62
   4  -4  -6    5.81    0.47
   4  -4  -6    5.51    0.52
  -4   4   6    6.75    0.51
  -4   4   6    5.53    0.59
   5  -4  -6    2.04    0.36
  -5   4   6    2.21    0.38
  -5   4   6    1.96    0.34
   6   3   6  203.99    7.30
   6   3   6  202.97    6.94
  -5  -3  -6   -0.39    0.21
  -5  -3  -6   -0.25    0.17
   5   3   6   -0.12    0.14
   5   3   6   -0.06    0.16
  -4  -3  -6    5.43    0.38
  -4  -3  -6    5.60    0.33
  -4  -3  -6    5.96    0.50
  -4  -3  -6    6.37    0.40
   4   3   6    5.50    0.36
   4   3   6    5.81    0.42
   4   3   6    6.43    0.41
   4   3   6    6.79    0.39
  -3  -3  -6    1.05    0.22
  -3  -3  -6    0.87    0.22
  -3  -3  -6    1.23    0.20
  -3  -3  -6    0.97    0.17
  -3  -3  -6    0.93    0.16
   3   3   6    0.94    0.18
   3   3   6    1.31    0.24
   3   3   6    1.79    0.31
  -2  -3  -6    9.09    0.46
  -2  -3  -6    6.95    0.44
  -2  -3  -6    7.65    0.55
  -2  -3  -6    8.08    0.49
   2   3   6    7.70    0.48
   2   3   6    8.17    0.45
   2   3   6    9.03    0.50
   2   3   6    7.59    0.47
   2   3   6    8.50    0.43
   2   3   6    8.62    0.51
  -1  -3  -6    2.43    0.26
  -1  -3  -6    2.91    0.38
  -1  -3  -6    2.12    0.26
  -1  -3  -6    2.61    0.40
  -1  -3  -6    2.43    0.33
  -1  -3  -6    2.16    0.34
   1   3   6    2.19    0.31
   1   3   6    2.14    0.26
   1   3   6    2.13    0.26
   1   3   6    2.31    0.35
   1   3   6    2.29    0.33
   1   3   6    2.81    0.35
   0  -3  -6    4.26    0.32
   0  -3  -6    4.52    0.48
   0  -3  -6    4.28    0.40
   0  -3  -6    4.37    0.33
   0  -3  -6    4.76    0.45
   0  -3  -6    4.42    0.45
   0   3   6    4.32    0.36
   0   3   6    4.37    0.34
   0   3   6    4.22    0.40
   0   3   6    4.54    0.43
   0   3   6    4.20    0.43
   0   3   6    4.59    0.41
   1  -3  -6   10.15    0.61
   1  -3  -6    8.99    0.62
   1  -3  -6    9.73    0.51
   1  -3  -6    9.43    0.58
   1  -3  -6    9.48    0.53
   1  -3  -6   10.85    0.63
  -1   3   6   10.95    0.59
  -1   3   6    9.46    0.54
  -1   3   6    9.77    0.56
  -1   3   6   10.20    0.62
  -1   3   6    9.85    0.51
  -1   3   6    9.63    0.59
   2  -3  -6    0.43    0.29
   2  -3  -6    0.15    0.27
   2  -3  -6   -0.06    0.22
   2  -3  -6    0.61    0.27
   2  -3  -6   -0.36    0.21
  -2   3   6    0.70    0.34
  -2   3   6   -0.24    0.23
   3  -3  -6    4.59    0.38
   3  -3  -6    4.05    0.43
   3  -3  -6    4.53    0.50
  -3   3   6    5.20    0.48
  -3   3   6    4.56    0.45
  -3   3   6    4.92    0.41
   4  -3  -6    0.27    0.25
   4  -3  -6    0.04    0.23
  -4   3   6    0.06    0.28
  -4   3   6    0.07    0.23
   5  -3  -6   -0.12    0.27
  -5   3   6    0.27    0.30
  -6  -2  -6    0.20    0.20
   6   2   6    0.56    0.24
   6   2   6    0.51    0.15
  -5  -2  -6    4.12    0.32
  -5  -2  -6    4.02    0.27
  -5  -2  -6    3.83    0.34
   5   2   6    3.96    0.30
   5   2   6    4.12    0.30
   5   2   6    4.04    0.34
   5   2   6    4.46    0.36
  -4  -2  -6    8.18    0.39
  -4  -2  -6    8.41    0.50
  -4  -2  -6    8.24    0.47
   4   2   6    8.79    0.45
   4   2   6    8.00    0.43
   4   2   6    7.53    0.47
   4   2   6    8.25    0.41
  -3  -2  -6   18.91    0.76
  -3  -2  -6   18.33    0.80
  -3  -2  -6   18.30    0.82
  -3  -2  -6   18.88    0.88
  -3  -2  -6   19.23    0.79
  -3  -2  -6   18.45    0.87
   3   2   6   19.91    0.83
   3   2   6   20.12    0.91
   3   2   6   20.28    0.78
   3   2   6   19.17    0.84
  -2  -2  -6    8.42    0.41
  -2  -2  -6    8.71    0.52
  -2  -2  -6    8.45    0.45
  -2  -2  -6    8.84    0.44
  -2  -2  -6    8.37    0.53
  -2  -2  -6    8.53    0.47
   2   2   6    7.79    0.50
   2   2   6    8.37    0.51
   2   2   6    6.66    0.49
   2   2   6    9.26    0.48
   2   2   6    8.07    0.43
   2   2   6    7.54    0.45
  -1  -2  -6   14.76    0.63
  -1  -2  -6   15.80    0.77
  -1  -2  -6   14.70    0.74
  -1  -2  -6   15.65    0.69
  -1  -2  -6   15.86    0.68
  -1  -2  -6   14.94    0.66
   1   2   6   14.41    0.74
   1   2   6   15.00    0.68
   1   2   6   15.40    0.69
   1   2   6   14.37    0.64
   1   2   6   15.69    0.73
   1   2   6   15.09    0.68
   0  -2  -6   15.47    0.71
   0  -2  -6   15.53    0.67
   0  -2  -6   15.47    0.69
   0  -2  -6   14.86    0.78
   0  -2  -6   15.99    0.77
   0  -2  -6   16.06    0.71
   0   2   6   16.18    0.72
   0   2   6   15.83    0.71
   0   2   6   16.16    0.80
   0   2   6   15.48    0.71
   0   2   6   14.58    0.66
   0   2   6   16.34    0.75
   1  -2  -6    3.41    0.38
   1  -2  -6    2.74    0.31
   1  -2  -6    2.77    0.33
   1  -2  -6    2.57    0.41
   1  -2  -6    2.76    0.42
   1  -2  -6    2.20    0.30
  -1   2   6    2.19    0.29
  -1   2   6    2.71    0.35
  -1   2   6    2.67    0.33
  -1   2   6    2.06    0.32
  -1   2   6    3.27    0.41
  -1   2   6    3.23    0.40
   2  -2  -6    3.90    0.42
   2  -2  -6    4.19    0.36
   2  -2  -6    3.16    0.39
   2  -2  -6    3.89    0.36
  -2   2   6    4.24    0.37
  -2   2   6    3.82    0.45
   3  -2  -6   37.22    1.33
   3  -2  -6   35.68    1.36
   3  -2  -6   33.95    1.33
  -3   2   6   32.33    1.41
  -3   2   6   32.94    1.31
  -3   2   6   35.91    1.36
   4  -2  -6   69.76    2.57
   4  -2  -6   72.18    2.58
  -4   2   6   71.57    2.60
  -4   2   6   73.72    2.71
   5  -2  -6    7.53    0.54
  -5   2   6    6.88    0.58
   6  -2  -6    0.31    0.25
  -6   2   6   -0.46    0.33
   7   1   6  115.54    3.98
  -6  -1  -6  163.72    5.82
  -6  -1  -6  163.92    6.29
   6   1   6  161.65    5.93
   6   1   6  169.25    5.64
  -5  -1  -6   56.72    1.88
  -5  -1  -6   54.49    2.18
  -5  -1  -6   53.84    2.02
  -5  -1  -6   54.53    1.93
   5   1   6   54.44    2.05
   5   1   6   54.54    1.95
   5   1   6   54.79    1.89
   5   1   6   53.65    1.94
  -4  -1  -6    1.02    0.21
  -4  -1  -6    1.35    0.21
  -4  -1  -6    1.12    0.21
  -4  -1  -6    1.32    0.20
   4   1   6    0.91    0.17
   4   1   6    1.15    0.20
   4   1   6    1.04    0.19
   4   1   6    1.01    0.18
  -3  -1  -6   30.86    1.34
  -3  -1  -6   33.26    1.24
  -3  -1  -6   32.33    1.18
  -3  -1  -6   32.12    1.26
  -3  -1  -6   32.69    1.15
  -3  -1  -6   32.90    1.19
   3   1   6   30.07    1.25
   3   1   6   30.22    1.26
   3   1   6   33.62    1.38
   3   1   6   30.01    1.16
   3   1   6   29.68    1.21
   3   1   6   30.77    1.19
  -2  -1  -6    9.32    0.44
  -2  -1  -6    7.49    0.55
  -2  -1  -6    8.56    0.57
  -2  -1  -6    9.59    0.47
  -2  -1  -6    9.84    0.48
  -2  -1  -6    9.55    0.50
   2   1   6    8.85    0.48
   2   1   6    9.66    0.54
   2   1   6    8.84    0.55
   2   1   6    9.79    0.48
   2   1   6    9.09    0.45
   2   1   6    9.59    0.51
  -1  -1  -6    0.41    0.20
  -1  -1  -6    0.03    0.16
  -1  -1  -6    0.16    0.15
  -1  -1  -6    0.14    0.14
  -1  -1  -6    0.65    0.25
  -1  -1  -6    0.08    0.14
   1   1   6   -0.10    0.19
   1   1   6    0.06    0.21
   1   1   6    0.03    0.17
   1   1   6    0.20    0.17
   1   1   6   -0.02    0.15
   1   1   6    0.28    0.17
   0  -1  -6    0.46    0.16
   0  -1  -6    1.01    0.18
   0  -1  -6    0.64    0.20
   0  -1  -6    0.46    0.19
   0  -1  -6    0.63    0.21
   0  -1  -6    0.49    0.16
   0   1   6    0.38    0.16
   0   1   6    0.75    0.20
   0   1   6    0.42    0.17
   0   1   6    0.63    0.23
   0   1   6    0.69    0.20
   0   1   6    0.62    0.21
   1  -1  -6   37.22    1.33
   1  -1  -6   35.96    1.35
   1  -1  -6   33.79    1.39
   1  -1  -6   35.09    1.50
   1  -1  -6   35.37    1.30
   1  -1  -6   35.92    1.40
  -1   1   6   33.48    1.50
  -1   1   6   34.55    1.34
  -1   1   6   34.91    1.41
  -1   1   6   36.06    1.35
  -1   1   6   34.16    1.41
  -1   1   6   33.56    1.31
   2  -1  -6   38.30    1.48
   2  -1  -6   39.92    1.50
   2  -1  -6   39.61    1.51
   2  -1  -6   38.79    1.58
  -2   1   6   38.53    1.48
  -2   1   6   40.27    1.52
  -2   1   6   43.00    1.63
  -2   1   6   42.39    1.61
  -2   1   6   39.19    1.52
   3  -1  -6    6.02    0.48
   3  -1  -6    5.25    0.40
   3  -1  -6    6.02    0.45
  -3   1   6    5.40    0.41
  -3   1   6    5.43    0.47
  -3   1   6    5.59    0.51
   4  -1  -6    6.98    0.49
   4  -1  -6    6.90    0.46
  -4   1   6    6.50    0.50
  -4   1   6    6.67    0.54
   5  -1  -6    3.94    0.44
  -5   1   6    3.70    0.49
   6  -1  -6    0.14    0.24
  -6   1   6   -0.59    0.31
   7   0   6    9.17    0.46
   7   0   6    7.79    0.46
  -6   0  -6  109.30    4.19
  -6   0  -6  108.78    3.88
   6   0   6  108.35    3.95
   6   0   6  105.90    3.74
  -5   0  -6    0.25    0.15
  -5   0  -6    0.18    0.14
  -5   0  -6    0.32    0.18
  -5   0  -6    0.28    0.18
   5   0   6   -0.06    0.16
   5   0   6    0.00    0.19
   5   0   6   -0.17    0.17
   5   0   6    0.07    0.16
  -4   0  -6    7.74    0.48
  -4   0  -6    7.47    0.40
  -4   0  -6    7.64    0.47
  -4   0  -6    7.47    0.48
  -4   0  -6    7.26    0.42
  -4   0  -6    8.39    0.43
   4   0   6    7.95    0.48
   4   0   6    7.41    0.41
   4   0   6    7.51    0.47
   4   0   6    7.54    0.42
  -3   0  -6    1.10    0.22
  -3   0  -6    1.30    0.18
  -3   0  -6    1.54    0.24
  -3   0  -6    1.32    0.18
  -3   0  -6    1.34    0.22
  -3   0  -6    1.69    0.31
   3   0   6    1.38    0.21
   3   0   6    1.74    0.33
   3   0   6    1.84    0.29
   3   0   6    1.00    0.20
  -2   0  -6    2.87    0.31
  -2   0  -6    2.22    0.37
  -2   0  -6    2.83    0.33
  -2   0  -6    2.19    0.39
  -2   0  -6    2.39    0.25
  -2   0  -6    2.53    0.25
   2   0   6    2.92    0.35
   2   0   6    3.26    0.32
   2   0   6    2.28    0.35
   2   0   6    2.81    0.27
   2   0   6    2.88    0.28
   2   0   6    2.67    0.40
  -1   0  -6    0.13    0.15
  -1   0  -6   -0.17    0.15
  -1   0  -6   -0.06    0.18
  -1   0  -6    0.09    0.14
  -1   0  -6   -0.12    0.14
  -1   0  -6    0.32    0.21
   1   0   6   -0.13    0.22
   1   0   6    0.08    0.20
   1   0   6   -0.20    0.13
   1   0   6   -0.08    0.14
   1   0   6   -0.11    0.16
   1   0   6    0.16    0.18
   0   0  -6    7.57    0.43
   0   0  -6    7.60    0.47
   0   0  -6    7.39    0.40
   0   0  -6    7.53    0.50
   0   0  -6    7.29    0.48
   0   0  -6    7.08    0.41
   0   0   6    7.69    0.51
   0   0   6    6.98    0.49
   0   0   6    7.42    0.43
   0   0   6    6.85    0.41
   0   0   6    7.54    0.48
   0   0   6    7.82    0.53
   1   0  -6    2.02    0.38
   1   0  -6    2.37    0.30
   1   0  -6    2.08    0.28
   1   0  -6    1.70    0.26
   1   0  -6    2.11    0.28
  -1   0   6    1.76    0.28
  -1   0   6    2.00    0.32
  -1   0   6    2.06    0.30
  -1   0   6    1.22    0.25
  -1   0   6    1.60    0.25
   2   0  -6   53.05    2.22
   2   0  -6   60.14    2.13
   2   0  -6   59.38    2.13
   2   0  -6   56.77    2.07
  -2   0   6   59.03    2.26
  -2   0   6   61.03    2.15
  -2   0   6   58.55    2.15
  -2   0   6   59.29    2.11
  -2   0   6   60.27    2.26
   3   0  -6   33.85    1.33
   3   0  -6   35.36    1.33
   3   0  -6   31.81    1.28
  -3   0   6   33.73    1.41
  -3   0   6   36.74    1.36
  -3   0   6   33.55    1.31
   4   0  -6    4.91    0.44
   4   0  -6    4.90    0.41
  -4   0   6    4.85    0.47
  -4   0   6    3.56    0.45
   5   0  -6    0.90    0.27
  -5   0   6   -0.06    0.30
  -7   1  -6    0.32    0.20
   7  -1   6    0.41    0.17
   7  -1   6    0.41    0.18
  -6   1  -6   13.56    0.76
  -6   1  -6   11.78    0.68
   6  -1   6   13.08    0.64
   6  -1   6   15.36    0.70
  -5   1  -6   18.72    0.86
  -5   1  -6   17.76    0.73
  -5   1  -6   17.77    0.76
  -5   1  -6   18.13    0.81
   5  -1   6   18.39    0.79
   5  -1   6   17.97    0.79
   5  -1   6   18.00    0.76
   5  -1   6   17.67    0.75
  -4   1  -6    0.29    0.15
  -4   1  -6    0.56    0.17
  -4   1  -6    0.59    0.21
  -4   1  -6    0.64    0.17
   4  -1   6    0.76    0.19
   4  -1   6    0.54    0.17
   4  -1   6    0.76    0.19
  -3   1  -6    0.33    0.18
  -3   1  -6    0.42    0.15
  -3   1  -6    0.61    0.16
  -3   1  -6    0.45    0.19
  -3   1  -6    0.43    0.18
   3  -1   6    0.18    0.23
   3  -1   6    0.69    0.20
   3  -1   6    0.38    0.19
   3  -1   6    0.39    0.17
   3  -1   6    0.51    0.16
   3  -1   6    0.56    0.26
  -2   1  -6   26.87    1.20
  -2   1  -6   27.38    1.05
  -2   1  -6   26.21    1.12
  -2   1  -6   26.77    1.03
  -2   1  -6   28.49    1.07
  -2   1  -6   28.12    1.11
   2  -1   6   28.18    1.07
   2  -1   6   26.34    1.03
   2  -1   6   28.10    1.08
   2  -1   6   26.09    1.11
   2  -1   6   27.90    1.16
   2  -1   6   26.18    1.24
  -1   1  -6    0.12    0.14
  -1   1  -6    0.19    0.14
  -1   1  -6    0.25    0.19
  -1   1  -6    0.21    0.15
  -1   1  -6    0.22    0.17
  -1   1  -6    0.20    0.19
   1  -1   6    0.14    0.20
   1  -1   6    0.29    0.22
   1  -1   6    0.45    0.21
   1  -1   6    0.33    0.16
   1  -1   6    0.03    0.23
   1  -1   6    0.07    0.15
   0   1  -6   25.21    1.06
   0   1  -6   24.93    1.01
   0   1  -6   24.57    1.16
   0   1  -6   26.52    1.00
   0   1  -6   26.00    1.03
   0   1  -6   26.78    1.10
   0  -1   6   27.10    1.09
   0  -1   6   25.34    1.11
   0  -1   6   27.00    1.07
   0  -1   6   25.52    1.02
   0  -1   6   23.95    1.18
   0  -1   6   26.12    1.04
   1   1  -6   13.33    0.66
   1   1  -6   11.81    0.65
   1   1  -6   12.53    0.61
   1   1  -6   11.07    0.63
   1   1  -6   11.38    0.56
   1   1  -6   10.66    0.58
  -1  -1   6   11.97    0.63
  -1  -1   6   10.89    0.72
  -1  -1   6   12.43    0.70
  -1  -1   6   10.82    0.59
  -1  -1   6   11.74    0.59
  -1  -1   6   11.63    0.57
   2   1  -6   10.21    0.64
   2   1  -6    9.87    0.58
   2   1  -6   12.20    0.63
   2   1  -6   11.15    0.58
  -2  -1   6   10.65    0.57
  -2  -1   6    9.98    0.65
  -2  -1   6   10.31    0.67
   3   1  -6    0.36    0.23
   3   1  -6    0.14    0.17
   3   1  -6    0.32    0.23
  -3  -1   6   -0.16    0.18
  -3  -1   6   -0.13    0.22
  -3  -1   6   -0.30    0.25
   4   1  -6   24.97    0.97
  -4  -1   6   22.05    1.13
   5   1  -6    3.29    0.38
  -5  -1   6    3.48    0.49
  -7   2  -6   16.81    0.80
   7  -2   6   16.40    0.74
  -6   2  -6   88.30    3.00
  -6   2  -6   85.82    3.21
  -6   2  -6   90.79    3.09
   6  -2   6   88.03    3.03
   6  -2   6   86.39    3.10
   6  -2   6   88.99    3.28
   6  -2   6   86.90    3.10
  -5   2  -6   48.84    1.77
  -5   2  -6   48.47    1.72
  -5   2  -6   47.10    1.86
   5  -2   6   49.57    1.80
   5  -2   6   49.69    1.76
   5  -2   6   47.25    1.78
   5  -2   6   48.37    1.88
  -4   2  -6    0.78    0.20
  -4   2  -6    0.98    0.23
  -4   2  -6    1.05    0.22
  -4   2  -6    0.52    0.19
  -4   2  -6    0.29    0.18
  -4   2  -6    1.22    0.25
   4  -2   6    0.53    0.20
   4  -2   6    0.62    0.18
   4  -2   6    0.43    0.22
   4  -2   6    0.76    0.22
  -3   2  -6    3.36    0.31
  -3   2  -6    3.69    0.30
  -3   2  -6    3.69    0.39
  -3   2  -6    4.16    0.37
  -3   2  -6    3.58    0.33
   3  -2   6    4.13    0.36
   3  -2   6    3.45    0.35
   3  -2   6    3.29    0.47
   3  -2   6    3.55    0.34
   3  -2   6    3.60    0.42
   3  -2   6    3.25    0.42
  -2   2  -6   20.19    0.88
  -2   2  -6   21.58    0.84
  -2   2  -6   20.39    0.85
  -2   2  -6   19.75    0.81
  -2   2  -6   20.70    0.91
  -2   2  -6   19.19    0.95
   2  -2   6   19.59    0.84
   2  -2   6   20.48    0.88
   2  -2   6   21.22    0.98
   2  -2   6   19.66    1.01
   2  -2   6   19.80    0.85
   2  -2   6   19.95    0.89
  -1   2  -6   27.43    1.08
  -1   2  -6   27.43    1.15
  -1   2  -6   27.13    1.23
  -1   2  -6   27.50    1.14
  -1   2  -6   26.99    1.05
  -1   2  -6   28.33    1.10
   1  -2   6   28.48    1.16
   1  -2   6   26.34    1.28
   1  -2   6   26.93    1.09
   1  -2   6   27.70    1.09
   1  -2   6   27.61    1.12
   1  -2   6   28.73    1.21
   0   2  -6   -0.07    0.18
   0   2  -6   -0.22    0.19
   0   2  -6   -0.01    0.20
   0   2  -6    0.07    0.19
   0   2  -6    0.08    0.19
   0  -2   6   -0.03    0.26
   0  -2   6   -0.02    0.17
   0  -2   6   -0.12    0.20
   0  -2   6    0.11    0.19
   0  -2   6   -0.14    0.18
   1   2  -6   10.20    0.54
   1   2  -6   10.74    0.59
   1   2  -6    9.62    0.56
   1   2  -6   10.86    0.56
  -1  -2   6    9.35    0.73
  -1  -2   6    8.84    0.60
  -1  -2   6   11.63    0.64
  -1  -2   6   11.18    0.64
  -1  -2   6   12.19    0.66
   2   2  -6   12.46    0.64
   2   2  -6   11.22    0.61
   2   2  -6   10.40    0.57
  -2  -2   6   11.17    0.59
  -2  -2   6   10.76    0.63
  -2  -2   6   11.51    0.70
   3   2  -6   -0.03    0.20
   3   2  -6   -0.02    0.20
   3   2  -6   -0.01    0.18
  -3  -2   6   -0.07    0.29
  -3  -2   6   -0.12    0.22
  -3  -2   6   -0.14    0.19
   4   2  -6    7.11    0.50
  -4  -2   6    7.40    0.61
   5   2  -6    3.31    0.39
  -5  -2   6    4.19    0.61
  -8   3  -6    2.05    0.34
   8  -3   6    2.32    0.37
  -7   3  -6    6.95    0.53
   7  -3   6    6.71    0.47
  -6   3  -6   39.84    1.47
  -6   3  -6   35.95    1.55
  -6   3  -6   36.01    1.42
   6  -3   6   39.92    1.49
   6  -3   6   38.79    1.47
   6  -3   6   37.22    1.44
  -5   3  -6   19.69    0.94
  -5   3  -6   17.74    0.82
  -5   3  -6   18.00    0.82
   5  -3   6   17.16    0.83
   5  -3   6   18.19    0.85
   5  -3   6   17.62    0.84
   5  -3   6   17.41    0.80
  -4   3  -6   45.45    1.78
  -4   3  -6   47.08    1.69
  -4   3  -6   44.57    1.64
  -4   3  -6   44.87    1.77
  -4   3  -6   45.86    1.68
   4  -3   6   45.30    1.69
   4  -3   6   46.08    1.72
   4  -3   6   41.68    1.78
   4  -3   6   45.27    1.84
   4  -3   6   46.14    1.69
  -3   3  -6   22.44    0.99
  -3   3  -6   24.27    0.96
  -3   3  -6   24.93    1.03
  -3   3  -6   23.28    1.05
  -3   3  -6   22.61    1.11
  -3   3  -6   25.52    1.00
   3  -3   6   24.02    0.99
   3  -3   6   24.38    1.02
   3  -3   6   24.29    1.04
   3  -3   6   24.12    0.99
   3  -3   6   24.46    1.27
   3  -3   6   24.38    1.14
  -2   3  -6    4.54    0.43
  -2   3  -6    4.13    0.39
  -2   3  -6    3.90    0.45
  -2   3  -6    3.99    0.34
  -2   3  -6    4.01    0.41
  -2   3  -6    4.04    0.36
   2  -3   6    4.75    0.61
   2  -3   6    4.41    0.36
   2  -3   6    4.58    0.45
   2  -3   6    4.71    0.37
   2  -3   6    4.73    0.41
  -1   3  -6   10.97    0.67
  -1   3  -6   11.51    0.58
  -1   3  -6   12.84    0.63
  -1   3  -6   11.71    0.67
  -1   3  -6   13.17    0.66
  -1   3  -6   11.41    0.62
   1  -3   6   11.98    0.61
   1  -3   6   12.39    0.66
   1  -3   6   12.64    0.82
   1  -3   6   11.75    0.62
   1  -3   6   12.08    0.62
   0   3  -6    3.54    0.39
   0   3  -6    3.45    0.41
   0   3  -6    3.25    0.36
   0   3  -6    2.79    0.42
   0   3  -6    3.80    0.35
   0  -3   6    3.52    0.47
   0  -3   6    4.93    0.48
   0  -3   6    4.35    0.63
   0  -3   6    4.27    0.41
   1   3  -6    0.20    0.19
  -1  -3   6    0.00    0.21
  -1  -3   6   -0.07    0.31
  -1  -3   6    0.26    0.21
  -1  -3   6   -0.04    0.24
   2   3  -6    4.83    0.44
   2   3  -6    6.17    0.47
   2   3  -6    4.84    0.39
  -2  -3   6    5.28    0.54
  -2  -3   6    5.21    0.41
  -2  -3   6    5.19    0.47
   3   3  -6    2.49    0.39
   3   3  -6    2.46    0.34
  -3  -3   6    1.47    0.53
  -3  -3   6    3.06    0.48
   4   3  -6    1.79    0.31
  -4  -3   6    2.23    0.41
   5   3  -6    1.58    0.29
  -5  -3   6    1.72    0.41
  -8   4  -6    1.77    0.35
   8  -4   6    1.79    0.30
  -7   4  -6    1.17    0.32
  -6   4  -6   18.16    0.91
  -6   4  -6   19.07    0.85
   6  -4   6   18.51    0.84
   6  -4   6   18.82    0.88
  -5   4  -6   30.23    1.19
  -5   4  -6   29.71    1.22
  -5   4  -6   31.42    1.32
   5  -4   6   30.95    1.26
   5  -4   6   29.97    1.22
   5  -4   6   29.48    1.22
  -4   4  -6   68.76    2.56
  -4   4  -6   72.04    2.68
  -4   4  -6   68.28    2.48
  -4   4  -6   71.00    2.70
  -4   4  -6   73.90    2.57
   4  -4   6   69.68    2.55
   4  -4   6   69.32    2.51
   4  -4   6   70.67    2.72
   4  -4   6   71.84    2.58
  -3   4  -6   35.78    1.40
  -3   4  -6   34.74    1.39
  -3   4  -6   39.51    1.54
  -3   4  -6   35.97    1.50
  -3   4  -6   34.92    1.39
   3  -4   6   35.84    1.56
   3  -4   6   36.18    1.44
   3  -4   6   34.43    1.47
   3  -4   6   34.91    1.39
   3  -4   6   38.15    1.48
   3  -4   6   33.82    1.67
  -2   4  -6    5.46    0.47
  -2   4  -6    5.50    0.51
  -2   4  -6    4.92    0.49
   2  -4   6    4.89    0.57
   2  -4   6    4.58    0.43
   2  -4   6    5.36    0.44
   2  -4   6    5.02    0.62
  -1   4  -6   35.44    1.47
  -1   4  -6   33.89    1.38
  -1   4  -6   33.13    1.55
  -1   4  -6   37.03    1.47
  -1   4  -6   36.55    1.38
  -1   4  -6   37.08    1.39
   1  -4   6   34.24    1.38
   1  -4   6   35.46    1.43
   1  -4   6   35.28    1.55
   1  -4   6   35.65    1.38
   1  -4   6   35.03    1.46
   0   4  -6   16.57    0.77
   0   4  -6   20.13    0.84
   0   4  -6   17.59    0.88
   0  -4   6   16.49    0.84
   0  -4   6   18.00    0.82
   0  -4   6   16.95    0.84
   0  -4   6   14.95    0.82
   1   4  -6    1.91    0.31
  -1  -4   6    2.02    0.40
  -1  -4   6    1.96    0.30
   2   4  -6    7.56    0.52
   2   4  -6    7.36    0.49
  -2  -4   6    7.38    0.65
  -2  -4   6    7.56    0.55
  -3  -4   6   -0.15    0.37
   4   4  -6    9.16    0.57
  -4  -4   6   10.11    0.82
  -8   5  -6    6.84    0.58
   8  -5   6    6.45    0.52
  -7   5  -6   -0.39    0.30
  -7   5  -6    0.20    0.28
   7  -5   6    0.05    0.25
   7  -5   6    0.03    0.27
  -6   5  -6    1.34    0.30
  -6   5  -6    1.13    0.33
   6  -5   6    1.03    0.27
   6  -5   6    1.05    0.34
  -5   5  -6   -0.41    0.28
  -5   5  -6   -0.26    0.25
   5  -5   6   -0.33    0.25
   5  -5   6   -0.39    0.23
  -4   5  -6    3.52    0.45
  -4   5  -6    3.60    0.42
  -4   5  -6    4.81    0.45
  -4   5  -6    3.30    0.51
   4  -5   6    3.44    0.46
   4  -5   6    3.62    0.42
   4  -5   6    4.03    0.61
  -3   5  -6   53.00    1.98
  -3   5  -6   54.73    2.09
  -3   5  -6   50.25    2.08
  -3   5  -6   53.20    1.98
   3  -5   6   52.61    2.15
   3  -5   6   52.07    1.97
   3  -5   6   52.71    2.00
  -2   5  -6    0.09    0.25
  -2   5  -6    0.19    0.25
   2  -5   6    0.20    0.24
   2  -5   6   -0.10    0.34
   2  -5   6    0.69    0.30
  -1   5  -6   20.81    0.87
  -1   5  -6   16.90    0.85
  -1   5  -6   17.22    0.89
   1  -5   6   17.20    0.87
   1  -5   6   17.31    0.83
   1  -5   6   17.24    0.86
   1  -5   6   18.26    1.00
   0   5  -6    0.08    0.23
   0   5  -6    0.19    0.25
   0  -5   6    0.06    0.34
   0  -5   6    0.08    0.26
   0  -5   6   -0.06    0.21
   1   5  -6    1.49    0.29
   1   5  -6    1.18    0.27
  -1  -5   6    1.44    0.43
  -1  -5   6    1.46    0.32
   2   5  -6    1.63    0.35
   2   5  -6    0.63    0.30
  -2  -5   6    1.24    0.32
  -2  -5   6    1.22    0.42
   3   5  -6    1.19    0.30
  -3  -5   6    1.44    0.45
  -7   6  -6   -0.35    0.31
  -7   6  -6   -0.18    0.28
   7  -6   6    0.06    0.31
   7  -6   6   -0.07    0.27
  -6   6  -6    3.51    0.50
  -6   6  -6    2.77    0.51
   6  -6   6    2.58    0.42
   6  -6   6    2.35    0.39
  -5   6  -6   32.09    1.49
  -5   6  -6   34.31    1.36
   5  -6   6   31.90    1.37
   5  -6   6   32.28    1.40
  -4   6  -6   30.53    1.35
  -4   6  -6   30.13    1.26
  -4   6  -6   29.83    1.24
   4  -6   6   29.86    1.25
   4  -6   6   29.77    1.29
   4  -6   6   31.04    1.50
  -3   6  -6    9.48    0.61
  -3   6  -6    9.79    0.68
  -3   6  -6    9.83    0.63
   3  -6   6   10.28    0.61
   3  -6   6   10.67    0.89
   3  -6   6   10.26    0.67
  -2   6  -6    3.13    0.44
  -2   6  -6    3.30    0.49
  -2   6  -6    3.61    0.43
   2  -6   6    3.89    0.50
   2  -6   6    2.94    0.50
   2  -6   6    3.63    0.43
  -1   6  -6   -0.17    0.25
  -1   6  -6    0.06    0.25
   1  -6   6   -0.02    0.25
   1  -6   6   -0.07    0.28
   1  -6   6   -0.22    0.43
   0   6  -6    1.74    0.32
   0   6  -6    2.16    0.39
   0  -6   6    1.87    0.39
   0  -6   6    1.54    0.45
   1   6  -6   18.98    0.91
   1   6  -6   17.96    0.89
  -1  -6   6   18.17    1.04
  -1  -6   6   18.52    0.93
   2   6  -6    4.18    0.47
   2   6  -6    4.37    0.46
  -2  -6   6    4.58    0.53
  -6   7  -6    4.70    0.61
  -6   7  -6    5.24    0.55
   6  -7   6    5.20    0.53
   6  -7   6    6.12    0.67
  -5   7  -6    0.28    0.30
  -5   7  -6    0.08    0.33
   5  -7   6    0.27    0.32
   5  -7   6    0.31    0.30
  -4   7  -6    4.71    0.60
  -4   7  -6    5.69    0.61
  -4   7  -6    5.24    0.62
   4  -7   6    5.94    0.76
   4  -7   6    6.14    0.60
   4  -7   6    6.16    0.53
  -3   7  -6    0.60    0.33
  -3   7  -6   -0.15    0.30
  -3   7  -6    0.15    0.34
   3  -7   6    0.37    0.45
   3  -7   6    1.40    0.39
   3  -7   6    0.56    0.31
  -2   7  -6   -0.01    0.29
  -2   7  -6   -0.18    0.33
  -2   7  -6   -0.16    0.28
   2  -7   6    0.37    0.34
   2  -7   6    0.25    0.43
   2  -7   6   -0.01    0.27
  -1   7  -6   17.30    0.90
  -1   7  -6   17.96    0.92
   1  -7   6   17.71    1.08
   1  -7   6   17.92    0.93
   0   7  -6    6.07    0.54
   0   7  -6    6.15    0.54
   0  -7   6    6.30    0.59
   0  -7   6    5.11    0.70
   1   7  -6    3.31    0.48
   1   7  -6    3.83    0.48
  -1  -7   6    4.09    0.60
  -1  -7   6    3.47    0.66
  -4   8  -6    4.45    0.53
  -4   8  -6    4.87    0.55
   4  -8   6    3.86    0.64
   4  -8   6    5.08    0.56
  -3   8  -6    3.38    0.60
  -3   8  -6    4.09    0.50
  -3   8  -6    4.04    0.50
   3  -8   6    3.74    0.55
   3  -8   6    3.48    0.58
   3  -8   6    3.57    0.60
  -2   8  -6    0.22    0.33
  -2   8  -6    0.23    0.31
   2  -8   6   -0.03    0.45
   2  -8   6    0.40    0.35
   2  -8   6    0.14    0.39
  -1   8  -6    0.32    0.33
  -1   8  -6    0.53    0.32
   1  -8   6    0.40    0.48
   1  -8   6    0.13    0.40
   4   9   7   14.61    0.76
   3   9   7   -0.01    0.27
   2   9   7    0.05    0.31
   2   9   7    0.04    0.27
   1   9   7    1.45    0.35
   1   9   7    1.40    0.37
   0   9   7    0.83    0.33
   0   9   7    1.00    0.36
  -1   9   7    3.22    0.49
   5   8   7    0.24    0.26
   4   8   7    3.25    0.43
   3   8   7    1.85    0.32
   2   8   7   54.84    2.10
   2   8   7   55.58    2.09
   1   8   7   37.20    1.53
   1   8   7   38.66    1.56
   0   8   7    5.21    0.62
   0   8   7    6.66    0.60
  -1   8   7    0.05    0.31
  -1   8   7    0.03    0.29
  -1   8   7    0.19    0.31
  -2   8   7    0.48    0.33
  -2   8   7    0.96    0.41
  -2   8   7    0.17    0.31
   5   7   7    3.82    0.40
   4   7   7    3.36    0.39
   3   7   7    1.12    0.28
   3   7   7    1.23    0.28
   2   7   7   24.14    1.04
   2   7   7   24.88    1.06
   1   7   7   16.60    0.81
   1   7   7   15.90    0.81
   0   7   7    1.12    0.30
   0   7   7    1.12    0.31
  -1   7   7    0.26    0.29
  -1   7   7    0.81    0.32
  -1   7   7    0.68    0.31
  -2   7   7    2.16    0.38
  -2   7   7    2.39    0.39
  -2   7   7    2.53    0.48
  -3   7   7    1.32    0.36
  -3   7   7    1.05    0.36
   6   6   7    0.40    0.24
  -5  -6  -7    2.07    0.35
   5   6   7    2.40    0.35
   4   6   7    0.04    0.22
  -3  -6  -7    4.20    0.48
  -3  -6  -7    3.64    0.35
   3   6   7    3.07    0.33
   3   6   7    3.70    0.41
   3   6   7    3.13    0.40
   2   6   7    1.69    0.30
   2   6   7    1.90    0.32
   2   6   7    1.73    0.31
  -1  -6  -7   29.20    1.20
  -1  -6  -7   28.96    1.26
   1   6   7   29.56    1.23
   1   6   7   30.57    1.24
   0  -6  -7    9.04    0.57
   0   6   7    8.60    0.62
   0   6   7    9.14    0.58
   0   6   7    9.15    0.60
   1  -6  -7   16.73    0.81
   1  -6  -7   16.70    0.94
  -1   6   7   17.39    0.88
  -1   6   7   16.07    0.83
  -1   6   7   16.84    0.83
   2  -6  -7    7.76    0.75
   2  -6  -7    9.14    0.58
   2  -6  -7    8.18    0.57
  -2   6   7    8.36    0.61
  -2   6   7    7.55    0.65
   3  -6  -7    2.37    0.44
  -3   6   7    3.07    0.49
  -3   6   7    2.46    0.46
   4  -6  -7    1.28    0.36
   4  -6  -7    1.92    0.36
  -4   6   7    1.07    0.39
  -4   6   7    1.21    0.35
   6   5   7    5.07    0.39
  -5  -5  -7    9.98    0.63
   5   5   7   10.15    0.55
   5   5   7   10.24    0.54
  -4  -5  -7   50.75    1.83
  -4  -5  -7   49.35    1.93
  -4  -5  -7   48.44    1.76
   4   5   7   50.54    1.81
   4   5   7   49.10    1.82
   4   5   7   47.26    1.90
  -3  -5  -7    0.07    0.17
  -3  -5  -7    0.41    0.31
   3   5   7   -0.11    0.18
   3   5   7    0.40    0.36
   3   5   7    0.14    0.19
  -2  -5  -7   69.49    2.65
  -2  -5  -7   70.31    2.66
  -2  -5  -7   67.13    2.45
  -2  -5  -7   73.99    2.52
  -2  -5  -7   70.60    2.54
   2   5   7   68.62    2.54
   2   5   7   68.57    2.45
   2   5   7   74.17    2.55
   2   5   7   65.66    2.65
  -1  -5  -7  144.59    5.18
  -1  -5  -7  145.84    4.96
  -1  -5  -7  144.55    5.24
  -1  -5  -7  136.03    4.95
  -1  -5  -7  137.40    4.82
   1   5   7  144.17    4.99
   1   5   7  148.05    5.13
   1   5   7  149.84    4.97
   1   5   7  137.26    5.57
   1   5   7  141.87    5.25
   1   5   7  138.69    4.82
   0  -5  -7   32.90    1.44
   0  -5  -7   32.58    1.36
   0  -5  -7   30.55    1.30
   0  -5  -7   32.39    1.30
   0   5   7   32.44    1.37
   0   5   7   33.54    1.32
   0   5   7   34.14    1.33
   1  -5  -7   -0.12    0.26
   1  -5  -7   -0.52    0.28
   1  -5  -7   -0.07    0.30
  -1   5   7    0.23    0.27
  -1   5   7    0.24    0.28
  -1   5   7    0.31    0.27
   2  -5  -7   11.86    0.68
   2  -5  -7   12.11    0.66
   2  -5  -7   12.03    0.79
  -2   5   7   12.27    0.69
  -2   5   7   12.27    0.67
  -2   5   7   11.93    0.72
   3  -5  -7    0.36    0.32
   3  -5  -7   -0.05    0.27
  -3   5   7    0.05    0.32
   4  -5  -7    0.30    0.31
   4  -5  -7    0.71    0.31
  -4   5   7    0.48    0.31
  -4   5   7    0.47    0.33
   6   4   7    1.33    0.22
   6   4   7    1.51    0.25
  -5  -4  -7    1.74    0.30
   5   4   7    1.02    0.22
  -4  -4  -7    7.73    0.40
  -4  -4  -7    7.31    0.60
   4   4   7    6.08    0.40
   4   4   7    5.37    0.46
  -3  -4  -7   24.91    1.03
  -3  -4  -7   25.17    1.15
  -3  -4  -7   24.37    0.98
   3   4   7   24.61    0.98
   3   4   7   25.51    1.02
   3   4   7   23.75    1.00
   3   4   7   24.61    1.05
  -2  -4  -7    1.09    0.22
  -2  -4  -7    1.10    0.21
  -2  -4  -7    0.65    0.24
  -2  -4  -7    1.08    0.25
   2   4   7    1.05    0.23
   2   4   7    1.07    0.25
   2   4   7    0.89    0.25
  -1  -4  -7   11.42    0.61
  -1  -4  -7   10.10    0.61
  -1  -4  -7   10.90    0.60
  -1  -4  -7   10.31    0.56
  -1  -4  -7   12.81    0.80
   1   4   7   10.88    0.57
   1   4   7   10.63    0.60
   1   4   7   10.84    0.62
   1   4   7   11.33    0.61
   1   4   7   10.57    0.66
   0  -4  -7    7.08    0.46
   0  -4  -7    6.66    0.62
   0  -4  -7    6.37    0.46
   0  -4  -7    7.38    0.60
   0   4   7    5.28    0.46
   0   4   7    5.63    0.48
   0   4   7    6.51    0.55
   1  -4  -7   33.90    1.38
   1  -4  -7   35.47    1.37
   1  -4  -7   34.60    1.49
  -1   4   7   33.47    1.37
  -1   4   7   33.16    1.43
  -1   4   7   35.17    1.44
  -1   4   7   34.10    1.37
   2  -4  -7    1.95    0.37
   2  -4  -7    1.82    0.30
   2  -4  -7    2.15    0.34
  -2   4   7    1.93    0.31
  -2   4   7    1.77    0.31
  -2   4   7    1.98    0.35
  -2   4   7    1.99    0.36
   3  -4  -7    3.58    0.41
   3  -4  -7    3.81    0.47
  -3   4   7    2.45    0.48
   4  -4  -7    0.11    0.30
   4  -4  -7   -0.43    0.32
  -4   4   7    0.12    0.31
  -4   4   7    0.30    0.29
  -5   4   7    0.01    0.32
  -6  -3  -7    0.41    0.20
   6   3   7    0.07    0.18
   6   3   7    0.24    0.15
  -5  -3  -7   -0.13    0.20
  -5  -3  -7    0.20    0.24
   5   3   7    0.38    0.18
  -4  -3  -7    0.45    0.19
  -4  -3  -7    0.62    0.29
   4   3   7    0.25    0.19
   4   3   7    0.14    0.19
  -3  -3  -7    1.35    0.21
  -3  -3  -7    2.50    0.39
  -3  -3  -7    1.75    0.29
  -3  -3  -7    1.39    0.21
  -3  -3  -7    1.45    0.27
  -3  -3  -7    2.06    0.24
   3   3   7    1.36    0.25
   3   3   7    2.14    0.28
   3   3   7    1.70    0.26
   3   3   7    1.52    0.24
  -2  -3  -7   12.10    0.61
  -2  -3  -7   12.16    0.68
  -2  -3  -7   11.45    0.67
  -2  -3  -7   12.13    0.63
  -2  -3  -7   11.76    0.57
  -2  -3  -7   11.79    0.67
   2   3   7   12.48    0.64
   2   3   7   12.49    0.62
   2   3   7   12.80    0.66
   2   3   7   13.26    0.70
   2   3   7   13.55    0.65
   2   3   7   11.99    0.57
  -1  -3  -7  162.79    5.86
  -1  -3  -7  157.78    5.48
  -1  -3  -7  160.60    6.33
  -1  -3  -7  164.55    5.64
  -1  -3  -7  167.49    5.64
  -1  -3  -7  167.55    5.97
   1   3   7  170.72    5.84
   1   3   7  165.94    5.97
   1   3   7  159.42    6.34
   1   3   7  158.81    5.66
   1   3   7  164.67    5.49
   1   3   7  163.40    5.64
   0  -3  -7  115.54    4.13
   0  -3  -7  119.05    4.67
   0  -3  -7  123.26    4.33
   0  -3  -7  120.37    4.38
   0  -3  -7  120.88    4.15
   0  -3  -7  113.80    4.03
   0   3   7  116.93    4.04
   0   3   7  125.25    4.31
   0   3   7  111.43    4.66
   0   3   7  120.24    4.39
   0   3   7  116.28    4.14
   0   3   7  119.16    4.15
   1  -3  -7    5.49    0.43
   1  -3  -7    6.45    0.58
   1  -3  -7    5.93    0.45
   1  -3  -7    6.79    0.66
   1  -3  -7    6.67    0.60
  -1   3   7    6.72    0.48
  -1   3   7    7.04    0.57
  -1   3   7    6.06    0.44
   2  -3  -7    3.26    0.41
   2  -3  -7    2.79    0.45
  -2   3   7    2.48    0.35
  -2   3   7    2.18    0.40
  -2   3   7    2.27    0.42
  -2   3   7    2.32    0.38
   3  -3  -7    0.21    0.23
   3  -3  -7   -0.06    0.23
  -3   3   7    0.06    0.24
  -3   3   7   -0.09    0.27
   4  -3  -7   12.86    0.67
   4  -3  -7   10.23    0.70
  -4   3   7   12.41    0.67
  -4   3   7   11.60    0.71
   5  -3  -7    1.47    0.31
  -5   3   7    2.13    0.41
   7   2   7    1.75    0.29
  -6  -2  -7   18.79    0.86
  -6  -2  -7   19.67    0.91
   6   2   7   20.98    0.85
   6   2   7   20.19    0.82
  -5  -2  -7    5.40    0.43
  -5  -2  -7    6.18    0.43
  -5  -2  -7    4.54    0.38
   5   2   7    4.94    0.43
   5   2   7    5.70    0.44
  -4  -2  -7    0.13    0.14
  -4  -2  -7    0.32    0.18
  -4  -2  -7    0.30    0.20
  -4  -2  -7    0.30    0.20
   4   2   7    0.10    0.16
   4   2   7    0.22    0.19
   4   2   7    0.45    0.18
   4   2   7    0.36    0.19
  -3  -2  -7   -0.28    0.16
  -3  -2  -7    0.03    0.18
  -3  -2  -7    0.31    0.20
  -3  -2  -7    0.13    0.17
  -3  -2  -7    0.24    0.17
   3   2   7    0.38    0.21
   3   2   7    0.07    0.22
   3   2   7    0.26    0.18
   3   2   7    0.13    0.17
  -2  -2  -7    0.45    0.18
  -2  -2  -7    0.77    0.22
  -2  -2  -7    0.92    0.22
  -2  -2  -7    0.59    0.19
  -2  -2  -7    0.73    0.20
   2   2   7    1.03    0.23
   2   2   7    0.74    0.22
   2   2   7    0.88    0.25
   2   2   7    1.03    0.23
   2   2   7    0.95    0.23
  -1  -2  -7   49.36    1.89
  -1  -2  -7   48.25    2.02
  -1  -2  -7   49.30    1.79
  -1  -2  -7   48.29    1.89
  -1  -2  -7   48.78    1.75
  -1  -2  -7   48.41    1.80
   1   2   7   47.02    1.89
   1   2   7   49.12    1.81
   1   2   7   49.00    1.76
   1   2   7   47.09    2.03
   1   2   7   50.12    1.88
   1   2   7   48.85    1.81
   0  -2  -7   18.45    0.96
   0  -2  -7   18.63    0.84
   0  -2  -7   18.81    0.82
   0  -2  -7   17.97    0.93
   0  -2  -7   18.16    0.79
   0  -2  -7   17.97    0.82
   0   2   7   19.36    0.86
   0   2   7   18.95    0.81
   0   2   7   19.06    0.86
   0   2   7   18.61    0.89
   0   2   7   21.13    1.02
   0   2   7   18.43    0.83
   1  -2  -7   25.38    1.15
   1  -2  -7   25.73    1.05
   1  -2  -7   26.24    1.07
   1  -2  -7   24.82    1.09
   1  -2  -7   27.63    1.13
   1  -2  -7   25.42    1.21
  -1   2   7   30.25    1.16
  -1   2   7   25.05    1.15
  -1   2   7   25.14    1.11
  -1   2   7   24.25    1.05
  -1   2   7   24.60    1.11
   2  -2  -7    1.63    0.30
  -2   2   7    1.29    0.31
  -2   2   7    1.50    0.26
  -2   2   7    1.25    0.25
  -2   2   7    0.90    0.28
   3  -2  -7    0.59    0.24
   3  -2  -7    0.52    0.23
  -3   2   7    0.34    0.29
  -3   2   7    0.15    0.25
   4  -2  -7    0.38    0.27
   4  -2  -7    0.28    0.28
  -4   2   7    0.28    0.31
  -4   2   7    0.13    0.27
   5  -2  -7    4.66    0.45
  -5   2   7    3.95    0.57
   7   1   7    2.28    0.30
  -6  -1  -7   13.40    0.68
   6   1   7   13.05    0.62
   6   1   7   12.98    0.63
  -5  -1  -7    1.95    0.27
  -5  -1  -7    1.71    0.23
  -5  -1  -7    2.20    0.43
  -5  -1  -7    1.55    0.29
  -4  -1  -7  105.19    3.78
  -4  -1  -7  104.37    4.09
  -4  -1  -7  107.05    3.63
  -4  -1  -7  105.45    3.53
   4   1   7  104.59    3.63
   4   1   7  102.71    3.84
   4   1   7  106.01    3.55
   4   1   7  100.53    3.64
  -3  -1  -7    4.85    0.36
  -3  -1  -7    5.23    0.38
  -3  -1  -7    6.08    0.43
  -3  -1  -7    5.28    0.50
  -3  -1  -7    5.12    0.40
  -3  -1  -7    5.24    0.34
   3   1   7    5.43    0.46
   3   1   7    5.76    0.40
   3   1   7    5.87    0.38
   3   1   7    5.87    0.43
   3   1   7    5.18    0.46
  -2  -1  -7    1.17    0.24
  -2  -1  -7    0.89    0.19
  -2  -1  -7    1.25    0.22
  -2  -1  -7    1.31    0.23
  -2  -1  -7    1.07    0.19
  -2  -1  -7    1.01    0.27
   2   1   7    1.66    0.29
   2   1   7    0.93    0.23
   2   1   7    1.35    0.23
   2   1   7    1.19    0.28
   2   1   7    1.00    0.24
   2   1   7    1.06    0.24
  -1  -1  -7    2.54    0.30
  -1  -1  -7    1.83    0.28
  -1  -1  -7    1.89    0.30
  -1  -1  -7    2.33    0.32
  -1  -1  -7    3.08    0.39
  -1  -1  -7    2.18    0.37
   1   1   7    2.46    0.31
   1   1   7    2.35    0.30
   1   1   7    1.96    0.36
   1   1   7    1.68    0.30
   1   1   7    2.83    0.32
   0  -1  -7   73.77    2.59
   0  -1  -7   74.55    2.77
   0  -1  -7   74.16    2.80
   0  -1  -7   73.27    2.99
   0  -1  -7   73.99    2.65
   0  -1  -7   74.86    2.64
   0   1   7   76.69    2.66
   0   1   7   71.78    3.02
   0   1   7   72.30    2.77
   0   1   7   75.71    2.81
   0   1   7   73.48    2.59
   0   1   7   75.31    2.65
   1  -1  -7    0.43    0.25
   1  -1  -7    0.85    0.25
   1  -1  -7    0.96    0.27
   1  -1  -7    0.84    0.28
  -1   1   7    0.73    0.30
   2  -1  -7    0.98    0.28
  -2   1   7    1.60    0.33
  -2   1   7    1.50    0.29
  -2   1   7    2.43    0.37
   3  -1  -7   -0.01    0.21
   3  -1  -7    0.18    0.23
  -3   1   7   -0.19    0.28
  -3   1   7    0.02    0.24
   4  -1  -7    2.41    0.43
   4  -1  -7    1.60    0.32
  -4   1   7    2.50    0.42
  -4   1   7    2.64    0.48
   5  -1  -7   11.40    0.63
  -5   1   7   11.23    0.76
  -7   0  -7    0.16    0.20
   7   0   7    0.13    0.17
   7   0   7    0.17    0.16
  -6   0  -7    4.46    0.44
   6   0   7    3.52    0.38
   6   0   7    4.48    0.38
  -5   0  -7    3.27    0.31
  -5   0  -7    2.92    0.34
  -5   0  -7    3.16    0.37
   5   0   7    4.06    0.42
   5   0   7    2.47    0.38
   5   0   7    3.77    0.43
  -4   0  -7   -0.03    0.16
  -4   0  -7    0.06    0.20
  -4   0  -7    0.12    0.19
  -4   0  -7    0.12    0.19
  -4   0  -7   -0.18    0.15
  -4   0  -7    0.15    0.16
   4   0   7   -0.27    0.15
   4   0   7    0.07    0.16
   4   0   7   -0.06    0.19
   4   0   7    0.00    0.18
  -3   0  -7   24.61    1.02
  -3   0  -7   25.25    0.99
  -3   0  -7   25.16    1.00
  -3   0  -7   24.62    1.05
  -3   0  -7   25.06    1.14
  -3   0  -7   25.47    1.09
   3   0   7   25.59    1.10
   3   0   7   24.78    1.00
   3   0   7   26.69    1.06
   3   0   7   26.34    1.03
   3   0   7   25.35    1.18
   3   0   7   25.08    1.06
  -2   0  -7    9.02    0.58
  -2   0  -7    7.30    0.43
  -2   0  -7    8.15    0.51
  -2   0  -7    7.80    0.48
  -2   0  -7    8.05    0.52
  -2   0  -7    7.15    0.45
   2   0   7    7.26    0.53
   2   0   7    7.52    0.47
   2   0   7    7.82    0.56
   2   0   7    7.64    0.47
   2   0   7    7.89    0.56
   2   0   7    7.70    0.50
  -1   0  -7   15.96    0.72
  -1   0  -7   16.01    0.82
  -1   0  -7   16.19    0.78
  -1   0  -7   16.89    0.80
  -1   0  -7   16.67    0.76
  -1   0  -7   16.66    0.76
   1   0   7   17.62    0.89
   1   0   7   15.66    0.73
   1   0   7   15.29    0.79
   1   0   7   17.61    0.86
   1   0   7   16.30    0.77
   1   0   7   17.63    0.76
   0   0  -7    0.70    0.28
   0   0  -7    0.04    0.20
   0   0  -7    0.33    0.20
   0   0  -7    0.00    0.18
   0   0  -7    0.05    0.17
   0   0   7    0.16    0.22
   0   0   7    0.42    0.22
   0   0   7   -0.03    0.21
   0   0   7    0.11    0.25
   0   0   7    0.58    0.30
   1   0  -7    9.32    0.61
   1   0  -7   10.83    0.59
   1   0  -7   10.82    0.56
   1   0  -7   10.85    0.66
   1   0  -7   11.09    0.67
  -1   0   7    9.85    0.57
  -1   0   7   11.79    0.69
  -1   0   7   10.89    0.61
  -1   0   7   11.35    0.69
  -1   0   7   10.25    0.60
   2   0  -7    8.04    0.61
   2   0  -7   10.47    0.60
  -2   0   7   10.65    0.61
  -2   0   7   10.36    0.64
   3   0  -7    0.64    0.23
   3   0  -7    0.48    0.24
  -3   0   7    0.48    0.26
  -3   0   7   -0.21    0.33
   4   0  -7   18.74    0.87
  -4   0   7   19.47    0.97
   5   0  -7   10.06    0.59
  -5   0   7    9.80    0.71
   8  -1   7    0.17    0.23
  -7   1  -7    1.75    0.29
   7  -1   7    2.04    0.33
  -6   1  -7  101.00    3.67
  -6   1  -7  102.28    3.51
   6  -1   7  103.08    3.55
   6  -1   7   97.86    3.53
   6  -1   7   99.49    3.73
  -5   1  -7   16.20    0.81
  -5   1  -7   13.31    0.67
  -5   1  -7   12.65    0.65
   5  -1   7   14.55    0.73
   5  -1   7   13.56    0.67
   5  -1   7   13.71    0.65
   5  -1   7   12.47    0.74
  -4   1  -7    6.77    0.43
  -4   1  -7    7.19    0.47
  -4   1  -7    6.39    0.42
  -4   1  -7    6.30    0.40
  -4   1  -7    6.65    0.51
   4  -1   7    6.08    0.44
   4  -1   7    6.46    0.44
  -3   1  -7    0.43    0.18
  -3   1  -7    0.41    0.24
  -3   1  -7    0.48    0.21
  -3   1  -7    0.51    0.19
  -3   1  -7    0.62    0.22
  -3   1  -7    0.51    0.22
   3  -1   7    0.54    0.20
   3  -1   7    0.78    0.32
   3  -1   7    0.39    0.22
   3  -1   7    0.53    0.23
   3  -1   7    0.54    0.31
   3  -1   7    0.63    0.19
  -2   1  -7    0.43    0.19
  -2   1  -7    0.46    0.22
  -2   1  -7    0.41    0.18
  -2   1  -7   -0.09    0.24
  -2   1  -7    0.06    0.22
  -2   1  -7    0.28    0.21
   2  -1   7    0.78    0.29
   2  -1   7   -0.14    0.30
   2  -1   7    0.27    0.18
   2  -1   7    0.26    0.18
   2  -1   7    0.33    0.21
   2  -1   7    0.41    0.22
  -1   1  -7   11.17    0.57
  -1   1  -7   10.80    0.67
  -1   1  -7   11.28    0.61
  -1   1  -7   10.64    0.59
  -1   1  -7   12.71    0.61
  -1   1  -7   13.49    0.68
   1  -1   7   11.31    0.61
   1  -1   7   11.97    0.77
   1  -1   7   10.73    0.58
   1  -1   7   11.50    0.84
   1  -1   7   11.10    0.64
   1  -1   7   11.28    0.61
   0   1  -7    0.48    0.22
   0   1  -7    0.10    0.19
   0   1  -7   -0.01    0.20
   0  -1   7    0.10    0.29
   0  -1   7   -0.02    0.24
   1   1  -7   23.34    0.97
   1   1  -7   23.66    0.98
   1   1  -7   19.96    0.90
  -1  -1   7   20.11    0.93
  -1  -1   7   21.40    0.96
  -1  -1   7   22.00    1.00
  -1  -1   7   23.25    1.09
  -1  -1   7   20.68    0.97
   2   1  -7   12.63    0.64
   2   1  -7   12.62    0.66
  -2  -1   7   12.75    0.68
  -2  -1   7   12.43    0.73
   3   1  -7    0.24    0.23
   3   1  -7    0.17    0.21
  -3  -1   7   -0.47    0.33
  -3  -1   7    0.57    0.36
   4   1  -7    7.48    0.51
  -4  -1   7    6.99    0.61
  -8   2  -7    5.08    0.50
   8  -2   7    5.13    0.44
  -7   2  -7    2.07    0.39
   7  -2   7    2.02    0.35
  -6   2  -7   28.82    1.23
  -6   2  -7   29.96    1.13
  -6   2  -7   27.73    1.18
   6  -2   7   28.82    1.16
   6  -2   7   29.05    1.15
   6  -2   7   30.46    1.20
  -5   2  -7   85.69    3.07
  -5   2  -7   90.92    3.30
  -5   2  -7   93.09    3.17
   5  -2   7   92.51    3.18
   5  -2   7   87.64    3.17
   5  -2   7   86.67    3.10
  -4   2  -7    3.84    0.40
  -4   2  -7    5.36    0.46
  -4   2  -7    4.88    0.39
  -4   2  -7    4.53    0.43
   4  -2   7    5.06    0.40
   4  -2   7    4.77    0.41
  -3   2  -7    1.34    0.24
  -3   2  -7    1.74    0.28
  -3   2  -7    1.83    0.34
  -3   2  -7    1.54    0.25
  -3   2  -7    1.61    0.31
   3  -2   7    0.90    0.38
   3  -2   7    1.15    0.37
   3  -2   7    1.22    0.25
   3  -2   7    2.52    0.43
  -2   2  -7    3.88    0.36
  -2   2  -7    4.10    0.40
  -2   2  -7    3.96    0.34
  -2   2  -7    3.57    0.49
  -2   2  -7    3.89    0.40
   2  -2   7    4.56    0.72
   2  -2   7    4.46    0.46
   2  -2   7    5.38    0.47
   2  -2   7    3.72    0.51
   2  -2   7    4.34    0.43
   2  -2   7    4.53    0.48
  -1   2  -7    1.44    0.25
  -1   2  -7    1.39    0.27
  -1   2  -7    2.27    0.39
  -1   2  -7    1.86    0.36
  -1   2  -7    2.25    0.36
  -1   2  -7    1.27    0.42
   1  -2   7    1.57    0.27
   1  -2   7    2.73    0.48
   1  -2   7    2.27    0.39
   0   2  -7    5.52    0.40
   0   2  -7    5.07    0.52
   0   2  -7    4.78    0.46
   0   2  -7    5.97    0.52
   0  -2   7    4.80    0.43
   0  -2   7    6.24    0.47
   0  -2   7    4.11    0.60
   0  -2   7    4.54    0.49
   0  -2   7    4.43    0.42
   1   2  -7    0.63    0.26
  -1  -2   7    1.21    0.25
  -1  -2   7    1.09    0.28
  -1  -2   7    1.36    0.34
   2   2  -7    1.14    0.26
   2   2  -7    1.33    0.27
  -2  -2   7    1.10    0.29
  -2  -2   7    1.30    0.35
   3   2  -7    5.34    0.53
   3   2  -7    4.86    0.47
  -3  -2   7    5.81    0.52
  -3  -2   7    5.41    0.58
   4   2  -7   35.44    1.44
  -4  -2   7   38.62    1.63
   9  -3   7    4.75    0.48
  -8   3  -7   -0.15    0.27
   8  -3   7    0.28    0.24
  -7   3  -7    4.00    0.47
   7  -3   7    4.14    0.44
  -6   3  -7   30.80    1.32
  -6   3  -7   31.61    1.24
  -6   3  -7   29.99    1.20
   6  -3   7   30.61    1.24
   6  -3   7   31.16    1.24
   6  -3   7   32.54    1.28
  -5   3  -7   30.00    1.29
  -5   3  -7   30.23    1.20
  -5   3  -7   29.19    1.17
   5  -3   7   29.32    1.20
   5  -3   7   29.67    1.20
   5  -3   7   31.29    1.24
  -4   3  -7   19.50    0.90
  -4   3  -7   18.36    0.82
  -4   3  -7   19.54    0.88
  -4   3  -7   18.29    0.92
  -4   3  -7   19.01    0.84
   4  -3   7   18.45    0.85
   4  -3   7   18.37    0.88
   4  -3   7   18.72    0.85
  -3   3  -7    9.63    0.62
  -3   3  -7    9.26    0.53
  -3   3  -7   10.19    0.57
  -3   3  -7   10.45    0.65
  -3   3  -7    9.58    0.64
   3  -3   7    9.01    0.55
   3  -3   7   10.00    0.62
   3  -3   7    9.15    0.56
   3  -3   7    9.70    0.74
   3  -3   7    9.31    0.58
   3  -3   7    8.56    0.72
  -2   3  -7    2.95    0.47
  -2   3  -7    1.71    0.35
  -2   3  -7    2.56    0.35
   2  -3   7    2.13    0.30
   2  -3   7    1.84    0.32
   2  -3   7    1.84    0.31
   2  -3   7    1.52    0.39
   2  -3   7    1.94    0.34
  -1   3  -7    7.20    0.59
  -1   3  -7    7.92    0.60
   1  -3   7    7.38    0.57
   1  -3   7    7.47    0.54
   1  -3   7    7.19    0.79
   1  -3   7    7.19    0.52
   0   3  -7    1.10    0.31
   0   3  -7    1.64    0.30
   0   3  -7    1.25    0.29
   0  -3   7    2.06    0.31
   0  -3   7    2.26    0.37
   0  -3   7    1.93    0.40
   1   3  -7    0.26    0.24
   1   3  -7    0.50    0.25
  -1  -3   7    0.31    0.34
  -1  -3   7    0.38    0.25
   2   3  -7    1.97    0.35
   2   3  -7    2.32    0.40
  -2  -3   7    1.95    0.40
  -2  -3   7    1.69    0.40
   3   3  -7    8.47    0.55
  -3  -3   7    7.62    0.67
   4   3  -7   13.35    0.69
  -4  -3   7   13.13    0.86
  -8   4  -7    0.04    0.29
   8  -4   7   -0.04    0.24
  -7   4  -7   -0.13    0.30
   7  -4   7    0.29    0.25
  -6   4  -7    7.40    0.53
  -6   4  -7    7.11    0.56
   6  -4   7    6.38    0.59
   6  -4   7    7.00    0.51
  -5   4  -7  143.50    5.15
  -5   4  -7  141.57    4.93
   5  -4   7  143.70    4.97
   5  -4   7  138.26    4.96
  -4   4  -7    1.34    0.30
  -4   4  -7    1.56    0.29
  -4   4  -7    1.37    0.29
  -4   4  -7    1.77    0.34
   4  -4   7    1.59    0.31
   4  -4   7    1.62    0.28
  -3   4  -7   22.07    0.97
  -3   4  -7   22.23    0.95
  -3   4  -7   21.01    0.99
  -3   4  -7   21.36    1.03
   3  -4   7   21.54    0.94
   3  -4   7   21.76    1.11
   3  -4   7   21.17    0.98
  -2   4  -7   14.52    0.77
  -2   4  -7   18.38    0.80
  -2   4  -7   14.81    0.83
   2  -4   7   15.87    0.94
   2  -4   7   16.14    0.77
   2  -4   7   15.65    0.80
  -1   4  -7    0.20    0.28
  -1   4  -7   -0.17    0.25
  -1   4  -7    0.07    0.28
   1  -4   7    0.05    0.23
   1  -4   7    0.43    0.37
   1  -4   7    0.26    0.26
   0   4  -7    0.93    0.27
   0   4  -7    0.90    0.28
   0  -4   7    1.00    0.40
   0  -4   7    1.30    0.27
   0  -4   7    0.71    0.30
   1   4  -7   41.53    1.64
   1   4  -7   43.76    1.66
  -1  -4   7   43.51    1.70
  -1  -4   7   42.64    1.84
   2   4  -7    0.85    0.31
  -2  -4   7    0.42    0.40
  -2  -4   7    0.29    0.29
   3   4  -7    1.06    0.30
  -3  -4   7    0.60    0.45
  -7   5  -7    0.08    0.26
  -7   5  -7   -0.13    0.31
   7  -5   7   -0.13    0.28
   7  -5   7   -0.27    0.25
  -6   5  -7    7.92    0.63
  -6   5  -7    6.63    0.58
   6  -5   7    7.22    0.58
   6  -5   7    7.90    0.55
  -5   5  -7    1.07    0.29
  -5   5  -7    0.66    0.38
   5  -5   7    0.63    0.38
   5  -5   7    0.98    0.32
  -4   5  -7    5.18    0.48
  -4   5  -7    4.88    0.51
  -4   5  -7    4.66    0.47
   4  -5   7    4.80    0.47
   4  -5   7    4.78    0.52
  -3   5  -7    3.29    0.42
  -3   5  -7    3.48    0.48
  -3   5  -7    2.83    0.41
   3  -5   7    2.66    0.50
   3  -5   7    3.49    0.42
   3  -5   7    3.07    0.47
  -2   5  -7    0.15    0.27
  -2   5  -7    0.64    0.26
  -2   5  -7   -0.05    0.28
   2  -5   7   -0.15    0.29
   2  -5   7    0.00    0.38
   2  -5   7    0.02    0.25
  -1   5  -7    2.89    0.48
  -1   5  -7    2.63    0.40
  -1   5  -7    2.80    0.41
   1  -5   7    2.41    0.43
   1  -5   7    2.03    0.52
   1  -5   7    2.55    0.45
   0   5  -7    2.98    0.42
   0   5  -7    2.88    0.42
   0  -5   7    2.91    0.52
   0  -5   7    2.88    0.52
   1   5  -7    1.56    0.35
   1   5  -7    1.85    0.36
  -1  -5   7    2.06    0.37
  -1  -5   7    2.01    0.48
   2   5  -7    7.55    0.56
   2   5  -7    7.38    0.58
  -2  -5   7   10.18    0.85
  -2  -5   7    8.05    0.65
  -6   6  -7    0.44    0.33
  -6   6  -7    0.46    0.31
   6  -6   7    0.55    0.31
   6  -6   7    0.28    0.33
  -5   6  -7   25.16    1.11
  -5   6  -7   23.05    1.17
   5  -6   7   22.84    1.07
   5  -6   7   24.32    1.12
  -4   6  -7   41.88    1.61
  -4   6  -7   39.78    1.72
  -4   6  -7   38.55    1.61
   4  -6   7   40.75    1.65
   4  -6   7   37.84    1.58
  -3   6  -7    5.76    0.61
   3  -6   7    4.94    0.52
   3  -6   7    4.75    0.57
   3  -6   7    7.00    0.75
  -2   6  -7    0.76    0.33
  -2   6  -7    0.04    0.30
  -2   6  -7    0.42    0.36
   2  -6   7    0.50    0.43
   2  -6   7    0.04    0.32
   2  -6   7    0.62    0.31
  -1   6  -7    4.01    0.49
  -1   6  -7    2.90    0.48
   1  -6   7    3.73    0.47
   1  -6   7    3.56    0.66
   1  -6   7    3.73    0.51
   0   6  -7    0.32    0.29
   0   6  -7    0.61    0.32
   0  -6   7    0.21    0.33
   0  -6   7    0.20    0.42
   1   6  -7    7.63    0.58
   1   6  -7    7.32    0.56
  -1  -6   7    6.45    0.74
  -1  -6   7    7.96    0.72
  -5   7  -7   32.74    1.54
  -5   7  -7   34.02    1.42
   5  -7   7   32.43    1.42
   5  -7   7   32.77    1.48
  -4   7  -7    1.78    0.43
  -4   7  -7    2.03    0.40
  -4   7  -7    1.83    0.38
   4  -7   7    2.13    0.38
   4  -7   7    1.97    0.41
  -3   7  -7    7.35    0.60
  -3   7  -7    7.44    0.59
  -3   7  -7    6.99    0.65
   3  -7   7    6.55    0.85
   3  -7   7    7.35    0.65
   3  -7   7    7.56    0.60
  -2   7  -7    6.05    0.56
  -2   7  -7    6.47    0.57
   2  -7   7    5.92    0.82
   2  -7   7    6.58    0.62
   2  -7   7    7.50    0.61
  -1   7  -7    7.78    0.61
  -1   7  -7    7.38    0.58
   1  -7   7    6.86    0.70
   1  -7   7    6.72    0.79
   5   8   8    8.20    0.56
   4   8   8    1.43    0.31
  -3  -8  -8   -0.03    0.25
   3   8   8   -0.10    0.29
   3   8   8    0.27    0.28
   2   8   8    2.95    0.50
   2   8   8    3.90    0.48
   1   8   8    1.47    0.35
   1   8   8    1.13    0.35
   0  -8  -8   15.29    0.83
   0   8   8   15.60    0.86
   0   8   8   15.84    0.86
   1  -8  -8   -0.58    0.40
   1  -8  -8    0.63    0.31
  -1   8   8    0.33    0.34
  -1   8   8   -0.33    0.31
  -1   8   8    0.19    0.34
   6   7   8    0.06    0.24
  -5  -7  -8    8.74    0.67
   5   7   8    8.11    0.54
  -4  -7  -8   20.45    1.05
   4   7   8   21.64    0.96
  -3  -7  -8    2.23    0.38
   3   7   8    3.19    0.46
  -2  -7  -8    3.54    0.46
   2   7   8    3.30    0.52
  -1  -7  -8    1.08    0.40
  -1  -7  -8    1.05    0.35
   1   7   8    1.34    0.38
   1   7   8    0.94    0.36
   0  -7  -8    0.00    0.29
   0   7   8   -0.05    0.31
   0   7   8    0.17    0.37
   0   7   8   -0.51    0.35
   1  -7  -8    0.65    0.43
   1  -7  -8    0.91    0.32
   1  -7  -8    0.43    0.31
  -1   7   8    0.47    0.32
  -1   7   8    0.62    0.33
  -1   7   8    0.39    0.32
   2  -7  -8    2.17    0.38
   2  -7  -8    1.33    0.36
  -2   7   8    1.64    0.38
  -2   7   8    1.58    0.38
  -2   7   8    1.57    0.46
   6   6   8    8.10    0.51
  -5  -6  -8    4.56    0.59
   5   6   8    4.65    0.43
  -4  -6  -8    0.00    0.23
  -4  -6  -8    0.14    0.31
   4   6   8    0.03    0.24
   4   6   8    0.01    0.22
  -3  -6  -8   33.09    1.45
  -3  -6  -8   33.52    1.35
   3   6   8   33.76    1.35
   3   6   8   33.46    1.34
  -2  -6  -8   -0.16    0.31
  -2  -6  -8   -0.10    0.24
   2   6   8    0.05    0.27
   2   6   8   -0.12    0.25
  -1  -6  -8   21.18    0.98
  -1  -6  -8   22.16    0.98
  -1  -6  -8   22.13    1.10
   1   6   8   21.56    0.99
   1   6   8   21.92    1.00
   0  -6  -8    0.03    0.26
   0  -6  -8   -0.12    0.27
   0  -6  -8    0.60    0.40
   0   6   8    0.07    0.27
   0   6   8    0.38    0.29
   0   6   8   -0.31    0.39
  -1   6   8    3.93    0.55
  -1   6   8    3.56    0.53
  -1   6   8    3.54    0.52
   2  -6  -8    7.25    0.61
   2  -6  -8    8.38    0.60
  -2   6   8    7.35    0.59
  -2   6   8    7.49    0.60
  -2   6   8    7.09    0.64
   3  -6  -8    5.09    0.58
   3  -6  -8    6.14    0.55
  -3   6   8    6.19    0.58
  -3   6   8    5.45    0.63
  -6  -5  -8    1.69    0.35
   6   5   8    1.42    0.26
  -5  -5  -8    3.83    0.50
   5   5   8    3.56    0.39
  -4  -5  -8    6.14    0.39
  -4  -5  -8    5.61    0.46
   4   5   8    5.78    0.45
   4   5   8    5.46    0.45
  -3  -5  -8   11.34    0.66
  -3  -5  -8   11.31    0.72
  -3  -5  -8   10.91    0.57
   3   5   8   11.23    0.63
   3   5   8   11.03    0.58
   3   5   8   11.02    0.62
  -2  -5  -8    1.66    0.32
  -2  -5  -8    1.54    0.26
  -2  -5  -8    1.74    0.36
   2   5   8    1.43    0.30
   2   5   8    1.57    0.30
  -1  -5  -8    7.11    0.48
  -1  -5  -8    7.48    0.55
  -1  -5  -8    7.51    0.52
  -1  -5  -8    7.40    0.63
   1   5   8    7.15    0.52
   1   5   8    7.02    0.56
   1   5   8    6.75    0.53
   0  -5  -8   10.88    0.66
   0  -5  -8   11.43    0.65
   0  -5  -8   10.20    0.74
   0   5   8   11.12    0.64
   0   5   8   11.61    0.70
   0   5   8   11.36    0.66
   1  -5  -8   -0.46    0.35
   1  -5  -8   -0.20    0.27
   1  -5  -8   -0.11    0.25
  -1   5   8   -0.09    0.35
  -1   5   8    0.42    0.28
   2  -5  -8    2.76    0.40
   2  -5  -8    2.98    0.53
  -2   5   8    2.79    0.52
  -2   5   8    3.10    0.53
   3  -5  -8    3.43    0.45
   3  -5  -8    4.11    0.51
  -3   5   8    3.26    0.49
  -3   5   8    3.56    0.53
  -6  -4  -8   15.50    0.77
   6   4   8   15.59    0.70
  -5  -4  -8    4.76    0.49
   5   4   8    4.30    0.40
  -4  -4  -8    0.03    0.17
  -4  -4  -8    0.18    0.28
  -4  -4  -8   -0.33    0.23
   4   4   8   -0.06    0.18
   4   4   8   -0.14    0.21
   4   4   8    0.01    0.23
  -3  -4  -8   14.20    0.81
  -3  -4  -8   13.66    0.66
  -3  -4  -8   14.14    0.71
   3   4   8   15.65    0.72
   3   4   8   13.70    0.66
   3   4   8   14.32    0.71
  -2  -4  -8    7.46    0.48
  -2  -4  -8    6.76    0.61
  -2  -4  -8    6.19    0.51
  -2  -4  -8    6.77    0.50
  -2  -4  -8    6.94    0.44
   2   4   8    6.26    0.45
   2   4   8    6.71    0.52
   2   4   8    6.94    0.51
  -1  -4  -8   38.59    1.57
  -1  -4  -8   38.44    1.52
  -1  -4  -8   38.35    1.62
  -1  -4  -8   37.41    1.48
   1   4   8   39.43    1.57
   1   4   8   39.16    1.52
   1   4   8   37.90    1.51
   0  -4  -8   46.97    1.77
   0  -4  -8   46.94    1.90
   0  -4  -8   46.92    1.81
   0   4   8   46.56    1.79
   0   4   8   47.02    1.80
   0   4   8   47.14    1.87
   1  -4  -8    0.14    0.29
   1  -4  -8   -0.05    0.25
   1  -4  -8    0.11    0.24
  -1   4   8    0.09    0.28
  -1   4   8    0.26    0.26
  -1   4   8    0.07    0.26
   2  -4  -8   -0.11    0.26
   2  -4  -8   -0.13    0.25
  -2   4   8   -0.60    0.32
  -2   4   8   -0.12    0.32
  -2   4   8    0.19    0.31
   3  -4  -8    0.16    0.27
   3  -4  -8   -0.40    0.25
  -3   4   8   -0.10    0.29
  -3   4   8    0.01    0.29
  -4   4   8    1.86    0.40
   7   3   8    8.17    0.50
  -6  -3  -8    0.92    0.25
  -5  -3  -8   14.08    0.74
   5   3   8   13.90    0.67
  -4  -3  -8    3.88    0.49
  -4  -3  -8    4.14    0.42
  -4  -3  -8    3.55    0.32
   4   3   8    3.54    0.34
   4   3   8    3.73    0.36
   4   3   8    3.68    0.42
   4   3   8    3.81    0.43
  -3  -3  -8    0.01    0.25
  -3  -3  -8    0.06    0.17
  -3  -3  -8    0.73    0.34
   3   3   8    0.96    0.36
   3   3   8   -0.12    0.18
   3   3   8   -0.21    0.18
  -2  -3  -8   17.03    0.78
  -2  -3  -8   17.82    0.83
  -2  -3  -8   18.57    0.92
  -2  -3  -8   18.46    0.89
   2   3   8   17.73    0.80
   2   3   8   17.96    0.89
   2   3   8   20.21    0.93
   2   3   8   17.21    0.84
   2   3   8   18.19    0.90
  -1  -3  -8   83.43    3.08
  -1  -3  -8   84.37    2.95
  -1  -3  -8   79.71    3.09
  -1  -3  -8   83.01    2.93
   1   3   8   82.38    2.95
   1   3   8   82.70    2.95
   1   3   8   78.72    3.10
   1   3   8   81.32    3.06
   0  -3  -8   54.19    2.14
   0  -3  -8   53.72    2.02
   0  -3  -8   55.79    2.00
   0   3   8   51.34    2.01
   0   3   8   52.34    2.01
   0   3   8   55.36    2.11
   1  -3  -8    6.97    0.49
   1  -3  -8    7.79    0.53
   1  -3  -8    6.65    0.61
  -1   3   8    6.67    0.55
  -1   3   8    6.40    0.49
  -1   3   8    6.60    0.52
   2  -3  -8    0.14    0.23
   2  -3  -8   -0.16    0.23
  -2   3   8    0.18    0.38
  -2   3   8   -0.52    0.28
   3  -3  -8    1.64    0.32
   3  -3  -8    1.57    0.33
  -3   3   8    1.12    0.33
  -3   3   8    1.39    0.37
   4  -3  -8    0.80    0.29
   4  -3  -8    0.44    0.29
  -4   3   8    0.07    0.36
  -4   3   8    0.91    0.35
   7   2   8   -0.13    0.19
  -6  -2  -8    9.59    0.56
   6   2   8    9.20    0.51
  -5  -2  -8    7.57    0.45
  -5  -2  -8    6.89    0.54
  -5  -2  -8    6.28    0.46
   5   2   8    6.31    0.43
   5   2   8    5.64    0.47
   5   2   8    7.00    0.44
  -4  -2  -8   21.11    0.98
  -4  -2  -8   20.86    0.87
  -4  -2  -8   22.57    0.98
   4   2   8   20.91    0.88
   4   2   8   24.31    0.98
   4   2   8   20.52    0.94
   4   2   8   20.66    0.94
  -3  -2  -8    8.11    0.56
  -3  -2  -8    9.09    0.68
  -3  -2  -8    7.00    0.51
   3   2   8    7.12    0.50
   3   2   8    9.25    0.55
  -2  -2  -8    2.37    0.42
  -2  -2  -8    2.63    0.44
   2   2   8    1.97    0.31
   2   2   8    2.21    0.41
   2   2   8    2.44    0.35
   2   2   8    2.15    0.36
  -1  -2  -8   26.38    1.11
  -1  -2  -8   25.66    1.15
  -1  -2  -8   25.10    1.13
  -1  -2  -8   24.12    1.03
   1   2   8   25.94    1.12
   1   2   8   24.92    1.05
   1   2   8   24.99    1.13
   1   2   8   26.58    1.16
   1   2   8   25.90    1.12
   0  -2  -8   16.34    0.87
   0  -2  -8   14.31    0.76
   0  -2  -8   14.45    0.73
   0   2   8   16.43    0.83
   0   2   8   14.24    0.76
   0   2   8   14.07    0.76
   0   2   8   16.20    0.75
   1  -2  -8   12.25    0.65
   1  -2  -8   12.98    0.73
   1  -2  -8   12.97    0.70
  -1   2   8   12.17    0.68
  -1   2   8   12.83    0.75
  -1   2   8   12.63    0.66
  -1   2   8   12.76    0.69
   2  -2  -8   -0.07    0.23
   2  -2  -8    0.04    0.21
  -2   2   8    0.43    0.27
   3  -2  -8    4.54    0.47
   3  -2  -8    4.43    0.50
  -3   2   8    4.55    0.53
  -3   2   8    4.03    0.49
   4  -2  -8    0.67    0.27
   4  -2  -8    0.28    0.27
  -4   2   8   -0.16    0.38
  -7  -1  -8    0.60    0.24
   7   1   8    0.88    0.21
  -6  -1  -8    5.99    0.48
   6   1   8    5.85    0.43
  -5  -1  -8    1.06    0.21
  -5  -1  -8    1.03    0.27
  -5  -1  -8    0.96    0.22
   5   1   8    1.02    0.24
  -4  -1  -8    7.14    0.59
  -4  -1  -8    8.78    0.59
   4   1   8    7.49    0.47
   4   1   8    6.69    0.56
   4   1   8    7.88    0.48
  -3  -1  -8    2.16    0.38
   3   1   8    2.57    0.41
  -2  -1  -8    2.19    0.40
  -2  -1  -8    1.16    0.31
   2   1   8    0.98    0.28
   2   1   8    1.80    0.35
   2   1   8    1.66    0.33
   2   1   8    1.08    0.28
  -1  -1  -8   20.34    0.87
  -1  -1  -8   21.92    0.99
  -1  -1  -8   20.11    0.91
  -1  -1  -8   17.48    0.93
  -1  -1  -8   20.50    0.92
   1   1   8   20.46    0.89
   1   1   8   19.40    0.97
   1   1   8   20.56    0.93
   1   1   8   19.90    0.96
   1   1   8   19.94    0.99
   0  -1  -8  197.67    7.02
   0  -1  -8  193.21    6.77
   0  -1  -8  184.24    6.73
   0   1   8  214.02    6.78
   0   1   8  199.55    6.79
   0   1   8  191.51    7.15
   0   1   8  192.79    7.01
   1  -1  -8    0.04    0.23
   1  -1  -8    0.24    0.28
  -1   1   8   -0.04    0.28
  -1   1   8   -0.07    0.20
  -1   1   8    0.14    0.25
  -1   1   8    0.08    0.23
   2  -1  -8    0.56    0.24
   2  -1  -8    0.71    0.25
  -2   1   8    0.00    0.37
  -2   1   8   -0.02    0.28
   3  -1  -8    6.88    0.55
   3  -1  -8    8.77    0.59
  -3   1   8    7.99    0.63
  -3   1   8    7.05    0.57
   4  -1  -8    0.77    0.28
  -4   1   8    0.19    0.34
   8   0   8    1.16    0.24
  -7   0  -8    0.45    0.23
   7   0   8    0.21    0.19
  -6   0  -8    0.33    0.23
   6   0   8    0.13    0.19
  -5   0  -8    1.15    0.23
  -5   0  -8    0.95    0.22
  -5   0  -8    0.98    0.29
   5   0   8    1.50    0.27
  -4   0  -8   16.93    0.84
  -4   0  -8   18.52    0.86
  -4   0  -8   16.92    0.74
   4   0   8   16.64    0.75
   4   0   8   15.87    0.80
   4   0   8   16.47    0.80
   4   0   8   16.60    0.79
  -3   0  -8   39.53    1.65
  -3   0  -8   40.78    1.56
  -3   0  -8   39.91    1.55
  -3   0  -8   43.98    1.70
  -3   0  -8   42.25    1.54
   3   0   8   40.32    1.67
   3   0   8   38.45    1.63
   3   0   8   42.23    1.62
   3   0   8   41.77    1.60
   3   0   8   39.72    1.53
  -2   0  -8    1.09    0.31
  -2   0  -8    0.31    0.31
  -2   0  -8    0.02    0.24
   2   0   8   -0.15    0.20
   2   0   8    0.09    0.29
   2   0   8   -0.14    0.20
   2   0   8    0.37    0.39
   2   0   8    1.17    0.36
   2   0   8   -0.22    0.30
  -1   0  -8   23.10    1.08
  -1   0  -8   22.66    1.04
  -1   0  -8   25.15    1.04
  -1   0  -8   26.32    1.10
   1   0   8   23.10    1.05
   1   0   8   22.64    1.12
   1   0   8   24.05    1.07
   1   0   8   22.99    1.02
   0   0  -8  115.86    4.20
   0   0  -8  116.61    4.20
   0   0  -8  118.02    4.38
   0   0   8  133.49    4.24
   0   0   8  116.38    4.39
   0   0   8  120.74    4.22
   0   0   8  117.93    4.45
   1   0  -8   14.39    0.72
   1   0  -8   14.48    0.73
  -1   0   8   14.82    0.82
  -1   0   8   14.55    0.75
  -1   0   8   14.87    0.76
  -1   0   8   14.74    0.73
   2   0  -8    0.53    0.24
   2   0  -8    0.70    0.26
  -2   0   8    0.87    0.38
   3   0  -8    0.38    0.30
  -3   0   8   -0.14    0.32
  -3   0   8    0.27    0.28
   4   0  -8    0.60    0.27
  -4   0   8    0.33    0.33
  -8   1  -8    5.25    0.48
   8  -1   8    5.49    0.45
  -7   1  -8    0.66    0.26
   7  -1   8    0.42    0.22
  -6   1  -8    1.12    0.22
  -6   1  -8    1.03    0.28
   6  -1   8    1.15    0.24
   6  -1   8    0.92    0.26
  -5   1  -8    2.82    0.44
  -5   1  -8    3.22    0.35
  -5   1  -8    3.71    0.47
   5  -1   8    3.01    0.33
   5  -1   8    3.82    0.45
   5  -1   8    3.17    0.39
  -4   1  -8    6.60    0.43
  -4   1  -8    6.01    0.54
  -4   1  -8    7.20    0.48
   4  -1   8    7.56    0.48
   4  -1   8    6.67    0.47
   4  -1   8    7.02    0.53
  -3   1  -8    4.21    0.56
  -3   1  -8    4.94    0.39
  -3   1  -8    5.29    0.41
  -3   1  -8    6.17    0.52
  -3   1  -8    6.84    0.56
   3  -1   8    6.11    0.63
   3  -1   8    5.37    0.59
   3  -1   8    5.40    0.48
   3  -1   8    5.18    0.44
   3  -1   8    5.14    0.51
  -2   1  -8    0.55    0.27
  -2   1  -8    0.27    0.21
  -2   1  -8    0.61    0.33
   2  -1   8    0.00    0.32
   2  -1   8    0.09    0.25
   2  -1   8   -0.15    0.22
   2  -1   8    0.48    0.25
  -1   1  -8    9.78    0.57
  -1   1  -8    9.38    0.59
  -1   1  -8    9.12    0.65
   1  -1   8   10.84    0.73
   1  -1   8    7.69    0.55
   1  -1   8    7.24    0.62
   1  -1   8    7.86    0.62
   0   1  -8   27.38    1.04
   0   1  -8   22.81    1.09
   0   1  -8   24.38    1.05
   0  -1   8   22.39    1.05
   0  -1   8   24.18    1.15
   0  -1   8   24.14    1.03
   0  -1   8   22.92    1.07
   1   1  -8   10.36    0.58
   1   1  -8   10.96    0.62
  -1  -1   8   10.83    0.72
  -1  -1   8   10.37    0.63
   2   1  -8    0.22    0.23
   2   1  -8    0.06    0.25
  -2  -1   8    0.63    0.32
  -2  -1   8    0.49    0.35
   3   1  -8    0.50    0.25
   3   1  -8    0.52    0.27
  -3  -1   8    0.37    0.28
  -3  -1   8    0.42    0.36
  -8   2  -8    5.35    0.51
   8  -2   8    5.32    0.46
  -7   2  -8   42.95    1.71
   7  -2   8   40.44    1.60
  -6   2  -8   12.24    0.72
  -6   2  -8   12.31    0.65
   6  -2   8   12.44    0.68
   6  -2   8   12.52    0.65
  -5   2  -8    6.23    0.46
  -5   2  -8    5.90    0.53
   5  -2   8    6.13    0.44
   5  -2   8    5.87    0.50
  -4   2  -8    0.43    0.27
  -4   2  -8   -0.06    0.25
  -4   2  -8    0.09    0.24
   4  -2   8    0.18    0.21
   4  -2   8    0.11    0.24
  -3   2  -8    1.02    0.31
  -3   2  -8    1.28    0.28
  -3   2  -8    0.61    0.28
  -3   2  -8    0.99    0.26
   3  -2   8    0.58    0.28
   3  -2   8    0.93    0.26
   3  -2   8    1.49    0.36
  -2   2  -8    2.95    0.42
  -2   2  -8    3.39    0.38
  -2   2  -8    2.71    0.50
  -2   2  -8    3.10    0.42
   2  -2   8    2.88    0.45
   2  -2   8    3.16    0.44
   2  -2   8    4.11    0.52
  -1   2  -8    7.50    0.58
  -1   2  -8    6.99    0.56
   1  -2   8    6.05    0.47
   1  -2   8    6.04    0.53
   1  -2   8    5.81    0.63
   0   2  -8  121.63    4.32
   0   2  -8  128.04    4.32
   0   2  -8  122.01    4.49
   0  -2   8  119.86    4.53
   0  -2   8  125.53    4.34
   0  -2   8  120.50    4.32
   1   2  -8   33.93    1.33
   1   2  -8   32.52    1.33
  -1  -2   8   33.44    1.50
  -1  -2   8   32.89    1.37
   2   2  -8   21.60    0.99
   2   2  -8   22.43    1.03
  -2  -2   8   23.39    1.04
  -2  -2   8   22.45    1.14
   3   2  -8    2.82    0.41
   3   2  -8    3.26    0.47
  -3  -2   8    2.08    0.51
  -3  -2   8    3.77    0.55
  -8   3  -8    3.66    0.48
   8  -3   8    4.16    0.44
  -7   3  -8   11.93    0.73
   7  -3   8   11.77    0.66
  -6   3  -8    3.37    0.42
  -6   3  -8    4.08    0.49
   6  -3   8    3.53    0.45
  -5   3  -8    9.03    0.64
  -5   3  -8    8.97    0.56
   5  -3   8    9.09    0.61
   5  -3   8    9.11    0.57
  -4   3  -8    1.44    0.27
  -4   3  -8    1.30    0.27
  -4   3  -8    1.84    0.34
  -4   3  -8    0.95    0.32
   4  -3   8    1.42    0.28
   4  -3   8    1.55    0.31
  -3   3  -8   10.37    0.68
  -3   3  -8   10.46    0.63
  -3   3  -8   10.35    0.59
   3  -3   8   10.20    0.60
   3  -3   8   10.13    0.63
   3  -3   8   10.66    0.77
  -2   3  -8    0.03    0.25
  -2   3  -8    0.06    0.29
  -2   3  -8    0.13    0.24
   2  -3   8    0.08    0.26
   2  -3   8    0.12    0.23
   2  -3   8    0.04    0.35
  -1   3  -8    1.05    0.29
  -1   3  -8    1.47    0.29
  -1   3  -8    1.32    0.33
   1  -3   8    1.65    0.30
   1  -3   8    1.47    0.33
   1  -3   8    1.82    0.42
   0   3  -8    1.42    0.30
   0   3  -8    1.97    0.36
   0  -3   8    1.22    0.48
   0  -3   8    1.43    0.31
   0  -3   8    1.40    0.32
   1   3  -8    6.44    0.55
   1   3  -8    6.65    0.50
  -1  -3   8    5.24    0.58
  -1  -3   8    6.79    0.68
   2   3  -8    3.52    0.42
   2   3  -8    4.12    0.48
  -2  -3   8    3.67    0.59
  -2  -3   8    3.57    0.49
  -8   4  -8    0.22    0.37
   8  -4   8    0.54    0.31
  -7   4  -8    7.20    0.61
   7  -4   8    7.21    0.54
  -6   4  -8    0.60    0.34
  -6   4  -8    0.15    0.30
   6  -4   8    0.65    0.28
   6  -4   8    0.47    0.30
  -5   4  -8   13.79    0.73
  -5   4  -8   13.53    0.87
   5  -4   8   15.06    0.85
   5  -4   8   13.83    0.76
  -4   4  -8    5.32    0.53
  -4   4  -8    5.10    0.46
  -4   4  -8    5.12    0.47
   4  -4   8    5.02    0.51
   4  -4   8    5.42    0.48
  -3   4  -8   24.28    1.13
  -3   4  -8   24.24    1.06
  -3   4  -8   24.85    1.04
   3  -4   8   25.05    1.10
   3  -4   8   22.63    1.31
   3  -4   8   23.06    1.04
  -2   4  -8    1.13    0.28
  -2   4  -8    0.70    0.26
  -2   4  -8    0.92    0.32
   2  -4   8    0.96    0.28
   2  -4   8    0.14    0.45
   2  -4   8    1.17    0.32
  -1   4  -8   10.16    0.61
  -1   4  -8    9.45    0.72
  -1   4  -8    9.31    0.60
   1  -4   8    9.75    0.68
   1  -4   8   10.88    0.65
   1  -4   8   10.26    0.81
   0   4  -8    8.62    0.56
   0   4  -8    7.06    0.59
   0  -4   8    7.94    0.75
   0  -4   8    8.37    0.64
   1   4  -8   29.74    1.27
   1   4  -8   30.80    1.25
  -1  -4   8   29.35    1.29
  -1  -4   8   29.38    1.44
   2   4  -8   15.16    0.81
   2   4  -8   14.97    0.77
  -2  -4   8   15.21    0.99
  -2  -4   8   14.91    0.88
  -7   5  -8    6.01    0.55
  -7   5  -8    6.02    0.66
   7  -5   8    5.73    0.61
   7  -5   8    6.86    0.59
  -6   5  -8   -0.27    0.28
  -6   5  -8   -0.11    0.32
   6  -5   8   -0.18    0.30
   6  -5   8    0.28    0.28
  -5   5  -8    2.91    0.48
  -5   5  -8    2.28    0.42
   5  -5   8    2.05    0.35
   5  -5   8    1.96    0.39
  -4   5  -8    0.67    0.34
  -4   5  -8    0.10    0.30
   4  -5   8   -0.11    0.27
  -3   5  -8   -0.33    0.34
  -3   5  -8    0.56    0.32
  -3   5  -8    0.62    0.31
   3  -5   8    0.15    0.29
   3  -5   8   -0.01    0.42
  -2   5  -8   -0.27    0.26
  -2   5  -8   -0.15    0.28
  -2   5  -8   -0.48    0.32
   2  -5   8   -0.17    0.39
   2  -5   8    0.00    0.27
   2  -5   8    0.44    0.34
  -1   5  -8   -0.15    0.32
  -1   5  -8    0.24    0.31
   1  -5   8    0.39    0.28
   1  -5   8    0.10    0.32
   1  -5   8    0.14    0.41
   0   5  -8    1.55    0.34
   0   5  -8    1.74    0.34
   0  -5   8    1.87    0.40
   1   5  -8    2.37    0.43
   1   5  -8    2.46    0.46
  -1  -5   8    2.37    0.52
  -1  -5   8    2.34    0.45
  -5   6  -8   10.95    0.80
  -5   6  -8   11.36    0.72
   5  -6   8   11.83    0.72
   5  -6   8   10.93    0.80
  -4   6  -8   21.48    1.02
  -4   6  -8   21.89    1.02
  -4   6  -8   20.46    1.09
   4  -6   8   20.89    1.00
   4  -6   8   20.29    1.05
  -3   6  -8    3.59    0.49
  -3   6  -8    4.02    0.55
  -3   6  -8    3.96    0.51
   3  -6   8    3.62    0.54
   3  -6   8    3.51    0.63
   3  -6   8    3.76    0.50
  -2   6  -8    0.83    0.32
  -2   6  -8    0.76    0.33
   2  -6   8    1.12    0.33
   2  -6   8    1.14    0.37
   2  -6   8   -0.02    0.48
  -1   6  -8    2.52    0.45
  -1   6  -8    2.44    0.46
   1  -6   8    2.03    0.52
  -4  -8  -9    0.80    0.43
  -3  -8  -9   -0.47    0.30
   3   8   9   -0.04    0.31
   3   8   9    0.45    0.32
  -2  -8  -9    5.34    0.73
  -2  -8  -9    6.38    0.57
   2   8   9    7.00    0.59
   2   8   9    7.70    0.62
  -1  -8  -9   -0.41    0.42
  -1  -8  -9    0.37    0.32
   1   8   9   -0.37    0.33
   1   8   9    0.18    0.34
  -5  -7  -9    5.77    0.66
   5   7   9    6.41    0.51
  -4  -7  -9   -0.41    0.31
   4   7   9   -0.15    0.27
  -3  -7  -9    4.50    0.58
  -3  -7  -9    3.63    0.49
   3   7   9    4.71    0.51
   3   7   9    4.22    0.48
  -2  -7  -9    5.13    0.63
  -2  -7  -9    4.69    0.51
   2   7   9    5.46    0.52
   2   7   9    5.00    0.55
  -1  -7  -9    6.33    0.57
  -1  -7  -9    6.94    0.68
   1   7   9    7.60    0.59
   1   7   9    6.47    0.60
   0  -7  -9    0.08    0.40
   0  -7  -9    0.39    0.31
   0  -7  -9   -0.17    0.32
   0   7   9    0.12    0.33
   0   7   9    0.24    0.33
  -6  -6  -9    0.41    0.30
   6   6   9   -0.04    0.23
  -5  -6  -9   28.17    1.28
   5   6   9   28.24    1.17
  -4  -6  -9    3.73    0.53
  -4  -6  -9    3.74    0.45
   4   6   9    3.29    0.46
   4   6   9    3.26    0.45
  -3  -6  -9   -0.05    0.31
  -3  -6  -9    0.34    0.32
   3   6   9    0.87    0.33
   3   6   9   -0.18    0.29
  -2  -6  -9   -0.54    0.31
  -2  -6  -9    0.05    0.33
   2   6   9   -0.37    0.30
   2   6   9    0.29    0.33
  -1  -6  -9    0.02    0.35
  -1  -6  -9    0.09    0.27
  -1  -6  -9   -0.16    0.33
   1   6   9    0.09    0.35
   0  -6  -9   17.98    0.90
   0  -6  -9   16.05    0.97
   0  -6  -9   15.70    0.86
   0   6   9   15.74    0.86
   0   6   9   16.61    0.86
   0   6   9   15.49    0.88
   1  -6  -9   -0.05    0.29
   1  -6  -9    0.41    0.33
   1  -6  -9    0.28    0.39
  -1   6   9    0.07    0.33
  -1   6   9    0.19    0.33
  -1   6   9    0.09    0.32
  -6  -5  -9    1.38    0.33
   6   5   9    1.13    0.27
  -5  -5  -9   19.80    0.98
   5   5   9   19.08    0.87
  -4  -5  -9    0.20    0.21
  -4  -5  -9    0.18    0.31
   4   5   9    0.11    0.24
   4   5   9    0.24    0.26
  -3  -5  -9    6.48    0.48
  -3  -5  -9    6.48    0.60
   3   5   9    6.06    0.50
   3   5   9    6.09    0.51
  -2  -5  -9    0.22    0.24
  -2  -5  -9    0.04    0.32
   2   5   9    0.03    0.26
   2   5   9    0.34    0.28
  -1  -5  -9    0.55    0.43
  -1  -5  -9    0.31    0.24
  -1  -5  -9    0.15    0.26
   1   5   9   -0.19    0.32
   0  -5  -9    5.69    0.67
   0  -5  -9    6.76    0.64
   0  -5  -9    6.44    0.58
   0   5   9    4.79    0.54
   0   5   9    4.34    0.56
   0   5   9    5.47    0.58
   1  -5  -9   -0.12    0.33
   1  -5  -9    0.82    0.37
   1  -5  -9    0.17    0.30
  -1   5   9    0.32    0.31
  -1   5   9   -0.12    0.29
  -1   5   9   -0.14    0.30
   2  -5  -9    2.33    0.37
   2  -5  -9    2.73    0.47
  -2   5   9    1.77    0.45
  -2   5   9    2.91    0.51
   7   4   9    2.30    0.35
  -6  -4  -9    0.20    0.25
   6   4   9    0.43    0.25
  -5  -4  -9   25.85    1.16
   5   4   9   26.09    1.07
  -4  -4  -9   12.84    0.76
  -4  -4  -9   13.42    0.69
   4   4   9   13.54    0.68
   4   4   9   13.24    0.69
  -3  -4  -9    2.19    0.38
  -3  -4  -9    2.19    0.36
   3   4   9    1.85    0.30
   3   4   9    1.96    0.30
  -2  -4  -9    0.17    0.29
  -2  -4  -9    0.63    0.23
  -2  -4  -9    0.77    0.25
   2   4   9    0.66    0.28
   2   4   9    0.34    0.26
  -1  -4  -9   34.02    1.35
  -1  -4  -9   33.54    1.37
  -1  -4  -9   33.47    1.47
   1   4   9   33.94    1.38
   1   4   9   33.92    1.37
   1   4   9   33.90    1.45
   0  -4  -9    1.23    0.46
   0  -4  -9    1.59    0.31
   0  -4  -9    1.57    0.30
   0   4   9    1.23    0.33
   1  -4  -9    5.94    0.67
   1  -4  -9    5.08    0.52
   1  -4  -9    4.78    0.55
  -1   4   9    4.41    0.53
  -1   4   9    5.60    0.59
  -1   4   9    4.41    0.52
   2  -4  -9   11.59    0.69
   2  -4  -9   11.55    0.68
  -2   4   9   11.69    0.74
  -2   4   9   11.93    0.79
   7   3   9    0.37    0.21
  -6  -3  -9    4.91    0.55
   6   3   9    6.20    0.45
  -5  -3  -9    0.26    0.22
  -5  -3  -9    0.14    0.24
   5   3   9    0.16    0.22
   5   3   9   -0.04    0.23
  -4  -3  -9   -0.27    0.24
  -4  -3  -9   -0.13    0.21
   4   3   9    0.23    0.22
   4   3   9    0.14    0.23
  -3  -3  -9    0.28    0.24
  -3  -3  -9    0.26    0.26
   3   3   9   -0.05    0.23
   3   3   9    0.31    0.24
  -2  -3  -9    2.07    0.33
  -2  -3  -9    2.00    0.37
  -2  -3  -9    1.80    0.30
  -2  -3  -9    1.77    0.35
   2   3   9    1.87    0.31
   2   3   9    2.03    0.31
  -1  -3  -9    3.83    0.50
  -1  -3  -9    3.69    0.42
  -1  -3  -9    3.71    0.43
   1   3   9    3.11    0.43
   1   3   9    3.00    0.42
   1   3   9    2.98    0.49
   0  -3  -9    8.24    0.57
   0  -3  -9    8.73    0.65
   0  -3  -9    9.19    0.56
   0   3   9    8.54    0.69
   0   3   9    8.49    0.57
   0   3   9    8.61    0.60
   1  -3  -9    3.14    0.44
   1  -3  -9    2.62    0.45
  -1   3   9    3.41    0.50
  -1   3   9    1.96    0.44
  -1   3   9    4.16    0.52
   2  -3  -9    0.14    0.25
   2  -3  -9    0.14    0.27
  -2   3   9    0.13    0.34
  -2   3   9    0.03    0.30
   3  -3  -9   18.67    0.93
   3  -3  -9   18.27    0.88
  -3   3   9   18.15    1.00
  -3   3   9   18.62    0.97
  -7  -2  -9   20.10    0.93
   7   2   9   19.26    0.86
  -6  -2  -9    0.20    0.23
   6   2   9    0.12    0.21
  -5  -2  -9    0.23    0.19
  -5  -2  -9    0.75    0.29
  -5  -2  -9    0.31    0.22
   5   2   9    0.45    0.24
   5   2   9    0.43    0.23
   5   2   9    0.31    0.20
  -4  -2  -9    1.37    0.31
  -4  -2  -9    1.08    0.25
   4   2   9    1.16    0.26
   4   2   9    1.04    0.27
  -3  -2  -9    0.14    0.26
  -3  -2  -9   -0.15    0.24
  -3  -2  -9    0.16    0.22
   3   2   9   -0.03    0.22
   3   2   9   -0.25    0.24
  -2  -2  -9   12.42    0.67
  -2  -2  -9   13.83    0.71
  -2  -2  -9   13.56    0.67
  -2  -2  -9   13.84    0.77
   2   2   9   12.92    0.71
   2   2   9   13.21    0.68
   2   2   9   13.25    0.80
  -1  -2  -9   15.78    0.86
  -1  -2  -9   16.17    0.79
  -1  -2  -9   17.31    0.79
   1   2   9   16.03    0.81
   1   2   9   16.21    0.79
   1   2   9   16.40    0.88
   0  -2  -9    1.34    0.32
   0  -2  -9    1.36    0.28
   0  -2  -9    1.47    0.28
   0   2   9    1.19    0.35
   0   2   9    1.34    0.31
   0   2   9    1.22    0.28
   1  -2  -9    1.07    0.28
   1  -2  -9    1.22    0.28
  -1   2   9    1.01    0.33
  -1   2   9    0.89    0.39
   2  -2  -9   11.75    0.68
   2  -2  -9   11.68    0.66
  -2   2   9   12.18    0.77
  -2   2   9   11.87    0.71
   3  -2  -9    5.40    0.51
   3  -2  -9    4.87    0.46
  -3   2   9    5.15    0.59
  -3   2   9    5.20    0.60
   8   1   9    0.29    0.20
  -7  -1  -9    0.19    0.26
   7   1   9   -0.06    0.23
  -6  -1  -9    4.00    0.44
   6   1   9    4.21    0.41
  -5  -1  -9   21.75    0.94
  -5  -1  -9   20.68    1.00
  -5  -1  -9   21.75    0.91
   5   1   9   21.71    0.93
   5   1   9   21.09    0.91
   5   1   9   22.62    0.95
  -4  -1  -9    1.77    0.32
  -4  -1  -9    1.58    0.27
   4   1   9    1.98    0.35
   4   1   9    1.83    0.30
  -3  -1  -9    2.20    0.32
  -3  -1  -9    2.35    0.43
  -3  -1  -9    2.38    0.40
  -3  -1  -9    2.24    0.33
   3   1   9    2.51    0.38
   3   1   9    2.12    0.32
  -2  -1  -9   11.94    0.65
  -2  -1  -9   11.18    0.70
  -2  -1  -9   10.86    0.60
  -2  -1  -9   10.11    0.60
   2   1   9   10.90    0.64
   2   1   9   11.05    0.62
   2   1   9   10.83    0.76
  -1  -1  -9    7.17    0.53
  -1  -1  -9    7.55    0.61
  -1  -1  -9    7.76    0.51
   1   1   9    7.70    0.52
   1   1   9    7.40    0.56
   1   1   9    7.65    0.63
   0  -1  -9    2.79    0.39
   0  -1  -9    2.96    0.48
   0  -1  -9    2.50    0.40
   0   1   9    3.73    0.46
   0   1   9    2.91    0.40
   0   1   9    2.72    0.52
   1  -1  -9    5.75    0.49
   1  -1  -9    5.06    0.45
  -1   1   9    5.64    0.55
  -1   1   9    4.54    0.53
  -1   1   9    5.58    0.60
   2  -1  -9    5.38    0.45
   2  -1  -9    4.49    0.48
  -2   1   9    4.86    0.56
  -2   1   9    4.80    0.53
   3  -1  -9    5.02    0.46
   3  -1  -9    5.01    0.51
  -3   1   9    4.79    0.57
   8   0   9   18.81    0.84
  -7   0  -9    1.28    0.29
   7   0   9    1.13    0.25
  -6   0  -9    3.32    0.44
   6   0   9    3.28    0.39
   6   0   9    3.79    0.46
  -5   0  -9    5.12    0.46
  -5   0  -9    4.88    0.51
   5   0   9    5.52    0.50
   5   0   9    5.90    0.46
  -4   0  -9   -0.01    0.21
  -4   0  -9    0.46    0.28
   4   0   9    0.09    0.24
   4   0   9    0.02    0.22
  -3   0  -9   -0.03    0.20
  -3   0  -9   -0.27    0.24
  -3   0  -9    0.19    0.20
  -3   0  -9   -0.08    0.22
   3   0   9   -0.10    0.24
   3   0   9    0.12    0.22
  -2   0  -9   12.72    0.74
  -2   0  -9   13.41    0.69
  -2   0  -9   11.81    0.64
   2   0   9   12.23    0.78
   2   0   9   11.82    0.66
   2   0   9   12.74    0.70
  -1   0  -9   11.47    0.66
  -1   0  -9   11.80    0.63
  -1   0  -9   11.54    0.73
   1   0   9   11.57    0.67
   1   0   9   12.18    0.79
   1   0   9   11.56    0.65
   0   0  -9    0.04    0.22
   0   0  -9   -0.01    0.27
   0   0  -9    0.08    0.24
   0   0   9    0.29    0.36
   0   0   9   -0.03    0.24
   0   0   9   -0.03    0.28
   1   0  -9    0.19    0.24
   1   0  -9    0.02    0.26
  -1   0   9   -0.11    0.34
   2   0  -9    0.17    0.25
   2   0  -9    0.37    0.27
  -2   0   9    0.42    0.33
  -2   0   9   -0.05    0.30
  -8   1  -9    3.07    0.44
   8  -1   9    2.98    0.40
  -7   1  -9   20.15    0.96
   7  -1   9   19.26    0.88
  -6   1  -9    9.21    0.56
  -6   1  -9    9.07    0.62
   6  -1   9    8.32    0.56
   6  -1   9    8.35    0.64
  -5   1  -9    1.28    0.27
  -5   1  -9    1.28    0.31
   5  -1   9    1.33    0.29
   5  -1   9    1.19    0.27
  -4   1  -9    0.92    0.31
  -4   1  -9    1.08    0.26
   4  -1   9    1.12    0.26
   4  -1   9    0.96    0.28
  -3   1  -9   10.05    0.58
  -3   1  -9   10.16    0.61
  -3   1  -9   10.43    0.69
   3  -1   9   10.22    0.60
   3  -1   9   10.04    0.63
   3  -1   9   10.36    0.74
  -2   1  -9    0.14    0.24
  -2   1  -9   -0.06    0.27
  -2   1  -9    0.26    0.23
   2  -1   9    0.18    0.24
   2  -1   9    0.22    0.35
   2  -1   9    0.05    0.26
  -1   1  -9    0.47    0.25
  -1   1  -9    0.30    0.29
  -1   1  -9    0.21    0.24
   1  -1   9    0.37    0.34
   1  -1   9    0.06    0.27
   1  -1   9    0.46    0.26
   0   1  -9   28.61    1.22
   0   1  -9   29.37    1.20
   0  -1   9   29.82    1.25
   0  -1   9   28.77    1.25
   0  -1   9   29.82    1.37
   1   1  -9   35.78    1.45
   1   1  -9   33.59    1.41
  -1  -1   9   37.09    1.47
  -1  -1   9   35.52    1.58
   2   1  -9    0.86    0.30
   2   1  -9    1.17    0.29
  -2  -1   9    1.07    0.34
  -2  -1   9    0.88    0.42
  -8   2  -9    2.14    0.36
   8  -2   9    2.29    0.43
  -7   2  -9    4.92    0.53
   7  -2   9    5.49    0.48
  -6   2  -9    1.23    0.36
   6  -2   9    0.06    0.27
   6  -2   9    0.58    0.28
  -5   2  -9    0.37    0.30
  -5   2  -9    0.27    0.24
   5  -2   9    0.04    0.28
   5  -2   9    0.31    0.25
  -4   2  -9    2.95    0.43
  -4   2  -9    3.33    0.47
   4  -2   9    2.88    0.45
   4  -2   9    3.40    0.40
  -3   2  -9   28.33    1.16
  -3   2  -9   25.70    1.22
  -3   2  -9   27.67    1.14
   3  -2   9   29.63    1.40
   3  -2   9   26.03    1.14
   3  -2   9   27.17    1.18
  -2   2  -9   12.91    0.67
  -2   2  -9   12.38    0.68
  -2   2  -9   12.34    0.75
   2  -2   9   12.70    0.73
   2  -2   9   12.39    0.93
   2  -2   9   12.22    0.67
  -1   2  -9    1.32    0.36
  -1   2  -9    1.27    0.29
  -1   2  -9    1.50    0.29
   1  -2   9    1.43    0.34
   1  -2   9    1.17    0.40
   0   2  -9    2.70    0.40
   0   2  -9    2.51    0.44
   0  -2   9    2.20    0.47
   0  -2   9    3.10    0.44
   0  -2   9    2.40    0.40
   1   2  -9   11.05    0.65
   1   2  -9   11.66    0.69
  -1  -2   9   11.57    0.83
  -1  -2   9   12.60    0.75
   2   2  -9    3.89    0.45
   2   2  -9    4.52    0.51
  -2  -2   9    4.03    0.62
  -2  -2   9    5.74    0.66
  -7   3  -9   18.14    0.95
   7  -3   9   18.25    0.87
  -6   3  -9    2.30    0.41
  -6   3  -9    1.26    0.35
   6  -3   9    1.33    0.34
   6  -3   9    2.13    0.40
  -5   3  -9    3.60    0.54
  -5   3  -9    5.08    0.56
   5  -3   9    5.32    0.48
   5  -3   9    5.41    0.53
  -4   3  -9    0.42    0.47
  -4   3  -9    1.27    0.29
  -4   3  -9    0.84    0.30
   4  -3   9    1.21    0.34
  -3   3  -9   20.41    0.97
  -3   3  -9   20.17    0.95
  -3   3  -9   17.87    1.10
   3  -3   9   20.83    1.17
   3  -3   9   24.66    1.07
   3  -3   9   22.93    1.00
  -2   3  -9    8.04    0.57
  -2   3  -9    7.05    0.67
  -2   3  -9    7.87    0.54
   2  -3   9    6.83    0.57
   2  -3   9    7.39    0.62
  -1   3  -9    0.17    0.29
  -1   3  -9    0.98    0.30
   1  -3   9    0.53    0.33
   1  -3   9    0.38    0.27
   1  -3   9    0.04    0.41
   0   3  -9    0.19    0.28
   0   3  -9    0.55    0.30
   0  -3   9    0.18    0.31
   0  -3   9    0.14    0.41
   1   3  -9   12.83    0.72
   1   3  -9   12.89    0.75
  -1  -3   9   13.93    0.81
  -1  -3   9   12.61    0.92
  -7   4  -9   -0.32    0.42
  -6   4  -9   -0.09    0.28
  -6   4  -9    0.44    0.33
   6  -4   9    0.06    0.27
   6  -4   9   -0.03    0.31
  -5   4  -9    3.43    0.46
  -5   4  -9    3.23    0.52
   5  -4   9    3.53    0.45
   5  -4   9    3.42    0.52
  -4   4  -9    2.45    0.45
  -4   4  -9    2.30    0.43
  -4   4  -9    2.63    0.48
   4  -4   9    2.74    0.43
   4  -4   9    2.38    0.40
  -3   4  -9   10.81    0.70
  -3   4  -9   10.39    0.69
  -3   4  -9   11.19    0.76
   3  -4   9   10.93    0.73
   3  -4   9   10.66    0.67
   3  -4   9   11.60    0.88
  -2   4  -9    0.82    0.31
  -2   4  -9    0.07    0.33
   2  -4   9    0.39    0.42
   2  -4   9    0.21    0.33
   2  -4   9    0.34    0.28
  -1   4  -9    0.06    0.27
  -1   4  -9    0.00    0.28
   1  -4   9    0.02    0.32
   1  -4   9    0.00    0.43
   1  -4   9    0.11    0.27
   0   4  -9   15.25    0.82
   0   4  -9   15.28    0.81
   0  -4   9   16.06    0.90
   0  -4   9   14.96    1.01
  -5   5  -9    3.23    0.46
  -5   5  -9    3.16    0.57
   5  -5   9    2.79    0.51
  -4   5  -9    3.58    0.48
  -4   5  -9    3.65    0.48
  -4   5  -9    4.06    0.56
   4  -5   9    3.57    0.54
   4  -5   9    4.07    0.48
  -3   5  -9    4.10    0.56
  -3   5  -9    3.86    0.48
  -3   5  -9    4.32    0.51
   3  -5   9    3.99    0.55
   3  -5   9    3.42    0.58
   3  -5   9    4.15    0.50
  -2   5  -9    6.17    0.54
  -2   5  -9    6.32    0.54
  -2   5  -9    5.28    0.64
   2  -5   9    5.98    0.78
   2  -5   9    5.50    0.60
   2  -5   9    6.51    0.63
   1  -5   9    1.29    0.51
  -4  -7 -10    5.32    0.63
  -3  -7 -10    0.23    0.30
  -3  -7 -10    0.54    0.40
   3   7  10    0.32    0.33
  -2  -7 -10    0.70    0.41
  -2  -7 -10    0.39    0.33
   2   7  10    0.74    0.35
   2   7  10    1.18    0.38
  -5  -6 -10    2.27    0.45
   5   6  10    2.61    0.42
  -4  -6 -10    0.90    0.27
  -4  -6 -10    0.55    0.35
   4   6  10    0.63    0.30
   4   6  10    0.53    0.29
  -3  -6 -10    1.07    0.30
  -3  -6 -10    1.06    0.38
   3   6  10    0.56    0.30
   3   6  10    0.94    0.32
  -2  -6 -10    3.12    0.44
  -2  -6 -10    2.88    0.54
   2   6  10    2.91    0.48
   2   6  10    3.11    0.49
  -1  -6 -10    0.04    0.40
  -1  -6 -10    0.39    0.30
   1   6  10    0.36    0.33
   1   6  10    0.11    0.33
   0  -6 -10    3.34    0.51
   0  -6 -10    3.54    0.63
   0   6  10    3.19    0.58
   0   6  10    3.65    0.55
  -6  -5 -10    1.10    0.33
   6   5  10    1.35    0.29
  -5  -5 -10    0.59    0.33
   5   5  10    0.40    0.26
  -4  -5 -10    0.00    0.31
  -4  -5 -10    0.04    0.25
   4   5  10   -0.23    0.26
   4   5  10   -0.05    0.27
  -3  -5 -10    0.17    0.25
  -3  -5 -10   -0.01    0.31
   3   5  10   -0.17    0.29
   3   5  10   -0.19    0.28
  -2  -5 -10    0.66    0.28
  -2  -5 -10    0.39    0.35
   2   5  10    0.15    0.31
   2   5  10    0.30    0.30
  -1  -5 -10    0.43    0.26
  -1  -5 -10    0.74    0.38
  -1  -5 -10    0.74    0.30
   1   5  10    0.47    0.32
   1   5  10    0.51    0.31
   0  -5 -10   -0.21    0.35
   0  -5 -10   -0.04    0.27
   0  -5 -10    0.38    0.31
   0   5  10    0.26    0.33
   0   5  10    0.05    0.32
   7   4  10    5.86    0.47
  -6  -4 -10    6.78    0.55
   6   4  10    6.40    0.48
  -5  -4 -10    5.43    0.52
   5   4  10    4.87    0.46
  -4  -4 -10    7.48    0.58
  -4  -4 -10    7.05    0.58
   4   4  10    7.02    0.56
   4   4  10    6.12    0.55
  -3  -4 -10   34.24    1.54
  -3  -4 -10   36.23    1.47
   3   4  10   37.33    1.48
   3   4  10   36.82    1.49
  -2  -4 -10    3.55    0.54
  -2  -4 -10    4.90    0.56
  -1  -4 -10   10.28    0.65
  -1  -4 -10   11.02    0.68
  -1  -4 -10   10.14    0.75
   1   4  10   10.19    0.67
   1   4  10   10.01    0.74
   1   4  10    9.53    0.67
   0  -4 -10    1.33    0.31
   0  -4 -10    1.45    0.32
   0  -4 -10    1.27    0.38
   0   4  10    1.22    0.35
   0   4  10    1.32    0.39
   0   4  10    1.23    0.33
   1  -4 -10    8.90    0.62
   1  -4 -10    9.65    0.65
  -1   4  10    8.53    0.67
  -1   4  10    9.97    0.67
  -1   4  10    8.89    0.76
  -7  -3 -10    0.55    0.28
   7   3  10    0.41    0.24
  -6  -3 -10    0.22    0.28
   6   3  10    0.06    0.23
  -5  -3 -10    0.22    0.26
  -5  -3 -10    0.19    0.29
   5   3  10   -0.12    0.26
   5   3  10    0.01    0.28
  -4  -3 -10    1.27    0.29
   4   3  10    2.34    0.39
   4   3  10    1.51    0.34
  -3  -3 -10   25.63    1.14
  -3  -3 -10   21.04    0.98
   3   3  10   21.31    1.00
   3   3  10   20.79    1.03
  -2  -3 -10   21.40    1.00
  -2  -3 -10   24.67    1.14
  -2  -3 -10   22.89    1.01
   2   3  10   20.81    1.01
   2   3  10   22.49    1.05
  -1  -3 -10    0.75    0.34
  -1  -3 -10    0.58    0.30
   1   3  10    1.31    0.38
   1   3  10    0.93    0.37
   1   3  10    1.16    0.36
   0  -3 -10    0.23    0.31
   0  -3 -10    0.43    0.29
   0  -3 -10    0.91    0.33
   0   3  10    0.99    0.33
   0   3  10    0.98    0.36
   0   3  10    1.15    0.30
   1  -3 -10    0.12    0.27
   1  -3 -10    0.11    0.28
  -1   3  10   -0.18    0.31
  -1   3  10    0.62    0.46
  -1   3  10    0.53    0.29
   8   2  10   27.66    1.16
  -7  -2 -10    9.60    0.64
   7   2  10    9.72    0.57
  -6  -2 -10    1.34    0.31
   6   2  10    0.85    0.26
  -5  -2 -10    8.69    0.65
  -5  -2 -10    8.39    0.60
   5   2  10    8.37    0.63
   5   2  10    9.05    0.55
  -4  -2 -10   11.89    0.80
  -4  -2 -10   12.35    0.67
  -3  -2 -10   -0.17    0.31
  -3  -2 -10    0.09    0.23
   3   2  10   -0.60    0.35
  -2  -2 -10   18.71    0.85
  -2  -2 -10   17.08    1.02
  -2  -2 -10   18.35    0.87
   2   2  10   19.90    1.02
   2   2  10   16.25    0.92
   2   2  10   16.77    0.88
  -1  -2 -10    3.49    0.48
  -1  -2 -10    3.65    0.54
   1   2  10    3.30    0.57
   1   2  10    2.72    0.49
   1   2  10    3.19    0.53
   0  -2 -10    0.42    0.29
   0  -2 -10    0.30    0.30
   0  -2 -10    0.49    0.34
   0   2  10    0.36    0.31
   0   2  10    0.36    0.35
   0   2  10    0.23    0.28
   1  -2 -10   -0.21    0.26
   1  -2 -10    0.18    0.27
  -1   2  10    0.14    0.34
   8   1  10    3.95    0.47
  -7  -1 -10   -0.16    0.26
   7   1  10   -0.01    0.23
  -6  -1 -10    0.14    0.28
   6   1  10    0.14    0.25
  -5  -1 -10    0.95    0.39
  -5  -1 -10    1.01    0.28
   5   1  10    0.50    0.32
   5   1  10    0.62    0.28
  -4  -1 -10    8.61    0.67
  -4  -1 -10    9.74    0.56
   4   1  10    7.06    0.59
   4   1  10    7.50    0.67
  -3  -1 -10    0.35    0.31
  -3  -1 -10    0.84    0.24
  -3  -1 -10    0.73    0.26
  -2  -1 -10    1.26    0.27
  -2  -1 -10    0.60    0.41
   2   1  10    0.14    0.38
   2   1  10    0.50    0.34
   2   1  10    0.93    0.30
  -1  -1 -10    1.43    0.36
  -1  -1 -10    1.06    0.35
  -1  -1 -10    1.52    0.34
   1   1  10    1.13    0.37
   1   1  10    0.61    0.33
   1   1  10    1.68    0.38
   0  -1 -10    1.04    0.34
   0  -1 -10    1.55    0.36
   0  -1 -10    1.39    0.32
   0   1  10    1.28    0.31
   0   1  10    1.01    0.39
   0   1  10    1.01    0.33
   1  -1 -10    4.65    0.45
   1  -1 -10    4.59    0.50
  -1   1  10    4.13    0.53
  -8   0 -10   22.39    1.08
   8   0  10   22.88    1.01
  -7   0 -10    0.11    0.28
   7   0  10    0.01    0.24
  -6   0 -10    0.69    0.26
  -6   0 -10   -0.12    0.28
   6   0  10    0.05    0.26
   6   0  10    0.08    0.24
  -5   0 -10    2.98    0.53
   5   0  10    2.70    0.46
   5   0  10    2.28    0.37
  -4   0 -10   17.58    0.85
  -4   0 -10   19.87    1.02
   4   0  10   16.09    0.91
   4   0  10   17.59    0.89
  -3   0 -10    0.44    0.25
  -3   0 -10    0.47    0.24
  -3   0 -10    0.75    0.39
   3   0  10   -0.20    0.31
   3   0  10    1.48    0.39
  -2   0 -10    2.71    0.45
  -2   0 -10    3.98    0.58
  -2   0 -10    2.89    0.42
   2   0  10    3.34    0.45
   2   0  10    2.60    0.48
   2   0  10    3.41    0.50
  -1   0 -10    0.67    0.28
  -1   0 -10    0.47    0.37
  -1   0 -10    0.35    0.30
   1   0  10    1.16    0.31
   1   0  10    1.39    0.35
   1   0  10    1.00    0.39
   0   0 -10    2.77    0.45
   0   0 -10    3.25    0.42
   0   0  10    2.63    0.46
   0   0  10    2.33    0.43
   0   0  10    2.84    0.48
   1   0 -10    0.49    0.29
   1   0 -10    0.69    0.27
  -1   0  10   -0.06    0.41
  -1   0  10    0.36    0.33
  -7   1 -10    7.88    0.62
   7  -1  10    7.34    0.53
  -6   1 -10    1.30    0.34
  -6   1 -10    0.78    0.28
   6  -1  10    0.99    0.28
   6  -1  10    0.78    0.30
  -5   1 -10    1.84    0.38
  -5   1 -10    1.52    0.36
   5  -1  10    2.16    0.35
   5  -1  10    1.80    0.32
  -4   1 -10   11.54    0.73
   4  -1  10    9.42    0.63
   4  -1  10    7.79    0.64
  -3   1 -10   -0.07    0.32
   3  -1  10    0.27    0.30
   3  -1  10   -0.37    0.31
  -2   1 -10    2.15    0.34
  -2   1 -10    2.10    0.36
  -2   1 -10    1.61    0.39
   2  -1  10    2.66    0.47
   2  -1  10    3.21    0.45
  -1   1 -10   16.29    0.93
  -1   1 -10   16.71    0.88
  -1   1 -10   16.36    0.85
   1  -1  10   17.20    0.85
   1  -1  10   17.26    0.89
   1  -1  10   17.43    1.02
   0   1 -10    0.22    0.28
   0   1 -10    0.12    0.27
   0  -1  10    0.11    0.41
   0  -1  10    0.13    0.32
   1   1 -10    8.82    0.60
   1   1 -10    8.66    0.62
  -1  -1  10    8.90    0.76
  -1  -1  10    9.70    0.73
  -7   2 -10    0.15    0.33
   7  -2  10    0.37    0.31
  -6   2 -10    6.43    0.60
  -6   2 -10    6.98    0.54
   6  -2  10    7.04    0.59
   6  -2  10    6.67    0.53
  -5   2 -10   10.40    0.73
  -5   2 -10   10.07    0.67
   5  -2  10   10.53    0.68
   5  -2  10   10.94    0.65
  -4   2 -10    0.37    0.33
  -4   2 -10    0.40    0.32
   4  -2  10    0.35    0.31
   4  -2  10    0.39    0.28
  -3   2 -10    0.75    0.34
  -3   2 -10    0.83    0.33
   3  -2  10   -0.02    0.30
   3  -2  10   -0.26    0.39
   3  -2  10    0.15    0.26
  -2   2 -10    3.52    0.49
  -2   2 -10    5.03    0.57
  -2   2 -10    3.54    0.48
   2  -2  10    4.44    0.46
   2  -2  10    4.05    0.52
   2  -2  10    4.50    0.70
  -1   2 -10    0.20    0.28
  -1   2 -10    0.28    0.28
   1  -2  10    0.30    0.28
   1  -2  10    0.60    0.43
   1  -2  10    0.29    0.33
   0   2 -10    0.36    0.29
   0   2 -10    0.37    0.28
   0  -2  10    0.13    0.42
   0  -2  10    0.72    0.36
  -6   3 -10    0.81    0.29
  -6   3 -10    0.32    0.34
   6  -3  10    0.54    0.39
   6  -3  10    0.67    0.31
  -5   3 -10    2.90    0.52
  -5   3 -10    3.34    0.48
   5  -3  10    3.32    0.45
   5  -3  10    3.43    0.52
  -4   3 -10    0.16    0.28
  -4   3 -10    0.19    0.34
   4  -3  10    0.45    0.33
   4  -3  10   -0.03    0.28
  -3   3 -10    1.34    0.32
  -3   3 -10    1.05    0.38
  -3   3 -10    1.27    0.34
   3  -3  10    1.05    0.36
   3  -3  10    1.81    0.57
   3  -3  10    1.14    0.33
  -2   3 -10    0.03    0.28
  -2   3 -10   -0.05    0.33
  -2   3 -10    0.40    0.29
   2  -3  10   -0.20    0.32
   2  -3  10    0.17    0.29
   2  -3  10    0.26    0.51
  -1   3 -10    0.25    0.28
  -1   3 -10    0.10    0.29
   1  -3  10   -0.12    0.44
   1  -3  10    0.05    0.34
  -4   4 -10   17.41    0.89
  -4   4 -10   15.43    1.00
   4  -4  10   16.81    0.91
   4  -4  10   16.88    0.97
  -3   4 -10    0.09    0.29
  -3   4 -10    0.01    0.41
  -3   4 -10   -0.12    0.28
   3  -4  10    0.26    0.45
   3  -4  10    0.63    0.42
  -5  -5 -11   -0.06    0.33
  -4  -5 -11    9.21    0.64
  -4  -5 -11   11.00    0.77
   4   5  11    9.71    0.70
   4   5  11    8.81    0.63
  -3  -5 -11   21.75    1.18
  -3  -5 -11   23.11    1.06
   3   5  11   23.00    1.09
   3   5  11   23.20    1.07
  -2  -5 -11    2.89    0.46
  -2  -5 -11    3.65    0.61
   2   5  11    3.15    0.51
   2   5  11    3.41    0.56
  -6  -4 -11    6.67    0.60
   6   4  11    5.06    0.54
  -5  -4 -11    3.99    0.54
   5   4  11    4.62    0.47
  -4  -4 -11    6.57    0.57
  -4  -4 -11    6.64    0.53
   4   4  11    5.79    0.56
   4   4  11    6.03    0.52
  -3  -4 -11    9.66    0.64
  -3  -4 -11    9.30    0.70
   3   4  11   10.49    0.68
   3   4  11    9.61    0.65
  -2  -4 -11   14.41    0.78
  -2  -4 -11   13.17    0.86
   2   4  11   14.25    0.78
   2   4  11   13.98    0.81
  -1  -4 -11    0.40    0.27
  -1  -4 -11    0.37    0.37
  -1  -4 -11    0.56    0.31
   1   4  11    0.42    0.34
   1   4  11    0.65    0.34
  -6  -3 -11   -0.59    0.31
   6   3  11    0.42    0.26
  -5  -3 -11   -0.12    0.32
  -5  -3 -11    0.33    0.26
   5   3  11    0.04    0.29
   5   3  11   -0.11    0.27
  -4  -3 -11    9.46    0.70
  -4  -3 -11    9.21    0.62
   4   3  11    9.44    0.63
   4   3  11    8.63    0.65
  -3  -3 -11    4.73    0.50
  -3  -3 -11    5.36    0.58
   3   3  11    4.60    0.55
   3   3  11    4.99    0.52
  -2  -3 -11    7.22    0.58
  -2  -3 -11    7.62    0.56
  -2  -3 -11    7.76    0.67
   2   3  11    7.91    0.63
   2   3  11    7.47    0.58
  -1  -3 -11    6.06    0.53
  -1  -3 -11    5.93    0.69
  -1  -3 -11    5.62    0.53
   1   3  11    5.92    0.69
   1   3  11    5.99    0.59
   1   3  11    5.91    0.56
  -6  -2 -11    0.42    0.31
   6   2  11    0.60    0.28
  -5  -2 -11    4.97    0.54
  -5  -2 -11    4.48    0.47
   5   2  11    4.58    0.47
   5   2  11    4.88    0.52
  -4  -2 -11    0.41    0.32
  -4  -2 -11    0.26    0.26
   4   2  11    0.58    0.29
   4   2  11    0.33    0.31
  -3  -2 -11    0.80    0.30
  -3  -2 -11    1.00    0.36
   3   2  11    0.74    0.33
   3   2  11    0.58    0.31
  -2  -2 -11    1.72    0.40
  -2  -2 -11    2.38    0.43
  -2  -2 -11    2.34    0.43
   2   2  11    2.00    0.39
   2   2  11    2.05    0.36
  -1  -2 -11    2.62    0.42
  -1  -2 -11    1.57    0.42
  -1  -2 -11    2.84    0.45
   1   2  11    2.29    0.38
   1   2  11    2.16    0.41
   1   2  11    1.46    0.46
  -6  -1 -11    0.13    0.30
   6   1  11    0.17    0.28
  -5  -1 -11    0.55    0.33
  -5  -1 -11    0.61    0.28
   5   1  11    0.35    0.30
   5   1  11    0.08    0.28
  -4  -1 -11    0.13    0.26
  -4  -1 -11   -0.06    0.31
   4   1  11    0.12    0.29
   4   1  11   -0.11    0.29
  -3  -1 -11    0.05    0.26
  -3  -1 -11    0.06    0.32
   3   1  11    0.19    0.29
   3   1  11    0.20    0.31
  -2  -1 -11    0.18    0.25
  -2  -1 -11    0.19    0.28
  -2  -1 -11    0.19    0.33
   2   1  11    0.15    0.29
   2   1  11   -0.07    0.32
   2   1  11    0.49    0.43
  -1  -1 -11    2.55    0.47
  -1  -1 -11    3.27    0.47
  -1  -1 -11    3.53    0.43
   1   1  11    2.75    0.50
   1   1  11    3.09    0.51
   1   1  11    3.13    0.48
  -6   0 -11    3.02    0.47
  -6   0 -11    1.92    0.40
   6   0  11    2.51    0.42
   6   0  11    3.30    0.56
  -5   0 -11    0.00    0.31
  -5   0 -11    0.20    0.27
   5   0  11    0.39    0.31
   5   0  11    0.05    0.27
  -4   0 -11    6.98    0.55
  -4   0 -11    5.79    0.59
   4   0  11    5.71    0.54
   4   0  11    5.80    0.58
  -3   0 -11    0.04    0.32
  -3   0 -11    0.00    0.27
   3   0  11   -0.08    0.29
   3   0  11    0.02    0.31
  -2   0 -11    5.54    0.60
  -2   0 -11    5.45    0.53
  -2   0 -11    5.82    0.52
   2   0  11    5.34    0.57
   2   0  11    5.14    0.78
   2   0  11    5.92    0.55
  -1   0 -11    4.69    0.49
  -1   0 -11    4.45    0.49
   1   0  11    4.94    0.58
   1   0  11    4.61    0.57
   1   0  11    4.20    0.68
  -6   1 -11    0.31    0.41
   6  -1  11   -0.19    0.32
   6  -1  11   -0.17    0.32
  -5   1 -11    2.37    0.43
  -5   1 -11    3.22    0.49
   5  -1  11    2.85    0.44
   5  -1  11    3.95    0.54
  -4   1 -11    6.57    0.63
  -4   1 -11    7.45    0.58
   4  -1  11    6.63    0.61
   4  -1  11    7.30    0.56
  -3   1 -11    0.10    0.27
  -3   1 -11   -0.08    0.32
  -3   1 -11   -0.02    0.28
   3  -1  11   -0.30    0.32
   3  -1  11    0.15    0.28
  -2   1 -11    0.83    0.29
  -2   1 -11    0.66    0.30
  -2   1 -11    0.00    0.40
   2  -1  11    1.17    0.34
   2  -1  11    0.83    0.37
   2  -1  11    0.59    0.44
  -4   2 -11    0.81    0.45
  -4   2 -11    0.23    0.29
   4  -2  11    0.54    0.37
   4  -2  11   -0.54    0.38
  -3   2 -11    0.96    0.43
  -3   2 -11    1.48    0.35
   3  -2  11    1.14    0.37
   3  -2  11    1.25    0.44
   0   0   0    0.00    0.00
;
_shelx_hkl_checksum              23844
#END Tags that were not found in dictionaries
loop_
_space_group_symop_operation_xyz
'x, y, z'
'-x, -y, -z'
loop_
_atom_site_label
_atom_site_type_symbol
_atom_site_fract_x
_atom_site_fract_y
_atom_site_fract_z
_atom_site_U_iso_or_equiv
_atom_site_adp_type
_atom_site_occupancy
_atom_site_site_symmetry_order
_atom_site_calc_flag
_atom_site_refinement_flags_posn
F1 F 0.07961(15) 0.63857(11) 0.92269(10) 0.0160(3) Uani 1 1 d .
F2 F 0.26271(16) 0.84428(12) 0.81697(11) 0.0153(3) Uani 1 1 d .
F3 F -0.01560(15) 0.86872(11) 0.94703(10) 0.0161(3) Uani 1 1 d .
N1 N 0.1555(2) 0.74728(16) 0.45714(15) 0.0118(4) Uani 1 1 d .
N2 N 0.1874(2) 0.74448(16) 0.58975(15) 0.0127(4) Uani 1 1 d .
N3 N -0.1002(2) 0.84398(16) 0.70979(15) 0.0126(4) Uani 1 1 d .
C1 C 0.0560(3) 0.79429(19) 0.70236(18) 0.0121(4) Uani 1 1 d .
C2 C -0.1376(3) 0.83051(19) 0.58057(18) 0.0123(4) Uani 1 1 d .
C3 C -0.3045(3) 0.86495(19) 0.57933(18) 0.0133(4) Uani 1 1 d .
H3 H -0.3906 0.9006 0.6655 0.016 Uiso 1 1 calc R
C4 C -0.3465(3) 0.84777(19) 0.45375(19) 0.0132(4) Uani 1 1 d .
H4 H -0.4608 0.8714 0.4538 0.016 Uiso 1 1 calc R
C5 C -0.2200(3) 0.79559(19) 0.32704(19) 0.0143(4) Uani 1 1 d .
H5 H -0.2495 0.7841 0.2411 0.017 Uiso 1 1 calc R
C6 C -0.0534(3) 0.76035(19) 0.32406(18) 0.0134(4) Uani 1 1 d .
H6 H 0.0307 0.7235 0.2377 0.016 Uiso 1 1 calc R
C7 C -0.0093(3) 0.77953(19) 0.45020(18) 0.0119(4) Uani 1 1 d .
C8 C 0.3012(3) 0.70170(19) 0.33142(18) 0.0118(4) Uani 1 1 d .
C9 C 0.3640(3) 0.7986(2) 0.18588(19) 0.0141(4) Uani 1 1 d .
H9 H 0.3104 0.8937 0.1689 0.017 Uiso 1 1 calc R
C10 C 0.5060(3) 0.7535(2) 0.06653(19) 0.0142(4) Uani 1 1 d .
H10 H 0.5500 0.8181 -0.0333 0.017 Uiso 1 1 calc R
C11 C 0.5845(3) 0.6145(2) 0.09176(19) 0.0147(4) Uani 1 1 d .
H11 H 0.6814 0.5841 0.0092 0.018 Uiso 1 1 calc R
C12 C 0.5211(3) 0.5198(2) 0.23802(19) 0.0144(4) Uani 1 1 d .
H12 H 0.5752 0.4250 0.2552 0.017 Uiso 1 1 calc R
C13 C 0.3793(3) 0.5632(2) 0.35882(18) 0.0137(4) Uani 1 1 d .
H13 H 0.3362 0.4992 0.4589 0.016 Uiso 1 1 calc R
C14 C 0.0957(3) 0.7884(2) 0.84786(18) 0.0121(4) Uani 1 1 d .
loop_
_atom_site_aniso_label
_atom_site_aniso_U_11
_atom_site_aniso_U_22
_atom_site_aniso_U_33
_atom_site_aniso_U_23
_atom_site_aniso_U_13
_atom_site_aniso_U_12
F1 0.0201(8) 0.0133(5) 0.0150(5) -0.0002(4) -0.0080(4) -0.0007(5)
F2 0.0115(9) 0.0194(5) 0.0156(5) -0.0028(4) -0.0061(4) -0.0024(5)
F3 0.0167(8) 0.0193(5) 0.0139(5) -0.0074(4) -0.0060(4) 0.0038(5)
N1 0.0098(11) 0.0148(7) 0.0120(7) -0.0037(5) -0.0050(6) 0.0009(7)
N2 0.0133(11) 0.0144(7) 0.0113(6) -0.0017(5) -0.0061(6) 0.0000(7)
N3 0.0128(11) 0.0130(7) 0.0123(7) -0.0026(5) -0.0051(6) -0.0002(7)
C1 0.0127(13) 0.0090(8) 0.0137(8) -0.0009(6) -0.0045(7) -0.0021(8)
C2 0.0149(13) 0.0095(8) 0.0124(8) -0.0012(6) -0.0054(7) -0.0004(8)
C3 0.0129(13) 0.0124(8) 0.0134(8) -0.0026(6) -0.0036(7) 0.0006(8)
C4 0.0111(13) 0.0113(8) 0.0177(8) -0.0003(6) -0.0070(7) -0.0004(8)
C5 0.0187(14) 0.0119(8) 0.0136(8) -0.0015(6) -0.0080(7) -0.0011(8)
C6 0.0135(13) 0.0127(8) 0.0122(8) -0.0020(6) -0.0029(7) 0.0001(8)
C7 0.0115(13) 0.0090(8) 0.0149(8) -0.0003(6) -0.0054(7) -0.0015(8)
C8 0.0083(13) 0.0151(8) 0.0136(8) -0.0062(6) -0.0047(7) -0.0013(8)
C9 0.0145(13) 0.0139(8) 0.0167(8) -0.0030(6) -0.0090(7) 0.0003(8)
C10 0.0132(13) 0.0166(8) 0.0123(8) -0.0025(6) -0.0045(7) -0.0036(8)
C11 0.0099(13) 0.0195(9) 0.0165(8) -0.0087(7) -0.0050(7) -0.0013(8)
C12 0.0124(13) 0.0142(8) 0.0190(8) -0.0055(7) -0.0076(7) 0.0016(8)
C13 0.0151(13) 0.0144(8) 0.0124(8) -0.0024(6) -0.0061(7) -0.0017(8)
C14 0.0085(14) 0.0122(8) 0.0144(8) -0.0025(6) -0.0031(7) -0.0005(8)
loop_
_atom_type_symbol
_atom_type_description
_atom_type_scat_dispersion_real
_atom_type_scat_dispersion_imag
_atom_type_scat_source
C C 0.0033 0.0016 'International Tables Vol C Tables 4.2.6.8 and 6.1.1.4'
H H 0.0000 0.0000 'International Tables Vol C Tables 4.2.6.8 and 6.1.1.4'
N N 0.0061 0.0033 'International Tables Vol C Tables 4.2.6.8 and 6.1.1.4'
F F 0.0171 0.0103 'International Tables Vol C Tables 4.2.6.8 and 6.1.1.4'
loop_
_geom_angle_atom_site_label_1
_geom_angle_atom_site_label_2
_geom_angle_atom_site_label_3
_geom_angle
N2 N1 C7 122.29(14)
N2 N1 C8 114.34(15)
C7 N1 C8 123.18(14)
C1 N2 N1 113.93(15)
C1 N3 C2 113.71(14)
N2 C1 C14 112.39(16)
N3 C1 N2 131.37(16)
N3 C1 C14 116.22(15)
N3 C2 C3 119.67(15)
N3 C2 C7 121.20(17)
C3 C2 C7 119.12(15)
C2 C3 H3 119.7
C4 C3 C2 120.66(16)
C4 C3 H3 119.7
C3 C4 H4 120.2
C3 C4 C5 119.68(19)
C5 C4 H4 120.2
C4 C5 H5 119.3
C6 C5 C4 121.33(16)
C6 C5 H5 119.3
C5 C6 H6 120.4
C5 C6 C7 119.22(16)
C7 C6 H6 120.4
N1 C7 C2 116.80(15)
N1 C7 C6 123.21(15)
C6 C7 C2 119.97(18)
C9 C8 N1 119.61(15)
C13 C8 N1 118.97(14)
C13 C8 C9 121.40(16)
C8 C9 H9 120.6
C10 C9 C8 118.77(16)
C10 C9 H9 120.6
C9 C10 H10 119.7
C9 C10 C11 120.52(15)
C11 C10 H10 119.7
C10 C11 H11 120.0
C10 C11 C12 119.96(16)
C12 C11 H11 120.0
C11 C12 H12 119.9
C13 C12 C11 120.27(16)
C13 C12 H12 119.9
C8 C13 H13 120.5
C12 C13 C8 119.08(15)
C12 C13 H13 120.5
F1 C14 C1 110.48(14)
F2 C14 F1 106.23(14)
F2 C14 C1 112.75(14)
F3 C14 F1 107.12(13)
F3 C14 F2 107.75(14)
F3 C14 C1 112.17(15)
loop_
_geom_bond_atom_site_label_1
_geom_bond_atom_site_label_2
_geom_bond_distance
F1 C14 1.3505(19)
F2 C14 1.343(2)
F3 C14 1.3260(19)
N1 N2 1.3716(19)
N1 C7 1.390(2)
N1 C8 1.437(2)
N2 C1 1.325(2)
N3 C1 1.320(2)
N3 C2 1.389(2)
C1 C14 1.523(2)
C2 C3 1.392(3)
C2 C7 1.419(2)
C3 H3 0.9500
C3 C4 1.385(2)
C4 H4 0.9500
C4 C5 1.396(2)
C5 H5 0.9500
C5 C6 1.378(3)
C6 H6 0.9500
C6 C7 1.404(2)
C8 C9 1.395(2)
C8 C13 1.389(2)
C9 H9 0.9500
C9 C10 1.386(2)
C10 H10 0.9500
C10 C11 1.391(2)
C11 H11 0.9500
C11 C12 1.392(2)
C12 H12 0.9500
C12 C13 1.387(2)
C13 H13 0.9500
loop_
_geom_torsion_atom_site_label_1
_geom_torsion_atom_site_label_2
_geom_torsion_atom_site_label_3
_geom_torsion_atom_site_label_4
_geom_torsion
N1 N2 C1 N3 1.0(3)
N1 N2 C1 C14 179.62(14)
N1 C8 C9 C10 179.29(18)
N1 C8 C13 C12 -179.39(18)
N2 N1 C7 C2 8.2(2)
N2 N1 C7 C6 -170.23(16)
N2 N1 C8 C9 -128.57(17)
N2 N1 C8 C13 49.9(2)
N2 C1 C14 F1 -74.2(2)
N2 C1 C14 F2 44.49(19)
N2 C1 C14 F3 166.35(15)
N3 C1 C14 F1 104.66(17)
N3 C1 C14 F2 -136.64(16)
N3 C1 C14 F3 -14.8(2)
N3 C2 C3 C4 -178.04(16)
N3 C2 C7 N1 -1.3(2)
N3 C2 C7 C6 177.19(16)
C1 N3 C2 C3 174.09(15)
C1 N3 C2 C7 -4.8(2)
C2 N3 C1 N2 5.3(3)
C2 N3 C1 C14 -173.26(15)
C2 C3 C4 C5 -0.1(3)
C3 C2 C7 N1 179.76(15)
C3 C2 C7 C6 -1.7(2)
C3 C4 C5 C6 0.1(3)
C4 C5 C6 C7 -0.9(3)
C5 C6 C7 N1 -179.86(15)
C5 C6 C7 C2 1.7(3)
C7 N1 N2 C1 -8.1(2)
C7 N1 C8 C9 56.3(2)
C7 N1 C8 C13 -125.18(18)
C7 C2 C3 C4 0.9(2)
C8 N1 N2 C1 176.74(15)
C8 N1 C7 C2 -177.04(15)
C8 N1 C7 C6 4.5(3)
C8 C9 C10 C11 -0.2(3)
C9 C8 C13 C12 -0.9(3)
C9 C10 C11 C12 -0.3(3)
C10 C11 C12 C13 0.2(3)
C11 C12 C13 C8 0.4(3)
C13 C8 C9 C10 0.8(3)
