#------------------------------------------------------------------------------
#$Date: 2016-03-22 21:53:30 +0200 (Tue, 22 Mar 2016) $
#$Revision: 179027 $
#$URL: svn://www.crystallography.net/cod/cif/4/12/25/4122587.cif $
#------------------------------------------------------------------------------
#
# This file is available in the Crystallography Open Database (COD),
# http://www.crystallography.net/
#
# All data on this site have been placed in the public domain by the
# contributors.
#
data_4122587
loop_
_publ_author_name
'Jablonskyt\.e, Au\<sra'
'Webster, Lee R.'
'Simmons, Trevor R.'
'Wright, Joseph A.'
'Pickett, Christopher J.'
_publ_section_title
;
 Electronic control of the protonation rates of Fe-Fe bonds.
;
_journal_issue                   37
_journal_name_full               'Journal of the American Chemical Society'
_journal_page_first              13038
_journal_page_last               13044
_journal_paper_doi               10.1021/ja506693m
_journal_volume                  136
_journal_year                    2014
_chemical_formula_moiety         'C10 H13 Fe2 O5 P S2'
_chemical_formula_structural     Fe2(edt)(CO)5(PMe3)
_chemical_formula_sum            'C10 H13 Fe2 O5 P S2'
_chemical_formula_weight         419.99
_chemical_name_systematic
;
 ?
;
_space_group_crystal_system      triclinic
_space_group_IT_number           2
_space_group_name_Hall           '-P 1'
_space_group_name_H-M_alt        'P -1'
_symmetry_space_group_name_Hall  '-P 1'
_symmetry_space_group_name_H-M   'P -1'
_atom_sites_solution_hydrogens   geom
_audit_creation_method           SHELXL-2014
_cell_angle_alpha                101.030(4)
_cell_angle_beta                 104.003(5)
_cell_angle_gamma                113.074(5)
_cell_formula_units_Z            2
_cell_length_a                   8.4937(5)
_cell_length_b                   9.4901(5)
_cell_length_c                   11.7656(6)
_cell_measurement_reflns_used    2157
_cell_measurement_temperature    140(2)
_cell_measurement_theta_max      32.4240
_cell_measurement_theta_min      3.2107
_cell_volume                     801.90(9)
_computing_cell_refinement       'CrysAlisPro (Agilent Technologies, 2012)'
_computing_data_collection       'CrysAlisPro (Agilent Technologies, 2012)'
_computing_data_reduction        'CrysAlisPro (Agilent Technologies, 2012)'
_computing_molecular_graphics    'CAMERON (Watkin et al., 1993)'
_computing_publication_material
;
 SHELXL-2013 (Sheldrick, 2013), WinGX (Farrugia, 2012)
 and enCIFer (Allen et al., 2004)
;
_computing_structure_refinement  'SHELXL-2014 (Sheldrick, 2014)'
_computing_structure_solution    'SIR92 (Altomare et al., 1993)'
_diffrn_ambient_temperature      140(2)
_diffrn_detector_area_resol_mean 16.0050
_diffrn_measured_fraction_theta_full 0.998
_diffrn_measured_fraction_theta_max 0.998
_diffrn_measurement_device_type  'Xcalibur, Sapphire3'
_diffrn_measurement_method       '\w scans'
_diffrn_radiation_monochromator  graphite
_diffrn_radiation_probe          x-ray
_diffrn_radiation_source         'Enhance (Mo) X-ray Source'
_diffrn_radiation_type           'Mo K\a'
_diffrn_radiation_wavelength     0.71073
_diffrn_reflns_av_R_equivalents  0.0887
_diffrn_reflns_av_unetI/netI     0.0937
_diffrn_reflns_Laue_measured_fraction_full 0.998
_diffrn_reflns_Laue_measured_fraction_max 0.998
_diffrn_reflns_limit_h_max       11
_diffrn_reflns_limit_h_min       -11
_diffrn_reflns_limit_k_max       12
_diffrn_reflns_limit_k_min       -12
_diffrn_reflns_limit_l_max       15
_diffrn_reflns_limit_l_min       -15
_diffrn_reflns_number            13038
_diffrn_reflns_point_group_measured_fraction_full 0.998
_diffrn_reflns_point_group_measured_fraction_max 0.998
_diffrn_reflns_theta_full        25.242
_diffrn_reflns_theta_max         27.495
_diffrn_reflns_theta_min         3.217
_exptl_absorpt_coefficient_mu    2.180
_exptl_absorpt_correction_T_max  1.00000
_exptl_absorpt_correction_T_min  0.98420
_exptl_absorpt_correction_type   multi-scan
_exptl_absorpt_process_details   'CrysAlisPro (Agilent Technologies, 2012)'
_exptl_crystal_colour            red
_exptl_crystal_density_diffrn    1.739
_exptl_crystal_description       slab
_exptl_crystal_F_000             424
_exptl_crystal_size_max          0.030
_exptl_crystal_size_mid          0.030
_exptl_crystal_size_min          0.016
_refine_diff_density_max         0.822
_refine_diff_density_min         -0.493
_refine_diff_density_rms         0.114
_refine_ls_extinction_method     none
_refine_ls_goodness_of_fit_ref   1.022
_refine_ls_hydrogen_treatment    constr
_refine_ls_matrix_type           full
_refine_ls_number_parameters     184
_refine_ls_number_reflns         3675
_refine_ls_number_restraints     0
_refine_ls_restrained_S_all      1.022
_refine_ls_R_factor_all          0.0905
_refine_ls_R_factor_gt           0.0567
_refine_ls_shift/su_max          0.000
_refine_ls_shift/su_mean         0.000
_refine_ls_structure_factor_coef Fsqd
_refine_ls_weighting_details
'w=1/[\s^2^(Fo^2^)+(0.0251P)^2^] where P=(Fo^2^+2Fc^2^)/3'
_refine_ls_weighting_scheme      calc
_refine_ls_wR_factor_gt          0.0856
_refine_ls_wR_factor_ref         0.0935
_reflns_Friedel_coverage         0.000
_reflns_number_gt                2652
_reflns_number_total             3675
_reflns_threshold_expression     'I > 2\s(I)'
_cod_data_source_file            ja506693m_si_002.cif
_cod_data_source_block           3(edt)
_cod_depositor_comments
'Adding full bibliography for 4122577--4122589.cif.'
_cod_original_cell_volume        801.90(8)
_cod_database_code               4122587
#BEGIN Tags that were not found in dictionaries:
_shelx_space_group_comment
;
The symmetry employed for this shelxl refinement is uniquely defined
by the following loop, which should always be used as a source of
symmetry information in preference to the above space-group names.
They are only intended as comments.
;
_shelx_estimated_absorpt_t_min   0.937
_shelx_estimated_absorpt_t_max   0.966
_shelxl_version_number           2014-3
_shelx_res_file
;
TITL ausraj16 in P -1
CELL  0.71073   8.4937   9.4901  11.7656  101.030  104.003  113.074
ZERR     2.00   0.0005   0.0005   0.0006    0.004    0.005    0.005
LATT   1
SFAC  C    H    FE   O    P    S
UNIT  20   26   4    10   2    4
MERG   2
OMIT     0.00  55.00
FMAP   2
PLAN   10
SIZE     0.016   0.030   0.030
ACTA
BOND   $H
CONF
L.S.   6
TEMP  -133.00
WGHT    0.025100
FVAR       1.89110
C1    1   -0.016615   -0.067640    0.222720    11.00000    0.02545    0.03422 =
         0.02619    0.01758    0.01760    0.01630
C2    1   -0.028785    0.143977    0.415211    11.00000    0.02911    0.02515 =
         0.03867    0.01528    0.01484    0.01702
C3    1   -0.239213    0.079327    0.193403    11.00000    0.02626    0.02018 =
         0.03140    0.01255    0.01605    0.01125
C4    1    0.192076    0.527929    0.445718    11.00000    0.01795    0.02246 =
         0.02724    0.01127    0.00851    0.01119
C5    1   -0.044990    0.452285    0.237901    11.00000    0.02619    0.01573 =
         0.02438    0.00743    0.01531    0.01021
C6    1    0.379583    0.224895    0.237213    11.00000    0.02082    0.02557 =
         0.03519    0.01037    0.01200    0.01543
AFIX  23
H6A   2    0.507009    0.305935    0.255635    11.00000   -1.20000
H6B   2    0.379451    0.120437    0.236819    11.00000   -1.20000
AFIX   0
C7    1    0.261858    0.206550    0.110013    11.00000    0.02336    0.02361 =
         0.02684    0.00513    0.01377    0.01038
AFIX  23
H7A   2    0.224754    0.099126    0.052230    11.00000   -1.20000
H7B   2    0.334568    0.289865    0.078764    11.00000   -1.20000
AFIX   0
C8    1    0.572530    0.649066    0.276762    11.00000    0.02415    0.02964 =
         0.04130    0.01184    0.01561    0.01102
AFIX 137
H8A   2    0.648312    0.749795    0.264848    11.00000   -1.50000
H8B   2    0.561115    0.556858    0.214909    11.00000   -1.50000
H8C   2    0.629714    0.649151    0.359811    11.00000   -1.50000
AFIX   0
C9    1    0.271759    0.647622    0.105962    11.00000    0.03212    0.03218 =
         0.02807    0.01056    0.01130    0.01092
AFIX 137
H9A   2    0.158121    0.656801    0.091633    11.00000   -1.50000
H9B   2    0.250467    0.550581    0.044053    11.00000   -1.50000
H9C   2    0.366132    0.743329    0.099318    11.00000   -1.50000
AFIX   0
C10   1    0.403682    0.829666    0.360612    11.00000    0.03178    0.01847 =
         0.04023    0.00785    0.01659    0.01012
AFIX 137
H10A  2    0.468478    0.842049    0.445893    11.00000   -1.50000
H10B  2    0.291223    0.838360    0.355960    11.00000   -1.50000
H10C  2    0.481995    0.914708    0.334553    11.00000   -1.50000
AFIX   0
FE1   3   -0.006629    0.128602    0.266774    11.00000    0.01950    0.01826 =
         0.02644    0.00972    0.01110    0.01100
FE2   3    0.150007    0.423391    0.292378    11.00000    0.01583    0.01728 =
         0.01941    0.00600    0.00759    0.00997
O1    4   -0.023774   -0.193050    0.194053    11.00000    0.05515    0.02770 =
         0.05115    0.01737    0.03068    0.02910
O2    4   -0.045433    0.155814    0.509398    11.00000    0.05097    0.05301 =
         0.03576    0.02058    0.02607    0.03089
O3    4   -0.388927    0.048657    0.145962    11.00000    0.02135    0.04147 =
         0.05547    0.01467    0.01321    0.01478
O4    4    0.219206    0.597028    0.546597    11.00000    0.02664    0.04697 =
         0.02206    0.00177    0.00798    0.01804
O5    4   -0.178109    0.462204    0.201260    11.00000    0.02554    0.03411 =
         0.03967    0.01643    0.01275    0.02100
P1    5    0.346906    0.633088    0.259530    11.00000    0.01810    0.01841 =
         0.02295    0.00651    0.00852    0.00856
S1    6    0.298944    0.287740    0.358447    11.00000    0.01885    0.02597 =
         0.02443    0.00982    0.00708    0.01391
S2    6    0.056678    0.226971    0.113570    11.00000    0.01880    0.01973 =
         0.02015    0.00585    0.00706    0.01005
HKLF    4

REM  ausraj16 in P -1
REM R1 =  0.0567 for    2652 Fo > 4sig(Fo)  and  0.0905 for all    3675 data
REM    184 parameters refined using      0 restraints

END

WGHT      0.0251      0.0000

REM Highest difference peak  0.822,  deepest hole -0.493,  1-sigma level  0.114
Q1    1   0.2323  0.4598  0.3775  11.00000  0.05    0.82
Q2    1   0.0623  0.4051  0.2076  11.00000  0.05    0.71
Q3    1   0.0673  0.1667  0.3544  11.00000  0.05    0.68
Q4    1  -0.0967  0.0974  0.1769  11.00000  0.05    0.67
Q5    1   0.2597  0.4976  0.2652  11.00000  0.05    0.66
Q6    1   0.0312  0.1830  0.1941  11.00000  0.05    0.60
Q7    1  -0.0946  0.1129  0.3149  11.00000  0.05    0.57
Q8    1  -0.1017  0.0120  0.2669  11.00000  0.05    0.51
Q9    1   0.0417  0.3711  0.3244  11.00000  0.05    0.50
Q10   1   0.0996  0.2385  0.2536  11.00000  0.05    0.50
;
_shelx_res_checksum              90322
_shelx_hkl_file
;
 -12   2   2 882.662 471.794   6
 -12   2   3 2221.93 594.800   6
 -12   2   4-659.114 413.319   6
 -12   2   5 1077.02 483.992   6
 -12   2   5 391.397 310.404   9
 -12   2   6 754.174 398.805   9
 -12   2   6 392.079 411.299   6
 -12   2   7 317.490 395.383   6
 -12   3   3 822.393 426.288   9
 -12   3   4 283.146 282.420   6
 -12   3   4 986.117 376.125   9
 -12   3   5 444.413 363.690   6
 -12   3   5 639.155 378.009   9
 -12   3   6 336.767 332.078   9
 -12   3   6 43.0932 347.090   6
 -12   3   7 1306.19 533.579   9
 -12   3   7 907.673 443.887   6
 -12   3   8-70.0723 300.190   6
 -12   4   2 141.576 227.027   9
 -12   4   3 512.067 352.730   9
 -12   4   4 887.117 366.496   9
 -12   4   5-289.158 285.197   9
 -12   4   6 294.056 240.266   9
 -12   4   7 1044.85 488.919   6
 -12   4   7 935.424 475.769   9
 -12   5   2 720.015 384.508   9
 -12   5   3 89.5597 241.165   9
 -12   5   4 118.486 224.218   9
 -12   5   5 499.193 448.791   9
 -12   5   6 78.7516 331.107   9
 -12   6   2-429.074 353.260   9
 -12   6   3 1029.21 421.098   9
 -12   6   4 1218.96 459.348   9
 -12   6   5 2376.11 604.785   9
 -12   6   6 1414.34 500.795   9
 -12   7  -1 1703.29 582.962   2
 -12   7   2 432.688 398.185   9
 -12   7   3 664.997 390.893   9
 -12   7   4 105.134 284.566   9
 -12   7   5 1207.15 446.293   9
 -11  -1   2 479.652 350.548   9
 -11  -1   3 261.870 227.214   9
 -11  -1   4 784.069 348.886   9
 -11  -1   5 426.443 319.709   9
 -11  -1   6 644.953 310.162   9
 -11  -1   7 2079.69 543.854   9
 -11  -1   8 131.058 213.501   9
 -11  -1   9 764.954 350.318   9
 -11  -1  10-252.557 269.635   9
 -11   0   1 210.831 287.974   9
 -11   0   2-303.437 374.929   6
 -11   0   2 865.206 396.278   9
 -11   0   3 341.166 268.133   9
 -11   0   3 721.034 459.660   6
 -11   0   4 1017.69 467.252   6
 -11   0   4 145.675 228.002   9
 -11   0   5-292.788 328.165   6
 -11   0   5 327.722 292.948   9
 -11   0   6 167.184 297.876   6
 -11   0   6 550.187 287.342   9
 -11   0   7 520.090 310.924   9
 -11   0   7 364.098 367.082   6
 -11   0   8 181.407 273.865   9
 -11   0   8 370.342 406.520   6
 -11   0   9-132.420 348.784   6
 -11   0   9 47.0183 241.560   9
 -11   0  10-553.482 322.641   9
 -11   0  11 463.248 389.221   9
 -11   1  -1 215.372 298.381   6
 -11   1   0 441.774 349.863   6
 -11   1   0 239.204 339.424   9
 -11   1   1-190.404 237.907   9
 -11   1   1-165.168 321.072   6
 -11   1   2 509.983 297.918   9
 -11   1   2 864.383 465.746   6
 -11   1   3 429.016 329.642   9
 -11   1   3 823.122 457.865   6
 -11   1   4 1014.99 402.570   6
 -11   1   4 1015.33 387.255   9
 -11   1   5-103.801 269.917   9
 -11   1   5-414.244 406.872   6
 -11   1   6 960.160 401.579   9
 -11   1   6 264.792 293.769   6
 -11   1   7-669.895 454.239   6
 -11   1   7 173.118 245.740   9
 -11   1   8 121.288 327.760   6
 -11   1   8-249.403 287.534   9
 -11   1   9 1399.01 457.802   9
 -11   1   9 839.012 398.033   6
 -11   1  10-117.871 255.607   9
 -11   1  10 713.685 426.957   6
 -11   1  11 982.627 461.326   9
 -11   2  -1 1684.43 546.629   9
 -11   2  -1 720.147 387.091   6
 -11   2   0 224.150 313.941   6
 -11   2   0 539.146 351.482   9
 -11   2   1 2204.35 562.159   6
 -11   2   1 917.597 438.012   9
 -11   2   2 2274.15 547.789   6
 -11   2   2 2585.70 584.133   9
 -11   2   3 273.544 212.995   9
 -11   2   3 1796.95 516.111   6
 -11   2   4 1647.13 479.680   6
 -11   2   4 1544.93 483.061   9
 -11   2   5 1181.93 431.286   6
 -11   2   5 312.528 314.719   9
 -11   2   6 691.786 405.844   6
 -11   2   6 1364.92 487.011   9
 -11   2   7 27.2482 245.160   9
 -11   2   7-682.931 366.923   6
 -11   2   8 3190.39 708.735   6
 -11   2   8 2506.36 571.825   9
 -11   2   9 732.938 428.597   6
 -11   2   9-155.361 259.563   9
 -11   2  10 2882.98 676.032   9
 -11   2  11 275.169 324.750   9
 -11   3  -2 1027.33 508.848   9
 -11   3  -1 818.610 426.327   9
 -11   3   0 606.029 326.987   9
 -11   3   1 534.867 358.295   6
 -11   3   1 1425.68 466.897   9
 -11   3   2 266.445 305.788   9
 -11   3   2 329.243 250.260   6
 -11   3   3 799.442 330.214   9
 -11   3   3 659.455 355.381   6
 -11   3   4-376.698 314.230   6
 -11   3   4 795.177 432.561   9
 -11   3   5-152.698 337.294   6
 -11   3   5 431.696 357.537   9
 -11   3   6-453.195 372.196   6
 -11   3   6 364.048 376.339   9
 -11   3   7 105.312 334.120   6
 -11   3   7 474.535 313.883   9
 -11   3   8-242.475 267.592   9
 -11   3   8-146.279 359.450   6
 -11   3   9 835.494 446.274   9
 -11   3  10-196.185 258.392   9
 -11   3  11 300.675 278.836   9
 -11   4  -2 496.590 337.496   9
 -11   4  -1 532.288 349.548   9
 -11   4   0 71.8381 275.645   9
 -11   4   1-81.1681 251.299   9
 -11   4   2 174.279 248.772   9
 -11   4   3 340.597 392.551   9
 -11   4   3-287.097 317.938   6
 -11   4   4 464.523 291.323   6
 -11   4   4 510.180 327.365   9
 -11   4   5 32.5891 235.878   9
 -11   4   5 221.863 256.404   6
 -11   4   6 1614.97 465.354   6
 -11   4   6 1462.99 478.044   9
 -11   4   7 323.978 281.933   9
 -11   4   7 175.643 311.440   6
 -11   4   8 1400.75 463.694   9
 -11   4   9 654.780 396.313   9
 -11   4  10-120.395 291.857   9
 -11   5  -3-467.783 351.271   9
 -11   5  -2-73.7293 270.341   9
 -11   5  -1-312.980 377.351   9
 -11   5   0 1454.00 470.466   9
 -11   5   1 769.998 406.063   9
 -11   5   2 869.301 352.692   9
 -11   5   3 964.927 443.674   9
 -11   5   4-47.4658 222.600   9
 -11   5   5 4991.91 781.406   9
 -11   5   6 287.538 317.632   9
 -11   5   7 4256.97 745.861   9
 -11   5   8 194.570 309.109   9
 -11   5   9 567.226 423.550   9
 -11   5  10 11.2976 260.241   9
 -11   6  -3 316.224 301.726   9
 -11   6  -2 1053.84 409.106   9
 -11   6  -1 771.596 356.277   9
 -11   6   0 664.214 415.341   9
 -11   6   1 1182.69 427.036   9
 -11   6   2 781.650 358.482   9
 -11   6   3 594.718 398.543   9
 -11   6   4 4950.73 776.565   9
 -11   6   5 454.057 382.845   9
 -11   6   6 5182.79 812.227   9
 -11   6   7 645.049 414.561   9
 -11   6   8-331.405 296.622   9
 -11   6   9 958.094 483.168   9
 -11   7  -4 1444.75 626.968   2
 -11   7  -3 459.089 544.440   2
 -11   7  -3 893.753 417.549   9
 -11   7  -2 89.3733 233.049   9
 -11   7  -2 1623.41 622.446   2
 -11   7  -1 265.849 346.091   9
 -11   7  -1 892.063 480.678   2
 -11   7   0 318.630 392.075   2
 -11   7   0 170.604 253.377   9
 -11   7   1 501.327 356.452   9
 -11   7   2-37.1542 268.528   9
 -11   7   3-38.7814 257.870   9
 -11   7   4 731.189 346.208   9
 -11   7   5 645.244 345.096   9
 -11   7   6 156.929 304.813   9
 -11   7   7 743.243 403.675   9
 -11   7   8-190.572 259.359   9
 -11   7   9 2020.31 597.093   9
 -11   8  -4 422.917 382.041   2
 -11   8  -3 574.132 347.680   9
 -11   8  -3 1154.44 551.210   2
 -11   8  -2 157.105 301.260   9
 -11   8  -2 95.1049 319.447   2
 -11   8  -1 321.999 374.326   9
 -11   8  -1 803.652 470.294   2
 -11   8   0 677.597 402.461   9
 -11   8   1 644.878 356.921   9
 -11   8   2 623.413 351.508   9
 -11   8   3 392.323 301.662   9
 -11   8   4 919.493 400.661   9
 -11   8   5 876.925 470.608   9
 -11   8   6 125.252 263.232   9
 -11   8   7 1112.80 492.709   9
 -11   8   8 1499.18 498.041   9
 -11   9  -3 384.163 484.391   2
 -11   9  -3 248.537 285.414   9
 -11   9  -2 455.177 294.081   9
 -11   9  -2 763.700 444.026   2
 -11   9  -1 630.070 310.496   9
 -11   9   0-383.275 241.530   9
 -11   9   1 1724.71 466.331   9
 -11   9   2 936.463 450.221   9
 -11   9   3 596.065 300.896   9
 -11   9   4-405.181 354.117   9
 -11   9   5 206.699 311.159   9
 -11   9   6 653.923 373.533   9
 -11   9   7-397.448 351.506   9
 -11  10  -3 514.950 369.093   2
 -11  10  -3 1254.84 436.241   9
 -11  10  -2 1143.22 410.319   9
 -11  10  -1 90.3702 288.257   9
 -11  10   0 2478.31 611.536   9
 -11  10   1-53.2754 256.476   9
 -11  10   2 1567.02 446.491   9
 -11  10   3 144.472 279.204   9
 -11  10   4 140.135 282.249   9
 -11  10   5-206.892 275.623   9
 -11  10   6 388.817 335.042   9
 -11  11  -2 213.876 295.761   9
 -11  11  -1-307.050 226.473   9
 -11  11   0 460.345 257.240   9
 -11  11   1-643.111 352.157   9
 -11  11   2 145.024 267.900   9
 -11  11   3 1274.65 424.448   8
 -11  11   3 1089.18 424.448   9
 -11  11   4 183.883 243.737   9
 -10  -2   2 343.050 418.527   6
 -10  -2   3 1597.05 570.944   6
 -10  -2   4 1029.65 488.365   6
 -10  -2   5 53.6354 303.840   6
 -10  -2   6 2574.80 681.964   6
 -10  -2   7-23.7333 323.667   6
 -10  -2   8 2535.25 634.594   6
 -10  -2   9 132.278 320.261   6
 -10  -1  -2-73.9874 203.697   9
 -10  -1  -1 430.819 419.310   4
 -10  -1  -1-573.931 352.341   9
 -10  -1   0 1614.40 570.399   4
 -10  -1   0 1406.99 493.627   9
 -10  -1   0 1533.52 556.583   6
 -10  -1   1 189.446 254.037   9
 -10  -1   1-143.764 309.832   6
 -10  -1   2 3427.88 656.844   9
 -10  -1   2 3018.37 681.367   6
 -10  -1   3-41.8386 197.856   9
 -10  -1   3 232.769 359.758   6
 -10  -1   4 1242.92 500.847   6
 -10  -1   4 965.793 374.932   9
 -10  -1   5 692.624 349.085   9
 -10  -1   5 427.594 379.412   6
 -10  -1   6 539.191 272.217   9
 -10  -1   6 288.547 297.870   6
 -10  -1   7 1094.89 413.876   9
 -10  -1   7 685.796 396.078   6
 -10  -1   8 1173.47 419.647   9
 -10  -1   8 712.572 407.789   6
 -10  -1   9 423.822 305.821   9
 -10  -1   9-32.2200 357.213   6
 -10  -1  10 768.645 472.470   6
 -10  -1  10 980.830 354.317   9
 -10  -1  11 283.412 256.015   9
 -10  -1  11 942.267 532.778   6
 -10  -1  12-88.6426 222.799   9
 -10  -1  13 293.136 348.456   9
 -10   0  -2 197.046 326.287   4
 -10   0  -2 737.354 364.674   9
 -10   0  -2-169.608 389.296   6
 -10   0  -1 751.297 416.474   4
 -10   0  -1-316.405 394.604   6
 -10   0  -1 23.5728 322.319   9
 -10   0   0 267.113 365.778   6
 -10   0   0-230.920 367.006   4
 -10   0   0 91.4626 258.325   9
 -10   0   1 868.083 403.280   6
 -10   0   1 1093.58 405.290   9
 -10   0   1 917.024 390.566   4
 -10   0   2 202.379 230.043   9
 -10   0   2-571.377 375.768   6
 -10   0   3 77.7896 231.370   9
 -10   0   3 645.542 402.724   6
 -10   0   4-26.4017 313.786   6
 -10   0   4-94.4071 206.570   9
 -10   0   5 124.431 290.268   9
 -10   0   5 918.882 454.602   6
 -10   0   6 313.657 212.775   9
 -10   0   6 152.816 298.893   6
 -10   0   7 724.651 327.821   9
 -10   0   7 202.696 341.575   6
 -10   0   8-88.0084 318.775   6
 -10   0   8 86.4283 236.214   9
 -10   0   9-290.730 314.234   6
 -10   0   9 6.06518 216.026   9
 -10   0  10 2604.65 655.462   6
 -10   0  10 1566.25 506.716   9
 -10   0  11-97.4088 414.205   6
 -10   0  11 0.37178 266.856   9
 -10   0  12 0.78475 259.893   9
 -10   0  13 159.225 222.215   9
 -10   1  -3-361.397 460.854   4
 -10   1  -3 148.967 262.051   9
 -10   1  -2 1756.59 523.281   9
 -10   1  -2 1809.39 602.871   4
 -10   1  -2 2576.59 618.895   6
 -10   1  -1 451.132 331.716   9
 -10   1  -1-480.086 401.335   6
 -10   1   0 608.054 368.662   9
 -10   1   0 267.279 268.839   6
 -10   1   1 1108.44 426.203   9
 -10   1   1 458.197 344.038   6
 -10   1   2 714.020 393.246   9
 -10   1   2 1110.80 480.414   6
 -10   1   3 4068.46 707.778   6
 -10   1   3 1922.00 510.714   9
 -10   1   4 736.695 404.609   6
 -10   1   4 724.173 327.098   9
 -10   1   5 1392.74 483.282   6
 -10   1   5 1913.36 475.967   9
 -10   1   6 1516.40 499.263   6
 -10   1   6 1535.22 421.334   9
 -10   1   7 2353.82 535.498   9
 -10   1   7 2013.51 558.711   6
 -10   1   8 78.5595 255.132   9
 -10   1   8-201.323 325.452   6
 -10   1   9 5735.02 883.118   6
 -10   1   9 4754.13 752.535   9
 -10   1  10 996.536 409.014   9
 -10   1  10 1362.30 498.963   6
 -10   1  11 2409.51 581.580   9
 -10   1  12 529.810 315.356   9
 -10   1  13 11.0417 288.496   9
 -10   2  -4-176.618 248.510   9
 -10   2  -3 1936.19 536.868   6
 -10   2  -3 2994.69 663.857   9
 -10   2  -2 41.4874 286.589   6
 -10   2  -2 466.975 335.173   9
 -10   2  -1 155.149 268.730   9
 -10   2  -1 239.305 253.134   6
 -10   2   0 426.348 302.176   9
 -10   2   0 121.369 258.157   6
 -10   2   1 153.978 297.571   6
 -10   2   1 120.460 230.265   9
 -10   2   2 2575.77 535.331   9
 -10   2   2 3030.12 618.876   6
 -10   2   3 304.725 320.035   6
 -10   2   3 80.8970 238.889   9
 -10   2   4 1184.84 440.481   9
 -10   2   4 858.935 381.677   6
 -10   2   5 414.066 372.497   6
 -10   2   5 688.451 313.530   9
 -10   2   6 1042.88 366.563   9
 -10   2   6 1446.72 484.001   6
 -10   2   7 584.224 333.615   9
 -10   2   7 999.501 409.248   6
 -10   2   8 896.531 447.068   6
 -10   2   8 1989.80 496.825   9
 -10   2   9 1668.31 530.779   9
 -10   2   9 2114.24 595.107   6
 -10   2  10 1314.46 490.695   9
 -10   2  11 311.076 287.951   9
 -10   2  12 21.7614 264.210   9
 -10   2  13 846.355 416.861   9
 -10   3  -4 1294.85 467.054   9
 -10   3  -3 561.189 371.515   9
 -10   3  -2 1720.59 463.897   6
 -10   3  -2 1898.20 562.467   9
 -10   3  -1-150.110 234.715   9
 -10   3  -1-215.752 306.176   6
 -10   3   0 1331.39 486.415   9
 -10   3   0-159.659 228.700   6
 -10   3   1 830.890 366.556   6
 -10   3   1 960.787 421.173   9
 -10   3   2 386.648 325.700   6
 -10   3   2 422.916 336.817   9
 -10   3   3 334.445 235.271   9
 -10   3   3 52.5692 241.608   6
 -10   3   4 915.048 373.868   6
 -10   3   4 1824.30 471.777   9
 -10   3   5 166.816 296.064   6
 -10   3   5 445.533 335.579   9
 -10   3   6 721.491 337.274   6
 -10   3   6 1421.92 394.551   9
 -10   3   7 302.230 309.354   9
 -10   3   7-91.1900 278.182   6
 -10   3   8 88.4403 242.428   9
 -10   3   9 423.916 319.827   9
 -10   3  10 581.158 373.371   9
 -10   3  11 335.598 424.748   9
 -10   3  12 581.837 411.933   9
 -10   4  -5 732.019 420.367   9
 -10   4  -4 845.623 423.204   9
 -10   4  -3 253.938 293.605   9
 -10   4  -2 134.189 236.413   9
 -10   4  -1 625.628 380.036   9
 -10   4   0 420.923 370.458   9
 -10   4   1 2518.30 545.038   9
 -10   4   1 2874.39 542.683   6
 -10   4   2 252.513 238.232   6
 -10   4   2 35.3590 190.037   9
 -10   4   3-155.352 267.249   6
 -10   4   3-43.9447 292.088   9
 -10   4   4 421.971 272.416   6
 -10   4   4 908.237 328.652   9
 -10   4   5 528.302 335.588   6
 -10   4   5 561.553 382.415   9
 -10   4   6 1327.87 457.464   9
 -10   4   6 651.574 385.044   6
 -10   4   7-75.6923 251.361   9
 -10   4   8 106.147 269.080   9
 -10   4   9-475.073 320.756   9
 -10   4  10 514.101 426.566   9
 -10   4  11 587.937 371.487   9
 -10   4  12 660.783 427.023   9
 -10   5  -5 109.659 354.680   9
 -10   5  -4 9.62096 233.727   9
 -10   5  -3 254.727 322.621   9
 -10   5  -2 758.453 388.777   9
 -10   5  -1 2692.47 572.923   9
 -10   5   0 2702.43 585.098   9
 -10   5   1 3066.11 561.505   9
 -10   5   2 999.644 376.686   9
 -10   5   3 6384.76 808.590   9
 -10   5   3 5703.08 674.242   6
 -10   5   4 1249.93 399.682   9
 -10   5   4 1150.64 394.654   6
 -10   5   5 8721.82 968.796   9
 -10   5   6 448.593 332.305   9
 -10   5   7 2164.62 547.605   9
 -10   5   8 314.459 342.353   9
 -10   5   9 408.956 382.767   9
 -10   5  10 832.532 421.812   9
 -10   5  11-38.9107 244.964   9
 -10   6  -6 485.632 382.273   9
 -10   6  -5-457.078 345.677   9
 -10   6  -4 465.286 308.541   9
 -10   6  -3 475.015 332.066   9
 -10   6  -2 438.141 296.746   9
 -10   6  -1 624.139 331.945   9
 -10   6   0 974.708 386.128   9
 -10   6   1 733.975 349.356   9
 -10   6   2 1261.12 440.866   9
 -10   6   3 909.376 340.895   9
 -10   6   4 426.488 287.323   9
 -10   6   5 2150.17 521.723   9
 -10   6   6-225.533 270.752   9
 -10   6   7 410.015 309.099   9
 -10   6   8 1090.46 425.148   9
 -10   6   9-42.6556 247.480   9
 -10   6  10 791.450 493.465   9
 -10   6  11-79.1588 311.543   9
 -10   7  -6 1290.81 643.650   2
 -10   7  -6 579.508 398.086   9
 -10   7  -5 717.329 534.613   2
 -10   7  -5 267.896 337.275   9
 -10   7  -4 871.271 556.457   2
 -10   7  -4-33.2891 214.469   9
 -10   7  -3 295.503 216.325   9
 -10   7  -3 1554.54 620.894   2
 -10   7  -2 707.183 349.863   9
 -10   7  -2 109.233 338.651   2
 -10   7  -1 772.859 443.203   2
 -10   7  -1-390.758 270.959   9
 -10   7   0 2593.23 538.204   9
 -10   7   0 2662.55 576.899   2
 -10   7   1 1166.23 451.774   2
 -10   7   1 544.130 291.828   9
 -10   7   2 164.940 257.613   9
 -10   7   3 313.390 279.380   9
 -10   7   4-368.294 324.390   9
 -10   7   5 419.777 348.340   9
 -10   7   6 494.157 295.871   9
 -10   7   7 731.137 385.094   9
 -10   7   8 1488.02 503.166   9
 -10   7   9 612.728 383.677   9
 -10   7  10 707.938 397.719   9
 -10   8  -6 385.311 359.275   9
 -10   8  -6 1060.96 581.304   2
 -10   8  -5 968.893 518.827   2
 -10   8  -5 555.942 378.062   9
 -10   8  -4 115.525 257.939   9
 -10   8  -4 969.643 503.721   2
 -10   8  -3 1560.98 563.726   2
 -10   8  -3 962.002 361.448   9
 -10   8  -2 1305.38 503.530   2
 -10   8  -2 569.779 345.593   9
 -10   8  -1 244.463 311.877   9
 -10   8  -1 439.729 435.870   2
 -10   8   0-139.176 297.561   2
 -10   8   0 143.567 246.668   9
 -10   8   1 381.852 300.928   9
 -10   8   2 1387.32 441.103   9
 -10   8   3 212.072 257.933   9
 -10   8   4 768.308 320.332   9
 -10   8   5-137.426 291.684   9
 -10   8   6 23.6487 263.115   9
 -10   8   7 2105.43 557.875   9
 -10   8   8 564.481 404.346   9
 -10   8   9 1801.38 523.712   9
 -10   9  -6 1575.93 491.996   9
 -10   9  -5 1245.54 459.368   9
 -10   9  -5 2465.99 646.887   2
 -10   9  -4 2708.95 659.875   2
 -10   9  -4 2434.63 589.354   9
 -10   9  -3 2921.61 584.378   9
 -10   9  -3 3040.08 682.094   2
 -10   9  -2-424.541 308.889   9
 -10   9  -2-371.769 357.551   2
 -10   9  -1 1808.43 491.992   2
 -10   9  -1 2660.05 585.417   9
 -10   9   0 400.476 281.542   9
 -10   9   1 2799.48 578.778   9
 -10   9   1 3081.37 530.956   8
 -10   9   2 179.164 237.791   9
 -10   9   3 1536.23 428.383   9
 -10   9   4-299.848 303.621   9
 -10   9   5 598.796 283.413   9
 -10   9   6 1612.83 468.542   9
 -10   9   7 519.297 283.160   9
 -10   9   8 1841.40 527.213   9
 -10   9   9 308.307 275.669   9
 -10  10  -6 606.024 374.176   9
 -10  10  -5 502.551 479.126   2
 -10  10  -5-79.2185 270.529   9
 -10  10  -4 905.172 339.788   9
 -10  10  -4 1031.62 398.687   2
 -10  10  -3 152.158 330.475   2
 -10  10  -3-119.403 214.822   9
 -10  10  -2 283.596 283.388   2
 -10  10  -2-3.64024 280.156   9
 -10  10  -1 995.397 372.855   9
 -10  10   0-199.596 264.550   9
 -10  10   1 206.566 251.940   9
 -10  10   1 131.751 230.202   8
 -10  10   2 274.612 187.415   8
 -10  10   2 81.9400 287.289   9
 -10  10   3 247.426 303.532   9
 -10  10   4 542.096 384.784   9
 -10  10   5 429.632 335.719   9
 -10  10   6-398.569 338.674   9
 -10  10   7 1083.85 453.745   9
 -10  10   8 506.585 388.807   9
 -10  11  -4 421.191 354.224   2
 -10  11  -3 277.956 326.616   2
 -10  11  -2-63.4480 232.444   9
 -10  11  -1 141.318 206.115   9
 -10  11   0 139.147 207.177   9
 -10  11   1 919.551 363.662   9
 -10  11   1 674.435 288.457   8
 -10  11   2 1554.26 444.556   8
 -10  11   2 1703.60 450.472   9
 -10  11   3 176.444 287.604   9
 -10  11   3 590.939 375.843   8
 -10  11   4 2657.92 565.153   9
 -10  11   4 2582.20 594.528   8
 -10  11   5 22.0389 312.595   8
 -10  11   5-305.788 273.518   9
 -10  12   1 355.488 322.781   8
 -10  12   2-185.110 217.571   8
  -9  -4   4 653.540 407.564   6
  -9  -4   5 962.987 526.487   6
  -9  -4   6 947.710 492.291   6
  -9  -4   7 727.822 448.556   6
  -9  -4   8 512.970 424.722   6
  -9  -4   9 700.481 380.988   6
  -9  -3  -1-260.437 299.290   4
  -9  -3   0-8.48624 335.065   4
  -9  -3   1 477.238 483.081   6
  -9  -3   2 444.170 294.463   6
  -9  -3   3 829.830 499.642   6
  -9  -3   4 643.387 397.341   6
  -9  -3   5 2256.61 607.111   6
  -9  -3   6 1530.25 529.625   6
  -9  -3   7 1290.15 507.050   6
  -9  -3   8-693.065 423.149   6
  -9  -3   9 1063.29 486.450   6
  -9  -3  10-233.792 332.307   6
  -9  -3  11 601.885 374.240   6
  -9  -2  -2 540.771 315.841   9
  -9  -2  -2 1274.78 518.070   4
  -9  -2  -1 2035.15 577.872   4
  -9  -2  -1 216.307 232.081   9
  -9  -2   0 131.038 305.428   6
  -9  -2   0 18.3536 215.399   9
  -9  -2   0-186.394 283.163   4
  -9  -2   1 2513.12 610.503   4
  -9  -2   1 2747.98 591.238   6
  -9  -2   1 2122.42 504.758   9
  -9  -2   2 256.653 291.056   6
  -9  -2   2 819.071 362.966   9
  -9  -2   3 2365.98 513.701   9
  -9  -2   3 2372.32 614.935   6
  -9  -2   4 167.243 232.271   9
  -9  -2   4 564.666 362.882   6
  -9  -2   5 71.1446 301.824   6
  -9  -2   5 309.888 269.008   9
  -9  -2   6 142.943 197.498   9
  -9  -2   6 184.368 356.668   6
  -9  -2   7-399.829 369.001   6
  -9  -2   7 457.662 315.215   9
  -9  -2   8 1095.00 346.583   9
  -9  -2   8 1052.02 437.317   6
  -9  -2   9 384.839 253.085   9
  -9  -2   9 615.557 443.003   6
  -9  -2  10 360.866 460.259   6
  -9  -2  10 968.966 371.949   9
  -9  -2  11 435.249 384.460   6
  -9  -2  11 21.2633 251.360   9
  -9  -2  12 1033.88 530.374   6
  -9  -2  12 139.960 254.432   9
  -9  -2  13 401.314 265.024   9
  -9  -2  14 59.0922 253.566   3
  -9  -1  -3 268.903 255.208   9
  -9  -1  -3 31.7004 353.126   4
  -9  -1  -2 443.249 399.347   4
  -9  -1  -2 606.310 387.903   9
  -9  -1  -1 1511.81 487.460   9
  -9  -1  -1 1406.25 517.314   4
  -9  -1   0 792.334 378.463   9
  -9  -1   0 779.079 427.340   4
  -9  -1   0 770.935 378.809   6
  -9  -1   1 3416.75 612.614   9
  -9  -1   1 2805.07 612.179   6
  -9  -1   1 2953.21 605.314   4
  -9  -1   2 1796.85 435.937   4
  -9  -1   2 741.313 364.119   6
  -9  -1   2 932.411 354.245   9
  -9  -1   3 1640.23 426.444   9
  -9  -1   3 1215.80 443.313   6
  -9  -1   4 448.353 245.274   9
  -9  -1   4 496.018 375.550   6
  -9  -1   5 308.652 436.874   6
  -9  -1   5-51.7538 197.197   9
  -9  -1   6 363.265 256.351   9
  -9  -1   6 104.646 340.960   6
  -9  -1   7 211.707 284.551   6
  -9  -1   7-125.845 234.603   9
  -9  -1   8 34.4577 246.831   9
  -9  -1   8 653.347 385.622   6
  -9  -1   9 236.875 281.480   6
  -9  -1   9 503.200 305.448   9
  -9  -1  10 302.354 345.808   6
  -9  -1  10 483.152 338.631   9
  -9  -1  11 260.805 320.944   9
  -9  -1  11 364.794 410.158   6
  -9  -1  12 320.625 293.299   9
  -9  -1  13-622.403 367.505   3
  -9  -1  13 418.079 336.554   9
  -9  -1  14 303.584 317.206   9
  -9   0  -4 499.798 487.032   4
  -9   0  -4 683.984 362.483   9
  -9   0  -3 932.886 521.162   4
  -9   0  -3 129.284 231.483   9
  -9   0  -2 143.791 272.188   9
  -9   0  -2 613.629 400.463   4
  -9   0  -1 527.252 284.077   9
  -9   0  -1 851.869 417.985   4
  -9   0   0 137.704 268.405   9
  -9   0   0 144.783 322.662   6
  -9   0   0-59.0845 312.027   4
  -9   0   1 18.9163 296.279   4
  -9   0   1 436.001 218.306   9
  -9   0   1 92.1307 253.271   6
  -9   0   2-65.9559 268.789   6
  -9   0   2-55.0840 223.648   4
  -9   0   2 255.044 251.215   9
  -9   0   3 829.471 432.013   6
  -9   0   3 164.167 202.968   9
  -9   0   4 4490.57 707.404   6
  -9   0   4 5443.69 707.514   9
  -9   0   5 1104.65 356.279   9
  -9   0   5 864.564 436.746   6
  -9   0   6 5162.10 688.135   9
  -9   0   6 5061.03 742.368   6
  -9   0   7-45.1750 209.232   9
  -9   0   7 108.069 288.098   6
  -9   0   8 559.736 361.548   6
  -9   0   8 932.811 372.163   9
  -9   0   9 3175.40 597.316   9
  -9   0   9 2331.50 595.236   6
  -9   0  10 2138.16 561.203   6
  -9   0  10 2764.59 592.057   9
  -9   0  11 2374.75 570.235   9
  -9   0  12 346.132 310.191   9
  -9   0  13 630.179 343.999   9
  -9   0  14 158.160 240.994   9
  -9   1  -5 511.500 381.797   9
  -9   1  -5 278.355 366.687   4
  -9   1  -4 903.881 413.994   9
  -9   1  -4 130.596 370.493   4
  -9   1  -3 926.413 473.856   4
  -9   1  -3 786.775 403.631   9
  -9   1  -2 1016.81 455.333   9
  -9   1  -2 1355.57 480.411   4
  -9   1  -1 307.689 277.494   6
  -9   1  -1 881.599 344.297   9
  -9   1  -1 351.562 349.273   4
  -9   1   0 233.846 336.562   4
  -9   1   0 359.111 237.766   9
  -9   1   0 57.6637 258.741   6
  -9   1   1 99.2545 273.230   6
  -9   1   1-394.397 274.449   9
  -9   1   2 33.8351 183.668   9
  -9   1   2 353.340 329.679   6
  -9   1   3 2554.13 500.318   6
  -9   1   3 2872.51 535.431   9
  -9   1   4 389.748 293.783   6
  -9   1   4 119.002 219.055   9
  -9   1   5 2035.52 512.682   6
  -9   1   5 2221.81 476.283   9
  -9   1   6-58.6946 198.425   9
  -9   1   6-151.063 292.059   6
  -9   1   7 83.3194 297.938   9
  -9   1   7-157.966 255.321   6
  -9   1   8 5954.12 784.069   9
  -9   1   8 5115.48 761.396   6
  -9   1   9-573.136 286.796   9
  -9   1   9 125.890 342.736   6
  -9   1  10 5866.10 796.669   9
  -9   1  11 61.7401 286.300   9
  -9   1  12 989.913 450.774   9
  -9   1  13 576.642 359.100   9
  -9   1  14 448.163 357.426   9
  -9   2  -6 1197.24 527.515   4
  -9   2  -6 245.903 372.022   9
  -9   2  -5 890.190 444.989   9
  -9   2  -5 1165.40 577.949   4
  -9   2  -4 920.533 436.633   9
  -9   2  -4 867.579 462.573   4
  -9   2  -3 2431.47 612.942   9
  -9   2  -3 2599.86 679.865   4
  -9   2  -2 421.342 376.416   4
  -9   2  -2 36.0530 251.408   9
  -9   2  -1 643.601 287.316   9
  -9   2  -1 1397.95 409.780   6
  -9   2   0 22.7815 257.984   9
  -9   2   0-216.196 218.774   6
  -9   2   1 88.1299 267.486   6
  -9   2   1 277.066 285.080   9
  -9   2   2 135.410 240.935   9
  -9   2   2 817.539 341.776   6
  -9   2   3 2161.90 476.003   6
  -9   2   3 1909.34 445.360   9
  -9   2   4 2549.87 495.900   9
  -9   2   4 2976.14 536.304   6
  -9   2   5 2438.38 477.761   6
  -9   2   5 1889.18 432.929   9
  -9   2   6 505.538 348.842   6
  -9   2   6 46.4719 284.195   9
  -9   2   7 493.632 344.854   6
  -9   2   7 292.189 293.387   9
  -9   2   8 558.311 311.711   6
  -9   2   8 554.990 337.086   9
  -9   2   9 900.158 337.458   9
  -9   2  10 158.426 330.581   9
  -9   2  11 529.351 346.033   9
  -9   2  12 84.3427 397.552   9
  -9   2  13 1139.33 410.783   9
  -9   2  14 449.465 317.999   9
  -9   3  -7 110.296 283.296   9
  -9   3  -6 644.200 352.393   9
  -9   3  -5 1268.48 489.058   9
  -9   3  -4 222.093 292.226   9
  -9   3  -3 1484.07 456.690   9
  -9   3  -2 214.519 264.444   9
  -9   3  -2-400.544 307.190   6
  -9   3  -1 239.966 249.475   9
  -9   3  -1 62.6402 198.573   6
  -9   3   0 372.950 260.486   6
  -9   3   0 326.437 264.668   9
  -9   3   1 143.713 214.682   6
  -9   3   1 217.102 185.790   9
  -9   3   2 158.474 256.422   9
  -9   3   2 74.4305 211.414   6
  -9   3   3 631.790 303.545   9
  -9   3   3 573.478 319.750   6
  -9   3   4 69.3236 248.693   6
  -9   3   4 212.069 218.302   9
  -9   3   5 609.771 332.452   9
  -9   3   5 201.769 253.293   6
  -9   3   6 300.568 271.096   9
  -9   3   6 142.450 317.347   6
  -9   3   7 311.245 317.004   6
  -9   3   7-63.8995 226.004   9
  -9   3   8 1036.50 369.682   9
  -9   3   9 3.18029 281.378   9
  -9   3  10 717.989 396.171   9
  -9   3  11 405.336 316.424   9
  -9   3  12 2775.70 636.528   9
  -9   3  13 246.724 312.709   9
  -9   4  -7 83.0972 259.463   9
  -9   4  -6 1.16785 219.056   9
  -9   4  -5 880.077 403.615   9
  -9   4  -4 74.7158 235.714   9
  -9   4  -3 655.505 351.056   9
  -9   4  -2 2804.96 481.069   6
  -9   4  -2 3112.06 585.367   9
  -9   4  -1 753.906 311.834   9
  -9   4  -1 925.570 334.767   6
  -9   4   0 11211.2 1009.80   9
  -9   4   0 10121.7 843.958   6
  -9   4   1 406.563 271.931   6
  -9   4   1 683.897 241.464   9
  -9   4   2 4186.13 626.326   9
  -9   4   2 4603.68 596.028   6
  -9   4   3 391.213 292.994   9
  -9   4   3 74.8281 245.558   6
  -9   4   4 2620.88 479.149   6
  -9   4   4 2032.63 475.120   9
  -9   4   5 566.568 269.485   6
  -9   4   5 1000.47 364.464   9
  -9   4   6 3318.15 553.389   6
  -9   4   6 3702.27 625.552   9
  -9   4   7 1254.42 415.687   9
  -9   4   8 922.989 354.530   9
  -9   4   9 916.112 414.457   9
  -9   4  10-653.379 332.059   9
  -9   4  11 4806.62 772.772   9
  -9   4  12 436.903 346.146   9
  -9   4  13 2250.75 618.892   9
  -9   5  -7 281.519 303.238   9
  -9   5  -6 869.916 386.006   9
  -9   5  -5-162.956 281.936   9
  -9   5  -4 274.886 287.400   9
  -9   5  -3 557.704 304.298   9
  -9   5  -2 205.011 214.365   9
  -9   5  -1 11192.0 1016.73   9
  -9   5   0-297.995 226.112   9
  -9   5   1 4920.96 665.531   9
  -9   5   1 4642.97 530.601   6
  -9   5   2 719.176 279.559   6
  -9   5   2 630.893 280.135   9
  -9   5   3 916.011 326.718   6
  -9   5   3 299.623 200.581   9
  -9   5   4 4541.62 680.806   9
  -9   5   4 4598.32 584.258   6
  -9   5   5 821.098 364.096   9
  -9   5   6 2958.43 563.697   9
  -9   5   7 215.513 242.218   9
  -9   5   8 305.334 328.386   9
  -9   5   9 16.2378 334.512   9
  -9   5  10 1195.77 444.693   9
  -9   5  11 1198.90 454.654   9
  -9   5  12 1213.38 502.900   9
  -9   6  -8 163.823 281.456   9
  -9   6  -7 659.922 401.719   9
  -9   6  -7 2380.48 781.101   2
  -9   6  -6 820.359 398.252   9
  -9   6  -5 1100.37 417.656   9
  -9   6  -4-252.193 243.105   9
  -9   6  -3 679.104 246.569   9
  -9   6  -2 2746.52 547.479   9
  -9   6  -1 629.707 321.338   9
  -9   6   0 2079.95 463.685   9
  -9   6   1 1724.93 427.563   9
  -9   6   2-333.670 219.967   9
  -9   6   3 25.4455 197.576   9
  -9   6   3 587.414 297.251   2
  -9   6   4-119.306 203.748   9
  -9   6   5-40.1708 207.268   9
  -9   6   6 1135.37 421.982   9
  -9   6   7 1756.33 495.885   9
  -9   6   8 378.249 291.726   9
  -9   6   9 1558.73 450.595   9
  -9   6  10-52.8967 247.493   9
  -9   6  11 911.189 431.225   9
  -9   6  12 114.636 233.872   9
  -9   7  -8-216.932 234.938   9
  -9   7  -7 1057.60 528.403   2
  -9   7  -7 327.607 269.352   9
  -9   7  -6 436.937 332.990   9
  -9   7  -6 383.682 496.186   2
  -9   7  -5 1019.64 503.742   2
  -9   7  -5 391.165 280.558   9
  -9   7  -4 723.656 522.909   2
  -9   7  -4 450.105 377.600   9
  -9   7  -3 1360.34 522.055   2
  -9   7  -3-91.6531 236.324   9
  -9   7  -2 262.820 350.192   2
  -9   7  -2 122.621 248.924   9
  -9   7  -1 1457.94 498.159   2
  -9   7  -1 483.782 249.577   9
  -9   7   0 138.551 250.087   9
  -9   7   0 390.763 361.089   2
  -9   7   1 874.068 370.000   2
  -9   7   1 734.459 298.717   9
  -9   7   2 86.3023 244.362   2
  -9   7   2 434.892 250.674   9
  -9   7   3 2718.73 520.685   9
  -9   7   4 368.223 244.192   9
  -9   7   5 464.906 284.934   9
  -9   7   6 1855.04 509.287   9
  -9   7   7 2435.90 545.259   9
  -9   7   8 1307.55 453.541   9
  -9   7   9-123.856 279.608   9
  -9   7  10 551.322 345.007   9
  -9   7  11 1241.09 471.671   9
  -9   8  -8-190.286 273.153   9
  -9   8  -7 1483.23 566.126   2
  -9   8  -7 948.535 404.363   9
  -9   8  -6 3340.73 727.862   2
  -9   8  -6 1541.29 480.799   9
  -9   8  -5 752.920 377.554   9
  -9   8  -5 492.213 409.045   2
  -9   8  -4 3716.98 705.795   2
  -9   8  -4 2594.09 548.056   9
  -9   8  -3 735.106 319.992   9
  -9   8  -3 501.355 356.115   2
  -9   8  -2 2158.75 528.794   2
  -9   8  -2 2215.41 483.780   9
  -9   8  -1 816.967 366.804   2
  -9   8  -1 309.865 261.121   9
  -9   8   0 1735.19 455.585   2
  -9   8   0 1908.68 451.442   9
  -9   8   1 426.932 243.155   2
  -9   8   1 523.656 254.542   9
  -9   8   2 5511.66 736.283   9
  -9   8   3 941.432 355.801   9
  -9   8   4 2576.82 538.068   9
  -9   8   5 4272.72 693.002   9
  -9   8   6 351.387 341.903   9
  -9   8   7 5077.74 761.647   9
  -9   8   8-172.037 225.524   9
  -9   8   9 983.408 377.450   9
  -9   8  10 109.018 239.981   9
  -9   8  11 532.807 359.252   9
  -9   9  -8 881.304 440.658   9
  -9   9  -7 1818.73 569.313   2
  -9   9  -7 314.404 306.619   9
  -9   9  -6-590.630 392.035   9
  -9   9  -6 333.050 365.700   2
  -9   9  -5 2637.06 570.231   9
  -9   9  -5 3118.33 705.792   2
  -9   9  -4 291.163 323.245   2
  -9   9  -4 7.79679 187.354   9
  -9   9  -3 527.359 376.923   2
  -9   9  -3 1189.23 388.357   9
  -9   9  -2 534.038 351.162   2
  -9   9  -2 726.526 300.434   9
  -9   9  -1-238.480 308.791   2
  -9   9  -1 230.912 224.274   9
  -9   9   0 2231.11 442.546   8
  -9   9   0 1706.02 383.600   2
  -9   9   0 2406.04 508.329   9
  -9   9   1 626.917 279.961   8
  -9   9   1-353.895 265.612   9
  -9   9   2 801.057 332.757   9
  -9   9   3 771.902 330.234   9
  -9   9   4 1910.48 472.859   9
  -9   9   5 130.468 255.389   9
  -9   9   6 3401.49 664.526   9
  -9   9   7 909.652 420.366   9
  -9   9   8 549.286 320.542   9
  -9   9   9 643.067 318.773   9
  -9   9  10 826.000 446.481   9
  -9  10  -8 149.526 219.681   9
  -9  10  -7 52.9565 333.527   2
  -9  10  -7-119.167 217.670   9
  -9  10  -6 883.575 379.372   9
  -9  10  -6 417.539 361.239   2
  -9  10  -5-390.958 435.749   2
  -9  10  -5 188.849 298.338   9
  -9  10  -4 155.383 325.852   2
  -9  10  -4 201.206 275.900   9
  -9  10  -3-225.014 199.246   9
  -9  10  -3 947.743 451.851   2
  -9  10  -2 1179.20 438.678   2
  -9  10  -2 447.214 263.894   9
  -9  10  -1 102.976 286.735   2
  -9  10  -1-42.0662 172.996   8
  -9  10  -1-235.556 260.406   9
  -9  10   0 432.146 233.904   8
  -9  10   0 555.123 290.624   9
  -9  10   1 539.822 305.747   8
  -9  10   1 725.947 348.926   9
  -9  10   2 326.643 239.020   9
  -9  10   2 273.068 286.451   8
  -9  10   3 1086.32 385.463   9
  -9  10   3 1586.73 444.013   8
  -9  10   4 125.599 193.521   9
  -9  10   5 324.318 336.350   9
  -9  10   6 162.716 232.567   9
  -9  10   7 146.415 279.562   9
  -9  10   8 451.496 291.531   9
  -9  10   9 389.818 306.318   9
  -9  11  -6 490.935 391.985   2
  -9  11  -5 261.990 296.859   2
  -9  11  -4 548.498 368.307   2
  -9  11  -3 2014.04 546.107   2
  -9  11  -2 1356.39 457.938   2
  -9  11  -1 1564.81 416.254   8
  -9  11   0-48.5622 179.509   8
  -9  11   1-100.452 201.494   8
  -9  11   2 1023.99 363.805   8
  -9  11   3 456.844 309.601   8
  -9  11   4 1257.39 457.385   8
  -9  11   5 513.560 334.914   8
  -9  11   6-220.601 210.959   8
  -9  12  -5 1230.49 490.392   2
  -9  12  -4 2625.24 683.366   2
  -9  12  -3-47.4191 295.007   2
  -9  12  -1 764.863 362.954   8
  -9  12   0 487.940 284.302   8
  -9  12   1 987.082 366.432   8
  -9  12   2 454.903 337.036   8
  -9  12   3 787.756 375.065   8
  -9  13  -1-38.0637 177.178   8
  -9  13   0 156.840 220.845   8
  -8  -5   0 240.569 283.444   4
  -8  -5   2-481.610 397.000   6
  -8  -5   3 517.287 390.815   6
  -8  -5   4-521.213 321.195   6
  -8  -5   5 1277.28 492.353   6
  -8  -5   6 482.513 420.099   6
  -8  -5   7 525.096 511.720   6
  -8  -5   8 207.759 324.699   6
  -8  -5   9 156.299 389.641   6
  -8  -5  10-41.2920 338.929   6
  -8  -5  11 7.94088 361.182   6
  -8  -4  -2 448.842 372.086   4
  -8  -4  -1 665.663 439.510   4
  -8  -4   0 590.220 373.720   4
  -8  -4   1 883.049 451.504   4
  -8  -4   1 116.472 343.297   6
  -8  -4   2-84.2662 372.413   6
  -8  -4   3 614.138 353.959   6
  -8  -4   4 12.4771 333.820   6
  -8  -4   5-35.4506 307.207   6
  -8  -4   6 141.801 375.177   6
  -8  -4   7 1385.39 534.659   6
  -8  -4   8 1073.50 467.929   6
  -8  -4   9 1591.24 526.233   6
  -8  -4  10 1343.98 515.254   6
  -8  -4  11 1826.29 635.450   6
  -8  -4  12-169.808 353.666   6
  -8  -4  13 2831.49 704.062   3
  -8  -3  -3 1253.81 551.981   4
  -8  -3  -2 1045.85 404.603   9
  -8  -3  -2 1370.18 494.196   4
  -8  -3  -1 389.366 294.118   9
  -8  -3  -1 96.3904 313.427   4
  -8  -3   0 831.900 365.151   9
  -8  -3   0 961.176 438.243   4
  -8  -3   1 811.825 389.513   4
  -8  -3   1 1691.85 444.080   9
  -8  -3   1 945.049 351.791   6
  -8  -3   2 1144.73 376.248   4
  -8  -3   2 1178.06 355.922   9
  -8  -3   2 1034.30 443.970   6
  -8  -3   3 496.364 374.453   6
  -8  -3   3 522.760 259.601   9
  -8  -3   4 772.818 294.664   9
  -8  -3   4 1628.33 534.354   6
  -8  -3   5 283.570 388.301   6
  -8  -3   5 419.005 224.989   9
  -8  -3   6-128.159 311.812   6
  -8  -3   6 396.580 218.722   9
  -8  -3   7 1405.17 455.258   6
  -8  -3   7 1469.07 380.265   9
  -8  -3   8 423.806 333.897   6
  -8  -3   8 314.918 244.973   9
  -8  -3   9 1740.63 404.781   9
  -8  -3   9 1653.80 510.577   6
  -8  -3  10 322.162 383.710   6
  -8  -3  10 211.746 243.463   9
  -8  -3  11 1075.90 519.402   6
  -8  -3  12 2340.92 599.229   6
  -8  -3  13 86.3322 275.522   3
  -8  -3  14 918.678 480.423   3
  -8  -2  -4 9.78772 311.847   4
  -8  -2  -3 2186.58 540.265   9
  -8  -2  -3 1824.90 606.002   4
  -8  -2  -2 436.524 298.148   9
  -8  -2  -2 2224.47 609.232   4
  -8  -2  -1 658.329 343.325   9
  -8  -2  -1 1359.20 460.954   4
  -8  -2   0 3299.39 584.827   9
  -8  -2   0 3189.00 627.086   4
  -8  -2   1 467.599 336.575   6
  -8  -2   1 515.275 367.883   4
  -8  -2   1 542.102 290.438   9
  -8  -2   2 1933.75 432.871   4
  -8  -2   2 2166.19 524.077   6
  -8  -2   2 1327.30 382.871   9
  -8  -2   3-9.57519 238.400   4
  -8  -2   3 39.9003 154.208   9
  -8  -2   3-201.192 285.161   6
  -8  -2   4 752.985 345.349   6
  -8  -2   4 292.550 232.782   9
  -8  -2   5 130.484 268.444   9
  -8  -2   5 316.252 320.104   6
  -8  -2   6 317.739 316.161   6
  -8  -2   6 391.786 207.199   9
  -8  -2   7 537.568 341.168   6
  -8  -2   7 910.733 362.194   9
  -8  -2   8 3608.83 656.652   6
  -8  -2   8 3132.35 561.583   9
  -8  -2   9 1807.97 535.642   6
  -8  -2   9 1341.55 405.912   9
  -8  -2  10 1965.30 487.820   9
  -8  -2  10 1451.30 511.846   6
  -8  -2  11 1016.13 436.667   6
  -8  -2  11 422.973 295.174   9
  -8  -2  12 72.5205 224.067   9
  -8  -2  13 631.294 335.880   9
  -8  -2  13-353.984 336.589   3
  -8  -2  14 16.7188 265.829   9
  -8  -2  14-72.6610 270.976   3
  -8  -2  15 430.079 335.528   9
  -8  -1  -5 417.724 428.441   4
  -8  -1  -4 594.615 430.092   4
  -8  -1  -4 825.591 343.746   9
  -8  -1  -3 832.535 426.003   4
  -8  -1  -3 443.137 318.388   9
  -8  -1  -2-108.621 188.594   9
  -8  -1  -2 316.225 278.366   4
  -8  -1  -1 502.622 259.876   9
  -8  -1  -1 408.205 317.756   4
  -8  -1   0 101.667 318.009   4
  -8  -1   0 82.5866 191.115   9
  -8  -1   1 201.311 200.558   9
  -8  -1   1 10.0351 218.375   4
  -8  -1   1 528.716 333.077   6
  -8  -1   2 341.300 294.077   4
  -8  -1   2 386.924 238.177   9
  -8  -1   2-309.841 286.136   6
  -8  -1   3 3433.02 602.344   6
  -8  -1   3 3644.34 540.165   4
  -8  -1   3 3248.46 546.135   9
  -8  -1   4 164.387 195.228   4
  -8  -1   4 505.770 297.130   6
  -8  -1   4-67.4679 199.054   9
  -8  -1   5 3996.09 585.778   9
  -8  -1   5 4943.19 721.987   6
  -8  -1   6 73.7786 188.969   9
  -8  -1   6 134.224 241.077   6
  -8  -1   7 805.899 293.006   9
  -8  -1   7 399.177 290.258   6
  -8  -1   8 37.1812 180.588   9
  -8  -1   8 1113.81 479.782   6
  -8  -1   9 562.370 302.536   9
  -8  -1   9 221.774 301.083   6
  -8  -1  10 1060.70 439.333   6
  -8  -1  10 919.467 361.010   9
  -8  -1  11 977.411 437.398   6
  -8  -1  11 1451.21 398.581   9
  -8  -1  12 619.845 270.046   9
  -8  -1  13 1069.36 413.448   9
  -8  -1  13 155.690 247.161   3
  -8  -1  14 367.199 351.361   9
  -8  -1  15 73.5421 288.247   9
  -8   0  -6-83.6088 377.167   4
  -8   0  -5 513.296 423.992   4
  -8   0  -5 322.397 377.664   9
  -8   0  -4-70.2068 214.958   9
  -8   0  -4 600.710 458.620   4
  -8   0  -3 137.566 214.032   9
  -8   0  -3 604.000 353.987   4
  -8   0  -2 344.539 251.177   9
  -8   0  -2 119.608 275.651   4
  -8   0  -1 318.718 282.514   9
  -8   0  -1 631.997 376.755   4
  -8   0   0 680.788 353.942   4
  -8   0   0 155.004 207.876   9
  -8   0   1-42.7518 200.253   9
  -8   0   1 24.2386 268.011   4
  -8   0   1 14.9901 263.981   6
  -8   0   2 3815.41 572.630   4
  -8   0   2 3845.11 574.374   9
  -8   0   2 3928.62 600.720   6
  -8   0   3 1088.39 388.643   6
  -8   0   3 1438.45 378.395   9
  -8   0   3 838.073 300.715   4
  -8   0   4 7500.62 776.241   9
  -8   0   4 6470.19 761.534   6
  -8   0   5 2217.86 487.526   6
  -8   0   5 2120.08 405.360   9
  -8   0   6 2432.69 524.122   6
  -8   0   6 2550.54 509.796   9
  -8   0   7 3927.66 630.533   6
  -8   0   7 3846.23 588.919   9
  -8   0   8 465.070 298.806   9
  -8   0   8-40.4027 266.535   6
  -8   0   9 3906.47 673.163   6
  -8   0   9 3053.85 557.651   9
  -8   0  10-68.4492 271.156   6
  -8   0  10 445.040 301.275   9
  -8   0  11 2850.50 552.239   9
  -8   0  12-204.303 246.537   3
  -8   0  12-127.979 200.730   9
  -8   0  13 1254.56 467.671   9
  -8   0  14 1267.53 454.970   9
  -8   0  15 928.944 447.384   9
  -8   1  -7 517.111 444.016   4
  -8   1  -6 768.566 453.209   9
  -8   1  -6 1179.77 502.192   4
  -8   1  -5 572.726 301.304   9
  -8   1  -5 894.695 495.558   4
  -8   1  -4 413.503 316.886   9
  -8   1  -4 832.787 482.571   4
  -8   1  -3 872.436 425.566   4
  -8   1  -3 1613.15 463.513   9
  -8   1  -2 4226.81 708.467   4
  -8   1  -2 3299.29 572.373   9
  -8   1  -1 490.427 349.388   4
  -8   1  -1 537.846 299.186   9
  -8   1   0 4442.21 613.950   6
  -8   1   0 4754.95 640.555   9
  -8   1   0 4368.79 651.337   4
  -8   1   1 833.867 308.145   6
  -8   1   1 1459.20 361.211   9
  -8   1   2 763.554 318.373   6
  -8   1   2 524.148 261.730   9
  -8   1   3 3154.99 490.635   9
  -8   1   3 3790.34 560.533   6
  -8   1   4 746.290 356.203   6
  -8   1   4-51.3140 196.415   9
  -8   1   5 2209.00 461.150   9
  -8   1   5 1252.28 386.909   6
  -8   1   6 1753.17 405.322   9
  -8   1   6 1416.30 417.723   6
  -8   1   7 397.344 288.611   6
  -8   1   7 251.637 233.282   9
  -8   1   8 2077.79 452.038   9
  -8   1   8 3408.30 589.712   6
  -8   1   9 921.221 392.025   6
  -8   1   9 867.708 325.392   9
  -8   1  10 229.472 267.785   9
  -8   1  11 710.748 361.741   9
  -8   1  12 193.827 313.860   9
  -8   1  13 94.1002 316.721   9
  -8   1  14 265.616 289.262   9
  -8   1  15 319.717 309.366   9
  -8   2  -8 16.5624 337.175   4
  -8   2  -7 2534.08 697.359   4
  -8   2  -6 942.430 417.426   9
  -8   2  -6 1511.54 546.548   4
  -8   2  -5 546.292 268.902   9
  -8   2  -5 1017.11 449.637   4
  -8   2  -4 3423.15 632.469   9
  -8   2  -4 2814.77 646.530   4
  -8   2  -3 573.320 366.694   4
  -8   2  -3 222.851 199.351   9
  -8   2  -2 1491.15 396.699   9
  -8   2  -2 2518.19 579.227   4
  -8   2  -1 3533.42 620.305   4
  -8   2  -1 3345.24 546.263   9
  -8   2   0 1076.81 303.979   6
  -8   2   0 1626.19 400.696   9
  -8   2   1 187.368 189.284   9
  -8   2   1-324.917 293.121   6
  -8   2   2 1361.19 354.776   6
  -8   2   2 1209.38 356.426   9
  -8   2   3 637.260 282.817   9
  -8   2   3 647.086 317.995   6
  -8   2   4 4449.83 587.552   9
  -8   2   4 3622.88 536.425   6
  -8   2   5 125.543 224.278   6
  -8   2   5 442.661 253.371   9
  -8   2   6 76.2119 200.625   9
  -8   2   6 227.275 291.070   6
  -8   2   7 351.264 245.093   9
  -8   2   7 639.856 349.967   6
  -8   2   8 1918.41 444.194   9
  -8   2   8 1156.00 375.048   6
  -8   2   9 798.810 361.147   9
  -8   2  10 640.774 347.134   9
  -8   2  11 262.170 274.438   9
  -8   2  12 1120.00 421.566   9
  -8   2  13 975.648 415.137   9
  -8   2  14 218.424 420.976   9
  -8   2  15-101.350 261.253   9
  -8   3  -8 509.340 525.843   4
  -8   3  -7 334.310 377.005   4
  -8   3  -7-233.314 239.509   9
  -8   3  -6 1500.74 478.127   9
  -8   3  -6 1075.50 463.589   4
  -8   3  -5 520.373 420.868   4
  -8   3  -5 885.311 410.665   9
  -8   3  -4 1811.17 483.591   9
  -8   3  -3 597.385 314.366   9
  -8   3  -2-64.0270 172.579   9
  -8   3  -1 2013.09 399.132   6
  -8   3  -1 1593.26 401.693   9
  -8   3   0 160.964 207.727   6
  -8   3   0 103.175 269.776   9
  -8   3   1 2777.78 490.884   9
  -8   3   1 2483.54 450.596   6
  -8   3   2-107.156 178.450   9
  -8   3   2 4.86955 245.418   6
  -8   3   3 48.1242 234.255   9
  -8   3   3-426.221 201.347   6
  -8   3   4 95.6640 212.370   6
  -8   3   4 818.476 306.383   9
  -8   3   5 356.865 246.929   9
  -8   3   5 378.865 210.805   6
  -8   3   6 4425.63 626.210   9
  -8   3   6 3932.61 581.027   6
  -8   3   7 3113.41 530.249   9
  -8   3   8 5192.56 724.600   9
  -8   3   9 537.100 333.662   9
  -8   3  10 3448.59 615.262   9
  -8   3  11 1345.58 436.272   9
  -8   3  12 3215.32 674.664   9
  -8   3  13 1052.48 435.080   9
  -8   3  14 484.299 400.052   9
  -8   4  -7 567.537 404.079   9
  -8   4  -6 194.530 284.949   9
  -8   4  -5 759.165 337.969   9
  -8   4  -4 1271.19 408.645   9
  -8   4  -3-151.079 209.176   9
  -8   4  -2 5826.01 724.195   9
  -8   4  -2 5106.46 575.063   6
  -8   4  -1 1641.96 417.731   9
  -8   4  -1 1294.38 279.636   6
  -8   4   0 6756.43 632.350   6
  -8   4   0 6184.20 706.218   9
  -8   4   1 783.774 271.150   9
  -8   4   1 554.472 235.086   6
  -8   4   2 0.69460 198.577   9
  -8   4   2 161.253 172.872   6
  -8   4   3 1722.27 364.905   6
  -8   4   3 1163.30 332.203   9
  -8   4   4 166.840 202.835   6
  -8   4   4 31.2572 237.995   9
  -8   4   5 7108.25 715.034   6
  -8   4   5 7785.30 813.234   9
  -8   4   6 1047.64 347.032   9
  -8   4   7 11642.5 1006.46   9
  -8   4   8 458.164 238.508   9
  -8   4   9 2234.56 501.644   9
  -8   4  10 1704.45 465.817   9
  -8   4  11 3570.74 663.594   9
  -8   4  12 2801.26 641.814   9
  -8   4  13 349.940 295.800   9
  -8   4  14 47.2295 323.703   9
  -8   5  -9 1991.32 668.679   2
  -8   5  -8 679.545 376.978   9
  -8   5  -7 200.309 337.505   9
  -8   5  -6 2435.25 573.852   9
  -8   5  -5 607.717 341.283   9
  -8   5  -4 1939.95 458.465   9
  -8   5  -3 2453.83 494.989   9
  -8   5  -2-31.8943 201.146   9
  -8   5  -1 6098.81 556.446   6
  -8   5  -1 5427.73 662.514   9
  -8   5   0 891.919 232.171   6
  -8   5   0 1369.70 372.725   9
  -8   5   1 431.775 259.777   9
  -8   5   1 403.440 190.466   6
  -8   5   2 178.687 199.654   6
  -8   5   2 124.048 195.609   9
  -8   5   3 384.826 207.639   6
  -8   5   3 650.513 298.328   9
  -8   5   4-54.5217 213.215   9
  -8   5   5 88.2558 184.713   9
  -8   5   6 740.313 317.821   9
  -8   5   7 555.575 288.983   9
  -8   5   8-133.458 232.195   9
  -8   5   9 496.360 338.315   9
  -8   5  10 443.512 325.601   9
  -8   5  11 1593.80 492.291   9
  -8   5  12 450.543 364.829   9
  -8   5  13-96.5190 257.624   9
  -8   6  -9 1046.70 634.443   2
  -8   6  -8 868.292 433.672   9
  -8   6  -8 2431.80 680.621   2
  -8   6  -7 1292.15 605.667   2
  -8   6  -7 485.180 369.747   9
  -8   6  -6 918.471 528.263   2
  -8   6  -6 984.782 390.312   9
  -8   6  -5 820.271 348.503   9
  -8   6  -4 250.594 250.161   9
  -8   6  -3 616.163 302.494   9
  -8   6  -2 1489.62 379.850   9
  -8   6  -1 2678.03 472.127   9
  -8   6   0 632.402 272.511   9
  -8   6   1-224.668 199.693   9
  -8   6   1 325.451 347.200   2
  -8   6   2 359.438 220.052   9
  -8   6   2 811.160 357.678   2
  -8   6   3 655.839 239.364   2
  -8   6   3 564.982 275.749   9
  -8   6   4 44.3053 286.283   9
  -8   6   5 431.469 261.889   9
  -8   6   6 2918.37 536.877   9
  -8   6   7 682.783 317.151   9
  -8   6   8 686.272 336.558   9
  -8   6   9 555.069 331.972   9
  -8   6  10 414.272 323.598   9
  -8   6  11 87.2115 264.835   9
  -8   6  12 329.663 427.191   9
  -8   6  13 244.672 353.789   9
  -8   7  -9 1246.12 572.876   2
  -8   7  -8-3.61306 245.292   9
  -8   7  -8 854.948 544.592   2
  -8   7  -7 310.179 422.326   2
  -8   7  -7 836.379 365.729   9
  -8   7  -6 1087.01 424.173   9
  -8   7  -6 903.875 445.979   2
  -8   7  -5 2634.70 672.627   2
  -8   7  -5 1549.94 431.691   9
  -8   7  -4 739.572 429.870   2
  -8   7  -4 133.929 209.387   9
  -8   7  -3 4492.49 626.462   9
  -8   7  -3 5395.62 779.329   2
  -8   7  -2 2118.09 503.402   2
  -8   7  -2 740.710 308.013   9
  -8   7  -1 3301.83 571.582   2
  -8   7  -1 2847.94 511.116   9
  -8   7  -1 2513.39 372.677   8
  -8   7   0 557.722 319.139   2
  -8   7   0 231.459 220.660   9
  -8   7   1 6666.47 675.231   2
  -8   7   1 5615.32 650.769   9
  -8   7   2 3089.42 499.148   9
  -8   7   2 2809.19 425.269   2
  -8   7   3 4384.21 593.045   9
  -8   7   4 1989.28 431.678   9
  -8   7   5 311.751 273.772   9
  -8   7   6 919.030 356.163   9
  -8   7   7 3587.03 604.804   9
  -8   7   8 572.801 325.004   9
  -8   7   9 210.942 280.789   9
  -8   7  10 665.391 354.564   9
  -8   7  11 85.0384 324.382   9
  -8   7  12 211.868 306.634   9
  -8   8  -9 1381.42 618.081   2
  -8   8  -8 1762.62 624.784   2
  -8   8  -8 1433.66 489.513   9
  -8   8  -7-11.9419 212.390   9
  -8   8  -7 93.0197 307.207   2
  -8   8  -6 3168.06 700.395   2
  -8   8  -6 2043.30 481.672   9
  -8   8  -5 414.591 272.864   9
  -8   8  -5 705.995 405.427   2
  -8   8  -4 3668.29 663.008   2
  -8   8  -4 3138.18 571.914   9
  -8   8  -3 240.019 313.172   2
  -8   8  -3-14.8320 193.359   9
  -8   8  -2 910.569 240.518   8
  -8   8  -2 1253.33 379.349   2
  -8   8  -2 824.008 283.605   9
  -8   8  -1 494.810 204.024   8
  -8   8  -1 264.155 207.176   9
  -8   8  -1 93.9154 218.382   2
  -8   8   0 463.602 288.922   9
  -8   8   0 1080.65 312.490   8
  -8   8   0 781.651 258.283   2
  -8   8   1 4719.62 611.781   9
  -8   8   1 4753.06 577.386   2
  -8   8   2 983.472 318.539   9
  -8   8   2 1077.71 349.394   2
  -8   8   3 5469.90 688.395   9
  -8   8   4-35.4149 229.117   9
  -8   8   5 1421.76 403.352   9
  -8   8   6 1621.61 427.173   9
  -8   8   7 977.379 353.966   9
  -8   8   8-99.3384 240.598   9
  -8   8   9 379.594 269.624   9
  -8   8  10 301.321 298.932   9
  -8   8  11 72.8000 316.499   9
  -8   9  -9 616.137 453.996   2
  -8   9  -8-422.927 421.769   2
  -8   9  -8-349.551 231.592   9
  -8   9  -7-160.007 276.317   9
  -8   9  -7-141.005 321.341   2
  -8   9  -6 137.707 302.959   2
  -8   9  -6-103.216 240.657   9
  -8   9  -5 605.339 342.654   9
  -8   9  -5 58.7352 306.901   2
  -8   9  -4 217.469 239.911   2
  -8   9  -4 211.216 239.116   9
  -8   9  -3 58.8989 209.165   9
  -8   9  -3 171.819 306.927   2
  -8   9  -2 313.025 301.307   2
  -8   9  -2 709.288 278.280   9
  -8   9  -2 765.539 274.688   8
  -8   9  -1 111.434 189.990   8
  -8   9  -1-385.373 251.549   9
  -8   9   0 1159.44 369.673   2
  -8   9   0 1370.47 343.442   9
  -8   9   0 1223.24 355.052   8
  -8   9   1 694.163 308.977   2
  -8   9   1 161.945 181.311   9
  -8   9   1 425.453 221.432   8
  -8   9   2 1733.02 408.951   9
  -8   9   3 474.568 260.924   9
  -8   9   4 568.171 283.748   9
  -8   9   5 46.3414 205.969   9
  -8   9   6 940.704 365.007   9
  -8   9   7 332.655 258.375   9
  -8   9   8 496.667 313.339   9
  -8   9   9 1826.23 507.084   9
  -8   9  10 459.713 310.723   9
  -8  10  -8-290.396 284.489   9
  -8  10  -8-475.001 362.270   2
  -8  10  -7 117.726 259.816   9
  -8  10  -7 667.018 483.051   2
  -8  10  -6 189.249 208.760   9
  -8  10  -6 268.584 291.255   2
  -8  10  -5-36.4078 220.165   9
  -8  10  -5 384.075 369.945   2
  -8  10  -4 550.036 291.024   9
  -8  10  -4 800.840 433.020   2
  -8  10  -3 1695.87 511.637   2
  -8  10  -3 1580.29 373.784   9
  -8  10  -2 225.713 232.082   2
  -8  10  -2 320.636 227.586   8
  -8  10  -2-52.5492 168.077   9
  -8  10  -1 407.292 230.229   8
  -8  10  -1 347.904 234.997   9
  -8  10  -1 506.389 291.672   2
  -8  10   0 56.4755 181.669   8
  -8  10   0 17.8251 168.570   9
  -8  10   0 41.8369 232.652   2
  -8  10   1-152.783 190.343   8
  -8  10   1 182.091 213.008   9
  -8  10   2 467.476 291.472   8
  -8  10   2 438.183 256.930   9
  -8  10   3 1031.82 422.997   8
  -8  10   3 1516.91 433.307   9
  -8  10   4 485.859 293.797   9
  -8  10   4 325.839 255.423   8
  -8  10   5 1605.89 422.574   9
  -8  10   6 50.6899 251.158   9
  -8  10   7 29.1677 230.057   9
  -8  10   8 659.057 330.452   9
  -8  10   9-247.692 273.715   9
  -8  11  -7 1525.00 588.335   2
  -8  11  -6 1285.09 526.472   2
  -8  11  -5 2732.83 633.846   2
  -8  11  -4 2564.67 620.933   2
  -8  11  -3 2213.63 468.737   8
  -8  11  -3 1719.59 515.525   2
  -8  11  -2 3734.08 595.058   8
  -8  11  -2 3933.30 661.168   2
  -8  11  -1 934.465 358.917   2
  -8  11  -1 545.028 286.647   8
  -8  11   0 845.369 340.566   8
  -8  11   1 144.712 248.321   8
  -8  11   2 1954.94 512.033   8
  -8  11   3-3.01561 208.883   8
  -8  11   4 2566.54 554.427   8
  -8  11   5 986.090 412.316   8
  -8  11   6 1342.24 441.611   8
  -8  12  -6 1530.27 559.566   2
  -8  12  -5 886.238 428.168   2
  -8  12  -4 549.912 400.694   2
  -8  12  -3 1792.21 424.109   8
  -8  12  -3 3142.03 641.396   2
  -8  12  -2 338.519 263.644   2
  -8  12  -2 303.134 242.525   8
  -8  12  -1 1868.61 480.071   8
  -8  12   0-168.756 209.700   8
  -8  12   1 364.306 278.748   8
  -8  12   2 608.557 327.611   8
  -8  12   3 372.633 304.461   8
  -8  12   4 558.840 344.068   8
  -8  13  -5 22.7013 282.370   2
  -8  13  -4 487.219 316.355   2
  -8  13  -3-212.785 204.648   8
  -8  13  -2-256.158 257.175   8
  -8  13  -1 181.243 241.234   8
  -8  13   0 1015.16 370.637   8
  -8  13   1 344.114 324.557   8
  -7  -7   4 3.25722 305.478   6
  -7  -7   5 1679.21 546.174   6
  -7  -7   6 1076.61 516.373   6
  -7  -7   7 1616.82 557.899   6
  -7  -7   8 134.593 308.136   6
  -7  -7   9 544.497 434.112   6
  -7  -7  10 855.753 467.197   6
  -7  -6  -1 1551.26 542.048   4
  -7  -6   0 693.227 411.687   4
  -7  -6   1 140.894 393.824   4
  -7  -6   2 133.966 344.476   6
  -7  -6   3 185.385 342.823   6
  -7  -6   4 1994.78 604.736   6
  -7  -6   5 401.023 337.278   6
  -7  -6   6 347.905 329.076   6
  -7  -6   7 548.657 412.761   6
  -7  -6   8 70.6036 381.938   6
  -7  -6   9 198.946 339.990   6
  -7  -6  10 136.537 342.075   6
  -7  -6  11-3.95987 328.541   6
  -7  -6  12 328.822 405.441   6
  -7  -5  -2 299.507 389.709   4
  -7  -5  -1 908.270 430.638   4
  -7  -5   0 1343.05 461.392   4
  -7  -5   1-78.8575 240.460   4
  -7  -5   2-194.151 315.211   6
  -7  -5   2 245.263 285.568   4
  -7  -5   3-312.347 349.115   6
  -7  -5   4 38.1566 276.906   6
  -7  -5   5 178.820 298.947   6
  -7  -5   6 731.456 444.100   6
  -7  -5   7 1115.46 459.468   6
  -7  -5   8 1462.42 510.272   6
  -7  -5   9 512.757 333.154   6
  -7  -5  10 1314.36 458.459   6
  -7  -5  11 113.975 385.869   6
  -7  -5  12 1962.99 626.711   6
  -7  -5  13 265.157 301.661   3
  -7  -4  -4 337.915 341.319   4
  -7  -4  -3 1637.20 575.092   4
  -7  -4  -2 428.189 407.512   4
  -7  -4  -1 629.846 402.757   4
  -7  -4   0 955.281 410.359   4
  -7  -4   1 738.620 353.712   4
  -7  -4   2 914.655 399.218   6
  -7  -4   2 1234.53 392.684   4
  -7  -4   3 2586.60 499.103   4
  -7  -4   3 2822.57 610.145   6
  -7  -4   4 810.085 383.170   6
  -7  -4   5 545.506 353.708   6
  -7  -4   6 2906.59 618.445   6
  -7  -4   7 1830.68 508.879   6
  -7  -4   8 2902.70 653.054   6
  -7  -4   9 1423.92 444.306   6
  -7  -4  10 426.165 371.914   6
  -7  -4  11 479.055 426.105   6
  -7  -4  12 960.944 436.233   6
  -7  -4  13 634.856 397.043   3
  -7  -4  14 574.124 403.761   3
  -7  -4  15 39.3411 276.968   3
  -7  -3  -5 1239.24 555.395   4
  -7  -3  -4 3489.59 762.288   4
  -7  -3  -3 1487.41 489.429   4
  -7  -3  -2 1026.81 427.915   4
  -7  -3  -2 596.020 325.639   9
  -7  -3  -1 2224.26 500.606   9
  -7  -3  -1 3110.54 622.212   4
  -7  -3   0 352.263 328.520   4
  -7  -3   0 127.335 210.954   9
  -7  -3   1 4266.97 587.421   9
  -7  -3   1 4425.84 631.866   4
  -7  -3   2 957.031 390.585   6
  -7  -3   2 770.380 305.620   9
  -7  -3   2 902.368 360.420   4
  -7  -3   3 2638.52 467.262   4
  -7  -3   3 3479.93 489.590   9
  -7  -3   3 3035.07 567.163   6
  -7  -3   4-34.8885 146.798   9
  -7  -3   4-125.393 284.909   6
  -7  -3   5 1634.07 461.658   6
  -7  -3   5 2268.54 418.370   9
  -7  -3   6 1124.90 419.026   6
  -7  -3   6 1160.03 315.118   9
  -7  -3   7 5488.43 764.331   6
  -7  -3   7 5424.17 611.572   9
  -7  -3   8 3448.16 624.890   6
  -7  -3   8 4066.68 560.691   9
  -7  -3   9 1459.50 391.311   9
  -7  -3   9 1780.23 497.898   6
  -7  -3  10 1202.85 473.356   6
  -7  -3  10 1050.86 304.679   9
  -7  -3  11 539.087 285.655   9
  -7  -3  11 469.959 412.617   6
  -7  -3  12 601.972 375.905   3
  -7  -3  12 688.585 301.314   9
  -7  -3  13 27.6756 281.546   3
  -7  -3  13 871.632 383.213   9
  -7  -3  14 579.416 347.792   3
  -7  -3  14 406.295 294.692   9
  -7  -3  15 395.701 325.115   3
  -7  -3  15 236.830 280.736   9
  -7  -3  16 224.976 261.928   3
  -7  -2  -6 260.071 368.411   4
  -7  -2  -5 1992.30 578.766   4
  -7  -2  -4 1430.00 552.400   4
  -7  -2  -3 772.486 456.792   4
  -7  -2  -3 372.524 270.320   9
  -7  -2  -2 607.770 382.144   4
  -7  -2  -2 64.1789 200.555   9
  -7  -2  -1 423.541 334.968   4
  -7  -2  -1 259.796 244.441   9
  -7  -2   0 657.709 337.223   4
  -7  -2   0 534.461 299.799   9
  -7  -2   1 372.172 197.103   9
  -7  -2   1 1262.33 403.092   4
  -7  -2   2 56.8390 255.649   6
  -7  -2   2 29.7864 187.927   4
  -7  -2   2 292.359 224.308   9
  -7  -2   3 176.574 230.668   6
  -7  -2   3 181.543 212.171   9
  -7  -2   3 454.268 278.850   4
  -7  -2   4-8.85124 259.157   6
  -7  -2   4 108.416 185.943   9
  -7  -2   4 384.572 239.005   4
  -7  -2   5 945.033 405.215   6
  -7  -2   5 578.572 262.134   9
  -7  -2   6 1668.89 474.435   6
  -7  -2   6 1126.56 302.171   9
  -7  -2   7 1205.00 401.934   6
  -7  -2   7 1288.11 341.186   9
  -7  -2   8 382.313 219.241   9
  -7  -2   8 206.098 360.858   6
  -7  -2   9 217.255 225.200   9
  -7  -2   9 352.387 314.628   6
  -7  -2  10 922.086 391.208   6
  -7  -2  10 819.892 311.934   9
  -7  -2  11 1806.60 537.401   6
  -7  -2  11 1346.21 397.402   9
  -7  -2  12-465.288 306.566   3
  -7  -2  12 183.528 243.904   9
  -7  -2  13 550.761 329.802   9
  -7  -2  13 220.099 285.977   3
  -7  -2  14 314.024 343.934   3
  -7  -2  14 482.088 333.168   9
  -7  -2  15 10.4318 239.201   9
  -7  -2  15 248.619 253.572   3
  -7  -2  16 1098.24 436.806   9
  -7  -1  -7 431.878 425.030   4
  -7  -1  -6 1816.18 569.886   4
  -7  -1  -5 639.919 424.802   4
  -7  -1  -4 1078.35 409.208   4
  -7  -1  -4 1277.27 406.254   9
  -7  -1  -3 284.563 244.284   9
  -7  -1  -3 588.696 437.857   4
  -7  -1  -2 756.970 402.521   4
  -7  -1  -2 357.770 249.961   9
  -7  -1  -1 998.286 342.641   9
  -7  -1  -1 1329.56 395.819   4
  -7  -1   0-1.74891 179.629   9
  -7  -1   0 740.800 345.767   4
  -7  -1   1 874.949 318.187   4
  -7  -1   1 636.241 287.688   9
  -7  -1   2 339.657 209.001   9
  -7  -1   2 180.827 232.311   6
  -7  -1   3 3522.36 487.577   4
  -7  -1   3 3655.31 498.860   9
  -7  -1   3 3279.13 529.313   6
  -7  -1   4 6673.59 726.543   6
  -7  -1   4 5658.59 614.261   9
  -7  -1   4 5207.90 546.561   4
  -7  -1   5 878.203 335.216   6
  -7  -1   5 576.218 248.629   9
  -7  -1   6 2487.05 431.502   9
  -7  -1   6 2645.18 534.912   6
  -7  -1   7 205.704 210.877   9
  -7  -1   7-390.434 280.725   6
  -7  -1   8 3866.51 640.970   6
  -7  -1   8 3685.75 542.779   9
  -7  -1   9 260.793 239.245   9
  -7  -1   9-140.599 275.755   6
  -7  -1  10 8255.67 849.709   9
  -7  -1  10 8784.90 966.254   6
  -7  -1  11 81.4392 207.462   9
  -7  -1  12 4452.38 694.800   9
  -7  -1  12 3541.50 572.595   3
  -7  -1  13 312.725 323.733   3
  -7  -1  13 448.182 319.473   9
  -7  -1  14 1743.49 471.484   3
  -7  -1  14 1745.89 491.827   9
  -7  -1  15 2379.23 588.394   9
  -7  -1  16 92.7958 234.661   9
  -7   0  -8 402.089 343.382   4
  -7   0  -7 253.867 432.075   4
  -7   0  -6 733.518 443.587   4
  -7   0  -5 124.520 212.713   9
  -7   0  -5 243.954 321.541   4
  -7   0  -4-101.672 294.863   4
  -7   0  -4-185.647 217.995   9
  -7   0  -3 971.026 362.487   4
  -7   0  -3 1209.51 403.322   9
  -7   0  -2 2164.69 501.987   4
  -7   0  -2 1880.03 420.292   9
  -7   0  -1 1306.59 358.110   4
  -7   0  -1 1522.99 391.909   9
  -7   0   0 2202.72 426.396   9
  -7   0   0 2235.38 440.499   4
  -7   0   1 558.279 267.447   4
  -7   0   1-209.229 236.858   6
  -7   0   1 615.322 257.396   9
  -7   0   2 4861.52 598.612   6
  -7   0   2 4962.34 561.958   9
  -7   0   2 4670.13 571.268   4
  -7   0   3 7319.23 718.561   6
  -7   0   3 8001.90 678.385   4
  -7   0   3 7305.62 716.503   9
  -7   0   4 1936.40 428.761   6
  -7   0   4 1194.04 303.022   9
  -7   0   5 3235.56 485.284   9
  -7   0   5 2910.52 514.593   6
  -7   0   6 1605.77 361.429   9
  -7   0   6 1326.10 360.365   6
  -7   0   7 1468.60 396.785   6
  -7   0   7 1806.60 422.245   9
  -7   0   8 37.3737 255.694   6
  -7   0   8 391.318 219.049   9
  -7   0   9 2335.52 505.110   6
  -7   0   9 1519.64 401.881   9
  -7   0  10 278.010 249.100   9
  -7   0  11 2071.36 493.743   9
  -7   0  12 55.9567 238.164   9
  -7   0  12 112.409 216.713   3
  -7   0  13 555.347 313.539   9
  -7   0  14 1336.90 437.351   9
  -7   0  15-45.7214 232.439   9
  -7   0  16 586.134 365.527   9
  -7   1  -9 51.0822 308.480   4
  -7   1  -8 1578.50 544.884   4
  -7   1  -7 142.980 345.157   4
  -7   1  -6 740.537 432.421   4
  -7   1  -6 486.789 309.085   9
  -7   1  -5 1165.06 398.047   9
  -7   1  -5 2995.58 670.438   4
  -7   1  -4 942.955 420.243   4
  -7   1  -4 675.750 324.624   9
  -7   1  -3 4113.69 647.830   4
  -7   1  -3 3792.93 606.517   9
  -7   1  -2 4265.42 593.979   9
  -7   1  -2 4412.74 643.659   4
  -7   1  -1 3722.68 568.985   4
  -7   1  -1 3361.13 515.302   9
  -7   1   0 539.473 334.071   4
  -7   1   0 580.122 235.015   9
  -7   1   1 3023.91 454.604   9
  -7   1   1 2507.67 442.496   6
  -7   1   1 3287.99 519.195   4
  -7   1   2 7636.50 717.391   9
  -7   1   2 7190.61 690.350   6
  -7   1   3 2682.96 452.537   6
  -7   1   3 2259.44 386.746   9
  -7   1   4 5161.52 612.965   9
  -7   1   4 5660.84 655.212   6
  -7   1   5 948.354 312.786   9
  -7   1   5 42.6974 214.956   6
  -7   1   6 339.020 258.357   6
  -7   1   6 249.901 264.703   9
  -7   1   7-342.863 256.409   6
  -7   1   7 621.173 268.704   9
  -7   1   8 637.867 268.478   9
  -7   1   8 1010.40 383.034   6
  -7   1   9 436.108 286.491   9
  -7   1  10 291.102 260.032   9
  -7   1  11 1609.06 364.372   3
  -7   1  11 2423.11 530.505   9
  -7   1  12 397.466 295.973   9
  -7   1  13-69.8739 293.129   9
  -7   1  14 159.362 244.755   9
  -7   1  15-121.278 283.917   9
  -7   2  -9 1436.12 575.823   4
  -7   2  -8-548.814 410.623   4
  -7   2  -7 15.2885 303.795   4
  -7   2  -6 353.350 304.057   9
  -7   2  -6-52.2270 364.742   4
  -7   2  -5 476.143 281.516   9
  -7   2  -5 338.316 392.238   4
  -7   2  -4 172.111 326.494   4
  -7   2  -4 181.790 286.562   9
  -7   2  -3 145.918 227.827   9
  -7   2  -3 517.976 358.882   4
  -7   2  -2-119.951 256.307   4
  -7   2  -2 252.727 237.860   9
  -7   2  -1 275.511 201.117   9
  -7   2  -1 280.353 298.523   4
  -7   2   0 228.058 198.864   6
  -7   2   0 223.643 210.315   9
  -7   2   1 3540.89 517.852   9
  -7   2   1 2786.60 395.707   6
  -7   2   2 1456.05 314.495   6
  -7   2   2 1565.57 337.972   9
  -7   2   3 1583.97 361.212   6
  -7   2   3 1403.01 330.329   9
  -7   2   4 848.504 284.269   6
  -7   2   4 885.973 291.292   9
  -7   2   5 1143.43 340.015   9
  -7   2   5 1285.53 342.390   6
  -7   2   6 490.752 252.068   9
  -7   2   6 411.282 291.559   6
  -7   2   7 2471.03 460.861   9
  -7   2   7 2603.69 491.686   6
  -7   2   8 648.238 269.408   9
  -7   2   9 276.725 252.800   9
  -7   2  10 783.823 366.561   9
  -7   2  10 430.849 205.495   3
  -7   2  11-195.295 263.170   9
  -7   2  12 938.760 309.709   9
  -7   2  13 439.188 344.349   9
  -7   2  14-117.911 258.546   9
  -7   2  15 573.838 409.439   9
  -7   3 -10-143.165 365.835   4
  -7   3  -9 139.136 421.414   4
  -7   3  -8 1102.50 524.283   4
  -7   3  -7 783.414 374.797   9
  -7   3  -7 1257.61 502.037   4
  -7   3  -6 1353.46 425.940   9
  -7   3  -6 1367.14 539.355   4
  -7   3  -5 2459.38 591.399   4
  -7   3  -5 1029.03 341.395   9
  -7   3  -4 27.6555 199.319   9
  -7   3  -4 194.449 302.484   4
  -7   3  -3 1482.69 412.687   9
  -7   3  -3 1377.08 409.974   4
  -7   3  -2 2007.38 405.304   9
  -7   3  -1 622.135 215.727   6
  -7   3  -1 682.921 277.405   9
  -7   3   0 1654.35 379.613   9
  -7   3   0 1058.29 282.230   6
  -7   3   1 476.426 302.594   9
  -7   3   1 278.475 255.765   6
  -7   3   2 1302.24 345.494   9
  -7   3   2 1916.40 380.931   6
  -7   3   3 771.207 242.532   6
  -7   3   3 908.406 320.287   9
  -7   3   4 10583.9 788.408   6
  -7   3   4 12369.0 937.733   9
  -7   3   5 746.352 340.725   9
  -7   3   5 1563.74 374.174   6
  -7   3   6 21820.3 1242.69   9
  -7   3   7-7.94971 170.019   9
  -7   3   8 6677.05 763.436   9
  -7   3   9 2385.25 491.952   9
  -7   3  10 1269.34 409.504   9
  -7   3  11 3909.13 686.291   9
  -7   3  12 571.214 312.425   9
  -7   3  13 1338.97 475.345   9
  -7   3  14 977.973 471.068   9
  -7   3  15 922.918 452.651   9
  -7   4  -7 1945.99 498.549   9
  -7   4  -6 3353.65 605.994   9
  -7   4  -5 1604.84 409.852   9
  -7   4  -4 1451.85 395.935   9
  -7   4  -3 28.5395 199.809   9
  -7   4  -2 1325.82 270.064   6
  -7   4  -2 1642.72 384.690   9
  -7   4  -1 1692.70 283.680   6
  -7   4  -1 1271.63 343.657   9
  -7   4   0 455.694 214.113   6
  -7   4   0 630.706 246.008   9
  -7   4   1-51.0740 170.025   6
  -7   4   1 37.2332 209.755   9
  -7   4   2 571.990 207.724   6
  -7   4   2 978.486 286.945   9
  -7   4   3 847.642 271.646   6
  -7   4   3 1350.37 338.198   9
  -7   4   4 321.877 254.135   6
  -7   4   4 138.404 240.271   9
  -7   4   5 6709.70 705.777   9
  -7   4   6 734.018 305.983   9
  -7   4   7 4090.16 595.211   9
  -7   4   8 1699.16 438.269   9
  -7   4   9 110.995 233.762   9
  -7   4  10 1503.29 465.395   9
  -7   4  11 477.761 302.782   9
  -7   4  12 57.6430 235.281   9
  -7   4  13 408.098 313.874   9
  -7   4  14 131.899 268.477   9
  -7   5 -10 1176.44 578.937   2
  -7   5  -9 1767.77 620.033   2
  -7   5  -8 1042.41 410.795   9
  -7   5  -7 4587.68 731.492   9
  -7   5  -6 1623.64 465.147   9
  -7   5  -5 4964.45 694.373   9
  -7   5  -4 505.909 283.678   9
  -7   5  -3 2011.91 418.024   9
  -7   5  -3 1622.83 271.015   6
  -7   5  -2 1447.32 353.098   9
  -7   5  -2 1732.45 276.441   6
  -7   5  -1 703.128 317.731   9
  -7   5  -1 733.987 233.095   6
  -7   5   0 224.164 204.118   9
  -7   5   0-36.8673 147.005   6
  -7   5   1 1199.85 252.274   6
  -7   5   1 1203.07 317.120   9
  -7   5   2 642.829 220.439   6
  -7   5   2 713.806 255.004   9
  -7   5   3 1370.17 339.331   9
  -7   5   3 1866.10 364.032   2
  -7   5   4-35.8097 138.266   2
  -7   5   4 260.218 265.566   9
  -7   5   5 831.502 307.754   9
  -7   5   6 14.1826 206.553   9
  -7   5   7 393.262 224.417   9
  -7   5   8 353.029 292.923   9
  -7   5   9 373.985 260.477   9
  -7   5  10 2056.61 498.184   9
  -7   5  11 1117.01 379.093   9
  -7   5  12-59.3143 256.406   9
  -7   5  13 1754.00 560.804   9
  -7   5  14 602.041 406.132   9
  -7   6 -11 329.268 358.420   2
  -7   6 -10 362.007 406.701   2
  -7   6  -9 556.034 449.702   2
  -7   6  -8 807.549 481.537   2
  -7   6  -8 642.608 341.288   9
  -7   6  -7-260.822 234.084   9
  -7   6  -7 319.485 380.233   2
  -7   6  -6-128.415 208.872   9
  -7   6  -6 543.049 417.586   2
  -7   6  -5-142.758 181.957   9
  -7   6  -5 668.534 521.443   2
  -7   6  -4 919.705 322.271   9
  -7   6  -4 1901.98 518.080   2
  -7   6  -3 3423.45 596.943   2
  -7   6  -3 2234.32 407.557   9
  -7   6  -2 1815.76 390.127   9
  -7   6  -2 2725.64 554.143   2
  -7   6  -2 1685.32 300.517   8
  -7   6  -1 76.3660 216.766   9
  -7   6  -1 460.087 330.479   2
  -7   6   0 618.264 303.141   2
  -7   6   0-101.131 162.726   9
  -7   6   1 4284.52 532.976   9
  -7   6   1 4829.01 546.561   2
  -7   6   2 52.9165 182.788   2
  -7   6   2 692.179 284.031   9
  -7   6   3 7469.35 732.199   9
  -7   6   3 6435.22 515.313   2
  -7   6   4 271.286 186.929   9
  -7   6   4 472.997 193.277   2
  -7   6   5 2277.10 446.019   9
  -7   6   6 625.727 276.653   9
  -7   6   7 930.009 340.088   9
  -7   6   8-8.00368 216.862   9
  -7   6   9 2932.94 578.710   9
  -7   6  10 501.751 361.026   9
  -7   6  11 476.243 338.101   9
  -7   6  12 362.308 334.443   9
  -7   6  13-101.802 231.760   9
  -7   7 -10 193.827 446.957   2
  -7   7  -9 1683.65 593.878   2
  -7   7  -8 333.806 224.706   9
  -7   7  -8 784.440 426.268   2
  -7   7  -7 405.285 275.280   9
  -7   7  -7 682.816 419.868   2
  -7   7  -6 1144.63 507.706   2
  -7   7  -6 566.467 293.643   9
  -7   7  -5 1967.22 430.759   9
  -7   7  -5 2187.81 498.379   2
  -7   7  -4 61.4001 183.788   9
  -7   7  -4 395.341 392.456   2
  -7   7  -3 9022.28 810.048   9
  -7   7  -3 9246.25 887.544   2
  -7   7  -3 9244.07 622.229   8
  -7   7  -2 2806.30 388.499   8
  -7   7  -2 2850.78 467.422   9
  -7   7  -2 3267.29 548.845   2
  -7   7  -1 1624.84 338.602   8
  -7   7  -1 1600.12 395.729   2
  -7   7  -1 1899.44 367.635   9
  -7   7   0 9665.93 783.964   2
  -7   7   0 8311.41 743.189   9
  -7   7   1 818.034 251.065   9
  -7   7   1-9.09391 174.533   2
  -7   7   2 12531.3 785.700   2
  -7   7   2 12631.0 913.880   9
  -7   7   3 353.458 234.004   9
  -7   7   3 196.840 189.790   2
  -7   7   4 3238.44 506.616   9
  -7   7   5 1480.86 335.025   9
  -7   7   6 273.170 232.281   9
  -7   7   7 1722.99 409.095   9
  -7   7   8 1592.75 414.577   9
  -7   7   9 2148.87 514.627   9
  -7   7  10 1126.26 432.249   9
  -7   7  11 724.759 388.780   9
  -7   7  12 466.812 298.062   9
  -7   8 -10 1971.39 642.192   2
  -7   8  -9 889.164 454.173   2
  -7   8  -8 848.215 361.440   9
  -7   8  -8 474.701 411.891   2
  -7   8  -7-257.869 285.646   2
  -7   8  -7 46.4538 187.444   9
  -7   8  -6 851.640 469.938   2
  -7   8  -6 1487.71 380.962   9
  -7   8  -5 777.030 367.229   2
  -7   8  -5 300.966 240.603   9
  -7   8  -4 3596.73 597.873   2
  -7   8  -4 1990.91 415.795   9
  -7   8  -3-162.720 186.553   9
  -7   8  -3 404.184 197.463   8
  -7   8  -3-51.2276 219.624   2
  -7   8  -2 1709.18 352.632   8
  -7   8  -2 1441.84 390.236   2
  -7   8  -2 1123.25 300.961   9
  -7   8  -1 2137.01 393.804   8
  -7   8  -1 1634.03 358.356   9
  -7   8  -1 1408.04 341.345   2
  -7   8   0 128.451 218.124   9
  -7   8   0 257.853 200.137   8
  -7   8   0 675.175 278.026   2
  -7   8   1 3754.16 499.746   2
  -7   8   1 3167.56 490.489   9
  -7   8   2 162.883 204.936   2
  -7   8   2 87.4734 176.669   9
  -7   8   3 530.207 247.822   9
  -7   8   4 1057.96 314.692   9
  -7   8   5 1291.77 408.445   9
  -7   8   6 497.936 307.365   9
  -7   8   7-11.5310 185.622   9
  -7   8   8 306.460 294.540   9
  -7   8   9 150.469 238.598   9
  -7   8  10 427.868 290.411   9
  -7   8  11 62.6844 239.535   9
  -7   8  12 12.7635 290.595   9
  -7   9 -10 568.406 358.649   2
  -7   9  -9 359.913 357.772   2
  -7   9  -8-5.68643 341.292   2
  -7   9  -8 256.466 299.213   9
  -7   9  -7-58.4689 185.428   9
  -7   9  -7-278.657 282.523   2
  -7   9  -6 425.214 381.195   2
  -7   9  -6 96.6650 206.491   9
  -7   9  -5-35.4826 309.275   2
  -7   9  -5 421.899 260.299   9
  -7   9  -4 592.014 334.073   2
  -7   9  -4 371.017 242.553   9
  -7   9  -4 372.149 223.309   8
  -7   9  -3 1280.54 322.391   8
  -7   9  -3 1616.79 435.539   2
  -7   9  -3 747.837 253.863   9
  -7   9  -2-16.1162 175.122   9
  -7   9  -2-82.1331 150.099   8
  -7   9  -1 929.002 302.096   9
  -7   9  -1 375.973 215.055   8
  -7   9  -1 1113.63 376.769   2
  -7   9   0 1766.43 373.934   9
  -7   9   0 1451.92 373.445   2
  -7   9   0 1752.32 395.784   8
  -7   9   1-8.60697 157.186   9
  -7   9   1-186.883 181.967   8
  -7   9   1 205.367 201.022   2
  -7   9   2 393.670 293.184   8
  -7   9   2 506.263 256.246   9
  -7   9   3 1597.54 388.568   9
  -7   9   4 2788.56 508.268   9
  -7   9   5 4017.60 611.252   9
  -7   9   6 255.994 258.813   9
  -7   9   7 2200.39 503.557   9
  -7   9   8 9.85426 219.774   9
  -7   9   9 2113.95 529.877   9
  -7   9  10 145.325 256.093   9
  -7   9  11 996.367 432.751   9
  -7  10  -9 1366.57 546.513   2
  -7  10  -8 2885.16 680.451   2
  -7  10  -7 1543.45 547.086   2
  -7  10  -6 1637.68 590.685   2
  -7  10  -5-91.0341 187.249   9
  -7  10  -5 630.296 404.456   2
  -7  10  -4 252.911 249.190   8
  -7  10  -4 148.448 180.671   9
  -7  10  -4 604.766 377.788   2
  -7  10  -3 1642.90 354.178   9
  -7  10  -3 2239.11 517.224   2
  -7  10  -3 2152.24 402.129   8
  -7  10  -2 241.988 211.205   8
  -7  10  -2 21.0949 187.462   9
  -7  10  -2 255.039 278.641   2
  -7  10  -1 256.348 246.159   8
  -7  10  -1 624.494 248.508   9
  -7  10  -1 752.763 323.030   2
  -7  10   0 34.4072 150.803   8
  -7  10   0 232.158 205.572   2
  -7  10   0 445.286 232.498   9
  -7  10   1 302.703 234.221   9
  -7  10   1 506.462 289.851   8
  -7  10   2 271.628 242.522   8
  -7  10   2 288.892 195.180   9
  -7  10   3 1961.61 377.377   9
  -7  10   3 2175.86 497.659   8
  -7  10   4 274.422 289.514   8
  -7  10   4 801.188 327.701   9
  -7  10   5 1050.50 358.749   9
  -7  10   5 1698.45 445.934   8
  -7  10   6 1009.97 344.561   9
  -7  10   6 1095.07 422.270   8
  -7  10   7 379.598 320.615   8
  -7  10   7-607.292 339.173   9
  -7  10   8 1337.84 510.271   8
  -7  11  -9 2532.99 670.611   2
  -7  11  -8 277.038 321.743   2
  -7  11  -7 2717.26 684.126   2
  -7  11  -6 2469.02 641.151   2
  -7  11  -5 417.819 376.099   2
  -7  11  -4 4368.55 744.222   2
  -7  11  -4 4006.94 588.361   8
  -7  11  -3-2.07214 168.628   8
  -7  11  -3-233.427 300.154   2
  -7  11  -2 4369.58 645.318   2
  -7  11  -2 4663.43 654.097   8
  -7  11  -1 116.740 251.809   2
  -7  11  -1 350.308 247.123   8
  -7  11   0 694.232 275.134   8
  -7  11   1-383.822 277.451   8
  -7  11   2 1220.83 405.040   8
  -7  11   3 1046.81 375.484   8
  -7  11   4 2149.26 504.070   8
  -7  11   5 1216.08 411.914   8
  -7  11   6 201.822 243.548   8
  -7  11   7 883.514 392.768   8
  -7  12  -7 278.466 362.565   2
  -7  12  -6 183.191 259.469   2
  -7  12  -5 442.975 379.076   2
  -7  12  -4 256.008 216.428   8
  -7  12  -4-144.068 267.984   2
  -7  12  -3-290.031 391.340   2
  -7  12  -3 558.261 274.663   8
  -7  12  -2-148.208 222.646   2
  -7  12  -2 417.473 262.846   8
  -7  12  -1-79.3780 228.698   8
  -7  12   0 36.9697 249.510   8
  -7  12   1 316.006 237.280   8
  -7  12   2-8.09136 237.261   8
  -7  12   3 224.983 295.024   8
  -7  12   4 508.342 324.988   8
  -7  13  -6-601.609 366.778   2
  -7  13  -5 656.445 432.153   2
  -7  13  -4-582.283 410.899   2
  -7  13  -4-115.413 197.207   8
  -7  13  -3 81.0873 290.748   2
  -7  13  -3-429.261 300.128   8
  -7  13  -2 443.873 217.252   8
  -7  13  -1 315.586 278.499   8
  -7  13   0 1839.93 530.940   8
  -7  13   1 922.467 423.115   8
  -7  14  -4 691.595 355.806   2
  -7  14  -4-8.09808 258.130   8
  -6  -8   3-316.154 399.303   6
  -6  -8   4 809.649 455.821   6
  -6  -8   5 101.890 292.977   6
  -6  -8   6 1196.79 482.132   6
  -6  -8   7 36.2020 359.093   6
  -6  -8   8 1191.61 489.508   6
  -6  -8   9 81.6908 300.003   6
  -6  -8  10 591.277 369.311   6
  -6  -8  11 1110.37 487.143   6
  -6  -7  -1 448.966 332.353   4
  -6  -7   0 513.554 370.615   4
  -6  -7   1 77.0074 250.522   4
  -6  -7   2-663.014 417.572   6
  -6  -7   3 705.709 411.458   6
  -6  -7   4 1320.92 521.850   6
  -6  -7   5 1839.48 559.912   6
  -6  -7   6 1597.16 512.588   6
  -6  -7   7 2734.67 661.589   6
  -6  -7   8 823.334 399.838   6
  -6  -7   9 649.945 395.163   6
  -6  -7  10 976.595 487.808   6
  -6  -7  11-23.9951 301.482   6
  -6  -7  12 1855.44 548.498   3
  -6  -7  12 1738.83 569.707   6
  -6  -7  13-150.221 347.324   6
  -6  -6  -3 669.266 427.073   4
  -6  -6  -2 1382.86 524.004   4
  -6  -6  -1 841.677 422.061   4
  -6  -6   0 748.181 328.985   4
  -6  -6   1 758.226 299.391   4
  -6  -6   2-284.969 305.371   4
  -6  -6   3-555.100 406.102   6
  -6  -6   3 844.062 338.632   4
  -6  -6   4 41.1399 307.283   6
  -6  -6   5 152.793 263.426   6
  -6  -6   6 508.471 372.178   6
  -6  -6   7 3528.76 634.090   6
  -6  -6   8 376.824 403.085   6
  -6  -6   9 666.172 402.711   6
  -6  -6  10 412.622 296.950   6
  -6  -6  11 582.788 422.101   6
  -6  -6  12 488.680 317.734   3
  -6  -6  12 406.515 340.380   6
  -6  -6  13 346.552 295.952   3
  -6  -5  -4 650.120 466.724   4
  -6  -5  -3 353.408 325.700   4
  -6  -5  -2-242.361 342.548   4
  -6  -5  -1 271.240 296.285   4
  -6  -5   0 419.854 269.107   4
  -6  -5   1 431.246 273.296   4
  -6  -5   2 458.956 289.041   4
  -6  -5   3-13.3536 214.076   4
  -6  -5   3 455.300 331.588   6
  -6  -5   4 367.226 252.455   6
  -6  -5   4 169.861 170.725   4
  -6  -5   5 619.094 339.821   6
  -6  -5   6 3576.10 643.339   6
  -6  -5   7 637.665 388.744   6
  -6  -5   8 4570.23 696.217   6
  -6  -5   9 458.619 361.847   6
  -6  -5  10 270.773 337.347   6
  -6  -5  11 488.727 425.199   6
  -6  -5  12-175.187 393.201   3
  -6  -5  12 1013.71 492.656   6
  -6  -5  13 465.123 280.990   3
  -6  -5  14 301.277 326.557   3
  -6  -5  15 24.9419 276.221   3
  -6  -4  -5 918.619 484.070   4
  -6  -4  -4 690.883 430.292   4
  -6  -4  -3 2035.10 562.534   4
  -6  -4  -2 131.068 275.542   4
  -6  -4  -1 279.446 215.724   9
  -6  -4  -1 288.393 270.950   4
  -6  -4   0 2304.14 503.520   4
  -6  -4   0 1872.42 392.920   9
  -6  -4   1 224.504 195.069   9
  -6  -4   1-162.244 218.741   4
  -6  -4   2 5679.05 654.755   4
  -6  -4   2 5815.20 580.971   9
  -6  -4   3 634.354 268.545   4
  -6  -4   3 543.687 193.833   9
  -6  -4   3 979.325 399.783   6
  -6  -4   4 5442.78 561.684   4
  -6  -4   4 6135.03 561.318   9
  -6  -4   4 6248.27 763.303   6
  -6  -4   5 2687.54 518.853   6
  -6  -4   5 2544.22 371.945   9
  -6  -4   6 977.712 242.443   9
  -6  -4   6 1365.46 396.325   6
  -6  -4   7 6882.71 623.881   9
  -6  -4   7 7562.43 860.189   6
  -6  -4   8 1927.96 382.201   9
  -6  -4   8 1100.61 375.392   6
  -6  -4   9 2029.13 398.940   9
  -6  -4   9 1823.56 474.590   6
  -6  -4  10 370.595 226.289   9
  -6  -4  10 955.075 412.286   6
  -6  -4  11 6.53060 159.877   9
  -6  -4  11 511.041 380.697   6
  -6  -4  12-280.287 341.874   3
  -6  -4  13 681.240 346.671   3
  -6  -4  14 14.3072 295.047   3
  -6  -4  15 1332.15 489.505   3
  -6  -4  16 849.682 427.310   3
  -6  -3  -7 1598.75 572.371   4
  -6  -3  -6 1223.99 561.983   4
  -6  -3  -5 841.412 487.322   4
  -6  -3  -4 1344.21 470.292   4
  -6  -3  -3 1009.65 408.120   4
  -6  -3  -2 141.178 235.105   4
  -6  -3  -2 195.516 201.559   9
  -6  -3  -1 332.923 238.981   9
  -6  -3  -1 522.617 349.009   4
  -6  -3   0 806.079 339.512   4
  -6  -3   0 699.947 281.833   9
  -6  -3   1 2866.06 429.235   9
  -6  -3   1 2568.28 459.724   4
  -6  -3   2 296.501 202.153   4
  -6  -3   2 335.981 162.914   9
  -6  -3   3 4969.47 626.260   6
  -6  -3   3 4885.77 516.876   9
  -6  -3   3 4981.32 550.048   4
  -6  -3   4 1396.71 296.093   4
  -6  -3   4 1708.92 415.309   6
  -6  -3   4 1210.62 284.472   9
  -6  -3   5 608.951 219.378   4
  -6  -3   5 858.474 348.371   6
  -6  -3   5 375.967 177.097   9
  -6  -3   6 4479.08 507.213   9
  -6  -3   6 5765.29 701.176   6
  -6  -3   7 467.923 217.360   9
  -6  -3   7 152.790 255.567   6
  -6  -3   8 5423.26 588.889   9
  -6  -3   8 6933.39 766.623   6
  -6  -3   9 344.942 199.229   9
  -6  -3   9 809.720 322.667   6
  -6  -3  10 138.816 188.968   9
  -6  -3  10 426.319 356.342   6
  -6  -3  11 435.749 395.547   6
  -6  -3  11 304.631 217.600   9
  -6  -3  12-97.0159 216.492   9
  -6  -3  12-162.613 255.483   3
  -6  -3  13 440.110 337.250   3
  -6  -3  13-19.3159 215.241   9
  -6  -3  14 1672.52 545.710   3
  -6  -3  14 737.186 321.301   9
  -6  -3  15 525.182 334.712   3
  -6  -3  15 415.459 345.162   9
  -6  -3  16 243.819 276.312   9
  -6  -3  16 530.731 374.521   3
  -6  -3  17-536.641 297.955   9
  -6  -2  -8 1250.77 557.943   4
  -6  -2  -7 1213.19 543.286   4
  -6  -2  -6 780.485 436.447   4
  -6  -2  -5 1293.26 518.029   4
  -6  -2  -4 682.020 350.806   4
  -6  -2  -3 54.2557 227.317   9
  -6  -2  -3 195.373 312.349   4
  -6  -2  -2 2346.22 470.486   9
  -6  -2  -2 2738.68 543.717   4
  -6  -2  -1 1116.58 384.160   4
  -6  -2  -1 425.275 250.590   9
  -6  -2   0 181.974 273.891   4
  -6  -2   0 369.298 210.159   9
  -6  -2   1 192.549 187.110   9
  -6  -2   1 77.2572 238.412   4
  -6  -2   2 639.707 230.806   9
  -6  -2   2 1712.21 366.847   4
  -6  -2   3 921.114 266.434   4
  -6  -2   3 806.050 252.596   9
  -6  -2   3 517.671 285.719   6
  -6  -2   4 357.930 239.303   6
  -6  -2   4 390.347 214.198   9
  -6  -2   4 683.622 251.445   4
  -6  -2   5 451.950 228.684   9
  -6  -2   5 154.703 169.871   4
  -6  -2   5 802.439 336.398   6
  -6  -2   6 944.103 281.228   9
  -6  -2   6 1149.72 388.499   6
  -6  -2   7 648.265 324.787   6
  -6  -2   7 114.290 168.087   9
  -6  -2   8 159.657 295.007   6
  -6  -2   8 236.255 236.809   9
  -6  -2   9 4286.16 560.042   9
  -6  -2   9 4830.83 688.427   6
  -6  -2  10 482.635 296.419   9
  -6  -2  10 16.1743 260.120   6
  -6  -2  11 7527.32 811.280   9
  -6  -2  11 7341.97 807.838   3
  -6  -2  12 1634.87 404.445   9
  -6  -2  12 1260.28 388.625   3
  -6  -2  13 103.159 265.206   9
  -6  -2  13 75.0440 261.296   3
  -6  -2  14 640.152 343.643   9
  -6  -2  14 701.473 343.509   3
  -6  -2  15-14.1003 248.295   9
  -6  -2  15-396.732 313.256   3
  -6  -2  16 1508.29 525.552   9
  -6  -2  17 48.5424 264.892   9
  -6  -1  -9 540.347 442.113   4
  -6  -1  -8-413.025 315.182   4
  -6  -1  -7 1704.19 575.686   4
  -6  -1  -6 1540.80 513.173   4
  -6  -1  -5 343.201 345.610   4
  -6  -1  -4 767.886 362.231   4
  -6  -1  -4 397.047 247.627   9
  -6  -1  -3 3105.65 562.766   4
  -6  -1  -3 2308.84 461.334   9
  -6  -1  -2 1590.12 355.798   9
  -6  -1  -2 2095.17 453.792   4
  -6  -1  -1 4551.51 561.867   9
  -6  -1  -1 4888.35 651.682   4
  -6  -1   0 351.586 314.993   4
  -6  -1   0-3.42050 148.233   9
  -6  -1   1 406.456 259.300   4
  -6  -1   1 407.122 188.807   9
  -6  -1   2 3183.71 492.756   6
  -6  -1   2 3852.98 483.514   4
  -6  -1   2 3788.50 478.777   9
  -6  -1   3-172.308 178.165   9
  -6  -1   3 17.9927 228.341   6
  -6  -1   3-124.838 205.143   4
  -6  -1   4 6200.69 507.931   4
  -6  -1   4 6296.39 672.732   6
  -6  -1   4 7153.10 648.128   9
  -6  -1   5 510.749 201.968   9
  -6  -1   5 544.281 324.570   6
  -6  -1   6 850.715 306.592   6
  -6  -1   6 1922.15 383.494   9
  -6  -1   7 210.268 193.036   9
  -6  -1   7 265.181 281.018   6
  -6  -1   8 3289.20 466.761   9
  -6  -1   8 3397.69 530.704   6
  -6  -1   9 1442.41 366.289   9
  -6  -1   9 1617.15 444.446   6
  -6  -1  10 8103.26 799.800   9
  -6  -1  11 1689.54 383.354   3
  -6  -1  11 2677.00 506.209   9
  -6  -1  12 1010.75 351.656   3
  -6  -1  12 1112.16 371.840   9
  -6  -1  13 1513.96 412.462   3
  -6  -1  13 1684.60 426.931   9
  -6  -1  14 1103.66 422.073   9
  -6  -1  14 716.440 363.067   3
  -6  -1  15 1148.06 432.889   9
  -6  -1  16 534.836 467.789   9
  -6   0  -9 773.157 429.536   4
  -6   0  -8 546.137 386.914   4
  -6   0  -7 1524.62 482.243   4
  -6   0  -6 63.8389 265.166   4
  -6   0  -5 834.306 380.216   4
  -6   0  -5 1301.27 376.165   9
  -6   0  -4 5797.79 782.513   4
  -6   0  -4 5862.13 712.137   9
  -6   0  -3 982.484 350.336   9
  -6   0  -3 794.684 362.800   4
  -6   0  -2 13637.6 954.177   9
  -6   0  -2 13654.3 1015.48   4
  -6   0  -1-29.0846 186.358   9
  -6   0  -1 318.233 246.931   4
  -6   0   0 5499.32 618.529   4
  -6   0   0 5834.96 591.989   9
  -6   0   1 6768.13 639.431   4
  -6   0   1 7298.08 651.087   9
  -6   0   2 3307.56 454.710   6
  -6   0   2 4403.06 514.688   9
  -6   0   2 4338.10 509.601   4
  -6   0   3 5175.33 484.259   4
  -6   0   3 4676.34 522.841   6
  -6   0   3 5656.90 557.746   9
  -6   0   4 8539.46 734.844   6
  -6   0   4 8838.77 720.343   9
  -6   0   5 313.038 253.691   9
  -6   0   5-154.830 252.978   6
  -6   0   6 3150.70 484.419   6
  -6   0   6 3005.39 447.868   9
  -6   0   7 330.886 185.166   9
  -6   0   7 682.120 306.795   6
  -6   0   8 625.219 270.064   9
  -6   0   8 29.1427 247.907   6
  -6   0   9 2717.69 485.729   9
  -6   0  10 126.583 193.612   9
  -6   0  11 345.634 182.551   3
  -6   0  11 1215.44 425.086   9
  -6   0  12-64.0510 185.547   3
  -6   0  12 308.771 222.885   9
  -6   0  13 329.757 259.833   3
  -6   0  13 257.771 249.577   9
  -6   0  14 432.988 294.737   9
  -6   0  15-24.9404 268.312   9
  -6   0  16 490.862 348.362   9
  -6   1 -10 137.891 388.870   4
  -6   1  -9 498.211 419.770   4
  -6   1  -8 2262.68 636.860   4
  -6   1  -7 370.180 320.857   4
  -6   1  -6 83.9755 283.927   9
  -6   1  -6 455.226 376.878   4
  -6   1  -5 366.278 347.619   4
  -6   1  -5 499.975 307.422   9
  -6   1  -4-102.696 171.214   9
  -6   1  -4-96.6827 253.020   4
  -6   1  -3 4189.93 613.553   4
  -6   1  -3 3693.56 522.790   9
  -6   1  -2 142.992 198.513   9
  -6   1  -2 667.121 320.245   4
  -6   1  -1 4417.52 571.922   4
  -6   1  -1 3887.75 495.394   9
  -6   1   0 5346.12 570.050   9
  -6   1   0 5298.95 584.129   4
  -6   1   1 1402.13 342.834   4
  -6   1   1 1811.67 361.633   9
  -6   1   1 1116.30 246.363   6
  -6   1   2 4309.35 501.696   9
  -6   1   2 4060.59 468.288   6
  -6   1   3 254.282 247.002   6
  -6   1   3-170.646 204.205   9
  -6   1   4 782.670 304.811   9
  -6   1   4 266.850 286.048   6
  -6   1   5 119.661 211.893   6
  -6   1   5 244.261 207.625   9
  -6   1   6 1395.88 322.424   9
  -6   1   6 1284.75 358.497   6
  -6   1   7 18.5561 233.503   9
  -6   1   7 573.119 308.912   6
  -6   1   8 1071.16 342.109   9
  -6   1   9 791.254 313.283   9
  -6   1  10 841.269 275.511   3
  -6   1  10 809.548 347.733   9
  -6   1  11 93.7842 243.602   9
  -6   1  11 72.4908 184.079   3
  -6   1  12-63.1556 241.970   9
  -6   1  13-137.650 214.094   9
  -6   1  14 462.598 354.952   9
  -6   1  15-306.340 277.999   9
  -6   1  16 391.849 373.971   9
  -6   2 -11 211.191 379.862   4
  -6   2 -10-30.0226 298.304   4
  -6   2  -9 1038.72 439.233   4
  -6   2  -8 366.577 340.603   4
  -6   2  -7 1012.76 428.932   4
  -6   2  -6 1724.84 419.637   9
  -6   2  -6 1722.39 484.189   4
  -6   2  -5 364.291 230.018   9
  -6   2  -5 613.646 357.774   4
  -6   2  -4 5.87675 177.752   9
  -6   2  -4 582.040 356.544   4
  -6   2  -3 1004.08 362.696   4
  -6   2  -3 530.749 247.271   9
  -6   2  -2 980.280 344.279   4
  -6   2  -2 556.879 230.142   9
  -6   2  -1 1167.05 358.258   4
  -6   2  -1 988.301 249.584   9
  -6   2   0 6140.31 538.274   6
  -6   2   0 6520.31 634.912   9
  -6   2   1 2061.29 324.239   6
  -6   2   1 1919.53 366.277   9
  -6   2   2 5837.38 529.871   6
  -6   2   2 5216.77 557.151   9
  -6   2   3 7072.44 635.521   9
  -6   2   3 6854.38 583.889   6
  -6   2   4 348.802 221.944   6
  -6   2   4 124.778 218.297   9
  -6   2   5 15815.4 967.724   9
  -6   2   5 14793.6 913.082   6
  -6   2   6 682.269 291.178   9
  -6   2   6 1045.95 327.926   6
  -6   2   7 9507.83 798.877   9
  -6   2   8 1624.88 384.441   9
  -6   2   9 1396.65 396.387   9
  -6   2   9 633.791 226.123   3
  -6   2  10 1013.09 269.931   3
  -6   2  10 1207.14 391.102   9
  -6   2  11 1212.92 371.245   9
  -6   2  12 2542.15 559.457   9
  -6   2  13 904.520 404.286   9
  -6   2  14 1015.71 462.182   9
  -6   2  15-286.202 282.710   9
  -6   3 -11 552.312 521.032   4
  -6   3 -10 618.913 415.862   4
  -6   3  -9 907.527 470.906   4
  -6   3  -8 43.3980 321.456   4
  -6   3  -7 3406.31 611.167   9
  -6   3  -7 4923.96 798.877   4
  -6   3  -6 315.194 315.916   4
  -6   3  -6-130.719 198.841   9
  -6   3  -5 513.455 316.939   4
  -6   3  -5 753.026 269.310   9
  -6   3  -4-64.5131 177.359   9
  -6   3  -4-46.4589 285.301   4
  -6   3  -3 904.968 273.924   9
  -6   3  -3 1453.94 436.275   4
  -6   3  -2 2243.71 414.109   9
  -6   3  -1 2313.21 390.679   9
  -6   3   0 11082.7 654.153   6
  -6   3   0 11492.7 800.227   9
  -6   3   1 3303.70 452.370   9
  -6   3   1 3101.58 386.070   6
  -6   3   2 6336.29 590.565   9
  -6   3   2 5638.27 482.696   6
  -6   3   3 496.577 195.596   6
  -6   3   3 676.740 300.466   9
  -6   3   4 18032.3 1010.53   9
  -6   3   4 16992.1 896.971   6
  -6   3   5 4357.85 527.546   9
  -6   3   6 9497.68 774.986   9
  -6   3   7 5415.73 639.625   9
  -6   3   8 107.045 200.958   9
  -6   3   9 950.418 339.943   9
  -6   3  10 1059.16 383.293   9
  -6   3  11 3079.19 577.908   9
  -6   3  12 281.916 283.029   9
  -6   3  13 1306.78 451.075   9
  -6   3  14 468.740 447.629   9
  -6   3  15 325.067 371.439   9
  -6   4 -12 951.806 549.154   2
  -6   4 -11 2041.00 677.958   2
  -6   4 -10 1067.47 521.803   2
  -6   4  -7 299.366 280.965   9
  -6   4  -6 5888.90 720.377   9
  -6   4  -5-69.6412 208.906   9
  -6   4  -4 347.506 203.678   9
  -6   4  -3 253.498 91.4200   8
  -6   4  -3 517.260 192.920   9
  -6   4  -2 3759.32 484.926   9
  -6   4  -1 6278.37 465.863   6
  -6   4  -1 6441.04 604.494   9
  -6   4   0 4060.93 486.740   9
  -6   4   0 3946.20 390.946   6
  -6   4   1 936.324 227.435   6
  -6   4   1 1140.40 324.532   9
  -6   4   2 4014.87 491.807   9
  -6   4   2 3910.72 413.718   6
  -6   4   3 2497.30 395.394   9
  -6   4   3 2853.71 378.185   6
  -6   4   4 382.236 233.737   9
  -6   4   5 4198.56 501.221   9
  -6   4   5 2946.65 260.975   2
  -6   4   6 247.808 220.943   9
  -6   4   7 351.901 261.877   9
  -6   4   8 1083.09 357.248   9
  -6   4   9 389.520 296.900   9
  -6   4  10 815.791 376.373   9
  -6   4  11 262.805 265.215   9
  -6   4  12 292.855 310.281   9
  -6   4  13 450.324 360.203   9
  -6   4  14 1048.62 435.355   9
  -6   5 -12 840.690 500.395   2
  -6   5 -11 31.5208 364.227   2
  -6   5 -10 240.510 415.203   2
  -6   5  -9 3017.68 698.792   2
  -6   5  -8 1167.03 478.708   2
  -6   5  -8 469.888 318.757   9
  -6   5  -7 2963.01 528.711   9
  -6   5  -6 597.113 270.637   9
  -6   5  -5 254.765 187.216   9
  -6   5  -4 694.070 272.003   9
  -6   5  -3 862.469 192.259   6
  -6   5  -3 409.544 188.878   9
  -6   5  -3 851.610 168.358   8
  -6   5  -2 359.195 190.575   9
  -6   5  -2 426.759 148.956   6
  -6   5  -1 796.509 267.282   9
  -6   5  -1 1009.61 185.697   6
  -6   5   0 417.495 156.704   6
  -6   5   0 364.545 178.325   9
  -6   5   1 1212.60 314.717   9
  -6   5   1 1455.03 337.073   2
  -6   5   1 959.638 225.233   6
  -6   5   2 162.876 177.639   9
  -6   5   2 469.685 238.568   2
  -6   5   3 386.409 270.624   9
  -6   5   3 611.148 205.567   2
  -6   5   4 517.279 136.980   2
  -6   5   4 925.301 306.776   9
  -6   5   5 945.379 309.967   9
  -6   5   5 502.535 102.830   2
  -6   5   6 466.733 254.295   9
  -6   5   7 2147.39 431.592   9
  -6   5   8 798.132 287.448   9
  -6   5   9 1714.63 402.038   9
  -6   5  10 671.690 352.607   9
  -6   5  11 795.640 360.503   9
  -6   5  12 1563.40 521.240   9
  -6   5  13-31.2878 253.980   9
  -6   5  14 1178.47 581.053   9
  -6   6 -12 673.321 509.103   2
  -6   6 -11 400.835 453.406   2
  -6   6 -10 913.085 533.114   2
  -6   6  -9 840.225 470.924   2
  -6   6  -8 398.328 267.113   9
  -6   6  -8-71.5771 341.421   2
  -6   6  -7 363.980 226.862   9
  -6   6  -7 536.158 340.956   2
  -6   6  -6 760.856 423.503   2
  -6   6  -6 483.513 241.547   9
  -6   6  -5 234.223 223.842   9
  -6   6  -5 1027.45 444.382   2
  -6   6  -4 3175.21 319.996   8
  -6   6  -4 2484.22 434.683   9
  -6   6  -4 3051.90 574.328   2
  -6   6  -3 3166.48 553.108   2
  -6   6  -3 2707.38 317.252   8
  -6   6  -3 2361.13 397.479   9
  -6   6  -2 1428.57 304.855   9
  -6   6  -2 1336.59 249.335   8
  -6   6  -2 1413.47 373.049   2
  -6   6  -1 12306.2 834.329   9
  -6   6  -1 11955.0 845.079   2
  -6   6   0 2777.34 387.381   9
  -6   6   0 3060.54 441.291   2
  -6   6   1 17681.9 886.237   2
  -6   6   1 16316.5 938.940   9
  -6   6   2 1230.45 295.906   9
  -6   6   2 360.737 194.741   2
  -6   6   3 12880.5 869.958   9
  -6   6   3 12510.1 637.892   2
  -6   6   4 115.536 201.410   9
  -6   6   4-22.7498 97.9931   2
  -6   6   5 6021.54 641.092   9
  -6   6   6 3162.14 498.413   9
  -6   6   7 3251.71 542.754   9
  -6   6   8 2668.87 507.111   9
  -6   6   9 2186.54 453.253   9
  -6   6  10 2067.73 486.741   9
  -6   6  11 600.714 350.684   9
  -6   6  12 649.762 369.056   9
  -6   6  13 1190.41 470.745   9
  -6   7 -12-660.837 415.201   2
  -6   7 -11 410.968 441.902   2
  -6   7 -10 529.487 402.469   2
  -6   7  -9-383.141 418.035   2
  -6   7  -8 466.552 284.944   9
  -6   7  -8 107.204 296.196   2
  -6   7  -7 569.730 290.448   9
  -6   7  -7 790.649 402.487   2
  -6   7  -6 418.720 334.051   2
  -6   7  -6 274.482 242.598   9
  -6   7  -5 2689.83 453.820   9
  -6   7  -5 4141.71 640.219   2
  -6   7  -4 1908.70 434.775   2
  -6   7  -4 1856.50 306.191   8
  -6   7  -4 1967.13 386.233   9
  -6   7  -3 2252.13 453.018   2
  -6   7  -3 2193.50 365.206   9
  -6   7  -3 2261.85 325.241   8
  -6   7  -2 6040.04 590.740   9
  -6   7  -2 6697.35 677.720   2
  -6   7  -2 5949.63 534.538   8
  -6   7  -1 2357.42 369.797   8
  -6   7  -1 2505.84 399.690   9
  -6   7  -1 2397.66 402.159   2
  -6   7   0 3782.83 459.333   9
  -6   7   0 3406.95 441.733   2
  -6   7   1 4069.54 493.076   9
  -6   7   1 4155.46 495.148   2
  -6   7   2 518.949 238.450   9
  -6   7   2 743.695 239.237   2
  -6   7   3 812.943 267.371   9
  -6   7   3 839.777 199.224   2
  -6   7   4 98.8347 185.203   9
  -6   7   5 2087.15 423.189   9
  -6   7   6 230.292 221.859   9
  -6   7   7 4994.73 652.964   9
  -6   7   8-76.5635 191.870   9
  -6   7   9 2468.21 532.899   9
  -6   7  10-122.208 242.457   9
  -6   7  11 190.434 278.923   9
  -6   7  12 1366.94 455.886   9
  -6   7  13 243.192 397.138   9
  -6   8 -11-841.201 530.853   2
  -6   8 -10 444.608 352.228   2
  -6   8  -9 1150.30 444.135   2
  -6   8  -8 513.427 306.240   9
  -6   8  -8 1145.58 440.747   2
  -6   8  -7-127.976 372.941   2
  -6   8  -7-46.8175 169.708   9
  -6   8  -6 2453.64 537.752   2
  -6   8  -6 2501.91 465.683   9
  -6   8  -5 1131.16 304.844   9
  -6   8  -5 757.078 359.006   2
  -6   8  -5 1001.79 234.771   8
  -6   8  -4 5043.54 564.145   9
  -6   8  -4 5308.55 653.586   2
  -6   8  -4 4429.81 475.192   8
  -6   8  -3 33.3802 246.555   2
  -6   8  -3 131.201 147.077   8
  -6   8  -3-84.3827 159.362   9
  -6   8  -2 1882.10 415.920   2
  -6   8  -2 1412.37 315.325   9
  -6   8  -2 1345.97 310.043   8
  -6   8  -1 328.176 197.902   9
  -6   8  -1 96.3350 161.008   8
  -6   8  -1 568.313 283.152   2
  -6   8   0 1477.12 309.891   9
  -6   8   0 1900.54 379.256   2
  -6   8   0 1754.39 371.040   8
  -6   8   1 141.962 152.165   9
  -6   8   1 178.883 164.226   8
  -6   8   1 257.400 236.696   2
  -6   8   2 306.738 193.336   9
  -6   8   2 170.800 170.129   2
  -6   8   3 407.251 172.377   2
  -6   8   3 288.895 208.414   9
  -6   8   4 1677.14 391.547   9
  -6   8   5-64.9646 186.258   9
  -6   8   6 270.271 197.472   9
  -6   8   7 396.339 277.833   9
  -6   8   8-61.1362 249.038   9
  -6   8   9 510.286 320.226   9
  -6   8  10 457.035 272.965   9
  -6   8  11-48.9645 281.749   9
  -6   8  12 1055.34 435.531   9
  -6   9 -11 791.726 424.291   2
  -6   9 -10 555.424 456.109   2
  -6   9  -9 1300.80 504.246   2
  -6   9  -8 147.308 292.130   2
  -6   9  -7-54.3392 177.158   9
  -6   9  -7 698.588 367.956   2
  -6   9  -6 1425.90 512.777   2
  -6   9  -6 650.577 235.749   9
  -6   9  -5 502.971 400.005   2
  -6   9  -5 130.451 175.862   8
  -6   9  -5 126.590 148.433   9
  -6   9  -4 472.024 238.571   8
  -6   9  -4 507.549 225.908   9
  -6   9  -4 861.787 379.565   2
  -6   9  -3-123.333 212.014   9
  -6   9  -3-68.8819 136.171   8
  -6   9  -3 383.949 355.620   2
  -6   9  -2 203.011 202.148   8
  -6   9  -2 58.2772 144.404   9
  -6   9  -2 485.980 344.217   2
  -6   9  -1 584.457 243.415   9
  -6   9  -1 201.229 187.303   8
  -6   9  -1 829.686 317.541   2
  -6   9   0 24.4793 155.681   8
  -6   9   0 2.08659 189.510   2
  -6   9   0 226.629 191.689   9
  -6   9   1-9.82977 153.328   8
  -6   9   1 113.434 178.265   2
  -6   9   1 153.756 173.614   9
  -6   9   2 1281.58 322.587   9
  -6   9   2 1107.45 434.216   8
  -6   9   2 730.818 221.765   2
  -6   9   3 4408.13 636.008   8
  -6   9   3 3991.62 523.271   9
  -6   9   4 601.804 265.285   9
  -6   9   4 179.292 178.237   8
  -6   9   5 2860.00 569.659   8
  -6   9   5 2012.29 404.963   9
  -6   9   6 467.683 255.290   9
  -6   9   7 327.623 241.099   9
  -6   9   8 414.855 304.896   9
  -6   9   9-348.964 306.388   9
  -6   9  10 197.350 251.423   9
  -6   9  10 476.246 319.493   8
  -6   9  11 574.600 280.964   9
  -6  10 -10 3045.99 696.553   2
  -6  10  -9 2462.14 652.017   2
  -6  10  -8 2869.49 666.788   2
  -6  10  -7 1758.11 529.453   2
  -6  10  -6 859.159 376.381   2
  -6  10  -5 1766.53 348.768   8
  -6  10  -5 1668.83 490.432   2
  -6  10  -4 256.770 211.763   8
  -6  10  -4 267.522 288.293   2
  -6  10  -3 4736.83 666.244   2
  -6  10  -3 5092.56 623.051   8
  -6  10  -2 495.634 279.979   8
  -6  10  -2 686.359 391.407   2
  -6  10  -1 4483.00 588.622   8
  -6  10  -1 4914.67 601.864   2
  -6  10   0 296.991 224.226   8
  -6  10   0-309.468 198.433   2
  -6  10   1 3654.94 569.854   8
  -6  10   1 2728.82 459.620   2
  -6  10   2 2775.54 495.359   8
  -6  10   3 3024.30 561.979   8
  -6  10   4 3280.46 597.346   8
  -6  10   5 1099.49 406.493   8
  -6  10   6 1389.12 428.174   8
  -6  10   7-162.316 264.863   8
  -6  10   8 184.281 349.275   8
  -6  10   9 448.239 324.523   8
  -6  11 -10 409.087 366.671   2
  -6  11  -9 1970.08 642.408   2
  -6  11  -8 2338.62 614.221   2
  -6  11  -7 2081.00 616.010   2
  -6  11  -6 1522.68 385.120   8
  -6  11  -6 2056.16 548.863   2
  -6  11  -5 713.174 368.146   2
  -6  11  -5 113.885 187.089   8
  -6  11  -4 843.352 327.788   8
  -6  11  -4 829.213 351.483   2
  -6  11  -3 286.347 242.803   8
  -6  11  -3 46.1769 253.400   2
  -6  11  -2 1280.13 395.317   2
  -6  11  -2 1678.70 419.061   8
  -6  11  -1 218.653 260.520   2
  -6  11  -1 110.159 286.209   8
  -6  11   0 499.964 298.897   8
  -6  11   0 47.0232 203.464   2
  -6  11   1 502.536 311.196   8
  -6  11   2 228.346 213.841   8
  -6  11   3 1180.10 413.511   8
  -6  11   4 284.606 254.081   8
  -6  11   5 462.053 337.222   8
  -6  11   6 662.760 334.895   8
  -6  11   7 856.014 362.235   8
  -6  12  -8 311.318 346.405   2
  -6  12  -7 173.606 310.519   2
  -6  12  -6 514.572 317.676   8
  -6  12  -6 23.1348 343.802   2
  -6  12  -5-269.589 380.570   2
  -6  12  -5 331.757 234.735   8
  -6  12  -4 1220.01 409.316   2
  -6  12  -4 395.581 298.165   8
  -6  12  -3 62.4641 319.933   8
  -6  12  -3-214.266 269.388   2
  -6  12  -2 1785.98 397.839   2
  -6  12  -2 1850.53 461.506   8
  -6  12  -1 353.341 327.354   8
  -6  12   0 1556.90 451.017   8
  -6  12   1 437.878 225.861   8
  -6  12   2 419.403 253.098   8
  -6  12   3-161.722 281.902   8
  -6  12   4 765.463 366.604   8
  -6  13  -7 409.893 326.551   2
  -6  13  -6 777.795 339.323   8
  -6  13  -6 506.152 427.008   2
  -6  13  -5-86.6853 210.826   8
  -6  13  -5 1012.47 432.359   2
  -6  13  -4 387.970 288.518   8
  -6  13  -4 622.792 400.594   2
  -6  13  -3 23.5534 219.494   8
  -6  13  -3-192.444 316.097   2
  -6  13  -2 86.8735 267.876   8
  -6  13  -1 1221.21 395.896   8
  -6  13   0 565.992 362.284   8
  -6  13   1 836.201 372.452   8
  -6  14  -6 155.594 276.095   8
  -6  14  -5 2444.82 590.765   8
  -6  14  -4 80.0774 248.821   8
  -5  -9   2-93.9646 330.044   6
  -5  -9   3 613.076 401.535   6
  -5  -9   4 254.903 376.631   6
  -5  -9   5 86.1147 317.411   6
  -5  -9   6 213.226 359.666   6
  -5  -9   7 1952.38 603.866   6
  -5  -9   8 273.799 370.310   6
  -5  -9   9-492.194 334.517   6
  -5  -9  10 141.061 273.680   6
  -5  -8  -1 117.711 265.482   4
  -5  -8   0 1247.42 454.821   4
  -5  -8   1 43.5750 241.544   4
  -5  -8   2 965.509 412.858   4
  -5  -8   3 345.773 293.735   6
  -5  -8   4 957.094 453.972   6
  -5  -8   5 1625.65 490.058   6
  -5  -8   6 3486.05 676.694   6
  -5  -8   7 2992.72 668.476   6
  -5  -8   8 1530.56 504.673   6
  -5  -8   9 3468.23 701.255   6
  -5  -8  10 303.111 358.937   6
  -5  -8  10 347.635 341.913   3
  -5  -8  11 3068.67 622.485   6
  -5  -8  11 3201.49 725.438   3
  -5  -8  12 248.802 312.574   6
  -5  -8  12-828.916 459.111   3
  -5  -7  -3-207.090 404.940   4
  -5  -7  -2-367.453 369.928   4
  -5  -7  -1 1635.37 558.388   4
  -5  -7   0-912.241 401.344   4
  -5  -7   1 871.060 370.238   4
  -5  -7   2 427.996 320.859   4
  -5  -7   3-154.618 276.342   6
  -5  -7   3 567.626 332.257   4
  -5  -7   4-155.784 308.338   6
  -5  -7   5 863.585 382.070   6
  -5  -7   6 751.148 434.512   6
  -5  -7   7 1203.22 466.240   6
  -5  -7   8 552.934 329.219   6
  -5  -7   9 392.402 412.244   6
  -5  -7  10 408.625 358.174   6
  -5  -7  11 486.549 379.774   6
  -5  -7  11-40.9611 267.880   3
  -5  -7  12 413.679 353.736   3
  -5  -7  12 532.247 378.507   6
  -5  -7  13 449.650 366.748   3
  -5  -6  -4 416.733 395.916   4
  -5  -6  -3 74.9990 296.373   4
  -5  -6  -2 1436.76 489.153   4
  -5  -6  -1 261.112 287.232   4
  -5  -6   0 588.943 277.843   4
  -5  -6   1 81.2205 222.750   4
  -5  -6   2 133.622 219.595   4
  -5  -6   3-136.519 317.935   6
  -5  -6   3 376.392 249.157   4
  -5  -6   4 174.501 178.342   4
  -5  -6   4 375.110 301.254   6
  -5  -6   5 403.467 346.926   6
  -5  -6   6 1364.68 427.479   6
  -5  -6   7 1276.38 432.300   6
  -5  -6   8 1616.82 471.197   6
  -5  -6   9-48.7947 288.163   6
  -5  -6  10 25.6383 295.281   6
  -5  -6  11 744.130 384.412   6
  -5  -6  11 548.042 362.602   3
  -5  -6  12 1680.35 529.214   3
  -5  -6  12 1755.52 503.020   6
  -5  -6  13 145.946 269.959   3
  -5  -6  14 3036.47 746.342   3
  -5  -6  15 751.354 450.219   3
  -5  -5  -6 962.879 532.446   4
  -5  -5  -5 1075.29 423.659   4
  -5  -5  -4 1128.16 455.210   4
  -5  -5  -3-375.354 345.475   4
  -5  -5  -2 2819.92 569.140   4
  -5  -5  -1-343.665 324.125   4
  -5  -5   0 293.500 285.216   4
  -5  -5   1 2475.02 459.290   4
  -5  -5   2-308.337 271.617   4
  -5  -5   3 7147.05 783.503   6
  -5  -5   3 6358.57 634.060   4
  -5  -5   4 269.925 248.287   6
  -5  -5   4 5.16852 190.062   4
  -5  -5   5 807.401 205.548   4
  -5  -5   5 1289.10 383.657   6
  -5  -5   6 2940.79 554.600   6
  -5  -5   7 371.527 374.589   6
  -5  -5   8 2459.13 526.454   6
  -5  -5   9 872.999 433.550   6
  -5  -5  10 197.432 335.986   6
  -5  -5  11 246.700 249.317   3
  -5  -5  11 509.085 353.846   6
  -5  -5  12 393.118 321.333   3
  -5  -5  13 1199.30 465.182   3
  -5  -5  14 233.016 340.246   3
  -5  -5  15 305.559 381.894   3
  -5  -5  16 531.848 402.028   3
  -5  -4  -7 540.628 468.324   4
  -5  -4  -6 1763.40 586.667   4
  -5  -4  -5 1132.47 427.089   4
  -5  -4  -4 1340.51 400.040   4
  -5  -4  -3 998.752 419.361   4
  -5  -4  -2 476.182 302.211   4
  -5  -4  -1 135.297 279.917   4
  -5  -4  -1-116.268 147.841   9
  -5  -4   0 4209.85 494.200   9
  -5  -4   0 4424.91 605.164   4
  -5  -4   1 5154.51 606.054   4
  -5  -4   1 5952.89 555.263   9
  -5  -4   2 7920.03 597.493   9
  -5  -4   2 7205.80 663.809   4
  -5  -4   3 4456.60 489.080   4
  -5  -4   3 4687.18 602.319   6
  -5  -4   3 4688.91 441.759   9
  -5  -4   4 2362.95 470.112   6
  -5  -4   4 2201.88 306.222   9
  -5  -4   4 2007.82 328.556   4
  -5  -4   5 3972.21 407.931   9
  -5  -4   5 3941.09 566.625   6
  -5  -4   5 3700.51 387.438   4
  -5  -4   6 644.017 202.371   9
  -5  -4   6 1394.00 391.708   6
  -5  -4   7 5687.26 523.062   9
  -5  -4   7 6637.82 745.017   6
  -5  -4   8 416.087 365.514   6
  -5  -4   8 210.466 165.890   9
  -5  -4   9 3063.71 418.604   9
  -5  -4   9 3552.40 581.423   6
  -5  -4  10 436.767 211.923   9
  -5  -4  10 627.755 334.746   6
  -5  -4  11 324.045 227.663   9
  -5  -4  11 287.061 267.658   3
  -5  -4  11 670.087 426.948   6
  -5  -4  12 719.011 299.840   9
  -5  -4  12 1129.03 427.883   3
  -5  -4  13 166.907 241.520   3
  -5  -4  13 222.260 258.008   9
  -5  -4  14 1520.93 473.876   3
  -5  -4  14 2702.15 544.211   9
  -5  -4  15 466.056 373.638   3
  -5  -4  15 273.748 290.476   9
  -5  -4  16 397.082 300.894   3
  -5  -3  -8 1019.40 515.591   4
  -5  -3  -7 774.567 465.856   4
  -5  -3  -6 600.395 453.908   4
  -5  -3  -5 1371.74 411.209   4
  -5  -3  -4 430.031 316.413   4
  -5  -3  -3 48.8498 216.501   4
  -5  -3  -2 940.510 325.204   4
  -5  -3  -2 804.247 313.805   9
  -5  -3  -1-18.5530 202.616   4
  -5  -3  -1 349.042 224.805   9
  -5  -3   0 133.845 141.191   9
  -5  -3   0-361.747 183.861   4
  -5  -3   1 2933.26 393.174   9
  -5  -3   1 3753.09 494.311   4
  -5  -3   2 309.527 181.316   4
  -5  -3   2 199.538 137.921   9
  -5  -3   3 98.6354 160.403   9
  -5  -3   3 55.3009 162.816   4
  -5  -3   3-74.1619 232.751   6
  -5  -3   4 965.877 264.940   9
  -5  -3   4 310.016 176.055   4
  -5  -3   4 537.204 272.293   6
  -5  -3   5 5386.02 616.359   6
  -5  -3   5 5536.42 503.325   9
  -5  -3   5 4852.17 404.461   4
  -5  -3   6 474.317 144.450   4
  -5  -3   6 612.455 234.078   9
  -5  -3   6 767.425 313.389   6
  -5  -3   7 2085.05 450.614   6
  -5  -3   7 2191.15 354.503   9
  -5  -3   8 215.197 249.756   6
  -5  -3   8 655.552 238.486   9
  -5  -3   9 732.339 356.349   6
  -5  -3   9 518.783 240.275   9
  -5  -3  10 2385.63 526.902   6
  -5  -3  10 2339.89 413.449   9
  -5  -3  11 1379.39 344.652   9
  -5  -3  11 1346.14 387.658   3
  -5  -3  12 636.816 296.759   9
  -5  -3  12 617.857 311.385   3
  -5  -3  13 2.38523 275.566   3
  -5  -3  13-167.249 211.239   9
  -5  -3  14 104.000 205.194   9
  -5  -3  14 93.4335 266.959   3
  -5  -3  15 100.006 249.691   3
  -5  -3  15 531.430 328.963   9
  -5  -3  16 247.939 284.328   9
  -5  -3  16 55.2339 272.928   3
  -5  -3  17 1591.26 477.928   9
  -5  -2  -9-251.835 306.452   4
  -5  -2  -8 414.471 410.667   4
  -5  -2  -7 467.574 370.922   4
  -5  -2  -6 1835.11 537.206   4
  -5  -2  -5 112.409 261.456   4
  -5  -2  -4 421.624 263.692   4
  -5  -2  -3 699.393 322.377   4
  -5  -2  -3 214.560 197.046   9
  -5  -2  -2 784.148 298.388   9
  -5  -2  -2 413.293 245.979   4
  -5  -2  -1 477.979 217.672   9
  -5  -2  -1 379.086 312.816   4
  -5  -2   0 1110.05 300.312   4
  -5  -2   0 892.059 262.863   9
  -5  -2   1 157.795 202.661   4
  -5  -2   1 118.050 201.171   9
  -5  -2   2 762.225 200.736   9
  -5  -2   2 1024.48 265.798   4
  -5  -2   3 4441.45 462.437   9
  -5  -2   3 3934.00 413.064   4
  -5  -2   3 4060.52 524.509   6
  -5  -2   4 185.196 266.146   6
  -5  -2   4 497.435 205.576   4
  -5  -2   4 65.9257 51.7885   5
  -5  -2   4 7.65016 136.524   9
  -5  -2   5 3885.19 331.058   4
  -5  -2   5 4333.88 461.300   9
  -5  -2   5 3883.25 530.247   6
  -5  -2   6 800.015 265.071   9
  -5  -2   6 784.802 318.862   6
  -5  -2   7 2623.61 476.281   6
  -5  -2   7 2606.66 390.362   9
  -5  -2   8 7588.14 656.843   9
  -5  -2   8 7726.41 768.389   6
  -5  -2   9 1068.72 339.855   6
  -5  -2   9 1106.35 293.412   9
  -5  -2  10 8226.94 757.887   9
  -5  -2  10 8115.88 786.578   3
  -5  -2  11 1736.98 387.625   9
  -5  -2  11 1717.20 411.136   3
  -5  -2  12 2790.60 511.545   9
  -5  -2  12 1765.17 430.205   3
  -5  -2  13 393.683 277.503   3
  -5  -2  13 397.512 290.252   9
  -5  -2  14 1434.09 445.227   3
  -5  -2  14 703.680 357.360   9
  -5  -2  15 204.626 221.904   3
  -5  -2  15 759.016 344.951   9
  -5  -2  16 982.763 402.730   9
  -5  -2  17-34.1971 252.028   9
  -5  -1 -10 1127.39 502.421   4
  -5  -1  -9 260.003 392.345   4
  -5  -1  -8 2400.91 634.146   4
  -5  -1  -7 1192.84 449.923   4
  -5  -1  -6 5158.66 769.620   4
  -5  -1  -5 3406.23 597.961   4
  -5  -1  -4 987.264 373.926   4
  -5  -1  -4 274.471 253.445   9
  -5  -1  -3 8739.84 770.712   9
  -5  -1  -3 8752.73 839.880   4
  -5  -1  -2 773.728 275.759   9
  -5  -1  -2 982.169 329.608   4
  -5  -1  -1 7757.52 707.251   4
  -5  -1  -1 6163.22 589.291   9
  -5  -1   0 1003.03 265.919   9
  -5  -1   0 1016.59 321.656   4
  -5  -1   1 1119.50 297.714   4
  -5  -1   1 746.099 212.959   9
  -5  -1   2 3226.79 393.442   4
  -5  -1   2 3237.14 402.410   9
  -5  -1   3 2180.25 371.187   6
  -5  -1   3 1478.50 273.125   9
  -5  -1   3 1255.60 249.425   4
  -5  -1   4 9067.90 652.768   9
  -5  -1   4 8721.39 508.617   4
  -5  -1   4 8836.72 707.198   6
  -5  -1   5 7627.06 594.653   9
  -5  -1   5 7488.26 678.257   6
  -5  -1   6 12880.9 806.613   9
  -5  -1   6 13210.3 885.503   6
  -5  -1   7 475.893 204.586   9
  -5  -1   7 155.815 291.371   6
  -5  -1   8 6216.58 623.697   9
  -5  -1   8 6844.97 731.673   6
  -5  -1   9 2976.73 479.427   9
  -5  -1  10 988.505 288.109   3
  -5  -1  10 1067.29 316.451   9
  -5  -1  11 100.655 203.774   9
  -5  -1  11 360.951 260.637   3
  -5  -1  12 277.845 229.192   3
  -5  -1  12 308.988 201.661   9
  -5  -1  13-85.4027 210.626   3
  -5  -1  13 167.814 285.840   9
  -5  -1  14 1076.13 347.812   3
  -5  -1  14 1306.04 406.450   9
  -5  -1  15 278.029 320.085   9
  -5  -1  16 518.448 386.970   9
  -5   0 -11-117.299 327.482   4
  -5   0 -10 561.051 361.627   4
  -5   0  -9 645.124 388.272   4
  -5   0  -8 1123.79 415.589   4
  -5   0  -7 2001.15 552.942   4
  -5   0  -6 2720.83 564.669   4
  -5   0  -5 3168.22 517.534   9
  -5   0  -5 3157.23 578.851   4
  -5   0  -4 6342.56 672.547   9
  -5   0  -4 7735.58 800.759   4
  -5   0  -3 13563.1 931.817   9
  -5   0  -3 14092.9 987.368   4
  -5   0  -2 14197.8 939.254   4
  -5   0  -2 11590.3 800.982   9
  -5   0  -1 5252.60 543.488   9
  -5   0  -1 5717.25 621.721   4
  -5   0   0 5895.36 549.884   9
  -5   0   0 5870.49 546.411   4
  -5   0   1 9989.75 669.716   4
  -5   0   1 9914.48 662.176   9
  -5   0   2-61.2917 164.803   6
  -5   0   2 137.723 142.423   9
  -5   0   3 8299.89 648.222   6
  -5   0   3 7804.02 586.633   9
  -5   0   3 7508.61 503.352   4
  -5   0   4 4700.51 461.182   9
  -5   0   4 4739.17 529.747   6
  -5   0   5 6779.24 561.224   9
  -5   0   5 7394.94 635.668   6
  -5   0   6 201.710 209.265   6
  -5   0   6 546.312 229.072   9
  -5   0   7 1538.36 339.699   6
  -5   0   7 1512.88 336.726   9
  -5   0   8 5945.46 629.291   9
  -5   0   9 616.702 279.124   9
  -5   0  10 1155.26 353.478   9
  -5   0  10 959.666 276.415   3
  -5   0  11 958.252 334.352   9
  -5   0  11 608.655 231.980   3
  -5   0  12 145.751 251.242   9
  -5   0  12 446.045 281.837   3
  -5   0  13 336.437 307.398   9
  -5   0  13-59.5318 212.904   3
  -5   0  14 419.695 274.175   9
  -5   0  15 183.404 255.500   9
  -5   0  16 388.575 315.871   9
  -5   1 -12-14.0221 315.574   4
  -5   1 -11-346.321 387.330   4
  -5   1 -10-149.594 302.758   4
  -5   1  -9-74.1749 299.059   4
  -5   1  -8 3714.73 676.307   4
  -5   1  -7-145.295 281.745   4
  -5   1  -6 66.3151 218.336   9
  -5   1  -6-9.21878 244.624   4
  -5   1  -5 60.0496 234.077   4
  -5   1  -5 116.382 189.306   9
  -5   1  -4 2763.97 462.801   9
  -5   1  -4 4147.88 590.206   4
  -5   1  -3 255.540 281.169   4
  -5   1  -3 321.328 213.822   9
  -5   1  -2-514.141 240.359   9
  -5   1  -2-130.369 217.964   4
  -5   1  -1-1.60503 152.363   9
  -5   1  -1 348.951 210.241   4
  -5   1   0 2522.04 361.837   9
  -5   1   0 2807.14 393.572   4
  -5   1   1 10104.6 651.981   6
  -5   1   1 11977.7 722.681   9
  -5   1   1 12102.3 733.384   4
  -5   1   2 11998.7 720.699   9
  -5   1   2 10568.8 660.079   6
  -5   1   3-31.4395 169.626   6
  -5   1   3-201.888 173.777   9
  -5   1   4 649.770 198.565   6
  -5   1   4 1273.53 273.177   9
  -5   1   5 2998.85 434.285   9
  -5   1   5 3255.85 415.810   6
  -5   1   6 5520.57 553.973   9
  -5   1   6 4794.82 537.411   6
  -5   1   7 195.233 205.857   9
  -5   1   8 4419.03 562.540   9
  -5   1   9-157.982 178.853   9
  -5   1   9 52.0556 164.362   3
  -5   1  10 1025.05 270.025   3
  -5   1  10 883.591 290.045   9
  -5   1  11 1997.60 368.829   3
  -5   1  11 2119.82 462.630   9
  -5   1  12 226.645 251.708   9
  -5   1  13 4349.17 702.395   9
  -5   1  14 271.134 293.442   9
  -5   1  15 352.292 345.650   9
  -5   1  16 806.813 391.158   9
  -5   2 -12 1025.48 517.074   4
  -5   2 -11 211.377 360.090   4
  -5   2 -10-138.283 357.303   4
  -5   2  -9 661.411 382.190   4
  -5   2  -8 305.686 285.973   4
  -5   2  -7 408.690 368.435   4
  -5   2  -6 792.128 313.051   9
  -5   2  -6 911.313 325.874   4
  -5   2  -5-4.62501 222.540   4
  -5   2  -5-246.673 210.583   9
  -5   2  -4 82.2197 284.102   4
  -5   2  -4 104.569 168.771   9
  -5   2  -3 221.607 233.532   9
  -5   2  -3 1034.00 354.356   4
  -5   2  -2 548.828 284.743   4
  -5   2  -2 397.559 207.945   9
  -5   2  -1 10995.4 717.213   9
  -5   2  -1 11743.8 797.267   4
  -5   2   0 4280.88 469.044   9
  -5   2   1 8441.14 621.355   9
  -5   2   1 8373.81 555.236   6
  -5   2   2 648.517 228.205   9
  -5   2   2 524.467 212.980   6
  -5   2   3 2796.90 370.416   9
  -5   2   3 2770.72 347.504   6
  -5   2   4 24156.4 1045.38   9
  -5   2   4 21763.2 964.725   6
  -5   2   5 3832.59 442.982   6
  -5   2   5 4359.67 485.024   9
  -5   2   6 16102.1 951.952   9
  -5   2   6 10167.7 371.490   2
  -5   2   7 4716.51 564.670   9
  -5   2   8 5095.08 622.370   9
  -5   2   8 3984.26 398.243   3
  -5   2   9 156.599 154.473   3
  -5   2   9 354.713 269.526   9
  -5   2  10 1874.14 305.684   3
  -5   2  10 2646.14 490.889   9
  -5   2  11 210.323 231.747   9
  -5   2  12 7415.63 868.000   9
  -5   2  13 1310.26 479.128   9
  -5   2  14 1098.20 456.121   9
  -5   2  15 954.949 547.985   9
  -5   3 -13-195.932 335.920   4
  -5   3 -13 839.452 528.914   2
  -5   3 -12 2460.84 669.578   2
  -5   3 -12 2319.50 698.692   4
  -5   3 -11 686.545 457.029   4
  -5   3 -11 2415.67 636.874   2
  -5   3 -10 1997.77 563.364   4
  -5   3  -9 1834.34 530.287   4
  -5   3  -8 477.173 333.424   4
  -5   3  -7 2977.52 545.993   9
  -5   3  -7 3028.83 595.064   4
  -5   3  -6 205.805 311.313   4
  -5   3  -6 274.063 208.055   9
  -5   3  -5 3149.53 518.131   4
  -5   3  -5 3021.63 500.067   9
  -5   3  -4 53.9622 240.013   4
  -5   3  -4 329.032 204.949   9
  -5   3  -3 1727.64 391.863   4
  -5   3  -3 1809.43 334.299   9
  -5   3  -3 1256.04 132.551   8
  -5   3  -2 4326.68 469.508   9
  -5   3  -1 12361.4 762.236   9
  -5   3   0 29375.4 919.009   6
  -5   3   0 30629.6 1158.66   9
  -5   3   1 2904.55 327.867   6
  -5   3   1 3209.86 380.693   9
  -5   3   2 5828.84 528.886   9
  -5   3   2 5754.15 429.275   6
  -5   3   3 1622.89 286.094   6
  -5   3   3 1409.69 300.474   9
  -5   3   4 1038.41 249.431   9
  -5   3   5 3480.28 452.494   9
  -5   3   6 3280.52 456.012   9
  -5   3   7 128.524 188.822   9
  -5   3   7-96.4570 115.757   3
  -5   3   8 588.365 320.216   9
  -5   3   8 246.696 140.173   3
  -5   3   9 961.914 332.511   9
  -5   3  10 32.5208 230.386   9
  -5   3  11 2029.59 475.323   9
  -5   3  12-100.431 212.023   9
  -5   3  13 712.847 381.842   9
  -5   3  14 442.818 304.388   9
  -5   3  15 488.454 397.841   9
  -5   4 -13 2076.54 590.455   2
  -5   4 -12 1029.61 482.053   2
  -5   4 -11 1673.06 592.403   2
  -5   4 -10 2187.66 575.883   2
  -5   4  -9 877.206 383.646   2
  -5   4  -7 2449.30 451.371   9
  -5   4  -6 1787.27 392.414   9
  -5   4  -5 1446.33 365.129   9
  -5   4  -4 528.520 245.209   9
  -5   4  -4 112.619 60.2725   8
  -5   4  -3 2554.99 226.940   8
  -5   4  -3 2826.45 402.663   9
  -5   4  -2 1365.48 284.133   9
  -5   4  -1 14064.7 560.713   6
  -5   4  -1 14836.1 818.970   9
  -5   4   0 407.662 151.900   6
  -5   4   0 802.021 231.660   9
  -5   4   1 5857.77 512.231   9
  -5   4   1 5555.28 399.609   6
  -5   4   2 1187.27 252.660   9
  -5   4   3 645.293 162.611   2
  -5   4   3 750.935 230.397   9
  -5   4   4 4985.05 294.056   2
  -5   4   4 5072.73 518.155   9
  -5   4   5 968.812 307.920   9
  -5   4   6-26.3664 59.7465   3
  -5   4   6-73.7853 187.633   9
  -5   4   7 359.729 256.950   9
  -5   4   8 814.779 288.678   9
  -5   4   9 382.826 251.324   9
  -5   4  10-141.003 222.023   9
  -5   4  11 624.286 322.628   9
  -5   4  12 118.526 255.419   9
  -5   4  13 1325.35 432.391   9
  -5   4  14 669.334 366.375   9
  -5   5 -13 109.829 338.718   2
  -5   5 -12 968.556 467.027   2
  -5   5 -11 453.154 389.360   2
  -5   5 -10 513.205 387.415   2
  -5   5  -9 736.072 461.412   2
  -5   5  -8 1019.58 393.223   2
  -5   5  -7 139.266 196.613   9
  -5   5  -7 986.782 382.264   2
  -5   5  -6 3006.42 541.680   2
  -5   5  -6 2375.04 435.130   9
  -5   5  -5 760.445 132.668   8
  -5   5  -5 676.336 254.238   9
  -5   5  -5 1498.16 473.812   2
  -5   5  -4 9188.49 456.763   8
  -5   5  -4 10791.8 882.065   2
  -5   5  -4 9154.98 736.726   9
  -5   5  -3 5153.95 524.966   9
  -5   5  -3 4634.67 286.937   6
  -5   5  -3 5787.68 628.240   2
  -5   5  -3 4945.37 375.360   8
  -5   5  -2 5142.18 402.008   8
  -5   5  -2 4675.11 470.694   9
  -5   5  -2 5068.16 286.202   6
  -5   5  -2 5412.55 612.089   2
  -5   5  -1 133.952 90.9417   6
  -5   5  -1 28.8561 168.107   9
  -5   5   0 320.386 154.416   9
  -5   5   0 258.321 255.335   2
  -5   5   1 82.9061 167.320   9
  -5   5   1 241.713 205.787   2
  -5   5   2 13151.5 646.848   2
  -5   5   2 12967.6 785.317   9
  -5   5   3 342.637 157.096   2
  -5   5   3-126.172 186.097   9
  -5   5   4 9053.62 388.649   2
  -5   5   4 6693.49 262.674   3
  -5   5   4 8939.42 686.728   9
  -5   5   5 2224.68 404.386   9
  -5   5   6 1960.77 380.200   9
  -5   5   7 14511.5 1007.70   9
  -5   5   8 146.221 173.752   9
  -5   5   9 5562.11 695.412   9
  -5   5  10-116.248 214.499   9
  -5   5  11 285.947 302.577   9
  -5   5  12 935.336 403.165   9
  -5   5  13 719.787 385.121   9
  -5   5  14 503.678 264.999   9
  -5   6 -13 266.310 316.773   2
  -5   6 -12-141.707 367.045   2
  -5   6 -11 42.3215 302.639   2
  -5   6 -10 428.443 365.658   2
  -5   6  -9 907.177 409.895   2
  -5   6  -8 157.719 299.817   2
  -5   6  -7 782.996 393.284   2
  -5   6  -7 651.371 266.168   9
  -5   6  -6 336.655 281.651   2
  -5   6  -6 162.577 179.177   9
  -5   6  -5 9698.01 775.688   9
  -5   6  -5 9503.33 525.205   8
  -5   6  -5 10685.0 909.747   2
  -5   6  -4 205.701 157.604   9
  -5   6  -4 346.245 147.278   8
  -5   6  -4 546.922 274.792   2
  -5   6  -3 13025.2 685.230   8
  -5   6  -3 12474.1 787.258   9
  -5   6  -3 13284.1 901.150   2
  -5   6  -2 1507.68 353.581   2
  -5   6  -2 921.308 212.118   8
  -5   6  -2 1073.37 243.026   9
  -5   6  -1 4723.71 455.919   8
  -5   6  -1 4617.62 454.505   9
  -5   6  -1 4215.16 494.600   2
  -5   6   0 7857.78 607.160   2
  -5   6   0 8899.74 626.352   9
  -5   6   1 5250.93 499.444   9
  -5   6   1 6111.13 515.612   2
  -5   6   2 3817.60 374.572   2
  -5   6   2 3418.62 431.838   9
  -5   6   3 7035.45 441.065   2
  -5   6   3 6600.07 592.842   9
  -5   6   4 1511.13 317.195   9
  -5   6   5 336.483 216.595   9
  -5   6   6 6088.98 649.288   9
  -5   6   7 1003.69 324.772   9
  -5   6   8 6063.73 739.232   9
  -5   6   9 2181.96 508.603   9
  -5   6  10 812.101 443.377   9
  -5   6  11 1964.34 537.744   9
  -5   6  12-91.5557 266.781   9
  -5   6  13 1173.06 469.319   9
  -5   7 -13-23.5784 397.582   2
  -5   7 -12 298.103 327.165   2
  -5   7 -11 2232.94 526.387   2
  -5   7 -10 158.081 340.309   2
  -5   7  -9 3772.03 648.473   2
  -5   7  -8 371.700 310.647   2
  -5   7  -7 2251.64 431.325   9
  -5   7  -7 2787.62 563.513   2
  -5   7  -6 5348.38 695.313   2
  -5   7  -6 4607.52 425.588   8
  -5   7  -6 4742.57 563.973   9
  -5   7  -5 3610.13 501.766   2
  -5   7  -5 3351.23 373.199   8
  -5   7  -5 3548.61 465.317   9
  -5   7  -4 6992.00 608.402   9
  -5   7  -4 7713.18 739.402   2
  -5   7  -4 7232.96 566.623   8
  -5   7  -3 1266.53 360.027   2
  -5   7  -3 1135.04 268.031   9
  -5   7  -3 1239.90 260.184   8
  -5   7  -2-15.7928 223.521   2
  -5   7  -2-8.91454 136.449   8
  -5   7  -2-5.86195 136.376   9
  -5   7  -1 210.362 269.078   2
  -5   7  -1 132.516 206.119   8
  -5   7  -1-6.74423 130.747   9
  -5   7   0 286.062 190.650   9
  -5   7   0 449.172 178.425   8
  -5   7   0 226.697 203.368   2
  -5   7   1 20.6506 136.477   9
  -5   7   1-12.3140 154.221   2
  -5   7   2 2088.57 346.027   9
  -5   7   2 2116.62 280.682   2
  -5   7   3 1631.44 329.621   9
  -5   7   3 1215.46 225.511   2
  -5   7   4 154.825 195.375   9
  -5   7   5 135.469 175.655   9
  -5   7   6 180.058 180.071   9
  -5   7   7 1370.42 375.533   9
  -5   7   8 300.486 206.194   9
  -5   7   9 8.18732 270.268   9
  -5   7  10 62.0499 237.782   9
  -5   7  11 641.907 430.474   9
  -5   7  12 439.220 318.552   9
  -5   7  13 226.707 317.870   9
  -5   8 -13 378.093 450.540   2
  -5   8 -12 1286.64 547.517   2
  -5   8 -11-661.211 502.029   2
  -5   8 -10 1074.69 417.044   2
  -5   8  -9-320.330 359.812   2
  -5   8  -8 714.633 387.980   2
  -5   8  -7 749.740 254.492   9
  -5   8  -7 633.251 371.017   2
  -5   8  -6 1203.20 314.759   9
  -5   8  -6 1294.77 431.432   2
  -5   8  -6 960.298 229.190   8
  -5   8  -5 3752.31 480.233   9
  -5   8  -5 4249.63 473.318   8
  -5   8  -5 5871.99 729.256   2
  -5   8  -4 620.001 359.236   2
  -5   8  -4 215.779 185.386   9
  -5   8  -4 155.029 170.699   8
  -5   8  -3 792.522 349.273   2
  -5   8  -3 600.419 176.504   9
  -5   8  -3 760.865 221.059   8
  -5   8  -2-82.7041 133.766   9
  -5   8  -2-131.128 176.278   8
  -5   8  -2-52.9483 200.664   2
  -5   8  -1 1073.60 240.595   9
  -5   8  -1 1925.45 386.470   2
  -5   8  -1 1102.41 293.914   8
  -5   8   0 1458.65 342.501   8
  -5   8   0 1450.17 264.303   9
  -5   8   0 1965.49 362.979   2
  -5   8   1-27.0643 124.941   9
  -5   8   1 163.831 227.753   8
  -5   8   1-53.1753 165.204   2
  -5   8   2 730.289 290.099   8
  -5   8   2 755.862 235.384   9
  -5   8   2 253.091 143.466   2
  -5   8   3 297.755 176.367   9
  -5   8   3 292.095 257.021   8
  -5   8   4 1366.37 333.678   9
  -5   8   5 176.814 177.343   9
  -5   8   6 93.4160 185.535   9
  -5   8   7 90.7390 181.029   9
  -5   8   8-415.910 246.091   9
  -5   8   9 981.358 403.993   9
  -5   8  10 435.530 232.601   9
  -5   8  11 830.446 385.694   9
  -5   8  12 300.296 386.538   9
  -5   8  12 937.406 462.946   8
  -5   9 -12 998.402 510.128   2
  -5   9 -11 405.006 427.714   2
  -5   9 -10 1539.09 509.958   2
  -5   9  -9 170.078 383.753   2
  -5   9  -8 1852.81 520.524   2
  -5   9  -7 320.383 339.060   2
  -5   9  -7 283.415 190.044   8
  -5   9  -6 343.995 402.881   2
  -5   9  -6-185.056 174.908   9
  -5   9  -6 63.4638 152.822   8
  -5   9  -5 115.644 151.303   9
  -5   9  -5 46.3260 126.970   8
  -5   9  -4 3721.12 423.152   9
  -5   9  -4 3541.71 483.848   8
  -5   9  -4 3634.58 621.949   2
  -5   9  -3 1.81401 144.879   9
  -5   9  -3 220.662 207.839   8
  -5   9  -3 322.241 296.711   2
  -5   9  -2 9855.62 798.045   8
  -5   9  -2 10461.7 672.303   9
  -5   9  -2 10096.8 834.972   2
  -5   9  -1 781.352 226.568   9
  -5   9  -1 908.778 279.991   8
  -5   9  -1 866.704 278.500   2
  -5   9   0 4344.13 573.694   8
  -5   9   0 4126.08 523.406   2
  -5   9   0 4178.61 451.006   9
  -5   9   1 3473.32 446.939   2
  -5   9   1 4425.64 600.585   8
  -5   9   1 4420.72 476.502   9
  -5   9   2 1601.09 345.107   9
  -5   9   2 941.087 299.385   8
  -5   9   3 9957.44 934.423   8
  -5   9   3 9388.55 733.988   9
  -5   9   4 719.835 330.235   8
  -5   9   4 342.059 234.017   9
  -5   9   5 1801.33 375.698   9
  -5   9   5 2247.46 478.480   8
  -5   9   6 298.304 297.340   8
  -5   9   6 610.764 253.993   9
  -5   9   7 1085.55 399.039   8
  -5   9   7 487.345 292.424   9
  -5   9   8 657.966 336.907   9
  -5   9   8 617.997 305.821   8
  -5   9   9 1037.93 419.603   9
  -5   9   9 1080.07 429.033   8
  -5   9  10 753.597 366.030   8
  -5  10 -11 782.748 478.121   2
  -5  10 -10 42.6735 392.641   2
  -5  10  -9 2399.62 621.545   2
  -5  10  -8 226.136 324.772   2
  -5  10  -7 474.804 258.042   8
  -5  10  -7 922.546 430.717   2
  -5  10  -6 93.1564 211.127   8
  -5  10  -6 963.750 436.527   2
  -5  10  -5 319.957 189.965   8
  -5  10  -5 465.105 356.403   2
  -5  10  -4 1724.95 390.917   8
  -5  10  -4 1380.73 402.367   2
  -5  10  -3 2655.99 490.552   2
  -5  10  -3 3813.18 551.275   8
  -5  10  -2 1938.76 426.063   2
  -5  10  -2 1749.99 409.235   8
  -5  10  -1 4461.37 620.384   8
  -5  10  -1 3750.27 541.943   2
  -5  10   0 3366.95 504.973   2
  -5  10   0 4136.37 594.027   8
  -5  10   1 134.224 197.714   8
  -5  10   2 6998.16 795.260   8
  -5  10   3 1443.75 442.576   8
  -5  10   4 2004.36 518.489   8
  -5  10   5-16.7311 251.927   8
  -5  10   6 111.657 244.610   8
  -5  10   7 558.538 312.225   8
  -5  10   8-302.924 280.443   8
  -5  10   9 513.994 377.134   8
  -5  11 -10 1257.86 466.630   2
  -5  11  -9 1227.44 542.123   2
  -5  11  -8 742.352 410.447   2
  -5  11  -7 674.416 295.063   8
  -5  11  -7 643.991 340.665   2
  -5  11  -6 374.669 385.718   2
  -5  11  -6-146.244 172.990   8
  -5  11  -5 133.999 222.783   8
  -5  11  -5 476.880 290.692   2
  -5  11  -4 389.767 259.994   8
  -5  11  -4 96.0170 243.635   2
  -5  11  -3 904.034 325.868   8
  -5  11  -3 993.133 374.301   2
  -5  11  -2 1396.02 363.081   8
  -5  11  -2 960.889 372.273   2
  -5  11  -1 76.2509 184.159   8
  -5  11   0 305.091 222.381   8
  -5  11   1 320.814 265.702   8
  -5  11   2 1419.55 401.181   8
  -5  11   3 804.134 341.556   8
  -5  11   4-76.2765 231.228   8
  -5  11   5 821.556 434.915   8
  -5  11   6 337.424 301.179   8
  -5  11   7 1322.92 454.953   8
  -5  12  -9 579.462 385.097   2
  -5  12  -8-121.063 287.559   2
  -5  12  -7-393.966 394.727   2
  -5  12  -7 198.394 202.134   8
  -5  12  -6 375.532 298.441   8
  -5  12  -6 137.928 273.965   2
  -5  12  -5-15.4744 212.900   8
  -5  12  -5 782.388 373.749   2
  -5  12  -4 75.6250 186.690   8
  -5  12  -4 413.614 352.951   2
  -5  12  -3 1387.34 440.858   2
  -5  12  -3 424.824 311.166   8
  -5  12  -2 769.656 332.068   8
  -5  12  -1 281.131 225.155   8
  -5  12   0 28.7116 210.254   8
  -5  12   1 133.342 295.954   8
  -5  12   2 420.419 323.707   8
  -5  12   3 71.6500 263.889   8
  -5  12   4 857.720 409.286   8
  -5  13  -7-374.869 337.796   2
  -5  13  -7-97.3866 202.460   8
  -5  13  -6 2587.42 562.043   8
  -5  13  -6 2748.90 643.389   2
  -5  13  -5-28.0814 320.930   2
  -5  13  -5 440.434 310.326   8
  -5  13  -4 313.034 273.965   8
  -5  13  -3 879.905 365.261   8
  -5  13  -2 173.187 245.316   8
  -5  13  -1 1950.92 533.001   8
  -5  13   0-15.0379 250.290   8
  -5  13   1 1243.41 456.231   8
  -4 -10   2-312.372 362.889   6
  -4 -10   3-630.346 377.489   6
  -4 -10   4-304.298 351.906   6
  -4 -10   5-48.9090 259.269   6
  -4 -10   6 1023.44 470.940   6
  -4 -10   8-311.651 302.159   3
  -4 -10   9-879.104 405.209   3
  -4  -9  -1 1186.92 509.858   4
  -4  -9   0 879.225 429.694   4
  -4  -9   1 526.842 362.052   4
  -4  -9   2 224.141 254.907   4
  -4  -9   3 792.738 322.950   4
  -4  -9   3 960.188 345.041   6
  -4  -9   4 141.685 260.938   6
  -4  -9   5 845.811 366.604   6
  -4  -9   6 3957.55 701.302   6
  -4  -9   7 1047.47 450.217   6
  -4  -9   8 3502.14 659.927   6
  -4  -9   9 605.966 366.034   6
  -4  -9   9 121.877 311.263   3
  -4  -9  10 1559.07 451.191   6
  -4  -9  10 1370.12 481.350   3
  -4  -9  11 2.96980 254.638   3
  -4  -8  -3 351.204 300.748   4
  -4  -8  -2 1236.13 500.074   4
  -4  -8  -1 920.931 411.724   4
  -4  -8   0 899.005 372.532   4
  -4  -8   1 879.339 358.014   4
  -4  -8   2 112.805 256.260   4
  -4  -8   3-320.338 262.894   6
  -4  -8   3-146.080 256.851   4
  -4  -8   4 48.9224 318.339   6
  -4  -8   4 365.631 275.102   4
  -4  -8   5 2035.57 505.189   6
  -4  -8   6 478.499 375.665   6
  -4  -8   7 1662.62 464.660   6
  -4  -8   8-114.981 246.505   6
  -4  -8   9 605.887 390.050   3
  -4  -8   9 339.459 339.245   6
  -4  -8  10 2198.28 542.718   6
  -4  -8  10 1927.24 601.945   3
  -4  -8  11 184.252 273.143   3
  -4  -8  11 295.828 355.493   6
  -4  -8  12 597.093 378.711   3
  -4  -8  12 852.626 422.745   6
  -4  -8  13 247.661 336.395   3
  -4  -7  -4-360.371 339.749   4
  -4  -7  -3 942.175 457.541   4
  -4  -7  -2 465.888 356.785   4
  -4  -7  -1 1092.70 367.933   4
  -4  -7   0 713.151 355.423   4
  -4  -7   1 2286.43 501.842   4
  -4  -7   2 907.621 346.388   4
  -4  -7   3 435.003 227.917   4
  -4  -7   4-107.614 282.585   6
  -4  -7   4-284.585 209.410   4
  -4  -7   5 1316.73 319.207   4
  -4  -7   5 1421.25 420.994   6
  -4  -7   6 1314.95 463.627   6
  -4  -7   7 1965.83 479.831   6
  -4  -7   8 279.214 291.990   6
  -4  -7   9 230.900 260.633   6
  -4  -7  10 1611.43 472.073   6
  -4  -7  10 583.780 398.128   3
  -4  -7  11 878.932 441.877   6
  -4  -7  11 110.305 305.995   3
  -4  -7  12 426.837 361.807   3
  -4  -7  13 1493.46 557.726   3
  -4  -7  14 989.398 487.172   3
  -4  -6  -6 399.481 350.192   4
  -4  -6  -5-169.259 273.380   4
  -4  -6  -4-490.649 366.739   4
  -4  -6  -3 2115.76 540.086   4
  -4  -6  -2 579.860 338.707   4
  -4  -6  -1 472.600 272.588   4
  -4  -6   0 502.833 288.064   4
  -4  -6   1 1698.54 423.043   4
  -4  -6   2 927.454 319.605   4
  -4  -6   3 398.340 216.842   4
  -4  -6   4 1297.43 307.807   4
  -4  -6   4 1602.04 404.739   6
  -4  -6   5 236.094 299.845   6
  -4  -6   5 225.847 165.505   4
  -4  -6   6 643.948 364.260   6
  -4  -6   7 1951.84 453.132   6
  -4  -6   8 210.479 286.542   6
  -4  -6   9 3518.03 572.023   6
  -4  -6  10 434.710 265.518   3
  -4  -6  10-184.882 236.991   6
  -4  -6  11 1638.78 491.527   3
  -4  -6  11 2838.60 569.722   6
  -4  -6  12 1589.83 503.648   3
  -4  -6  13 82.9021 276.234   3
  -4  -6  14 2430.43 609.282   3
  -4  -6  15 647.557 413.708   3
  -4  -5  -7 94.7289 327.659   4
  -4  -5  -6-206.555 413.784   4
  -4  -5  -5 364.357 263.898   4
  -4  -5  -4-541.529 314.775   4
  -4  -5  -3 4542.35 683.761   4
  -4  -5  -2-162.201 192.955   4
  -4  -5  -1 4487.85 621.469   4
  -4  -5   0 7526.57 744.575   4
  -4  -5   1 3513.99 379.426   9
  -4  -5   1 3639.61 510.874   4
  -4  -5   2 11791.9 829.568   4
  -4  -5   2 11713.8 629.416   9
  -4  -5   3 3277.68 318.862   9
  -4  -5   3 3274.80 428.341   4
  -4  -5   4 5005.85 490.532   4
  -4  -5   4 5403.46 633.535   6
  -4  -5   4 4992.84 374.476   9
  -4  -5   5 95.3042 155.137   4
  -4  -5   5 273.508 111.744   9
  -4  -5   6 2571.40 469.146   6
  -4  -5   6 2331.86 283.731   9
  -4  -5   6 2121.58 276.835   4
  -4  -5   7 753.445 327.124   6
  -4  -5   7 375.149 162.424   9
  -4  -5   8 8711.27 611.510   9
  -4  -5   8 11293.0 931.208   6
  -4  -5   9 529.767 211.681   9
  -4  -5   9 392.919 332.503   6
  -4  -5  10 3409.57 453.366   9
  -4  -5  10 4027.78 633.614   6
  -4  -5  10 3662.62 606.280   3
  -4  -5  11 728.969 346.845   3
  -4  -5  11 1074.14 324.696   9
  -4  -5  12 471.908 241.515   9
  -4  -5  12 152.170 278.416   3
  -4  -5  13 4240.36 720.727   3
  -4  -5  14 551.096 389.504   3
  -4  -5  15 1416.79 501.101   3
  -4  -5  16-159.714 310.607   3
  -4  -4  -8-5.61488 323.581   4
  -4  -4  -7 551.087 410.695   4
  -4  -4  -6 902.529 367.152   4
  -4  -4  -5 72.2674 263.304   4
  -4  -4  -4 3211.30 594.551   4
  -4  -4  -3 240.092 230.617   4
  -4  -4  -2 1533.84 363.014   4
  -4  -4  -1 555.548 270.188   4
  -4  -4  -1 702.549 231.397   9
  -4  -4   0 1557.91 365.622   4
  -4  -4   0 1166.03 263.977   9
  -4  -4   1 4356.61 435.673   9
  -4  -4   1 5732.93 590.090   4
  -4  -4   2 554.298 256.928   4
  -4  -4   2 749.255 191.845   9
  -4  -4   3 1582.53 243.636   9
  -4  -4   3 1686.35 309.704   4
  -4  -4   4 156.866 137.336   9
  -4  -4   4 68.6349 213.924   6
  -4  -4   4 354.813 199.830   4
  -4  -4   5 483.687 176.477   4
  -4  -4   5 513.774 151.726   9
  -4  -4   5 355.699 268.938   6
  -4  -4   6-131.691 108.879   9
  -4  -4   6 193.598 250.188   6
  -4  -4   6-249.205 126.595   4
  -4  -4   7-89.6000 129.392   9
  -4  -4   7 641.727 318.348   6
  -4  -4   8 201.411 165.832   9
  -4  -4   8 58.3968 243.408   6
  -4  -4   9 84.2458 136.992   9
  -4  -4   9 483.199 310.707   6
  -4  -4  10-279.288 180.591   9
  -4  -4  10 252.476 296.205   3
  -4  -4  10 329.575 273.532   6
  -4  -4  11 1550.50 354.264   9
  -4  -4  11 1350.17 389.194   3
  -4  -4  12-63.5269 241.765   3
  -4  -4  12 33.7973 177.159   9
  -4  -4  13 1311.95 364.289   9
  -4  -4  13 654.411 383.294   3
  -4  -4  14 655.994 317.408   9
  -4  -4  14 759.995 396.817   3
  -4  -4  15 639.201 330.249   3
  -4  -4  15 208.412 201.840   9
  -4  -4  16 571.417 330.430   9
  -4  -4  16 179.260 279.369   3
  -4  -4  17 449.374 309.489   3
  -4  -4  17 123.772 270.942   9
  -4  -3 -10 945.815 499.221   4
  -4  -3  -9 779.588 406.508   4
  -4  -3  -8 394.145 376.010   4
  -4  -3  -7 302.860 266.135   4
  -4  -3  -6 80.2647 238.423   4
  -4  -3  -5 3154.89 578.153   4
  -4  -3  -4 265.523 238.032   4
  -4  -3  -3 3505.02 533.005   4
  -4  -3  -2 591.162 235.437   9
  -4  -3  -2 478.016 238.771   4
  -4  -3  -1 881.463 289.019   4
  -4  -3  -1 1573.24 304.236   9
  -4  -3   0 191.368 202.623   4
  -4  -3   0 519.554 205.324   9
  -4  -3   1 1630.68 271.743   9
  -4  -3   1 1482.81 309.848   4
  -4  -3   2 1636.22 264.883   9
  -4  -3   2 2059.81 348.111   4
  -4  -3   3-19.8894 141.112   4
  -4  -3   3 66.5888 117.285   9
  -4  -3   3 29.4183 198.064   6
  -4  -3   4 6896.71 641.033   6
  -4  -3   4 6226.56 421.906   4
  -4  -3   4 7631.27 514.898   9
  -4  -3   5 908.280 165.911   4
  -4  -3   5 1250.14 255.666   9
  -4  -3   5 658.881 303.450   6
  -4  -3   6 2237.96 323.739   9
  -4  -3   6 1782.47 172.258   4
  -4  -3   6 2507.33 431.644   6
  -4  -3   7 2985.43 372.067   9
  -4  -3   7 3056.89 472.748   6
  -4  -3   8 724.352 241.999   9
  -4  -3   8 1032.48 375.882   6
  -4  -3   9 6595.19 605.120   9
  -4  -3   9 6925.93 721.063   6
  -4  -3  10-66.0350 217.069   3
  -4  -3  10 94.0316 188.199   9
  -4  -3  11 5057.44 663.903   3
  -4  -3  11 5196.32 613.149   9
  -4  -3  12 320.018 316.785   3
  -4  -3  12 207.755 189.032   9
  -4  -3  13 1181.65 377.465   3
  -4  -3  13 1069.07 376.445   9
  -4  -3  14 307.166 289.274   9
  -4  -3  14 300.624 280.630   3
  -4  -3  15 1897.49 494.281   9
  -4  -3  15 3499.38 659.131   3
  -4  -3  16 193.044 261.883   9
  -4  -3  16 1030.74 425.187   3
  -4  -3  17 2120.62 560.669   9
  -4  -2 -11 618.381 435.467   4
  -4  -2 -10 646.034 405.640   4
  -4  -2  -9 1476.50 491.916   4
  -4  -2  -8 1098.72 452.386   4
  -4  -2  -7 1614.67 442.048   4
  -4  -2  -6 631.877 352.961   4
  -4  -2  -5 813.839 341.345   4
  -4  -2  -4-312.430 270.343   4
  -4  -2  -3 475.718 237.599   9
  -4  -2  -3-0.61059 211.135   4
  -4  -2  -2 3852.28 471.063   9
  -4  -2  -2 3818.32 501.516   4
  -4  -2  -1 1195.58 289.323   9
  -4  -2  -1 742.073 222.967   4
  -4  -2   0 3901.43 402.166   9
  -4  -2   0 4042.91 452.934   4
  -4  -2   1 450.453 159.951   9
  -4  -2   1 548.009 185.740   4
  -4  -2   2 4295.91 393.122   9
  -4  -2   2 3713.31 367.955   4
  -4  -2   3 8059.15 530.823   9
  -4  -2   3 7198.47 459.232   4
  -4  -2   3 7565.92 609.668   6
  -4  -2   4 256.257 159.572   9
  -4  -2   4 339.265 121.224   4
  -4  -2   4 504.518 262.753   6
  -4  -2   5 9742.97 388.410   4
  -4  -2   5 11299.5 786.837   6
  -4  -2   5 11049.0 635.607   9
  -4  -2   6 321.120 204.672   9
  -4  -2   6 152.825 202.143   6
  -4  -2   7 3022.68 494.224   6
  -4  -2   7 2736.65 393.141   9
  -4  -2   8 5076.07 612.672   6
  -4  -2   8 4843.80 506.976   9
  -4  -2   9 1055.60 305.702   9
  -4  -2   9-118.587 203.190   3
  -4  -2  10 5258.79 616.240   9
  -4  -2  10 5510.82 633.159   3
  -4  -2  11 230.291 218.860   9
  -4  -2  11 4.45346 214.127   3
  -4  -2  12 1688.57 420.355   9
  -4  -2  12 1975.39 448.459   3
  -4  -2  13 393.660 296.699   3
  -4  -2  13 149.983 252.749   9
  -4  -2  14 191.032 200.659   9
  -4  -2  14 519.889 319.389   3
  -4  -2  15 517.896 294.580   3
  -4  -2  15 892.453 399.696   9
  -4  -2  16 495.894 320.207   9
  -4  -2  17 581.933 471.180   9
  -4  -1 -11 396.103 397.170   4
  -4  -1 -10 836.105 435.098   4
  -4  -1  -9 3345.20 643.321   4
  -4  -1  -8 843.126 403.582   4
  -4  -1  -7 5140.07 721.346   4
  -4  -1  -6 811.651 343.144   4
  -4  -1  -5 3261.80 552.849   4
  -4  -1  -4 10267.2 834.643   4
  -4  -1  -4 9338.91 755.154   9
  -4  -1  -3 2680.10 431.838   9
  -4  -1  -3 2354.43 429.319   4
  -4  -1  -2 7063.39 608.628   9
  -4  -1  -2 7892.71 651.131   4
  -4  -1  -1 3520.63 438.593   4
  -4  -1  -1 3748.63 429.447   9
  -4  -1   0 4243.93 433.145   4
  -4  -1   0 4311.96 432.914   9
  -4  -1   1 128.804 140.731   9
  -4  -1   1-102.079 120.556   4
  -4  -1   2 23297.4 836.585   4
  -4  -1   2 24410.4 914.036   9
  -4  -1   3 2274.17 183.610   5
  -4  -1   3 3037.29 290.694   4
  -4  -1   3 2358.71 330.395   6
  -4  -1   3 2353.11 296.151   9
  -4  -1   4 51083.3 1486.57   6
  -4  -1   4 51782.5 1333.39   9
  -4  -1   4 49968.7 954.223   4
  -4  -1   5 2054.05 320.127   9
  -4  -1   5 2199.67 359.788   6
  -4  -1   6 15233.9 897.614   6
  -4  -1   6 15266.8 838.612   9
  -4  -1   7 3364.18 417.994   9
  -4  -1   7 2411.76 441.580   6
  -4  -1   8 308.765 226.295   9
  -4  -1   9 5463.77 581.383   9
  -4  -1   9 5461.81 586.106   3
  -4  -1  10 435.232 282.821   3
  -4  -1  10 453.414 262.161   9
  -4  -1  11 165.918 188.149   9
  -4  -1  11 40.2549 165.899   3
  -4  -1  12 1652.05 421.651   9
  -4  -1  12 1755.70 377.822   3
  -4  -1  13 270.126 240.456   3
  -4  -1  13-175.040 197.389   9
  -4  -1  14 184.992 295.343   9
  -4  -1  14 190.354 225.016   3
  -4  -1  15 80.7808 230.188   9
  -4  -1  16 426.946 386.049   9
  -4  -1  17 649.601 423.395   9
  -4   0 -12 69.7710 375.926   4
  -4   0 -11 168.350 307.549   4
  -4   0 -10 503.935 346.903   4
  -4   0  -9 864.846 399.038   4
  -4   0  -8 2100.75 485.963   4
  -4   0  -7 296.373 257.541   4
  -4   0  -6 1057.65 371.759   4
  -4   0  -5 2298.92 439.722   9
  -4   0  -5 2543.58 484.166   4
  -4   0  -4 674.280 298.418   4
  -4   0  -4-381.195 240.500   9
  -4   0  -3 5686.90 577.048   4
  -4   0  -3 5465.63 562.994   9
  -4   0  -2 251.507 194.687   9
  -4   0  -2 312.233 207.282   4
  -4   0  -1 856.917 239.315   4
  -4   0  -1 746.830 211.367   9
  -4   0   0 1595.14 286.611   4
  -4   0   0 1256.83 250.421   9
  -4   0   1 579.678 187.413   9
  -4   0   1 785.171 197.391   4
  -4   0   2 4085.74 402.536   6
  -4   0   2 4680.28 411.795   9
  -4   0   2 5021.61 386.735   4
  -4   0   3 95.2815 110.898   4
  -4   0   3 215.963 138.143   9
  -4   0   3 16.5616 146.226   6
  -4   0   4-38.0565 168.375   6
  -4   0   4 137.751 109.916   9
  -4   0   5-19.2938 118.831   9
  -4   0   5 454.039 258.914   6
  -4   0   6 519.077 215.248   9
  -4   0   6 451.965 252.294   6
  -4   0   7 4922.81 513.228   9
  -4   0   8 1009.83 286.602   9
  -4   0   8 780.433 253.371   3
  -4   0   9 5160.45 528.156   3
  -4   0   9 4431.01 562.253   9
  -4   0  10-19.5484 180.899   3
  -4   0  10-9.41136 171.498   9
  -4   0  11 401.876 297.004   9
  -4   0  11 735.216 274.673   3
  -4   0  12 2460.18 412.609   3
  -4   0  12 2787.90 538.457   9
  -4   0  13 868.988 289.827   3
  -4   0  13 778.998 338.804   9
  -4   0  14 2180.18 561.096   9
  -4   0  15 402.634 326.596   9
  -4   0  16-32.0061 229.968   9
  -4   1 -13-25.7927 340.917   4
  -4   1 -13 953.645 534.367   2
  -4   1 -12 3.56296 307.999   4
  -4   1 -11-123.242 353.405   4
  -4   1 -10-384.200 369.110   4
  -4   1  -9 1506.08 451.853   4
  -4   1  -8-157.148 266.449   4
  -4   1  -7 1069.85 375.418   4
  -4   1  -6 496.582 289.195   4
  -4   1  -5-83.6068 179.009   9
  -4   1  -5 387.562 296.795   4
  -4   1  -4-19.1696 187.386   9
  -4   1  -4 645.688 315.259   4
  -4   1  -3 373.894 221.747   9
  -4   1  -3 345.490 243.110   4
  -4   1  -2 7943.52 600.265   9
  -4   1  -2 8925.05 664.669   4
  -4   1  -2 7624.52 287.533   8
  -4   1  -1 2623.48 330.276   9
  -4   1  -1 3444.07 406.850   4
  -4   1   0 18123.5 819.128   4
  -4   1   0 16867.6 769.115   9
  -4   1   1 2779.55 313.106   4
  -4   1   1 2893.41 333.154   9
  -4   1   1 2517.92 292.289   6
  -4   1   2 4011.57 397.335   9
  -4   1   2 3700.82 349.794   6
  -4   1   3 2490.40 317.796   9
  -4   1   3 2033.21 288.330   6
  -4   1   4 71.1679 132.074   9
  -4   1   4 38.4498 139.026   6
  -4   1   5 3986.47 426.968   9
  -4   1   5 4299.70 443.385   6
  -4   1   6 1547.84 165.442   2
  -4   1   6 1879.14 323.348   9
  -4   1   7 4684.48 513.985   9
  -4   1   7 3278.14 222.691   2
  -4   1   8 580.848 191.442   3
  -4   1   8 283.808 185.099   9
  -4   1   9 3514.90 525.697   9
  -4   1   9 3636.52 411.772   3
  -4   1  10 1997.79 328.682   3
  -4   1  10 2364.91 453.855   9
  -4   1  11 7023.13 771.653   9
  -4   1  11 6959.52 606.792   3
  -4   1  12 6892.69 818.268   9
  -4   1  12 7401.24 663.656   3
  -4   1  13 3257.90 633.029   9
  -4   1  14 2314.84 579.907   9
  -4   1  15 1111.45 435.665   9
  -4   1  16 132.876 348.846   9
  -4   2 -13 477.015 394.345   2
  -4   2 -13 485.749 396.709   4
  -4   2 -12 2804.18 648.159   2
  -4   2 -12 531.762 314.700   4
  -4   2 -11 528.751 383.181   4
  -4   2 -10 198.183 266.648   4
  -4   2  -9 26.0400 269.383   4
  -4   2  -8 1238.18 417.299   4
  -4   2  -7 730.343 326.213   4
  -4   2  -6 11249.7 912.175   4
  -4   2  -6 10401.7 872.269   9
  -4   2  -5 234.992 233.024   4
  -4   2  -5 147.052 197.189   9
  -4   2  -4 18671.9 999.665   9
  -4   2  -4 18766.1 1047.60   4
  -4   2  -3 273.063 216.646   4
  -4   2  -3 240.135 180.102   9
  -4   2  -2 9093.46 607.328   9
  -4   2  -2 9653.77 699.596   4
  -4   2  -1 23143.7 920.808   9
  -4   2  -1 24320.3 999.895   4
  -4   2   0 105.665 112.739   6
  -4   2   0 290.776 137.159   9
  -4   2   1 7778.06 528.561   9
  -4   2   1 7188.41 444.246   6
  -4   2   2 177.130 117.760   6
  -4   2   2 440.058 166.579   9
  -4   2   3 839.574 202.945   9
  -4   2   3 922.246 212.927   6
  -4   2   4 6869.11 523.636   9
  -4   2   4 7410.83 519.437   6
  -4   2   5 29.2915 31.4337   2
  -4   2   5 91.5767 146.086   9
  -4   2   6 3269.42 419.856   9
  -4   2   7 4309.09 514.279   9
  -4   2   7 3841.40 336.831   3
  -4   2   8 943.580 202.759   3
  -4   2   8 681.631 271.410   9
  -4   2   9 176.609 132.720   3
  -4   2   9 567.159 246.042   9
  -4   2  10 102.558 145.332   3
  -4   2  10 442.258 274.807   9
  -4   2  11 2180.67 473.949   9
  -4   2  12 1114.05 409.603   9
  -4   2  13 821.715 270.783   9
  -4   2  14 402.558 391.997   9
  -4   2  15 77.6874 343.325   9
  -4   3 -14 996.606 501.781   2
  -4   3 -14 431.750 351.797   4
  -4   3 -13 3031.54 738.688   2
  -4   3 -13 2500.64 663.978   4
  -4   3 -12 1136.21 486.615   2
  -4   3 -12 116.221 316.992   4
  -4   3 -11 1323.67 469.166   4
  -4   3 -11 1580.72 516.067   2
  -4   3 -10 388.483 327.972   4
  -4   3  -9 1708.17 448.599   4
  -4   3  -8 3961.12 618.102   4
  -4   3  -7 4181.51 585.181   4
  -4   3  -6 4813.45 627.430   4
  -4   3  -6 4246.05 551.010   9
  -4   3  -5 12236.6 895.381   4
  -4   3  -5 12662.2 848.731   9
  -4   3  -4 6304.89 578.007   9
  -4   3  -4 7064.55 666.192   4
  -4   3  -3 2294.48 333.613   9
  -4   3  -3 2281.42 166.065   8
  -4   3  -2 24744.2 967.981   9
  -4   3  -1 4712.12 424.413   9
  -4   3   0 33612.9 1074.13   9
  -4   3   0 30649.1 781.341   6
  -4   3   1 3801.75 380.646   9
  -4   3   1 3086.86 270.028   6
  -4   3   2 2905.80 329.471   9
  -4   3   2 2778.56 293.136   6
  -4   3   3 231.721 144.101   9
  -4   3   4 360.925 188.685   9
  -4   3   4 174.481 45.1278   2
  -4   3   5 2164.22 337.932   9
  -4   3   6 1393.90 168.417   3
  -4   3   6 1708.54 341.198   9
  -4   3   7 1711.20 196.589   3
  -4   3   7 1694.04 355.994   9
  -4   3   8 2397.57 247.823   3
  -4   3   8 2962.83 469.151   9
  -4   3   9 812.271 302.371   9
  -4   3  10-94.0671 193.551   9
  -4   3  11 448.600 324.474   9
  -4   3  12 211.384 254.610   9
  -4   3  13-7.33185 217.674   9
  -4   3  14 1164.29 455.707   9
  -4   3  15 396.443 340.563   9
  -4   4 -14 310.112 376.664   2
  -4   4 -13-46.7846 314.001   2
  -4   4 -12 685.457 387.273   2
  -4   4 -11 974.145 445.336   2
  -4   4 -10 870.227 378.501   2
  -4   4  -9 1197.22 468.586   2
  -4   4  -8 688.876 378.929   2
  -4   4  -7 421.483 225.541   9
  -4   4  -7 666.675 414.875   2
  -4   4  -6 1018.00 320.319   9
  -4   4  -5 1464.44 310.301   9
  -4   4  -4 404.568 200.156   9
  -4   4  -4 254.816 99.3990   8
  -4   4  -3 95.2881 131.559   9
  -4   4  -3 270.003 104.934   8
  -4   4  -2 3565.03 307.763   8
  -4   4  -2 3556.27 370.765   9
  -4   4  -2 3095.46 211.773   6
  -4   4  -1 230.935 84.2860   6
  -4   4  -1 730.338 243.571   2
  -4   4  -1 390.983 146.658   9
  -4   4   0 574.357 188.784   9
  -4   4   0 409.492 203.214   2
  -4   4   0 243.162 95.5100   6
  -4   4   1 2273.23 271.141   2
  -4   4   1 2484.80 329.438   9
  -4   4   2 1056.42 175.245   2
  -4   4   2 1179.24 242.240   9
  -4   4   3 26859.6 653.570   2
  -4   4   3 26988.8 1038.03   9
  -4   4   3 25643.0 539.077   3
  -4   4   4 690.176 211.225   9
  -4   4   4 469.618 61.7340   3
  -4   4   5 5206.47 526.506   9
  -4   4   6 3109.63 424.555   9
  -4   4   7 2659.47 418.932   9
  -4   4   8 1549.05 376.128   9
  -4   4   9 247.698 239.577   9
  -4   4  10 1460.69 386.694   9
  -4   4  11 507.170 285.887   9
  -4   4  12 276.256 297.913   9
  -4   4  13 920.462 401.512   9
  -4   4  14 164.898 359.480   9
  -4   5 -14 133.190 319.509   2
  -4   5 -13 298.147 297.251   2
  -4   5 -12-482.309 371.965   2
  -4   5 -11-199.423 266.103   2
  -4   5 -10 992.578 472.996   2
  -4   5  -9 927.374 419.517   2
  -4   5  -8 1199.09 429.260   2
  -4   5  -7 709.186 338.080   2
  -4   5  -7 136.394 184.583   9
  -4   5  -6 6127.50 607.166   9
  -4   5  -6 6615.50 716.291   2
  -4   5  -5 3663.26 301.998   8
  -4   5  -5 3673.10 514.752   2
  -4   5  -5 4060.59 467.838   9
  -4   5  -4 5531.67 504.537   9
  -4   5  -4 5564.21 615.419   2
  -4   5  -4 5253.64 371.162   8
  -4   5  -3 975.591 282.544   2
  -4   5  -3 1264.21 204.900   8
  -4   5  -3 868.646 216.828   9
  -4   5  -2 6674.83 495.696   9
  -4   5  -2 6829.45 463.182   8
  -4   5  -2 7836.01 623.355   2
  -4   5  -1 2795.24 369.992   2
  -4   5  -1 3301.63 353.256   9
  -4   5  -1 3397.78 361.122   8
  -4   5   0 194.409 140.847   9
  -4   5   0 83.6490 167.746   2
  -4   5   1 11946.6 671.685   9
  -4   5   1 12453.3 630.720   2
  -4   5   2 11658.1 551.777   2
  -4   5   2 10403.1 366.196   3
  -4   5   2 10769.9 649.545   9
  -4   5   3 23077.7 679.931   2
  -4   5   3 23490.7 992.653   9
  -4   5   4 2869.88 398.306   9
  -4   5   5 11613.4 782.482   9
  -4   5   6 4235.32 512.162   9
  -4   5   7 7174.23 677.286   9
  -4   5   8 3409.67 529.188   9
  -4   5   9 4495.50 628.110   9
  -4   5  10 121.487 232.684   9
  -4   5  11 65.8720 201.901   9
  -4   5  12 257.896 258.197   9
  -4   5  13 467.592 333.337   9
  -4   5  14 1371.95 523.091   9
  -4   6 -14-140.894 401.580   2
  -4   6 -13-141.637 348.748   2
  -4   6 -12-463.550 417.812   2
  -4   6 -11 249.431 290.357   2
  -4   6 -10 5356.64 792.091   2
  -4   6  -9 440.674 262.792   2
  -4   6  -8 2299.04 507.403   2
  -4   6  -7 5197.17 579.882   9
  -4   6  -7 5305.97 676.332   2
  -4   6  -6 235.565 245.847   2
  -4   6  -6 83.3505 169.656   9
  -4   6  -6 161.820 143.955   8
  -4   6  -5 9906.48 571.924   8
  -4   6  -5 10232.2 718.825   9
  -4   6  -5 9694.85 798.350   2
  -4   6  -4-14.3647 118.752   8
  -4   6  -4 186.472 144.023   9
  -4   6  -4 110.619 227.349   2
  -4   6  -3 5438.63 463.890   9
  -4   6  -3 5415.22 461.714   8
  -4   6  -3 6091.78 592.135   2
  -4   6  -2 35.6177 122.793   9
  -4   6  -2-274.380 253.563   2
  -4   6  -2 39.2883 119.209   8
  -4   6  -1 1714.29 259.576   9
  -4   6  -1 2029.70 307.607   8
  -4   6  -1 2082.61 362.916   2
  -4   6   0 1467.18 258.741   9
  -4   6   0 1705.09 314.965   8
  -4   6   0 1701.54 335.784   2
  -4   6   1 6447.16 481.127   2
  -4   6   1 6957.84 516.026   9
  -4   6   2 1908.81 296.111   9
  -4   6   2 2086.56 268.905   2
  -4   6   3 6959.36 592.153   9
  -4   6   4 1689.48 321.604   9
  -4   6   5 1108.73 307.885   9
  -4   6   6 414.218 202.285   9
  -4   6   7 1835.14 394.762   9
  -4   6   8 199.456 267.117   9
  -4   6   9-125.685 209.558   9
  -4   6  10 677.157 308.331   9
  -4   6  11 120.575 225.672   9
  -4   6  12 645.985 384.736   9
  -4   6  13 529.855 390.455   9
  -4   7 -14 1067.67 508.838   2
  -4   7 -13 235.193 326.702   2
  -4   7 -12-336.542 382.562   2
  -4   7 -11 2164.07 561.070   2
  -4   7 -10 1477.28 460.838   2
  -4   7  -9 2836.33 531.658   2
  -4   7  -8 3313.19 586.115   2
  -4   7  -7 372.936 144.085   8
  -4   7  -7 653.539 344.834   2
  -4   7  -6 7467.75 557.604   8
  -4   7  -6 7073.90 742.246   2
  -4   7  -6 7028.41 604.239   9
  -4   7  -5 1621.31 275.157   8
  -4   7  -5 2117.09 420.675   2
  -4   7  -5 1427.74 267.421   9
  -4   7  -4 7899.43 561.282   9
  -4   7  -4 7867.87 586.971   8
  -4   7  -4 9013.12 802.078   2
  -4   7  -3 430.096 341.085   2
  -4   7  -3 61.0900 155.484   9
  -4   7  -3-59.5778 160.511   8
  -4   7  -2 777.235 212.152   8
  -4   7  -2 776.778 179.045   9
  -4   7  -2 745.897 265.258   2
  -4   7  -1-48.5231 110.428   9
  -4   7  -1 98.1504 162.643   8
  -4   7  -1 179.074 232.455   2
  -4   7   0 1022.46 218.830   9
  -4   7   0 1050.47 252.688   8
  -4   7   0 1156.72 273.322   2
  -4   7   1 1653.99 359.218   8
  -4   7   1 1817.30 298.719   9
  -4   7   1 1710.87 321.144   2
  -4   7   2 2612.76 346.605   9
  -4   7   2 2456.98 432.123   8
  -4   7   3 310.353 169.811   9
  -4   7   4 106.747 143.132   9
  -4   7   5 616.209 249.620   9
  -4   7   6 234.589 220.217   9
  -4   7   7 627.238 261.158   9
  -4   7   8-106.732 186.701   9
  -4   7   9-67.5283 238.950   9
  -4   7  10 3266.44 596.471   9
  -4   7  11-151.465 261.319   9
  -4   7  12 1219.84 435.935   9
  -4   8 -13 283.863 474.791   2
  -4   8 -12 2.23067 295.613   2
  -4   8 -11 371.739 340.491   2
  -4   8 -10 654.851 445.123   2
  -4   8  -9 827.497 476.687   2
  -4   8  -8 272.228 355.377   2
  -4   8  -7 952.465 377.740   2
  -4   8  -7 771.559 246.732   8
  -4   8  -6 1885.53 329.728   9
  -4   8  -6 2203.31 351.680   8
  -4   8  -6 2715.48 518.922   2
  -4   8  -5 1471.56 304.190   8
  -4   8  -5 1700.12 460.690   2
  -4   8  -5 1468.23 280.544   9
  -4   8  -4 531.312 184.479   9
  -4   8  -4 701.160 335.645   2
  -4   8  -4 384.159 188.637   8
  -4   8  -3 10456.2 610.472   9
  -4   8  -3 11080.2 859.045   2
  -4   8  -3 10060.5 756.490   8
  -4   8  -2 2385.49 293.721   9
  -4   8  -2 2414.43 385.849   8
  -4   8  -2 2372.32 404.384   2
  -4   8  -1 5828.01 454.115   9
  -4   8  -1 6204.59 610.884   8
  -4   8  -1 5531.58 580.492   2
  -4   8   0 342.950 166.544   9
  -4   8   0 429.857 227.919   8
  -4   8   0 285.766 196.460   2
  -4   8   1 271.581 137.149   9
  -4   8   1 48.4837 207.208   8
  -4   8   2 361.450 166.104   9
  -4   8   2 405.738 261.115   8
  -4   8   3 416.155 189.769   8
  -4   8   3 320.365 175.280   9
  -4   8   4 2039.50 358.338   9
  -4   8   4 2289.76 456.175   8
  -4   8   5 459.944 247.605   8
  -4   8   5-11.8471 155.358   9
  -4   8   6 1380.50 341.228   9
  -4   8   6 2296.96 491.750   8
  -4   8   7 481.762 261.795   8
  -4   8   7 50.1793 169.345   9
  -4   8   8 496.999 258.692   9
  -4   8   8 1206.24 387.858   8
  -4   8   9 1634.75 451.334   9
  -4   8   9 2289.19 537.217   8
  -4   8  10 671.903 341.009   9
  -4   8  10 1054.85 386.109   8
  -4   8  11 1603.05 519.242   8
  -4   8  11 1561.12 432.645   9
  -4   8  12-52.6012 209.806   8
  -4   8  12-157.604 290.933   9
  -4   9 -13 748.273 404.876   2
  -4   9 -12 2.33486 321.660   2
  -4   9 -11 610.962 418.995   2
  -4   9 -10 1197.28 456.001   2
  -4   9  -9 535.503 324.249   2
  -4   9  -8 2273.88 573.079   2
  -4   9  -8 1930.40 367.183   8
  -4   9  -7 447.634 243.528   8
  -4   9  -7 1436.80 455.688   2
  -4   9  -6 1598.66 440.438   2
  -4   9  -6 1030.20 278.262   8
  -4   9  -5 445.255 236.074   8
  -4   9  -5 510.897 322.681   2
  -4   9  -4 1351.43 306.326   8
  -4   9  -4 2362.97 490.325   2
  -4   9  -3 8715.97 791.900   2
  -4   9  -3 8375.14 757.753   8
  -4   9  -2 5249.68 611.308   8
  -4   9  -2 4199.37 554.222   2
  -4   9  -1 9226.56 760.977   2
  -4   9  -1 8562.93 759.782   8
  -4   9   0 144.846 174.536   8
  -4   9   1 3389.42 514.601   8
  -4   9   2 3228.22 540.196   8
  -4   9   3 6585.46 743.946   8
  -4   9   4 1253.70 380.801   8
  -4   9   5 4110.82 612.340   8
  -4   9   6 166.357 192.855   8
  -4   9   7 1231.32 391.260   8
  -4   9   8 1909.96 485.439   8
  -4   9   9-119.711 234.455   8
  -4   9  10 1487.11 484.244   8
  -4  10 -12 105.341 357.930   2
  -4  10 -11-62.3025 333.708   2
  -4  10 -10 174.153 317.937   2
  -4  10  -9 865.664 426.814   2
  -4  10  -8 1159.24 347.984   8
  -4  10  -8 1334.53 437.261   2
  -4  10  -7 498.203 274.939   8
  -4  10  -7 337.974 276.299   2
  -4  10  -6-105.220 180.943   8
  -4  10  -6 1007.04 391.869   2
  -4  10  -5 168.958 203.493   8
  -4  10  -5 262.253 251.712   2
  -4  10  -4 2037.76 439.569   8
  -4  10  -4 1088.52 372.885   2
  -4  10  -3 1997.19 433.581   8
  -4  10  -3 2107.66 449.561   2
  -4  10  -2 2598.03 477.895   2
  -4  10  -2 3047.83 527.383   8
  -4  10  -1 197.150 211.882   8
  -4  10   0 368.861 234.071   8
  -4  10   1 1480.86 394.904   8
  -4  10   2 163.841 185.567   8
  -4  10   3 294.419 275.330   8
  -4  10   4-39.8070 186.689   8
  -4  10   5 421.021 253.178   8
  -4  10   6 366.876 326.344   8
  -4  10   7 469.673 344.235   8
  -4  10   8 567.312 370.211   8
  -4  10   9 697.718 371.454   8
  -4  11 -11-366.346 284.808   2
  -4  11 -10 548.482 325.330   2
  -4  11  -9-52.5649 278.936   2
  -4  11  -8 677.175 328.454   8
  -4  11  -8 604.807 364.992   2
  -4  11  -7 1032.06 328.917   8
  -4  11  -7 861.690 429.258   2
  -4  11  -6 345.110 227.700   8
  -4  11  -6 361.571 310.547   2
  -4  11  -5-146.052 220.478   8
  -4  11  -5 231.585 312.323   2
  -4  11  -4-87.2317 265.664   2
  -4  11  -4 313.760 269.176   8
  -4  11  -3 356.090 196.305   8
  -4  11  -3-174.863 266.832   2
  -4  11  -2 519.559 227.709   8
  -4  11  -1-48.6153 199.773   8
  -4  11   0 302.616 240.097   8
  -4  11   1 957.883 388.244   8
  -4  11   2 221.964 293.646   8
  -4  11   3-59.1783 215.499   8
  -4  11   4 1362.14 427.607   8
  -4  11   5 662.054 373.388   8
  -4  11   6 3219.84 648.584   8
  -4  11   7-245.942 233.962   8
  -4  12 -10 389.315 369.283   2
  -4  12  -9 989.470 344.405   8
  -4  12  -9 546.225 395.312   2
  -4  12  -8 617.356 348.717   8
  -4  12  -8 68.1203 290.400   2
  -4  12  -7 2003.95 489.125   8
  -4  12  -7 1153.72 477.533   2
  -4  12  -6 1478.03 420.264   8
  -4  12  -6 1582.34 525.010   2
  -4  12  -5 1499.32 489.987   2
  -4  12  -5 1150.07 383.295   8
  -4  12  -4-103.347 227.574   8
  -4  12  -3 666.306 348.895   8
  -4  12  -2 667.858 324.789   8
  -4  12  -1-170.099 230.547   8
  -4  12   0 4055.68 695.170   8
  -4  12   1 943.917 449.397   8
  -4  12   2 2715.00 611.197   8
  -4  12   3 529.601 366.473   8
  -4  12   4 450.526 300.140   8
  -4  13  -9-568.897 356.245   8
  -4  13  -8 1164.57 497.888   2
  -4  13  -8 1079.08 415.872   8
  -4  13  -7 1710.70 576.439   2
  -4  13  -7 2453.77 553.152   8
  -4  13  -6 391.971 316.396   8
  -4  13  -5 1178.42 405.999   8
  -4  13  -4 158.853 276.229   8
  -4  13  -3 835.443 380.420   8
  -4  13  -2 446.519 339.252   8
  -4  13  -1 2608.61 583.980   8
  -4  13   0 217.175 278.829   8
  -4  13   1 1287.84 477.089   8
  -3 -11   6-246.022 275.586   3
  -3 -11   7 88.8531 300.249   3
  -3 -11   8 5.86238 286.000   3
  -3 -10   0 1420.51 471.927   4
  -3 -10   1 670.120 378.123   4
  -3 -10   2 1000.30 417.376   4
  -3 -10   3 238.706 254.780   6
  -3 -10   3-107.900 210.743   4
  -3 -10   4 286.138 298.112   6
  -3 -10   5 3673.34 644.215   6
  -3 -10   6 504.551 372.415   6
  -3 -10   7 1959.80 546.701   3
  -3 -10   8 924.780 409.667   3
  -3 -10   9 632.738 335.126   3
  -3 -10  10-157.231 280.086   3
  -3 -10  11 1162.60 528.427   3
  -3  -9  -2-167.635 270.842   4
  -3  -9  -1 662.584 376.968   4
  -3  -9   0-294.681 290.818   4
  -3  -9   1 1293.33 432.618   4
  -3  -9   2-177.964 249.264   4
  -3  -9   3 210.656 224.273   4
  -3  -9   3 810.959 371.763   6
  -3  -9   4 1019.28 330.625   6
  -3  -9   4 1902.65 400.964   4
  -3  -9   5-85.2078 237.271   6
  -3  -9   6 3827.17 642.323   6
  -3  -9   7 315.353 304.998   6
  -3  -9   8 302.597 348.862   6
  -3  -9   8 169.543 267.864   3
  -3  -9   9 1241.22 491.136   3
  -3  -9   9 1134.84 424.603   6
  -3  -9  10 157.176 276.095   3
  -3  -9  11 870.033 483.944   3
  -3  -9  12 1332.06 520.330   3
  -3  -9  13 972.959 511.349   3
  -3  -8  -4 648.426 342.462   4
  -3  -8  -3 532.482 386.578   4
  -3  -8  -2 1556.80 512.305   4
  -3  -8  -1 129.896 274.787   4
  -3  -8   0 4363.47 694.957   4
  -3  -8   1 52.2865 234.399   4
  -3  -8   2 1497.19 373.996   4
  -3  -8   3 576.848 240.580   4
  -3  -8   4-11.0288 186.880   4
  -3  -8   4-123.053 274.583   6
  -3  -8   5 2963.30 453.269   4
  -3  -8   5 2619.90 492.802   6
  -3  -8   6 69.3827 272.678   6
  -3  -8   7 714.279 349.327   6
  -3  -8   8 242.906 222.524   6
  -3  -8   8 601.522 398.056   3
  -3  -8   9-1.78555 256.048   6
  -3  -8   9 716.131 359.698   3
  -3  -8  10 253.527 286.743   6
  -3  -8  10 30.4594 337.304   3
  -3  -8  11 415.354 353.605   6
  -3  -8  11 154.322 315.910   3
  -3  -8  12 427.060 339.931   3
  -3  -8  13 657.137 412.054   3
  -3  -8  14 623.313 434.667   3
  -3  -7  -7 726.496 367.002  10
  -3  -7  -6-216.290 287.572  10
  -3  -7  -6 383.734 369.782   4
  -3  -7  -5-80.2277 268.061  10
  -3  -7  -5 101.026 286.582   4
  -3  -7  -4 1067.95 447.928   4
  -3  -7  -4 291.168 316.395  10
  -3  -7  -3 490.641 328.267   4
  -3  -7  -2 1367.30 451.113   4
  -3  -7  -1 102.688 267.549   4
  -3  -7   0 442.143 297.479   4
  -3  -7   1 1112.16 326.661   4
  -3  -7   2 472.150 234.871   4
  -3  -7   3 85.6189 178.598   4
  -3  -7   4 892.111 327.795   6
  -3  -7   4 485.273 180.121   4
  -3  -7   5 455.065 185.434   4
  -3  -7   5 1424.18 396.283   6
  -3  -7   6 99.5987 136.188   4
  -3  -7   6 739.941 362.921   6
  -3  -7   7 817.760 380.704   6
  -3  -7   8 2639.18 489.328   6
  -3  -7   9 392.506 302.738   3
  -3  -7   9 67.7317 238.530   6
  -3  -7  10 963.076 401.978   3
  -3  -7  10 1038.48 370.481   6
  -3  -7  11-71.6590 255.141   3
  -3  -7  12-501.935 343.209   3
  -3  -7  13 1590.47 568.469   3
  -3  -7  14 1579.87 549.163   3
  -3  -7  15-317.818 363.592   3
  -3  -6  -8-258.848 388.473  10
  -3  -6  -7 101.405 276.357   4
  -3  -6  -7-229.295 244.869  10
  -3  -6  -6-156.682 282.853   4
  -3  -6  -5 396.506 419.504   4
  -3  -6  -4 1714.32 458.110   4
  -3  -6  -3 116.802 204.818   4
  -3  -6  -2 1362.71 377.379   4
  -3  -6  -1 2410.07 459.439   4
  -3  -6   0 426.890 253.998   4
  -3  -6   1 7643.06 722.575   4
  -3  -6   2 56.2923 167.410   4
  -3  -6   3 4128.09 484.369   4
  -3  -6   4 500.610 261.981   6
  -3  -6   4 474.332 187.355   4
  -3  -6   5 7317.11 708.033   6
  -3  -6   5 6202.00 516.365   4
  -3  -6   6 1352.63 243.565   4
  -3  -6   6 1414.92 407.248   6
  -3  -6   7 8361.95 521.865   4
  -3  -6   7 10136.4 845.147   6
  -3  -6   8 3343.98 534.580   6
  -3  -6   9 6255.52 785.269   3
  -3  -6   9 7287.81 747.600   6
  -3  -6  10 3595.93 573.154   6
  -3  -6  10 3112.43 593.913   3
  -3  -6  11 677.728 340.521   3
  -3  -6  12 3947.13 699.738   3
  -3  -6  13-27.8486 252.696   3
  -3  -6  14 1233.00 468.881   3
  -3  -6  15-122.510 319.906   3
  -3  -6  16-102.601 291.938   3
  -3  -5  -9-365.644 368.181   4
  -3  -5  -9-110.968 319.197  10
  -3  -5  -8 332.119 352.460   4
  -3  -5  -7 44.4527 285.779   4
  -3  -5  -6 23.9925 267.364   4
  -3  -5  -5 1876.81 513.663   4
  -3  -5  -4 614.761 350.788   4
  -3  -5  -3 5525.17 710.177   4
  -3  -5  -2 1139.60 360.304   4
  -3  -5  -1 827.688 292.770   4
  -3  -5   0 4742.74 559.812   4
  -3  -5   1 1193.36 280.470   4
  -3  -5   2 1492.00 202.975   9
  -3  -5   2 1552.91 300.712   4
  -3  -5   3 24.3738 43.3255   5
  -3  -5   3 154.028 97.8494   9
  -3  -5   3-109.039 167.489   4
  -3  -5   4 1139.28 233.472   4
  -3  -5   4 1079.15 154.655   9
  -3  -5   4 1691.38 371.182   6
  -3  -5   5 693.565 138.434   9
  -3  -5   5 200.879 147.290   4
  -3  -5   6 440.144 139.833   9
  -3  -5   6 401.777 139.300   4
  -3  -5   6 846.625 313.794   6
  -3  -5   7 2904.67 310.559   9
  -3  -5   7 2528.82 247.974   4
  -3  -5   7 3333.76 485.011   6
  -3  -5   8 2745.06 333.732   9
  -3  -5   8 3233.43 499.724   6
  -3  -5   9 6445.75 555.345   9
  -3  -5   9 7651.52 792.730   3
  -3  -5   9 8890.61 812.674   6
  -3  -5  10 339.803 179.659   9
  -3  -5  10-8.61202 210.744   3
  -3  -5  11 1666.70 333.786   9
  -3  -5  11 2337.11 520.889   3
  -3  -5  12 1156.22 333.402   9
  -3  -5  12 608.671 317.855   3
  -3  -5  13 373.774 348.636   3
  -3  -5  13 122.103 211.639   9
  -3  -5  14 570.108 303.437   9
  -3  -5  14 279.251 334.370   3
  -3  -5  15 790.377 369.348   9
  -3  -5  15 64.1388 259.358   3
  -3  -5  16 255.124 334.353   3
  -3  -4 -10 910.393 544.659   4
  -3  -4  -9 491.419 412.891   4
  -3  -4  -8 496.982 324.746   4
  -3  -4  -7-203.681 306.709   4
  -3  -4  -6 2909.91 559.212   4
  -3  -4  -5 732.949 346.440   4
  -3  -4  -4 9273.04 866.766   4
  -3  -4  -3 358.356 230.367   4
  -3  -4  -2 1625.01 378.090   4
  -3  -4  -1 716.791 280.668   4
  -3  -4   0 283.717 156.922   9
  -3  -4   0 109.521 215.770   4
  -3  -4   1 3023.19 312.561   9
  -3  -4   1 3503.91 418.814   4
  -3  -4   2 1436.90 204.972   9
  -3  -4   2 1219.61 250.020   4
  -3  -4   3 83.3327 50.2641   5
  -3  -4   3 43.7633 88.7331   9
  -3  -4   3-37.9319 169.689   4
  -3  -4   4 2762.82 266.029   9
  -3  -4   4 2288.81 281.186   4
  -3  -4   4 2620.56 406.445   6
  -3  -4   5 1483.99 336.772   6
  -3  -4   5 1526.77 217.568   9
  -3  -4   5 1233.71 192.389   4
  -3  -4   6 1127.62 162.379   4
  -3  -4   6 1090.48 195.489   9
  -3  -4   6 1393.89 307.083   6
  -3  -4   7 11.5263 49.2368   4
  -3  -4   7 155.633 124.369   9
  -3  -4   8 580.763 209.798   9
  -3  -4   8 715.456 292.083   6
  -3  -4   9 267.013 172.162   9
  -3  -4   9 231.603 237.529   6
  -3  -4   9 250.240 239.862   3
  -3  -4  10 52.5365 223.831   3
  -3  -4  10 350.360 202.530   9
  -3  -4  11 940.822 272.967   9
  -3  -4  11 427.003 289.975   3
  -3  -4  12 2154.07 485.411   3
  -3  -4  12 1967.27 421.396   9
  -3  -4  13-56.9643 252.341   3
  -3  -4  13-31.1029 169.512   9
  -3  -4  14 518.015 269.699   9
  -3  -4  14 424.411 322.665   3
  -3  -4  15 473.896 337.756   9
  -3  -4  15 752.499 398.115   3
  -3  -4  16 626.254 361.835   9
  -3  -4  16 364.331 311.102   3
  -3  -4  17 1089.45 442.684   9
  -3  -4  17 1387.81 488.314   3
  -3  -3 -11 1049.11 508.272   4
  -3  -3 -10 780.323 407.076   4
  -3  -3  -9 394.015 278.099   4
  -3  -3  -8-215.441 265.980   4
  -3  -3  -7-1.45207 291.401   4
  -3  -3  -6 98.3063 214.172   4
  -3  -3  -5 647.120 262.687   4
  -3  -3  -4 425.389 268.364   4
  -3  -3  -3 508.889 266.714   4
  -3  -3  -2 204.250 237.929   4
  -3  -3  -1 8989.99 587.846   9
  -3  -3  -1 9328.14 687.946   4
  -3  -3   0 347.358 154.836   9
  -3  -3   0 430.118 216.192   4
  -3  -3   1 1813.58 232.387   9
  -3  -3   1 2018.41 305.894   4
  -3  -3   2 1093.84 187.329   9
  -3  -3   2 970.645 201.697   4
  -3  -3   3 844.230 221.598   6
  -3  -3   3 924.845 176.602   9
  -3  -3   3 699.371 164.879   4
  -3  -3   4 10244.5 694.562   6
  -3  -3   4 10969.5 538.702   9
  -3  -3   4 8983.57 439.849   4
  -3  -3   5 3508.23 239.475   4
  -3  -3   5 4379.16 505.742   6
  -3  -3   5 3265.09 320.199   9
  -3  -3   6 515.845 185.664   9
  -3  -3   6 787.253 271.858   6
  -3  -3   6 591.992 82.7430   4
  -3  -3   7 165.581 124.559   9
  -3  -3   7 187.982 212.485   6
  -3  -3   8 2381.21 415.139   3
  -3  -3   8 2927.86 443.819   6
  -3  -3   8 1927.78 346.695   9
  -3  -3   9 1356.13 373.995   3
  -3  -3   9 1635.37 317.856   9
  -3  -3  10-99.1482 217.048   3
  -3  -3  10 424.801 229.781   9
  -3  -3  11 5308.99 603.041   9
  -3  -3  11 6526.32 718.360   3
  -3  -3  12 15.0933 238.789   9
  -3  -3  12 307.657 311.717   3
  -3  -3  13 1895.82 451.263   3
  -3  -3  13 1467.59 407.603   9
  -3  -3  14 1217.49 389.644   3
  -3  -3  14 793.298 341.335   9
  -3  -3  15 255.302 250.455   3
  -3  -3  15 512.507 338.110   9
  -3  -3  16 2640.38 586.044   3
  -3  -3  16 2178.05 555.976   9
  -3  -3  17 146.361 291.672   9
  -3  -3  17-150.902 277.445   3
  -3  -2 -12 632.801 403.735   4
  -3  -2 -11 274.538 337.206   4
  -3  -2 -10 1761.80 540.337   4
  -3  -2  -9-626.418 362.158   4
  -3  -2  -8 3375.15 608.503   4
  -3  -2  -7 815.842 343.084   4
  -3  -2  -6 1987.94 446.332   4
  -3  -2  -5 3160.70 506.060   4
  -3  -2  -4 1434.55 332.088   4
  -3  -2  -3 5523.27 530.459   9
  -3  -2  -3 4957.49 541.397   4
  -3  -2  -2 9925.79 650.688   9
  -3  -2  -2 10218.4 714.397   4
  -3  -2  -1 13647.3 706.815   9
  -3  -2  -1 13696.2 769.223   4
  -3  -2   0 3870.79 357.413   9
  -3  -2   0 3885.22 391.759   4
  -3  -2   1 15120.3 631.592   9
  -3  -2   1 15274.0 692.361   4
  -3  -2   2 428.321 141.198   9
  -3  -2   2 603.208 158.128   4
  -3  -2   3 18196.6 830.597   6
  -3  -2   3 18436.3 689.885   9
  -3  -2   3 18501.9 601.722   4
  -3  -2   4 8492.14 338.821   4
  -3  -2   4 8409.84 591.671   6
  -3  -2   4 8990.19 495.970   9
  -3  -2   5 2858.19 140.710   4
  -3  -2   5 4423.21 385.251   9
  -3  -2   5 4727.40 465.716   6
  -3  -2   6 9268.21 590.593   9
  -3  -2   6 9137.78 666.037   6
  -3  -2   7 49.8071 151.162   9
  -3  -2   7 464.080 273.247   6
  -3  -2   8 9112.58 662.991   9
  -3  -2   8 9502.21 729.422   3
  -3  -2   9 492.822 271.129   9
  -3  -2   9 287.588 204.717   3
  -3  -2  10 5931.01 628.255   9
  -3  -2  10 6043.08 650.287   3
  -3  -2  11 304.745 245.190   9
  -3  -2  11 1091.56 348.132   3
  -3  -2  12 4073.58 566.696   3
  -3  -2  12 3667.31 586.875   9
  -3  -2  13 213.417 254.845   3
  -3  -2  13 129.949 296.646   9
  -3  -2  14 657.649 301.356   3
  -3  -2  14 676.108 337.505   9
  -3  -2  15-187.801 327.582   3
  -3  -2  15 832.612 389.673   9
  -3  -2  16 34.2865 253.073   3
  -3  -2  16-349.377 307.595   9
  -3  -2  17 156.849 329.237   9
  -3  -1 -13 300.249 370.463   4
  -3  -1 -12 979.677 487.513   4
  -3  -1 -11 655.058 397.216   4
  -3  -1 -10 403.433 345.717   4
  -3  -1  -9 3411.07 629.918   4
  -3  -1  -8 528.891 297.542   4
  -3  -1  -7 2600.43 489.025   4
  -3  -1  -6 360.852 214.886   4
  -3  -1  -5-230.383 230.613   4
  -3  -1  -4 1318.34 343.290   4
  -3  -1  -3 32.0367 185.855   4
  -3  -1  -3 61.2623 133.928   9
  -3  -1  -2 1873.02 314.546   9
  -3  -1  -2 1516.61 290.430   4
  -3  -1  -1 4910.36 436.896   4
  -3  -1  -1 4938.44 415.954   9
  -3  -1   0 13698.3 614.715   9
  -3  -1   0 13693.2 654.583   4
  -3  -1   1 5032.65 370.701   9
  -3  -1   1 5008.69 368.059   4
  -3  -1   2 5167.49 378.113   9
  -3  -1   2 4374.04 193.000   5
  -3  -1   2 4587.81 405.180   6
  -3  -1   2 4657.10 312.482   4
  -3  -1   3 6556.23 425.078   9
  -3  -1   3 6860.14 322.065   5
  -3  -1   3 6753.10 488.284   6
  -3  -1   3 7322.02 327.220   4
  -3  -1   4 5511.06 423.976   9
  -3  -1   4 3747.48 191.606   4
  -3  -1   4 5391.91 452.568   6
  -3  -1   5 2476.91 321.305   9
  -3  -1   5 2873.02 369.038   6
  -3  -1   6 2954.49 400.576   6
  -3  -1   6 2638.37 335.349   9
  -3  -1   7 799.805 219.767   9
  -3  -1   7 614.030 202.384   3
  -3  -1   8 2235.43 355.316   9
  -3  -1   8 2200.28 355.826   3
  -3  -1   9 145.901 208.801   3
  -3  -1   9 258.223 189.831   9
  -3  -1  10 66.7710 180.134   3
  -3  -1  10 166.032 220.936   9
  -3  -1  11 146.678 170.529   3
  -3  -1  11 214.814 234.713   9
  -3  -1  12 316.491 265.248   3
  -3  -1  12 30.9721 212.061   9
  -3  -1  13 156.970 181.977   9
  -3  -1  13-78.9495 220.451   3
  -3  -1  14 591.028 323.009   3
  -3  -1  14 1318.01 425.107   9
  -3  -1  15 303.308 321.913   9
  -3  -1  16 515.893 333.673   9
  -3   0 -13 576.314 473.191   4
  -3   0 -12 443.936 374.525   4
  -3   0 -11 471.697 329.979   4
  -3   0 -10 3414.38 642.011   4
  -3   0  -9 91.6265 275.042   4
  -3   0  -8 7001.03 778.847   4
  -3   0  -7 740.461 298.880   4
  -3   0  -6 751.016 323.553   4
  -3   0  -5 333.990 302.511   4
  -3   0  -4 214.962 202.791   4
  -3   0  -4 372.374 209.554   9
  -3   0  -3 268.710 173.348   9
  -3   0  -3 187.703 196.645   4
  -3   0  -2 3767.24 201.962   8
  -3   0  -2 4332.87 411.499   9
  -3   0  -2 4288.00 432.743   4
  -3   0  -1 256.646 77.3187   8
  -3   0  -1 207.174 126.920   9
  -3   0  -1 210.318 157.478   4
  -3   0   0 16727.3 675.717   9
  -3   0   0 16870.0 684.311   4
  -3   0   1 92.5067 87.9692   9
  -3   0   1 362.527 145.868   4
  -3   0   2 5326.93 393.899   6
  -3   0   2 5562.18 282.045   5
  -3   0   2 5782.61 333.950   4
  -3   0   2 5830.59 390.041   9
  -3   0   3 529.000 141.002   9
  -3   0   3 784.626 197.842   6
  -3   0   4 218.298 158.979   6
  -3   0   4 437.396 147.187   9
  -3   0   5 1102.51 215.102   9
  -3   0   5 1323.22 271.149   6
  -3   0   6 11753.8 696.216   9
  -3   0   7 936.214 218.693   3
  -3   0   7 1120.49 260.211   9
  -3   0   8 15708.1 934.459   9
  -3   0   8 14695.0 792.556   3
  -3   0   9 471.450 189.979   3
  -3   0   9 509.000 230.120   9
  -3   0  10 3604.94 453.541   3
  -3   0  10 4339.03 588.993   9
  -3   0  11 3048.17 523.928   9
  -3   0  11 3166.88 441.766   3
  -3   0  12 2536.53 433.775   3
  -3   0  12 2203.11 493.077   9
  -3   0  13 2308.72 543.625   9
  -3   0  13 2059.15 411.520   3
  -3   0  14 740.570 352.162   9
  -3   0  15 187.530 307.480   9
  -3   0  16 240.065 362.265   9
  -3   1 -14-32.5093 295.845   4
  -3   1 -13 579.034 355.260   2
  -3   1 -13 28.6597 346.302   4
  -3   1 -12 303.950 299.375   4
  -3   1 -11 76.0111 277.310   4
  -3   1 -10 1900.76 471.568   4
  -3   1  -9 331.371 315.378   4
  -3   1  -8 887.085 333.357   4
  -3   1  -7 2060.62 432.525   4
  -3   1  -6 1698.11 394.873   4
  -3   1  -5 4439.09 519.130   9
  -3   1  -5 4447.94 535.643   4
  -3   1  -4 4447.34 465.907   9
  -3   1  -4 5161.15 518.103   4
  -3   1  -3-160.962 170.163   9
  -3   1  -3 297.541 197.560   4
  -3   1  -2 10312.6 589.291   9
  -3   1  -2 9375.89 231.356   8
  -3   1  -2 11340.2 658.237   4
  -3   1  -1 2761.23 316.972   4
  -3   1  -1 2059.04 254.664   9
  -3   1   0 32298.9 916.719   9
  -3   1   0 34137.6 954.134   4
  -3   1   1 233.921 144.247   9
  -3   1   1 154.388 101.262   6
  -3   1   2 8929.10 481.128   9
  -3   1   2 8265.81 448.938   6
  -3   1   3 5793.43 431.000   9
  -3   1   3 5406.58 395.878   6
  -3   1   4 3308.48 341.221   9
  -3   1   4 3039.72 325.380   6
  -3   1   5 2985.36 173.026   2
  -3   1   5 4229.57 406.104   9
  -3   1   6 59.0585 125.230   9
  -3   1   6 47.5770 111.965   3
  -3   1   7 17632.4 938.564   9
  -3   1   7 17479.3 735.108   3
  -3   1   8 3881.68 500.806   9
  -3   1   8 3843.43 384.217   3
  -3   1   9 1599.03 295.521   3
  -3   1   9 1448.48 356.376   9
  -3   1  10 3466.09 541.399   9
  -3   1  10 4168.55 456.208   3
  -3   1  11 1176.38 366.503   9
  -3   1  11 570.648 199.095   3
  -3   1  12 3894.20 635.688   9
  -3   1  12 5323.17 567.043   3
  -3   1  13-86.9434 209.837   9
  -3   1  14 300.341 325.682   9
  -3   1  15 203.436 320.887   9
  -3   1  16 655.233 444.990   9
  -3   2 -14 569.138 371.544   4
  -3   2 -13 754.996 414.784   2
  -3   2 -13-53.2631 290.663   4
  -3   2 -12 2834.29 587.338   2
  -3   2 -12 2064.40 553.641   4
  -3   2 -11 744.424 330.781   4
  -3   2 -11 1060.67 450.955   2
  -3   2 -10 1508.89 448.021   4
  -3   2  -9 602.331 305.204   4
  -3   2  -8 5859.33 669.341   4
  -3   2  -7 9487.89 803.355   4
  -3   2  -6 14217.3 914.706   4
  -3   2  -5 23336.3 1096.81   4
  -3   2  -5 23020.7 1063.43   9
  -3   2  -4 2124.95 349.569   4
  -3   2  -4 2096.21 327.926   9
  -3   2  -3 11525.8 646.457   9
  -3   2  -3 13123.3 748.795   4
  -3   2  -2 1252.09 259.670   4
  -3   2  -2 1251.52 211.746   9
  -3   2  -1 48919.4 1149.98   9
  -3   2   0 47559.1 864.175   6
  -3   2   0 47358.4 1105.29   9
  -3   2   1 8727.45 397.773   6
  -3   2   1 9742.40 512.723   9
  -3   2   2 108.108 119.164   6
  -3   2   2 48.7477 96.8959   9
  -3   2   2-70.8778 65.5624   3
  -3   2   3 6575.79 455.204   9
  -3   2   4 3879.63 383.540   9
  -3   2   5 810.246 135.790   3
  -3   2   5 823.001 206.500   9
  -3   2   6 17342.5 898.378   9
  -3   2   6 16371.6 576.231   3
  -3   2   7 1961.49 233.300   3
  -3   2   7 2032.58 361.982   9
  -3   2   8 4370.06 545.393   9
  -3   2   8 4090.54 360.760   3
  -3   2   9 11.4421 213.462   9
  -3   2   9 145.419 131.109   3
  -3   2  10-266.573 225.783   9
  -3   2  10 216.566 179.326   3
  -3   2  11 968.337 366.255   9
  -3   2  12 367.063 273.170   9
  -3   2  13 143.257 286.037   9
  -3   2  14 291.546 351.759   9
  -3   2  15 304.145 339.909   9
  -3   3 -14 167.206 343.578   2
  -3   3 -14-325.405 341.407   4
  -3   3 -13 846.790 424.938   2
  -3   3 -13 555.232 388.846   4
  -3   3 -12 844.649 409.987   2
  -3   3 -12 448.771 353.230   4
  -3   3 -11-176.797 258.584   2
  -3   3 -11-154.749 261.164   4
  -3   3 -10 4.99471 231.826   4
  -3   3 -10 144.879 338.939   2
  -3   3  -9 1010.84 355.070   4
  -3   3  -9 1691.39 451.666   2
  -3   3  -8 2579.55 480.707   4
  -3   3  -7 1913.18 423.201   4
  -3   3  -6 4371.62 528.988   4
  -3   3  -6 4064.59 480.756   9
  -3   3  -5 322.233 201.735   4
  -3   3  -5-11.7073 148.870   9
  -3   3  -4 1869.18 294.792   9
  -3   3  -4 2087.77 150.799   8
  -3   3  -3 6234.08 283.759   8
  -3   3  -3 5778.49 450.629   9
  -3   3  -2 1268.06 206.851   9
  -3   3  -2 1298.16 158.966   8
  -3   3  -1 8810.69 294.330   6
  -3   3  -1 9366.20 496.305   9
  -3   3   0 90.5350 80.0654   6
  -3   3   0-28.1725 107.643   9
  -3   3   1 15.8137 66.4857   3
  -3   3   1 131.176 114.594   9
  -3   3   1 146.310 116.767   2
  -3   3   2 99.3449 74.7739   2
  -3   3   2 213.261 66.2845   3
  -3   3   2 385.773 151.448   9
  -3   3   3 420.044 60.5881   3
  -3   3   3 389.052 67.2646   2
  -3   3   3 549.821 180.998   9
  -3   3   4 54.1961 36.1531   3
  -3   3   4 85.6553 137.974   9
  -3   3   5 2878.90 366.762   9
  -3   3   5 2002.33 139.677   3
  -3   3   6 171.449 144.811   9
  -3   3   6 459.740 92.7711   3
  -3   3   7 240.760 109.585   3
  -3   3   7 394.137 181.381   9
  -3   3   8 1767.40 216.659   3
  -3   3   8 1186.11 312.083   9
  -3   3   9 243.453 188.587   9
  -3   3  10 322.945 299.993   9
  -3   3  11 1801.02 440.273   9
  -3   3  12 1303.87 443.375   9
  -3   3  13 471.674 333.856   9
  -3   3  14 1048.33 435.824   9
  -3   3  15 690.582 459.274   9
  -3   4 -14-101.126 320.197   2
  -3   4 -13-319.359 360.197   2
  -3   4 -12-33.7216 272.302   2
  -3   4 -11 72.6486 283.766   2
  -3   4 -10 99.9129 304.543   2
  -3   4  -9 982.413 383.304   2
  -3   4  -8 624.961 325.100   2
  -3   4  -7 1055.97 388.320   2
  -3   4  -7 526.154 112.680   1
  -3   4  -6 2660.66 456.396   2
  -3   4  -6 2699.34 408.690   9
  -3   4  -6 2575.98 224.045   1
  -3   4  -5 332.967 115.462   8
  -3   4  -5 520.268 259.640   2
  -3   4  -5 272.366 179.808   9
  -3   4  -4 2642.04 415.438   2
  -3   4  -4 2327.60 313.635   9
  -3   4  -4 2361.10 225.645   8
  -3   4  -3 1052.00 270.104   2
  -3   4  -3 1115.15 210.375   9
  -3   4  -3 1171.54 175.774   8
  -3   4  -2 255.046 116.348   8
  -3   4  -2 376.805 198.705   2
  -3   4  -2 209.147 119.566   9
  -3   4  -1 7478.08 436.052   9
  -3   4  -1 7473.86 445.056   8
  -3   4  -1 7060.43 479.229   2
  -3   4   0 9652.86 509.168   2
  -3   4   0 9155.42 500.416   9
  -3   4   1 2571.61 276.637   9
  -3   4   1 2961.06 279.158   2
  -3   4   1 2448.23 184.698   3
  -3   4   2 25024.2 880.490   9
  -3   4   2 26278.4 681.275   2
  -3   4   2 24517.5 404.002   3
  -3   4   3 626.919 186.532   9
  -3   4   4 8114.44 578.701   9
  -3   4   5 1833.63 312.829   9
  -3   4   6 2260.76 380.882   9
  -3   4   7 12923.8 889.001   9
  -3   4   8 1780.47 394.301   9
  -3   4   9 2405.95 466.351   9
  -3   4  10 5161.95 700.862   9
  -3   4  11 1171.39 373.409   9
  -3   4  12 678.496 324.628   9
  -3   4  13 3004.09 664.990   9
  -3   4  14 186.673 326.029   9
  -3   5 -15-965.172 456.724   2
  -3   5 -14 1079.75 433.025   2
  -3   5 -13-837.828 452.960   2
  -3   5 -12 289.721 318.341   2
  -3   5 -11 1917.17 471.551   2
  -3   5 -10 1640.88 448.718   2
  -3   5  -9 2263.52 521.351   2
  -3   5  -8 1279.59 390.232   2
  -3   5  -8 1042.37 197.057   1
  -3   5  -7 81.7748 280.707   2
  -3   5  -7 258.501 123.161   1
  -3   5  -6 1620.48 234.889   8
  -3   5  -6 1910.72 390.799   2
  -3   5  -6 1370.87 270.395   9
  -3   5  -6 1709.84 237.416   1
  -3   5  -5 117.141 119.939   1
  -3   5  -5 125.767 80.0670   6
  -3   5  -5 31.1651 129.998   9
  -3   5  -5 52.4270 231.236   2
  -3   5  -5 178.589 129.640   8
  -3   5  -4 2943.01 302.552   8
  -3   5  -4 2887.45 417.981   2
  -3   5  -4 3233.17 350.739   9
  -3   5  -3 904.465 253.858   2
  -3   5  -3 745.204 156.229   9
  -3   5  -3 949.474 193.205   8
  -3   5  -2 13001.5 582.482   9
  -3   5  -2 13904.5 655.191   8
  -3   5  -2 13623.3 735.204   2
  -3   5  -1 3873.34 365.088   8
  -3   5  -1 3935.46 326.789   9
  -3   5  -1 3909.67 408.661   2
  -3   5   0 391.103 181.495   8
  -3   5   0 144.982 105.947   9
  -3   5   0 615.863 205.466   2
  -3   5   1 13705.6 628.531   9
  -3   5   1 14178.0 619.187   2
  -3   5   2 287.178 148.620   9
  -3   5   2 322.325 130.136   2
  -3   5   3 16098.1 766.026   9
  -3   5   4 1528.23 294.688   9
  -3   5   5 3231.71 425.480   9
  -3   5   6 2855.08 439.439   9
  -3   5   7 425.525 221.720   9
  -3   5   8 967.425 331.727   9
  -3   5   9 282.016 247.651   9
  -3   5  10 101.073 225.729   9
  -3   5  11 434.170 306.923   9
  -3   5  12 545.730 356.184   9
  -3   5  13 939.121 466.148   9
  -3   5  14 737.839 458.901   9
  -3   6 -15 562.130 372.026   2
  -3   6 -14 863.317 416.261   2
  -3   6 -13 518.733 342.385   2
  -3   6 -12 1026.77 376.981   2
  -3   6 -11 5775.97 769.882   2
  -3   6 -10 3126.29 569.039   2
  -3   6  -9 7790.93 836.224   2
  -3   6  -8 204.856 246.314   2
  -3   6  -8 288.840 144.058   1
  -3   6  -7 3139.16 353.743   1
  -3   6  -7 2717.53 516.538   2
  -3   6  -6 810.446 273.153   2
  -3   6  -6 1588.02 282.007   9
  -3   6  -6 1881.14 285.909   8
  -3   6  -6 1667.73 272.344   1
  -3   6  -5 8101.55 567.428   9
  -3   6  -5 8126.57 557.945   1
  -3   6  -5 8657.44 570.706   8
  -3   6  -5 8783.09 752.346   2
  -3   6  -4 750.765 291.696   2
  -3   6  -4 396.729 141.362   9
  -3   6  -4 492.004 182.261   8
  -3   6  -3 8568.15 589.389   8
  -3   6  -3 8654.38 499.272   9
  -3   6  -3 8660.05 676.817   2
  -3   6  -2 324.915 101.976   9
  -3   6  -2 370.657 175.501   8
  -3   6  -2 706.349 255.958   2
  -3   6  -1 7024.49 555.051   8
  -3   6  -1 6427.08 525.107   2
  -3   6  -1 6897.31 420.310   9
  -3   6   0 11080.8 700.290   8
  -3   6   0 11300.2 567.316   9
  -3   6   0 11387.5 649.937   2
  -3   6   1 10.8752 105.692   9
  -3   6   1 54.2534 181.187   8
  -3   6   1 105.819 160.027   2
  -3   6   2 11702.8 642.227   9
  -3   6   2 12947.2 826.177   8
  -3   6   3-27.2237 129.390   9
  -3   6   4 755.862 226.745   9
  -3   6   5 177.548 181.462   9
  -3   6   6 1261.17 300.180   9
  -3   6   7 530.624 247.259   9
  -3   6   8 265.232 219.583   9
  -3   6   9 1311.67 386.446   9
  -3   6  10-36.1080 214.845   9
  -3   6  11 916.484 375.416   9
  -3   6  12-361.657 332.515   9
  -3   6  13-373.053 307.267   9
  -3   7 -15 34.6038 313.983   2
  -3   7 -14 503.229 377.334   2
  -3   7 -13 1271.34 488.028   2
  -3   7 -12 1063.88 467.884   2
  -3   7 -11 172.107 267.212   2
  -3   7 -10 848.556 398.502   2
  -3   7  -9 464.809 349.559   2
  -3   7  -9 99.5555 125.995   1
  -3   7  -8 398.833 340.225   2
  -3   7  -8 214.074 177.109   1
  -3   7  -7 2579.81 523.289   2
  -3   7  -7 1652.30 316.074   8
  -3   7  -7 1818.15 309.301   1
  -3   7  -6 681.628 279.967   2
  -3   7  -6 187.521 192.761   8
  -3   7  -6 271.943 162.385   1
  -3   7  -5 1313.08 278.656   8
  -3   7  -5 1452.01 242.183   9
  -3   7  -5 1210.37 273.874   1
  -3   7  -5 1745.51 401.486   2
  -3   7  -4 157.332 155.392   8
  -3   7  -4 189.167 127.991   9
  -3   7  -4 114.535 296.414   2
  -3   7  -3 2318.82 260.580   9
  -3   7  -3 2971.49 404.185   8
  -3   7  -3 2378.42 399.266   2
  -3   7  -2 251.021 129.673   9
  -3   7  -2 72.3040 164.752   8
  -3   7  -2 184.688 211.069   2
  -3   7  -1 1152.37 191.838   9
  -3   7  -1 1295.05 307.693   8
  -3   7  -1 813.158 235.647   2
  -3   7   0 2809.59 295.182   9
  -3   7   0 2927.09 389.068   8
  -3   7   0 2946.09 379.669   2
  -3   7   1 505.051 212.699   8
  -3   7   1 440.136 152.225   9
  -3   7   2 1423.68 244.968   9
  -3   7   2 1517.96 345.514   8
  -3   7   3 238.571 125.345   9
  -3   7   3 54.2543 191.021   8
  -3   7   4 103.551 161.562   9
  -3   7   4 208.599 235.872   8
  -3   7   5 2225.80 429.042   8
  -3   7   5 2083.79 355.703   9
  -3   7   6-47.1422 168.175   8
  -3   7   6-201.431 170.520   9
  -3   7   7 13.9344 172.034   9
  -3   7   7 280.743 209.673   8
  -3   7   8-183.174 215.856   9
  -3   7   8 208.032 225.843   8
  -3   7   9 893.633 354.670   9
  -3   7   9 914.560 294.544   8
  -3   7  10 538.895 320.597   9
  -3   7  10 1673.88 453.905   8
  -3   7  11 344.092 296.912   8
  -3   7  11 377.707 287.845   9
  -3   7  12 533.348 345.307   9
  -3   8 -14-276.106 309.042   2
  -3   8 -13-77.3005 313.165   2
  -3   8 -12 342.634 307.260   2
  -3   8 -11 640.767 407.178   2
  -3   8 -10 1065.17 428.121   2
  -3   8  -9 3407.39 632.258   2
  -3   8  -9 2482.83 403.205   1
  -3   8  -8 171.965 170.995   1
  -3   8  -8 435.050 313.484   2
  -3   8  -7 6082.34 754.030   2
  -3   8  -7 6148.81 608.307   8
  -3   8  -7 6461.66 623.284   1
  -3   8  -6 222.942 166.356   1
  -3   8  -6 383.899 209.629   8
  -3   8  -6-140.933 210.568   2
  -3   8  -5 4951.01 537.089   8
  -3   8  -5 5128.09 639.761   2
  -3   8  -4 7899.91 461.604   9
  -3   8  -4 7414.39 712.361   2
  -3   8  -4 7906.67 684.839   8
  -3   8  -3 1624.18 208.179   9
  -3   8  -3 1274.92 353.692   2
  -3   8  -3 1565.46 342.202   8
  -3   8  -2 10068.6 765.973   8
  -3   8  -2 8783.49 732.245   2
  -3   8  -2 10008.3 473.411   9
  -3   8  -1 186.601 106.864   9
  -3   8  -1 216.067 182.007   8
  -3   8  -1 241.808 243.460   2
  -3   8   0 1223.65 196.256   9
  -3   8   0 1027.62 310.440   8
  -3   8   1 47.5442 119.284   9
  -3   8   1 211.179 161.218   8
  -3   8   2 2041.43 398.059   8
  -3   8   2 1405.31 255.688   9
  -3   8   3 2117.93 329.617   9
  -3   8   3 2363.33 435.532   8
  -3   8   4 6524.84 579.197   9
  -3   8   4 7323.40 756.629   8
  -3   8   5 1579.44 389.467   8
  -3   8   5 1519.06 341.835   9
  -3   8   6 5110.96 580.326   9
  -3   8   6 5435.53 689.270   8
  -3   8   7 3436.78 545.821   9
  -3   8   7 2910.46 537.975   8
  -3   8   8 81.0259 191.091   8
  -3   8   8 271.260 284.950   9
  -3   8   9 1847.85 460.995   8
  -3   8   9 873.964 339.022   9
  -3   8  10 383.683 272.318   9
  -3   8  10-27.2940 195.969   8
  -3   8  11 540.517 303.821   8
  -3   9 -14 41.4884 295.016   2
  -3   9 -13-43.8528 350.463   2
  -3   9 -12-56.8314 286.584   2
  -3   9 -11-113.533 260.533   2
  -3   9 -10 1019.45 424.087   2
  -3   9  -9-132.042 257.708   2
  -3   9  -9-32.6493 156.988   1
  -3   9  -8 4359.49 550.818   1
  -3   9  -8 4371.88 573.033   8
  -3   9  -8 4972.90 724.849   2
  -3   9  -7 354.306 281.272   8
  -3   9  -7 468.818 233.632   1
  -3   9  -7 342.487 316.744   2
  -3   9  -6 4234.32 549.698   8
  -3   9  -6 4752.08 682.545   2
  -3   9  -5 1225.97 296.179   8
  -3   9  -5 1488.09 405.802   2
  -3   9  -4 253.646 189.405   8
  -3   9  -4 0.22344 201.032   2
  -3   9  -3 3698.38 513.572   8
  -3   9  -3 4207.57 601.052   2
  -3   9  -2 98.2391 176.873   8
  -3   9  -2 77.7079 188.490   2
  -3   9  -1 3534.65 529.609   8
  -3   9   0 319.455 220.935   8
  -3   9   1 155.104 240.285   8
  -3   9   2 1557.39 384.011   8
  -3   9   3 913.104 320.644   8
  -3   9   4 682.720 317.108   8
  -3   9   5 1828.90 442.347   8
  -3   9   6 159.574 202.278   8
  -3   9   7-22.2274 210.682   8
  -3   9   8 280.074 339.320   8
  -3   9   9 768.831 334.363   8
  -3   9  10 359.310 276.514   8
  -3  10 -13 508.662 403.739   2
  -3  10 -12 394.377 324.110   2
  -3  10 -11-172.070 352.518   2
  -3  10 -10 564.902 328.041   2
  -3  10 -10-17.5259 183.269   1
  -3  10  -9 2341.17 453.584   1
  -3  10  -9 2510.11 556.991   2
  -3  10  -8 167.455 199.980   1
  -3  10  -8-389.876 323.593   2
  -3  10  -8 27.1627 191.482   8
  -3  10  -7 4430.86 613.110   8
  -3  10  -7 3916.33 641.547   2
  -3  10  -6 1191.45 363.124   2
  -3  10  -6 1114.94 350.800   8
  -3  10  -5 324.390 182.341   8
  -3  10  -5 358.376 271.633   2
  -3  10  -4 1945.79 445.937   2
  -3  10  -4 2185.15 429.859   8
  -3  10  -3 154.702 187.698   8
  -3  10  -2 1605.62 412.323   8
  -3  10  -1 935.154 320.858   8
  -3  10   0 325.446 256.552   8
  -3  10   1 251.614 261.529   8
  -3  10   2 114.325 187.417   8
  -3  10   3 869.603 306.384   8
  -3  10   4 118.313 238.088   8
  -3  10   5 256.452 275.614   8
  -3  10   6 80.9528 228.185   8
  -3  10   7 632.825 314.638   8
  -3  10   8-16.6148 226.034   8
  -3  11 -12 579.282 394.129   2
  -3  11 -11-342.524 344.101   2
  -3  11 -10-343.505 331.663   2
  -3  11  -9-435.700 300.884   2
  -3  11  -8 335.915 246.725   8
  -3  11  -8 502.366 321.916   2
  -3  11  -7 970.845 362.428   8
  -3  11  -7 964.529 441.070   2
  -3  11  -6 359.683 265.768   8
  -3  11  -6 418.135 363.736   2
  -3  11  -5 113.044 314.933   2
  -3  11  -5 124.047 197.066   8
  -3  11  -4 1780.13 442.937   8
  -3  11  -3 123.827 169.302   8
  -3  11  -2 125.986 262.701   8
  -3  11  -1 1506.95 429.408   8
  -3  11   0-42.5715 253.975   8
  -3  11   1 2999.52 565.450   8
  -3  11   2 207.565 278.713   8
  -3  11   3 17.4315 208.919   8
  -3  11   4 593.145 341.693   8
  -3  11   5 77.1006 321.299   8
  -3  11   6 1830.15 540.183   8
  -3  12 -10 747.268 433.903   2
  -3  12  -9-19.6875 329.310   2
  -3  12  -8 1530.40 477.067   2
  -3  12  -8 1037.53 398.643   8
  -3  12  -7 90.7330 219.053   8
  -3  12  -7 189.401 264.782   2
  -3  12  -6 2248.19 523.634   8
  -3  12  -5 736.974 351.719   8
  -3  12  -4 1157.56 461.257   8
  -3  12  -3 370.296 370.249   8
  -3  12  -2 3523.38 651.199   8
  -3  12  -1 1512.10 453.754   8
  -3  12   0 5117.25 786.278   8
  -3  12   1 2320.25 606.838   8
  -3  12   2 1360.51 445.572   8
  -3  12   3 978.618 431.347   8
  -3  12   4-123.541 236.692   8
  -3  13  -8 220.879 321.912   8
  -3  13  -7 597.132 347.687   8
  -3  13  -6-376.232 346.262   8
  -3  13  -5 203.316 270.088   8
  -3  13  -4 95.5542 249.446   8
  -3  13  -3-27.4294 251.910   8
  -3  13  -2 523.588 313.730   8
  -3  13  -1 567.028 346.045   8
  -3  13   0 523.068 390.844   8
  -2 -12   7 652.806 395.120   3
  -2 -11   0 12.6912 275.381   4
  -2 -11   1 261.759 303.820   4
  -2 -11   2 40.8327 284.458   4
  -2 -11   3 149.412 229.357   4
  -2 -11   4 56.1292 275.189   3
  -2 -11   5 205.342 239.736   3
  -2 -11   6 1.08418 295.451   3
  -2 -11   7-465.252 308.621   3
  -2 -11   8 547.246 312.480   3
  -2 -11   9 485.311 370.932   3
  -2 -11  10 451.605 409.044   3
  -2 -10  -2-185.309 267.934   4
  -2 -10  -1 863.676 401.501   4
  -2 -10   0 1349.16 470.642   4
  -2 -10   1 1548.15 450.551   4
  -2 -10   2 988.305 396.705   4
  -2 -10   3 433.809 283.317   4
  -2 -10   3 672.058 295.496   6
  -2 -10   4-16.4403 222.889   6
  -2 -10   4 101.970 179.967   4
  -2 -10   5 2102.50 440.377   4
  -2 -10   6-25.3200 273.419   3
  -2 -10   7 1105.74 433.301   3
  -2 -10   8 51.0560 237.746   3
  -2 -10   9 965.729 484.151   3
  -2 -10  10 722.986 439.487   3
  -2 -10  11 299.883 387.774   3
  -2 -10  12 4085.68 825.219   3
  -2  -9  -4 581.810 355.388   4
  -2  -9  -3 583.885 359.605   4
  -2  -9  -2-7.01761 252.573   4
  -2  -9  -1 3826.31 647.382   4
  -2  -9   0 748.370 353.541   4
  -2  -9   1 3063.84 539.078   4
  -2  -9   2 1291.49 416.951   4
  -2  -9   3 170.461 190.431   4
  -2  -9   4 1821.11 413.426   6
  -2  -9   4 1777.36 422.866   4
  -2  -9   5 271.433 195.305   6
  -2  -9   5 343.983 210.119   4
  -2  -9   6 1162.98 369.595   6
  -2  -9   6 1617.84 344.224   4
  -2  -9   7-167.776 232.366   3
  -2  -9   7-304.050 219.392   6
  -2  -9   8 476.247 286.097   6
  -2  -9   8 256.726 286.821   3
  -2  -9   9 270.078 294.579   3
  -2  -9  10 659.322 385.201   3
  -2  -9  11 667.614 406.037   3
  -2  -9  12 1137.20 520.480   3
  -2  -9  13 417.840 415.863   3
  -2  -8  -6 1577.54 555.873   4
  -2  -8  -5 237.094 348.159   4
  -2  -8  -4 358.351 334.130   4
  -2  -8  -3 212.953 288.186   4
  -2  -8  -2 607.495 399.278   4
  -2  -8  -1 1435.12 430.472   4
  -2  -8   0 443.652 305.424   4
  -2  -8   1 1201.81 336.713   4
  -2  -8   2 378.786 206.595   4
  -2  -8   3 546.497 276.707   4
  -2  -8   4 1700.37 380.784   6
  -2  -8   4 2256.72 391.411   4
  -2  -8   5 1111.20 376.675   6
  -2  -8   5 1605.05 334.420   4
  -2  -8   6 761.468 314.934   6
  -2  -8   6 436.804 204.354   4
  -2  -8   7 345.670 201.527   6
  -2  -8   7 392.800 238.931   3
  -2  -8   8 892.138 372.006   3
  -2  -8   8 410.439 249.318   6
  -2  -8   9 651.180 380.777   3
  -2  -8   9 863.966 327.255   6
  -2  -8  10 499.346 335.334   3
  -2  -8  10 195.712 272.417   6
  -2  -8  11 602.073 347.511   3
  -2  -8  12 200.138 352.768   3
  -2  -8  13 2064.06 596.714   3
  -2  -8  14 915.353 476.782   3
  -2  -7  -8-565.185 378.953  10
  -2  -7  -7 186.544 239.119  10
  -2  -7  -7 155.719 301.076   4
  -2  -7  -6 8.42933 326.157   4
  -2  -7  -6 23.5671 232.007  10
  -2  -7  -5 980.675 426.726   4
  -2  -7  -5 1058.46 355.773  10
  -2  -7  -4 1097.09 431.075   4
  -2  -7  -4 785.872 323.004  10
  -2  -7  -3 174.767 244.457   4
  -2  -7  -3 227.527 198.257  10
  -2  -7  -2 157.905 239.309   4
  -2  -7  -2-203.750 163.752  10
  -2  -7  -1-239.558 237.189   4
  -2  -7  -1 182.809 170.741  10
  -2  -7   0 325.382 180.113  10
  -2  -7   0 274.177 230.929   4
  -2  -7   1-649.155 287.971   4
  -2  -7   2 3075.57 471.455   4
  -2  -7   3 1858.55 352.148   4
  -2  -7   4 4089.35 494.019   6
  -2  -7   4 4324.97 480.019   4
  -2  -7   4 4073.50 375.273   5
  -2  -7   5 367.860 202.405   4
  -2  -7   5 371.158 243.424   6
  -2  -7   6 4753.44 473.548   4
  -2  -7   6 4856.56 565.683   6
  -2  -7   7 3939.01 541.105   6
  -2  -7   7 3554.70 384.436   4
  -2  -7   7 3260.24 552.597   3
  -2  -7   8 2362.08 512.812   3
  -2  -7   8 1844.14 417.555   6
  -2  -7   9 3039.67 556.678   3
  -2  -7   9 3020.05 525.034   6
  -2  -7  10 434.377 355.252   3
  -2  -7  11 782.702 395.932   3
  -2  -7  12-57.4980 249.772   3
  -2  -7  13 930.897 406.415   3
  -2  -7  14 324.565 300.268   3
  -2  -7  15 1055.70 426.134   3
  -2  -6  -9 893.644 425.780  10
  -2  -6  -9 232.854 302.704   4
  -2  -6  -8 415.897 360.620  10
  -2  -6  -8 74.6709 325.168   4
  -2  -6  -7 94.7781 272.631  10
  -2  -6  -7 194.550 249.474   4
  -2  -6  -6 23.8872 217.006  10
  -2  -6  -6 443.716 318.204   4
  -2  -6  -5 1465.51 432.213   4
  -2  -6  -4 1412.67 376.737   4
  -2  -6  -3 1306.22 368.623   4
  -2  -6  -2 15.2746 177.469   4
  -2  -6  -1 665.142 251.996   4
  -2  -6   0 664.284 194.802   4
  -2  -6   1 9397.73 735.032   4
  -2  -6   2 419.686 118.724   5
  -2  -6   2 872.944 260.710   4
  -2  -6   3 8633.79 637.974   4
  -2  -6   3 7887.13 444.343   5
  -2  -6   3 6262.75 308.826  10
  -2  -6   4 11.6522 186.089   6
  -2  -6   4 206.842 168.312   4
  -2  -6   5 4770.18 533.232   6
  -2  -6   5 4254.04 417.960   4
  -2  -6   6 7438.42 534.442   4
  -2  -6   6 9190.03 732.341   6
  -2  -6   7 1796.70 371.257   6
  -2  -6   7 1024.36 346.677   3
  -2  -6   7 1357.13 234.973   4
  -2  -6   8 14323.8 645.869   4
  -2  -6   8 14483.7 1081.30   3
  -2  -6   8 14627.0 941.122   6
  -2  -6   9 399.747 157.362   9
  -2  -6   9 1042.76 346.217   3
  -2  -6   9 1010.77 338.391   6
  -2  -6  10 2067.46 328.800   9
  -2  -6  10 3479.70 592.753   3
  -2  -6  11 329.634 190.117   9
  -2  -6  11 438.556 334.902   3
  -2  -6  12 639.854 387.358   3
  -2  -6  13 117.629 280.428   3
  -2  -6  14 1461.38 491.021   3
  -2  -6  15 425.502 377.551   3
  -2  -6  16 284.808 291.702   3
  -2  -5 -10 419.846 387.385   4
  -2  -5 -10 861.216 470.892  10
  -2  -5  -9 785.707 436.258  10
  -2  -5  -9 279.200 282.772   4
  -2  -5  -8-125.421 231.591  10
  -2  -5  -8-211.891 293.047   4
  -2  -5  -7 4186.43 685.872   4
  -2  -5  -6 895.622 379.183   4
  -2  -5  -5 7392.24 811.506   4
  -2  -5  -4 2162.17 432.424   4
  -2  -5  -3 1784.54 390.262   4
  -2  -5  -2 332.368 221.691   4
  -2  -5  -1 482.030 234.102   4
  -2  -5   0 682.509 259.801   4
  -2  -5   1 586.448 206.979   4
  -2  -5   2 1498.81 286.294   4
  -2  -5   2 1191.14 153.384   5
  -2  -5   3 497.022 101.718  10
  -2  -5   3 798.045 95.8272   9
  -2  -5   3 969.085 224.219   4
  -2  -5   4 285.635 66.3864   9
  -2  -5   4 490.070 216.081   6
  -2  -5   4 703.206 200.512   4
  -2  -5   5 1581.32 321.985   6
  -2  -5   5 1563.26 245.330   4
  -2  -5   5 1131.66 144.106   9
  -2  -5   6 46.7988 81.5651   9
  -2  -5   6 110.963 208.432   6
  -2  -5   6 117.785 108.156   4
  -2  -5   7 4521.02 373.460   9
  -2  -5   7 5079.04 357.626   4
  -2  -5   7 5139.16 551.773   6
  -2  -5   7 5196.99 609.198   3
  -2  -5   8 205.956 256.883   6
  -2  -5   8 98.8638 268.974   3
  -2  -5   8 236.546 164.033   9
  -2  -5   9 558.180 201.300   9
  -2  -5   9 194.071 190.912   3
  -2  -5  10 552.163 290.500   3
  -2  -5  10 404.116 208.704   9
  -2  -5  11 2216.46 379.437   9
  -2  -5  11 3996.48 646.273   3
  -2  -5  12 137.358 242.241   3
  -2  -5  12 155.668 180.510   9
  -2  -5  13 1682.25 494.632   3
  -2  -5  13 1111.64 359.589   9
  -2  -5  14 221.342 277.975   3
  -2  -5  14 458.658 306.690   9
  -2  -5  15-130.942 318.219   3
  -2  -5  15 142.923 222.285   9
  -2  -5  16 519.391 331.979   3
  -2  -5  16 96.4954 262.277   9
  -2  -5  17 916.893 460.071   3
  -2  -5  17 96.8929 215.247   9
  -2  -4 -11-205.249 298.053   4
  -2  -4 -11 176.810 295.623  10
  -2  -4 -10 1171.98 431.501  10
  -2  -4 -10 652.895 360.613   4
  -2  -4  -9-128.992 309.606   4
  -2  -4  -8 534.063 374.122   4
  -2  -4  -7 918.354 359.869   4
  -2  -4  -6 2873.13 540.290   4
  -2  -4  -5 2741.49 488.851   4
  -2  -4  -4 1077.50 338.844   4
  -2  -4  -3 535.233 250.732   4
  -2  -4  -2 948.419 304.410   4
  -2  -4  -1 237.996 192.184   4
  -2  -4   0 52.5038 137.809   4
  -2  -4   1 440.747 124.547   9
  -2  -4   1 358.503 158.808   4
  -2  -4   1 402.426 85.3987   5
  -2  -4   2 1540.84 152.652   5
  -2  -4   2 1927.78 174.192   9
  -2  -4   2 1700.06 244.565   4
  -2  -4   3 1412.90 159.280  10
  -2  -4   3 2091.92 169.759   9
  -2  -4   3 2251.87 274.629   4
  -2  -4   4 6847.55 547.806   6
  -2  -4   4 6004.02 405.996   4
  -2  -4   4 6630.23 326.543   9
  -2  -4   4 4590.68 214.716  10
  -2  -4   5 676.420 127.352   9
  -2  -4   5 676.893 140.606   4
  -2  -4   5 887.070 264.267   6
  -2  -4   6 285.196 117.827   9
  -2  -4   6 597.759 224.109   6
  -2  -4   6 470.417 123.588   4
  -2  -4   7 191.333 155.492   9
  -2  -4   7 51.3179 220.625   6
  -2  -4   7 401.333 248.902   3
  -2  -4   8 405.147 200.767   9
  -2  -4   8 504.755 267.156   3
  -2  -4   8 349.000 252.791   6
  -2  -4   9 696.141 241.309   9
  -2  -4   9 928.195 361.831   3
  -2  -4  10 2962.61 425.862   9
  -2  -4  10 2589.22 463.766   3
  -2  -4  11 344.814 220.674   9
  -2  -4  11 285.896 271.737   3
  -2  -4  12 1360.49 366.101   3
  -2  -4  12 1409.39 345.645   9
  -2  -4  13 2003.94 480.146   3
  -2  -4  13 2081.32 451.584   9
  -2  -4  14 315.580 297.092   9
  -2  -4  14 753.231 363.833   3
  -2  -4  15 2709.77 570.320   3
  -2  -4  15 2795.87 571.533   9
  -2  -4  16 1040.50 415.074   9
  -2  -4  16 671.931 378.292   3
  -2  -4  17 963.483 448.497   3
  -2  -4  17 858.705 405.954   9
  -2  -3 -12 7.63880 274.236   4
  -2  -3 -12 579.886 368.310  10
  -2  -3 -11 150.707 336.575  10
  -2  -3 -11-186.733 305.563   4
  -2  -3 -10 369.499 326.957   4
  -2  -3  -9 495.908 337.680   4
  -2  -3  -8 1207.85 378.964   4
  -2  -3  -7-67.4595 236.246   4
  -2  -3  -6 469.613 284.221   4
  -2  -3  -5 2339.81 466.341   4
  -2  -3  -4 1906.51 393.609   4
  -2  -3  -3 1430.11 317.181   4
  -2  -3  -2 14616.1 828.296   4
  -2  -3  -1 997.809 198.963   9
  -2  -3  -1 598.158 185.662   4
  -2  -3   0 25058.6 755.362   9
  -2  -3   0 25381.7 944.020   4
  -2  -3   1 3845.56 268.532   9
  -2  -3   1 3757.67 344.169   4
  -2  -3   2 9717.98 381.705   9
  -2  -3   2 9809.11 501.269   4
  -2  -3   3 12572.0 447.414   9
  -2  -3   3 11808.0 631.838   6
  -2  -3   3 12353.9 502.495   4
  -2  -3   3 11738.2 413.122  10
  -2  -3   4 3849.97 223.679  10
  -2  -3   4 3664.25 375.586   6
  -2  -3   4 3884.53 260.524   4
  -2  -3   4 3942.10 279.216   9
  -2  -3   5 4056.24 321.266   9
  -2  -3   5 4332.11 260.441  10
  -2  -3   5 4019.95 232.437   4
  -2  -3   5 4362.90 414.255   6
  -2  -3   6 4720.15 383.281   9
  -2  -3   6 3314.11 202.937   4
  -2  -3   6 3876.16 206.159   4
  -2  -3   6 4928.53 458.408   6
  -2  -3   7 4705.43 481.371   6
  -2  -3   7 3011.50 167.682   4
  -2  -3   7 4195.02 507.329   3
  -2  -3   7 4007.32 401.950   9
  -2  -3   8 225.490 197.462   3
  -2  -3   8 210.075 56.4958   4
  -2  -3   8 450.272 198.238   9
  -2  -3   9 9337.11 713.837   9
  -2  -3   9 9854.27 820.408   3
  -2  -3  10 246.067 242.276   3
  -2  -3  10 297.233 218.631   9
  -2  -3  11 6475.18 665.324   9
  -2  -3  11 6155.75 704.018   3
  -2  -3  12 130.941 241.056   9
  -2  -3  12 106.195 207.128   3
  -2  -3  13 1068.56 398.980   3
  -2  -3  13 847.836 359.355   9
  -2  -3  14 941.137 363.604   3
  -2  -3  14 1435.30 446.343   9
  -2  -3  15 429.415 277.081   3
  -2  -3  15 750.767 362.616   9
  -2  -3  16 109.671 269.592   3
  -2  -3  16 987.050 434.353   9
  -2  -3  17 253.912 290.809   3
  -2  -3  17 209.540 266.017   9
  -2  -2 -13 714.995 379.275  10
  -2  -2 -13 534.495 371.251   4
  -2  -2 -12 105.096 323.500   4
  -2  -2 -12 288.606 328.691  10
  -2  -2 -11 755.572 403.250   4
  -2  -2 -10 808.761 371.558   4
  -2  -2  -9 1835.99 464.834   4
  -2  -2  -8 958.610 353.628   4
  -2  -2  -7 109.665 212.793   4
  -2  -2  -6 315.156 231.690   4
  -2  -2  -5 3184.84 473.598   4
  -2  -2  -4 245.185 237.078   4
  -2  -2  -3 13952.9 803.972   4
  -2  -2  -2 2317.40 328.513   4
  -2  -2  -2 2161.31 281.226   9
  -2  -2  -1 17302.8 678.569   9
  -2  -2  -1 17806.1 772.235   4
  -2  -2   0-109.623 126.762   4
  -2  -2   0 192.629 107.560   9
  -2  -2   1 8357.88 372.301   9
  -2  -2   1 7607.28 422.896   4
  -2  -2   2 41280.3 840.272   4
  -2  -2   2 42152.9 811.664   9
  -2  -2   3 1084.66 197.314   6
  -2  -2   3 1166.73 162.589   9
  -2  -2   3 1216.42 130.505   4
  -2  -2   3 1149.44 147.482  10
  -2  -2   4 22500.1 681.674   9
  -2  -2   4 20705.5 401.473   4
  -2  -2   4 21192.7 818.252   6
  -2  -2   5 360.712 132.834   9
  -2  -2   5 308.884 175.827   6
  -2  -2   6 11125.8 610.616   9
  -2  -2   6 11079.7 674.151   6
  -2  -2   6 11867.5 700.213   3
  -2  -2   7 257.069 179.763   9
  -2  -2   7 91.2696 32.6806   4
  -2  -2   7 172.879 148.357   3
  -2  -2   8 12587.7 775.745   9
  -2  -2   8 8869.28 319.676   4
  -2  -2   8 12509.9 798.546   3
  -2  -2   9 590.686 243.058   9
  -2  -2   9 95.6562 171.581   3
  -2  -2  10 5119.74 606.499   9
  -2  -2  10 4937.91 592.062   3
  -2  -2  11 318.180 236.307   9
  -2  -2  11 312.534 226.062   3
  -2  -2  12 2028.37 398.801   3
  -2  -2  12 1950.45 430.136   9
  -2  -2  13 468.662 281.980   9
  -2  -2  13 1081.78 357.611   3
  -2  -2  14 677.872 356.812   9
  -2  -2  14 480.084 271.067   3
  -2  -2  15 549.717 363.217   9
  -2  -2  15 188.131 259.621   3
  -2  -2  16 350.154 344.182   3
  -2  -2  16 141.908 257.140   9
  -2  -2  17 143.728 342.173   9
  -2  -1 -14 797.261 524.754   4
  -2  -1 -13 1981.10 551.572   4
  -2  -1 -13 712.207 429.077  10
  -2  -1 -12 337.032 352.283   4
  -2  -1 -11 1076.17 448.849   4
  -2  -1 -10 1227.85 428.359   4
  -2  -1  -9 1741.28 473.879   4
  -2  -1  -8 252.049 255.619   4
  -2  -1  -7 3223.92 496.166   4
  -2  -1  -6-37.0040 209.790   4
  -2  -1  -5 880.163 261.527   4
  -2  -1  -4 4104.48 434.251   4
  -2  -1  -3 53.2366 133.105   9
  -2  -1  -3-245.098 147.339   4
  -2  -1  -2 11022.0 568.497   9
  -2  -1  -2 10552.8 600.674   4
  -2  -1  -1 5757.01 375.732   9
  -2  -1  -1 6187.71 421.398   4
  -2  -1   0 15184.0 532.832   9
  -2  -1   0 15611.0 591.652   4
  -2  -1   1 10921.1 429.079   9
  -2  -1   1 11609.4 434.370   4
  -2  -1   2 12857.6 464.650   9
  -2  -1   2 11863.7 528.712   6
  -2  -1   2 11660.7 356.967   4
  -2  -1   3 250.062 153.759   6
  -2  -1   3 27.4758 90.6215   9
  -2  -1   3 37.4457 35.9318   4
  -2  -1   4 1789.01 221.171   9
  -2  -1   4 1775.67 250.176   6
  -2  -1   5 3479.31 337.002   9
  -2  -1   5 3497.41 364.381   6
  -2  -1   6 1716.23 268.257   9
  -2  -1   6 1736.97 272.715   3
  -2  -1   7 12760.3 396.331   4
  -2  -1   7 15828.5 799.948   3
  -2  -1   7 14554.2 794.770   9
  -2  -1   8 702.160 245.520   9
  -2  -1   8 240.269 153.734   3
  -2  -1   9 1815.89 358.393   9
  -2  -1   9 2525.89 405.958   3
  -2  -1  10 21.8930 215.727   9
  -2  -1  10 214.896 202.764   3
  -2  -1  11 205.697 188.554   9
  -2  -1  11 217.322 211.665   3
  -2  -1  12 801.523 350.424   9
  -2  -1  12 681.078 271.759   3
  -2  -1  13 1680.13 428.602   3
  -2  -1  13 1868.09 477.157   9
  -2  -1  14 692.317 312.053   9
  -2  -1  14 952.782 354.093   3
  -2  -1  15 871.689 492.981   9
  -2  -1  16 485.602 348.290   9
  -2   0 -14-157.517 284.591   4
  -2   0 -14 137.726 259.452  10
  -2   0 -13-139.636 296.319   4
  -2   0 -12 981.677 424.782   4
  -2   0 -11 3272.50 638.240   4
  -2   0 -10-91.4702 220.093   4
  -2   0  -9 795.847 353.735   4
  -2   0  -8-6.97122 207.380   4
  -2   0  -7-256.703 208.353   4
  -2   0  -6 1708.23 356.589   4
  -2   0  -6 1473.10 155.011   1
  -2   0  -5 47.6972 168.706   4
  -2   0  -5 13.2515 36.1714   1
  -2   0  -4 325.419 208.386   4
  -2   0  -4 100.746 42.0666   1
  -2   0  -3 2302.80 293.235   9
  -2   0  -3 2297.80 294.148   4
  -2   0  -3 2076.06 120.836   1
  -2   0  -2 8326.98 495.464   4
  -2   0  -2 7582.56 226.825   8
  -2   0  -2 8249.01 230.394   1
  -2   0  -2 8735.15 494.404   9
  -2   0  -1 688.366 77.3448   8
  -2   0  -1 804.869 162.959   9
  -2   0  -1 848.159 171.209   4
  -2   0   0 2325.04 223.781   9
  -2   0   0 2290.02 221.293   4
  -2   0   1 88.1153 54.1043   5
  -2   0   1 159.921 91.0337   4
  -2   0   1 46.8637 83.8898   9
  -2   0   2 2822.19 262.944   6
  -2   0   2 3217.56 205.192   5
  -2   0   2 3110.22 245.666   9
  -2   0   3 105.325 106.949   9
  -2   0   3 194.541 151.622   6
  -2   0   4 25704.0 564.205   2
  -2   0   4 27079.3 839.128   9
  -2   0   5 2334.29 283.801   9
  -2   0   5 2123.35 243.261   3
  -2   0   5 2076.52 188.260   2
  -2   0   6 33517.7 1000.11   3
  -2   0   6 33245.4 1132.38   9
  -2   0   7 4293.12 465.268   9
  -2   0   7 4309.49 403.859   3
  -2   0   8 11785.4 808.671   9
  -2   0   8 13629.6 727.727   3
  -2   0   9 6728.22 668.275   9
  -2   0   9 7384.53 585.904   3
  -2   0  10 170.080 191.680   3
  -2   0  10 77.4051 202.535   9
  -2   0  11 1792.24 411.266   9
  -2   0  11 2249.08 396.165   3
  -2   0  12-4.41868 162.643   3
  -2   0  12 718.246 348.304   9
  -2   0  13 2831.48 588.108   9
  -2   0  13 2773.48 483.911   3
  -2   0  14 564.434 339.882   9
  -2   0  15 1649.51 516.960   9
  -2   0  16 564.451 377.786   9
  -2   1 -14 8.62708 303.762   4
  -2   1 -14 281.564 296.193  10
  -2   1 -13 728.435 359.504   2
  -2   1 -13 272.509 273.928   4
  -2   1 -12 408.646 300.145   2
  -2   1 -12-274.056 235.217   4
  -2   1 -11 1997.97 467.757   4
  -2   1 -10 48.6877 216.035   4
  -2   1  -9 2472.61 457.566   4
  -2   1  -8 5786.60 639.184   4
  -2   1  -8 5950.07 315.646   1
  -2   1  -7 594.320 294.209   4
  -2   1  -7 857.855 125.093   1
  -2   1  -6 18750.2 430.377   1
  -2   1  -6 20183.2 1001.56   4
  -2   1  -5 278.096 50.4076   1
  -2   1  -5 304.298 198.880   4
  -2   1  -4 16039.3 770.909   9
  -2   1  -4 16682.5 797.289   4
  -2   1  -3 2442.10 287.846   9
  -2   1  -3 2500.73 309.106   4
  -2   1  -2 12830.1 558.275   9
  -2   1  -2 12576.6 587.247   4
  -2   1  -1 1046.22 160.811   9
  -2   1  -1 928.941 175.034   4
  -2   1   0 50939.7 927.143   9
  -2   1   0 51666.1 959.942   4
  -2   1   1 2094.67 194.013   6
  -2   1   1 2052.13 202.772   9
  -2   1   1 2178.01 178.665   5
  -2   1   2 2604.12 239.765   9
  -2   1   2 2682.03 247.299   6
  -2   1   3 4647.28 338.810   9
  -2   1   4 4241.21 262.299   3
  -2   1   4 4625.78 373.816   9
  -2   1   5 27692.7 985.891   9
  -2   1   5 26435.0 728.459   3
  -2   1   6 3322.32 414.310   9
  -2   1   6 3083.00 280.492   3
  -2   1   7 18562.5 964.686   9
  -2   1   7 18619.4 744.214   3
  -2   1   8 2307.72 396.427   9
  -2   1   8 3694.89 378.234   3
  -2   1   9 249.058 262.994   9
  -2   1   9 58.0756 146.198   3
  -2   1  10 264.247 191.297   9
  -2   1  10 581.986 229.542   3
  -2   1  11 72.3003 172.833   3
  -2   1  11 301.382 297.197   9
  -2   1  12 1225.09 315.442   3
  -2   1  12 808.827 360.531   9
  -2   1  13 379.180 306.306   9
  -2   1  14 743.704 392.506   9
  -2   1  15 260.486 291.949   9
  -2   2 -15 285.591 398.167  10
  -2   2 -14 242.615 303.531   4
  -2   2 -13 421.922 315.242   2
  -2   2 -13 369.432 337.256   4
  -2   2 -12 1232.70 420.227   2
  -2   2 -12 1429.17 468.201   4
  -2   2 -11 44.0460 246.924   2
  -2   2 -11-70.4373 235.549   4
  -2   2 -10 3617.33 585.966   2
  -2   2 -10 2998.54 509.853   4
  -2   2  -9 2565.49 461.580   4
  -2   2  -9 2788.97 513.160   2
  -2   2  -8 1600.01 169.501   1
  -2   2  -8 1917.56 386.802   4
  -2   2  -7 14560.4 883.665   4
  -2   2  -7 13162.0 427.907   1
  -2   2  -6 97.2083 161.300   4
  -2   2  -6 52.3624 63.1121   1
  -2   2  -5 15597.9 809.158   4
  -2   2  -5 13541.3 348.938   1
  -2   2  -4 9621.54 619.557   4
  -2   2  -4 7964.79 245.658   1
  -2   2  -4 9237.56 570.971   9
  -2   2  -3 164.919 45.7516   8
  -2   2  -3 154.156 128.987   4
  -2   2  -3 105.776 99.0902   9
  -2   2  -2 1779.24 126.148   8
  -2   2  -2 1870.31 214.531   9
  -2   2  -1 631.201 134.984   9
  -2   2   0 9761.66 420.363   9
  -2   2   0 9697.36 270.953   6
  -2   2   0 10321.1 371.366   3
  -2   2   1 46.6406 89.8684   9
  -2   2   1 53.7982 49.6451   3
  -2   2   1 164.251 93.8177   2
  -2   2   2 7350.31 398.919   9
  -2   2   2 7482.88 218.389   2
  -2   2   2 7395.52 193.687   3
  -2   2   3 1574.52 234.445   9
  -2   2   3 1291.25 93.3601   3
  -2   2   4 16689.4 732.148   9
  -2   2   4 16734.7 403.034   3
  -2   2   5 868.479 120.916   3
  -2   2   5 1038.56 226.979   9
  -2   2   6 6976.77 576.916   9
  -2   2   6 7004.92 385.047   3
  -2   2   7 1533.03 336.216   7
  -2   2   7 1115.55 287.094   9
  -2   2   7 2291.35 258.723   3
  -2   2   8 193.166 161.184   3
  -2   2   8 88.2636 186.337   9
  -2   2   8 334.671 272.395   7
  -2   2   9 774.298 325.794   9
  -2   2   9 516.230 192.736   3
  -2   2   9 775.886 327.501   7
  -2   2  10 1656.62 295.144   3
  -2   2  10 1730.72 433.412   9
  -2   2  11 397.685 302.979   9
  -2   2  12 246.985 246.598   9
  -2   2  13 239.169 293.822   9
  -2   2  14 1443.84 471.486   9
  -2   2  15 294.017 357.049   9
  -2   3 -15 88.0762 234.741  10
  -2   3 -14-91.5649 270.448   2
  -2   3 -13 2161.35 500.727   2
  -2   3 -13 2116.76 530.506   4
  -2   3 -12-86.5848 258.028   2
  -2   3 -12 75.7970 305.359   4
  -2   3 -11 2648.73 513.538   2
  -2   3 -11 2630.30 522.403   4
  -2   3 -10 462.830 281.535   2
  -2   3 -10 904.479 341.582   4
  -2   3  -9 908.205 349.012   2
  -2   3  -9 840.367 306.886   4
  -2   3  -9 743.365 152.944   1
  -2   3  -8 1808.94 431.954   2
  -2   3  -8 1451.68 367.932   4
  -2   3  -8 1268.62 177.205   1
  -2   3  -7-1.59888 189.065   4
  -2   3  -7 149.526 104.379   1
  -2   3  -6 577.334 210.182   4
  -2   3  -6 888.956 298.369   2
  -2   3  -6 625.518 123.592   1
  -2   3  -5 117.887 63.0954   1
  -2   3  -5-63.2744 140.573   9
  -2   3  -4 3831.28 362.115   9
  -2   3  -4 3525.16 401.756   2
  -2   3  -4 3712.58 242.096   8
  -2   3  -4 3388.04 232.031   1
  -2   3  -3 3358.15 294.686   9
  -2   3  -3 3195.32 230.675   8
  -2   3  -3 3151.16 224.134   1
  -2   3  -3 3455.37 360.348   2
  -2   3  -2 12165.0 486.313   9
  -2   3  -2 11895.6 449.496   8
  -2   3  -2 12484.6 599.935   2
  -2   3  -1 461.367 143.095   2
  -2   3  -1 728.665 117.648   9
  -2   3  -1 767.244 140.096   8
  -2   3   0 4311.73 281.337   2
  -2   3   0 4655.82 246.689   3
  -2   3   0 4367.73 286.993   9
  -2   3   1 159.726 77.8332   9
  -2   3   1 299.768 56.8713   3
  -2   3   1 152.514 85.8787   2
  -2   3   2 123.681 108.866   9
  -2   3   3 8672.28 498.707   9
  -2   3   4 1405.39 251.366   9
  -2   3   5 2524.00 167.722   3
  -2   3   5 2366.83 355.191   9
  -2   3   5 2475.75 367.965   7
  -2   3   6 1300.18 151.657   3
  -2   3   6 1080.56 255.543   9
  -2   3   6 1375.37 314.054   7
  -2   3   7 5827.59 600.992   9
  -2   3   7 6970.82 654.738   7
  -2   3   7 7145.47 390.253   3
  -2   3   8 3840.54 527.127   9
  -2   3   8 4138.85 555.257   7
  -2   3   8 4093.59 340.514   3
  -2   3   9 5628.46 654.538   9
  -2   3   9 5579.24 681.524   7
  -2   3   9 5787.75 434.655   3
  -2   3  10 1498.99 402.963   9
  -2   3  10 2495.70 511.103   7
  -2   3  11 463.341 321.615   9
  -2   3  12 1850.14 498.930   9
  -2   3  13 185.626 298.320   9
  -2   3  14 1817.34 501.386   9
  -2   4 -16-1056.68 413.912  10
  -2   4 -15 485.254 294.579  10
  -2   4 -14-479.395 394.792   2
  -2   4 -13-373.123 311.074   2
  -2   4 -12-548.652 358.002   2
  -2   4 -11 366.950 284.567   2
  -2   4 -10 651.203 282.788   2
  -2   4  -9 301.534 270.671   2
  -2   4  -9 192.397 127.162   1
  -2   4  -8 79.9550 241.738   2
  -2   4  -8 147.228 106.161   1
  -2   4  -7 734.064 255.678   2
  -2   4  -7 722.858 170.625   1
  -2   4  -6-8.08417 209.134   2
  -2   4  -6 174.606 108.735   1
  -2   4  -5 2187.89 292.367   9
  -2   4  -5 2123.30 232.524   1
  -2   4  -5 2591.25 259.665   8
  -2   4  -5 1996.51 334.617   2
  -2   4  -4 751.433 147.039   8
  -2   4  -4 683.134 124.332   6
  -2   4  -4 509.373 168.214   2
  -2   4  -4 764.196 173.900   9
  -2   4  -4 670.626 143.001   1
  -2   4  -3 26675.8 987.486   2
  -2   4  -3 28010.6 815.395   8
  -2   4  -3 28691.6 803.739   9
  -2   4  -3 27540.1 803.703   1
  -2   4  -2 8254.82 393.693   9
  -2   4  -2 8874.57 467.520   8
  -2   4  -2 8725.11 539.509   2
  -2   4  -1 4128.80 265.934   9
  -2   4  -1 4397.32 368.085   2
  -2   4  -1 4464.13 346.169   8
  -2   4   0 11613.0 458.581   9
  -2   4   0 11687.2 584.098   8
  -2   4   0 11036.2 523.144   2
  -2   4   1 8432.80 433.462   9
  -2   4   1 8998.70 442.374   2
  -2   4   2 9021.44 487.188   9
  -2   4   3 8404.49 520.956   9
  -2   4   4 1588.48 275.814   9
  -2   4   4 1765.26 341.557   7
  -2   4   5 2923.14 379.486   9
  -2   4   5 3413.82 452.496   7
  -2   4   6 564.465 219.504   9
  -2   4   6 268.185 280.428   7
  -2   4   7 5689.38 615.856   9
  -2   4   7 7321.74 712.811   7
  -2   4   8 412.471 250.701   9
  -2   4   8 635.956 300.714   7
  -2   4   9 8076.04 852.974   7
  -2   4   9 7300.74 758.163   9
  -2   4  10 377.166 320.000   9
  -2   4  10 496.906 339.226   7
  -2   4  11 3296.36 583.072   9
  -2   4  12 1235.53 443.745   9
  -2   4  13 746.270 383.157   9
  -2   4  14 1825.31 573.204   9
  -2   5 -15 3078.59 653.933   2
  -2   5 -14 996.945 416.712   2
  -2   5 -13 344.874 275.616   2
  -2   5 -12 3355.42 606.293   2
  -2   5 -11 1021.63 399.209   2
  -2   5 -10 5921.28 713.011   2
  -2   5 -10 5954.95 473.546   1
  -2   5  -9 1021.15 220.271   1
  -2   5  -9 627.217 262.405   2
  -2   5  -8 4018.87 556.953   2
  -2   5  -8 3501.31 365.727   1
  -2   5  -7 189.259 231.951   2
  -2   5  -7 67.7291 133.215   1
  -2   5  -6 9557.33 560.615   8
  -2   5  -6 9119.07 719.656   2
  -2   5  -6 9025.44 541.228   1
  -2   5  -5 1181.12 319.955   2
  -2   5  -5 1089.86 215.445   1
  -2   5  -5 1160.30 223.805   8
  -2   5  -4 27177.2 924.261   8
  -2   5  -4 25454.1 814.369   9
  -2   5  -4 26475.3 915.415   1
  -2   5  -4 25208.7 1085.96   2
  -2   5  -3 3034.28 257.774   9
  -2   5  -3 2773.17 360.347   2
  -2   5  -3 3012.61 320.854   8
  -2   5  -3 3371.32 342.844   1
  -2   5  -2 7273.64 353.233   9
  -2   5  -2 7606.95 513.131   8
  -2   5  -2 7896.83 561.602   2
  -2   5  -1 10915.6 613.683   8
  -2   5  -1 9632.26 403.965   9
  -2   5  -1 10170.7 598.031   2
  -2   5   0 158.181 89.6048   9
  -2   5   0-59.2740 115.335   8
  -2   5   0 34.6463 111.097   2
  -2   5   1 18687.2 661.976   9
  -2   5   1 20239.7 901.765   8
  -2   5   2-6.03084 89.9322   9
  -2   5   2 119.546 168.575   8
  -2   5   3 4796.25 430.424   9
  -2   5   4 479.164 249.634   7
  -2   5   4 66.7621 156.976   9
  -2   5   5 12.1797 174.055   9
  -2   5   5 142.087 216.928   7
  -2   5   6 997.780 319.471   7
  -2   5   6 731.949 216.534   9
  -2   5   7 283.253 260.582   7
  -2   5   7 44.9077 160.887   9
  -2   5   8 79.0681 223.339   9
  -2   5   8 335.951 294.529   7
  -2   5   9 31.3865 200.506   9
  -2   5   9 594.825 313.087   7
  -2   5  10 863.008 364.124   7
  -2   5  10 419.342 259.059   9
  -2   5  11 284.694 232.236   9
  -2   5  12-335.479 343.835   9
  -2   5  13 266.393 328.421   9
  -2   6 -15 226.762 301.868   2
  -2   6 -14 1020.30 416.996   2
  -2   6 -13 2942.69 625.349   2
  -2   6 -12 851.887 448.482   2
  -2   6 -11 5858.35 774.177   2
  -2   6 -10-30.3689 126.445   1
  -2   6 -10 175.880 343.147   2
  -2   6  -9 1810.66 458.118   2
  -2   6  -9 1575.60 277.379   1
  -2   6  -8 405.838 305.120   2
  -2   6  -8 485.488 176.541   1
  -2   6  -7 256.260 167.918   1
  -2   6  -7 288.664 282.908   2
  -2   6  -6 312.272 140.798   1
  -2   6  -6 487.005 281.093   2
  -2   6  -6 414.947 221.850   8
  -2   6  -5 4849.21 472.481   8
  -2   6  -5 5315.89 574.971   2
  -2   6  -5 5125.60 461.058   1
  -2   6  -4 6169.71 506.180   8
  -2   6  -4 6818.90 623.746   2
  -2   6  -4 6682.21 526.196   1
  -2   6  -4 7256.06 414.328   9
  -2   6  -3 833.394 139.163   9
  -2   6  -3 1153.56 278.601   8
  -2   6  -3 724.040 226.285   1
  -2   6  -3 804.087 257.700   2
  -2   6  -2 1740.16 170.616   9
  -2   6  -2 1755.80 288.434   8
  -2   6  -2 1519.68 268.824   2
  -2   6  -1-64.7239 73.3265   9
  -2   6  -1 91.7628 143.782   8
  -2   6  -1 148.717 170.771   2
  -2   6   0 10905.7 709.212   8
  -2   6   0 11290.9 478.262   9
  -2   6   1 2950.73 281.798   9
  -2   6   1 3455.34 422.385   8
  -2   6   2 687.705 163.783   9
  -2   6   2 711.286 228.845   8
  -2   6   3 976.966 222.123   9
  -2   6   3 1499.24 325.988   8
  -2   6   4 1542.61 282.634   9
  -2   6   4 1696.71 347.465   8
  -2   6   4 1572.67 397.268   7
  -2   6   5 3944.52 511.046   8
  -2   6   5 3824.41 460.711   9
  -2   6   5 3917.49 548.487   7
  -2   6   6 580.789 213.883   8
  -2   6   6 105.215 153.976   9
  -2   6   6 1023.06 396.148   7
  -2   6   7-200.729 180.513   9
  -2   6   7 546.167 279.652   8
  -2   6   7 65.8210 242.583   7
  -2   6   8 16.7001 220.182   9
  -2   6   8-69.2093 190.602   8
  -2   6   8 406.712 316.742   7
  -2   6   9-325.287 195.861   8
  -2   6   9 116.147 211.682   9
  -2   6   9 359.487 316.219   7
  -2   6  10 391.170 279.337   9
  -2   6  10 616.414 277.799   8
  -2   6  11 215.957 241.839   9
  -2   6  11 64.1171 228.337   8
  -2   6  12-156.199 229.686   9
  -2   6  13-10.4229 226.776   9
  -2   7 -15 549.340 402.428   2
  -2   7 -14-16.6535 248.609   2
  -2   7 -13 319.992 340.710   2
  -2   7 -12 638.907 378.285   2
  -2   7 -11 505.202 373.774   2
  -2   7 -10 402.861 303.667   2
  -2   7 -10 13.6687 133.763   1
  -2   7  -9 180.330 146.260   1
  -2   7  -9 627.544 330.644   2
  -2   7  -8 1502.94 306.299   1
  -2   7  -8 1576.66 364.815   2
  -2   7  -7 1239.71 276.562   1
  -2   7  -7 1854.93 349.808   8
  -2   7  -7 1573.75 411.750   2
  -2   7  -6 99.5983 154.782   8
  -2   7  -6 148.035 162.546   1
  -2   7  -6 146.144 249.762   2
  -2   7  -5 2405.48 359.021   8
  -2   7  -5 1342.95 337.953   2
  -2   7  -5 1995.35 336.713   1
  -2   7  -4 61.1950 148.238   8
  -2   7  -4 294.738 205.843   1
  -2   7  -4-106.678 204.922   2
  -2   7  -3 7319.59 333.725   9
  -2   7  -3 8435.67 671.055   8
  -2   7  -3 8164.70 646.834   1
  -2   7  -3 7270.53 636.065   2
  -2   7  -2-77.2595 199.449   2
  -2   7  -2-93.1281 68.8617   9
  -2   7  -2 61.3510 176.637   8
  -2   7  -1 6044.59 306.394   9
  -2   7  -1 6882.37 622.637   8
  -2   7   0 330.606 127.032   9
  -2   7   0 325.141 209.402   8
  -2   7   1 4307.22 346.354   9
  -2   7   1 5626.59 594.846   8
  -2   7   2-28.4805 102.110   9
  -2   7   2 29.5529 156.374   8
  -2   7   3 9560.30 785.194   8
  -2   7   3 7940.67 554.337   9
  -2   7   4 4192.23 460.707   9
  -2   7   4 5072.86 587.357   8
  -2   7   5 2364.62 368.219   9
  -2   7   5 2792.88 450.229   8
  -2   7   5 2741.59 511.514   7
  -2   7   6 2732.94 413.021   9
  -2   7   6 3306.03 513.144   8
  -2   7   6 2720.24 529.010   7
  -2   7   7 255.269 191.245   9
  -2   7   7 407.829 263.225   8
  -2   7   7 277.317 293.466   7
  -2   7   8 1082.50 346.127   9
  -2   7   8 1935.99 425.559   8
  -2   7   9 66.2582 198.463   9
  -2   7   9 905.478 335.170   8
  -2   7  10 649.749 329.223   9
  -2   7  10 1463.77 419.661   8
  -2   7  11-60.4033 223.708   9
  -2   7  12-71.6773 305.472   9
  -2   8 -15-214.484 375.022   2
  -2   8 -14 297.954 342.091   2
  -2   8 -13 507.186 338.426   2
  -2   8 -12 447.441 306.308   2
  -2   8 -11 333.359 205.680   1
  -2   8 -11-172.686 294.218   2
  -2   8 -10 81.2871 140.321   1
  -2   8 -10-168.999 221.092   2
  -2   8  -9 4149.88 518.044   1
  -2   8  -9 4998.57 732.478   2
  -2   8  -8 2087.90 387.564   1
  -2   8  -8 2553.76 509.691   2
  -2   8  -7 3673.63 514.459   8
  -2   8  -7 3257.63 563.483   2
  -2   8  -7 2828.35 437.568   1
  -2   8  -6 1781.00 372.875   8
  -2   8  -6 1897.96 438.699   2
  -2   8  -6 2404.77 405.110   1
  -2   8  -5-93.9120 224.456   2
  -2   8  -5 36.3918 173.630   1
  -2   8  -5 317.394 204.125   8
  -2   8  -4 2692.28 428.443   8
  -2   8  -4 3189.91 506.574   2
  -2   8  -4 3368.51 493.401   1
  -2   8  -3 1701.00 348.809   8
  -2   8  -3 1334.60 344.879   2
  -2   8  -2 4518.03 545.430   8
  -2   8  -1 396.126 269.107   8
  -2   8   0 2748.07 451.798   8
  -2   8   1 1142.71 343.149   8
  -2   8   2 2505.87 457.076   8
  -2   8   3 8091.77 792.009   8
  -2   8   4 446.057 195.027   9
  -2   8   4 428.638 265.474   8
  -2   8   5 3221.43 433.045   9
  -2   8   5 4438.86 618.344   8
  -2   8   6-62.0286 185.858   9
  -2   8   6 53.1643 211.720   8
  -2   8   7 1431.82 396.084   8
  -2   8   8 2442.41 503.334   8
  -2   8   9-42.2051 188.373   8
  -2   9 -14 1073.59 473.113   2
  -2   9 -13 60.1073 360.014   2
  -2   9 -12 1082.29 419.879   2
  -2   9 -11-27.6367 207.138   1
  -2   9 -11 175.868 272.604   2
  -2   9 -10 3751.99 545.405   1
  -2   9 -10 2806.43 582.672   2
  -2   9  -9 301.228 361.524   2
  -2   9  -9 436.603 226.800   1
  -2   9  -8 4837.28 615.241   8
  -2   9  -8 5320.76 617.937   1
  -2   9  -8 5236.16 734.067   2
  -2   9  -7 698.687 306.870   8
  -2   9  -7 728.173 329.534   2
  -2   9  -7 1362.30 343.519   1
  -2   9  -6 1124.46 389.318   2
  -2   9  -6 1126.87 347.623   8
  -2   9  -6 1337.77 338.245   1
  -2   9  -5 1501.76 336.622   8
  -2   9  -5 1880.87 418.815   2
  -2   9  -5 2070.63 419.402   1
  -2   9  -4 980.877 300.884   8
  -2   9  -4 932.388 311.675   2
  -2   9  -3 1612.99 405.420   8
  -2   9  -2 60.5340 220.608   8
  -2   9  -1 2806.27 497.651   8
  -2   9   0 596.957 275.780   8
  -2   9   1 974.517 301.633   8
  -2   9   2 13.7947 175.096   8
  -2   9   3 545.536 324.079   8
  -2   9   4 66.7382 222.079   8
  -2   9   5 407.201 274.011   8
  -2   9   6 365.625 307.929   8
  -2   9   7 160.661 195.300   8
  -2   9   8 653.428 355.727   8
  -2   9   9-109.845 269.499   8
  -2  10 -13-40.3785 316.848   2
  -2  10 -12-224.235 359.823   2
  -2  10 -11 365.196 308.555   2
  -2  10 -11 8.15014 199.627   1
  -2  10 -10 1091.35 398.107   2
  -2  10 -10 757.072 345.636   1
  -2  10  -9 687.305 377.188   2
  -2  10  -9 941.811 341.798   1
  -2  10  -8 1902.56 478.809   8
  -2  10  -8 2049.17 557.953   2
  -2  10  -8 1942.52 451.484   1
  -2  10  -7 6.90849 165.356   8
  -2  10  -7 109.301 228.235   2
  -2  10  -7 343.866 258.321   1
  -2  10  -6 1190.38 377.756   8
  -2  10  -6 805.262 308.960   2
  -2  10  -6 689.383 326.290   1
  -2  10  -5 1523.84 395.702   8
  -2  10  -4 350.650 262.044   8
  -2  10  -3-182.742 285.042   8
  -2  10  -2-115.188 208.611   8
  -2  10  -1 1890.05 449.990   8
  -2  10   0 144.204 227.505   8
  -2  10   1 686.727 360.295   8
  -2  10   2 450.142 280.550   8
  -2  10   3 109.260 216.121   8
  -2  10   4-277.222 263.253   8
  -2  10   5 325.579 255.034   8
  -2  10   6 65.6609 253.717   8
  -2  10   7 529.524 291.474   8
  -2  10   8 311.403 253.503   8
  -2  11 -12 167.757 343.215   2
  -2  11 -11 143.349 280.682   2
  -2  11 -11 392.507 256.272   1
  -2  11 -10 349.835 374.450   2
  -2  11 -10 256.014 245.517   1
  -2  11  -9 612.617 367.977   2
  -2  11  -9 484.650 290.604   1
  -2  11  -8-173.867 407.905   2
  -2  11  -8 204.593 256.045   8
  -2  11  -8-259.528 194.457   1
  -2  11  -7 1456.28 406.116   1
  -2  11  -7 1432.68 423.915   8
  -2  11  -6 644.085 376.442   8
  -2  11  -5 2683.58 544.598   8
  -2  11  -4 876.206 348.450   8
  -2  11  -3 2940.82 577.910   8
  -2  11  -2 662.406 296.578   8
  -2  11  -1 3150.22 629.128   8
  -2  11   0 4338.21 690.718   8
  -2  11   1 1815.08 488.472   8
  -2  11   2 1027.65 406.663   8
  -2  11   3 377.359 287.684   8
  -2  11   4-116.238 210.559   8
  -2  11   5-144.517 258.955   8
  -2  11   6 1058.10 432.087   8
  -2  12 -11 368.361 286.016   1
  -2  12 -10 870.687 355.185   1
  -2  12  -9-179.559 207.851   1
  -2  12  -8 355.343 284.062   8
  -2  12  -7 394.920 263.663   8
  -2  12  -6 990.118 403.468   8
  -2  12  -5-85.0748 252.230   8
  -2  12  -4 875.552 352.568   8
  -2  12  -3 1140.89 390.055   8
  -2  12  -2 296.114 292.984   8
  -2  12  -1 3031.67 644.425   8
  -2  12   0-39.5092 270.240   8
  -2  12   1 961.146 409.186   8
  -2  12   2 521.513 293.056   8
  -2  12   3-446.431 306.864   8
  -2  13  -8 301.634 348.609   8
  -2  13  -7 573.984 386.999   8
  -2  13  -6 253.922 300.006   8
  -2  13  -5 364.300 353.302   8
  -2  13  -4 747.265 381.178   8
  -2  13  -3 418.297 424.865   8
  -2  13  -2 318.543 371.970   8
  -1 -12   2 78.8034 238.529   4
  -1 -12   3 1134.28 442.601   4
  -1 -12   4 665.640 367.899   4
  -1 -12   6 218.865 318.330   3
  -1 -12   7 216.274 318.724   3
  -1 -12   8 662.854 400.328   3
  -1 -12   9-266.097 331.579   3
  -1 -11  -1-63.0790 334.207   4
  -1 -11   0-34.6685 261.316   4
  -1 -11   1 162.850 238.827   4
  -1 -11   2 824.800 372.150   4
  -1 -11   3 81.3194 207.385   4
  -1 -11   4-42.5009 246.132   3
  -1 -11   4 76.3440 194.949   4
  -1 -11   5 938.398 426.356   3
  -1 -11   5 1463.37 377.421   4
  -1 -11   6 375.892 232.489   3
  -1 -11   7 897.519 380.736   3
  -1 -11   8 1136.92 439.110   3
  -1 -11   9 1608.62 545.916   3
  -1 -11  10 651.926 410.421   3
  -1 -11  11 3825.79 776.478   3
  -1 -10  -3 709.757 403.146   4
  -1 -10  -2 646.106 354.629   4
  -1 -10  -1 1555.69 515.503   4
  -1 -10   0 1560.36 452.010   4
  -1 -10   1 1611.75 450.425   4
  -1 -10   2 597.941 332.881   4
  -1 -10   3 130.082 204.864   6
  -1 -10   3 447.449 353.556   4
  -1 -10   4 50.5968 210.888   3
  -1 -10   4 39.9804 228.064   4
  -1 -10   5 235.158 260.511   3
  -1 -10   5 878.737 297.212   4
  -1 -10   6 10.8035 216.617   3
  -1 -10   6 43.8762 165.727   4
  -1 -10   7 1139.43 421.775   3
  -1 -10   8-149.661 278.991   3
  -1 -10   9 285.911 312.541   3
  -1 -10  10 1243.12 468.837   3
  -1 -10  11 796.903 480.099   3
  -1 -10  12 1752.67 609.024   3
  -1 -10  13-15.7121 287.235   3
  -1  -9  -5 2104.86 615.518   4
  -1  -9  -4 895.232 438.474   4
  -1  -9  -3 1103.12 444.623   4
  -1  -9  -2 3317.90 629.183   4
  -1  -9  -1 821.363 363.019   4
  -1  -9   0 7040.08 830.097   4
  -1  -9   1 966.326 342.150   4
  -1  -9   2 980.926 346.887   4
  -1  -9   3-19.6690 207.534   4
  -1  -9   4-213.301 223.507   6
  -1  -9   4 188.719 229.563   4
  -1  -9   5 821.982 313.905   6
  -1  -9   5 351.093 243.381   3
  -1  -9   5 146.719 178.031   4
  -1  -9   6 3184.14 502.387   6
  -1  -9   6 3104.26 580.246   3
  -1  -9   6 2726.06 434.275   4
  -1  -9   7-22.3529 178.369   6
  -1  -9   7 274.042 283.368   3
  -1  -9   7-173.581 162.588   4
  -1  -9   8 2500.66 581.400   3
  -1  -9   9 508.052 343.054   3
  -1  -9  10 879.464 405.177   3
  -1  -9  11 1854.96 542.552   3
  -1  -9  12 293.520 324.429   3
  -1  -9  13 258.611 444.390   3
  -1  -9  14 697.966 473.479   3
  -1  -8  -8 61.4322 336.076  10
  -1  -8  -7 336.385 316.335   4
  -1  -8  -7-165.384 255.337  10
  -1  -8  -6 405.402 336.536  10
  -1  -8  -6 592.862 391.990   4
  -1  -8  -5 193.598 235.422   4
  -1  -8  -5 363.476 281.599  10
  -1  -8  -4 232.149 322.983   4
  -1  -8  -4-137.166 188.671  10
  -1  -8  -3-70.6835 250.050   4
  -1  -8  -3 16.4312 249.246  10
  -1  -8  -2 898.171 269.058  10
  -1  -8  -2 257.463 290.204   4
  -1  -8  -1 68.4962 239.118   4
  -1  -8   0 731.598 300.484   4
  -1  -8   1 476.793 275.832   4
  -1  -8   2 977.646 221.979   5
  -1  -8   2 1070.15 337.930   4
  -1  -8   3 2144.17 317.478   5
  -1  -8   3 2093.43 408.110   4
  -1  -8   4 1487.91 278.524   5
  -1  -8   4 1187.46 301.682   6
  -1  -8   4 1372.05 341.592   4
  -1  -8   5 268.854 215.838   3
  -1  -8   5-11.7994 156.615   4
  -1  -8   5 189.349 187.113   6
  -1  -8   6 36.5771 193.280   3
  -1  -8   6-183.045 168.143   4
  -1  -8   6 316.449 230.028   6
  -1  -8   7 221.049 218.721   6
  -1  -8   7 480.847 300.901   3
  -1  -8   8 2349.29 401.897   6
  -1  -8   8 2976.13 555.508   3
  -1  -8   9-23.2528 255.312   3
  -1  -8   9 106.170 203.652   6
  -1  -8  10 687.886 335.109   3
  -1  -8  11 1299.75 491.007   3
  -1  -8  12 498.604 349.795   3
  -1  -8  13 336.577 403.452   3
  -1  -8  14 357.742 309.122   3
  -1  -8  15 163.176 289.784   3
  -1  -7  -9-218.935 273.065  10
  -1  -7  -8-219.796 273.554   4
  -1  -7  -8 63.1226 229.265  10
  -1  -7  -7 217.603 313.702   4
  -1  -7  -7 277.548 271.272  10
  -1  -7  -6 1406.50 444.201  10
  -1  -7  -6 2535.91 585.057   4
  -1  -7  -5 229.756 267.090   4
  -1  -7  -5 189.582 230.558  10
  -1  -7  -4 1442.93 403.793   4
  -1  -7  -4 1172.03 335.925  10
  -1  -7  -3 801.078 287.073  10
  -1  -7  -3-179.370 216.411   4
  -1  -7  -2 392.283 206.221  10
  -1  -7  -2-154.175 242.027   4
  -1  -7  -1 139.364 168.572  10
  -1  -7  -1 306.962 227.904   4
  -1  -7   0 3969.25 533.321   4
  -1  -7   0 2838.90 345.799  10
  -1  -7   1 1467.85 242.637   5
  -1  -7   1 1137.49 209.626  10
  -1  -7   1 1495.93 364.767   4
  -1  -7   2 13343.7 678.788   5
  -1  -7   2 12474.1 853.524   4
  -1  -7   3 1205.99 242.356   5
  -1  -7   3 815.957 244.111   4
  -1  -7   4 7655.40 631.945   4
  -1  -7   4 7102.12 583.288   6
  -1  -7   5 7595.15 616.231   4
  -1  -7   5 7853.08 621.285   6
  -1  -7   6 434.574 257.056   3
  -1  -7   6 276.768 202.376   6
  -1  -7   7 14810.6 1058.73   3
  -1  -7   7 14390.2 845.450   6
  -1  -7   8-122.348 211.416   3
  -1  -7   8 124.644 249.510   6
  -1  -7   9 7197.31 809.182   3
  -1  -7  10 19.4332 226.070   3
  -1  -7  11 737.788 368.492   3
  -1  -7  12 418.186 304.082   3
  -1  -7  13 2621.54 605.587   3
  -1  -7  14 2096.46 564.073   3
  -1  -7  15 1389.31 511.199   3
  -1  -6 -10 481.213 258.360  10
  -1  -6 -10 216.603 361.739   4
  -1  -6  -9 499.035 374.024  10
  -1  -6  -9 1170.16 485.677   4
  -1  -6  -8 2443.74 611.740   4
  -1  -6  -8 762.093 357.743  10
  -1  -6  -7-29.8507 225.784  10
  -1  -6  -7 356.521 344.041   4
  -1  -6  -6-120.267 239.408  10
  -1  -6  -6 236.077 283.202   4
  -1  -6  -5 1894.29 419.933  10
  -1  -6  -5 1388.39 368.120   4
  -1  -6  -4 779.454 316.466   4
  -1  -6  -4 941.270 286.220  10
  -1  -6  -3 2901.05 487.544   4
  -1  -6  -3 2346.19 395.895  10
  -1  -6  -2 574.176 289.122   4
  -1  -6  -2 121.490 200.448  10
  -1  -6  -1 1390.70 295.416  10
  -1  -6  -1 1666.40 369.728   4
  -1  -6   0 164.810 132.011   5
  -1  -6   0 14.1863 127.197  10
  -1  -6   0 121.560 190.337   4
  -1  -6   1 9832.09 730.893   4
  -1  -6   1 8858.22 474.895  10
  -1  -6   1 9671.09 531.869   5
  -1  -6   2 1109.97 192.868   5
  -1  -6   2 787.887 126.928  10
  -1  -6   2 1173.61 256.036   4
  -1  -6   3 12204.6 733.323   4
  -1  -6   4 1283.87 277.618   6
  -1  -6   4 1238.12 241.538   4
  -1  -6   5 538.047 219.083   6
  -1  -6   6 1347.81 143.676   9
  -1  -6   6 2321.48 430.944   3
  -1  -6   6 2309.68 361.688   6
  -1  -6   7 365.568 118.573   9
  -1  -6   7 763.773 229.878   6
  -1  -6   7 594.823 267.443   3
  -1  -6   8 2229.48 446.286   3
  -1  -6   8 2228.21 408.431   6
  -1  -6   8 1968.10 250.599   9
  -1  -6   9 171.737 138.435   9
  -1  -6   9 34.8945 235.070   3
  -1  -6  10 365.033 278.054   3
  -1  -6  10 227.670 175.324   9
  -1  -6  11-149.113 237.041   3
  -1  -6  11 290.363 246.825   9
  -1  -6  12 1082.59 378.267   3
  -1  -6  12 1482.29 368.897   9
  -1  -6  13 42.0627 177.693   9
  -1  -6  13 778.449 410.708   3
  -1  -6  14 286.673 396.016   3
  -1  -6  14 55.4935 213.485   9
  -1  -6  15 412.343 323.415   9
  -1  -6  15 252.990 318.028   3
  -1  -6  16-128.592 329.955   3
  -1  -5 -11 2273.38 623.199   4
  -1  -5 -11 2635.47 645.607  10
  -1  -5 -10-292.185 362.049   4
  -1  -5 -10-280.706 258.073  10
  -1  -5  -9 2750.42 634.983   4
  -1  -5  -9 2980.08 618.180  10
  -1  -5  -8 846.190 371.697  10
  -1  -5  -8 1141.84 381.259   4
  -1  -5  -7 431.696 273.574   4
  -1  -5  -7 438.179 299.055  10
  -1  -5  -6 4001.46 609.556   4
  -1  -5  -6 4829.98 658.133  10
  -1  -5  -5 1223.86 345.543   4
  -1  -5  -4 3976.39 551.060   4
  -1  -5  -3 704.233 196.768   4
  -1  -5  -2-127.733 182.229   4
  -1  -5  -1 204.052 189.175   4
  -1  -5   0 2528.35 264.926   5
  -1  -5   0 2403.15 371.826   4
  -1  -5   1 726.111 156.956   5
  -1  -5   1 563.603 206.984   4
  -1  -5   2 14050.8 730.974   4
  -1  -5   2 14413.4 596.317   5
  -1  -5   2 13561.3 425.838  10
  -1  -5   3 3796.62 372.686   4
  -1  -5   4 701.054 241.921   6
  -1  -5   5 325.803 88.7377   9
  -1  -5   5 260.653 72.2486   9
  -1  -5   5 445.270 244.990   6
  -1  -5   6 444.950 207.170   6
  -1  -5   6 420.029 127.819   9
  -1  -5   6 388.150 240.296   3
  -1  -5   7 281.352 210.290   6
  -1  -5   7 139.611 222.734   3
  -1  -5   7-7.56824 110.266   9
  -1  -5   8 2863.91 351.718   9
  -1  -5   8 3787.51 573.155   3
  -1  -5   9 1694.81 307.959   9
  -1  -5   9 1586.96 431.794   3
  -1  -5  10 2630.53 418.552   9
  -1  -5  10 3304.76 542.248   3
  -1  -5  11 2706.89 451.000   9
  -1  -5  11 3563.66 599.209   3
  -1  -5  12 2945.84 490.811   9
  -1  -5  12 1846.26 418.513   3
  -1  -5  13 495.675 279.018   9
  -1  -5  13 470.709 291.555   3
  -1  -5  14 620.143 319.057   9
  -1  -5  14 124.548 270.102   3
  -1  -5  15 193.710 207.831   9
  -1  -5  15-257.555 331.868   3
  -1  -5  16 1289.12 553.910   3
  -1  -5  16 945.380 360.457   9
  -1  -5  17 57.6788 242.826   9
  -1  -4 -12 61.3078 308.933  10
  -1  -4 -12 114.573 315.791   4
  -1  -4 -11 296.404 253.466  10
  -1  -4 -11 362.262 365.609   4
  -1  -4 -10 383.252 281.107  10
  -1  -4 -10 471.566 336.497   4
  -1  -4  -9 262.862 225.852   4
  -1  -4  -9 308.169 258.021  10
  -1  -4  -8 446.531 288.555   4
  -1  -4  -8 731.241 349.007  10
  -1  -4  -7-184.559 188.335   4
  -1  -4  -6 1215.45 354.984   4
  -1  -4  -5 543.138 270.357   4
  -1  -4  -4-354.764 223.165   4
  -1  -4  -3 4708.90 511.415   4
  -1  -4  -2-85.7707 182.633   4
  -1  -4  -1 22593.3 973.265   4
  -1  -4   0 382.697 173.810   4
  -1  -4   0 6.47654 89.2146   5
  -1  -4   1 10.1036 64.3042   5
  -1  -4   1-71.4471 108.976   4
  -1  -4   2 237.058 65.6462  10
  -1  -4   2 468.411 144.990   4
  -1  -4   3 873.765 183.732   6
  -1  -4   4 9257.46 332.293   9
  -1  -4   4 10364.6 571.211   6
  -1  -4   5 3691.90 277.199   9
  -1  -4   5 3852.16 377.629   6
  -1  -4   6 2160.87 323.444   6
  -1  -4   6 1619.75 319.308   3
  -1  -4   6 1961.10 243.558   9
  -1  -4   7 4525.83 415.413   9
  -1  -4   7 5512.67 569.707   3
  -1  -4   8 3871.39 485.115   3
  -1  -4   9 1744.95 379.459   3
  -1  -4  10 3677.89 541.650   3
  -1  -4  11 2757.18 481.026   3
  -1  -4  12 428.240 282.758   3
  -1  -4  13 401.166 285.216   3
  -1  -4  14 637.324 329.896   3
  -1  -4  14 902.894 334.637   9
  -1  -4  15 849.392 412.954   3
  -1  -4  15 472.625 283.491   9
  -1  -4  16 58.7552 280.349   3
  -1  -4  16 502.286 399.689   9
  -1  -4  17 474.741 391.877   9
  -1  -4  17 461.005 390.813   3
  -1  -3 -13-71.0204 281.807  10
  -1  -3 -13 283.356 366.212   4
  -1  -3 -12 445.012 389.285  10
  -1  -3 -12-27.7904 315.778   4
  -1  -3 -11 44.5903 244.703   4
  -1  -3 -11 112.845 276.691  10
  -1  -3 -10 255.634 307.289  10
  -1  -3 -10-60.1974 240.794   4
  -1  -3  -9 540.011 279.183   4
  -1  -3  -8 1394.44 420.032   4
  -1  -3  -7 1974.08 439.075   4
  -1  -3  -6 409.412 243.404   4
  -1  -3  -5 398.231 259.300   4
  -1  -3  -4 12096.1 786.282   4
  -1  -3  -3 5983.95 522.677   4
  -1  -3  -2 25032.2 985.544   4
  -1  -3  -1 10974.8 617.194   4
  -1  -3   0 6155.47 289.677   5
  -1  -3   0 5966.89 418.765   4
  -1  -3   1 21676.3 434.332   9
  -1  -3   1 21651.4 739.860   4
  -1  -3   1 21520.1 523.022   5
  -1  -3   2 158.689 46.8557  10
  -1  -3   2 75.0432 37.7194   9
  -1  -3   2 71.4584 71.5523   4
  -1  -3   3 39921.1 631.043   9
  -1  -3   3 41447.3 1000.86   6
  -1  -3   4 3392.10 238.470   9
  -1  -3   4 3559.08 329.425   6
  -1  -3   5 28551.0 812.905   9
  -1  -3   5 29506.9 956.202   6
  -1  -3   5 29034.7 1079.32   3
  -1  -3   6 2314.33 350.900   3
  -1  -3   7 14315.1 844.433   3
  -1  -3   8 2469.60 409.682   3
  -1  -3   9 7976.83 726.083   3
  -1  -3  10 11268.1 869.486   3
  -1  -3  11 1434.55 358.618   3
  -1  -3  12 1738.31 437.140   3
  -1  -3  13 401.508 287.387   3
  -1  -3  14 548.490 323.666   3
  -1  -3  15-115.669 236.294   9
  -1  -3  15 602.504 355.889   3
  -1  -3  16 372.873 350.756   3
  -1  -3  16 175.517 262.983   9
  -1  -3  17 580.347 395.572   3
  -1  -3  17 470.293 356.089   9
  -1  -2 -14 1664.12 538.110   4
  -1  -2 -13 331.990 281.657  10
  -1  -2 -13 600.324 395.913   4
  -1  -2 -12 1221.56 466.337  10
  -1  -2 -12 602.223 305.877   4
  -1  -2 -11 168.961 262.016   4
  -1  -2 -11-92.8597 212.604  10
  -1  -2 -10 959.467 375.577   4
  -1  -2  -9 778.447 259.840   4
  -1  -2  -8 5171.69 619.241   4
  -1  -2  -7 402.610 252.223   4
  -1  -2  -6 4716.36 559.084   4
  -1  -2  -5 1840.69 356.941   4
  -1  -2  -4-86.5809 155.278   4
  -1  -2  -3 14727.0 734.622   4
  -1  -2  -2 672.288 183.587   4
  -1  -2  -1 162.147 91.2610   4
  -1  -2   0 1141.89 101.632   5
  -1  -2   0 1108.46 128.557   9
  -1  -2   0 1215.65 174.955   4
  -1  -2   1 31089.5 483.612   9
  -1  -2   1 31841.2 718.505   4
  -1  -2   1 29059.9 656.617   7
  -1  -2   2 35344.0 816.400   6
  -1  -2   2 35271.5 673.241   4
  -1  -2   2 36145.4 540.722   9
  -1  -2   2 33111.4 482.258  10
  -1  -2   3 20052.4 650.071   6
  -1  -2   3 20940.0 400.930  10
  -1  -2   3 20521.6 510.125   9
  -1  -2   4 9715.63 432.550   9
  -1  -2   4 9856.13 495.528   6
  -1  -2   5 3050.64 195.247   4
  -1  -2   5 3318.49 351.264   3
  -1  -2   6 34.2616 138.541   3
  -1  -2   6-120.309 85.3159   4
  -1  -2   7 482.863 206.283   3
  -1  -2   8 1054.80 251.574   3
  -1  -2   9 3887.23 470.812   3
  -1  -2  10-159.614 175.004   3
  -1  -2  11 555.401 283.241   3
  -1  -2  12-196.647 243.690   3
  -1  -2  13 1185.71 361.028   3
  -1  -2  14 1478.81 431.819   3
  -1  -2  15 416.729 346.973   9
  -1  -2  15 1223.93 439.219   3
  -1  -2  16-166.261 303.193   9
  -1  -2  16 93.6143 261.141   3
  -1  -1 -14 16.4393 253.239  10
  -1  -1 -14 357.978 328.385   4
  -1  -1 -13 1450.89 479.388  10
  -1  -1 -13 1136.78 461.641   4
  -1  -1 -12 663.031 375.158   4
  -1  -1 -12 170.169 249.623  10
  -1  -1 -11 15.4537 275.868   4
  -1  -1 -10 1502.07 406.735   4
  -1  -1  -9 864.825 308.026   4
  -1  -1  -8 613.521 235.722   4
  -1  -1  -7 2104.80 364.643   4
  -1  -1  -6 334.728 158.375   4
  -1  -1  -5 449.601 184.621   4
  -1  -1  -4 5371.29 453.972   4
  -1  -1  -3 4724.83 384.296   4
  -1  -1  -2-51.1040 97.3485   4
  -1  -1  -2 13.5892 46.9861   1
  -1  -1  -1 1867.85 180.586   9
  -1  -1  -1 1642.69 141.680   8
  -1  -1  -1 1525.46 131.915   1
  -1  -1  -1 1369.96 175.249   4
  -1  -1   0 38.4702 53.6799   8
  -1  -1   0 66.6661 58.7824   1
  -1  -1   0-12.5640 47.8581   9
  -1  -1   0-111.065 92.1481   4
  -1  -1   0 5.67617 61.7105   7
  -1  -1   1 306.240 66.4605  10
  -1  -1   1 166.648 54.9587   9
  -1  -1   1 236.527 69.3899   8
  -1  -1   1 274.207 63.1360   4
  -1  -1   1 290.719 91.2147   1
  -1  -1   2 48.3582 53.3118  10
  -1  -1   2 122.926 66.3908   9
  -1  -1   2 7.69871 68.5647   2
  -1  -1   3 4554.84 279.529   9
  -1  -1   3 4070.19 268.231   2
  -1  -1   3 4362.69 302.440   6
  -1  -1   3 4764.84 243.317  10
  -1  -1   4 15402.3 337.345   4
  -1  -1   4 16905.2 631.695   3
  -1  -1   5 4979.79 251.307   4
  -1  -1   5 5361.21 410.418   3
  -1  -1   6 12367.4 550.966   7
  -1  -1   6 12472.6 654.047   3
  -1  -1   7 4864.31 398.214   7
  -1  -1   7 4089.34 423.824   3
  -1  -1   8 1376.80 277.514   3
  -1  -1   8 1380.85 275.278   7
  -1  -1   9 76.4223 173.297   3
  -1  -1   9 438.863 225.071   7
  -1  -1  10 529.754 255.450   3
  -1  -1  10 931.472 283.802   7
  -1  -1  11 444.411 233.823   3
  -1  -1  11 109.497 175.876   7
  -1  -1  12 6329.42 706.822   3
  -1  -1  13 274.407 252.260   3
  -1  -1  14 3226.50 576.957   3
  -1  -1  15 663.401 350.364   3
  -1  -1  15 741.205 362.668   9
  -1  -1  16 432.516 374.610   9
  -1   0 -15 34.8926 342.955  10
  -1   0 -14 540.300 347.104  10
  -1   0 -14 360.953 327.951   4
  -1   0 -13 557.729 299.827   4
  -1   0 -13 421.765 345.889  10
  -1   0 -12 2222.29 479.388   2
  -1   0 -12 1665.18 452.839   4
  -1   0 -11-78.5491 255.215   4
  -1   0 -10 3184.63 524.734   4
  -1   0  -9 1101.75 325.891   4
  -1   0  -8 232.939 187.810   4
  -1   0  -7 7043.31 598.890   4
  -1   0  -6 112.188 147.397   4
  -1   0  -5 2871.53 336.363   4
  -1   0  -4 2030.68 264.034   4
  -1   0  -3 2241.62 246.178   4
  -1   0  -2 34.9869 92.6506   9
  -1   0  -2 14.0299 27.3732   1
  -1   0  -2 11.2204 123.015   4
  -1   0  -1 21150.8 522.875   9
  -1   0  -1 20615.6 530.600   4
  -1   0  -1 21036.6 519.183   7
  -1   0  -1 21610.4 531.392   3
  -1   0   2 23314.0 546.117   9
  -1   0   2 23799.0 507.806  10
  -1   0   2 23337.7 371.526   2
  -1   0   2 23105.8 558.927   6
  -1   0   3 1510.77 112.340   4
  -1   0   3 1546.80 134.647   2
  -1   0   3 1485.74 157.386   3
  -1   0   4 59829.1 857.466   4
  -1   0   4 60659.1 1099.46   7
  -1   0   4 59793.8 1082.34   3
  -1   0   5 4682.38 339.333   3
  -1   0   5 5240.84 382.274   7
  -1   0   6 10780.1 615.567   7
  -1   0   6 11637.0 593.548   3
  -1   0   7 69.5138 149.464   3
  -1   0   7 193.890 160.526   7
  -1   0   8 47.9223 167.553   3
  -1   0   8 292.988 199.941   7
  -1   0   9 157.193 190.308   3
  -1   0   9 274.600 238.686   7
  -1   0  10 1073.75 306.288   3
  -1   0  10 591.116 235.378   7
  -1   0  11 917.932 275.408   3
  -1   0  11 639.767 239.916   7
  -1   0  12 24.1774 176.433   3
  -1   0  12 482.836 265.003   7
  -1   0  13 1864.42 406.853   3
  -1   0  13 1644.84 471.672   7
  -1   0  15 160.118 277.300   9
  -1   1 -15 211.720 251.881  10
  -1   1 -14-278.988 298.756  10
  -1   1 -13 614.587 319.661  10
  -1   1 -13 1559.07 445.502   4
  -1   1 -12 1700.68 415.127   2
  -1   1 -12 1794.22 445.761   4
  -1   1 -11 2162.13 441.955   2
  -1   1 -11 1130.46 346.255   4
  -1   1 -10 1600.59 385.110   2
  -1   1 -10 1505.18 373.275   4
  -1   1  -9 640.603 312.195   4
  -1   1  -8 16832.5 927.867   4
  -1   1  -7 7125.70 577.881   4
  -1   1  -6 24431.6 984.177   4
  -1   1  -5 1104.04 229.797   4
  -1   1  -4 18127.2 698.122   4
  -1   1  -3 266.216 135.481   4
  -1   1  -3 177.228 101.426   9
  -1   1  -3 178.977 55.3735   1
  -1   1  -2 11182.5 434.146   9
  -1   1  -2 10035.3 433.214   4
  -1   1  -2 10664.3 363.005   7
  -1   1  -1 49682.7 720.486   9
  -1   1   1 60161.0 801.720   5
  -1   1   2 506.006 114.572   9
  -1   1   2 528.860 63.7538   3
  -1   1   3 17285.1 597.033   7
  -1   1   3 16818.5 413.974   3
  -1   1   4 16837.5 678.642   7
  -1   1   4 15946.7 499.193   3
  -1   1   5 6376.35 472.663   7
  -1   1   5 6571.70 383.163   3
  -1   1   6 12205.8 705.587   7
  -1   1   6 12266.8 580.583   3
  -1   1   7 3595.55 436.835   7
  -1   1   7 3711.81 376.118   3
  -1   1   8 1516.49 282.545   3
  -1   1   8 1312.98 332.086   7
  -1   1   9 173.089 158.758   3
  -1   1   9 103.713 195.054   7
  -1   1  10 1154.38 284.765   3
  -1   1  10 967.062 319.418   7
  -1   1  11-80.5550 145.650   3
  -1   1  11 419.890 263.642   7
  -1   1  12 1750.06 362.982   3
  -1   1  12 1501.41 422.848   7
  -1   1  13 908.555 383.227   7
  -1   1  15 174.224 298.950   9
  -1   2 -16 282.165 349.600  10
  -1   2 -15-163.890 260.484  10
  -1   2 -14 1384.75 498.852  10
  -1   2 -13 511.207 290.790   2
  -1   2 -13 757.206 337.084   4
  -1   2 -13 406.730 256.798  10
  -1   2 -12 3986.38 591.721   2
  -1   2 -12 4566.02 628.607   4
  -1   2 -11 327.063 252.852   2
  -1   2 -11 256.698 252.207   4
  -1   2 -10 2192.57 436.286   2
  -1   2 -10 1241.75 378.371   4
  -1   2 -10 1959.87 265.950   1
  -1   2  -9 5711.28 586.956   4
  -1   2  -9 6355.79 636.544   2
  -1   2  -9 6186.31 436.532   1
  -1   2  -8 1731.81 385.556   2
  -1   2  -8 966.661 294.416   4
  -1   2  -8 1206.83 202.361   1
  -1   2  -7 7423.96 571.334   4
  -1   2  -7 8043.36 628.510   2
  -1   2  -7 7924.90 429.723   1
  -1   2  -6 637.945 138.783   1
  -1   2  -6 426.941 216.422   2
  -1   2  -6 222.519 149.403   4
  -1   2  -5 119.989 139.533   4
  -1   2  -5 31.0352 64.7280   1
  -1   2  -4 5870.82 402.356   4
  -1   2  -4 5593.20 281.768   1
  -1   2  -4 6273.84 445.662   2
  -1   2  -3 7567.89 307.875   8
  -1   2  -3 7172.52 385.741   9
  -1   2  -3 7260.20 296.081   1
  -1   2  -3 7178.98 288.394   7
  -1   2  -3 7032.48 434.998   2
  -1   2  -2 68.0037 58.2824   1
  -1   2  -2 61.7218 124.207   2
  -1   2  -2 210.730 82.2224   9
  -1   2  -2 101.525 70.3042   8
  -1   2  -2 101.836 67.5174  10
  -1   2  -1 1711.19 129.831   9
  -1   2  -1 1473.98 156.092   2
  -1   2  -1 1644.78 145.653   8
  -1   2  -1 1728.53 150.302   1
  -1   2  -1 1767.77 136.131  10
  -1   2  -1 1823.20 163.037   3
  -1   2   0 141.291 52.7292   9
  -1   2   0 123.999 53.1295   3
  -1   2   0 173.048 64.4878  10
  -1   2   0 196.375 92.8372   2
  -1   2   1 5139.90 251.760   9
  -1   2   2 855.113 145.460   9
  -1   2   2 1039.93 176.393   7
  -1   2   3 7713.30 469.320   7
  -1   2   3 7286.81 247.418   3
  -1   2   4 7214.61 501.583   7
  -1   2   4 7557.23 321.015   3
  -1   2   5 5315.45 319.573   3
  -1   2   5 5482.90 490.677   7
  -1   2   6 10012.6 688.874   7
  -1   2   6 10360.0 500.951   3
  -1   2   7 1791.98 245.733   3
  -1   2   7 2280.91 400.996   7
  -1   2   8 1875.61 271.677   3
  -1   2   8 1817.64 382.939   7
  -1   2   9 1656.15 273.528   3
  -1   2   9 1730.54 378.727   7
  -1   2  10 1322.19 262.612   3
  -1   2  10 1634.78 432.565   7
  -1   2  11 1157.95 401.280   7
  -1   2  12 1139.04 393.896   7
  -1   2  13 8.82342 249.519   7
  -1   2  14 222.487 281.361   9
  -1   2  14 837.133 383.053   7
  -1   2  15 504.235 327.971   9
  -1   3 -16-327.581 321.947  10
  -1   3 -15-337.072 309.239  10
  -1   3 -14 548.125 262.068  10
  -1   3 -14 261.651 246.991   2
  -1   3 -13 635.114 280.647   2
  -1   3 -13 1714.13 414.481  10
  -1   3 -12 406.415 272.604   2
  -1   3 -12 475.003 279.019   4
  -1   3 -11 1419.59 363.577   2
  -1   3 -11 1744.84 405.640   4
  -1   3 -10-168.556 257.096   2
  -1   3 -10 205.733 234.604   4
  -1   3 -10 83.1242 129.869   1
  -1   3  -9 835.205 302.014   2
  -1   3  -9 358.923 208.071   4
  -1   3  -9 687.955 176.786   1
  -1   3  -8 231.665 225.948   2
  -1   3  -8 233.621 203.143   4
  -1   3  -8 499.443 147.249   1
  -1   3  -7 1070.07 289.492   2
  -1   3  -7 841.628 168.216   1
  -1   3  -6 54.1223 110.644   1
  -1   3  -6-120.839 195.640   2
  -1   3  -5 4450.33 440.635   2
  -1   3  -5 4648.17 329.826   1
  -1   3  -4 127.782 103.385   8
  -1   3  -4-61.6533 72.0066   1
  -1   3  -4 81.8402 162.124   2
  -1   3  -3-204.794 153.498   2
  -1   3  -3 9.08117 68.4701   1
  -1   3  -3-20.6722 68.9746   9
  -1   3  -3-99.9151 83.7542  10
  -1   3  -3-12.9935 91.0273   8
  -1   3  -3 88.1460 68.4247   6
  -1   3  -2 678.688 100.000  10
  -1   3  -2 640.745 100.290   9
  -1   3  -2 697.684 135.589   1
  -1   3  -2 678.047 192.907   2
  -1   3  -2 627.579 125.758   8
  -1   3  -1 10326.9 471.192   2
  -1   3  -1 10447.1 335.049  10
  -1   3  -1 10922.9 469.678   8
  -1   3  -1 10334.6 298.763   9
  -1   3  -1 10397.3 458.477   1
  -1   3   0 84620.3 1246.71   2
  -1   3   0 87570.3 1369.69   8
  -1   3   0 84631.8 1074.00  10
  -1   3   0 82834.0 930.349   9
  -1   3   1 6610.77 315.040   9
  -1   3   1 6521.31 403.865   8
  -1   3   1 6920.05 402.975   7
  -1   3   2 19485.1 743.084   7
  -1   3   2 18615.9 629.358   9
  -1   3   3 30472.6 1023.81   7
  -1   3   4 3056.76 365.549   7
  -1   3   5 4960.66 516.866   7
  -1   3   6 8796.62 694.336   7
  -1   3   6 8978.63 463.504   3
  -1   3   7 238.377 210.714   7
  -1   3   7 125.983 114.801   3
  -1   3   8 14531.7 998.851   7
  -1   3   8 13342.2 675.832   3
  -1   3   9 239.626 284.738   7
  -1   3   9-7.84132 113.276   3
  -1   3  10 5080.09 686.629   7
  -1   3  11 1696.26 495.359   7
  -1   3  12 517.471 333.897   7
  -1   3  13 2441.59 632.147   9
  -1   3  13 3583.16 682.462   7
  -1   3  14 645.607 447.100   9
  -1   4 -15-156.586 256.370  10
  -1   4 -14 315.520 228.979  10
  -1   4 -14 767.084 390.561   2
  -1   4 -13 1620.88 448.298   2
  -1   4 -13 561.106 259.995  10
  -1   4 -12 459.572 280.337   2
  -1   4 -11 356.539 291.708   2
  -1   4 -11 445.017 172.997   1
  -1   4 -10 3412.67 390.743   1
  -1   4 -10 2413.22 433.587   2
  -1   4  -9 2619.79 432.847   2
  -1   4  -9 3567.86 381.981   1
  -1   4  -8 1455.54 248.359   1
  -1   4  -8 494.885 247.699   2
  -1   4  -7 5956.88 599.955   2
  -1   4  -7 7113.39 491.756   1
  -1   4  -6 2285.01 280.157   1
  -1   4  -6 2906.79 422.574   2
  -1   4  -5 13563.9 624.829   1
  -1   4  -5 12867.7 617.760   8
  -1   4  -5 13738.6 771.357   2
  -1   4  -4 10369.5 546.098   8
  -1   4  -4 9660.50 513.774   1
  -1   4  -4 10074.1 648.265   2
  -1   4  -3 7819.01 335.613   9
  -1   4  -3 7065.48 293.644  10
  -1   4  -3 7633.04 460.143   8
  -1   4  -3 7748.71 466.565   1
  -1   4  -3 7293.28 528.034   2
  -1   4  -2 17475.4 731.763   2
  -1   4  -2 17737.3 410.198   9
  -1   4  -2 18277.5 710.020   8
  -1   4  -2 16875.6 678.949   1
  -1   4  -2 17042.6 426.231  10
  -1   4  -1 4531.25 364.522   8
  -1   4  -1 4432.92 363.655   1
  -1   4  -1 4506.47 244.347  10
  -1   4  -1 4564.17 373.259   2
  -1   4  -1 4398.61 197.957   9
  -1   4   0 6328.02 439.493   8
  -1   4   0 5953.55 269.152   9
  -1   4   0 6473.07 402.280   7
  -1   4   1 2529.01 217.607   9
  -1   4   1 2775.13 314.563   8
  -1   4   1 2639.01 293.257   7
  -1   4   2 4636.84 340.115   9
  -1   4   2 4756.09 415.874   8
  -1   4   2 4580.70 414.135   7
  -1   4   3 467.438 153.980   9
  -1   4   3 667.219 189.473   8
  -1   4   3 719.335 212.535   7
  -1   4   4 4428.43 485.962   7
  -1   4   5 1322.75 315.880   7
  -1   4   6 15.4563 194.248   7
  -1   4   7 5500.90 666.100   7
  -1   4   8 535.215 325.332   7
  -1   4   9 4605.18 656.930   7
  -1   4  10 451.994 378.930   7
  -1   4  11-85.6543 232.037   9
  -1   4  11 978.289 400.019   7
  -1   4  12 3.43271 248.166   9
  -1   4  12 155.422 311.672   7
  -1   4  13 204.460 331.921   9
  -1   4  13 538.664 453.410   7
  -1   5 -15 1279.63 426.805   2
  -1   5 -14 1109.50 400.915   2
  -1   5 -13-284.070 239.901  10
  -1   5 -13 406.333 227.550   2
  -1   5 -12 2512.37 524.886   2
  -1   5 -11 587.256 233.218   1
  -1   5 -11 391.151 300.648   2
  -1   5 -10 4833.20 637.502   2
  -1   5 -10 5579.58 530.025   1
  -1   5  -9 196.689 160.647   1
  -1   5  -9 584.476 321.182   2
  -1   5  -8 4491.95 454.966   1
  -1   5  -8 4349.51 564.820   2
  -1   5  -7 4913.46 461.751   1
  -1   5  -7 4786.81 577.795   2
  -1   5  -6 2986.13 475.741   2
  -1   5  -6 2849.66 368.793   8
  -1   5  -6 2920.82 354.079   1
  -1   5  -5 22104.1 913.695   8
  -1   5  -5 21617.0 895.287   1
  -1   5  -5 21079.0 1010.20   2
  -1   5  -4 5195.51 489.275   2
  -1   5  -4 5269.80 436.800   8
  -1   5  -4 5131.50 443.023   1
  -1   5  -4 3997.10 238.440  10
  -1   5  -3 22493.4 905.296   8
  -1   5  -3 23024.1 902.759   1
  -1   5  -3 22298.2 941.600   2
  -1   5  -3 19598.6 455.277  10
  -1   5  -2 102.156 61.6969  10
  -1   5  -2 80.1343 37.2934   9
  -1   5  -2 90.3521 109.859   8
  -1   5  -2-64.5020 147.813   2
  -1   5  -2 182.311 131.188   1
  -1   5  -1 7669.16 258.869   9
  -1   5  -1 9393.40 595.312   8
  -1   5  -1 9551.31 612.046   1
  -1   5  -1 8278.90 565.803   2
  -1   5   0 4624.82 255.043   9
  -1   5   0 4947.99 443.846   8
  -1   5   0 4729.57 407.731   7
  -1   5   1 6794.96 367.348   9
  -1   5   1 7201.35 527.166   7
  -1   5   1 7198.64 535.537   8
  -1   5   2 81.2304 91.8031   9
  -1   5   2 255.194 181.222   8
  -1   5   3 2963.06 342.360   9
  -1   5   3 3087.28 400.623   8
  -1   5   3 3044.36 418.505   7
  -1   5   4 225.817 154.876   9
  -1   5   4 217.533 157.038   8
  -1   5   4 404.922 275.403   7
  -1   5   5 244.650 188.535   9
  -1   5   5-15.7345 165.550   8
  -1   5   5 127.581 226.726   7
  -1   5   6 454.144 228.153   9
  -1   5   6 443.370 228.651   8
  -1   5   6 53.5607 192.689   7
  -1   5   7 554.021 208.972   8
  -1   5   7 746.713 304.935   7
  -1   5   8 2301.20 460.109   9
  -1   5   8 2652.26 440.656   8
  -1   5   8 3188.84 556.147   7
  -1   5   9-186.000 219.662   9
  -1   5   9 107.858 179.566   8
  -1   5   9 318.819 293.684   7
  -1   5  10 451.120 295.636   9
  -1   5  10 538.310 243.494   8
  -1   5  10 493.218 387.050   7
  -1   5  11 71.4983 208.676   9
  -1   5  11 939.045 426.452   7
  -1   5  12-52.3011 274.872   9
  -1   5  12 1050.89 427.724   7
  -1   5  13-34.9627 245.195   9
  -1   6 -15 666.635 377.894   2
  -1   6 -14 116.226 306.668   2
  -1   6 -13 121.221 256.242   2
  -1   6 -12 306.293 295.498   2
  -1   6 -11 267.100 144.890   1
  -1   6 -11 106.150 304.649   2
  -1   6 -10 954.563 283.405   1
  -1   6 -10 396.417 257.667   2
  -1   6  -9 90.5132 147.076   1
  -1   6  -9 200.778 258.326   2
  -1   6  -8 799.980 242.400   1
  -1   6  -8 640.445 256.891   2
  -1   6  -7 422.456 197.847   1
  -1   6  -7 739.848 326.684   2
  -1   6  -6 555.871 198.823   1
  -1   6  -6 574.737 241.370   8
  -1   6  -6 676.365 317.219   2
  -1   6  -5 64.9104 52.4127  10
  -1   6  -5 234.540 141.904   1
  -1   6  -5 147.994 172.883   8
  -1   6  -4 5233.67 500.063   8
  -1   6  -4 5836.28 507.596   1
  -1   6  -4 4613.80 499.792   2
  -1   6  -3 741.589 209.904   8
  -1   6  -3 1111.92 271.981   1
  -1   6  -3 748.332 232.126   2
  -1   6  -2 1975.53 351.748   8
  -1   6  -2 1757.26 319.445   1
  -1   6  -2 1943.82 321.529   2
  -1   6  -1 97.3038 35.3051   9
  -1   6  -1 265.832 210.089   1
  -1   6  -1 49.6181 145.547   8
  -1   6   0 3792.21 235.155   9
  -1   6   0 4834.54 501.917   8
  -1   6   0 4412.62 405.487   7
  -1   6   1 1135.24 175.299   9
  -1   6   1 1623.68 313.837   8
  -1   6   1 972.365 231.786   7
  -1   6   2 3385.93 423.511   8
  -1   6   2 3641.55 441.663   7
  -1   6   2 2902.79 303.197   9
  -1   6   3 7111.65 523.849   9
  -1   6   3 7981.33 674.062   8
  -1   6   3 8735.41 730.232   7
  -1   6   4 1413.17 294.970   9
  -1   6   4 1703.72 327.112   8
  -1   6   4 1791.73 407.860   7
  -1   6   5 4536.19 514.869   9
  -1   6   5 5368.64 580.826   8
  -1   6   5 5045.86 615.882   7
  -1   6   6 443.771 207.749   9
  -1   6   6 942.141 295.350   8
  -1   6   6 1081.10 383.208   7
  -1   6   7 289.118 235.203   9
  -1   6   7 401.086 199.578   8
  -1   6   7 217.527 289.354   7
  -1   6   8 70.8184 205.020   9
  -1   6   8-20.0862 157.205   8
  -1   6   8-29.6917 286.665   7
  -1   6   9 148.576 224.257   9
  -1   6   9 474.474 252.872   8
  -1   6   9 496.492 332.067   7
  -1   6  10 55.9406 236.306   9
  -1   6  10 236.559 339.591   7
  -1   6  11 1109.32 428.302   9
  -1   6  11 1941.97 585.306   7
  -1   6  12-75.2944 271.130   9
  -1   7 -16-185.593 247.535   2
  -1   7 -15 499.237 352.197   2
  -1   7 -14-485.711 390.206   2
  -1   7 -13-194.542 271.587   2
  -1   7 -12 147.939 165.362   1
  -1   7 -12-564.900 320.066   2
  -1   7 -11-50.0072 141.193   1
  -1   7 -11-471.705 319.610   2
  -1   7 -10 369.654 221.110   1
  -1   7 -10 448.804 275.633   2
  -1   7  -9 4006.19 497.575   1
  -1   7  -9 3431.71 573.945   2
  -1   7  -8 689.672 241.767   1
  -1   7  -8 266.174 236.459   2
  -1   7  -7 1248.29 313.691   8
  -1   7  -7 1447.28 311.487   1
  -1   7  -7 783.129 308.553   2
  -1   7  -6 170.998 171.616   1
  -1   7  -6 384.673 216.260   8
  -1   7  -6-267.402 308.939   2
  -1   7  -5 998.442 297.501   8
  -1   7  -5 667.910 228.358   1
  -1   7  -5 886.774 311.404   2
  -1   7  -4 2868.65 428.474   8
  -1   7  -4 2100.42 371.542   2
  -1   7  -4 2605.69 403.283   1
  -1   7  -3 4553.45 506.705   2
  -1   7  -3 5094.51 539.674   8
  -1   7  -3 5441.35 550.644   1
  -1   7  -2 880.971 294.931   8
  -1   7  -2 646.175 234.150   1
  -1   7  -1 11370.3 810.308   8
  -1   7   0 1268.87 138.341   9
  -1   7   0 2309.90 392.061   8
  -1   7   0 1944.22 327.248   7
  -1   7   1 898.537 154.769   9
  -1   7   1 1401.48 311.236   8
  -1   7   1 1066.45 283.953   7
  -1   7   2 6643.44 453.543   9
  -1   7   2 7629.45 691.616   8
  -1   7   2 7217.97 655.138   7
  -1   7   3-22.6688 124.833   9
  -1   7   3 131.592 232.585   8
  -1   7   3-134.348 181.486   7
  -1   7   4 11409.3 909.884   7
  -1   7   4 12175.7 909.611   8
  -1   7   4 9768.45 684.657   9
  -1   7   5 1056.12 290.720   9
  -1   7   5 1752.83 365.798   8
  -1   7   5 1833.29 451.015   7
  -1   7   6 2046.83 401.407   9
  -1   7   6 2464.85 446.826   8
  -1   7   6 2527.31 521.395   7
  -1   7   7 1463.31 358.731   9
  -1   7   7 1995.64 422.174   8
  -1   7   7 2965.37 608.487   7
  -1   7   8 625.285 293.460   9
  -1   7   8 727.091 312.329   8
  -1   7   8 1359.81 484.541   7
  -1   7   9 1364.75 426.771   9
  -1   7   9 1764.40 411.825   8
  -1   7   9 1421.66 449.625   7
  -1   7  10 796.100 367.892   9
  -1   7  10 1252.10 496.870   7
  -1   8 -15 1196.04 441.281   2
  -1   8 -14 1093.99 429.323   2
  -1   8 -13 2947.71 615.259   2
  -1   8 -12 65.5360 225.515   1
  -1   8 -12-42.6892 243.235   2
  -1   8 -11 2766.34 472.608   1
  -1   8 -11 2311.93 510.006   2
  -1   8 -10 1263.76 324.164   1
  -1   8 -10 795.643 337.183   2
  -1   8  -9 3154.40 482.487   1
  -1   8  -9 2979.56 548.697   2
  -1   8  -8 3356.79 495.333   1
  -1   8  -8 1729.63 405.021   2
  -1   8  -7 2464.76 436.734   1
  -1   8  -7 2140.21 450.829   8
  -1   8  -7 1660.13 444.293   2
  -1   8  -6 792.945 280.378   1
  -1   8  -6 526.933 282.017   8
  -1   8  -6 433.205 236.030   2
  -1   8  -5-105.094 169.847   8
  -1   8  -5 87.5742 210.325   2
  -1   8  -5 234.027 253.703   1
  -1   8  -4 1243.39 310.350   8
  -1   8  -4 735.706 295.069   1
  -1   8  -3 324.186 200.462   8
  -1   8  -3-10.4604 162.955   1
  -1   8  -2 7510.36 707.982   1
  -1   8  -2 6918.20 686.312   8
  -1   8  -1 372.565 236.294   8
  -1   8   0 2032.23 397.231   8
  -1   8   1 458.527 265.411   8
  -1   8   1 184.965 179.629   7
  -1   8   2 962.406 292.160   8
  -1   8   2 550.494 269.426   7
  -1   8   3 1534.98 400.185   8
  -1   8   3 1000.77 335.678   7
  -1   8   4 578.331 281.949   8
  -1   8   4 428.014 242.152   7
  -1   8   5 372.880 228.649   8
  -1   8   5-362.181 300.183   7
  -1   8   6-120.878 218.074   8
  -1   8   6 243.262 276.279   7
  -1   8   7 76.9563 208.198   8
  -1   8   7 1362.66 462.851   7
  -1   8   8 68.6129 201.591   8
  -1   8   8 255.218 299.369   7
  -1   8   9 278.564 324.764   7
  -1   9 -14 2042.93 551.238   2
  -1   9 -13-352.306 333.413   2
  -1   9 -12 1174.47 335.696   1
  -1   9 -12 823.934 381.205   2
  -1   9 -11 1332.45 363.412   1
  -1   9 -11 632.852 335.331   2
  -1   9 -10 982.138 322.620   1
  -1   9 -10 767.010 368.284   2
  -1   9  -9 2660.46 571.686   2
  -1   9  -9 3273.05 536.794   1
  -1   9  -8 318.026 230.186   1
  -1   9  -8 949.468 403.518   2
  -1   9  -7 1652.59 377.982   1
  -1   9  -7 1119.08 400.330   2
  -1   9  -7 1402.37 410.905   8
  -1   9  -6 140.888 226.961   2
  -1   9  -6 624.724 249.179   1
  -1   9  -5 581.352 286.423   8
  -1   9  -5 542.703 320.451   1
  -1   9  -4 846.130 306.591   8
  -1   9  -4 1016.66 357.929   1
  -1   9  -3 2635.77 455.006   1
  -1   9  -3 1759.41 398.936   8
  -1   9  -2-204.965 224.161   8
  -1   9  -1 3030.22 517.021   8
  -1   9   0 418.529 301.141   8
  -1   9   1 679.853 320.004   8
  -1   9   2 504.922 282.443   8
  -1   9   2 463.640 259.958   7
  -1   9   3 471.070 318.938   8
  -1   9   3 424.953 342.665   7
  -1   9   4-25.4532 231.477   8
  -1   9   4 700.602 384.285   7
  -1   9   5 418.803 281.479   8
  -1   9   5 445.505 285.411   7
  -1   9   6 842.995 344.453   8
  -1   9   6 957.319 420.257   7
  -1   9   7 243.857 218.419   8
  -1   9   7 212.898 290.623   7
  -1  10 -13-139.373 341.808   2
  -1  10 -12 111.568 233.401   1
  -1  10 -12-314.037 245.334   2
  -1  10 -11 1023.89 357.703   1
  -1  10 -11 263.271 281.800   2
  -1  10 -10 112.438 214.766   1
  -1  10 -10 782.959 402.038   2
  -1  10  -9 45.3318 200.197   1
  -1  10  -9 143.406 271.480   2
  -1  10  -8 42.8135 311.622   2
  -1  10  -8 91.4168 249.248   8
  -1  10  -8 34.9673 197.895   1
  -1  10  -7 553.764 325.153   8
  -1  10  -7 889.897 385.334   1
  -1  10  -6 3833.51 635.049   8
  -1  10  -6 3687.41 610.564   1
  -1  10  -5 152.673 217.734   8
  -1  10  -5 569.624 293.677   1
  -1  10  -4 2162.64 483.945   1
  -1  10  -4 1386.37 411.536   8
  -1  10  -3 594.530 301.625   8
  -1  10  -2 553.633 265.650   8
  -1  10  -1 3040.56 578.578   8
  -1  10   0 1618.78 438.708   8
  -1  10   1 1418.05 431.536   8
  -1  10   2 1093.20 400.730   8
  -1  10   3 426.306 255.500   8
  -1  10   4 34.0999 237.279   8
  -1  10   5 1583.61 412.549   8
  -1  10   6 674.476 385.248   8
  -1  10   7 826.540 340.571   8
  -1  11 -12-357.045 407.207   2
  -1  11 -12-153.953 284.318   1
  -1  11 -11-95.2417 191.965   1
  -1  11 -10-575.806 312.807   1
  -1  11  -9 1108.73 380.814   1
  -1  11  -8 916.896 429.946   8
  -1  11  -8 154.751 222.072   1
  -1  11  -7 4002.87 692.307   8
  -1  11  -7 3832.85 673.922   1
  -1  11  -6 641.828 404.024   8
  -1  11  -6 1605.86 450.531   1
  -1  11  -5 3500.90 632.133   8
  -1  11  -4 1671.82 487.299   8
  -1  11  -3 987.978 396.768   8
  -1  11  -2 2908.65 633.567   8
  -1  11  -1-44.9190 285.493   8
  -1  11   0 1746.27 459.919   8
  -1  11   1-120.509 234.176   8
  -1  11   2-183.904 235.668   8
  -1  11   3 551.172 294.662   8
  -1  11   4 1009.66 397.534   8
  -1  11   5 506.311 351.465   8
  -1  12 -12 433.975 341.206   1
  -1  12 -11 583.125 345.564   1
  -1  12 -10 198.312 217.716   1
  -1  12  -9 973.085 412.992   1
  -1  12  -8 1644.84 516.878   1
  -1  12  -7 664.940 371.256   1
  -1  12  -7 374.162 311.205   8
  -1  12  -6 2163.38 557.201   8
  -1  12  -5 734.706 373.555   8
  -1  12  -4-114.615 265.544   8
  -1  12  -3 685.247 394.164   8
  -1  12  -2 129.657 315.039   8
  -1  12  -1 273.562 299.860   8
  -1  12   0 186.639 277.486   8
  -1  12   1 395.697 264.621   8
   0 -13   4-180.599 200.895   4
   0 -12   0 325.563 301.329   4
   0 -12   1 834.837 427.935   4
   0 -12   2 220.621 347.612   4
   0 -12   3 21.9045 238.153   4
   0 -12   4 209.858 251.957   4
   0 -12   5 37.2613 252.780   4
   0 -12   6 850.129 408.609   3
   0 -12   7 1079.72 417.323   3
   0 -12   8 795.297 366.239   3
   0 -12   9 541.502 376.468   3
   0 -12  10 361.733 267.651   3
   0 -11  -2 70.2468 268.204   4
   0 -11  -1 422.735 373.533   4
   0 -11   0 801.533 399.374   4
   0 -11   1 108.506 304.877   4
   0 -11   2 387.433 311.611   4
   0 -11   3 824.114 310.116   4
   0 -11   4 44.0894 249.619   3
   0 -11   4-225.914 247.979   4
   0 -11   5 962.601 369.696   3
   0 -11   5 683.150 324.944   4
   0 -11   6 1124.92 421.315   3
   0 -11   6 1299.25 391.127   4
   0 -11   7 3536.29 686.995   3
   0 -11   8 893.934 453.135   3
   0 -11   9 2238.78 593.330   3
   0 -11  10-94.1396 322.303   3
   0 -11  11 241.540 316.598   3
   0 -11  12 1069.89 491.677   3
   0 -10  -5-396.607 373.285   4
   0 -10  -4 1147.87 430.675   4
   0 -10  -3 1093.01 507.375   4
   0 -10  -2 653.586 328.162   4
   0 -10  -1 4824.96 744.213   4
   0 -10   0 297.861 279.620   4
   0 -10   1 4222.81 654.241   4
   0 -10   2-80.0508 226.206   3
   0 -10   2-206.285 204.943   4
   0 -10   3 1113.17 350.560   3
   0 -10   3 1725.04 425.611   4
   0 -10   4 339.788 264.061   3
   0 -10   4 344.771 294.846   4
   0 -10   5 3380.87 601.032   3
   0 -10   5 2889.46 501.038   4
   0 -10   6 858.643 290.323   5
   0 -10   6 1623.84 447.779   3
   0 -10   6 1978.85 407.898   4
   0 -10   7 3615.65 636.469   3
   0 -10   8 1093.56 416.906   3
   0 -10   9 463.954 367.936   3
   0 -10  10 595.573 362.659   3
   0 -10  11 762.306 357.352   3
   0 -10  12-165.403 268.649   3
   0 -10  13 187.254 438.948   3
   0  -9  -8-227.953 306.224  10
   0  -9  -7 276.070 267.175  10
   0  -9  -6 2247.97 601.818   4
   0  -9  -6 1209.12 400.329  10
   0  -9  -5 827.909 400.296   4
   0  -9  -4 509.508 258.232   4
   0  -9  -3 26.6711 213.827   4
   0  -9  -2 2036.43 492.332   4
   0  -9  -1 1188.81 366.549   4
   0  -9   0 346.367 220.935   4
   0  -9   1 18.5067 133.505   5
   0  -9   1 32.0155 224.861   4
   0  -9   2 121.367 160.503   5
   0  -9   2 310.431 275.517   4
   0  -9   3-221.916 202.764   5
   0  -9   3 342.989 258.613   3
   0  -9   3 414.224 240.784   4
   0  -9   4 301.597 252.133   3
   0  -9   4 30.1735 152.185   5
   0  -9   4 261.568 198.187   6
   0  -9   4 103.745 187.414   4
   0  -9   5 1564.77 311.878   6
   0  -9   5 1103.67 303.749   5
   0  -9   5 1795.57 419.456   3
   0  -9   6 11.2083 194.890   3
   0  -9   7 583.477 270.251   3
   0  -9   8 567.142 290.540   3
   0  -9   9 639.182 361.962   3
   0  -9  10 1452.17 459.181   3
   0  -9  11 111.336 248.734   3
   0  -9  12 371.585 352.069   3
   0  -9  13 597.271 387.362   3
   0  -9  14 890.435 460.299   3
   0  -8  -9 253.673 293.551  10
   0  -8  -8 708.103 408.194   4
   0  -8  -8 276.721 331.062  10
   0  -8  -7-84.7685 299.215   4
   0  -8  -7-438.035 280.897  10
   0  -8  -6 581.106 346.645   4
   0  -8  -6 15.3750 228.093  10
   0  -8  -5-90.1376 217.511  10
   0  -8  -5 614.789 375.925   4
   0  -8  -4 865.610 389.884   4
   0  -8  -4 455.429 235.674  10
   0  -8  -3 267.630 199.576  10
   0  -8  -3 449.003 344.471   4
   0  -8  -2 1077.76 352.439   4
   0  -8  -2 976.597 285.843  10
   0  -8  -1 1013.15 264.123  10
   0  -8  -1 585.490 297.143   4
   0  -8   0 145.986 120.059  10
   0  -8   0 316.671 202.344   5
   0  -8   0 402.805 254.803   4
   0  -8   1 1174.79 268.481   5
   0  -8   1 1367.96 353.522   4
   0  -8   2 4468.01 468.111   5
   0  -8   2 4487.09 552.303   4
   0  -8   3 375.597 192.774   5
   0  -8   3 508.342 228.625   3
   0  -8   3 730.550 260.668   4
   0  -8   4 3597.89 427.169   6
   0  -8   4 2905.67 421.932   5
   0  -8   4 3217.10 496.979   3
   0  -8   5 73.7957 183.168   3
   0  -8   5 112.857 173.983   6
   0  -8   6 6810.78 738.659   3
   0  -8   6 6383.97 534.162   6
   0  -8   7 1131.10 257.575   6
   0  -8   7 2094.53 448.131   3
   0  -8   8 9202.92 894.845   3
   0  -8   9-82.3875 208.078   3
   0  -8  10 3958.11 666.088   3
   0  -8  11 337.653 318.840   3
   0  -8  12 2113.98 528.587   3
   0  -8  13 3773.94 720.404   3
   0  -8  14 419.308 310.600   3
   0  -8  15 2624.67 703.549   3
   0  -7 -10 995.853 484.610   4
   0  -7 -10-198.129 300.483  10
   0  -7  -9 837.119 391.232  10
   0  -7  -9 1030.73 442.915   4
   0  -7  -8 1036.75 464.900  10
   0  -7  -8-347.512 280.696   4
   0  -7  -7 12.9459 250.975   4
   0  -7  -7 305.699 253.358  10
   0  -7  -6 229.160 232.139  10
   0  -7  -6 278.189 271.154   4
   0  -7  -5 301.328 275.705  10
   0  -7  -5 380.085 209.062   4
   0  -7  -4 811.493 275.434  10
   0  -7  -4 866.082 272.996   4
   0  -7  -3 3860.57 489.710  10
   0  -7  -3 3874.22 581.353   4
   0  -7  -2 1141.11 331.424   4
   0  -7  -2 1039.17 267.184  10
   0  -7  -1 837.872 241.461  10
   0  -7  -1 1006.30 298.285   4
   0  -7   0 1544.57 300.126   5
   0  -7   0 1239.65 251.159  10
   0  -7   0 1289.46 330.869   4
   0  -7   1 10121.7 647.172   5
   0  -7   1 9918.52 769.841   4
   0  -7   1 9281.86 485.430  10
   0  -7   2 511.841 201.360   5
   0  -7   2 322.081 98.9731  10
   0  -7   2 566.033 201.156   4
   0  -7   3 6438.14 548.291   5
   0  -7   4 519.915 231.156   3
   0  -7   4 728.494 215.702   6
   0  -7   5 2358.78 357.763   6
   0  -7   5 2779.42 451.345   3
   0  -7   6 2547.29 351.927   6
   0  -7   6 2512.80 445.675   3
   0  -7   7 999.531 319.910   3
   0  -7   7 1071.11 265.187   6
   0  -7   8 575.424 284.959   3
   0  -7   9 4054.22 638.718   3
   0  -7  10-185.372 220.688   3
   0  -7  11 42.8389 247.580   3
   0  -7  12 900.984 421.251   3
   0  -7  13 506.222 342.842   3
   0  -7  14 3433.03 683.572   3
   0  -7  15-446.916 407.774   3
   0  -6 -11-56.0576 281.273   4
   0  -6 -11 632.431 376.593  10
   0  -6 -10 2905.57 651.921   4
   0  -6 -10 1591.11 571.052  10
   0  -6  -9 316.942 308.311   4
   0  -6  -9 543.309 342.409  10
   0  -6  -8 1019.82 442.964  10
   0  -6  -8 1288.08 409.301   4
   0  -6  -7 1417.49 448.450  10
   0  -6  -7 1804.47 440.221   4
   0  -6  -6 177.568 214.817  10
   0  -6  -6-94.6677 260.348   4
   0  -6  -5 3881.70 523.740  10
   0  -6  -5 3968.49 555.878   4
   0  -6  -4 920.667 305.994  10
   0  -6  -4 614.208 244.891   4
   0  -6  -3 10172.9 825.885   4
   0  -6  -3 9180.52 698.318  10
   0  -6  -2 738.165 232.501  10
   0  -6  -2 310.595 238.270   4
   0  -6  -1 8269.09 569.709   5
   0  -6  -1 7499.32 670.584   4
   0  -6  -1 7479.94 537.779  10
   0  -6   0 1915.18 244.385  10
   0  -6   0 2149.88 299.846   5
   0  -6   0 2108.89 369.048   4
   0  -6   1 15244.7 565.060  10
   0  -6   1 15449.6 732.683   5
   0  -6   1 14739.2 840.480   4
   0  -6   2 8980.26 351.600  10
   0  -6   2 10962.0 628.746   5
   0  -6   4 810.451 195.838   6
   0  -6   4 1000.50 269.255   3
   0  -6   4 777.581 112.643   7
   0  -6   5 347.696 203.048   6
   0  -6   5 125.013 44.0456   9
   0  -6   5 155.565 51.0211   9
   0  -6   5 460.828 253.504   3
   0  -6   6 497.590 126.619   9
   0  -6   6 600.121 285.225   3
   0  -6   6 644.866 217.634   6
   0  -6   7-80.9966 212.981   3
   0  -6   8 272.104 248.367   3
   0  -6   9 1187.99 342.171   3
   0  -6  10 247.443 264.281   3
   0  -6  11 1445.50 407.183   3
   0  -6  12 632.799 345.999   3
   0  -6  13 250.755 272.916   3
   0  -6  14-240.435 307.748   3
   0  -6  15-35.2697 231.332   9
   0  -6  15 150.604 310.017   3
   0  -6  16 474.276 450.081   3
   0  -6  16-68.0346 236.717   9
   0  -5 -12 286.869 306.893  10
   0  -5 -12 378.319 308.606   4
   0  -5 -11 246.135 290.636   4
   0  -5 -11 1400.18 470.923  10
   0  -5 -10 823.063 414.593  10
   0  -5 -10 953.769 376.571   4
   0  -5  -9 232.941 251.916  10
   0  -5  -9 68.9025 218.792   4
   0  -5  -8-65.1305 206.518  10
   0  -5  -8-51.9770 199.279   4
   0  -5  -7 1811.40 461.062  10
   0  -5  -7 1417.51 372.753   4
   0  -5  -6 131.576 203.392   4
   0  -5  -6 185.266 220.378  10
   0  -5  -5 220.174 176.850  10
   0  -5  -5 496.408 298.050   4
   0  -5  -4 593.518 259.860  10
   0  -5  -4 77.4202 176.172   4
   0  -5  -3 475.267 222.267  10
   0  -5  -3 145.193 203.700   4
   0  -5  -2 398.879 149.576  10
   0  -5  -2 721.742 265.720   4
   0  -5  -1 4492.27 390.980   5
   0  -5  -1 4076.00 458.282   4
   0  -5  -1 3971.61 368.936  10
   0  -5   0 1214.11 205.545  10
   0  -5   0 1134.99 196.022   5
   0  -5   0 1402.16 267.720   4
   0  -5   1 12964.9 462.736  10
   0  -5   1 13019.8 612.944   5
   0  -5   2 645.183 91.6859  10
   0  -5   3 370.986 123.819   6
   0  -5   3 552.835 104.036   7
   0  -5   4 445.055 69.5485   9
   0  -5   4 425.873 71.1498   9
   0  -5   4 434.189 186.087   3
   0  -5   4 902.424 205.286   6
   0  -5   5 9540.44 700.768   3
   0  -5   5 9848.12 546.922   6
   0  -5   6 890.734 266.010   3
   0  -5   6 1155.24 256.057   6
   0  -5   7 2625.34 428.474   3
   0  -5   8 1259.89 353.698   3
   0  -5   9 254.346 228.487   3
   0  -5  10 2406.00 478.178   3
   0  -5  11 1051.09 366.842   3
   0  -5  12 823.157 382.867   3
   0  -5  13 83.8483 294.217   3
   0  -5  14-201.544 277.036   3
   0  -5  15 555.003 367.811   3
   0  -5  16 1040.18 496.816   3
   0  -5  17 755.402 358.767   9
   0  -4 -13-655.172 414.259   4
   0  -4 -13 217.725 274.885  10
   0  -4 -12 599.082 393.126  10
   0  -4 -12-191.561 309.470   4
   0  -4 -11-115.189 286.394  10
   0  -4 -11-497.207 373.976   4
   0  -4 -10-155.934 228.655  10
   0  -4 -10 432.698 356.136   4
   0  -4  -9 1162.03 364.006   4
   0  -4  -9 752.300 320.908  10
   0  -4  -8 373.102 287.283  10
   0  -4  -8 395.162 257.755   4
   0  -4  -7 3703.80 579.186  10
   0  -4  -7 4700.14 608.536   4
   0  -4  -6 590.230 281.111   4
   0  -4  -6 711.450 302.546  10
   0  -4  -5 6995.34 646.097   4
   0  -4  -5 8251.57 711.430  10
   0  -4  -4 3813.64 469.439   4
   0  -4  -4 3648.98 443.980  10
   0  -4  -3 8253.26 625.255   4
   0  -4  -3 8738.98 611.242  10
   0  -4  -2 7525.94 563.711   4
   0  -4  -2 7886.45 527.220  10
   0  -4  -1 15703.4 633.769   5
   0  -4  -1 15779.8 647.068  10
   0  -4  -1 15755.5 762.725   4
   0  -4   0 8813.19 456.256   5
   0  -4   0 8071.05 521.824   4
   0  -4   0 8777.60 413.530  10
   0  -4   1 258.018 85.8144  10
   0  -4   1 253.111 115.959   5
   0  -4   2 5594.58 276.998   7
   0  -4   3 396.521 126.351   6
   0  -4   3 609.696 178.246   3
   0  -4   3 339.448 54.4794   9
   0  -4   3 428.887 64.0043   7
   0  -4   3 312.484 54.1344   9
   0  -4   4 38416.1 739.558   9
   0  -4   4 42734.7 1281.68   3
   0  -4   4 41139.9 960.297   6
   0  -4   5 673.550 229.061   3
   0  -4   5 572.983 172.794   6
   0  -4   6 27080.1 1149.15   3
   0  -4   7 1097.03 317.858   3
   0  -4   8 2826.30 446.819   3
   0  -4   9 14742.6 995.367   3
   0  -4  10 144.806 218.664   3
   0  -4  11 6373.06 762.316   3
   0  -4  12 667.098 318.359   3
   0  -4  13 374.941 274.928   3
   0  -4  14 133.209 257.947   3
   0  -4  15 1219.74 479.685   3
   0  -4  16 550.569 407.608   3
   0  -3 -14 335.540 288.761   4
   0  -3 -13 797.529 384.415  10
   0  -3 -13 525.668 368.973   4
   0  -3 -12 557.141 365.117  10
   0  -3 -12-60.4252 245.457   4
   0  -3 -11 187.780 224.672  10
   0  -3 -11-226.082 281.892   4
   0  -3 -10 485.830 293.964  10
   0  -3 -10-291.836 272.824   4
   0  -3  -9 954.356 390.084  10
   0  -3  -9 1466.11 381.313   4
   0  -3  -8 3258.02 511.329   4
   0  -3  -8 3416.41 533.572  10
   0  -3  -7 2736.86 432.294   4
   0  -3  -7 2819.06 478.407  10
   0  -3  -6 3567.66 467.196   4
   0  -3  -5 1687.83 327.035   4
   0  -3  -4 1729.68 295.877   4
   0  -3  -3 16843.6 796.761   4
   0  -3  -2 3106.01 337.815   4
   0  -3  -1 3298.47 266.979   5
   0  -3  -1 3239.27 312.470   4
   0  -3   0 9700.39 411.872   5
   0  -3   0 10183.9 387.880  10
   0  -3   1 11154.2 385.876   7
   0  -3   1 10876.9 290.457  10
   0  -3   2 502.917 104.186   6
   0  -3   2 443.590 68.3672   7
   0  -3   3 5180.30 238.025   9
   0  -3   3 5018.96 382.165   3
   0  -3   3 5070.79 302.175   6
   0  -3   4 3050.66 336.541   3
   0  -3   4 3091.66 264.270   6
   0  -3   5 4387.83 422.874   3
   0  -3   6 1784.76 321.568   3
   0  -3   6 1486.37 155.786   7
   0  -3   7 1577.63 319.390   3
   0  -3   7 2012.78 209.387   7
   0  -3   8 8367.41 473.316   7
   0  -3   8 8867.01 711.842   3
   0  -3   9 2281.22 405.984   3
   0  -3   9 2536.09 312.907   7
   0  -3  10 3980.80 559.171   3
   0  -3  10 5014.74 460.990   7
   0  -3  11 503.929 298.066   3
   0  -3  11 878.394 249.266   7
   0  -3  12 25.9633 209.630   3
   0  -3  12-49.8118 189.674   7
   0  -3  13 502.580 327.556   3
   0  -3  14 665.195 407.234   3
   0  -3  15 681.741 390.867   3
   0  -3  16 728.583 383.855   3
   0  -3  17-424.402 339.010   3
   0  -2 -14 1857.86 534.839  10
   0  -2 -13 89.2225 302.048  10
   0  -2 -13-77.9708 244.891   4
   0  -2 -12 1195.66 448.874  10
   0  -2 -12 1218.40 414.229   4
   0  -2 -11 359.810 210.309   4
   0  -2 -11 483.499 335.987  10
   0  -2 -10 53.9383 248.964  10
   0  -2 -10 102.885 192.919   4
   0  -2  -9 3624.67 493.822   4
   0  -2  -9 3631.94 571.764  10
   0  -2  -8 7818.78 686.753   4
   0  -2  -7 14747.6 891.179   4
   0  -2  -6 1171.52 272.975   4
   0  -2  -5 1810.33 294.345   4
   0  -2  -4 5718.32 456.011   4
   0  -2  -3 942.389 181.537   4
   0  -2  -2 14296.0 592.100   4
   0  -2  -2 14131.9 437.004   3
   0  -2  -1 7040.48 321.048   5
   0  -2  -1 6223.00 358.850   4
   0  -2   0 1578.85 145.701   5
   0  -2   0 1855.19 161.582   7
   0  -2   1 2006.08 119.353   7
   0  -2   2 2160.99 217.234   3
   0  -2   2 2460.41 179.338   6
   0  -2   3 3567.18 305.083   3
   0  -2   3 3721.98 250.363   6
   0  -2   4 13989.1 367.246   7
   0  -2   4 14292.4 633.321   3
   0  -2   5 9538.83 392.545   7
   0  -2   5 9288.97 558.629   3
   0  -2   6 645.300 189.430   3
   0  -2   6 989.920 173.476   7
   0  -2   7 3745.10 331.244   7
   0  -2   7 3394.98 408.914   3
   0  -2   8 976.406 280.146   3
   0  -2   8 722.966 213.959   7
   0  -2   9 288.898 217.385   3
   0  -2   9 405.143 184.608   7
   0  -2  10 128.323 192.495   3
   0  -2  10-65.1126 144.498   7
   0  -2  11 4004.53 568.333   3
   0  -2  11 4075.05 513.502   7
   0  -2  12 900.943 377.689   3
   0  -2  12 1340.17 328.924   7
   0  -2  13 6444.40 716.525   7
   0  -2  13 7406.52 839.791   3
   0  -2  14 1285.20 428.374   3
   0  -2  15 794.072 339.019   3
   0  -2  16 630.779 366.868   3
   0  -1 -15 437.260 365.979  10
   0  -1 -14 511.378 377.482  10
   0  -1 -13-111.448 302.307  10
   0  -1 -13-376.064 296.909   4
   0  -1 -12-199.833 321.926  10
   0  -1 -12 125.197 197.356   4
   0  -1 -11 901.109 364.447  10
   0  -1 -11 1644.26 388.195   2
   0  -1 -11 1161.89 349.091   4
   0  -1 -10 204.464 187.751   4
   0  -1 -10 321.972 241.879  10
   0  -1  -9 149.742 219.498   4
   0  -1  -8 325.541 179.581   4
   0  -1  -7 524.377 221.802   4
   0  -1  -6 3318.03 405.833   4
   0  -1  -5 1941.98 261.689   4
   0  -1  -4 7203.53 444.247   4
   0  -1  -3 6103.66 367.935   4
   0  -1  -2 1972.40 195.192   4
   0  -1  -2 1936.78 151.377   3
   0  -1  -1 8514.02 315.297   4
   0  -1  -1 8237.07 319.514   7
   0  -1  -1 8624.00 240.156   3
   0  -1   2 444.488 95.8956   2
   0  -1   2 356.439 74.9084   4
   0  -1   2 486.926 111.467   3
   0  -1   2 446.685 77.5284   8
   0  -1   3 2071.40 178.037   4
   0  -1   3 2539.75 174.681   7
   0  -1   3 2164.19 225.650   3
   0  -1   4 184.010 130.709   3
   0  -1   4 237.065 114.180   7
   0  -1   5 1604.29 255.382   3
   0  -1   5 1509.49 199.646   7
   0  -1   6 2501.58 321.623   3
   0  -1   6 2414.97 279.372   7
   0  -1   7 5116.10 435.501   7
   0  -1   7 5777.02 500.312   3
   0  -1   8 2357.33 375.005   3
   0  -1   8 2354.22 364.107   7
   0  -1   9 547.860 287.834   3
   0  -1   9 232.049 225.259   7
   0  -1  10 453.337 264.478   3
   0  -1  10 634.857 243.176   7
   0  -1  11-42.4863 181.821   3
   0  -1  11 575.626 272.222   7
   0  -1  12 4292.18 594.195   3
   0  -1  12 4440.78 588.190   7
   0  -1  13 1738.65 437.929   3
   0  -1  13 1939.25 441.318   7
   0  -1  14-3.95872 233.283   3
   0  -1  14 281.900 285.155   7
   0  -1  15 238.504 224.333   3
   0   0 -15 272.049 232.029  10
   0   0 -14-53.1352 227.990  10
   0   0 -13 1373.94 432.851  10
   0   0 -13 1815.45 495.504   4
   0   0 -12 831.080 368.479  10
   0   0 -12 780.863 311.702   4
   0   0 -11 3819.65 492.663   2
   0   0 -11 3488.30 510.422   4
   0   0 -11 2627.32 525.772  10
   0   0 -10-16.9008 166.498   4
   0   0 -10 43.8439 193.045  10
   0   0  -9 1212.62 335.331   2
   0   0  -9 735.428 273.034   4
   0   0  -8 4179.23 459.284   4
   0   0  -7 2150.24 297.473   4
   0   0  -6 6310.91 464.299   4
   0   0  -5 11343.8 559.111   4
   0   0  -4 8419.96 429.000   4
   0   0  -3 292.170 119.363   4
   0   0  -2 80672.8 912.394   4
   0   0  -2 78695.8 951.482   7
   0   0  -2 82710.1 940.297   3
   0   0   2 86313.1 917.449   4
   0   0   2 81492.4 968.041   7
   0   0   2 86019.1 958.883   3
   0   0   3 143.075 77.0058   3
   0   0   3 299.753 104.382   7
   0   0   4 8559.24 463.722   7
   0   0   4 8866.17 451.295   3
   0   0   5 12203.7 625.539   7
   0   0   5 12400.3 593.806   3
   0   0   6 7341.33 531.912   7
   0   0   6 6701.78 493.138   3
   0   0   7 2876.43 356.202   3
   0   0   7 2698.86 360.490   7
   0   0   8 4414.89 495.132   7
   0   0   8 3814.60 450.567   3
   0   0   9 382.464 252.148   7
   0   0   9 667.645 272.154   3
   0   0  10-94.0611 202.125   3
   0   0  10-92.2307 236.395   7
   0   0  11 4334.92 547.846   3
   0   0  11 4102.47 576.215   7
   0   0  12 1516.53 421.777   7
   0   0  12 954.401 303.862   3
   0   0  13 1882.72 413.789   3
   0   0  13 2500.81 520.050   7
   0   0  14 20.8902 316.675   7
   0   0  15 470.842 332.100   7
   0   1 -16 577.973 354.380  10
   0   1 -15 803.624 335.550  10
   0   1 -14 42.4776 330.297  10
   0   1 -13 1395.81 454.543  10
   0   1 -13 1485.76 408.540   4
   0   1 -12 2746.64 549.136  10
   0   1 -12 3221.29 494.359   2
   0   1 -12 3241.32 512.911   4
   0   1 -11-348.712 243.395  10
   0   1 -11-59.5653 189.019   2
   0   1 -11 158.362 242.487   4
   0   1 -10-84.2257 192.185   2
   0   1 -10 496.184 251.768   4
   0   1  -9 561.729 274.314   2
   0   1  -9 438.084 244.206   4
   0   1  -8 2799.94 381.204   2
   0   1  -8 2204.04 334.244   4
   0   1  -7 5098.10 423.212   4
   0   1  -7 5421.48 470.830   2
   0   1  -6 2521.19 288.278   4
   0   1  -6 2600.38 328.833   2
   0   1  -5 1372.16 233.595   2
   0   1  -5 1352.08 206.014   4
   0   1  -4 297.605 148.126   2
   0   1  -4 147.760 102.630   4
   0   1  -3 2545.09 194.687   4
   0   1  -3 2149.98 157.936   7
   0   1  -3 2383.48 224.033   2
   0   1  -2 261.215 77.3114   2
   0   1  -2 411.118 90.8234   3
   0   1  -2 280.938 78.7967   6
   0   1  -2 540.304 81.4296   1
   0   1   1 9290.05 327.967   4
   0   1   1 7978.65 322.043   7
   0   1   2 2014.52 156.754   3
   0   1   2 2174.49 213.872   7
   0   1   3 6180.53 410.788   7
   0   1   3 5795.48 306.425   3
   0   1   4 6827.35 487.480   7
   0   1   4 6885.66 392.187   3
   0   1   5 1994.64 242.939   3
   0   1   5 2101.91 308.548   7
   0   1   6 3742.90 444.866   7
   0   1   6 3700.71 358.467   3
   0   1   7-6.68122 149.774   3
   0   1   7-12.3658 200.666   7
   0   1   8 687.939 214.784   3
   0   1   8 905.067 276.997   7
   0   1   9 113.620 146.429   3
   0   1   9 97.0481 219.774   7
   0   1  10 53.2710 176.843   3
   0   1  10 0.91291 226.804   7
   0   1  11 593.142 238.381   3
   0   1  11 1560.61 403.461   7
   0   1  12 168.709 179.229   3
   0   1  12-130.723 270.111   7
   0   1  13 207.943 305.907   7
   0   1  14 236.532 273.958   7
   0   1  15-105.848 245.872   7
   0   2 -16 863.227 373.765  10
   0   2 -15-280.897 257.421  10
   0   2 -14 645.885 321.810  10
   0   2 -13 4748.05 706.100  10
   0   2 -13 6492.12 722.623   2
   0   2 -12 508.302 242.251  10
   0   2 -12 1122.32 344.439   4
   0   2 -12 442.258 255.743   2
   0   2 -11 3526.18 499.251   2
   0   2 -11 3502.66 495.442   4
   0   2 -11 4077.98 441.864   1
   0   2 -11 2616.37 452.496  10
   0   2 -10-143.269 231.086   2
   0   2 -10 148.614 203.607   4
   0   2 -10 465.453 207.160   1
   0   2  -9-136.235 215.704   2
   0   2  -9 442.162 200.923   1
   0   2  -9 187.724 176.704   4
   0   2  -8 646.962 232.237   2
   0   2  -8 1340.79 271.999   1
   0   2  -8 732.812 236.286   4
   0   2  -7 3492.85 396.114   2
   0   2  -7 3229.99 369.249   4
   0   2  -7 4119.00 370.358   1
   0   2  -6 879.968 199.875   2
   0   2  -6 999.174 216.593   4
   0   2  -6 1116.65 192.521   1
   0   2  -5 8470.68 504.150   2
   0   2  -5 9568.26 475.514   1
   0   2  -4 13170.7 337.541   7
   0   2  -4 13807.5 593.595   2
   0   2  -4 13814.8 530.793   1
   0   2  -3 3446.82 246.862   1
   0   2  -3 3948.34 309.022   2
   0   2  -3 3169.24 237.911   6
   0   2  -2 2219.59 172.922   6
   0   2  -2 1996.74 184.263   8
   0   2  -2 2304.11 203.721   1
   0   2  -2 1960.38 205.949   2
   0   2  -1 1812.44 174.981   8
   0   2  -1 1572.88 160.615   1
   0   2  -1 1832.90 126.876   7
   0   2  -1 1547.41 171.548   2
   0   2   0 1566.65 167.051   8
   0   2   0 1635.15 162.839   7
   0   2   0 1507.42 169.597   1
   0   2   1 6561.52 311.802   5
   0   2   1 6138.55 335.334   8
   0   2   1 6418.73 360.692   7
   0   2   2 13646.4 533.581   8
   0   2   2 13986.0 597.077   7
   0   2   3 766.115 201.711   7
   0   2   4 4973.56 455.332   7
   0   2   4 5448.49 354.982   3
   0   2   5 2209.53 256.689   3
   0   2   5 1908.38 323.561   7
   0   2   6 1724.67 325.113   7
   0   2   6 1285.29 234.031   3
   0   2   7 18255.1 1077.29   7
   0   2   7 17226.5 814.202   3
   0   2   8 9076.66 807.653   7
   0   2   8 8702.35 622.725   3
   0   2   9 4247.60 474.845   3
   0   2   9 3951.94 567.376   7
   0   2  10 492.955 219.034   3
   0   2  10 199.901 229.194   7
   0   2  11 1140.92 430.488   7
   0   2  11 928.364 265.572   3
   0   2  12 2059.56 511.462   7
   0   2  13 544.019 354.163   7
   0   2  14 1763.11 558.446   7
   0   2  15 602.004 346.667   7
   0   3 -16-272.626 252.800  10
   0   3 -15 633.235 354.566  10
   0   3 -14-37.6191 251.557  10
   0   3 -13 84.8855 202.153  10
   0   3 -13 904.126 348.520   2
   0   3 -12 241.802 177.470  10
   0   3 -12 129.107 152.388   1
   0   3 -11 426.903 220.659  10
   0   3 -11 704.905 286.476   2
   0   3 -11 237.338 158.992   1
   0   3 -10 5553.41 600.885   2
   0   3 -10 5038.93 474.845   1
   0   3 -10 4113.50 494.456  10
   0   3  -9 2763.02 350.875   1
   0   3  -9 3517.19 494.616   2
   0   3  -8 8408.79 676.714   2
   0   3  -8 8595.12 570.025   1
   0   3  -7 2674.96 388.764   2
   0   3  -7 2000.26 284.741   1
   0   3  -6 1694.87 303.109   2
   0   3  -6 1420.67 142.600   7
   0   3  -6 1644.43 245.259   1
   0   3  -5 3662.16 161.000   7
   0   3  -5 4192.23 406.884   2
   0   3  -5 4545.19 361.769   1
   0   3  -4 3184.14 297.965   8
   0   3  -4 3122.70 296.650   1
   0   3  -4 2894.86 317.076   2
   0   3  -3 5481.80 378.349   8
   0   3  -3 5607.12 376.678   1
   0   3  -3 4448.73 363.384   2
   0   3  -2 372.256 112.100   8
   0   3  -2 410.741 124.075   1
   0   3  -2 322.672 115.058   2
   0   3  -2 337.941 68.4000   7
   0   3  -1 10735.1 504.367   8
   0   3  -1 10232.4 488.788   1
   0   3  -1 10486.3 393.178   7
   0   3   0 9147.70 470.719   8
   0   3   0 8800.22 464.279   1
   0   3   0 9510.49 451.240   7
   0   3   1 3217.93 297.422   8
   0   3   1 2814.35 295.377   7
   0   3   2 3066.42 302.341   8
   0   3   2 3323.79 354.511   7
   0   3   3 17069.8 705.115   8
   0   3   3 17292.8 830.695   7
   0   3   4 1932.61 271.424   8
   0   3   4 2276.05 354.672   7
   0   3   5 1092.37 255.930   7
   0   3   6 4414.11 551.117   7
   0   3   7 3107.15 513.812   7
   0   3   8 4277.06 606.616   7
   0   3   9 1750.06 454.176   7
   0   3  10 3.44590 251.406   7
   0   3  11 125.740 297.018   7
   0   3  12 217.539 386.879   7
   0   3  13 1061.27 464.833   7
   0   3  14 47.6507 308.472   7
   0   4 -14 211.714 186.281  10
   0   4 -14-19.0341 243.202   2
   0   4 -13 570.440 285.312  10
   0   4 -13 817.828 326.646   2
   0   4 -12-54.0730 171.604  10
   0   4 -12 146.352 180.381   1
   0   4 -12 397.990 278.392   2
   0   4 -11 5920.50 660.602   2
   0   4 -11 6228.37 570.016   1
   0   4 -11 4747.72 531.446  10
   0   4 -10-200.934 149.862  10
   0   4 -10-60.3078 148.400   1
   0   4  -9 15906.1 842.576   1
   0   4  -9 14960.2 941.315   2
   0   4  -9 12758.6 733.445  10
   0   4  -8 2714.97 439.004   2
   0   4  -8 2300.59 337.765   1
   0   4  -7 1298.70 260.909   1
   0   4  -7 1247.22 303.043   2
   0   4  -6 25936.9 1075.80   2
   0   4  -6 26078.5 982.464   1
   0   4  -5 450.303 151.824   1
   0   4  -5 218.752 171.073   2
   0   4  -4 41099.2 1172.37   8
   0   4  -4 41332.0 1168.22   1
   0   4  -4 40284.9 1204.33   2
   0   4  -3 546.407 164.579   1
   0   4  -3 606.147 180.113   8
   0   4  -3 737.361 189.732   2
   0   4  -2 5497.35 421.554   8
   0   4  -2 5731.24 429.924   1
   0   4  -2 5370.40 296.667   7
   0   4  -1 314.258 124.116   8
   0   4  -1 143.978 112.822   1
   0   4  -1 493.514 125.522   7
   0   4   0 7573.92 288.631   9
   0   4   0 7726.80 292.621   9
   0   4   0 8494.81 532.665   8
   0   4   0 8317.01 526.254   1
   0   4   0 8306.59 488.620   7
   0   4   1 14398.1 717.651   8
   0   4   1 15198.0 720.434   7
   0   4   2 8198.96 547.432   8
   0   4   2 7778.08 576.568   7
   0   4   3 8470.35 564.977   8
   0   4   3 8908.71 681.239   7
   0   4   4 3410.70 394.561   8
   0   4   4 3956.80 490.888   7
   0   4   5 8408.79 613.826   8
   0   4   5 8897.76 769.876   7
   0   4   6 696.134 212.287   8
   0   4   6 135.509 203.282   7
   0   4   7 5733.95 548.398   8
   0   4   7 5888.23 698.845   7
   0   4   8 359.786 172.016   8
   0   4   8 386.796 270.704   7
   0   4   9 724.761 237.353   8
   0   4   9 1006.91 496.347   7
   0   4  10 982.910 378.430   7
   0   4  11 45.6742 297.270   7
   0   4  12 823.073 421.868   7
   0   4  13 244.044 308.464   7
   0   5 -15 128.541 237.917   2
   0   5 -14-36.4218 238.332   2
   0   5 -13-290.892 286.125   2
   0   5 -12 205.958 207.014  10
   0   5 -12 739.136 245.803   1
   0   5 -12 664.453 317.048   2
   0   5 -11 540.538 185.674  10
   0   5 -11 419.125 202.137   1
   0   5 -11 699.337 302.143   2
   0   5 -10 1914.84 297.103  10
   0   5 -10 2994.31 425.429   1
   0   5 -10 1763.68 397.102   2
   0   5  -9-10.4855 112.551  10
   0   5  -9 235.875 184.768   1
   0   5  -9-114.233 226.630   2
   0   5  -8 937.825 169.492  10
   0   5  -8 1033.14 296.654   2
   0   5  -8 1213.93 287.606   1
   0   5  -7 1174.51 159.082  10
   0   5  -7 1445.30 311.418   1
   0   5  -7 1002.11 263.378   2
   0   5  -6 501.929 82.0221  10
   0   5  -6 475.377 87.4532  10
   0   5  -6 1168.22 261.844   1
   0   5  -6 915.564 236.213   2
   0   5  -5 9317.50 635.342   8
   0   5  -5 9265.64 632.229   1
   0   5  -5 8511.91 646.820   2
   0   5  -4 747.480 227.357   1
   0   5  -4 1134.61 279.775   8
   0   5  -4 376.028 184.934   2
   0   5  -3 738.208 201.139   1
   0   5  -3 642.589 161.846   8
   0   5  -3 366.195 166.160   2
   0   5  -2 1112.28 232.473   1
   0   5  -2 574.309 195.353   8
   0   5  -2 888.735 160.715   7
   0   5  -1 12071.5 708.444   8
   0   5  -1 12885.5 713.893   1
   0   5  -1 12398.0 587.321   7
   0   5   0 1015.58 122.630   9
   0   5   0 952.607 122.058   9
   0   5   0 1323.74 259.869   8
   0   5   0 1200.51 272.954   1
   0   5   0 1180.36 236.865   7
   0   5   1 3749.91 439.331   8
   0   5   1 3810.06 415.803   7
   0   5   2 799.929 248.847   8
   0   5   2 621.467 239.398   7
   0   5   3 228.307 201.367   8
   0   5   3 229.603 194.465   7
   0   5   4 345.871 195.903   8
   0   5   4 321.459 220.265   7
   0   5   5 416.094 166.381   8
   0   5   5 286.357 218.232   7
   0   5   6-101.498 139.123   8
   0   5   6 132.374 252.574   7
   0   5   7 1956.81 367.644   8
   0   5   7 1632.54 426.419   7
   0   5   8 101.294 175.766   8
   0   5   8 592.451 363.923   7
   0   5   9 567.384 339.367   7
   0   5  10 901.139 430.191   7
   0   5  11 1639.43 566.884   7
   0   5  12 360.475 287.603   9
   0   5  12 883.112 472.433   7
   0   6 -15 396.373 328.422   2
   0   6 -14-27.3831 240.731   2
   0   6 -13 583.375 275.723   1
   0   6 -13-212.714 249.923   2
   0   6 -12 299.918 225.611   1
   0   6 -12-911.317 376.917   2
   0   6 -11 781.073 261.237   1
   0   6 -11 705.344 299.979   2
   0   6 -10 821.108 281.156   1
   0   6 -10 572.039 266.610   2
   0   6  -9 1122.51 292.652   1
   0   6  -9 732.270 318.335   2
   0   6  -8 289.570 227.656   1
   0   6  -8 124.655 195.862   2
   0   6  -7 259.544 204.511   1
   0   6  -7-350.981 276.381   2
   0   6  -6 484.997 196.368   1
   0   6  -6 668.414 288.231   8
   0   6  -6 590.330 260.534   2
   0   6  -5 161.561 165.449   1
   0   6  -5 300.911 258.382   8
   0   6  -5 176.321 234.472   2
   0   6  -4 1492.00 296.000   1
   0   6  -4 1417.89 302.599   8
   0   6  -3 8049.68 647.319   8
   0   6  -3 9017.20 664.632   1
   0   6  -3 8631.01 420.089   7
   0   6  -2 11004.6 744.117   8
   0   6  -2 11007.7 744.913   1
   0   6  -2 11161.8 558.060   7
   0   6  -1 15101.7 874.723   8
   0   6  -1 14837.7 883.576   1
   0   6  -1 15407.6 734.800   7
   0   6   0 1123.46 129.617   9
   0   6   0 1919.56 334.753   1
   0   6   0 2122.68 362.895   8
   0   6   0 1254.91 135.974   9
   0   6   0 2166.87 310.538   7
   0   6   1 6883.17 393.359   9
   0   6   1 8212.10 646.871   7
   0   6   1 8346.07 663.373   8
   0   6   2 494.928 163.257   9
   0   6   2 682.486 227.364   8
   0   6   2 607.941 246.196   7
   0   6   3 10224.6 759.334   8
   0   6   3 9927.23 812.205   7
   0   6   4 779.313 258.169   8
   0   6   4 435.450 252.033   7
   0   6   5 4730.87 560.624   8
   0   6   5 4962.09 655.622   7
   0   6   6-105.530 165.950   8
   0   6   6 198.278 276.540   7
   0   6   7 1495.63 343.162   8
   0   6   7 2161.79 532.476   7
   0   6   8 1162.10 330.630   8
   0   6   8 2249.61 543.597   7
   0   6   9 852.748 408.947   7
   0   6  10 2382.40 558.882   9
   0   6  10 3743.37 775.270   7
   0   6  11 201.738 293.878   9
   0   6  11-185.094 375.945   7
   0   6  12 1021.28 465.095   9
   0   7 -15 122.395 294.908   2
   0   7 -14 1695.81 449.184   2
   0   7 -13 530.452 267.919   1
   0   7 -13-283.464 296.767   2
   0   7 -12 1469.67 355.013   1
   0   7 -12 40.9160 250.019   2
   0   7 -11-50.8494 230.498   1
   0   7 -11-306.663 318.360   2
   0   7 -10 113.616 164.442   1
   0   7 -10-168.200 315.218   2
   0   7  -9 3544.22 480.141   1
   0   7  -9 3056.01 534.078   2
   0   7  -8 509.473 251.080   1
   0   7  -8 108.106 217.588   2
   0   7  -7 704.733 271.276   1
   0   7  -7 418.167 252.986   2
   0   7  -6 3115.82 466.703   1
   0   7  -6 2956.30 448.294   8
   0   7  -6 2368.03 447.017   2
   0   7  -5 2490.10 422.310   1
   0   7  -5 2790.18 432.549   8
   0   7  -4 540.565 289.731   8
   0   7  -4 460.875 218.529   1
   0   7  -3 7074.86 649.415   8
   0   7  -3 7421.67 661.420   1
   0   7  -2 544.129 218.261   8
   0   7  -2 702.942 267.481   1
   0   7  -2 732.662 204.263   7
   0   7  -1 9992.56 796.362   8
   0   7  -1 10615.3 800.808   1
   0   7  -1 9453.60 640.730   7
   0   7   0 895.132 258.439   8
   0   7   0 1213.49 288.460   7
   0   7   1 613.002 228.005   8
   0   7   1 430.906 241.413   7
   0   7   2 954.173 190.398   9
   0   7   2 1606.69 350.833   8
   0   7   2 1178.03 311.432   7
   0   7   3 3414.92 392.480   9
   0   7   3 4064.22 529.445   8
   0   7   3 3585.39 534.077   7
   0   7   4 828.314 238.278   9
   0   7   4 1136.10 317.025   8
   0   7   4 1070.00 364.264   7
   0   7   5 341.489 205.651   9
   0   7   5-80.0778 191.616   8
   0   7   5 261.932 269.259   7
   0   7   6 168.953 214.999   9
   0   7   6-159.949 145.867   8
   0   7   6 452.224 315.270   7
   0   7   7 381.906 275.575   9
   0   7   7 157.971 233.031   8
   0   7   7 838.153 404.913   7
   0   7   8 494.851 448.140   7
   0   7   9 1449.56 515.048   7
   0   8 -16 323.463 281.830   2
   0   8 -15 1792.21 504.380   2
   0   8 -14 120.078 286.772   2
   0   8 -13 3586.33 591.974   1
   0   8 -13 2613.73 572.490   2
   0   8 -12 1869.16 436.085   1
   0   8 -12 2696.72 573.388   2
   0   8 -11 328.986 260.323   1
   0   8 -11 117.848 260.987   2
   0   8 -10 5353.73 658.980   1
   0   8 -10 4071.44 660.061   2
   0   8  -9 548.823 244.665   1
   0   8  -9-199.861 258.932   2
   0   8  -8 8086.79 792.671   1
   0   8  -8 5934.77 720.197   2
   0   8  -7 1944.44 416.410   1
   0   8  -7 1283.65 380.752   8
   0   8  -6 6386.96 709.073   8
   0   8  -6 6312.72 669.640   1
   0   8  -5 354.695 226.674   1
   0   8  -5 50.4081 192.268   8
   0   8  -4 3365.82 528.138   8
   0   8  -4 4144.64 539.376   1
   0   8  -3 1103.43 328.577   8
   0   8  -3 687.573 255.120   1
   0   8  -2 4241.97 568.197   8
   0   8  -2 4563.24 581.219   1
   0   8  -2 4363.06 438.438   7
   0   8  -1 929.564 300.834   8
   0   8  -1 1222.81 298.644   7
   0   8   0 347.527 226.244   8
   0   8   0 13.9597 198.422   7
   0   8   1 246.051 218.134   8
   0   8   1 687.829 269.911   7
   0   8   2 1882.35 409.353   8
   0   8   2 1273.92 360.981   7
   0   8   3 528.036 292.358   8
   0   8   3 504.959 279.034   7
   0   8   4 341.271 301.652   8
   0   8   4 166.874 209.584   7
   0   8   5 474.177 234.709   8
   0   8   5 1076.93 417.213   7
   0   8   6 203.942 179.365   8
   0   8   6 976.474 400.864   7
   0   8   7 282.535 237.540   8
   0   8   7 336.972 342.706   7
   0   8   8 353.019 319.813   7
   0   9 -15-306.577 393.952   2
   0   9 -14 777.541 424.150   2
   0   9 -13-190.461 265.439   1
   0   9 -13 258.751 315.339   2
   0   9 -12 65.6934 269.036   1
   0   9 -12 30.5045 282.521   2
   0   9 -11 579.751 301.489   1
   0   9 -11-62.0744 273.253   2
   0   9 -10 1083.95 363.638   1
   0   9 -10 1621.17 445.888   2
   0   9  -9 148.120 188.029   1
   0   9  -8-111.640 193.710   1
   0   9  -7 587.940 284.450   1
   0   9  -7 391.746 307.624   8
   0   9  -6 275.977 248.715   1
   0   9  -6 294.470 269.289   8
   0   9  -5 1196.72 369.964   8
   0   9  -5 932.166 317.406   1
   0   9  -4 195.266 259.623   8
   0   9  -4 118.507 202.533   1
   0   9  -3-203.815 281.852   8
   0   9  -3-249.741 200.335   1
   0   9  -2 162.439 202.654   8
   0   9  -1 191.702 240.941   8
   0   9  -1-15.6688 171.937   7
   0   9   0 562.793 297.257   8
   0   9   0 694.837 268.610   7
   0   9   1 1115.16 348.690   8
   0   9   1 1907.28 431.041   7
   0   9   2 1297.33 393.731   8
   0   9   2 1786.04 426.737   7
   0   9   3 328.966 254.091   8
   0   9   3 368.989 226.029   7
   0   9   4 830.304 326.328   8
   0   9   4 926.404 339.353   7
   0   9   5 639.225 267.253   8
   0   9   5 878.073 397.885   7
   0   9   6 1027.84 353.892   8
   0   9   6 1716.16 521.458   7
   0   9   7 878.208 437.778   7
   0  10 -13 33.9488 229.274   1
   0  10 -12 474.996 277.840   1
   0  10 -11 366.073 307.626   1
   0  10 -10 665.047 295.216   1
   0  10  -9 542.570 316.348   1
   0  10  -8 715.737 305.259   1
   0  10  -7 3214.00 579.203   1
   0  10  -7 2897.83 597.237   8
   0  10  -6 2200.74 507.807   8
   0  10  -6 2033.65 481.536   1
   0  10  -5 3385.15 606.071   8
   0  10  -5 3751.25 624.612   1
   0  10  -4 541.802 313.463   8
   0  10  -4 372.976 266.491   1
   0  10  -3 1540.47 425.251   8
   0  10  -2 481.096 310.485   8
   0  10  -1 3776.64 647.053   8
   0  10   0 277.776 264.665   8
   0  10   1 4014.30 680.440   8
   0  10   1 3717.85 623.159   7
   0  10   2-133.824 284.511   8
   0  10   2-595.857 311.576   7
   0  10   3 821.294 331.640   8
   0  10   3 581.988 343.411   7
   0  10   4 1688.61 467.651   8
   0  10   4 1844.57 491.590   7
   0  10   5 892.485 382.798   8
   0  10   5 1449.98 495.241   7
   0  11 -13 337.302 280.795   1
   0  11 -12 309.499 263.481   1
   0  11 -11 235.216 278.674   1
   0  11 -10 367.197 320.828   1
   0  11  -9 1399.61 427.772   1
   0  11  -8 896.305 391.201   1
   0  11  -7 3630.08 682.677   8
   0  11  -7 2768.81 602.142   1
   0  11  -6 1262.60 456.973   8
   0  11  -6 1667.99 459.395   1
   0  11  -5 39.3053 290.037   8
   0  11  -5 760.621 369.764   1
   0  11  -4 556.695 402.774   8
   0  11  -3 349.172 302.660   8
   0  11  -2 55.6112 246.819   8
   0  11  -1 294.188 265.118   8
   0  11   0 501.772 299.310   8
   0  11   1-166.494 272.689   8
   0  11   2 579.476 325.642   8
   0  11   3-373.549 327.149   8
   0  11   4-466.813 305.909   8
   0  12 -10 448.559 319.265   1
   0  12  -9-58.1995 300.454   1
   0  12  -8 1985.63 562.120   1
   0  12  -7 713.025 417.598   8
   0  12  -7 559.266 334.586   1
   0  12  -6 703.058 390.932   1
   0  12  -6 1207.91 439.381   8
   0  12  -5 221.613 324.061   8
   0  12  -4 672.280 408.572   8
   0  12  -3-48.1715 225.922   8
   0  12  -2-27.9748 318.968   8
   0  12  -1 34.9072 298.076   8
   0  12   0 623.927 393.212   8
   1 -13   2 255.404 300.853   4
   1 -13   3-32.0962 234.686   4
   1 -13   4-531.222 346.828   4
   1 -13   5-117.237 257.909   4
   1 -13   9 19.6108 241.684   3
   1 -12  -1-10.5955 292.603   4
   1 -12   0 619.604 391.219   4
   1 -12   1 74.4801 272.626   4
   1 -12   2 681.860 347.694   4
   1 -12   3-156.245 239.280   4
   1 -12   4-115.174 272.218   4
   1 -12   5-430.064 281.747   4
   1 -12   6 2034.91 539.076   3
   1 -12   6 1460.15 436.125   4
   1 -12   7 722.203 418.476   3
   1 -12   7 102.625 188.169   4
   1 -12   8 1327.61 417.182   3
   1 -12   9 136.688 324.618   3
   1 -12  10 601.656 384.546   3
   1 -12  11 632.330 354.050   3
   1 -11  -4 264.703 291.230   4
   1 -11  -3 759.115 399.620   4
   1 -11  -2 357.113 344.115   4
   1 -11  -1 204.384 240.297   4
   1 -11   0 2436.71 568.787   4
   1 -11   1-163.023 238.100   4
   1 -11   2 3169.33 591.917   4
   1 -11   3 1326.48 413.018   4
   1 -11   4 1371.09 390.826   3
   1 -11   4 1063.73 388.954   4
   1 -11   5 3083.41 518.813   5
   1 -11   5 3424.39 636.359   3
   1 -11   6 1005.16 338.079   5
   1 -11   6 623.138 343.805   3
   1 -11   7 3599.80 624.420   3
   1 -11   8 560.597 361.815   3
   1 -11   9 479.705 369.096   3
   1 -11  10-167.988 263.367   3
   1 -11  11 199.263 406.636   3
   1 -11  12 558.987 370.931   3
   1 -10  -6 719.078 377.634   4
   1 -10  -5 1796.75 473.947   4
   1 -10  -4 474.098 352.465   4
   1 -10  -3 447.259 344.004   4
   1 -10  -2 1587.98 465.582   4
   1 -10  -1 880.626 321.113   4
   1 -10   0 1409.62 365.024   5
   1 -10   0 1344.33 413.355   4
   1 -10   1 1904.28 400.191   5
   1 -10   1 2358.69 511.239   4
   1 -10   2 618.558 263.248   5
   1 -10   2 742.233 305.823   3
   1 -10   2 743.979 350.336   4
   1 -10   3 231.105 229.310   5
   1 -10   3 150.276 236.434   3
   1 -10   3 464.933 304.345   4
   1 -10   4 2336.61 444.708   5
   1 -10   4 1748.57 427.141   3
   1 -10   5-115.062 159.724   5
   1 -10   5-7.78775 208.070   3
   1 -10   6 3834.35 618.514   3
   1 -10   7 286.723 234.428   3
   1 -10   8 389.099 337.718   3
   1 -10   9 1050.96 430.499   3
   1 -10  10-15.3837 291.537   3
   1 -10  11 1441.25 549.515   3
   1 -10  12 582.757 431.062   3
   1 -10  13-417.242 381.292   3
   1  -9  -9 180.078 346.797  10
   1  -9  -8 652.392 341.120  10
   1  -9  -7 279.464 275.694  10
   1  -9  -7-473.399 375.624   4
   1  -9  -6 365.652 340.869   4
   1  -9  -6 517.107 346.451  10
   1  -9  -5 382.311 329.408  10
   1  -9  -5-476.148 356.323   4
   1  -9  -4 863.368 307.943  10
   1  -9  -4-10.6315 242.834   4
   1  -9  -3-30.9268 203.302  10
   1  -9  -3 86.1202 201.527   4
   1  -9  -2 299.796 227.932  10
   1  -9  -2 430.969 299.883   4
   1  -9  -1 76.5160 175.915   5
   1  -9  -1 804.988 345.296   4
   1  -9   0 367.022 246.085   5
   1  -9   0-11.7931 154.344   3
   1  -9   0 495.758 261.816   4
   1  -9   1 3450.76 482.787   5
   1  -9   1 2812.02 424.465   3
   1  -9   1 3240.30 524.482   4
   1  -9   2 159.350 206.592   5
   1  -9   2 83.7234 153.667   3
   1  -9   3 1442.96 265.411   6
   1  -9   3 1956.13 401.352   5
   1  -9   3 1779.39 375.497   3
   1  -9   4 1285.68 347.514   5
   1  -9   4 716.816 303.942   3
   1  -9   5 431.495 306.389   3
   1  -9   6 1436.69 392.795   3
   1  -9   7 1649.79 418.374   3
   1  -9   8 110.468 270.424   3
   1  -9   9 2796.65 581.976   3
   1  -9  10 1452.66 431.971   3
   1  -9  11 1199.31 434.500   3
   1  -9  12 1482.69 520.153   3
   1  -9  13 665.450 436.475   3
   1  -9  14 2058.06 580.442   3
   1  -8 -10 331.663 328.998  10
   1  -8  -9-526.426 313.740  10
   1  -8  -9 40.8316 261.189   4
   1  -8  -8 225.111 237.245  10
   1  -8  -8-69.2658 306.493   4
   1  -8  -7 883.708 439.036  10
   1  -8  -7 146.234 252.132   4
   1  -8  -6-91.5293 320.131   4
   1  -8  -6 600.181 351.399  10
   1  -8  -5-12.1897 187.585  10
   1  -8  -5 840.817 346.084   4
   1  -8  -4 136.610 271.314   4
   1  -8  -4 727.408 317.636  10
   1  -8  -3 1627.20 430.065   4
   1  -8  -3 1865.35 389.937  10
   1  -8  -2 1248.58 319.995  10
   1  -8  -2 1361.48 410.089   4
   1  -8  -1 379.757 204.598   5
   1  -8  -1 481.112 199.913  10
   1  -8  -1 352.486 292.980   4
   1  -8   0 2437.32 371.549   5
   1  -8   0 2033.59 295.018  10
   1  -8   0 1600.32 377.106   4
   1  -8   1 332.835 205.680   5
   1  -8   1 264.170 185.470   3
   1  -8   1 193.355 122.995  10
   1  -8   2 7237.28 632.131   5
   1  -8   2 6392.52 604.783   3
   1  -8   3 564.818 216.145   5
   1  -8   3 330.852 234.388   3
   1  -8   3 286.620 162.836   6
   1  -8   4 1071.10 319.582   3
   1  -8   4 832.322 215.280   6
   1  -8   5 102.403 118.109   6
   1  -8   5 25.5134 195.389   3
   1  -8   6 1113.00 369.548   3
   1  -8   6 833.627 217.058   6
   1  -8   7 2645.84 509.918   3
   1  -8   8 3339.76 535.648   3
   1  -8   9 3121.74 534.921   3
   1  -8  10 1515.62 426.187   3
   1  -8  11 3336.83 638.891   3
   1  -8  12-65.6244 319.357   3
   1  -8  13 5298.74 844.189   3
   1  -8  14 1080.43 448.941   3
   1  -8  15 939.655 512.553   3
   1  -7 -11 1141.42 480.004  10
   1  -7 -11 1457.80 559.260   4
   1  -7 -10 409.702 290.288  10
   1  -7 -10 637.403 408.171   4
   1  -7  -9 1293.24 448.142  10
   1  -7  -9 2026.12 539.476   4
   1  -7  -8 453.019 350.731   4
   1  -7  -8 1358.81 440.303  10
   1  -7  -7 1759.89 478.794  10
   1  -7  -7 2037.32 483.630   4
   1  -7  -6 2005.83 452.803  10
   1  -7  -6 1979.40 471.515   4
   1  -7  -5 1733.39 434.508  10
   1  -7  -5 1042.63 350.644   4
   1  -7  -4 10620.2 905.347   4
   1  -7  -4 10809.7 820.577  10
   1  -7  -3-257.634 225.398   4
   1  -7  -3 232.696 238.882  10
   1  -7  -2 9128.05 705.933   5
   1  -7  -2 7270.93 691.483   4
   1  -7  -2 7616.82 601.828  10
   1  -7  -1 1524.26 309.596   5
   1  -7  -1 1370.51 284.072  10
   1  -7  -1 959.139 317.451   4
   1  -7   0 2166.72 359.569   5
   1  -7   0 1769.67 249.677  10
   1  -7   1 11878.3 743.424   5
   1  -7   1 10917.2 527.921  10
   1  -7   1 11383.4 674.944   3
   1  -7   2 953.424 156.018  10
   1  -7   2 771.510 254.248   5
   1  -7   2 628.938 203.713   3
   1  -7   3 3414.52 201.062  10
   1  -7   3 4584.28 372.993   6
   1  -7   3 5047.92 517.830   3
   1  -7   4 3042.15 309.869   6
   1  -7   4 2151.20 369.868   3
   1  -7   5 773.630 188.070   6
   1  -7   5 855.843 300.166   3
   1  -7   6 349.727 238.993   3
   1  -7   7 1165.95 336.803   3
   1  -7   8 393.237 275.604   3
   1  -7   9 4353.53 618.436   3
   1  -7  10 539.429 336.008   3
   1  -7  11 205.841 304.707   3
   1  -7  12 443.968 388.275   3
   1  -7  13 1046.47 492.938   3
   1  -7  14 190.372 350.404   3
   1  -7  15 124.119 319.302   3
   1  -6 -12 411.090 340.012   4
   1  -6 -11 905.084 448.757  10
   1  -6 -11 1572.19 518.603   4
   1  -6 -10 697.631 351.844  10
   1  -6 -10 463.233 359.876   4
   1  -6  -9 715.192 320.581  10
   1  -6  -9 899.393 382.942   4
   1  -6  -8 218.407 240.020   4
   1  -6  -8-28.2524 208.779  10
   1  -6  -7-18.0308 200.307  10
   1  -6  -7 86.4023 200.780   4
   1  -6  -6 444.814 282.313  10
   1  -6  -6 514.908 266.044   4
   1  -6  -5 5094.81 595.166  10
   1  -6  -5 5040.19 618.340   4
   1  -6  -4 1283.14 320.780   4
   1  -6  -4 1373.57 326.715  10
   1  -6  -3 7908.42 713.525   4
   1  -6  -3 7498.99 619.316  10
   1  -6  -2 4365.93 457.384   5
   1  -6  -2 3240.97 393.903  10
   1  -6  -2 3191.28 440.787   4
   1  -6  -1 1364.12 252.395  10
   1  -6  -1 1390.87 286.078   5
   1  -6  -1 1010.12 255.188   4
   1  -6   0 4122.77 345.207  10
   1  -6   0 4313.86 429.036   5
   1  -6   1 459.351 136.437  10
   1  -6   1 172.505 156.561   5
   1  -6   1 447.333 174.395   3
   1  -6   2 2009.50 193.747  10
   1  -6   2 2138.10 303.970   3
   1  -6   3 1038.06 181.400   6
   1  -6   3 623.716 195.371   3
   1  -6   3 788.170 102.628  10
   1  -6   4 3933.31 226.068   9
   1  -6   4 4622.44 219.962   7
   1  -6   4 4885.71 499.426   3
   1  -6   4 5563.25 350.659   6
   1  -6   5 523.884 268.909   3
   1  -6   5 100.656 141.847   6
   1  -6   6 772.795 332.586   3
   1  -6   7 572.742 286.127   3
   1  -6   8 397.100 285.675   3
   1  -6   9-104.888 208.719   3
   1  -6  10 517.772 270.513   3
   1  -6  11-187.366 215.235   3
   1  -6  12 412.469 273.109   3
   1  -6  13 62.7075 263.892   3
   1  -6  14 417.238 326.171   3
   1  -6  15 302.391 418.158   3
   1  -5 -13-287.713 309.386   4
   1  -5 -12 348.411 307.988  10
   1  -5 -12-403.578 346.677   4
   1  -5 -11 106.892 326.099  10
   1  -5 -11 116.788 283.255   4
   1  -5 -10 278.983 282.323  10
   1  -5 -10 170.801 241.256   4
   1  -5  -9-121.039 215.096  10
   1  -5  -9 165.797 248.833   4
   1  -5  -8 2560.85 485.118  10
   1  -5  -8 2499.43 472.585   4
   1  -5  -7 763.468 316.068  10
   1  -5  -7 320.780 219.145   4
   1  -5  -6-77.3741 201.008   4
   1  -5  -6 92.6613 201.501  10
   1  -5  -5 52.3497 193.087   4
   1  -5  -5 138.956 208.923  10
   1  -5  -4 263.717 154.163  10
   1  -5  -4 399.052 229.409   4
   1  -5  -3 2474.69 362.071  10
   1  -5  -3 2722.41 397.211   4
   1  -5  -2 16.6347 120.866  10
   1  -5  -2 135.315 130.721   5
   1  -5  -2 251.549 157.299   4
   1  -5  -1 7250.65 501.580   5
   1  -5  -1 7810.23 472.391  10
   1  -5   0 4257.73 377.518   5
   1  -5   0 4917.40 341.142  10
   1  -5   1 9792.79 582.041   5
   1  -5   1 10875.2 438.592  10
   1  -5   1 9281.27 510.845   3
   1  -5   2 126.709 74.0583  10
   1  -5   2 222.791 137.405   3
   1  -5   2 98.6204 40.7487   9
   1  -5   3 23394.3 609.288   6
   1  -5   3 23394.3 533.735   7
   1  -5   3 23310.6 927.589   3
   1  -5   3 19465.8 481.387   9
   1  -5   4 4229.36 168.514   7
   1  -5   4 5811.12 507.563   3
   1  -5   4 5211.47 310.613   6
   1  -5   5 21871.0 1018.34   3
   1  -5   6 3482.96 465.974   3
   1  -5   7 1924.08 127.044   7
   1  -5   7 4441.27 550.173   3
   1  -5   8 4027.51 530.876   3
   1  -5   8 3076.05 217.923   7
   1  -5   9 41.7417 222.906   3
   1  -5  10 5538.65 694.931   3
   1  -5  11 448.274 331.186   3
   1  -5  12 2588.43 562.232   3
   1  -5  13 1032.57 405.994   3
   1  -5  14 1412.32 483.702   3
   1  -5  15 1437.10 499.939   3
   1  -5  16 669.535 432.988   3
   1  -4 -13 627.007 409.257  10
   1  -4 -13-107.157 236.975   4
   1  -4 -12 132.041 279.793  10
   1  -4 -12-438.278 334.999   4
   1  -4 -11 162.390 272.901  10
   1  -4 -11 125.755 226.929   4
   1  -4 -10 246.395 245.888  10
   1  -4 -10 817.165 330.685   4
   1  -4  -9 2042.50 451.147  10
   1  -4  -9 3221.76 518.192   4
   1  -4  -8 167.368 215.227   4
   1  -4  -8 246.358 200.932  10
   1  -4  -7 4771.59 591.186  10
   1  -4  -7 4251.87 526.699   4
   1  -4  -6 114.810 219.646  10
   1  -4  -6 120.059 191.126   4
   1  -4  -5 1735.09 355.730  10
   1  -4  -5 1640.30 346.248   4
   1  -4  -4 3945.93 454.053   4
   1  -4  -4 3985.08 446.205  10
   1  -4  -3 532.874 190.448  10
   1  -4  -3 364.619 85.5654   3
   1  -4  -3 631.676 195.499   4
   1  -4  -2 4692.83 396.038   5
   1  -4  -2 4312.56 402.093   4
   1  -4  -2 4419.18 381.063  10
   1  -4  -1 2712.98 287.388   5
   1  -4  -1 2936.44 281.303  10
   1  -4   0 6373.50 426.854   5
   1  -4   0 6678.08 353.395  10
   1  -4   1 4373.02 194.641   9
   1  -4   1 4565.63 329.091   3
   1  -4   1 4950.05 276.255  10
   1  -4   2 17673.0 418.199   9
   1  -4   2 17411.2 442.031  10
   1  -4   2 18141.2 477.655   7
   1  -4   2 17396.4 436.148   6
   1  -4   2 17139.8 678.829   3
   1  -4   3 6716.16 312.762   9
   1  -4   3 6437.54 240.946   7
   1  -4   3 7398.19 488.981   3
   1  -4   3 7459.65 300.900   6
   1  -4   4 9057.42 242.975   7
   1  -4   4 10709.2 641.709   3
   1  -4   5 12628.7 334.592   7
   1  -4   5 13726.7 767.226   3
   1  -4   6 2241.82 376.727   3
   1  -4   6 2425.40 188.638   7
   1  -4   7 7034.48 374.138   7
   1  -4   7 6697.44 620.775   3
   1  -4   8 805.942 294.700   3
   1  -4   8 983.772 176.553   7
   1  -4   9 3953.86 581.341   3
   1  -4   9 3502.47 355.086   7
   1  -4  10 2905.39 512.905   3
   1  -4  10 2703.72 337.556   7
   1  -4  11 652.680 321.445   3
   1  -4  11 249.669 186.047   7
   1  -4  12 336.635 300.426   3
   1  -4  13 1180.40 423.139   3
   1  -4  14 1097.86 434.812   3
   1  -4  15 100.195 279.439   3
   1  -4  16 1565.49 497.592   3
   1  -3 -14 79.8580 305.312  10
   1  -3 -13 2485.75 543.808  10
   1  -3 -13 1548.47 447.493   4
   1  -3 -12 445.656 307.026  10
   1  -3 -12 257.927 216.929   4
   1  -3 -11 588.639 303.236   4
   1  -3 -11 861.534 376.903  10
   1  -3 -10 3610.98 579.757  10
   1  -3 -10 3905.39 568.399   4
   1  -3  -9-24.8432 187.144  10
   1  -3  -9-99.4081 178.936   4
   1  -3  -8 12054.2 853.336   4
   1  -3  -8 10689.7 897.449  10
   1  -3  -7 219.041 203.263  10
   1  -3  -7-107.364 180.783   4
   1  -3  -6 8099.31 632.542   4
   1  -3  -6 8024.16 691.575  10
   1  -3  -5 4774.61 456.942   4
   1  -3  -5 5318.16 514.030  10
   1  -3  -4 3137.05 370.892  10
   1  -3  -4 3283.26 357.399   4
   1  -3  -4 2661.03 206.930   3
   1  -3  -3 30032.8 977.714   4
   1  -3  -3 29495.1 972.732  10
   1  -3  -3 29647.4 558.826   3
   1  -3  -2 20467.4 732.939   5
   1  -3  -2 19812.4 708.043  10
   1  -3  -2 18475.1 386.168   3
   1  -3  -1 6885.00 398.341   5
   1  -3  -1 7341.83 380.777  10
   1  -3   0 88154.8 1359.45   5
   1  -3   0 88091.4 939.074   9
   1  -3   0 87732.8 1033.92   3
   1  -3   0 88126.9 1121.03  10
   1  -3   1 9958.50 302.683   9
   1  -3   1 10752.7 361.453   7
   1  -3   1 9715.05 414.703   3
   1  -3   1 11005.7 361.139  10
   1  -3   2 458.462 68.3897   6
   1  -3   2 509.422 96.0291   9
   1  -3   2 659.756 161.737   3
   1  -3   2 524.417 93.8523  10
   1  -3   3 133.091 139.532   3
   1  -3   3 80.4185 53.8106   7
   1  -3   4-81.5039 114.220   3
   1  -3   4 63.2943 52.6893   7
   1  -3   5 4984.62 287.405   7
   1  -3   5 5327.45 471.922   3
   1  -3   6-2.28062 148.102   3
   1  -3   6-19.1697 88.3470   7
   1  -3   7 919.707 277.920   3
   1  -3   7 1025.36 194.003   7
   1  -3   8 391.224 250.883   3
   1  -3   8 494.740 178.551   7
   1  -3   9 696.500 286.811   3
   1  -3   9 709.599 222.845   7
   1  -3  10 154.375 231.154   3
   1  -3  10 163.091 154.606   7
   1  -3  11 2223.35 482.438   3
   1  -3  11 1806.35 357.804   7
   1  -3  12 680.774 334.127   3
   1  -3  12 359.711 252.188   7
   1  -3  13 1973.74 489.475   3
   1  -3  14 1297.01 465.058   3
   1  -3  15 233.013 301.337   3
   1  -3  16 33.5605 307.132   3
   1  -2 -15 1156.86 446.279  10
   1  -2 -14-141.115 287.137  10
   1  -2 -13-257.286 291.254  10
   1  -2 -13-85.6635 204.276   4
   1  -2 -12 488.145 334.096  10
   1  -2 -12 795.623 329.772   4
   1  -2 -11 874.671 362.045  10
   1  -2 -11 493.725 211.395   4
   1  -2 -10 911.591 327.298  10
   1  -2 -10 952.254 290.333   4
   1  -2  -9 1161.17 351.206  10
   1  -2  -9 1243.68 317.297   4
   1  -2  -8 1959.41 338.494   4
   1  -2  -8 1482.83 373.862  10
   1  -2  -7 1723.53 347.870  10
   1  -2  -7 2107.82 328.848   4
   1  -2  -6 9085.91 590.347   4
   1  -2  -6 9455.02 682.183  10
   1  -2  -5 5125.52 415.249   4
   1  -2  -5 4808.80 468.610  10
   1  -2  -4 7218.94 458.544   4
   1  -2  -4 6616.69 494.408  10
   1  -2  -4 7029.37 315.838   3
   1  -2  -3 7761.56 430.756   4
   1  -2  -3 7227.18 249.132   3
   1  -2  -3 7172.18 447.303  10
   1  -2  -2 866.061 151.303  10
   1  -2  -2 1018.05 165.258   5
   1  -2  -1 5363.84 304.948   5
   1  -2  -1 5660.12 261.822   9
   1  -2  -1 5776.98 235.066   2
   1  -2  -1 5502.38 286.238  10
   1  -2   0 150.015 67.5761  10
   1  -2   0-0.11354 89.1547   2
   1  -2   0 117.046 60.5066   9
   1  -2   0 107.469 72.4208   5
   1  -2   0 146.320 59.1899   3
   1  -2   0 169.844 71.3883   1
   1  -2   1 1932.58 183.520   2
   1  -2   1 1597.00 149.759   3
   1  -2   1 1806.88 157.534   8
   1  -2   1 1824.43 151.993   1
   1  -2   1 1764.23 143.443  10
   1  -2   1 1615.58 131.023   9
   1  -2   2 26.5451 110.625   3
   1  -2   2 58.6186 60.3710   9
   1  -2   2 144.525 59.3290   8
   1  -2   2 106.826 71.4257   1
   1  -2   3 7342.85 295.750   8
   1  -2   3 7155.37 295.982   7
   1  -2   3 7250.24 303.300   1
   1  -2   3 6744.52 422.116   3
   1  -2   4 4712.78 256.604   8
   1  -2   4 5925.04 319.360   7
   1  -2   4 5189.39 412.636   3
   1  -2   5 323.283 181.148   3
   1  -2   5 27.8895 93.1916   7
   1  -2   6 506.582 216.214   3
   1  -2   6 459.829 164.480   7
   1  -2   7 7786.40 549.139   7
   1  -2   7 7736.27 638.288   3
   1  -2   8 1513.98 338.457   3
   1  -2   8 1518.49 292.936   7
   1  -2   9 6704.53 607.670   7
   1  -2   9 6791.91 696.375   3
   1  -2  10 2203.98 437.844   3
   1  -2  10 1755.71 357.728   7
   1  -2  11 383.242 249.945   3
   1  -2  11 710.694 306.258   7
   1  -2  12 4726.01 614.054   7
   1  -2  12 5805.67 716.570   3
   1  -2  13 527.262 260.390   3
   1  -2  13 589.847 324.812   7
   1  -2  14 2261.94 520.551   3
   1  -2  15-500.142 317.420   3
   1  -2  16-53.4436 213.411   3
   1  -1 -15 767.084 414.388  10
   1  -1 -14 325.928 294.468  10
   1  -1 -13 312.086 320.798  10
   1  -1 -13 537.914 325.338   4
   1  -1 -12 1794.52 451.194  10
   1  -1 -12 1188.22 343.703   4
   1  -1 -11-69.1058 199.872  10
   1  -1 -11 157.155 182.779   4
   1  -1 -10 549.018 259.721  10
   1  -1 -10 891.392 249.458   2
   1  -1 -10 623.625 211.350   4
   1  -1  -9 210.191 186.687  10
   1  -1  -9-26.9365 181.679   4
   1  -1  -8 851.151 235.283  10
   1  -1  -8 1556.65 283.501   4
   1  -1  -7 2865.97 406.879  10
   1  -1  -7 3098.55 348.555   4
   1  -1  -6 11977.6 600.500   4
   1  -1  -6 11552.8 715.747  10
   1  -1  -5 6168.51 395.326   4
   1  -1  -5 6495.93 489.683  10
   1  -1  -4 15904.3 558.948   4
   1  -1  -4 15619.6 676.214  10
   1  -1  -3 16691.5 506.918   4
   1  -1  -3 16737.9 416.961   3
   1  -1  -3 17396.4 617.133  10
   1  -1  -2 510.287 107.081  10
   1  -1  -1 58406.5 760.083   9
   1  -1  -1 57850.9 787.511  10
   1  -1   1 51609.4 732.045   9
   1  -1   1 51536.3 814.827   4
   1  -1   1 51182.3 773.977   3
   1  -1   2 11349.4 378.482   7
   1  -1   2 10789.5 449.881   3
   1  -1   3 421.339 154.375   3
   1  -1   3 138.626 98.5662   7
   1  -1   4 18322.7 646.195   7
   1  -1   4 18083.5 745.221   3
   1  -1   5 921.194 214.394   3
   1  -1   5 779.001 189.399   7
   1  -1   6 26323.5 972.895   7
   1  -1   6 26434.0 1032.63   3
   1  -1   7 7578.86 575.326   7
   1  -1   7 7915.76 619.714   3
   1  -1   8 18972.2 977.764   7
   1  -1   8 18321.6 991.245   3
   1  -1   9 42.6844 177.583   3
   1  -1   9 762.640 248.588   7
   1  -1  10 2256.95 420.541   3
   1  -1  10 1588.68 402.446   7
   1  -1  11 2001.69 426.429   3
   1  -1  11 1875.67 422.690   7
   1  -1  12 1320.89 375.403   3
   1  -1  12 1726.58 439.514   7
   1  -1  13 1893.72 448.541   3
   1  -1  13 1373.91 404.614   7
   1  -1  14-254.467 325.102   3
   1  -1  14 414.454 288.019   7
   1   0 -16 630.951 389.250  10
   1   0 -15 64.8013 330.519  10
   1   0 -14 39.2451 229.572  10
   1   0 -13 1355.01 402.900  10
   1   0 -12-100.362 214.997  10
   1   0 -12 216.770 217.848   4
   1   0 -11 520.958 276.053  10
   1   0 -11 397.566 214.293   4
   1   0 -11 646.378 230.506   2
   1   0 -10 813.006 276.680  10
   1   0 -10 174.914 170.599   2
   1   0 -10 475.117 200.474   4
   1   0  -9-246.844 219.175  10
   1   0  -9-72.5213 151.006   2
   1   0  -9-87.4526 130.496   4
   1   0  -8 2.98926 186.217  10
   1   0  -8 146.648 141.288   2
   1   0  -8 33.1803 124.463   4
   1   0  -7 66.2347 135.100   2
   1   0  -7-139.189 147.628   4
   1   0  -6 11196.7 514.722   4
   1   0  -6 10828.6 489.989   2
   1   0  -6 10535.6 637.474  10
   1   0  -5 4702.27 301.799   4
   1   0  -5 4450.17 283.081   2
   1   0  -5 4474.80 382.795  10
   1   0  -4 60714.3 862.357   4
   1   0  -4 59676.7 867.858   2
   1   0  -4 60066.6 1161.10  10
   1   0  -3 1538.58 177.092  10
   1   0  -3 1590.56 114.782   4
   1   0  -3 1732.13 139.034   2
   1   0  -2 23286.2 512.413  10
   1   0  -2 23007.6 362.566   2
   1   0  -2 23604.6 538.245   9
   1   0  -2 21956.5 549.328   6
   1   0   1 21727.8 515.217   9
   1   0   1 21079.6 526.355   4
   1   0   1 20760.4 514.445   7
   1   0   1 21066.1 526.937   3
   1   0   2-32.7314 90.8947   3
   1   0   2 91.6243 93.8673   7
   1   0   3 1889.59 217.738   3
   1   0   3 2209.48 254.149   7
   1   0   4 2355.17 275.209   3
   1   0   4 2244.36 291.882   7
   1   0   5 3405.54 380.163   7
   1   0   5 3464.86 341.855   3
   1   0   6 6.67329 128.053   3
   1   0   6 289.128 168.342   7
   1   0   7 8039.88 646.592   7
   1   0   7 7931.82 602.261   3
   1   0   8-1.25837 184.584   3
   1   0   8 172.998 228.363   7
   1   0   9 570.240 225.569   3
   1   0   9 711.655 313.365   7
   1   0  10 3323.09 543.083   7
   1   0  10 3120.56 475.278   3
   1   0  11-529.755 297.319   3
   1   0  11-9.49858 239.400   7
   1   0  12 1948.27 439.356   3
   1   0  12 2263.55 527.438   7
   1   0  13 231.708 260.119   3
   1   0  13 509.011 330.310   7
   1   0  14 267.416 318.430   7
   1   0  15 168.658 264.628   7
   1   1 -16 560.144 343.508  10
   1   1 -15 311.730 325.979  10
   1   1 -14 2808.35 585.486  10
   1   1 -13-451.597 305.879  10
   1   1 -12 4361.52 623.847  10
   1   1 -12 5543.35 575.199   4
   1   1 -12 6529.55 617.991   2
   1   1 -11-237.653 212.724  10
   1   1 -11 158.986 168.825   4
   1   1 -10 375.778 215.250  10
   1   1 -10 324.343 204.715   2
   1   1 -10 915.147 241.377   4
   1   1  -9-271.852 209.136  10
   1   1  -9-214.820 179.829   2
   1   1  -8 1241.96 291.132  10
   1   1  -8 1361.72 236.847   4
   1   1  -8 989.716 209.303   2
   1   1  -7 4599.50 351.825   4
   1   1  -7 4164.40 365.070   2
   1   1  -7 4028.95 421.266  10
   1   1  -6 11401.4 463.199   4
   1   1  -6 11694.5 559.314   2
   1   1  -6 10823.8 584.221  10
   1   1  -5 4827.97 266.592   4
   1   1  -5 4854.55 338.049   2
   1   1  -5 4937.95 355.123  10
   1   1  -4 14419.3 362.612   4
   1   1  -4 15076.2 522.394   2
   1   1  -4 15576.8 480.505   7
   1   1  -4 16513.4 538.169  10
   1   1  -3 3930.40 248.337   2
   1   1  -3 4023.51 230.114  10
   1   1  -2 204.150 69.0606  10
   1   1  -2 84.4780 61.1416   9
   1   1  -2-19.7534 84.3849   6
   1   1  -2 226.432 106.097   1
   1   1  -1 208.311 58.6316   9
   1   1  -1 356.643 94.0223   8
   1   1  -1 262.723 72.4156   7
   1   1  -1 261.710 59.1048   4
   1   1  -1 247.458 52.0206  10
   1   1  -1 246.868 85.1662   1
   1   1   0-5.01234 51.6027   9
   1   1   0-27.8532 59.9485   8
   1   1   0-38.0072 52.6461   1
   1   1   0 14.6297 60.7246   4
   1   1   0 9.18239 81.1218   7
   1   1   1 1356.37 130.442   1
   1   1   1 1468.71 136.946   8
   1   1   1 1472.90 178.004   7
   1   1   2 90.5390 65.6811   8
   1   1   2 36.7874 109.246   7
   1   1   3 4537.71 259.405   8
   1   1   3 5305.66 411.490   7
   1   1   3 4665.15 339.800   3
   1   1   4 5383.56 474.105   7
   1   1   4 5970.36 421.779   3
   1   1   5 352.863 192.298   7
   1   1   5 161.154 126.844   3
   1   1   6 588.355 205.914   3
   1   1   6 622.994 244.666   7
   1   1   7 3230.76 410.115   3
   1   1   7 3169.33 488.103   7
   1   1   8 1147.30 284.624   3
   1   1   8 1680.94 375.961   7
   1   1   9 1233.30 380.558   7
   1   1   9 1760.37 357.111   3
   1   1  10 1182.79 301.928   3
   1   1  10 990.514 397.548   7
   1   1  11-81.4853 165.594   3
   1   1  11 141.837 371.743   7
   1   1  12 162.611 284.331   7
   1   1  12 465.974 239.539   3
   1   1  13 697.984 379.915   7
   1   1  14 787.440 387.486   7
   1   1  15 2343.30 610.681   7
   1   2 -17-259.593 270.017  10
   1   2 -16-287.128 288.390  10
   1   2 -15 224.822 241.326  10
   1   2 -14 917.322 325.145  10
   1   2 -13 1175.04 356.361  10
   1   2 -13 1219.16 318.810   1
   1   2 -12 669.158 285.478   2
   1   2 -12-60.5717 193.737  10
   1   2 -12 490.464 262.859   1
   1   2 -11 746.901 279.718   2
   1   2 -11 88.9354 183.726  10
   1   2 -11 192.247 165.267   4
   1   2 -11 267.662 209.722   1
   1   2 -10 444.745 221.143  10
   1   2 -10 337.818 220.218   2
   1   2 -10 498.039 219.409   4
   1   2 -10 472.953 254.916   1
   1   2  -9 2823.01 394.233  10
   1   2  -9 3560.34 426.585   2
   1   2  -9 3707.05 383.924   4
   1   2  -8 1256.40 269.760   2
   1   2  -8 653.766 210.498  10
   1   2  -8 711.187 184.153   4
   1   2  -7 237.640 135.511  10
   1   2  -7 457.900 186.590   2
   1   2  -7 402.147 219.784   1
   1   2  -6 64.8231 96.3897  10
   1   2  -6 269.943 174.382   1
   1   2  -6 26.4993 112.433   2
   1   2  -5 3205.92 310.982   2
   1   2  -5 3227.04 216.179   7
   1   2  -5 3260.16 325.515   1
   1   2  -5 3082.93 250.312  10
   1   2  -4 8491.39 465.911   2
   1   2  -4 8436.34 273.502   7
   1   2  -4 8647.91 481.025   1
   1   2  -4 8883.67 338.323  10
   1   2  -3 18715.4 383.798  10
   1   2  -3 18752.5 642.067   2
   1   2  -3 19198.3 675.684   1
   1   2  -2 35080.0 532.207   9
   1   2  -2 35042.9 859.377   8
   1   2  -2 34354.1 581.798   7
   1   2  -2 35582.8 865.063   1
   1   2  -1 30596.3 500.853   9
   1   2  -1 30740.5 775.953   8
   1   2  -1 30359.6 768.191   1
   1   2  -1 30852.5 644.583   7
   1   2   0 985.843 141.182   1
   1   2   0 1187.11 125.545   9
   1   2   0 1131.99 156.288   8
   1   2   0 978.995 145.974   7
   1   2   1 106.890 59.1993   5
   1   2   1 225.852 98.0453   8
   1   2   1 106.739 107.257   7
   1   2   1 205.152 93.9348   1
   1   2   2 748.245 152.858   8
   1   2   2 818.022 192.954   7
   1   2   3 14176.3 560.347   8
   1   2   3 15030.9 769.515   7
   1   2   4-49.2854 79.1572   8
   1   2   4 228.540 175.661   7
   1   2   5 1735.86 220.947   8
   1   2   5 1977.63 349.013   7
   1   2   6 4617.71 386.851   8
   1   2   6 5095.87 578.765   7
   1   2   6 4911.68 465.927   3
   1   2   7 498.124 163.055   8
   1   2   7 601.469 301.436   7
   1   2   7-150.916 195.576   3
   1   2   8 6275.42 480.009   8
   1   2   8 6603.88 743.457   7
   1   2   8 5491.77 553.598   3
   1   2   9 1066.87 395.881   7
   1   2   9 712.445 257.318   3
   1   2  10 628.064 330.559   7
   1   2  10 213.184 165.906   3
   1   2  11 120.491 217.729   3
   1   2  11 247.636 334.410   7
   1   2  12-111.010 260.124   7
   1   2  13 405.147 306.869   7
   1   2  14 2284.98 658.373   7
   1   3 -16 823.641 406.219  10
   1   3 -15 153.004 237.199  10
   1   3 -14 640.842 295.993  10
   1   3 -13 173.280 196.390  10
   1   3 -13 29.1797 146.710   1
   1   3 -13 524.549 248.825   2
   1   3 -12 642.647 266.683  10
   1   3 -12 1550.75 328.670   1
   1   3 -12 1532.34 364.357   2
   1   3 -11 876.013 258.368  10
   1   3 -11 1042.69 271.482   1
   1   3 -11 497.351 234.312   2
   1   3 -10 10812.5 774.905   2
   1   3 -10 11120.0 765.534   1
   1   3 -10 9325.03 672.892  10
   1   3  -9 8279.24 642.408   2
   1   3  -9 8983.30 665.022   1
   1   3  -9 6884.05 538.552  10
   1   3  -8 2199.87 302.440  10
   1   3  -8 2095.45 342.661   1
   1   3  -8 1723.04 302.737   2
   1   3  -7 12626.1 718.561   2
   1   3  -7 12935.9 727.532   1
   1   3  -7 11226.3 542.265  10
   1   3  -6 2212.13 158.680   7
   1   3  -6 2684.34 338.367   1
   1   3  -6 2421.82 317.225   2
   1   3  -6 2293.02 225.308  10
   1   3  -5 26625.4 940.110   2
   1   3  -5 28230.8 975.188   1
   1   3  -5 24609.4 569.106  10
   1   3  -4 2440.92 141.054  10
   1   3  -4 3242.64 329.594   2
   1   3  -4 2955.31 139.185   7
   1   3  -4 3324.79 329.479   1
   1   3  -3 38351.5 1070.56   8
   1   3  -3 39923.0 1086.75   1
   1   3  -3 40127.1 608.285   7
   1   3  -2 45.6616 31.4003   9
   1   3  -2 161.777 121.828   8
   1   3  -2 115.464 91.6841   1
   1   3  -2 164.846 80.6744   7
   1   3  -1 19675.1 420.406   9
   1   3  -1 21189.0 757.567   8
   1   3  -1 21891.8 763.986   1
   1   3  -1 21381.7 656.197   7
   1   3   0 5795.87 286.710   9
   1   3   0 6309.21 422.668   8
   1   3   0 5318.05 395.703   1
   1   3   0 5595.06 395.664   7
   1   3   1 10547.6 540.442   8
   1   3   1 9467.34 530.517   1
   1   3   1 9813.13 569.800   7
   1   3   2 24666.2 838.811   8
   1   3   2 26104.5 1010.24   7
   1   3   3 6312.38 446.015   8
   1   3   3 6453.94 551.496   7
   1   3   4 12475.9 642.730   8
   1   3   4 13388.5 868.498   7
   1   3   5 122.503 121.415   8
   1   3   5 18.6831 201.997   7
   1   3   6 241.854 158.299   8
   1   3   6 203.999 250.807   7
   1   3   7 2243.82 320.246   8
   1   3   7 2539.02 502.170   7
   1   3   8 948.439 237.707   8
   1   3   8 795.727 349.458   7
   1   3   9 1349.07 445.936   7
   1   3  10 370.073 292.788   7
   1   3  11 958.271 411.230   7
   1   3  12 218.867 334.953   7
   1   3  13 546.565 421.404   7
   1   4 -14 422.693 210.853   1
   1   4 -14 488.469 244.052   2
   1   4 -13 311.250 209.837  10
   1   4 -13 716.712 304.617   1
   1   4 -13 60.2158 194.807   2
   1   4 -12 516.693 246.383  10
   1   4 -12 466.666 253.007   1
   1   4 -12 229.719 217.369   2
   1   4 -11 1730.43 308.046  10
   1   4 -11 1538.59 335.730   1
   1   4 -11 1713.34 353.897   2
   1   4 -10 4484.73 530.000   2
   1   4 -10 4258.10 496.600   1
   1   4 -10 3726.45 395.089  10
   1   4  -9 1732.28 263.844  10
   1   4  -9 1766.36 338.378   1
   1   4  -9 1229.99 300.303   2
   1   4  -8 3509.35 423.001   1
   1   4  -8 3127.29 421.235   2
   1   4  -8 3259.12 316.569  10
   1   4  -7 4908.29 315.083  10
   1   4  -7 4026.28 464.341   2
   1   4  -7 5006.43 496.305   1
   1   4  -6 2148.41 350.591   1
   1   4  -6 1631.72 314.944   2
   1   4  -6 1295.75 133.854  10
   1   4  -5 4161.72 430.733   2
   1   4  -5 4257.01 428.646   1
   1   4  -4 9491.35 623.587   8
   1   4  -4 10638.7 650.382   1
   1   4  -4 9388.30 296.592   7
   1   4  -3 1071.57 236.566   1
   1   4  -3 807.108 213.804   8
   1   4  -3 1013.26 139.197   7
   1   4  -2 360.991 140.597   1
   1   4  -2 319.573 141.343   8
   1   4  -2 327.634 112.389   7
   1   4  -1 94.4623 139.884   1
   1   4  -1 36.6935 48.5490   9
   1   4  -1 250.119 128.589   8
   1   4  -1 162.907 113.954   7
   1   4   0 360.698 157.732   1
   1   4   0 173.484 125.291   8
   1   4   0 164.138 128.503   7
   1   4   1 22495.7 904.660   8
   1   4   1 21858.9 900.202   1
   1   4   1 23297.5 971.214   7
   1   4   2 76.0726 119.757   8
   1   4   2 229.702 211.119   7
   1   4   3 5160.43 455.957   8
   1   4   3 5812.37 573.069   7
   1   4   4 384.286 193.937   8
   1   4   4 77.9417 226.334   7
   1   4   5 732.705 213.134   8
   1   4   5 593.605 356.734   7
   1   4   6 1364.93 267.156   8
   1   4   6 1496.71 372.370   7
   1   4   7 89.7726 111.874   8
   1   4   7-347.189 309.408   7
   1   4   8 194.682 261.606   7
   1   4   9 810.069 405.305   7
   1   4  10 1387.65 462.736   7
   1   4  11 443.006 394.413   7
   1   4  12 1278.64 503.974   7
   1   5 -14 182.510 200.491   1
   1   5 -14-27.1733 225.652   2
   1   5 -13 463.888 233.868   1
   1   5 -13 55.5620 190.771   2
   1   5 -12 2407.38 440.689   1
   1   5 -12 1708.60 389.012   2
   1   5 -11 3221.51 475.520   1
   1   5 -11 2639.27 432.343   2
   1   5 -10 4167.51 532.551   1
   1   5 -10 2711.71 308.914  10
   1   5 -10 2797.71 429.189   2
   1   5  -9 1366.17 212.874  10
   1   5  -9 1469.78 352.591   1
   1   5  -9 1430.14 335.320   2
   1   5  -8 2094.68 203.464  10
   1   5  -8 2187.17 402.179   2
   1   5  -7 49.1181 47.9750  10
   1   5  -7 55.8307 223.455   2
   1   5  -7 323.378 207.001   1
   1   5  -6-117.753 240.862   2
   1   5  -6 221.416 183.123   1
   1   5  -5 804.555 277.040   8
   1   5  -5 277.822 168.864   1
   1   5  -4 755.758 222.898   1
   1   5  -4 858.621 230.865   8
   1   5  -4 740.162 125.666   7
   1   5  -3 3662.71 427.891   8
   1   5  -3 3842.31 436.991   1
   1   5  -3 3904.18 304.725   7
   1   5  -2 14707.5 821.074   8
   1   5  -2 14450.9 797.361   1
   1   5  -2 13410.7 617.312   7
   1   5  -1 698.482 212.242   1
   1   5  -1 224.526 61.0138   9
   1   5  -1 1128.29 251.198   8
   1   5  -1 542.797 192.443   7
   1   5   0 2327.31 366.667   8
   1   5   0 2409.39 337.370   7
   1   5   0 2277.18 342.195   1
   1   5   1 478.900 240.447   1
   1   5   1 379.138 185.731   8
   1   5   1 189.916 207.444   7
   1   5   2 51.9672 137.362   8
   1   5   2-15.2239 179.935   7
   1   5   3 1012.81 262.520   8
   1   5   3 790.128 293.772   7
   1   5   4 4187.55 466.749   8
   1   5   4 5303.46 649.823   7
   1   5   5 936.601 254.162   8
   1   5   5 885.256 340.322   7
   1   5   6 5026.47 536.499   8
   1   5   6 4758.38 686.254   7
   1   5   7 209.968 169.014   8
   1   5   7 563.711 347.350   7
   1   5   8 987.295 412.546   7
   1   5   9 3055.08 632.642   7
   1   5  10 3.10695 258.279   7
   1   5  11 2877.73 696.568   7
   1   6 -15-5.03615 235.086   2
   1   6 -14-5.03908 227.482   2
   1   6 -14-196.298 196.626   1
   1   6 -13 137.522 201.733   2
   1   6 -13 350.700 250.322   1
   1   6 -12 875.365 349.926   2
   1   6 -12 1257.47 339.194   1
   1   6 -11-173.032 210.682   2
   1   6 -11 237.942 265.015   1
   1   6 -10 158.411 211.312   2
   1   6 -10 535.589 275.131   1
   1   6  -9 2.50968 213.695   2
   1   6  -9 54.9437 219.383   1
   1   6  -8 1823.23 410.397   2
   1   6  -8 2117.39 382.535   1
   1   6  -7 470.110 233.820   2
   1   6  -7 382.321 221.038   1
   1   6  -6 1800.67 354.265   1
   1   6  -5 347.270 194.807   1
   1   6  -5 474.733 253.431   8
   1   6  -5 180.189 58.2015   7
   1   6  -4 1867.58 358.226   1
   1   6  -4 1437.98 344.470   8
   1   6  -4 1218.51 162.462   7
   1   6  -3 10289.1 770.280   8
   1   6  -3 10849.7 773.753   1
   1   6  -3 11560.4 572.001   7
   1   6  -2 1230.74 305.974   8
   1   6  -2 717.485 252.858   1
   1   6  -2 1051.41 223.627   7
   1   6  -1 9247.19 719.673   8
   1   6  -1 9019.55 705.320   1
   1   6  -1 9638.85 654.831   7
   1   6   0-68.4884 166.159   8
   1   6   0 295.350 187.181   1
   1   6   0 477.005 207.240   7
   1   6   1 1213.38 297.917   8
   1   6   1 1356.23 333.281   7
   1   6   2 397.078 201.431   8
   1   6   2 245.133 195.044   7
   1   6   3 2583.79 405.665   8
   1   6   3 2876.84 460.644   7
   1   6   4 973.997 294.640   8
   1   6   4 700.575 350.498   7
   1   6   5 2329.43 399.792   8
   1   6   5 2063.80 476.394   7
   1   6   6 201.265 193.975   8
   1   6   6 526.669 357.784   7
   1   6   7 599.906 392.109   7
   1   6   8 1972.75 520.450   7
   1   6   9 753.135 428.937   7
   1   6  10 1211.26 458.543   7
   1   7 -15 1008.29 380.544   2
   1   7 -14 1572.73 423.596   1
   1   7 -14 1670.96 446.317   2
   1   7 -13 2482.02 481.884   1
   1   7 -13 1642.71 439.657   2
   1   7 -12 997.080 327.774   1
   1   7 -12 270.721 243.137   2
   1   7 -11 729.527 308.405   1
   1   7 -11 271.148 248.691   2
   1   7 -10 107.133 253.362   1
   1   7 -10-20.4212 237.899   2
   1   7  -9 6157.04 728.742   2
   1   7  -9 6507.52 697.724   1
   1   7  -8 441.483 276.584   1
   1   7  -7 13249.2 952.705   1
   1   7  -6 527.756 283.126   1
   1   7  -6 626.732 283.462   8
   1   7  -5 7765.35 743.554   8
   1   7  -5 7436.76 711.469   1
   1   7  -4 7391.20 717.652   8
   1   7  -4 7007.45 692.307   1
   1   7  -4 6897.95 422.712   7
   1   7  -3 1129.04 333.910   8
   1   7  -3 911.430 306.138   1
   1   7  -3 904.136 208.700   7
   1   7  -2 12444.5 905.073   8
   1   7  -2 12113.0 891.224   1
   1   7  -2 12855.7 731.917   7
   1   7  -1 1335.48 325.873   8
   1   7  -1 1595.20 346.996   1
   1   7  -1 1497.84 308.327   7
   1   7   0 3491.90 496.361   8
   1   7   0 3826.72 504.203   7
   1   7   1 237.031 233.063   8
   1   7   1 488.169 278.463   7
   1   7   2 219.448 220.286   8
   1   7   2 96.5806 191.646   7
   1   7   3 343.544 231.132   8
   1   7   3 466.305 242.036   7
   1   7   4 1678.25 375.831   8
   1   7   4 2123.08 450.772   7
   1   7   5 336.481 235.660   8
   1   7   5 659.117 339.965   7
   1   7   6 1940.96 415.706   8
   1   7   6 1402.68 432.445   7
   1   7   7 116.058 266.692   7
   1   7   8 138.618 346.622   7
   1   7   9 199.574 291.590   7
   1   8 -15-2.81739 275.611   2
   1   8 -14 411.585 263.079   1
   1   8 -14 236.097 328.338   2
   1   8 -13 170.266 273.614   1
   1   8 -13 22.4566 242.136   2
   1   8 -12 374.617 238.436   1
   1   8 -12 480.608 271.532   2
   1   8 -11 908.852 324.634   1
   1   8 -10 613.222 262.738   1
   1   8  -9 384.892 289.647   1
   1   8  -8 2400.51 474.543   1
   1   8  -7 11.3650 209.861   1
   1   8  -6-62.7393 185.213   1
   1   8  -6 204.744 238.713   8
   1   8  -5 124.050 175.251   1
   1   8  -5 351.583 250.733   8
   1   8  -4 1450.41 391.534   8
   1   8  -4 1094.28 334.517   1
   1   8  -3 2291.09 424.006   8
   1   8  -3 1658.66 384.315   1
   1   8  -2 1297.66 361.503   8
   1   8  -2 870.802 318.131   1
   1   8  -2 814.161 246.501   7
   1   8  -1 229.468 218.688   1
   1   8  -1-70.6765 170.252   8
   1   8  -1 69.2178 163.422   7
   1   8   0 157.178 217.416   8
   1   8   0 633.485 278.465   7
   1   8   1 320.484 237.123   8
   1   8   1 230.244 190.218   7
   1   8   2 749.031 264.351   8
   1   8   2 1010.70 327.941   7
   1   8   3 514.991 246.891   8
   1   8   3 287.094 256.546   7
   1   8   4-181.754 184.443   8
   1   8   4-236.538 218.685   7
   1   8   5 156.010 235.885   8
   1   8   5 731.778 332.477   7
   1   8   6 421.017 372.632   7
   1   8   7 179.072 285.471   7
   1   9 -14 105.703 250.903   1
   1   9 -13-28.0769 231.829   1
   1   9 -12 55.9354 245.450   1
   1   9 -11 1058.82 392.281   1
   1   9 -10-67.9578 215.572   1
   1   9  -9 84.6426 194.937   1
   1   9  -8 2549.93 525.013   1
   1   9  -7 317.958 201.414   1
   1   9  -6 2882.55 521.343   1
   1   9  -6 2912.35 563.173   8
   1   9  -5 148.290 287.467   1
   1   9  -5 121.647 224.622   8
   1   9  -4 882.645 333.012   8
   1   9  -4 356.147 260.431   1
   1   9  -3-36.5644 195.174   8
   1   9  -3 77.7069 182.653   1
   1   9  -2 705.720 288.820   8
   1   9  -2 296.711 223.165   1
   1   9  -1 1194.58 383.642   8
   1   9  -1 920.918 323.568   7
   1   9   0 5981.70 751.910   8
   1   9   0 5655.76 695.850   7
   1   9   1 580.338 286.875   8
   1   9   1 627.770 308.270   7
   1   9   2 3618.20 602.794   8
   1   9   2 3583.53 627.630   7
   1   9   3 669.305 295.378   8
   1   9   3 969.166 387.199   7
   1   9   4 37.6831 247.816   8
   1   9   4 233.950 329.280   7
   1   9   5 2674.61 548.221   8
   1   9   5 1981.54 563.514   7
   1   9   6 429.447 357.610   7
   1  10 -14 0.71921 247.397   1
   1  10 -13 863.177 363.347   1
   1  10 -12 1262.36 438.410   1
   1  10 -11 274.104 267.519   1
   1  10 -10 1262.95 407.467   1
   1  10  -9 217.204 254.218   1
   1  10  -8 630.909 353.993   1
   1  10  -7 1791.20 458.019   1
   1  10  -6 493.876 309.499   8
   1  10  -6 352.059 295.920   1
   1  10  -5 423.482 257.302   8
   1  10  -5 927.975 363.470   1
   1  10  -4 347.364 332.315   8
   1  10  -4 437.327 325.744   1
   1  10  -3 247.156 242.699   1
   1  10  -3 90.6865 239.497   8
   1  10  -2 456.440 306.850   8
   1  10  -1 1987.37 487.933   8
   1  10   0 1548.49 441.860   8
   1  10   1 1235.35 397.484   8
   1  10   2 302.736 265.358   8
   1  10   2 86.4036 211.211   7
   1  10   3-191.997 262.829   8
   1  10   3-278.780 309.021   7
   1  10   4 1028.79 408.607   8
   1  10   4 1130.76 389.792   7
   1  11 -12 274.229 325.027   1
   1  11 -11 2327.59 566.784   1
   1  11 -10 187.740 266.052   1
   1  11  -9 1354.82 461.381   1
   1  11  -8 1680.85 507.821   1
   1  11  -7 499.214 333.259   1
   1  11  -6 981.309 420.553   8
   1  11  -6 1037.53 435.846   1
   1  11  -5 1227.91 459.771   8
   1  11  -5 347.778 281.864   1
   1  11  -4 37.9344 254.588   1
   1  11  -4 907.296 415.217   8
   1  11  -3 613.131 379.914   8
   1  11  -2 329.850 277.981   8
   1  11  -1 250.554 275.103   8
   1  11   0 778.012 400.213   8
   1  11   1-32.1034 241.166   8
   1  11   2 120.932 232.159   8
   1  12  -5 217.471 336.934   8
   1  12  -4 191.058 384.830   8
   2 -13   1 301.800 301.999   4
   2 -13   2 325.217 284.000   4
   2 -13   3-328.063 305.608   4
   2 -13   4 23.1636 225.414   4
   2 -13   5-191.163 313.133   4
   2 -13   9 531.748 345.665   3
   2 -12  -2 500.069 365.878   4
   2 -12  -1 326.401 302.723   4
   2 -12   0 34.6955 237.008   4
   2 -12   1 3976.79 675.838   4
   2 -12   2 1483.50 445.541   4
   2 -12   3 914.816 400.683   4
   2 -12   4 817.792 333.197   5
   2 -12   5 202.406 316.444   5
   2 -12   6 1263.45 438.219   5
   2 -12   6 604.316 329.811   3
   2 -12   7 148.739 265.122   5
   2 -12   7-636.105 350.004   3
   2 -12   8 879.773 399.797   3
   2 -12   9 596.249 324.745   3
   2 -12  10 410.197 343.692   3
   2 -12  11 1097.06 542.337   3
   2 -11  -5-66.6122 293.456   4
   2 -11  -4 531.142 392.828   4
   2 -11  -3 428.716 362.579   4
   2 -11  -2 484.826 293.079   4
   2 -11  -1 1214.32 350.691   5
   2 -11  -1 1657.41 453.209   4
   2 -11   0 3428.53 547.667   5
   2 -11   0 3887.15 653.759   4
   2 -11   1 2422.74 493.000   5
   2 -11   1 3003.01 567.189   4
   2 -11   2 1148.91 359.040   5
   2 -11   2 925.170 419.651   4
   2 -11   3 3360.07 560.296   5
   2 -11   4 732.155 333.368   5
   2 -11   4 971.517 326.520   3
   2 -11   5 3148.50 559.753   5
   2 -11   5 2376.35 459.880   3
   2 -11   6 301.750 264.067   5
   2 -11   6 516.251 299.789   3
   2 -11   7 1438.76 416.909   3
   2 -11   8 1051.82 395.183   3
   2 -11   9 694.746 362.172   3
   2 -11  10 308.489 346.818   3
   2 -11  11-244.807 385.958   3
   2 -11  12 1142.57 536.400   3
   2 -10  -8 408.049 295.135  10
   2 -10  -7-21.9695 240.499  10
   2 -10  -7 625.486 367.299   4
   2 -10  -6 233.801 211.722  10
   2 -10  -6-831.699 503.686   4
   2 -10  -5 85.9384 312.597   4
   2 -10  -4 428.707 242.368   4
   2 -10  -3 62.3010 239.925   4
   2 -10  -2-2.75159 215.533   4
   2 -10  -1 1065.29 329.285   5
   2 -10  -1 708.610 358.356   4
   2 -10   0 145.820 217.120   5
   2 -10   0 678.037 340.334   4
   2 -10   1 1876.94 417.876   5
   2 -10   2 447.055 232.143   5
   2 -10   2 33.9945 181.916   3
   2 -10   3 375.535 273.964   5
   2 -10   3 289.194 242.780   3
   2 -10   4 156.823 282.232   5
   2 -10   4 86.6261 176.759   3
   2 -10   5 1189.79 375.017   3
   2 -10   6 750.925 266.982   3
   2 -10   7 141.424 214.433   3
   2 -10   8 1723.36 479.824   3
   2 -10   9 1025.80 416.214   3
   2 -10  10 1064.12 410.417   3
   2 -10  11 562.858 365.913   3
   2 -10  12 509.825 433.072   3
   2 -10  13 477.153 383.351   3
   2  -9  -9 1126.99 433.502  10
   2  -9  -8 1585.62 491.708  10
   2  -9  -8 524.886 368.186   4
   2  -9  -7 144.270 220.661  10
   2  -9  -7-29.7610 282.450   4
   2  -9  -6 221.479 253.090  10
   2  -9  -6 232.350 279.744   4
   2  -9  -5 549.331 261.207  10
   2  -9  -5 573.023 350.279   4
   2  -9  -4 61.1474 203.491  10
   2  -9  -4 268.808 309.802   4
   2  -9  -3 58.4225 163.254  10
   2  -9  -3 1320.69 418.133   4
   2  -9  -2 273.147 191.302  10
   2  -9  -2 257.212 255.884   5
   2  -9  -2 320.944 280.717   4
   2  -9  -1 814.944 272.084  10
   2  -9  -1 1048.92 321.123   5
   2  -9  -1 1138.06 350.153   4
   2  -9   0 230.786 218.324   5
   2  -9   0 489.542 203.565  10
   2  -9   1 2525.06 426.377   5
   2  -9   1 2399.79 352.557   3
   2  -9   2 306.765 253.102   5
   2  -9   2 238.338 224.344   3
   2  -9   3 1728.33 380.252   5
   2  -9   3 1382.17 333.552   3
   2  -9   4 1240.68 336.580   3
   2  -9   5 1812.24 386.011   3
   2  -9   6 1214.98 326.040   3
   2  -9   7 1105.72 355.025   3
   2  -9   8 5555.22 738.149   3
   2  -9   9 636.092 334.433   3
   2  -9  10 4192.59 717.968   3
   2  -9  11-91.7012 241.211   3
   2  -9  12 1439.02 516.363   3
   2  -9  13 149.449 254.982   3
   2  -9  14 651.021 436.518   3
   2  -8 -10 294.368 405.583  10
   2  -8 -10 246.921 312.754   4
   2  -8  -9 792.268 398.629  10
   2  -8  -9 98.4459 252.709   4
   2  -8  -8 1775.12 510.265  10
   2  -8  -8 2593.01 599.632   4
   2  -8  -7 1008.00 400.677  10
   2  -8  -7 957.284 348.207   4
   2  -8  -6 344.601 248.086  10
   2  -8  -6 551.421 337.263   4
   2  -8  -5 4024.53 587.943  10
   2  -8  -5 3273.88 556.848   4
   2  -8  -4 296.542 228.417  10
   2  -8  -4 759.076 355.744   4
   2  -8  -3 8333.80 711.940  10
   2  -8  -3 8788.36 839.810   4
   2  -8  -2 2531.92 428.969   5
   2  -8  -2 2195.18 366.473  10
   2  -8  -2 1866.71 390.247   4
   2  -8  -1 903.228 246.133  10
   2  -8  -1 1000.44 283.655   5
   2  -8  -1 856.739 181.145   3
   2  -8   0 3626.37 480.579   5
   2  -8   0 2671.17 339.439   3
   2  -8   0 2873.24 350.675  10
   2  -8   1-53.2137 131.563  10
   2  -8   1 306.088 214.436   5
   2  -8   1 209.286 169.173   3
   2  -8   2 4364.31 532.488   5
   2  -8   2 4073.82 331.070  10
   2  -8   2 4377.32 464.317   3
   2  -8   3 1222.94 173.234  10
   2  -8   3 1249.60 199.147   6
   2  -8   3 1524.35 379.015   5
   2  -8   3 1261.71 297.558   3
   2  -8   4 2598.33 429.451   3
   2  -8   4 2341.42 224.909   6
   2  -8   5-66.8181 205.566   3
   2  -8   6 2272.33 444.017   3
   2  -8   7 3436.35 531.574   3
   2  -8   8 2914.45 539.930   3
   2  -8   9 4849.05 698.179   3
   2  -8  10 171.818 216.638   3
   2  -8  11 963.739 417.187   3
   2  -8  12 817.427 417.138   3
   2  -8  13-515.118 364.350   3
   2  -8  14 362.257 444.441   3
   2  -7 -11 546.077 361.695  10
   2  -7 -11 93.7169 240.742   4
   2  -7 -10 782.240 405.701  10
   2  -7 -10 943.282 358.019   4
   2  -7  -9 1048.37 403.193  10
   2  -7  -9 631.289 353.004   4
   2  -7  -8 1567.32 480.757  10
   2  -7  -8 727.595 312.150   4
   2  -7  -7 519.578 325.538  10
   2  -7  -7-61.5182 213.845   4
   2  -7  -6 2112.04 469.882  10
   2  -7  -6 2373.73 490.658   4
   2  -7  -5 2590.72 463.287  10
   2  -7  -5 3146.70 520.263   4
   2  -7  -4 4634.35 601.512   4
   2  -7  -4 4325.67 539.839  10
   2  -7  -3 8209.57 758.606   4
   2  -7  -3 8768.99 696.261  10
   2  -7  -3 10449.9 791.834   5
   2  -7  -2 259.242 194.629  10
   2  -7  -2 206.375 215.522   5
   2  -7  -2 144.332 106.204   3
   2  -7  -2 584.167 259.074   4
   2  -7  -1 4818.03 503.182   5
   2  -7  -1 5400.86 476.190  10
   2  -7  -1 4398.42 357.486   3
   2  -7   0 196.607 151.361  10
   2  -7   0 296.316 197.867   5
   2  -7   0 277.962 143.096   3
   2  -7   1 6452.54 575.866   5
   2  -7   1 7313.69 476.426  10
   2  -7   1 6008.21 495.534   3
   2  -7   2 34.3440 50.7666   9
   2  -7   2-221.258 146.907   5
   2  -7   2-63.8175 139.470   3
   2  -7   2 161.173 113.265  10
   2  -7   3 7332.55 590.189   3
   2  -7   3 6987.19 338.390   6
   2  -7   3 7614.85 408.919  10
   2  -7   4 17.0101 186.346   3
   2  -7   4 68.6963 72.2169   6
   2  -7   5 1790.51 358.339   3
   2  -7   5 1464.02 143.386   7
   2  -7   6 135.322 183.065   3
   2  -7   7 1534.40 378.428   3
   2  -7   8 1640.83 413.714   3
   2  -7   9 474.317 357.434   3
   2  -7  10 675.228 438.166   3
   2  -7  11 0.30595 239.419   3
   2  -7  12 1523.57 478.503   3
   2  -7  13 171.419 340.994   3
   2  -7  14 895.504 440.188   3
   2  -7  15 221.278 397.908   3
   2  -6 -13 128.425 270.686   4
   2  -6 -12-150.904 301.830  10
   2  -6 -12-189.473 274.425   4
   2  -6 -11 425.138 346.525  10
   2  -6 -11 216.791 290.839   4
   2  -6 -10 719.139 359.201  10
   2  -6 -10-174.963 262.401   4
   2  -6  -9 651.589 327.365  10
   2  -6  -9-134.776 224.519   4
   2  -6  -8 642.961 366.435  10
   2  -6  -8 108.102 207.835   4
   2  -6  -7 220.786 213.366  10
   2  -6  -7 82.4109 200.469   4
   2  -6  -6 131.600 202.928  10
   2  -6  -6 653.728 290.018   4
   2  -6  -5 3822.65 522.696  10
   2  -6  -5 3550.66 509.067   4
   2  -6  -4 1556.98 349.030  10
   2  -6  -4 1473.63 331.896   4
   2  -6  -3 1255.76 301.532   5
   2  -6  -3 869.280 112.550   3
   2  -6  -3 1096.14 272.719  10
   2  -6  -3 1410.05 342.286   4
   2  -6  -3 711.882 102.304   3
   2  -6  -2 1318.47 286.922   5
   2  -6  -2 1215.53 267.452  10
   2  -6  -2 731.862 124.622   3
   2  -6  -1 3226.89 410.200   5
   2  -6  -1 3257.49 372.369  10
   2  -6  -1 2745.08 250.346   3
   2  -6   0 12322.5 748.802   5
   2  -6   0 11913.5 611.393  10
   2  -6   0 10347.6 514.752   3
   2  -6   1 109.747 114.796  10
   2  -6   1-40.9492 135.419   5
   2  -6   1 20.6602 109.892   3
   2  -6   2 1743.52 271.736   3
   2  -6   2 1546.43 209.256  10
   2  -6   3 638.891 96.1825   6
   2  -6   3 787.580 161.412  10
   2  -6   3 1026.02 231.281   3
   2  -6   4 5387.55 501.576   3
   2  -6   5 4248.93 245.435   7
   2  -6   5 5382.67 547.197   3
   2  -6   6 357.036 237.431   3
   2  -6   6 219.107 71.9333   7
   2  -6   7-80.5389 220.323   3
   2  -6   7 29.4100 52.5050   7
   2  -6   8 262.738 216.192   3
   2  -6   9 1916.70 451.089   3
   2  -6  10 357.968 317.907   3
   2  -6  11 6154.89 796.715   3
   2  -6  12 635.453 421.023   3
   2  -6  13 3139.64 663.927   3
   2  -6  14 240.966 327.996   3
   2  -6  15 661.238 436.974   3
   2  -5 -13 1279.57 510.736  10
   2  -5 -13-127.436 264.854   4
   2  -5 -12 854.918 395.720  10
   2  -5 -12 173.803 230.085   4
   2  -5 -11 82.2778 242.072  10
   2  -5 -11-73.3589 198.101   4
   2  -5 -10 450.660 327.584  10
   2  -5 -10 50.4435 190.182   4
   2  -5  -9 381.474 186.739   4
   2  -5  -9 707.341 355.617  10
   2  -5  -8 661.410 251.573  10
   2  -5  -8 512.925 200.211   4
   2  -5  -7 459.176 291.458  10
   2  -5  -7 229.850 206.665   4
   2  -5  -6 937.771 335.728  10
   2  -5  -6 659.302 243.106   4
   2  -5  -5 93.6352 175.515  10
   2  -5  -5 79.2183 37.8772   3
   2  -5  -5 91.7972 207.472   4
   2  -5  -4 444.909 235.136  10
   2  -5  -4 322.661 227.521   4
   2  -5  -3 5585.68 505.270   5
   2  -5  -3 5282.27 474.491  10
   2  -5  -2 48.3110 149.872  10
   2  -5  -2 227.479 161.259   5
   2  -5  -2 27.0654 51.5663   3
   2  -5  -1 19134.0 862.910   5
   2  -5  -1 19733.8 774.265  10
   2  -5  -1 17969.4 517.560   3
   2  -5   0 171.309 137.977  10
   2  -5   0 66.0678 116.890   5
   2  -5   0 303.346 120.243   3
   2  -5   1 9956.83 497.977   3
   2  -5   1 10844.2 505.040  10
   2  -5   2 6349.81 451.451   3
   2  -5   2 5813.12 197.084   6
   2  -5   2 7916.19 403.773  10
   2  -5   3 2726.92 323.584   3
   2  -5   4 25078.1 1017.79   3
   2  -5   5 817.885 250.776   3
   2  -5   5 907.097 131.339   7
   2  -5   6 9772.89 411.538   7
   2  -5   6 10772.2 768.978   3
   2  -5   7-70.3127 234.816   3
   2  -5   7 96.3665 95.4421   7
   2  -5   8 4050.83 534.423   3
   2  -5   8 3541.47 317.480   7
   2  -5   9 1387.42 382.951   3
   2  -5   9 805.879 190.253   7
   2  -5  10 6911.42 783.858   3
   2  -5  11 1900.24 490.980   3
   2  -5  12 4295.80 693.194   3
   2  -5  13 803.675 389.950   3
   2  -5  14 956.818 434.618   3
   2  -5  15 1661.05 510.712   3
   2  -4 -14 2790.71 678.796  10
   2  -4 -13 1311.32 547.549  10
   2  -4 -13 465.649 313.874   4
   2  -4 -12 1796.20 528.694  10
   2  -4 -12 796.231 365.131   4
   2  -4 -11 2578.96 548.084  10
   2  -4 -11 2443.83 489.156   4
   2  -4 -10-399.776 306.790  10
   2  -4 -10-39.6242 209.354   4
   2  -4  -9 7431.98 715.863   4
   2  -4  -9 7069.56 784.363  10
   2  -4  -8 622.090 269.615  10
   2  -4  -8 252.189 160.823   4
   2  -4  -7 7105.64 628.076   4
   2  -4  -7 6111.53 657.970  10
   2  -4  -6 8.33170 187.721  10
   2  -4  -6 36.3799 60.6621   3
   2  -4  -6-57.8158 156.628   4
   2  -4  -5 2886.97 411.371  10
   2  -4  -5 2933.82 382.056   4
   2  -4  -5 2051.41 140.860   3
   2  -4  -4 1737.39 305.118  10
   2  -4  -4 1261.69 253.396   4
   2  -4  -3 9773.75 617.050   5
   2  -4  -3 9166.89 589.610  10
   2  -4  -2 10629.2 615.414   5
   2  -4  -2 9836.55 550.756  10
   2  -4  -1 8683.63 527.260   5
   2  -4  -1 9195.50 489.865  10
   2  -4  -1 8053.64 294.090   3
   2  -4   0 12357.7 622.596   5
   2  -4   0 10710.8 412.690   3
   2  -4   0 12755.8 554.723  10
   2  -4   1 4248.09 312.008  10
   2  -4   1 4163.09 299.745   3
   2  -4   2 7895.87 468.962   3
   2  -4   2 8155.54 416.470  10
   2  -4   3 26827.8 936.786   3
   2  -4   4 695.344 218.392   3
   2  -4   4 851.361 139.171   7
   2  -4   5 2103.89 334.297   3
   2  -4   5 2084.90 221.381   7
   2  -4   6 114.573 190.573   3
   2  -4   6-74.9588 90.7655   7
   2  -4   7 607.043 233.999   3
   2  -4   7 788.686 162.694   7
   2  -4   8 134.467 246.510   3
   2  -4   8 90.4018 145.658   7
   2  -4   9 358.619 284.445   3
   2  -4   9 334.250 191.058   7
   2  -4  10 602.356 321.048   3
   2  -4  10 378.478 201.555   7
   2  -4  11 642.091 328.568   3
   2  -4  11 213.906 188.978   7
   2  -4  12 387.159 332.580   3
   2  -4  13 660.747 387.099   3
   2  -4  14 284.691 339.324   3
   2  -4  15 287.414 332.088   3
   2  -3 -14 1213.63 535.502  10
   2  -3 -13 1197.38 448.348  10
   2  -3 -12 2121.12 509.307  10
   2  -3 -12 1104.14 356.426   4
   2  -3 -11 551.241 287.073  10
   2  -3 -11 485.938 255.156   4
   2  -3 -10 2064.80 484.303  10
   2  -3 -10 1530.06 349.904   4
   2  -3  -9 5097.52 548.662   4
   2  -3  -9 5172.99 646.493  10
   2  -3  -8 3239.17 493.779  10
   2  -3  -8 3728.23 460.958   4
   2  -3  -7 4965.19 569.183  10
   2  -3  -7 6158.98 547.404   4
   2  -3  -6 1527.11 268.246   4
   2  -3  -6 673.853 274.842  10
   2  -3  -5 2586.54 357.007  10
   2  -3  -5 2161.41 302.705   4
   2  -3  -4 1121.71 233.889  10
   2  -3  -4 1333.99 120.636   2
   2  -3  -4 1488.27 229.128   4
   2  -3  -3 8734.29 545.703   5
   2  -3  -3 8977.98 308.698   2
   2  -3  -3 9470.51 553.684  10
   2  -3  -2 113.629 117.432  10
   2  -3  -2 101.208 85.6484   5
   2  -3  -2-133.387 87.3905   2
   2  -3  -1 289.374 142.205  10
   2  -3  -1 229.558 54.7090   3
   2  -3  -1 285.693 113.810   5
   2  -3  -1 331.249 112.305   2
   2  -3   0 4257.55 333.327   5
   2  -3   0 4490.51 318.407  10
   2  -3   0 4554.34 250.168   3
   2  -3   1 715.199 148.144  10
   2  -3   1 623.377 132.505   3
   2  -3   2 12187.2 506.780  10
   2  -3   2 12378.5 554.829   3
   2  -3   3 2794.77 240.095   7
   2  -3   3 3584.45 351.551   3
   2  -3   4 3569.97 280.787   7
   2  -3   4 3954.33 397.717   3
   2  -3   5 163.508 204.160   3
   2  -3   5 74.6662 103.192   7
   2  -3   6 692.076 259.931   3
   2  -3   6 668.727 173.799   7
   2  -3   7 93.8874 217.631   3
   2  -3   7 245.103 177.399   7
   2  -3   8 1661.21 391.343   3
   2  -3   8 1698.60 303.781   7
   2  -3   9 1262.52 374.318   3
   2  -3   9 1208.75 283.056   7
   2  -3  10 452.251 270.078   3
   2  -3  10 280.348 224.151   7
   2  -3  11 3162.03 542.537   3
   2  -3  11 2557.94 451.966   7
   2  -3  12 272.617 259.641   3
   2  -3  12 52.9923 231.745   7
   2  -3  13 2553.37 533.224   3
   2  -3  14-79.0445 268.201   3
   2  -3  15 349.509 290.956   3
   2  -2 -15 424.428 331.575  10
   2  -2 -14 1270.30 461.217  10
   2  -2 -13-146.637 227.420  10
   2  -2 -12 168.107 308.187  10
   2  -2 -12-207.275 239.336   4
   2  -2 -11 156.522 240.992  10
   2  -2 -11-233.296 226.278   4
   2  -2 -10 1808.27 442.442  10
   2  -2 -10 1873.37 380.644   4
   2  -2  -9 467.597 282.331  10
   2  -2  -9 531.409 148.381   2
   2  -2  -9 736.432 245.974   4
   2  -2  -8 224.648 210.247  10
   2  -2  -8 241.659 124.374   2
   2  -2  -8-127.503 138.581   4
   2  -2  -7 1653.81 334.963  10
   2  -2  -7 1543.03 173.512   2
   2  -2  -7 1399.55 237.977   4
   2  -2  -6 6842.29 475.320   4
   2  -2  -6 5956.36 264.831   2
   2  -2  -6 6908.57 579.414  10
   2  -2  -5 995.802 246.983  10
   2  -2  -5 1054.33 188.223   4
   2  -2  -4 15679.8 607.991   4
   2  -2  -4 16371.2 730.914  10
   2  -2  -3 1293.34 205.744  10
   2  -2  -2 7570.66 420.622   5
   2  -2  -2 7811.34 427.121  10
   2  -2  -1 80.4975 93.3383   6
   2  -2  -1 116.446 109.973  10
   2  -2  -1 274.379 102.325   5
   2  -2   0 9828.69 426.398  10
   2  -2   0 9156.55 348.954   3
   2  -2   0 9539.68 262.241   6
   2  -2   1 521.558 125.699  10
   2  -2   1 585.580 142.774   3
   2  -2   2 2102.89 250.722   3
   2  -2   2 1958.96 129.199   1
   2  -2   2 2009.61 210.046   7
   2  -2   3 246.359 140.746   3
   2  -2   3 45.1105 74.3241   7
   2  -2   3 134.218 44.8484   1
   2  -2   4 7899.42 235.780   8
   2  -2   4 9366.08 488.192   7
   2  -2   4 10057.1 610.729   3
   2  -2   5 12667.7 322.490   8
   2  -2   5 15238.2 674.029   7
   2  -2   5 15756.3 820.281   3
   2  -2   6 14.7805 40.2691   8
   2  -2   6 144.703 145.984   7
   2  -2   6 329.500 233.923   3
   2  -2   7 15136.2 803.193   7
   2  -2   7 15355.0 923.094   3
   2  -2   8 1942.83 412.038   3
   2  -2   8 1739.45 353.269   7
   2  -2   9 2371.28 426.545   3
   2  -2   9 2491.18 413.158   7
   2  -2  10 2685.92 491.682   3
   2  -2  10 2392.31 467.781   7
   2  -2  11-134.006 206.207   3
   2  -2  11-133.740 196.360   7
   2  -2  12 1844.72 432.697   3
   2  -2  12 1727.95 405.017   7
   2  -2  13-566.118 351.609   3
   2  -2  13 382.536 280.133   7
   2  -2  14-52.8572 269.766   3
   2  -2  14 1464.58 456.379   7
   2  -2  15 271.796 343.336   3
   2  -1 -16 41.4395 330.562  10
   2  -1 -15 151.426 370.919  10
   2  -1 -14 58.2659 238.710  10
   2  -1 -13 381.263 327.485  10
   2  -1 -12 328.654 242.460  10
   2  -1 -12 956.448 282.698   4
   2  -1 -11 73.3145 181.766  10
   2  -1 -11-1.44410 148.082   4
   2  -1 -10 333.524 281.099  10
   2  -1 -10 573.701 171.162   2
   2  -1 -10 188.787 145.266   4
   2  -1  -9 176.027 176.213  10
   2  -1  -9 206.241 200.708   4
   2  -1  -9-215.300 147.642   2
   2  -1  -8 2443.28 397.675  10
   2  -1  -8 3363.13 358.278   4
   2  -1  -8 3113.94 266.750   2
   2  -1  -7 17994.2 711.652   4
   2  -1  -7 17445.8 525.837   2
   2  -1  -7 17527.7 910.898  10
   2  -1  -6 2733.21 367.490  10
   2  -1  -6 3204.38 275.529   4
   2  -1  -6 3335.07 203.966   2
   2  -1  -5 25693.4 690.587   4
   2  -1  -5 22691.6 414.417   2
   2  -1  -5 25237.1 913.937  10
   2  -1  -4 3748.65 246.003   4
   2  -1  -4 4286.87 364.088  10
   2  -1  -3 4503.32 330.937  10
   2  -1  -2 2854.82 231.054   5
   2  -1  -2 2923.90 255.728  10
   2  -1  -1 1899.37 164.141   6
   2  -1  -1 2204.95 175.040   5
   2  -1  -1 2314.86 225.286  10
   2  -1   0 50821.8 873.323   3
   2  -1   0 49968.4 943.461  10
   2  -1   1 1283.85 186.091   7
   2  -1   1 1017.60 152.534   3
   2  -1   2 12654.7 535.681   7
   2  -1   2 13276.9 564.779   3
   2  -1   3 2654.31 283.114   7
   2  -1   3 2580.22 293.127   3
   2  -1   4 16347.8 704.252   7
   2  -1   4 17246.8 778.342   3
   2  -1   5 342.163 168.136   3
   2  -1   5 389.609 168.841   7
   2  -1   6 20427.0 949.515   7
   2  -1   6 19732.6 974.983   3
   2  -1   7 1405.42 315.913   3
   2  -1   7 829.357 282.274   7
   2  -1   8 6048.18 623.629   7
   2  -1   8 6184.41 619.073   3
   2  -1   9 2015.97 389.623   3
   2  -1   9 2678.29 482.642   7
   2  -1  10 225.677 197.597   3
   2  -1  10 780.162 334.527   7
   2  -1  11 1969.73 443.990   3
   2  -1  11 3263.98 548.682   7
   2  -1  12 399.271 263.409   3
   2  -1  12-186.089 221.187   7
   2  -1  13 410.264 217.969   3
   2  -1  13 355.254 303.076   7
   2  -1  14 118.761 306.959   7
   2  -1  14 578.577 335.482   3
   2   0 -16 519.936 347.912  10
   2   0 -15 319.215 286.571  10
   2   0 -14 100.976 219.546  10
   2   0 -13 1893.34 478.183  10
   2   0 -12 158.616 192.940  10
   2   0 -11 1927.49 414.427  10
   2   0 -11 1643.24 301.654   4
   2   0 -10 199.015 226.903  10
   2   0 -10-216.663 145.355   4
   2   0 -10 325.339 175.645   2
   2   0  -9 6246.09 453.672   4
   2   0  -9 6904.72 452.695   2
   2   0  -9 4347.33 533.022  10
   2   0  -8 11630.1 549.513   4
   2   0  -8 11195.8 525.947   2
   2   0  -8 12156.4 768.332  10
   2   0  -7 3542.10 270.770   4
   2   0  -7 3827.54 284.310   2
   2   0  -7 3384.33 389.970  10
   2   0  -6 32456.1 687.833   4
   2   0  -6 31748.1 723.041   2
   2   0  -6 32413.0 1034.70  10
   2   0  -5 2047.76 266.979  10
   2   0  -5 2413.81 160.009   4
   2   0  -5 2502.47 186.861   2
   2   0  -4 26045.7 783.405  10
   2   0  -4 24802.6 390.059   4
   2   0  -3 38.2506 95.1017  10
   2   0  -2 2986.74 161.184   4
   2   0  -2 2725.03 246.347  10
   2   0  -1 89.9085 46.2113   5
   2   0  -1 66.7101 77.6248   4
   2   0  -1 138.122 110.261  10
   2   0   0 2425.51 226.038   7
   2   0   0 2591.63 181.385   1
   2   0   1 731.755 87.4211   1
   2   0   1 672.542 157.290   7
   2   0   2 7324.91 219.248   1
   2   0   2 8242.70 471.579   7
   2   0   2 8653.58 490.903   3
   2   0   3 1952.21 113.888   8
   2   0   3 2519.07 292.884   7
   2   0   3 2447.81 282.456   3
   2   0   4 56.6927 36.7964   8
   2   0   4 200.557 167.220   7
   2   0   4 256.712 120.747   3
   2   0   5 99.7841 142.935   3
   2   0   5 65.9580 45.8962   8
   2   0   5-49.1392 137.071   7
   2   0   6 2177.44 357.264   3
   2   0   6 1638.63 158.092   8
   2   0   6 2436.79 379.902   7
   2   0   7 102.826 204.853   3
   2   0   7 3.62926 52.7264   8
   2   0   7 338.833 231.533   7
   2   0   8 178.134 182.790   3
   2   0   8 197.157 209.642   7
   2   0   9 1204.80 336.914   3
   2   0   9 1238.81 356.921   7
   2   0  10 51.0359 177.404   3
   2   0  10 506.480 389.434   7
   2   0  11 4476.15 624.847   3
   2   0  11 3693.64 625.957   7
   2   0  12 918.723 382.538   7
   2   0  12 526.159 272.738   3
   2   0  13-236.985 256.321   7
   2   0  13-407.587 277.853   3
   2   0  14 737.823 362.718   7
   2   0  15 20.6949 260.795   7
   2   1 -17 816.918 396.117  10
   2   1 -16 426.005 310.708  10
   2   1 -15 508.590 333.776  10
   2   1 -14 453.381 288.792  10
   2   1 -13 1759.56 444.234  10
   2   1 -12 391.727 253.225  10
   2   1 -11 534.809 253.072  10
   2   1 -11 349.263 146.386   2
   2   1 -10 460.725 245.670  10
   2   1 -10 198.129 131.143   4
   2   1 -10 209.911 156.839   2
   2   1  -9 1779.12 354.607  10
   2   1  -9 2395.15 266.428   4
   2   1  -9 2164.64 293.259   2
   2   1  -8 345.226 208.152  10
   2   1  -8 155.670 97.3703   4
   2   1  -8 220.142 138.330   2
   2   1  -7 12403.5 412.511   4
   2   1  -7 13352.3 586.721   2
   2   1  -7 13150.4 697.689  10
   2   1  -6 1614.70 256.996  10
   2   1  -6 929.700 96.8905   4
   2   1  -6 1538.21 206.100   2
   2   1  -5 3094.94 263.377   2
   2   1  -5 3151.05 288.949  10
   2   1  -4 1667.02 197.143  10
   2   1  -3 25.3795 77.6262  10
   2   1  -3 44.5032 29.0563   4
   2   1  -2 13123.6 368.951   4
   2   1  -2 12015.9 428.956  10
   2   1  -2 12164.4 520.197   1
   2   1  -1 10503.8 455.096   7
   2   1  -1 10520.0 443.956   1
   2   1   0 16015.6 506.411   1
   2   1   0 16035.0 602.500   7
   2   1   1 5721.25 290.221   8
   2   1   1 5829.44 293.900   1
   2   1   1 5605.06 392.711   7
   2   1   2 10965.9 395.266   8
   2   1   2 10963.3 396.700   1
   2   1   2 10682.8 592.172   7
   2   1   3 0.41147 54.9129   8
   2   1   3-138.342 133.655   7
   2   1   4 4905.30 280.225   8
   2   1   4 4500.57 475.544   7
   2   1   4 4845.67 436.182   3
   2   1   5 349.844 92.2795   8
   2   1   5 247.800 199.681   7
   2   1   5 222.142 170.682   3
   2   1   6 115.131 91.4986   8
   2   1   6 69.8482 194.003   7
   2   1   6-19.3378 151.863   3
   2   1   7 3885.33 293.020   8
   2   1   7 3847.53 486.622   3
   2   1   7 4222.14 560.276   7
   2   1   8 124.594 224.561   7
   2   1   8 170.894 181.099   3
   2   1   9 2248.63 507.410   7
   2   1   9 2230.32 428.340   3
   2   1  10 1820.73 476.295   7
   2   1  10 1586.79 381.262   3
   2   1  11 1666.27 470.035   7
   2   1  11 1974.12 452.388   3
   2   1  12 358.328 340.756   7
   2   1  12-160.515 236.656   3
   2   1  13 1439.30 514.550   7
   2   1  14 947.473 447.770   7
   2   2 -17 213.098 278.669  10
   2   2 -16 231.331 248.044  10
   2   2 -15 213.012 196.858  10
   2   2 -14 233.083 197.861  10
   2   2 -14 360.012 278.195   1
   2   2 -13 606.710 271.818  10
   2   2 -13 1180.53 330.735   1
   2   2 -12 2552.35 450.406   1
   2   2 -12 1361.79 344.728  10
   2   2 -12 1578.53 310.454   2
   2   2 -11-45.9643 186.712  10
   2   2 -11 382.228 237.079   1
   2   2 -11 254.688 188.792   2
   2   2 -10 4745.37 468.828   2
   2   2 -10 4236.99 487.650  10
   2   2  -9 539.474 204.880  10
   2   2  -9 268.655 153.288   2
   2   2  -8 12159.1 660.879   2
   2   2  -8 10544.5 640.015  10
   2   2  -7 374.411 170.344  10
   2   2  -7 161.558 209.339   1
   2   2  -7 46.7680 118.680   2
   2   2  -6 10176.4 558.223   2
   2   2  -6 11667.5 684.690   1
   2   2  -6 10125.9 508.121  10
   2   2  -5 419.696 188.189   1
   2   2  -5 443.292 120.118  10
   2   2  -4 21184.0 587.942  10
   2   2  -4 21204.0 833.124   1
   2   2  -3 888.043 193.735   1
   2   2  -3 1179.17 139.236  10
   2   2  -3 1084.10 161.048   7
   2   2  -2 41131.1 884.382   7
   2   2  -2 39090.1 1023.98   1
   2   2  -1 7989.80 448.954   8
   2   2  -1 7973.11 451.133   1
   2   2  -1 8392.90 447.854   7
   2   2   0 16.5090 79.4159   1
   2   2   0-9.47818 79.5651   8
   2   2   0-101.169 107.486   7
   2   2   1 17174.9 431.234   5
   2   2   1 16607.2 620.209   8
   2   2   1 16520.3 611.090   1
   2   2   1 17198.5 746.496   7
   2   2   2 1895.96 224.077   8
   2   2   2 1988.93 231.317   1
   2   2   2 2155.50 306.577   7
   2   2   3 13266.3 554.692   8
   2   2   3 13798.0 788.869   7
   2   2   4 79.0466 98.7534   8
   2   2   4 276.584 203.877   7
   2   2   5 3109.16 292.770   8
   2   2   5 3030.04 472.544   7
   2   2   6 703.356 152.361   8
   2   2   6 497.318 200.275   7
   2   2   7 174.082 107.206   8
   2   2   7 330.211 287.243   7
   2   2   8 1408.54 402.261   7
   2   2   9 2195.92 529.500   7
   2   2  10 1249.61 398.254   7
   2   2  11 50.3375 257.970   7
   2   2  12 601.771 398.619   7
   2   2  13 622.758 399.232   7
   2   3 -15 360.510 265.766  10
   2   3 -14 1032.89 310.160   1
   2   3 -14 932.951 344.491  10
   2   3 -13 929.961 293.120  10
   2   3 -13 1150.23 353.208   1
   2   3 -13 369.658 198.115   2
   2   3 -12 391.872 214.401  10
   2   3 -12 459.775 252.394   1
   2   3 -12-15.8433 184.590   2
   2   3 -11 6951.04 608.413   2
   2   3 -11 6107.77 635.390   1
   2   3 -11 5435.83 543.607  10
   2   3 -10-7.54932 158.783  10
   2   3 -10-369.780 202.742   2
   2   3  -9 8445.54 628.406   2
   2   3  -9 10008.4 745.456   1
   2   3  -9 8696.38 572.765  10
   2   3  -8 334.013 146.661  10
   2   3  -8 511.489 230.531   1
   2   3  -8 134.159 149.121   2
   2   3  -7 4110.30 449.813   1
   2   3  -7 3863.69 400.040   2
   2   3  -7 3786.64 319.958  10
   2   3  -6 4780.21 483.409   1
   2   3  -6 4109.78 297.909  10
   2   3  -5 3712.85 412.898   1
   2   3  -5 3757.83 242.197  10
   2   3  -4 3530.76 248.856   7
   2   3  -4 3719.36 383.390   1
   2   3  -4 3659.79 214.225  10
   2   3  -3 12207.4 488.120   7
   2   3  -3 11608.8 653.074   1
   2   3  -2 9313.62 571.351   8
   2   3  -2 9757.44 573.166   1
   2   3  -2 9501.42 472.750   7
   2   3  -1 3682.36 358.036   8
   2   3  -1 4208.41 376.130   1
   2   3  -1 3995.16 343.399   7
   2   3   0 24105.9 875.971   8
   2   3   0 24001.4 850.750   1
   2   3   0 24495.7 904.920   7
   2   3   1 671.789 107.631   5
   2   3   1 396.479 138.092   8
   2   3   1 453.234 168.913   7
   2   3   1 755.516 188.953   1
   2   3   2 13987.2 674.002   1
   2   3   2 14164.4 671.096   8
   2   3   2 14478.9 827.363   7
   2   3   3 1345.29 223.998   8
   2   3   3 1641.82 350.173   7
   2   3   4 2204.23 293.494   8
   2   3   4 2338.26 420.051   7
   2   3   5 1768.45 258.347   8
   2   3   5 2603.57 484.115   7
   2   3   6 66.2994 101.493   8
   2   3   6 264.511 230.045   7
   2   3   7 556.754 320.696   7
   2   3   8 1365.82 460.680   7
   2   3   9 901.404 495.103   7
   2   3  10-24.2907 251.747   7
   2   3  11 787.629 441.450   7
   2   3  12 142.804 402.853   7
   2   4 -15 2767.47 505.718   1
   2   4 -14 153.022 205.479   1
   2   4 -13 1019.66 318.557   2
   2   4 -13 1104.16 336.822   1
   2   4 -12 1775.08 309.497  10
   2   4 -12 1436.03 349.811   2
   2   4 -12 1693.70 385.276   1
   2   4 -11 137.686 127.868  10
   2   4 -11 204.010 218.759   2
   2   4 -11 65.1437 188.175   1
   2   4 -10 2503.80 319.188  10
   2   4 -10 2804.09 442.265   2
   2   4 -10 3097.76 454.423   1
   2   4  -9 413.237 164.897  10
   2   4  -9 633.325 232.520   2
   2   4  -9 335.159 200.233   1
   2   4  -8 131.556 123.413  10
   2   4  -8 130.437 172.581   2
   2   4  -8 179.278 178.561   1
   2   4  -7-58.9354 81.5095  10
   2   4  -7-9.28078 50.6764   7
   2   4  -7 50.9577 55.0158   7
   2   4  -6 458.363 92.0880  10
   2   4  -6 291.474 157.315   1
   2   4  -6 485.931 98.8154   7
   2   4  -5 1025.57 290.075   1
   2   4  -5 906.648 133.299   7
   2   4  -4 6472.27 555.329   1
   2   4  -4 6379.76 347.178   7
   2   4  -3 1654.63 161.374   9
   2   4  -3 1934.98 320.861   8
   2   4  -3 2044.08 332.643   1
   2   4  -3 2092.29 227.995   7
   2   4  -2 1579.09 293.019   1
   2   4  -2 1543.44 282.468   8
   2   4  -2 1715.36 233.919   7
   2   4  -1 521.724 165.857   1
   2   4  -1 520.530 189.548   8
   2   4  -1 790.947 195.797   7
   2   4   0 31.6857 137.510   1
   2   4   0 6.01751 133.593   8
   2   4   0 57.6489 125.854   7
   2   4   1 479.742 190.030   8
   2   4   1 188.605 159.836   7
   2   4   1 448.699 186.237   1
   2   4   2 557.486 161.452   8
   2   4   2 482.708 209.179   7
   2   4   3 506.466 183.041   8
   2   4   3 612.591 242.173   7
   2   4   4 1213.71 243.563   8
   2   4   4 865.914 323.181   7
   2   4   5 3931.18 429.844   8
   2   4   5 3917.86 586.921   7
   2   4   6 2613.59 350.063   8
   2   4   6 2751.79 527.286   7
   2   4   7 498.232 337.332   7
   2   4   8 344.268 342.200   7
   2   4   9-20.8202 282.668   7
   2   4  10 1553.65 546.547   7
   2   4  11 514.521 411.590   7
   2   5 -15-3.08844 241.056   1
   2   5 -14-121.589 242.281   1
   2   5 -14 50.8920 216.582   2
   2   5 -13 532.986 269.922   1
   2   5 -13 506.482 224.190   2
   2   5 -12 53.5392 197.862   1
   2   5 -12-58.0853 214.364   2
   2   5 -11 2819.55 467.116   1
   2   5 -11 2770.46 457.445   2
   2   5 -10 102.873 173.723   1
   2   5 -10 300.366 199.092   2
   2   5  -9 441.056 216.976   1
   2   5  -8 382.911 194.984   1
   2   5  -7 5358.08 580.711   1
   2   5  -6 86.3388 57.6999   7
   2   5  -6 176.737 204.490   1
   2   5  -5 1906.96 369.846   1
   2   5  -5 1409.42 171.489   7
   2   5  -4 141.266 188.823   1
   2   5  -4 587.027 275.354   8
   2   5  -4 568.637 145.840   7
   2   5  -3 359.032 76.5657   9
   2   5  -3 1094.65 261.936   1
   2   5  -3 877.065 253.321   8
   2   5  -3 936.654 196.138   7
   2   5  -2 1135.86 280.674   1
   2   5  -2 682.556 113.165   9
   2   5  -2 1474.32 319.401   8
   2   5  -2 1446.75 271.495   7
   2   5  -1 439.720 198.860   1
   2   5  -1 445.494 219.688   8
   2   5  -1 526.873 205.080   7
   2   5   0 297.896 173.832   8
   2   5   0 1022.96 272.802   7
   2   5   0 682.998 220.066   1
   2   5   1 276.405 182.665   8
   2   5   1 459.609 212.099   1
   2   5   1 131.543 189.191   7
   2   5   2 58.7789 170.232   8
   2   5   2 338.320 228.578   7
   2   5   3 2382.96 362.766   8
   2   5   3 2481.55 463.492   7
   2   5   4 2401.67 370.392   8
   2   5   4 2202.62 485.881   7
   2   5   5 7743.35 651.415   8
   2   5   5 7763.29 869.553   7
   2   5   6 1583.98 477.141   7
   2   5   7 4235.88 709.772   7
   2   5   8 814.639 430.056   7
   2   5   9 1223.70 471.631   7
   2   5  10 1480.30 531.968   7
   2   6 -15 263.625 247.529   1
   2   6 -14 1228.78 400.191   1
   2   6 -14 872.476 338.069   2
   2   6 -13 2005.20 456.652   1
   2   6 -13 524.854 268.049   2
   2   6 -12 1172.08 367.574   1
   2   6 -11 705.476 315.642   1
   2   6 -10 3146.24 522.426   1
   2   6  -9 547.971 272.875   1
   2   6  -8 16036.3 1057.93   1
   2   6  -7 1195.77 318.210   1
   2   6  -6 7640.05 717.754   1
   2   6  -5 3529.27 495.709   1
   2   6  -5 3859.64 295.958   7
   2   6  -4 58.1444 172.860   1
   2   6  -4 363.937 287.746   8
   2   6  -4 141.529 146.375   7
   2   6  -3 8156.13 723.449   8
   2   6  -3 8418.38 721.568   1
   2   6  -3 9001.17 571.943   7
   2   6  -2 334.503 190.824   1
   2   6  -2 459.814 248.112   8
   2   6  -2 329.073 171.603   7
   2   6  -1 8317.52 722.995   8
   2   6  -1 8672.75 715.499   1
   2   6  -1 9812.69 708.119   7
   2   6   0 232.127 187.759   8
   2   6   0 1077.46 294.984   1
   2   6   0 663.398 246.543   7
   2   6   1 1385.22 327.994   8
   2   6   1 1150.60 345.285   7
   2   6   2 55.5307 149.128   8
   2   6   2 451.878 244.958   7
   2   6   3 1253.42 313.614   8
   2   6   3 1012.65 373.641   7
   2   6   4 1680.11 343.553   8
   2   6   4 1943.51 506.885   7
   2   6   5 973.447 298.377   8
   2   6   5 1670.93 476.195   7
   2   6   6 523.749 345.466   7
   2   6   7 26.9470 330.857   7
   2   6   8 624.116 293.633   7
   2   6   9 1667.76 585.758   7
   2   7 -15 717.657 353.465   1
   2   7 -14 162.768 308.893   1
   2   7 -13 1284.22 404.581   1
   2   7 -12 446.346 289.465   1
   2   7 -11 284.579 237.779   1
   2   7 -10 310.922 319.108   1
   2   7  -9 3040.32 516.283   1
   2   7  -8 1798.54 377.406   1
   2   7  -7 3341.92 521.028   1
   2   7  -6 5122.61 620.288   1
   2   7  -5 424.685 225.691   1
   2   7  -5 484.221 265.244   8
   2   7  -4 4936.08 611.710   1
   2   7  -4 4040.86 553.321   8
   2   7  -4 4765.87 419.015   7
   2   7  -3 1923.48 418.257   8
   2   7  -3 2093.15 311.998   7
   2   7  -3 2125.37 416.131   1
   2   7  -2 2821.60 449.518   1
   2   7  -2 1633.01 358.146   8
   2   7  -2 2236.37 378.811   7
   2   7  -1 49.9692 188.292   8
   2   7  -1 184.072 152.900   7
   2   7  -1 131.169 192.690   1
   2   7   0 573.058 273.144   1
   2   7   0 292.527 201.173   8
   2   7   0 1023.47 322.755   7
   2   7   1-63.7345 182.982   8
   2   7   1 269.876 296.979   7
   2   7   2 137.589 166.725   8
   2   7   2 408.021 296.774   7
   2   7   3 457.146 249.678   8
   2   7   3 702.713 341.750   7
   2   7   4 805.362 273.134   8
   2   7   4 437.676 344.714   7
   2   7   5 1319.84 424.561   7
   2   7   6-495.079 361.763   7
   2   7   7 505.478 333.673   7
   2   8 -15 275.144 308.335   1
   2   8 -14 594.018 350.888   1
   2   8 -13 1209.99 410.903   1
   2   8 -12 24.1880 203.175   1
   2   8 -11 660.422 308.946   1
   2   8 -10 29.2807 196.074   1
   2   8  -9 773.552 325.575   1
   2   8  -8 444.293 284.604   1
   2   8  -7 304.827 241.515   1
   2   8  -6 866.323 331.111   1
   2   8  -5 1641.04 429.350   1
   2   8  -5 1855.33 492.433   8
   2   8  -4 2224.54 474.466   1
   2   8  -4 2339.69 495.485   8
   2   8  -3 616.400 307.958   8
   2   8  -3 219.900 240.413   1
   2   8  -2 169.727 237.283   8
   2   8  -2 189.493 264.923   1
   2   8  -2 351.154 233.384   7
   2   8  -1 1172.72 368.781   8
   2   8  -1 1912.39 439.471   1
   2   8  -1 879.313 291.806   7
   2   8   0 515.211 282.905   8
   2   8   0 155.515 220.435   7
   2   8   1 1489.22 371.631   8
   2   8   1 1256.11 318.247   7
   2   8   2 39.7485 185.093   8
   2   8   2 441.930 293.216   7
   2   8   3 37.2554 188.038   8
   2   8   3 348.654 375.443   7
   2   8   4 128.624 174.427   8
   2   8   4 189.066 293.725   7
   2   8   5 305.458 316.951   7
   2   8   6 2106.06 586.546   7
   2   9 -15 310.811 226.210   1
   2   9 -14 153.827 228.472   1
   2   9 -13 305.790 268.374   1
   2   9 -12 121.716 276.136   1
   2   9 -11 778.361 316.486   1
   2   9 -10 146.852 214.336   1
   2   9  -9-186.968 194.050   1
   2   9  -8 111.707 191.185   1
   2   9  -7-270.146 274.810   1
   2   9  -6 1508.93 429.405   1
   2   9  -5 10.7992 179.323   1
   2   9  -5 135.317 221.694   8
   2   9  -4 1264.13 401.755   8
   2   9  -4 1047.02 325.348   1
   2   9  -3 587.952 331.927   8
   2   9  -3 101.347 190.554   1
   2   9  -2 2111.83 535.630   8
   2   9  -2 1521.57 414.355   1
   2   9  -1 2968.40 574.939   8
   2   9   0 1029.02 357.679   8
   2   9   0 613.449 286.105   7
   2   9   1 4355.60 688.601   8
   2   9   1 3842.59 642.688   7
   2   9   2 179.849 208.583   8
   2   9   2-274.611 255.443   7
   2   9   3 508.270 296.149   8
   2   9   3 640.470 364.509   7
   2   9   4 231.300 334.029   7
   2   9   5 235.032 324.129   7
   2  10 -13 363.992 297.894   1
   2  10 -12 2292.80 578.250   1
   2  10 -11 586.408 329.342   1
   2  10 -10 777.315 356.623   1
   2  10  -9 42.7916 266.749   1
   2  10  -8-228.414 234.435   1
   2  10  -7 1477.62 446.167   1
   2  10  -6 216.274 230.409   1
   2  10  -5 1700.46 458.695   1
   2  10  -4 639.954 329.214   8
   2  10  -4-41.3619 217.976   1
   2  10  -3 1399.13 457.845   8
   2  10  -3 784.769 360.890   1
   2  10  -2 561.531 356.507   8
   2  10  -1 1379.67 454.740   8
   2  10   0 885.603 397.484   8
   2  10   1 570.706 370.666   8
   2  10   2-78.8562 212.987   8
   2  10   3 540.468 396.535   7
   2  11  -9-114.851 230.173   1
   2  11  -8 417.593 298.083   1
   2  11  -7-265.956 335.744   1
   2  11  -6 227.504 295.926   1
   2  11  -5 468.376 330.416   1
   2  11  -4 336.998 320.598   1
   2  11  -4-303.707 341.502   8
   2  11  -3 667.513 404.352   8
   2  11  -2 51.4817 306.212   8
   2  11  -1 593.460 337.980   8
   2  11   0-121.458 255.820   8
   3 -13   0 649.951 328.184   4
   3 -13   1 842.725 447.353   4
   3 -13   2 493.589 350.612   4
   3 -13   3 303.497 342.715   4
   3 -13   4-127.864 237.582   5
   3 -13   5 421.819 355.599   5
   3 -13   6 485.568 341.234   5
   3 -13   7 969.487 428.127   5
   3 -13   8 368.078 405.385   5
   3 -13   9 497.585 329.066   3
   3 -13  10 361.281 356.945   3
   3 -12  -3 233.037 269.669   4
   3 -12  -2 1415.44 518.330   4
   3 -12  -1 1651.09 438.777   5
   3 -12  -1 1250.64 466.748   4
   3 -12   0 4821.97 714.086   5
   3 -12   0 4235.74 748.953   4
   3 -12   1 2200.33 503.626   5
   3 -12   1 1815.51 520.748   4
   3 -12   2 3725.26 646.584   5
   3 -12   3 355.261 246.268   5
   3 -12   4 1068.03 397.529   5
   3 -12   5 561.941 325.823   5
   3 -12   6 1780.67 468.190   3
   3 -12   6 2265.77 562.280   5
   3 -12   7 742.269 354.002   3
   3 -12   7 327.444 347.811   5
   3 -12   8 1619.67 476.893   3
   3 -12   9 260.333 347.243   3
   3 -12  10 992.058 506.145   3
   3 -12  11 1206.17 514.176   3
   3 -11  -5 718.538 409.079   4
   3 -11  -4 353.458 299.575   4
   3 -11  -3 858.090 361.198   4
   3 -11  -2 567.019 346.659   5
   3 -11  -2 1059.28 351.789   4
   3 -11  -1 2967.00 580.110   5
   3 -11  -1 2972.46 602.478   4
   3 -11   0 297.532 274.280   5
   3 -11   0 88.0723 284.298   4
   3 -11   1 1823.55 432.158   5
   3 -11   2-51.8256 182.397   5
   3 -11   3-20.5588 218.081   5
   3 -11   4 1569.19 489.714   5
   3 -11   4 1026.43 340.568   3
   3 -11   5-244.205 226.930   3
   3 -11   5 743.418 350.840   5
   3 -11   6 394.661 323.824   3
   3 -11   7 385.369 306.548   3
   3 -11   8 3.72903 231.668   3
   3 -11   9 302.426 374.763   3
   3 -11  10 189.837 288.229   3
   3 -11  11 292.290 380.746   3
   3 -11  12 545.173 392.011   3
   3 -10  -8-160.796 342.578  10
   3 -10  -7 499.712 394.520   4
   3 -10  -7 411.904 305.191  10
   3 -10  -6 49.2848 324.642  10
   3 -10  -6 342.787 330.473   4
   3 -10  -5 133.829 198.994  10
   3 -10  -5 52.0400 235.637   4
   3 -10  -4 852.764 354.422  10
   3 -10  -4 373.215 328.685   4
   3 -10  -3 251.714 231.643  10
   3 -10  -3 971.305 338.682   4
   3 -10  -2 564.233 287.573   5
   3 -10  -2 751.912 373.174   4
   3 -10  -1 936.143 377.293   5
   3 -10  -1 713.477 315.986   4
   3 -10   0 276.725 295.799   5
   3 -10   1 1040.07 340.999   5
   3 -10   2 646.642 304.706   5
   3 -10   2 883.167 264.465   3
   3 -10   3 163.126 243.007   5
   3 -10   3 33.9995 182.800   3
   3 -10   4 2320.31 492.398   5
   3 -10   4 2114.93 387.519   3
   3 -10   5 93.2023 229.309   3
   3 -10   6 1246.56 356.724   3
   3 -10   7 4330.70 645.019   3
   3 -10   8 243.814 289.392   3
   3 -10   9 1745.82 491.590   3
   3 -10  10 61.2216 323.345   3
   3 -10  11 317.282 329.085   3
   3 -10  12 140.576 313.818   3
   3 -10  13 1516.73 555.197   3
   3  -9 -10-510.903 329.724  10
   3  -9  -9 95.1418 278.821  10
   3  -9  -9 503.675 335.414   4
   3  -9  -8 337.561 251.410  10
   3  -9  -8-635.274 392.357   4
   3  -9  -7 453.124 316.163  10
   3  -9  -7 736.281 353.063   4
   3  -9  -6 59.3006 267.193   4
   3  -9  -6 118.848 258.792  10
   3  -9  -5 2053.79 476.401  10
   3  -9  -5 2523.06 536.394   4
   3  -9  -4 889.247 339.936  10
   3  -9  -4 608.800 250.987   4
   3  -9  -3 735.959 259.575  10
   3  -9  -3 1000.09 350.165   5
   3  -9  -3 866.278 338.651   4
   3  -9  -2 1638.64 359.850   5
   3  -9  -2 1784.81 341.576  10
   3  -9  -2 1506.38 388.371   4
   3  -9  -1 382.872 232.501   5
   3  -9  -1-87.0204 158.856  10
   3  -9   0 303.761 207.267   5
   3  -9   0 559.470 228.653  10
   3  -9   1 3083.49 483.980   5
   3  -9   1 2739.84 364.400   3
   3  -9   1 3740.01 391.751  10
   3  -9   2 17.0061 123.669  10
   3  -9   2 31.8124 212.101   5
   3  -9   2 95.9606 135.650   3
   3  -9   3 3777.49 563.958   5
   3  -9   3 3290.21 452.370   3
   3  -9   4 68.2525 161.790   3
   3  -9   5 786.425 260.558   3
   3  -9   6 4304.26 599.754   3
   3  -9   7 684.618 338.243   3
   3  -9   8 4640.14 667.608   3
   3  -9   9-113.531 259.576   3
   3  -9  10 1125.07 441.159   3
   3  -9  11 232.774 276.605   3
   3  -9  12 0.75922 259.164   3
   3  -9  13 919.464 437.186   3
   3  -8 -11 656.630 384.346  10
   3  -8 -11 365.798 337.486   4
   3  -8 -10-71.9934 344.493  10
   3  -8 -10 478.034 307.239   4
   3  -8  -9 1924.75 465.712  10
   3  -8  -9 1509.42 459.192   4
   3  -8  -8 232.726 327.540  10
   3  -8  -8 471.692 318.034   4
   3  -8  -7 3243.46 585.251  10
   3  -8  -7 2367.52 518.023   4
   3  -8  -6 5272.92 676.062  10
   3  -8  -6 4318.71 653.303   4
   3  -8  -5 1876.96 413.824  10
   3  -8  -5 1801.68 420.725   4
   3  -8  -4 6170.12 707.381   4
   3  -8  -4 6091.40 658.630  10
   3  -8  -3 2736.39 425.613  10
   3  -8  -3 2759.27 445.406   5
   3  -8  -3 2275.27 446.159   4
   3  -8  -2 2103.73 407.320   5
   3  -8  -2 2194.29 382.036  10
   3  -8  -1 107.950 151.692  10
   3  -8  -1 291.295 242.976   5
   3  -8  -1 8.81002 123.195   3
   3  -8   0 1028.16 255.352  10
   3  -8   0 1554.61 332.289   5
   3  -8   0 1136.09 214.902   3
   3  -8   1 718.397 207.878  10
   3  -8   1 740.309 309.761   5
   3  -8   1 517.690 176.439   3
   3  -8   2 10632.6 593.166  10
   3  -8   2 9878.07 807.107   5
   3  -8   2 9754.03 646.092   3
   3  -8   3 1502.83 237.248  10
   3  -8   3 1358.26 286.568   3
   3  -8   4 7779.22 657.140   3
   3  -8   5 4353.04 529.916   3
   3  -8   6 81.2955 170.789   3
   3  -8   7 7293.51 769.526   3
   3  -8   8 652.045 346.912   3
   3  -8   9 3463.68 590.876   3
   3  -8  10-19.9291 278.046   3
   3  -8  11-267.011 237.757   3
   3  -8  12 1205.55 467.913   3
   3  -8  13 313.919 450.499   3
   3  -8  14 322.057 417.397   3
   3  -7 -12 1219.42 473.898  10
   3  -7 -12 513.472 328.163   4
   3  -7 -11 460.451 390.054  10
   3  -7 -11 110.759 257.648   4
   3  -7 -10 1295.53 469.566  10
   3  -7 -10 1545.97 447.970   4
   3  -7  -9 617.469 349.554  10
   3  -7  -9 743.783 309.186   4
   3  -7  -8 847.503 431.454  10
   3  -7  -8 510.999 307.475   4
   3  -7  -7 268.044 292.091  10
   3  -7  -7 476.913 312.006   4
   3  -7  -6 75.0923 248.287  10
   3  -7  -6 316.080 196.607   4
   3  -7  -5 2456.52 411.021  10
   3  -7  -5 1869.23 392.113   4
   3  -7  -4-217.025 177.305  10
   3  -7  -4-190.838 215.034   4
   3  -7  -3 388.392 264.354  10
   3  -7  -3 100.414 207.868   5
   3  -7  -2 1841.67 324.535  10
   3  -7  -2 1175.35 127.239   3
   3  -7  -2 1825.63 355.288   5
   3  -7  -1 855.628 263.376  10
   3  -7  -1 590.345 276.492   5
   3  -7  -1 311.203 128.913   3
   3  -7   0 3010.16 367.903  10
   3  -7   0 3280.06 433.768   5
   3  -7   0 2727.42 287.520   3
   3  -7   1 1263.78 254.077  10
   3  -7   1 1141.82 246.908   3
   3  -7   1 1130.37 287.118   5
   3  -7   2 217.874 151.328  10
   3  -7   2 121.064 144.389   3
   3  -7   3 2403.93 293.513  10
   3  -7   3 2300.92 374.008   3
   3  -7   4 135.684 193.669   3
   3  -7   5 902.383 290.006   3
   3  -7   5 1341.16 198.465   7
   3  -7   6 380.686 277.676   3
   3  -7   6 23.2110 84.7601   7
   3  -7   7 1803.19 393.233   3
   3  -7   8 56.2300 234.664   3
   3  -7   9 84.5810 250.794   3
   3  -7  10 1374.10 450.777   3
   3  -7  11 1086.10 441.655   3
   3  -7  12 1768.05 511.505   3
   3  -7  13 614.892 374.614   3
   3  -7  14 549.068 428.102   3
   3  -6 -12 300.844 307.688  10
   3  -6 -12-627.322 365.089   4
   3  -6 -11 1481.25 514.072  10
   3  -6 -11 677.654 329.798   4
   3  -6 -10 1009.66 440.250  10
   3  -6 -10 3.02967 220.027   4
   3  -6  -9 1468.29 409.000  10
   3  -6  -9 943.745 360.605   4
   3  -6  -8-65.3057 217.316  10
   3  -6  -8 150.870 228.547   4
   3  -6  -7-190.592 267.975  10
   3  -6  -7 122.196 193.870   4
   3  -6  -6 767.748 308.060  10
   3  -6  -6 503.053 238.803   4
   3  -6  -5 176.404 217.530  10
   3  -6  -5-62.9710 174.261   4
   3  -6  -4 518.274 256.847  10
   3  -6  -3 591.314 224.924   5
   3  -6  -3 462.170 279.247  10
   3  -6  -2 13112.7 826.297   5
   3  -6  -2 12274.1 731.786  10
   3  -6  -1-55.0562 135.294  10
   3  -6  -1 65.3170 73.8456   3
   3  -6  -1-69.4495 166.177   5
   3  -6   0 10816.9 741.823   5
   3  -6   0 10430.9 505.649   3
   3  -6   0 11838.0 659.865  10
   3  -6   1 6923.81 598.680   5
   3  -6   1 6686.16 460.537   3
   3  -6   1 6494.34 458.522  10
   3  -6   2 485.770 173.144  10
   3  -6   2 592.606 192.845   3
   3  -6   3 9204.21 632.288   3
   3  -6   3 9249.12 540.669  10
   3  -6   4 539.680 212.974   3
   3  -6   5 8515.82 453.436   7
   3  -6   5 9238.62 721.861   3
   3  -6   6 1508.01 353.084   3
   3  -6   6 1769.15 229.109   7
   3  -6   7 3525.85 521.531   3
   3  -6   7 3400.77 308.514   7
   3  -6   8 453.002 323.060   3
   3  -6   8 95.2367 126.552   7
   3  -6   9 9341.91 918.283   3
   3  -6  10 4454.61 659.248   3
   3  -6  11 6333.79 836.310   3
   3  -6  12 1933.09 532.522   3
   3  -6  13 766.164 392.863   3
   3  -6  14 842.666 427.888   3
   3  -5 -13 912.482 497.441  10
   3  -5 -12 382.458 372.465  10
   3  -5 -12 466.925 317.154   4
   3  -5 -11 785.100 373.830  10
   3  -5 -11-26.5375 179.846   4
   3  -5 -10-392.790 257.429   4
   3  -5 -10 273.706 298.464  10
   3  -5  -9 1031.14 366.255  10
   3  -5  -9 82.0166 163.120   4
   3  -5  -8 1635.96 428.067  10
   3  -5  -8 1506.35 357.167   4
   3  -5  -7 526.491 273.567  10
   3  -5  -7 449.442 226.574   4
   3  -5  -6 2716.89 452.123  10
   3  -5  -6 3071.06 429.180   4
   3  -5  -5 3771.79 494.939  10
   3  -5  -5 3220.70 433.338   4
   3  -5  -4 1097.32 255.982  10
   3  -5  -3 17302.4 914.829   5
   3  -5  -3 16893.0 849.396  10
   3  -5  -2 712.038 216.404  10
   3  -5  -2 501.992 194.745   5
   3  -5  -2 210.505 44.3608   3
   3  -5  -1 15163.9 744.556  10
   3  -5  -1 13641.3 762.317   5
   3  -5  -1 13617.3 445.542   3
   3  -5   0 393.531 184.367  10
   3  -5   0 317.418 128.633   3
   3  -5   0 238.988 187.317   5
   3  -5   1 3638.85 338.261  10
   3  -5   1 3589.93 321.858   3
   3  -5   2 13205.3 659.286   3
   3  -5   2 12685.5 619.069  10
   3  -5   3 882.217 212.158   3
   3  -5   4 3024.81 399.467   3
   3  -5   4 2783.44 281.307   7
   3  -5   5 173.243 161.939   3
   3  -5   5 99.4129 151.758   7
   3  -5   6 1758.51 401.886   3
   3  -5   6 1481.11 218.558   7
   3  -5   7 592.025 310.157   3
   3  -5   7 445.533 169.592   7
   3  -5   8 1292.33 383.102   3
   3  -5   8 1338.34 249.081   7
   3  -5   9 2673.43 542.356   3
   3  -5   9 2294.86 355.506   7
   3  -5  10 1846.09 465.497   3
   3  -5  10 1157.94 285.275   7
   3  -5  11 2541.77 556.400   3
   3  -5  12 392.454 332.822   3
   3  -5  13-171.129 261.859   3
   3  -5  14 998.247 462.898   3
   3  -5  15-40.2100 281.760   3
   3  -4 -14 444.155 363.102  10
   3  -4 -13 2656.63 635.818  10
   3  -4 -12 813.290 343.385   4
   3  -4 -12 512.388 365.052  10
   3  -4 -11 2069.28 484.568  10
   3  -4 -11 1097.27 313.269   4
   3  -4 -10 5096.70 682.554  10
   3  -4 -10 4913.17 587.059   4
   3  -4  -9 1854.78 423.594  10
   3  -4  -9 1353.04 317.679   4
   3  -4  -8 1500.55 366.712  10
   3  -4  -8 2300.90 375.569   4
   3  -4  -7 12404.9 784.898   4
   3  -4  -7 13779.0 943.265  10
   3  -4  -6 2480.07 363.319   4
   3  -4  -6 2610.34 403.144  10
   3  -4  -5 1944.65 354.137  10
   3  -4  -5 1130.68 107.547   2
   3  -4  -5 1767.64 293.324   4
   3  -4  -4 6935.57 283.063   2
   3  -4  -4 8898.39 623.630  10
   3  -4  -3 984.601 226.307  10
   3  -4  -3 897.773 214.027   5
   3  -4  -3 699.706 135.264   2
   3  -4  -2 26813.0 999.268   5
   3  -4  -2 26852.5 956.008  10
   3  -4  -1 2586.18 299.611  10
   3  -4  -1 2515.09 315.600   5
   3  -4  -1 2228.65 180.872   3
   3  -4   0 10000.9 606.536   5
   3  -4   0 9694.65 437.546   3
   3  -4   0 9227.45 300.304   6
   3  -4   0 9923.24 550.742  10
   3  -4   1 7156.90 435.806   3
   3  -4   1 7389.66 468.504  10
   3  -4   2 94.8720 147.328   3
   3  -4   2 98.9929 125.588  10
   3  -4   3 1031.77 246.170   3
   3  -4   4 2469.16 342.315   3
   3  -4   4 2366.97 263.618   7
   3  -4   5 591.843 277.576   3
   3  -4   5 574.830 184.643   7
   3  -4   6 3341.97 472.094   3
   3  -4   6 2568.07 306.031   7
   3  -4   7 1258.75 381.243   3
   3  -4   7 748.415 208.069   7
   3  -4   8 919.380 358.050   3
   3  -4   8 493.841 178.369   7
   3  -4   9 905.701 315.696   3
   3  -4   9 589.576 230.488   7
   3  -4  10 144.246 232.324   3
   3  -4  10 117.797 153.344   7
   3  -4  11 507.037 287.786   3
   3  -4  11 402.394 247.550   7
   3  -4  12-248.427 274.547   3
   3  -4  13-104.405 306.662   3
   3  -4  14 329.770 293.983   3
   3  -4  15-534.112 372.315   3
   3  -3 -15 996.937 435.332  10
   3  -3 -14 668.462 408.245  10
   3  -3 -13-275.467 237.467  10
   3  -3 -12 221.635 266.754  10
   3  -3 -12 620.537 256.254   4
   3  -3 -11 1913.92 376.166   4
   3  -3 -11 1699.99 461.587  10
   3  -3 -10 458.483 291.705  10
   3  -3 -10-67.0962 149.078   4
   3  -3  -9 705.901 269.500  10
   3  -3  -9 675.803 213.356   4
   3  -3  -8 1447.41 373.136  10
   3  -3  -8 1282.16 285.201   4
   3  -3  -7 236.642 227.607  10
   3  -3  -7 45.0272 131.401   4
   3  -3  -6 481.376 226.072  10
   3  -3  -6 186.834 121.436   4
   3  -3  -5 2192.77 339.199  10
   3  -3  -4-13.6980 148.028  10
   3  -3  -3 857.854 206.798  10
   3  -3  -3 737.290 214.348   5
   3  -3  -2 435.668 137.564   5
   3  -3  -2 176.775 139.468  10
   3  -3  -1 92.0672 122.968  10
   3  -3  -1 41.8855 109.027   5
   3  -3  -1 39.0262 66.5809   3
   3  -3   0 12.4473 74.5560   3
   3  -3   0 72.8343 104.082  10
   3  -3   0 99.3645 124.965   5
   3  -3   1 10011.0 499.383   3
   3  -3   1 9702.37 525.626  10
   3  -3   2 1225.28 228.392   3
   3  -3   3 5644.34 263.023   1
   3  -3   3 5970.58 420.486   7
   3  -3   3 6467.98 499.026   3
   3  -3   4 2318.14 351.639   3
   3  -3   4 1622.19 137.705   1
   3  -3   4 2256.82 280.877   7
   3  -3   5 195.062 197.903   3
   3  -3   5 96.4187 134.037   7
   3  -3   6 3841.53 492.707   3
   3  -3   6 3850.81 396.858   7
   3  -3   7 1771.50 374.329   3
   3  -3   7 1708.62 300.562   7
   3  -3   8 2466.89 445.448   3
   3  -3   8 2268.91 373.924   7
   3  -3   9 906.847 314.601   7
   3  -3   9 688.076 287.179   3
   3  -3  10 196.338 228.221   3
   3  -3  10 18.1951 228.859   7
   3  -3  11-336.958 274.028   3
   3  -3  11 161.771 231.738   7
   3  -3  12 299.490 283.458   3
   3  -3  12 346.098 255.119   7
   3  -3  13 417.931 306.832   3
   3  -3  13 594.533 278.879   7
   3  -3  14 168.715 236.860   3
   3  -3  15 490.544 320.516   3
   3  -2 -15 832.824 405.170  10
   3  -2 -14 380.842 319.118  10
   3  -2 -13 42.8357 232.742  10
   3  -2 -12 385.482 241.034  10
   3  -2 -11 1146.88 382.261  10
   3  -2 -11 1368.77 299.368   4
   3  -2 -10-55.4033 183.767  10
   3  -2 -10 19.8589 135.046   4
   3  -2  -9 188.469 234.956  10
   3  -2  -9 243.149 156.443   4
   3  -2  -8 3770.67 499.027  10
   3  -2  -8 3852.02 382.005   4
   3  -2  -7 2052.43 385.109  10
   3  -2  -7 2158.57 272.766   4
   3  -2  -6 15700.3 648.167   4
   3  -2  -6 16000.8 856.814  10
   3  -2  -5 839.539 208.255  10
   3  -2  -4 4112.53 393.581  10
   3  -2  -3 6618.98 451.348   5
   3  -2  -3 6561.34 467.123  10
   3  -2  -2 171.649 139.793  10
   3  -2  -2 11.8981 80.3436   5
   3  -2  -1 10085.1 484.859   5
   3  -2  -1 9640.20 509.413  10
   3  -2   0 51960.8 1159.55  10
   3  -2   0 50767.0 1054.15   3
   3  -2   1 51161.7 1204.02  10
   3  -2   1 51720.9 1153.96   3
   3  -2   2 1066.21 214.635   3
   3  -2   2 1252.25 230.415   7
   3  -2   3 11888.6 607.374   7
   3  -2   3 11938.2 664.183   3
   3  -2   4 2318.70 318.389   3
   3  -2   4 2346.68 312.864   7
   3  -2   5 23862.3 959.830   7
   3  -2   5 23818.0 1078.37   3
   3  -2   6 13694.3 780.752   7
   3  -2   6 14167.4 898.384   3
   3  -2   7 9592.48 718.888   7
   3  -2   7 9081.82 754.316   3
   3  -2   8 4550.30 585.115   3
   3  -2   8 5517.84 589.301   7
   3  -2   9-12.5857 216.958   3
   3  -2   9 743.678 277.913   7
   3  -2  10 852.784 287.001   3
   3  -2  10 1166.57 336.976   7
   3  -2  11-17.7788 220.666   3
   3  -2  11 530.397 318.531   7
   3  -2  12 2772.67 608.224   3
   3  -2  12 2037.50 455.882   7
   3  -2  13 385.183 294.303   3
   3  -2  13 200.390 303.656   7
   3  -2  14 1112.84 434.116   3
   3  -2  14 1585.79 488.694   7
   3  -1 -16 363.307 398.008  10
   3  -1 -15 861.529 378.063  10
   3  -1 -14 400.594 314.115  10
   3  -1 -13 592.736 360.066  10
   3  -1 -12 4671.85 671.105  10
   3  -1 -11 641.613 291.187  10
   3  -1 -11 174.203 125.722   4
   3  -1 -10 3124.32 508.830  10
   3  -1 -10 3620.09 371.855   4
   3  -1  -9 781.227 267.747  10
   3  -1  -9 1128.17 210.237   4
   3  -1  -9 810.911 121.689   2
   3  -1  -8 4296.85 494.291  10
   3  -1  -8 4165.48 332.362   4
   3  -1  -7 17256.8 608.408   4
   3  -1  -7 16803.5 891.747  10
   3  -1  -6-114.867 175.667  10
   3  -1  -6 100.141 78.7877   4
   3  -1  -5 4313.34 406.164  10
   3  -1  -4 3349.10 344.067  10
   3  -1  -3 6269.46 437.069  10
   3  -1  -2 9498.34 431.985   5
   3  -1  -2 8772.29 493.891  10
   3  -1  -1 219.926 139.146  10
   3  -1  -1 362.166 104.630   5
   3  -1   0 34040.2 956.137  10
   3  -1   1 2244.87 274.449   7
   3  -1   1 2234.08 265.362   3
   3  -1   2 10154.5 575.080   7
   3  -1   2 8619.44 207.079   1
   3  -1   2 10766.0 606.514   3
   3  -1   3 245.904 180.050   7
   3  -1   3 184.304 156.390   3
   3  -1   4 4957.34 457.724   7
   3  -1   4 4852.10 466.123   3
   3  -1   5 4666.15 470.126   7
   3  -1   5 3990.22 472.176   3
   3  -1   6 2340.72 398.412   3
   3  -1   6 2114.25 371.233   7
   3  -1   7 2409.53 437.073   3
   3  -1   7 2038.16 400.515   7
   3  -1   8 480.265 247.758   3
   3  -1   8 683.185 274.454   7
   3  -1   9 651.442 308.681   3
   3  -1   9 969.326 389.083   7
   3  -1  10 1718.28 466.117   3
   3  -1  10 1448.82 399.016   7
   3  -1  11-60.8271 268.946   7
   3  -1  11-85.1243 214.625   3
   3  -1  12 909.429 472.134   7
   3  -1  12 560.155 318.184   3
   3  -1  13-87.1178 251.594   7
   3  -1  13-128.039 225.458   3
   3  -1  14-9.12367 261.525   7
   3  -1  14 275.526 291.040   3
   3   0 -17 96.0029 248.474  10
   3   0 -16 594.625 352.763  10
   3   0 -15 252.697 344.840  10
   3   0 -14 726.954 369.137  10
   3   0 -13 2680.32 537.395  10
   3   0 -12 1961.83 443.974  10
   3   0 -11 2346.60 470.341  10
   3   0 -10 3235.11 497.251  10
   3   0 -10 3284.90 310.304   4
   3   0 -10 3461.80 304.302   2
   3   0  -9 786.045 281.747  10
   3   0  -9 279.572 119.441   4
   3   0  -9 245.612 102.803   2
   3   0  -8 13265.9 460.048   4
   3   0  -8 13588.2 826.994  10
   3   0  -7 874.440 241.453  10
   3   0  -7 684.418 97.1347   4
   3   0  -6 10089.0 276.872   4
   3   0  -6 10879.2 635.864  10
   3   0  -5 1122.13 220.184  10
   3   0  -5 565.481 68.5394   4
   3   0  -5 943.910 80.2297   4
   3   0  -4 170.518 124.868  10
   3   0  -4 294.995 67.0325   4
   3   0  -3 520.099 153.146  10
   3   0  -3 741.324 103.432   4
   3   0  -2 5667.75 374.721  10
   3   0  -1 78.3383 102.877  10
   3   0  -1 118.448 60.4193   5
   3   0   0 18648.7 715.437   7
   3   0   0 16141.6 521.259   1
   3   0   1 296.369 85.6244   1
   3   0   1 185.075 135.673   7
   3   0   2 3731.44 194.748   1
   3   0   2 4275.15 411.110   7
   3   0   3 123.147 156.566   7
   3   0   3-46.9953 137.989   3
   3   0   4 68.0121 147.409   7
   3   0   4-168.362 190.986   3
   3   0   5-96.6173 198.662   7
   3   0   5 143.877 169.037   3
   3   0   6 598.494 282.318   7
   3   0   6 660.944 243.000   3
   3   0   7 783.367 340.410   7
   3   0   7 1017.83 300.274   3
   3   0   8 8048.44 797.275   7
   3   0   8 7992.96 771.550   3
   3   0   9 665.254 342.340   7
   3   0   9-207.459 208.968   3
   3   0  10 2539.99 536.978   7
   3   0  10 2270.20 492.494   3
   3   0  11 299.961 284.820   7
   3   0  11-237.397 309.704   3
   3   0  12 411.496 301.563   7
   3   0  12 1123.49 389.541   3
   3   0  13 844.146 347.680   3
   3   0  13 1083.10 414.170   7
   3   0  14 415.372 361.154   7
   3   1 -17 346.868 290.349  10
   3   1 -16 271.188 274.081  10
   3   1 -15 3.39551 230.812  10
   3   1 -14 273.205 233.959  10
   3   1 -13 143.575 204.651  10
   3   1 -12 555.346 253.606  10
   3   1 -11 86.1861 177.434  10
   3   1 -11 90.3994 121.278   2
   3   1 -10 358.499 214.103  10
   3   1 -10 106.913 130.220   2
   3   1  -9 71.3318 156.984  10
   3   1  -8 1855.25 325.691  10
   3   1  -7 568.383 182.556  10
   3   1  -6 2284.76 306.563  10
   3   1  -5 2606.35 307.226  10
   3   1  -4 4062.76 179.713   4
   3   1  -4 5087.25 378.261  10
   3   1  -3 6900.53 302.443   4
   3   1  -3 6626.29 470.427   1
   3   1  -3 7133.16 417.027  10
   3   1  -2 4852.37 357.453  10
   3   1  -2 4400.41 364.574   1
   3   1  -1 5247.10 387.994   7
   3   1  -1 5343.28 359.211   1
   3   1   0 14371.6 681.878   7
   3   1   0 13573.1 544.110   1
   3   1   1 4187.25 287.328   1
   3   1   1 4919.21 448.113   7
   3   1   2 1991.42 192.080   1
   3   1   2 2472.91 345.743   7
   3   1   3 77.0280 81.6924   8
   3   1   3 114.043 142.784   7
   3   1   4 1042.86 150.148   8
   3   1   4 1270.15 283.362   7
   3   1   5 3.63044 62.3527   8
   3   1   5-7.50418 182.884   7
   3   1   6 321.987 229.174   7
   3   1   7 3288.17 538.868   7
   3   1   8 67.8380 236.646   7
   3   1   9 3812.50 655.767   7
   3   1  10 390.486 341.307   7
   3   1  11 972.966 420.582   7
   3   1  12 452.430 352.854   7
   3   1  13-13.9880 319.715   7
   3   2 -16-147.280 219.893  10
   3   2 -15 350.714 296.092  10
   3   2 -15 915.486 365.258   1
   3   2 -14 637.242 284.747  10
   3   2 -14 920.856 362.831   1
   3   2 -13 320.248 232.212  10
   3   2 -13 386.796 269.362   1
   3   2 -12 3411.35 510.182  10
   3   2 -12 4750.75 606.446   1
   3   2 -11 315.882 214.809  10
   3   2 -11 297.113 176.991   2
   3   2 -10 6471.11 595.414  10
   3   2  -9 392.160 165.153  10
   3   2  -8 10350.1 763.000   1
   3   2  -8 8504.68 574.601  10
   3   2  -7 276.493 156.245  10
   3   2  -7 64.3004 213.760   1
   3   2  -6 8814.93 647.682   1
   3   2  -6 9016.09 522.994  10
   3   2  -5 4814.86 470.894   1
   3   2  -5 4262.81 335.028  10
   3   2  -4 8667.04 444.408  10
   3   2  -4 8564.98 581.151   1
   3   2  -3 18557.2 690.800   7
   3   2  -3 18150.1 802.116   1
   3   2  -3 19084.2 659.934  10
   3   2  -2 492.175 157.701   1
   3   2  -2 459.614 152.143   7
   3   2  -1 14163.2 656.098   1
   3   2  -1 15461.3 714.601   7
   3   2   0 3452.79 323.104   1
   3   2   0 4456.15 410.687   7
   3   2   1 10208.4 316.877   5
   3   2   1 13384.9 604.484   8
   3   2   1 13361.8 594.172   1
   3   2   1 13550.2 767.673   7
   3   2   2 9829.91 513.638   8
   3   2   2 10040.7 512.016   1
   3   2   2 9836.52 697.193   7
   3   2   3 6002.74 402.511   8
   3   2   3 5266.57 553.718   7
   3   2   4 1469.48 215.476   8
   3   2   4 1424.03 353.826   7
   3   2   5 3411.52 301.034   8
   3   2   5 3447.41 520.126   7
   3   2   6 2065.02 450.129   7
   3   2   7 139.883 220.663   7
   3   2   8 3347.93 620.074   7
   3   2   9 966.924 387.821   7
   3   2  10 1961.47 564.922   7
   3   2  11-39.6576 268.815   7
   3   2  12 128.310 380.546   7
   3   3 -16 2708.92 573.466   1
   3   3 -15 605.354 288.723   1
   3   3 -14 588.794 277.215  10
   3   3 -14 1151.19 405.867   1
   3   3 -13 1364.64 342.452  10
   3   3 -13 2644.55 506.575   1
   3   3 -12 128.446 149.625  10
   3   3 -12 176.866 215.905   1
   3   3 -11 5700.68 629.454   1
   3   3 -11 5127.00 519.113  10
   3   3 -10 391.384 242.338   1
   3   3 -10 221.643 161.730  10
   3   3  -9 1172.44 249.937  10
   3   3  -9 1414.75 339.206   1
   3   3  -8 2197.67 295.632  10
   3   3  -8 2912.56 451.567   1
   3   3  -7 184.882 127.443  10
   3   3  -7 439.644 225.893   1
   3   3  -6 375.612 118.851  10
   3   3  -6 454.386 192.008   1
   3   3  -5 3250.46 302.009   7
   3   3  -5 3366.96 428.735   1
   3   3  -5 3378.15 280.272  10
   3   3  -4 9868.38 515.583   7
   3   3  -4 9222.11 644.082   1
   3   3  -3 1147.97 259.571   1
   3   3  -3 1007.90 197.235   7
   3   3  -2 1136.51 221.049   7
   3   3  -2 958.317 223.853   1
   3   3  -1 1721.30 278.603   1
   3   3  -1 2166.22 302.384   7
   3   3   0 296.582 140.399   1
   3   3   0 596.086 191.042   8
   3   3   0 303.777 191.489   7
   3   3   1 8153.65 556.462   8
   3   3   1 9713.90 577.525   1
   3   3   1 8025.26 624.783   7
   3   3   2-7.60270 105.814   8
   3   3   2 115.920 138.188   1
   3   3   2 184.053 175.773   7
   3   3   3-38.2512 104.842   8
   3   3   3 13.4296 228.772   7
   3   3   4 336.406 147.334   8
   3   3   4 273.367 264.498   7
   3   3   5 622.117 174.108   8
   3   3   5 1255.30 394.836   7
   3   3   6 651.319 324.089   7
   3   3   7 220.736 222.873   7
   3   3   8-317.119 251.952   7
   3   3   9-151.268 249.884   7
   3   3  10-73.2099 320.553   7
   3   3  11 975.032 531.332   7
   3   4 -16 474.856 329.371   1
   3   4 -15 1089.35 405.815   1
   3   4 -14 681.058 303.075   1
   3   4 -13-0.51857 199.726   1
   3   4 -12 1819.48 431.543   1
   3   4 -11 713.853 297.187   1
   3   4 -10 5.39011 121.735  10
   3   4 -10 211.732 225.397   1
   3   4  -9 78.3243 141.849  10
   3   4  -9 336.216 243.023   1
   3   4  -8 121.244 105.615  10
   3   4  -8-89.0710 211.268   1
   3   4  -7 173.677 103.637  10
   3   4  -7-54.2562 181.617   1
   3   4  -7-41.7660 83.0741   7
   3   4  -6 1122.98 154.059  10
   3   4  -6 856.163 270.197   1
   3   4  -6 932.235 168.362   7
   3   4  -5 1405.79 328.794   1
   3   4  -5 1510.72 218.428   7
   3   4  -4 2282.19 276.176   7
   3   4  -4 2780.80 394.263   1
   3   4  -3 220.224 231.803   1
   3   4  -3-6.09528 114.353   7
   3   4  -2 1201.41 261.982   1
   3   4  -2 1283.97 243.893   7
   3   4  -1 2721.89 359.506   1
   3   4  -1 2814.66 400.126   8
   3   4  -1 2751.89 357.460   7
   3   4   0 545.674 222.777   8
   3   4   0 150.658 164.476   1
   3   4   0-1.68124 166.488   7
   3   4   1 779.230 239.463   8
   3   4   1 1275.59 314.945   7
   3   4   1 768.373 210.498   1
   3   4   2 1321.48 282.050   8
   3   4   2 1456.43 363.036   7
   3   4   3 71.3876 127.986   8
   3   4   3 507.258 284.057   7
   3   4   4 8475.58 611.125   8
   3   4   4 9551.73 885.201   7
   3   4   5 277.936 317.558   7
   3   4   6 3924.94 665.029   7
   3   4   7 449.395 372.460   7
   3   4   8 1155.42 480.411   7
   3   4   9 1613.11 597.224   7
   3   4  10 851.937 458.478   7
   3   5 -16 58.5956 219.590   1
   3   5 -15 68.2108 201.740   1
   3   5 -14 562.907 307.712   1
   3   5 -13 1005.95 359.482   1
   3   5 -12 1031.09 341.131   1
   3   5 -11 2399.69 466.613   1
   3   5 -10 528.472 293.087   1
   3   5  -9 8522.37 809.104   1
   3   5  -8 3177.87 488.018   1
   3   5  -7 3312.61 515.664   1
   3   5  -6 474.187 146.004   7
   3   5  -6 598.297 261.190   1
   3   5  -5 354.247 136.832   7
   3   5  -5 345.262 256.087   1
   3   5  -4 957.168 294.206   1
   3   5  -4 1413.02 240.046   7
   3   5  -3 27.1389 148.746   1
   3   5  -3 77.5462 141.061   7
   3   5  -2 1267.44 282.914   1
   3   5  -2 1648.31 349.489   8
   3   5  -2 1645.66 300.627   7
   3   5  -1 1109.61 272.950   1
   3   5  -1 1247.88 306.070   8
   3   5  -1 1428.14 307.156   7
   3   5   0 4703.23 525.723   8
   3   5   0 4149.74 499.667   1
   3   5   0 4258.99 516.345   7
   3   5   1 762.804 270.383   8
   3   5   1 317.701 159.221   1
   3   5   1 793.831 282.642   7
   3   5   2 1314.01 285.530   8
   3   5   2 995.322 340.444   7
   3   5   3 5015.16 536.665   8
   3   5   3 5392.53 692.914   7
   3   5   4 280.647 182.891   8
   3   5   4 851.075 316.493   7
   3   5   5 1644.49 471.671   7
   3   5   6 328.458 357.606   7
   3   5   7 680.867 410.220   7
   3   5   8 1016.05 458.508   7
   3   5   9-59.8072 301.751   7
   3   6 -16 886.544 376.721   1
   3   6 -15 69.6039 215.914   1
   3   6 -14 1323.45 440.563   1
   3   6 -13 209.868 259.735   1
   3   6 -12 4176.92 642.189   1
   3   6 -11 989.131 359.274   1
   3   6 -10 2985.76 531.130   1
   3   6  -9 6415.75 734.058   1
   3   6  -8 2981.01 500.921   1
   3   6  -7 9904.03 858.720   1
   3   6  -6 1391.07 356.232   1
   3   6  -5 7413.70 719.809   1
   3   6  -5 6635.57 475.786   7
   3   6  -4 473.271 223.646   1
   3   6  -4 622.003 181.387   7
   3   6  -3 3703.70 513.575   1
   3   6  -3 3487.98 523.959   8
   3   6  -3 4054.95 448.981   7
   3   6  -2-164.708 193.997   1
   3   6  -2 353.234 257.812   8
   3   6  -2 80.4309 161.221   7
   3   6  -1 7163.42 713.687   8
   3   6  -1 7212.56 692.525   1
   3   6  -1 7928.85 714.185   7
   3   6   0 28.4784 153.432   8
   3   6   0 230.963 198.481   7
   3   6   0 208.914 199.888   1
   3   6   1 2876.50 443.994   1
   3   6   1 1588.68 350.898   8
   3   6   1 2419.55 475.743   7
   3   6   2 1743.30 359.925   8
   3   6   2 1617.19 450.057   7
   3   6   3-161.332 217.348   8
   3   6   3-122.762 278.416   7
   3   6   4 1494.45 480.140   7
   3   6   5 446.328 332.067   7
   3   6   6 121.705 283.088   7
   3   6   7 200.539 331.097   7
   3   6   8 521.047 417.036   7
   3   7 -16 131.721 286.503   1
   3   7 -15 82.0633 269.020   1
   3   7 -14 583.364 330.558   1
   3   7 -13 1205.47 390.463   1
   3   7 -12 471.814 302.325   1
   3   7 -11 281.400 274.363   1
   3   7 -10 1521.88 418.553   1
   3   7  -9 149.043 196.821   1
   3   7  -8 2055.54 469.756   1
   3   7  -7 473.518 301.736   1
   3   7  -6 233.404 221.520   1
   3   7  -5 965.488 311.276   1
   3   7  -4 341.320 230.021   1
   3   7  -3 593.314 276.647   1
   3   7  -3 98.0451 239.882   8
   3   7  -3 86.2073 168.737   7
   3   7  -2 127.436 191.046   1
   3   7  -2 246.596 217.645   8
   3   7  -2 59.2335 185.093   7
   3   7  -1 662.163 278.309   8
   3   7  -1 1087.66 301.242   7
   3   7  -1 696.087 283.480   1
   3   7   0 605.168 302.610   8
   3   7   0 128.596 221.173   1
   3   7   1 181.495 162.140   8
   3   7   1 457.570 267.207   7
   3   7   2 726.503 302.118   8
   3   7   2 477.973 325.626   7
   3   7   3 241.237 244.148   8
   3   7   3 46.0272 239.165   7
   3   7   4 1029.13 411.271   7
   3   7   5 408.276 342.068   7
   3   7   6 1019.52 475.260   7
   3   8 -15-309.945 272.469   1
   3   8 -14 729.502 346.759   1
   3   8 -13 1078.54 424.453   1
   3   8 -12 397.812 313.310   1
   3   8 -11 589.843 337.231   1
   3   8 -10 220.630 199.837   1
   3   8  -9-107.274 218.111   1
   3   8  -8 592.335 309.489   1
   3   8  -7 223.427 234.785   1
   3   8  -6 700.375 304.474   1
   3   8  -5 3539.62 586.628   1
   3   8  -4-85.7552 175.377   1
   3   8  -3 641.645 367.228   8
   3   8  -3 784.395 297.960   1
   3   8  -2 1450.47 431.673   8
   3   8  -2 1628.46 417.238   1
   3   8  -1 473.515 269.074   8
   3   8  -1 198.438 232.469   1
   3   8  -1 376.804 271.733   7
   3   8   0 4321.30 650.663   8
   3   8   0 4503.63 662.299   7
   3   8   1-43.5197 201.891   8
   3   8   1-137.740 252.357   7
   3   8   2 1541.70 401.813   8
   3   8   2 1715.83 436.249   7
   3   8   3-292.728 267.383   7
   3   8   4 302.480 324.555   7
   3   8   5 707.418 385.191   7
   3   9 -13 133.382 232.131   1
   3   9 -12 213.080 210.475   1
   3   9 -11 581.736 303.425   1
   3   9 -10-326.368 280.800   1
   3   9  -9 301.374 233.988   1
   3   9  -8 461.502 315.350   1
   3   9  -7 59.9701 267.667   1
   3   9  -6 3351.18 608.069   1
   3   9  -5 62.0099 209.040   1
   3   9  -4 1424.37 435.693   1
   3   9  -3 249.923 233.748   1
   3   9  -2 304.916 272.570   8
   3   9  -2 98.4354 265.886   1
   3   9  -1 1260.79 434.496   8
   3   9   0 223.432 265.080   8
   3   9   1 422.285 297.579   8
   3   9   1 268.187 245.340   7
   3   9   2 138.470 270.436   8
   3   9   2 225.967 345.371   7
   3   9   3-354.037 335.211   7
   3  10 -11 690.737 355.912   1
   3  10 -10 212.409 255.664   1
   3  10  -9 377.648 313.468   1
   3  10  -8 265.577 307.775   1
   3  10  -7 2695.16 590.963   1
   3  10  -6 1056.39 431.917   1
   3  10  -5 2498.45 572.802   1
   3  10  -4 409.655 337.211   1
   3  10  -3 844.134 381.988   1
   3  10  -2 1367.00 478.502   8
   3  10  -1 543.034 339.445   8
   3  10   0 335.672 255.392   8
   3  10   1 419.334 332.541   8
   4 -14   4 238.030 280.378   5
   4 -14   5-230.246 245.322   5
   4 -14   6 23.8197 253.722   5
   4 -13  -1 1419.41 419.292   5
   4 -13  -1 749.986 437.430   4
   4 -13   0 639.520 353.592   5
   4 -13   0 137.362 319.458   4
   4 -13   1 2157.11 498.456   5
   4 -13   1 2813.34 610.791   4
   4 -13   2 339.488 280.945   5
   4 -13   3 650.596 270.471   5
   4 -13   4-298.318 285.442   5
   4 -13   5 521.724 299.666   5
   4 -13   6 633.020 344.870   5
   4 -13   7 1439.32 512.394   5
   4 -13   8 802.990 431.161   5
   4 -13   9 569.843 431.616   3
   4 -12  -4 398.143 345.616   4
   4 -12  -3 475.334 366.533   4
   4 -12  -2 1566.86 459.764   5
   4 -12  -2 1223.73 473.525   4
   4 -12  -1 417.355 300.288   5
   4 -12  -1-23.9764 292.686   4
   4 -12   0 3727.89 648.708   5
   4 -12   1-194.376 220.921   5
   4 -12   2 598.555 313.371   5
   4 -12   3 505.620 358.047   5
   4 -12   4 626.460 335.494   5
   4 -12   5 996.575 412.656   5
   4 -12   6 1607.88 429.773   3
   4 -12   6 1233.51 488.450   5
   4 -12   7 1511.99 472.827   3
   4 -12   8 867.377 423.334   3
   4 -12   9 1747.68 542.783   3
   4 -12  10 480.538 405.586   3
   4 -12  11 752.318 432.202   3
   4 -11  -6 2092.74 593.378   4
   4 -11  -5-8.19800 252.756   4
   4 -11  -4 724.739 375.066   4
   4 -11  -3-180.396 310.993   4
   4 -11  -2 109.804 249.654   5
   4 -11  -2 104.630 305.697   4
   4 -11  -1 1258.42 446.269   5
   4 -11   0 295.272 240.323   5
   4 -11   1 98.5507 232.674   5
   4 -11   2 429.307 329.345   5
   4 -11   3 226.969 234.024   5
   4 -11   4 169.806 250.124   3
   4 -11   4 131.861 208.325   5
   4 -11   5 44.5231 215.510   3
   4 -11   5 358.205 311.734   5
   4 -11   6 28.2995 236.443   3
   4 -11   7 685.029 335.799   3
   4 -11   8 1272.42 443.818   3
   4 -11   9 1177.05 459.224   3
   4 -11  10 989.575 472.215   3
   4 -11  11 246.983 363.989   3
   4 -10  -9 445.033 365.385  10
   4 -10  -8 296.608 363.334  10
   4 -10  -8 179.457 311.961   4
   4 -10  -7 265.646 248.404  10
   4 -10  -7 172.824 271.399   4
   4 -10  -6 296.027 254.822  10
   4 -10  -6 99.2539 252.343   4
   4 -10  -5 600.693 316.728  10
   4 -10  -5 75.1035 245.065   4
   4 -10  -4 42.7334 259.665  10
   4 -10  -4 30.1658 302.032   4
   4 -10  -3 1041.26 337.871  10
   4 -10  -3 1018.69 354.563   5
   4 -10  -3 938.099 364.788   4
   4 -10  -2 374.766 331.294   5
   4 -10  -2 542.020 293.518  10
   4 -10  -1 1504.56 335.033  10
   4 -10  -1 1884.73 430.980   5
   4 -10   0 89.8410 192.483  10
   4 -10   0 778.221 317.280   5
   4 -10   1 677.238 333.195   5
   4 -10   2 3384.93 549.827   5
   4 -10   3 1396.43 341.899   3
   4 -10   3 2114.61 469.940   5
   4 -10   4 951.341 323.108   3
   4 -10   4 1308.19 417.029   5
   4 -10   5 197.030 214.644   3
   4 -10   6 793.301 321.669   3
   4 -10   7 1132.07 395.960   3
   4 -10   8 717.253 357.588   3
   4 -10   9 1185.48 459.707   3
   4 -10  10 91.6117 402.184   3
   4 -10  11 487.828 281.286   3
   4 -10  12 1222.63 519.106   3
   4  -9 -10 1413.55 456.768   4
   4  -9 -10 671.710 429.702  10
   4  -9  -9 210.475 288.049  10
   4  -9  -9-785.408 342.571   4
   4  -9  -8 1600.37 485.051   4
   4  -9  -8 1782.76 527.336  10
   4  -9  -7 504.170 356.019   4
   4  -9  -7 343.455 331.964  10
   4  -9  -6 114.510 231.750  10
   4  -9  -6 199.446 260.337   4
   4  -9  -5 4713.22 642.442  10
   4  -9  -5 3911.39 607.993   4
   4  -9  -4 1419.45 380.823  10
   4  -9  -4 1216.57 399.535   4
   4  -9  -3 6378.84 730.702   5
   4  -9  -3 6021.55 654.083  10
   4  -9  -2 3503.21 500.256  10
   4  -9  -2 3163.22 516.410   5
   4  -9  -1 2733.48 422.687  10
   4  -9  -1 3389.49 539.801   5
   4  -9   0-43.9275 170.080  10
   4  -9   0 45.4961 239.801   5
   4  -9   1 10595.0 908.825   5
   4  -9   1 8884.71 644.643  10
   4  -9   1 8641.21 603.982   3
   4  -9   2 3896.63 566.558   5
   4  -9   2 4477.87 450.066  10
   4  -9   2 3921.04 451.027   3
   4  -9   3 8076.62 819.913   5
   4  -9   3 7314.45 641.857   3
   4  -9   3 8109.58 583.269  10
   4  -9   4 1541.21 346.555   3
   4  -9   5 1341.51 408.784   3
   4  -9   6 1413.54 404.848   3
   4  -9   7 877.799 399.669   3
   4  -9   8 2449.88 524.605   3
   4  -9   9 72.9212 291.117   3
   4  -9  10 1729.81 518.956   3
   4  -9  11 772.993 395.206   3
   4  -9  12 419.108 456.380   3
   4  -9  13-113.820 311.644   3
   4  -8 -12-177.534 325.340   4
   4  -8 -11 1064.51 420.533   4
   4  -8 -11 2253.32 622.690  10
   4  -8 -10 477.878 352.207  10
   4  -8 -10-42.0335 270.793   4
   4  -8  -9 1085.59 396.292   4
   4  -8  -9 1412.08 506.217  10
   4  -8  -8 667.954 328.263  10
   4  -8  -8 467.115 271.711   4
   4  -8  -7 362.652 297.529  10
   4  -8  -7-178.482 297.595   4
   4  -8  -6 2174.98 486.604  10
   4  -8  -6 1806.62 413.350   4
   4  -8  -5 436.444 292.027  10
   4  -8  -5 128.179 200.810   4
   4  -8  -4 2149.18 412.077  10
   4  -8  -4 2754.89 503.018   5
   4  -8  -3 296.563 223.669   5
   4  -8  -3 782.209 281.770  10
   4  -8  -2 448.191 260.037   5
   4  -8  -2 454.901 265.564  10
   4  -8  -1 254.068 235.308  10
   4  -8  -1 151.293 173.684   5
   4  -8   0 676.226 263.092  10
   4  -8   0 569.580 185.823   3
   4  -8   0 462.392 229.326   5
   4  -8   1 6128.41 661.945   5
   4  -8   1 5141.03 457.541   3
   4  -8   1 6092.21 519.511  10
   4  -8   2 2548.36 342.197  10
   4  -8   2 2800.61 386.504   3
   4  -8   2 2470.84 463.590   5
   4  -8   3 9518.08 731.859   3
   4  -8   3 10516.1 664.733  10
   4  -8   4 547.874 281.573   3
   4  -8   5 1138.92 352.288   3
   4  -8   6 2842.60 500.608   3
   4  -8   7 940.342 365.925   3
   4  -8   8 830.362 354.376   3
   4  -8   9 727.628 358.670   3
   4  -8  10 1305.39 419.213   3
   4  -8  11 715.339 398.284   3
   4  -8  12 486.204 405.489   3
   4  -8  13 661.030 409.676   3
   4  -7 -12 1086.74 527.298  10
   4  -7 -12 70.2039 255.059   4
   4  -7 -11 261.616 310.763  10
   4  -7 -11-332.614 325.200   4
   4  -7 -10 2780.44 599.771  10
   4  -7 -10 3002.43 566.718   4
   4  -7  -9 333.932 298.294  10
   4  -7  -9-284.495 216.656   4
   4  -7  -8 317.701 320.262  10
   4  -7  -8 253.863 244.195   4
   4  -7  -7 562.955 333.049  10
   4  -7  -7 512.458 276.304   4
   4  -7  -6 719.021 323.267  10
   4  -7  -6 466.362 262.319   4
   4  -7  -5 617.298 275.880  10
   4  -7  -5 577.240 241.237   4
   4  -7  -4-13.3560 169.571  10
   4  -7  -4 65.9242 183.591   5
   4  -7  -3 412.813 232.175  10
   4  -7  -3 835.520 333.359   5
   4  -7  -2 3061.59 442.052  10
   4  -7  -2 2750.98 430.701   5
   4  -7  -2 1651.25 129.668   3
   4  -7  -1 1646.65 190.327   3
   4  -7  -1 1773.30 327.277  10
   4  -7  -1 1708.59 371.297   5
   4  -7   0 1766.33 325.677  10
   4  -7   0 961.842 203.622   3
   4  -7   0 1430.63 322.646   5
   4  -7   1 207.901 172.833  10
   4  -7   1 240.140 187.353   3
   4  -7   1 239.996 198.255   5
   4  -7   2 1040.76 242.125  10
   4  -7   2 581.586 227.743   3
   4  -7   3 140.175 200.731  10
   4  -7   3 158.148 210.606   3
   4  -7   4 6925.38 646.901   3
   4  -7   5 1646.16 371.150   3
   4  -7   5 1363.57 246.114   7
   4  -7   6 7125.49 481.534   7
   4  -7   6 6832.62 701.673   3
   4  -7   7 632.151 323.757   3
   4  -7   7 621.843 183.034   7
   4  -7   8 3766.68 624.843   3
   4  -7   9 4323.08 661.502   3
   4  -7  10 2952.52 597.116   3
   4  -7  11 3022.76 650.568   3
   4  -7  12 408.056 411.262   3
   4  -7  13 446.037 424.386   3
   4  -6 -13 1349.22 526.042  10
   4  -6 -12 954.646 476.791  10
   4  -6 -12 608.607 317.318   4
   4  -6 -11 186.214 276.227  10
   4  -6 -11 532.512 327.434   4
   4  -6 -10 447.908 296.569  10
   4  -6 -10 228.197 226.873   4
   4  -6  -9-117.322 224.091  10
   4  -6  -9 434.178 243.040   4
   4  -6  -8 1049.40 385.976  10
   4  -6  -8 688.295 262.301   4
   4  -6  -7 2027.85 428.964  10
   4  -6  -7 1729.56 374.731   4
   4  -6  -6 336.733 239.159  10
   4  -6  -6 267.001 185.366   4
   4  -6  -5 1218.47 343.456  10
   4  -6  -4 2201.03 384.546  10
   4  -6  -4 1618.90 355.519   5
   4  -6  -3 8236.44 723.473   5
   4  -6  -3 8643.76 685.907  10
   4  -6  -2 2149.22 367.627  10
   4  -6  -2 2066.92 353.966   5
   4  -6  -1 5726.71 558.214   5
   4  -6  -1 6435.03 349.716   3
   4  -6  -1 7249.71 583.923  10
   4  -6   0 2191.43 309.875  10
   4  -6   0 1293.96 287.031   5
   4  -6   0 1416.46 206.686   3
   4  -6   0 1350.61 147.084   6
   4  -6   1 1974.03 299.409   3
   4  -6   1 1613.08 277.139  10
   4  -6   1 2064.28 368.572   5
   4  -6   2 232.050 194.005   3
   4  -6   2 248.952 185.901  10
   4  -6   3 5114.74 477.251  10
   4  -6   3 6473.09 561.100   3
   4  -6   4 435.500 252.274   3
   4  -6   5 10443.2 605.378   7
   4  -6   5 10683.2 826.538   3
   4  -6   6 263.340 270.500   3
   4  -6   6 256.692 137.991   7
   4  -6   7 5513.24 465.406   7
   4  -6   7 5988.88 687.484   3
   4  -6   8 3059.54 557.674   3
   4  -6   8 1971.74 300.967   7
   4  -6   9 924.404 362.625   3
   4  -6  10 6505.72 814.672   3
   4  -6  11 249.260 279.490   3
   4  -6  12 188.276 305.924   3
   4  -6  13-7.27582 249.346   3
   4  -6  14-440.678 373.776   3
   4  -5 -14 1360.75 572.002  10
   4  -5 -13 393.491 369.655  10
   4  -5 -12 856.554 407.919  10
   4  -5 -11 138.307 261.606  10
   4  -5 -11 132.682 202.460   4
   4  -5 -10 237.942 258.561  10
   4  -5 -10-186.260 214.964   4
   4  -5  -9 4641.29 649.928  10
   4  -5  -9 4338.88 554.514   4
   4  -5  -8 3433.90 546.617  10
   4  -5  -8 3534.40 481.105   4
   4  -5  -7 6385.50 599.140   4
   4  -5  -7 7082.40 706.500  10
   4  -5  -6 3991.48 474.483   4
   4  -5  -6 4889.17 588.423  10
   4  -5  -5 11630.8 825.293  10
   4  -5  -4 2357.90 398.989  10
   4  -5  -4 2382.08 380.809   5
   4  -5  -3 23939.0 1105.62   5
   4  -5  -3 24455.0 1088.90  10
   4  -5  -2 11036.9 733.536   5
   4  -5  -2 12296.6 757.658  10
   4  -5  -1 11622.8 737.551   5
   4  -5  -1 11616.5 480.350   3
   4  -5  -1 12849.8 740.462  10
   4  -5   0 180.864 121.743   3
   4  -5   0-38.5193 71.5359   6
   4  -5   0-11.1316 133.694  10
   4  -5   0 92.3093 138.081   5
   4  -5   1 2876.77 317.131   3
   4  -5   1 3238.42 367.556  10
   4  -5   2 6924.27 522.475   3
   4  -5   2 7020.92 539.440  10
   4  -5   3 1397.79 278.970   3
   4  -5   4 5492.29 455.877   7
   4  -5   4 5147.28 539.352   3
   4  -5   5 4211.57 415.974   7
   4  -5   5 4126.36 534.560   3
   4  -5   6 6831.92 540.663   7
   4  -5   6 6825.32 684.213   3
   4  -5   7 349.785 269.868   3
   4  -5   7 253.672 142.313   7
   4  -5   8 1250.09 390.073   3
   4  -5   8 602.462 210.484   7
   4  -5   9 727.649 315.105   3
   4  -5   9 992.272 267.397   7
   4  -5  10 253.901 260.237   3
   4  -5  10 259.919 165.987   7
   4  -5  11-115.101 214.399   3
   4  -5  12 806.444 428.011   3
   4  -5  13 334.304 297.877   3
   4  -5  14-64.1514 309.944   3
   4  -4 -14 175.405 267.013  10
   4  -4 -13 872.645 455.940  10
   4  -4 -12 411.493 297.991  10
   4  -4 -11 231.546 242.818  10
   4  -4 -11-40.9812 159.990   4
   4  -4 -10 1088.08 326.607  10
   4  -4 -10 1097.09 277.517   4
   4  -4  -9-210.264 242.249  10
   4  -4  -9 237.694 173.032   4
   4  -4  -8 1248.39 335.245  10
   4  -4  -8 1762.01 330.717   4
   4  -4  -7 2689.19 445.308  10
   4  -4  -7 2581.72 369.014   4
   4  -4  -6 2768.25 445.918  10
   4  -4  -5 6130.50 597.746  10
   4  -4  -4 743.373 236.938   5
   4  -4  -4 634.660 226.816  10
   4  -4  -3 27833.9 1111.13  10
   4  -4  -3 27455.8 1094.32   5
   4  -4  -2 1275.97 289.538  10
   4  -4  -2 1004.82 232.004   5
   4  -4  -1 1783.50 286.091  10
   4  -4  -1 2522.76 327.563   5
   4  -4  -1 2110.93 217.116   3
   4  -4   0 443.235 189.380  10
   4  -4   0 197.443 120.788   5
   4  -4   0 262.631 137.955   3
   4  -4   1 57.1836 130.527   3
   4  -4   1 348.708 168.584  10
   4  -4   2 3155.15 355.306   3
   4  -4   2 3061.68 354.293  10
   4  -4   3 58.7886 148.290   3
   4  -4   3 364.930 190.379   7
   4  -4   4 260.859 198.193   3
   4  -4   4 312.739 187.443   7
   4  -4   5 1453.75 326.572   3
   4  -4   5 870.082 127.693   1
   4  -4   5 1444.75 267.132   7
   4  -4   6 1022.34 286.164   3
   4  -4   6 954.624 261.128   7
   4  -4   7 512.692 233.329   3
   4  -4   7 684.031 245.930   7
   4  -4   8 361.862 249.938   3
   4  -4   8 381.720 187.276   7
   4  -4   9 1228.42 371.278   3
   4  -4   9 630.131 280.284   7
   4  -4  10 854.004 354.202   3
   4  -4  10 945.660 328.577   7
   4  -4  11 38.8511 223.592   3
   4  -4  11 216.879 218.059   7
   4  -4  12 386.792 294.131   3
   4  -4  13 347.906 288.162   3
   4  -4  14 822.982 409.591   3
   4  -3 -15 5.65036 269.491  10
   4  -3 -14 763.304 413.367  10
   4  -3 -13 898.515 424.584  10
   4  -3 -12-58.2783 214.245  10
   4  -3 -11 448.043 336.830  10
   4  -3 -11 303.911 203.438   4
   4  -3 -10 538.598 313.484  10
   4  -3 -10-88.9762 158.096   4
   4  -3  -9 748.915 280.328  10
   4  -3  -9 657.683 209.585   4
   4  -3  -8 2564.89 461.039  10
   4  -3  -8 2684.20 339.284   4
   4  -3  -7 1528.99 360.677  10
   4  -3  -7 1503.87 254.320   4
   4  -3  -6 1516.01 360.152  10
   4  -3  -5 2260.95 359.368  10
   4  -3  -4 271.677 154.302   5
   4  -3  -4 295.660 178.650  10
   4  -3  -3 380.725 188.924  10
   4  -3  -3 449.115 155.981   5
   4  -3  -2 2967.04 372.650  10
   4  -3  -2 2926.98 331.677   5
   4  -3  -1 3465.75 347.532   5
   4  -3  -1 3692.04 386.655  10
   4  -3   0 35528.7 1080.33   5
   4  -3   0 34627.3 992.712   3
   4  -3   0 33248.3 1090.23  10
   4  -3   1 4978.76 446.097  10
   4  -3   1 5209.92 424.324   3
   4  -3   2 25144.9 977.142   3
   4  -3   3 2494.75 342.314   3
   4  -3   3 2236.32 153.775   1
   4  -3   3 2838.35 350.031   7
   4  -3   4 5768.02 505.548   7
   4  -3   4 6742.72 579.371   3
   4  -3   5 11488.2 728.328   7
   4  -3   5 12863.7 855.783   3
   4  -3   6 4851.91 518.372   7
   4  -3   6 5574.90 615.540   3
   4  -3   7 4117.62 557.571   3
   4  -3   7 3561.53 450.180   7
   4  -3   8 3808.64 565.784   3
   4  -3   8 3434.68 492.437   7
   4  -3   9 1405.99 394.603   3
   4  -3   9 1297.20 379.419   7
   4  -3  10 189.439 201.710   3
   4  -3  10 117.805 235.369   7
   4  -3  11 1902.02 513.377   3
   4  -3  11 1348.84 378.768   7
   4  -3  12-234.826 290.845   3
   4  -3  12 196.933 290.020   7
   4  -3  13 3710.57 688.260   7
   4  -3  13 3567.66 730.289   3
   4  -3  14 14.3120 302.254   3
   4  -2 -16 1124.33 488.937  10
   4  -2 -15 387.735 451.480  10
   4  -2 -14 314.064 275.357  10
   4  -2 -13 830.808 330.692  10
   4  -2 -12 1199.47 443.688  10
   4  -2 -11 2031.81 471.956  10
   4  -2 -10 195.360 198.520  10
   4  -2 -10 415.923 161.743   4
   4  -2  -9 161.722 203.724  10
   4  -2  -9 61.4586 108.347   4
   4  -2  -8 384.446 232.370  10
   4  -2  -8 1124.61 217.684   4
   4  -2  -7 3639.48 476.354  10
   4  -2  -7 3691.62 323.564   4
   4  -2  -6 3828.96 456.104  10
   4  -2  -5-49.4858 192.451  10
   4  -2  -4 7230.13 555.991  10
   4  -2  -3 881.334 236.408  10
   4  -2  -3 720.121 180.491   5
   4  -2  -2 468.440 165.719  10
   4  -2  -2 325.025 119.583   5
   4  -2  -1 8166.54 481.427   5
   4  -2  -1 8353.56 549.509  10
   4  -2   0 186.926 121.529  10
   4  -2   1 24342.2 928.400   3
   4  -2   2 9112.75 596.080   7
   4  -2   2 9015.00 616.671   3
   4  -2   3-35.2069 150.155   7
   4  -2   3 270.370 166.369   3
   4  -2   4 18402.2 909.759   7
   4  -2   4 18840.5 986.439   3
   4  -2   5 188.908 201.738   3
   4  -2   5 46.9197 174.642   7
   4  -2   6 10353.8 770.056   7
   4  -2   6 11774.4 872.049   3
   4  -2   7 667.593 275.325   3
   4  -2   7 981.610 302.802   7
   4  -2   8 962.442 339.832   3
   4  -2   8 929.230 312.118   7
   4  -2   9 614.548 291.886   3
   4  -2   9 71.9770 233.347   7
   4  -2  10 616.372 259.590   7
   4  -2  10 504.460 328.996   3
   4  -2  11 509.312 317.620   7
   4  -2  11 779.271 333.853   3
   4  -2  12 1516.14 478.037   7
   4  -2  12 2312.76 538.671   3
   4  -2  13 874.920 386.947   7
   4  -2  13 561.096 330.787   3
   4  -1 -16 395.258 345.189  10
   4  -1 -15-441.107 224.062  10
   4  -1 -14 2352.49 541.441  10
   4  -1 -13 2429.63 510.515  10
   4  -1 -12 6031.83 731.383  10
   4  -1 -11 5515.74 689.116  10
   4  -1 -10 1722.39 407.782  10
   4  -1  -9 2813.67 476.552  10
   4  -1  -9 3564.65 288.670   4
   4  -1  -8 139.184 167.550  10
   4  -1  -8 338.479 102.506   4
   4  -1  -7 4423.02 275.865   4
   4  -1  -7 4540.23 502.298  10
   4  -1  -6 2195.30 335.086  10
   4  -1  -5 3754.88 400.448  10
   4  -1  -4-110.507 152.913  10
   4  -1  -3 2202.71 303.635  10
   4  -1  -2 3571.97 297.362   5
   4  -1  -2 3950.47 373.586  10
   4  -1  -1 2708.76 314.933  10
   4  -1  -1 2740.01 248.255   5
   4  -1   0 17823.4 811.252  10
   4  -1   1 2690.92 341.219   7
   4  -1   1 2880.27 220.230   1
   4  -1   2 7898.51 278.204   1
   4  -1   2 8820.79 610.227   7
   4  -1   3 294.118 236.665   7
   4  -1   3 103.382 148.341   3
   4  -1   4 78.8497 179.212   7
   4  -1   4 64.3853 164.717   3
   4  -1   5 243.610 190.010   7
   4  -1   5-279.947 225.405   3
   4  -1   6 81.4668 181.957   7
   4  -1   6 24.5765 180.723   3
   4  -1   7 1688.66 418.629   7
   4  -1   7 1652.97 403.780   3
   4  -1   8 276.457 291.318   7
   4  -1   8 89.5213 187.412   3
   4  -1   9 1449.28 384.182   7
   4  -1   9 2420.37 503.902   3
   4  -1  10 264.452 254.662   7
   4  -1  10 576.772 307.231   3
   4  -1  11 229.549 215.478   7
   4  -1  11-105.155 283.699   3
   4  -1  12 573.300 355.453   7
   4  -1  12 651.263 359.984   3
   4  -1  13 306.438 327.260   7
   4  -1  13-87.6827 263.146   3
   4   0 -17 386.411 334.022  10
   4   0 -16 22.6620 255.158  10
   4   0 -15 179.998 269.228  10
   4   0 -14 1611.11 442.193  10
   4   0 -13 567.499 297.343  10
   4   0 -12 2003.91 433.703  10
   4   0 -11 535.183 277.736  10
   4   0 -10 48.4915 200.851  10
   4   0  -9 4246.80 512.885  10
   4   0  -8 561.615 205.933  10
   4   0  -7 4267.36 453.931  10
   4   0  -6 612.857 209.989  10
   4   0  -5 306.680 180.055  10
   4   0  -5 82.2433 45.0854   4
   4   0  -4-174.160 136.536  10
   4   0  -4-98.5268 88.1965   4
   4   0  -3 165.852 136.968  10
   4   0  -2 4808.50 419.713  10
   4   0  -1 434.853 157.223  10
   4   0  -1 874.354 124.548   5
   4   0  -1 677.829 179.989   1
   4   0  -1 780.956 220.192   7
   4   0   0 1058.63 165.910   1
   4   0   0 1313.02 250.202   7
   4   0   1 896.770 146.508   1
   4   0   1 1080.45 251.572   7
   4   0   2 226.576 79.9520   1
   4   0   2 705.948 235.548   7
   4   0   3 5185.02 522.112   7
   4   0   4-24.6706 180.959   7
   4   0   5 2631.98 444.264   7
   4   0   6 567.861 243.462   7
   4   0   7 199.061 260.642   7
   4   0   7 153.818 177.917   3
   4   0   8 2852.38 488.731   3
   4   0   8 2364.54 514.693   7
   4   0   9-52.8116 191.958   3
   4   0   9 128.576 216.923   7
   4   0  10 578.810 348.716   7
   4   0  11 616.896 392.805   7
   4   0  12 657.244 411.554   7
   4   1 -17 221.611 286.796  10
   4   1 -16-251.051 272.366  10
   4   1 -16 596.565 383.852   1
   4   1 -15-18.2526 229.027  10
   4   1 -14 238.410 286.230  10
   4   1 -13 131.080 190.871  10
   4   1 -12 1343.95 337.620  10
   4   1 -11 17.7585 183.710  10
   4   1 -10 130.101 176.199  10
   4   1  -9 5944.81 560.580  10
   4   1  -8 477.436 187.929  10
   4   1  -7 3043.32 395.677  10
   4   1  -6 15948.9 787.581  10
   4   1  -5 1963.53 285.991  10
   4   1  -5 1368.54 118.692   4
   4   1  -4 48676.5 1405.62   1
   4   1  -4 51828.0 1280.61  10
   4   1  -3 2648.68 300.334  10
   4   1  -3 2492.38 331.332   1
   4   1  -2 24974.9 940.377   7
   4   1  -2 23473.3 882.580   1
   4   1  -2 24612.2 918.506  10
   4   1  -1 99.9549 114.155   1
   4   1  -1-94.9941 140.018   7
   4   1   0 2184.74 148.878   5
   4   1   0 4236.29 345.523   1
   4   1   0 4000.65 431.987   7
   4   1   1 3547.60 302.386   1
   4   1   1 3853.90 455.623   7
   4   1   2 6940.97 387.396   1
   4   1   2 8387.52 664.285   7
   4   1   3 2387.94 406.468   7
   4   1   4 8913.96 760.948   7
   4   1   5 2637.42 444.873   7
   4   1   6 132.321 222.132   7
   4   1   7 5416.78 722.539   7
   4   1   8 259.434 302.026   7
   4   1   9 5038.09 769.285   7
   4   1  10 1106.39 447.388   7
   4   1  11-346.087 354.521   7
   4   1  12-101.708 328.520   7
   4   2 -16 708.873 334.923   1
   4   2 -15 543.209 342.529  10
   4   2 -15 1050.47 395.994   1
   4   2 -14 654.193 359.384   1
   4   2 -14 306.164 205.379  10
   4   2 -13-220.979 218.868  10
   4   2 -13 767.805 373.967   1
   4   2 -12 2469.46 519.455   1
   4   2 -12 798.106 298.512  10
   4   2 -11-30.6331 160.405  10
   4   2 -11 189.849 227.131   1
   4   2 -10 6235.86 678.253   1
   4   2 -10 4578.35 499.624  10
   4   2  -9 442.044 204.113  10
   4   2  -9 1176.47 328.991   1
   4   2  -8 5012.72 573.501   1
   4   2  -8 4830.09 477.050  10
   4   2  -7 2162.70 314.292  10
   4   2  -7 3081.97 457.414   1
   4   2  -6-3.98706 125.279  10
   4   2  -6 219.674 216.853   1
   4   2  -5 10025.3 702.646   1
   4   2  -5 10519.6 581.836  10
   4   2  -4 493.437 160.922  10
   4   2  -4 530.406 182.172   1
   4   2  -4 644.872 212.638   7
   4   2  -3 6822.61 524.617   7
   4   2  -3 6568.08 538.857   1
   4   2  -2 5087.82 471.301   7
   4   2  -2 3890.82 402.363   1
   4   2  -1 339.389 183.556   7
   4   2  -1 596.801 188.366   1
   4   2   0 4131.43 383.728   1
   4   2   0 4306.83 469.118   7
   4   2   1 309.062 51.8800   5
   4   2   1 808.107 177.807   1
   4   2   1 1001.33 257.954   7
   4   2   2 3663.05 339.096   1
   4   2   2 4328.13 516.165   7
   4   2   3 1232.23 345.975   7
   4   2   4 484.989 264.192   7
   4   2   5 523.992 274.400   7
   4   2   6 553.766 294.333   7
   4   2   7 1811.72 500.690   7
   4   2   8 2261.56 542.560   7
   4   2   9 2710.45 622.844   7
   4   2  10 1456.49 571.411   7
   4   2  11 663.342 479.544   7
   4   3 -17 1830.09 497.690   1
   4   3 -16 947.969 379.818   1
   4   3 -15 3310.33 601.858   1
   4   3 -14 279.347 262.855   1
   4   3 -13 799.423 378.029   1
   4   3 -12 227.712 199.261  10
   4   3 -12 71.2830 218.638   1
   4   3 -11 3408.69 447.905  10
   4   3 -11 5244.26 660.439   1
   4   3 -10-8.11637 212.902   1
   4   3 -10-87.5756 180.795  10
   4   3  -9 6290.60 670.537   1
   4   3  -9 6352.43 529.313  10
   4   3  -8 183.000 141.629  10
   4   3  -8 49.7618 230.266   1
   4   3  -7 2936.84 322.398  10
   4   3  -7 3277.33 478.566   1
   4   3  -6 1475.06 309.379   1
   4   3  -6 2505.13 296.472  10
   4   3  -6 2182.43 305.381   7
   4   3  -5 627.930 180.641  10
   4   3  -5 777.753 188.260   7
   4   3  -5 866.401 269.174   1
   4   3  -4 6058.73 502.534   7
   4   3  -4 5791.69 548.830   1
   4   3  -3 103.030 176.540   1
   4   3  -3 310.763 176.558   7
   4   3  -2 1284.95 279.326   7
   4   3  -2 1517.63 301.468   1
   4   3  -1 1487.10 287.035   1
   4   3  -1 1815.39 338.757   7
   4   3   0 532.317 184.796   1
   4   3   0 572.221 227.312   7
   4   3   1 953.674 215.516   1
   4   3   1 1026.96 293.530   7
   4   3   2 720.260 271.352   7
   4   3   2 493.712 183.442   1
   4   3   3 3953.12 572.324   7
   4   3   4 815.172 289.462   7
   4   3   5 3967.35 634.902   7
   4   3   6 934.149 460.639   7
   4   3   7 827.334 393.656   7
   4   3   8 186.487 329.412   7
   4   3   9 1081.31 440.604   7
   4   3  10 2354.52 667.341   7
   4   4 -17 55.3645 251.384   1
   4   4 -16 196.666 282.702   1
   4   4 -15 159.191 273.630   1
   4   4 -14 1225.38 393.394   1
   4   4 -13 1407.20 432.355   1
   4   4 -12-166.641 192.046   1
   4   4 -11 1583.32 411.053   1
   4   4 -10 70.1929 224.453   1
   4   4  -9 106.220 186.503   1
   4   4  -8 167.544 103.162  10
   4   4  -8-1.47430 200.457   1
   4   4  -8 197.637 132.968   7
   4   4  -7-85.1464 103.489  10
   4   4  -7-317.114 268.251   1
   4   4  -7 35.6203 116.947   7
   4   4  -6-502.669 268.104   1
   4   4  -6-153.668 142.887   7
   4   4  -5 472.637 281.331   1
   4   4  -5 605.878 213.135   7
   4   4  -4 49.9109 129.053   7
   4   4  -4 26.0534 202.346   1
   4   4  -3 1491.43 314.160   1
   4   4  -3 1668.53 293.038   7
   4   4  -2 351.704 227.637   1
   4   4  -2 305.453 187.380   7
   4   4  -1 4331.02 470.806   1
   4   4  -1 5191.40 544.042   7
   4   4   0 976.402 245.142   1
   4   4   0 415.121 238.135   7
   4   4   1 389.880 279.835   7
   4   4   1-129.306 133.244   1
   4   4   2 1497.52 314.252   1
   4   4   2 1441.89 319.673   8
   4   4   2 1420.96 391.403   7
   4   4   3 315.547 170.905   8
   4   4   3-316.219 231.146   7
   4   4   4 2116.60 509.310   7
   4   4   5 84.1604 270.623   7
   4   4   6 122.728 310.209   7
   4   4   7 194.786 279.116   7
   4   4   8 1360.61 490.932   7
   4   4   9 764.759 456.991   7
   4   5 -17 389.544 330.291   1
   4   5 -16-221.569 259.063   1
   4   5 -15 1898.80 522.128   1
   4   5 -14 171.091 259.879   1
   4   5 -13 4710.27 690.212   1
   4   5 -12-251.295 312.774   1
   4   5 -11 516.864 266.286   1
   4   5 -10 3547.42 567.021   1
   4   5  -9-264.200 224.207   1
   4   5  -8 9559.96 879.605   1
   4   5  -7 464.390 265.862   1
   4   5  -6 2471.43 314.230   7
   4   5  -6 2155.95 441.755   1
   4   5  -5 50.5509 121.843   7
   4   5  -5 296.173 229.212   1
   4   5  -4 4898.38 572.179   1
   4   5  -4 4849.62 470.298   7
   4   5  -3 2871.30 453.752   1
   4   5  -3 2788.74 399.097   7
   4   5  -2 10780.3 818.180   1
   4   5  -2 11169.7 787.942   7
   4   5  -1 3604.16 473.753   1
   4   5  -1 3616.98 486.668   7
   4   5   0 6582.53 638.126   1
   4   5   0 7470.16 735.344   7
   4   5   1 5072.30 569.430   8
   4   5   1 4844.03 531.754   1
   4   5   1 4613.36 637.175   7
   4   5   2 114.409 200.528   8
   4   5   2 244.473 280.689   7
   4   5   3 3434.91 617.308   7
   4   5   4-72.1910 230.117   7
   4   5   5 779.302 362.716   7
   4   5   6 755.549 392.829   7
   4   5   7 860.595 457.671   7
   4   6 -16 257.083 291.611   1
   4   6 -15-464.961 235.576   1
   4   6 -14 2078.61 521.961   1
   4   6 -13 747.538 366.090   1
   4   6 -12 1542.26 469.388   1
   4   6 -11 1699.03 509.658   1
   4   6 -10 378.713 318.676   1
   4   6  -9 3436.56 603.125   1
   4   6  -8 180.371 224.033   1
   4   6  -7 1123.19 383.510   1
   4   6  -6 52.7636 223.876   1
   4   6  -5-14.6048 244.301   1
   4   6  -5-48.4610 128.765   7
   4   6  -4 1263.76 349.334   1
   4   6  -4 1173.31 284.065   7
   4   6  -3 17.9966 181.302   1
   4   6  -3 569.268 258.058   7
   4   6  -2 900.497 281.130   1
   4   6  -2 1296.16 329.009   7
   4   6  -1 891.570 307.458   7
   4   6  -1 900.943 283.746   1
   4   6   0 106.001 193.281   7
   4   6   0 351.702 217.518   1
   4   6   1 709.570 298.064   8
   4   6   1 138.691 245.832   7
   4   6   2 153.651 213.585   8
   4   6   2 573.482 310.580   7
   4   6   3 1323.13 452.801   7
   4   6   4 278.078 324.592   7
   4   6   5 399.140 359.046   7
   4   6   6 771.607 474.294   7
   4   7 -15 1799.75 495.153   1
   4   7 -14 47.3424 382.601   1
   4   7 -13 1392.25 420.491   1
   4   7 -12 147.030 218.377   1
   4   7 -11 222.771 245.500   1
   4   7 -10 853.810 347.941   1
   4   7  -9-98.8425 194.736   1
   4   7  -8-97.0431 204.514   1
   4   7  -7 1394.50 435.679   1
   4   7  -6 428.390 245.861   1
   4   7  -5 1321.48 376.665   1
   4   7  -4 376.333 267.480   1
   4   7  -3 191.290 228.210   1
   4   7  -3 99.7085 180.858   7
   4   7  -2 469.670 248.672   7
   4   7  -2 307.447 260.905   1
   4   7  -1 2072.11 446.028   7
   4   7  -1 1666.52 403.614   1
   4   7   0-272.309 227.527   1
   4   7   0 161.146 225.085   7
   4   7   1 1540.37 415.789   8
   4   7   1 1342.63 429.732   7
   4   7   2 966.893 399.178   7
   4   7   3 821.769 409.747   7
   4   7   4 438.890 350.562   7
   4   7   5 635.737 478.958   7
   4   8 -14 384.598 299.247   1
   4   8 -13 540.003 364.810   1
   4   8 -12 271.584 227.347   1
   4   8 -11-133.018 232.822   1
   4   8 -10 1100.79 437.905   1
   4   8  -9 531.058 316.067   1
   4   8  -8 776.297 365.323   1
   4   8  -7 1549.83 436.182   1
   4   8  -6 19.8831 220.279   1
   4   8  -5 1236.52 369.889   1
   4   8  -4 34.5110 193.204   1
   4   8  -3 404.260 247.628   1
   4   8  -2 968.029 342.387   1
   4   8  -1 499.640 295.261   1
   4   8  -1-216.841 250.513   7
   4   8   0 281.806 263.434   7
   4   8   1-217.966 287.105   7
   4   8   2-2.59097 307.067   7
   4   8   3-195.951 307.777   7
   4   9 -11 970.491 403.011   1
   4   9 -10 741.595 392.010   1
   4   9  -9 66.2576 243.951   1
   4   9  -8 3362.42 673.873   1
   4   9  -7 346.760 290.387   1
   4   9  -6 2354.44 565.357   1
   4   9  -5 651.661 356.366   1
   4   9  -4 631.584 282.535   1
   4   9  -3 238.793 259.880   1
   4   9  -2-192.753 236.070   1
   4  10  -7 542.904 358.221   1
   4  10  -6 439.708 341.730   1
   4  10  -5 132.088 239.024   1
   4  10  -4-342.409 288.100   1
   4  10  -3 73.3783 206.221   1
   5 -14   1 388.520 230.710   5
   5 -14   2 734.669 399.755   5
   5 -14   3 176.729 294.600   5
   5 -14   4 254.499 237.232   5
   5 -13  -2 347.359 261.867   5
   5 -13  -1 1196.44 493.520   5
   5 -13  -1 681.037 337.553   4
   5 -13   0 183.603 340.380   5
   5 -13   1 1801.75 505.143   5
   5 -13   2 529.059 366.747   5
   5 -13   3 1072.46 376.068   5
   5 -13   4 140.377 228.991   5
   5 -13   5 179.787 331.270   5
   5 -13   6 2085.53 693.904   5
   5 -13   7 221.806 421.247   5
   5 -13   8 1263.08 459.421   5
   5 -12  -4 727.552 325.136   4
   5 -12  -3-5.74725 299.470   5
   5 -12  -3-39.8625 238.676   4
   5 -12  -2 2.45350 252.671   5
   5 -12  -2 380.374 310.856   4
   5 -12  -1 275.059 297.051   5
   5 -12   0 511.474 339.418   5
   5 -12   1 731.481 352.934   5
   5 -12   2 553.870 364.224   5
   5 -12   3 253.238 294.657   5
   5 -12   4-63.7665 252.858   5
   5 -12   5 498.447 376.217   5
   5 -12   6 181.278 255.657   5
   5 -12   7 457.607 366.791   3
   5 -12   8-60.7280 241.937   3
   5 -12   9 873.581 432.657   3
   5 -12  10 232.828 326.466   3
   5 -11  -8 363.014 381.573  10
   5 -11  -7 525.822 324.710  10
   5 -11  -7-0.39409 257.924   4
   5 -11  -6 1146.03 430.532  10
   5 -11  -6 889.895 418.787   4
   5 -11  -5 702.190 322.239  10
   5 -11  -5 367.815 268.876   4
   5 -11  -4 197.721 247.704  10
   5 -11  -4-127.892 222.937   4
   5 -11  -3 385.185 298.655  10
   5 -11  -3-45.8301 240.352   5
   5 -11  -2 1257.11 458.149   5
   5 -11  -1 280.608 310.260   5
   5 -11   0-279.783 242.645   5
   5 -11   1 441.365 295.887   5
   5 -11   2 1369.53 449.156   5
   5 -11   3 855.268 379.343   5
   5 -11   4 422.839 327.155   5
   5 -11   5 356.998 256.423   3
   5 -11   5 750.174 378.740   5
   5 -11   6 515.537 400.374   3
   5 -11   7 2017.20 506.675   3
   5 -11   8 772.162 394.329   3
   5 -11   9 1086.14 457.935   3
   5 -11  10 2768.91 689.519   3
   5 -11  11 640.479 374.925   3
   5 -10  -9 350.946 389.741  10
   5 -10  -9 606.645 375.699   4
   5 -10  -8 246.727 280.960  10
   5 -10  -8 47.6751 240.951   4
   5 -10  -7 252.497 313.835  10
   5 -10  -7 95.0174 276.398   4
   5 -10  -6 183.718 242.973  10
   5 -10  -6 68.8215 236.179   4
   5 -10  -5 408.005 274.522  10
   5 -10  -5 595.563 344.546   4
   5 -10  -4 1779.58 451.608  10
   5 -10  -4 2461.43 512.378   5
   5 -10  -4 2592.87 528.565   4
   5 -10  -3 618.002 281.933  10
   5 -10  -3 1183.26 337.740   5
   5 -10  -2 6702.91 801.546   5
   5 -10  -2 6559.80 711.905  10
   5 -10  -1 44.4399 191.199  10
   5 -10  -1-149.089 187.636   5
   5 -10   0 4351.41 504.689  10
   5 -10   0 4620.40 666.949   5
   5 -10   1 4721.98 701.064   5
   5 -10   1 4817.09 545.150  10
   5 -10   2 1775.31 333.996  10
   5 -10   2 1532.68 435.201   5
   5 -10   3 3420.29 486.711   3
   5 -10   3 3618.39 623.803   5
   5 -10   4 1721.83 426.561   3
   5 -10   4 1513.71 445.267   5
   5 -10   5 442.905 297.748   3
   5 -10   6 151.056 306.786   3
   5 -10   7 824.805 380.640   3
   5 -10   8 612.263 335.919   3
   5 -10   9 2897.00 620.412   3
   5 -10  10 663.108 470.457   3
   5 -10  11 825.397 487.787   3
   5 -10  12 1364.55 525.688   3
   5  -9 -11 447.217 295.912   4
   5  -9 -10 494.386 410.259  10
   5  -9 -10 188.789 277.848   4
   5  -9  -9 834.361 473.046  10
   5  -9  -9 637.223 340.822   4
   5  -9  -8 699.197 398.894  10
   5  -9  -8-158.713 253.981   4
   5  -9  -7 632.100 358.290  10
   5  -9  -7 859.885 329.619   4
   5  -9  -6 678.495 365.136  10
   5  -9  -6 0.58673 249.491   4
   5  -9  -5 2257.96 472.639  10
   5  -9  -5 2048.36 483.971   4
   5  -9  -4 547.215 289.065  10
   5  -9  -4 622.476 291.105   5
   5  -9  -3 11079.7 988.663   5
   5  -9  -3 11732.3 933.881  10
   5  -9  -2 1775.93 377.830  10
   5  -9  -2 1390.44 386.214   5
   5  -9  -1 4764.32 634.496   5
   5  -9  -1 4582.42 553.002  10
   5  -9   0 5214.83 655.960   5
   5  -9   0 5168.97 556.767  10
   5  -9   1 1028.94 232.991   3
   5  -9   1 1331.14 323.424  10
   5  -9   1 1043.06 335.300   5
   5  -9   2 11070.7 983.933   5
   5  -9   2 10054.2 701.767   3
   5  -9   2 11114.2 771.382  10
   5  -9   3 491.392 254.803   3
   5  -9   3-42.3198 155.920  10
   5  -9   3 154.686 287.146   5
   5  -9   4 3258.40 490.107   3
   5  -9   5 256.451 272.083   3
   5  -9   6 855.346 374.070   3
   5  -9   7 383.780 301.005   3
   5  -9   8 1997.52 493.090   3
   5  -9   9 305.646 310.326   3
   5  -9  10 1338.28 436.928   3
   5  -9  11-232.776 257.964   3
   5  -9  12 897.209 472.966   3
   5  -8 -11 959.777 501.460  10
   5  -8 -11 972.187 409.196   4
   5  -8 -10-46.1850 304.847  10
   5  -8 -10 427.730 297.360   4
   5  -8  -9 1384.13 454.277  10
   5  -8  -9 529.268 294.062   4
   5  -8  -8 12.2674 214.342  10
   5  -8  -8 231.160 251.224   4
   5  -8  -7 66.4906 248.599  10
   5  -8  -7 38.8702 215.843   4
   5  -8  -6 336.827 294.665  10
   5  -8  -6 251.483 229.214   4
   5  -8  -5 156.351 252.405  10
   5  -8  -4 2571.92 488.317   5
   5  -8  -4 2506.86 477.599  10
   5  -8  -3 84.1512 207.886  10
   5  -8  -3 324.692 213.062   5
   5  -8  -2 687.514 262.675  10
   5  -8  -2 419.076 286.437   5
   5  -8  -1 418.072 225.322  10
   5  -8  -1 411.724 283.734   5
   5  -8   0 1634.96 254.410   3
   5  -8   0 1976.04 360.597  10
   5  -8   0 1780.79 398.784   5
   5  -8   1 1268.06 266.539   3
   5  -8   1 1533.90 311.248  10
   5  -8   1 962.947 335.464   5
   5  -8   2 229.633 187.288   3
   5  -8   2 194.087 137.909  10
   5  -8   3 714.384 256.636   3
   5  -8   3 659.499 232.756  10
   5  -8   4 387.325 254.629   3
   5  -8   5 4311.78 570.884   3
   5  -8   5 3800.75 405.506   7
   5  -8   6 1926.10 469.375   3
   5  -8   7 1522.05 426.809   3
   5  -8   8 1324.63 397.175   3
   5  -8   9 219.357 359.625   3
   5  -8  10 1797.83 501.632   3
   5  -8  11 1349.45 488.068   3
   5  -8  12 1083.42 490.039   3
   5  -7 -12 650.268 367.367  10
   5  -7 -11 825.718 356.749  10
   5  -7 -11 535.835 290.392   4
   5  -7 -10 820.455 333.880   4
   5  -7 -10 81.0887 349.500  10
   5  -7  -9 550.028 349.741  10
   5  -7  -9 378.827 272.073   4
   5  -7  -8 626.824 317.606  10
   5  -7  -8 540.978 225.567   4
   5  -7  -7 1215.58 368.843   4
   5  -7  -7 1448.80 407.527  10
   5  -7  -6 877.406 329.910  10
   5  -7  -5 889.678 365.320  10
   5  -7  -4 62.4787 190.277  10
   5  -7  -4-113.830 233.347   5
   5  -7  -3 1659.59 369.948  10
   5  -7  -3 1619.05 374.632   5
   5  -7  -2 2993.31 465.788  10
   5  -7  -2 2548.16 435.966   5
   5  -7  -1 83.6331 205.870  10
   5  -7  -1-2.75167 167.986   5
   5  -7  -1 13.6893 85.7969   3
   5  -7   0-93.1119 127.073   3
   5  -7   0 321.495 208.482  10
   5  -7   0 281.083 199.911   5
   5  -7   1-28.4376 147.811   3
   5  -7   1 69.9769 180.451  10
   5  -7   1-48.7063 205.726   5
   5  -7   2 245.304 195.339   3
   5  -7   2 280.746 211.255  10
   5  -7   3 1677.95 365.067   3
   5  -7   3 1243.52 297.218  10
   5  -7   4 6599.79 659.353   3
   5  -7   5 4118.60 551.823   3
   5  -7   5 3919.27 424.262   7
   5  -7   6 4564.58 462.442   7
   5  -7   6 5451.67 666.029   3
   5  -7   7 2925.15 559.698   3
   5  -7   7 2191.74 339.298   7
   5  -7   8 560.947 289.811   3
   5  -7   9 3908.70 629.440   3
   5  -7  10 1317.23 432.019   3
   5  -7  11 3138.27 664.692   3
   5  -7  12 204.975 292.412   3
   5  -7  13 419.409 368.850   3
   5  -6 -13 706.537 420.081  10
   5  -6 -12 588.440 354.527  10
   5  -6 -11 1938.94 538.017  10
   5  -6 -11 1061.84 343.079   4
   5  -6 -10 877.637 372.862  10
   5  -6 -10 703.962 326.126   4
   5  -6  -9 2530.13 555.268  10
   5  -6  -9 1566.74 373.942   4
   5  -6  -8 6916.26 699.680   4
   5  -6  -8 6205.66 776.984  10
   5  -6  -7 1390.22 406.487  10
   5  -6  -7 716.455 257.840   4
   5  -6  -6 5558.29 659.948  10
   5  -6  -5 460.040 287.916  10
   5  -6  -5 628.559 266.887   5
   5  -6  -4 1326.18 339.326  10
   5  -6  -4 1731.47 353.473   5
   5  -6  -3 7457.67 684.763   5
   5  -6  -3 8548.46 736.425  10
   5  -6  -2 4023.62 494.167  10
   5  -6  -2 4018.15 508.125   5
   5  -6  -1 4877.20 542.960   5
   5  -6  -1 5392.78 544.124  10
   5  -6  -1 5073.82 361.881   3
   5  -6   0 8467.80 709.848   5
   5  -6   0 8047.22 518.863   3
   5  -6   0 8523.63 667.574  10
   5  -6   1 4161.60 508.313   5
   5  -6   1 4147.02 392.230   3
   5  -6   1 4970.06 511.407  10
   5  -6   2 1205.38 283.802   3
   5  -6   2 927.277 257.517  10
   5  -6   3 14039.8 846.897   3
   5  -6   4 690.337 261.098   3
   5  -6   4 682.753 226.819   7
   5  -6   5 10795.6 695.488   7
   5  -6   5 10535.7 833.806   3
   5  -6   6 203.007 257.423   3
   5  -6   6 49.5979 164.149   7
   5  -6   7 547.940 251.141   3
   5  -6   7 822.305 237.001   7
   5  -6   8 315.719 268.402   3
   5  -6   8-58.5643 141.926   7
   5  -6   9 606.456 369.825   3
   5  -6   9 367.484 218.817   7
   5  -6  10 542.727 340.988   3
   5  -6  11-202.585 242.160   3
   5  -6  12 334.017 276.247   3
   5  -6  13 265.820 295.106   3
   5  -5 -14 796.542 523.254  10
   5  -5 -13-366.022 342.545  10
   5  -5 -12 440.656 325.115  10
   5  -5 -11 125.206 245.850  10
   5  -5 -10 195.831 275.264  10
   5  -5 -10 418.270 232.281   4
   5  -5  -9 4554.59 563.235   4
   5  -5  -9 5823.98 744.361  10
   5  -5  -8 235.387 255.505  10
   5  -5  -8 22.7002 162.246   4
   5  -5  -7 12543.5 820.086   4
   5  -5  -7 13460.9 999.511  10
   5  -5  -6 1884.67 422.268  10
   5  -5  -5 2187.85 415.976  10
   5  -5  -4 10051.7 781.659   5
   5  -5  -4 10377.4 797.340  10
   5  -5  -3-77.2164 183.301  10
   5  -5  -3 15.4375 172.303   5
   5  -5  -2 13419.4 836.845   5
   5  -5  -2 14369.1 869.752  10
   5  -5  -1 103.886 183.042  10
   5  -5  -1-213.374 188.459   5
   5  -5   0 357.744 228.403  10
   5  -5   0 208.071 161.895   5
   5  -5   0 89.9820 130.732   3
   5  -5   1 169.738 151.105   3
   5  -5   1-35.3048 150.610  10
   5  -5   2 4691.81 506.168  10
   5  -5   2 5457.36 503.000   3
   5  -5   3 5737.19 542.036   3
   5  -5   4 9606.28 670.919   7
   5  -5   4 9772.99 768.400   3
   5  -5   5 458.557 201.518   3
   5  -5   5 1025.14 266.599   7
   5  -5   6 2209.17 426.972   3
   5  -5   6 2383.68 386.188   7
   5  -5   7-111.296 221.549   3
   5  -5   7 60.0307 144.943   7
   5  -5   8 896.247 330.349   3
   5  -5   8 834.095 271.430   7
   5  -5   9-137.132 222.295   3
   5  -5   9 385.077 212.669   7
   5  -5  10 372.759 304.299   3
   5  -5  10-115.537 181.194   7
   5  -5  11-304.197 260.136   3
   5  -5  12 748.017 401.363   3
   5  -5  13 1199.52 508.230   3
   5  -4 -14 406.642 393.824  10
   5  -4 -13 1418.92 492.684  10
   5  -4 -12 276.386 278.648  10
   5  -4 -11 1286.66 427.172  10
   5  -4 -10 156.800 246.854  10
   5  -4 -10 180.203 157.275   4
   5  -4  -9 307.047 288.577  10
   5  -4  -9 217.823 176.280   4
   5  -4  -8 888.418 327.159  10
   5  -4  -8 1115.17 266.828   4
   5  -4  -7 286.726 238.380  10
   5  -4  -6-39.8785 223.897  10
   5  -4  -5 829.916 316.271  10
   5  -4  -4 4862.21 518.675   5
   5  -4  -4 6093.25 602.680  10
   5  -4  -3 719.790 226.584   5
   5  -4  -3 777.239 287.993  10
   5  -4  -2 1477.62 296.456  10
   5  -4  -2 1253.06 276.751   5
   5  -4  -1 6588.73 546.145   5
   5  -4  -1 6434.03 550.339  10
   5  -4   0 395.178 193.670  10
   5  -4   0 339.507 188.345   5
   5  -4   0 448.088 142.780   3
   5  -4   1 15627.5 807.317   3
   5  -4   1 15076.0 852.849  10
   5  -4   2 935.847 265.399   3
   5  -4   3 2759.39 420.603   3
   5  -4   3 2952.88 395.582   7
   5  -4   4 17.4810 162.068   3
   5  -4   4 522.083 233.127   7
   5  -4   5 1538.67 338.732   3
   5  -4   5 1764.14 341.486   7
   5  -4   6 1890.09 442.842   3
   5  -4   6 1530.26 330.180   7
   5  -4   7 3052.33 521.164   3
   5  -4   7 2531.66 416.282   7
   5  -4   8 2588.87 508.910   3
   5  -4   8 2004.63 395.925   7
   5  -4   9 824.116 331.431   3
   5  -4   9 675.217 295.767   7
   5  -4  10 1337.61 389.945   3
   5  -4  10 854.871 286.429   7
   5  -4  11 967.836 417.675   3
   5  -4  11 811.397 335.785   7
   5  -4  12 921.781 402.943   3
   5  -4  13 1700.14 565.704   3
   5  -3 -15 373.391 410.034  10
   5  -3 -14 365.643 302.755  10
   5  -3 -13 1016.36 440.748  10
   5  -3 -12 271.375 235.337  10
   5  -3 -11 1056.86 374.325  10
   5  -3 -10 479.570 291.797  10
   5  -3  -9 532.017 277.876  10
   5  -3  -9 903.973 215.517   4
   5  -3  -8-339.535 238.575  10
   5  -3  -8-31.3732 106.788   4
   5  -3  -7 219.465 221.907  10
   5  -3  -6 3275.41 471.855  10
   5  -3  -5 3803.72 493.981  10
   5  -3  -4 1590.72 341.189  10
   5  -3  -4 1252.62 271.720   5
   5  -3  -3 1107.55 261.702  10
   5  -3  -3 1609.97 275.682   5
   5  -3  -2 5973.57 479.383   5
   5  -3  -2 5426.23 499.241  10
   5  -3  -1 3492.20 374.262   5
   5  -3  -1 3669.57 427.010  10
   5  -3   0 32423.9 1099.58   5
   5  -3   0 31739.7 1205.34  10
   5  -3   1 12770.1 747.748   3
   5  -3   1 11934.4 777.592  10
   5  -3   2 4769.65 482.410   7
   5  -3   2 4565.43 474.145   3
   5  -3   3 973.157 106.212   1
   5  -3   3 1531.30 324.004   7
   5  -3   3 1883.82 345.531   3
   5  -3   4 23.4518 169.268   7
   5  -3   4 360.743 225.589   3
   5  -3   5 3326.72 469.294   7
   5  -3   5 3181.89 503.809   3
   5  -3   6 143.823 184.462   7
   5  -3   6 169.080 234.720   3
   5  -3   7 2445.29 426.226   7
   5  -3   7 3415.92 533.490   3
   5  -3   8 522.001 280.847   7
   5  -3   8-3.17640 214.539   3
   5  -3   9 1125.69 365.708   7
   5  -3   9 1251.96 415.102   3
   5  -3  10 1493.85 462.872   7
   5  -3  10 2039.09 534.259   3
   5  -3  11 911.177 345.922   7
   5  -3  11 1087.12 428.251   3
   5  -3  12 3485.97 681.284   7
   5  -3  12 3462.02 694.774   3
   5  -3  13 577.836 386.650   3
   5  -2 -16 470.157 355.344  10
   5  -2 -15 1330.98 487.168  10
   5  -2 -14 588.345 404.608  10
   5  -2 -13 195.106 310.783  10
   5  -2 -12 7263.27 861.709  10
   5  -2 -11 200.943 196.949  10
   5  -2 -10 2114.45 487.092  10
   5  -2  -9 584.497 270.830  10
   5  -2  -9 210.976 100.295   4
   5  -2  -8 4697.64 582.860  10
   5  -2  -8 4700.41 360.431   4
   5  -2  -7 4870.58 591.045  10
   5  -2  -6 14945.3 916.944  10
   5  -2  -5 4593.95 509.385  10
   5  -2  -4 23519.4 1065.51  10
   5  -2  -3 2827.38 378.096  10
   5  -2  -3 2620.61 320.688   5
   5  -2  -2 940.446 274.448  10
   5  -2  -2 438.416 148.628   5
   5  -2  -1 9276.10 534.718   5
   5  -2  -1 8370.90 620.039  10
   5  -2   0 4072.32 371.116   5
   5  -2   0 4360.24 467.880  10
   5  -2   1 9781.54 668.875   7
   5  -2   2 172.924 78.6761   1
   5  -2   2 385.209 220.591   7
   5  -2   3 289.801 180.780   7
   5  -2   3 50.2614 168.278   3
   5  -2   4 250.619 261.794   7
   5  -2   4-77.4382 210.614   3
   5  -2   5 306.328 239.869   7
   5  -2   5-36.1943 208.041   3
   5  -2   6 750.763 283.908   7
   5  -2   6 872.447 281.338   3
   5  -2   7 834.697 266.100   7
   5  -2   7 889.254 348.756   3
   5  -2   8-150.455 201.963   7
   5  -2   8 206.671 245.019   3
   5  -2   9 498.633 352.911   7
   5  -2   9 851.477 333.909   3
   5  -2  10 10.0679 305.733   7
   5  -2  10-238.265 207.363   3
   5  -2  11 622.052 299.569   7
   5  -2  11-3.51705 230.025   3
   5  -2  12 58.9092 265.284   7
   5  -2  12-251.922 277.487   3
   5  -2  13 327.454 356.645   7
   5  -1 -16 1221.58 451.076  10
   5  -1 -15 1047.89 434.359  10
   5  -1 -14 171.208 259.341  10
   5  -1 -13 4321.04 682.116  10
   5  -1 -12-430.173 275.483  10
   5  -1 -11 1782.23 432.466  10
   5  -1 -10 805.282 321.905  10
   5  -1  -9-144.442 184.574  10
   5  -1  -8 4005.76 530.055  10
   5  -1  -8 3686.07 234.698   4
   5  -1  -7 448.506 275.330  10
   5  -1  -6 5059.96 539.358  10
   5  -1  -5 3536.51 435.412  10
   5  -1  -4 1355.17 283.854  10
   5  -1  -3 395.173 215.859  10
   5  -1  -3 24.5279 110.391   5
   5  -1  -2 12440.8 570.154   5
   5  -1  -2 12552.9 738.313  10
   5  -1  -1 12067.2 537.839   5
   5  -1  -1 11256.0 713.332  10
   5  -1   0 2372.18 259.446   5
   5  -1   0 2536.23 378.491   7
   5  -1   1 66.6861 91.9455   1
   5  -1   1 55.7665 159.136   7
   5  -1   2-295.920 210.264   7
   5  -1   2 105.669 68.5392   1
   5  -1   3 542.420 259.239   7
   5  -1   4 4357.58 535.333   7
   5  -1   5 130.069 184.846   7
   5  -1   6-114.670 242.805   7
   5  -1   6-122.593 215.965   3
   5  -1   7-204.105 225.725   7
   5  -1   7-128.970 260.692   3
   5  -1   8 2436.94 536.982   7
   5  -1   8 2741.90 541.136   3
   5  -1   9 49.5028 211.244   3
   5  -1   9 296.939 306.040   7
   5  -1  10-85.4932 242.369   7
   5  -1  11 76.0150 271.910   7
   5  -1  12 86.3649 240.231   7
   5   0 -17 680.814 356.182  10
   5   0 -16 115.871 295.156  10
   5   0 -15 330.794 340.497  10
   5   0 -14 384.171 296.604  10
   5   0 -13 484.989 288.053  10
   5   0 -12 376.449 288.438  10
   5   0 -11 916.597 322.096  10
   5   0 -10 1260.28 333.812  10
   5   0  -9 155.436 209.932  10
   5   0  -8 5746.69 596.643  10
   5   0  -7 1425.69 315.567  10
   5   0  -6 525.107 230.251  10
   5   0  -6 389.733 80.8410   4
   5   0  -5 6097.44 543.086  10
   5   0  -4 4243.98 457.032  10
   5   0  -3 8009.43 596.780  10
   5   0  -2 378.635 166.431   1
   5   0  -2 18.1586 152.203  10
   5   0  -1 9704.47 401.439   5
   5   0  -1 9705.33 675.607   7
   5   0  -1 8683.62 540.770   1
   5   0   0 6558.69 344.584   5
   5   0   0 5643.94 549.418   7
   5   0   0 5698.13 403.678   1
   5   0   1 4754.80 338.601   1
   5   0   1 5085.09 531.793   7
   5   0   2 11039.5 448.767   1
   5   0   2 12391.8 863.104   7
   5   0   3 13639.9 918.455   7
   5   0   4 6697.73 690.678   7
   5   0   5 2831.28 495.365   7
   5   0   6 1901.98 462.310   7
   5   0   7 1419.80 396.270   7
   5   0   8 1203.55 441.269   7
   5   0   9 473.689 429.080   7
   5   0  10 1560.50 480.854   7
   5   0  11 277.174 301.295   7
   5   1 -17 205.426 278.265   1
   5   1 -16 246.431 253.241  10
   5   1 -16 896.089 395.168   1
   5   1 -15-175.821 295.215  10
   5   1 -15-35.1420 223.985   1
   5   1 -14 1185.61 392.754  10
   5   1 -13 103.683 247.490  10
   5   1 -12 372.440 241.586  10
   5   1 -11 430.640 223.004  10
   5   1 -10 582.939 215.053  10
   5   1  -9 3093.01 459.846  10
   5   1  -8 5958.75 588.871  10
   5   1  -7 31.2454 185.301  10
   5   1  -6 6178.39 267.896   4
   5   1  -6 12590.0 745.736  10
   5   1  -5 6773.16 612.098   1
   5   1  -5 6953.68 553.993  10
   5   1  -4 8356.60 654.024   1
   5   1  -4 9401.37 633.992  10
   5   1  -3 1282.16 257.919  10
   5   1  -3 1705.56 350.053   7
   5   1  -3 1390.50 289.417   1
   5   1  -2 2911.25 358.097   1
   5   1  -2 3439.91 422.100   7
   5   1  -1 944.936 210.096   1
   5   1  -1 831.000 239.366   7
   5   1   0 415.865 69.1691   5
   5   1   0 1023.45 334.864   7
   5   1   0 1069.34 217.732   1
   5   1   1 6171.71 430.915   1
   5   1   1 6868.08 652.847   7
   5   1   2 452.581 128.345   1
   5   1   2 1250.32 335.985   7
   5   1   3 8872.66 787.343   7
   5   1   4 92.7703 201.417   7
   5   1   5 3820.21 598.969   7
   5   1   6 4297.08 690.569   7
   5   1   7 318.612 240.853   7
   5   1   8 2132.90 576.464   7
   5   1   9 725.739 451.652   7
   5   1  10-315.159 332.777   7
   5   2 -17-18.3269 217.495   1
   5   2 -16 2421.39 543.883   1
   5   2 -15 1617.18 496.244   1
   5   2 -14 499.323 298.883  10
   5   2 -14 1152.74 416.030   1
   5   2 -13 256.049 203.529  10
   5   2 -13 1114.45 414.305   1
   5   2 -12 2159.61 440.748  10
   5   2 -12 2646.76 581.218   1
   5   2 -11 1096.75 278.137  10
   5   2 -11 953.701 375.321   1
   5   2 -10 9312.53 865.799   1
   5   2 -10 8161.49 699.796  10
   5   2  -9 1628.68 327.912  10
   5   2  -9 981.226 326.963   1
   5   2  -8 7713.95 733.921   1
   5   2  -8 6964.90 597.765  10
   5   2  -7 2120.90 334.070  10
   5   2  -7 2432.54 450.967   1
   5   2  -6 423.147 188.126  10
   5   2  -6 609.549 261.845   1
   5   2  -5 3973.53 499.206   1
   5   2  -5 4245.81 449.751   7
   5   2  -5 4448.58 435.780  10
   5   2  -4-87.7704 186.336   1
   5   2  -4-110.679 161.317  10
   5   2  -4-15.4527 163.212   7
   5   2  -3 4412.44 476.346   7
   5   2  -3 4189.29 462.772   1
   5   2  -2 584.381 210.237   1
   5   2  -2 245.184 167.570   7
   5   2  -1 315.470 243.687   7
   5   2  -1 242.603 164.126   1
   5   2   0 607.673 193.743   1
   5   2   0 1248.77 335.540   7
   5   2   1 208.076 129.683   1
   5   2   1 797.354 290.427   7
   5   2   2 400.404 224.077   7
   5   2   2 580.263 157.307   1
   5   2   3 475.492 249.260   7
   5   2   4 465.132 274.344   7
   5   2   5 279.971 273.136   7
   5   2   6 1146.87 437.926   7
   5   2   7 296.845 316.431   7
   5   2   8 528.212 364.908   7
   5   2   9 621.822 379.134   7
   5   3 -17 1205.27 463.302   1
   5   3 -16 280.607 330.062   1
   5   3 -15 439.807 330.859   1
   5   3 -14 393.241 321.224   1
   5   3 -13 247.743 239.888   1
   5   3 -12 664.177 333.241   1
   5   3 -11 684.682 297.445   1
   5   3 -10 2110.06 352.362  10
   5   3 -10 2470.20 488.041   1
   5   3  -9 384.091 184.577  10
   5   3  -9 657.720 306.460   1
   5   3  -8 232.287 169.793  10
   5   3  -8 431.980 253.975   1
   5   3  -7 1860.30 393.496   1
   5   3  -7 1825.32 298.937  10
   5   3  -7 1735.36 297.997   7
   5   3  -6 556.844 181.753  10
   5   3  -6 425.905 185.187   7
   5   3  -6 31.4838 193.638   1
   5   3  -5 4208.82 528.953   1
   5   3  -5 4610.63 479.027   7
   5   3  -4 294.106 232.915   1
   5   3  -4 316.892 183.059   7
   5   3  -3 196.766 224.919   1
   5   3  -3 420.811 234.229   7
   5   3  -2 27.1052 163.555   7
   5   3  -2-141.676 137.370   1
   5   3  -1 3160.75 411.849   1
   5   3  -1 2478.18 419.656   7
   5   3   0 74.5863 135.811   1
   5   3   0 87.6262 188.560   7
   5   3   1 212.859 121.023   1
   5   3   1 162.722 206.269   7
   5   3   2 545.917 248.750   7
   5   3   2 523.645 171.232   1
   5   3   3-18.6150 216.673   7
   5   3   4 498.138 314.073   7
   5   3   5 867.290 391.014   7
   5   3   6-44.3314 329.138   7
   5   3   7 773.492 384.847   7
   5   3   8 878.401 431.692   7
   5   4 -16 975.940 394.306   1
   5   4 -15 210.468 235.440   1
   5   4 -14 2545.55 549.904   1
   5   4 -13 489.088 310.539   1
   5   4 -12 801.226 353.396   1
   5   4 -11 757.773 336.984   1
   5   4 -10 196.772 277.899   1
   5   4  -9 3526.70 563.696   1
   5   4  -8-175.870 243.828   1
   5   4  -8 116.272 117.666   7
   5   4  -7 5069.54 489.648   7
   5   4  -7 4818.56 618.466   1
   5   4  -6 1134.59 309.324   1
   5   4  -6 711.385 222.285   7
   5   4  -5 3406.89 513.216   1
   5   4  -5 4147.08 450.066   7
   5   4  -4 2343.45 351.866   7
   5   4  -4 2812.00 453.242   1
   5   4  -3 5073.87 535.139   7
   5   4  -3 4389.31 526.845   1
   5   4  -2 7900.97 684.556   1
   5   4  -2 6856.65 653.712   7
   5   4  -1 6357.99 599.138   1
   5   4  -1 5963.62 634.756   7
   5   4   0 4275.48 498.602   1
   5   4   0 4482.47 583.839   7
   5   4   1-3.42047 245.403   7
   5   4   1-105.570 136.464   1
   5   4   2 806.301 283.552   7
   5   4   3 1203.62 424.115   7
   5   4   4 2109.70 530.840   7
   5   4   5-140.793 273.249   7
   5   4   6 2161.33 611.817   7
   5   4   7 189.763 346.999   7
   5   5 -16 285.292 312.863   1
   5   5 -15 954.109 420.819   1
   5   5 -14 112.129 218.760   1
   5   5 -13 1063.96 416.188   1
   5   5 -12 550.552 262.980   1
   5   5 -11 437.820 278.638   1
   5   5 -10 451.193 280.620   1
   5   5  -9 1040.23 377.529   1
   5   5  -8 2677.01 506.877   1
   5   5  -7-7.96476 190.808   1
   5   5  -6 2562.00 369.681   7
   5   5  -6 2276.64 466.172   1
   5   5  -5 798.345 281.999   1
   5   5  -5 1061.62 269.826   7
   5   5  -4 353.442 212.234   1
   5   5  -4-172.458 175.079   7
   5   5  -3 6357.33 689.662   1
   5   5  -3 6992.90 660.977   7
   5   5  -2-158.456 220.711   1
   5   5  -2-121.518 188.324   7
   5   5  -1 3852.32 517.207   1
   5   5  -1 3485.38 541.014   7
   5   5   0 13.4355 196.242   7
   5   5   0 54.5152 142.976   1
   5   5   1 46.6642 149.528   1
   5   5   1 530.605 297.299   7
   5   5   2 2145.27 499.017   7
   5   5   3 513.738 356.354   7
   5   5   4 593.366 351.897   7
   5   5   5 1943.30 575.800   7
   5   5   6 178.367 341.501   7
   5   6 -15 606.994 400.279   1
   5   6 -14 2939.19 652.707   1
   5   6 -13 532.800 387.630   1
   5   6 -12 1085.50 392.236   1
   5   6 -11 916.188 390.909   1
   5   6 -10 50.5089 213.664   1
   5   6  -9 474.734 271.974   1
   5   6  -8 1594.52 423.104   1
   5   6  -7 312.904 229.056   1
   5   6  -6 1211.38 382.174   1
   5   6  -5-119.192 258.883   1
   5   6  -4 83.8000 200.717   1
   5   6  -4-11.4230 175.690   7
   5   6  -3 455.892 256.166   1
   5   6  -3-12.6650 178.079   7
   5   6  -2-208.802 246.781   1
   5   6  -2-643.713 276.104   7
   5   6  -1 371.904 229.476   7
   5   6  -1-94.4821 229.304   1
   5   6   0 945.505 358.843   7
   5   6   0 916.571 306.598   1
   5   6   1 541.174 316.037   7
   5   6   2 1232.51 436.296   7
   5   6   3 99.0114 352.628   7
   5   6   4 625.238 349.704   7
   5   6   5 1551.36 544.636   7
   5   7 -14 1251.20 495.541   1
   5   7 -13 828.813 382.588   1
   5   7 -12 588.288 374.976   1
   5   7 -11 1277.15 484.529   1
   5   7 -10 98.7367 284.976   1
   5   7  -9 236.549 288.141   1
   5   7  -8 840.584 369.256   1
   5   7  -7 1085.35 379.053   1
   5   7  -6-81.2868 238.407   1
   5   7  -5 605.297 305.399   1
   5   7  -4 192.931 212.829   1
   5   7  -3-99.3298 183.793   1
   5   7  -2-166.490 222.944   7
   5   7  -2-191.133 208.194   1
   5   7  -1 315.972 300.711   7
   5   7  -1 389.990 276.784   1
   5   7   0 207.433 232.267   1
   5   7   0 127.625 291.370   7
   5   7   1 1491.88 486.171   7
   5   7   2 107.525 255.686   7
   5   7   3 31.2375 258.839   7
   5   8 -12 839.211 356.070   1
   5   8 -11 2846.75 702.689   1
   5   8 -10 343.367 282.516   1
   5   8  -9 2815.60 632.382   1
   5   8  -8 538.079 363.350   1
   5   8  -7 1872.08 506.689   1
   5   8  -6 2323.77 525.086   1
   5   8  -5 1108.99 410.383   1
   5   8  -4 31.2108 228.432   1
   5   8  -3 257.529 274.597   1
   5   8  -2 220.998 274.553   1
   5   8  -1 172.394 256.236   1
   5   8   1 685.940 392.814   7
   5   8   2 1547.71 555.015   7
   5   9  -9-134.775 263.894   1
   5   9  -8-288.409 321.181   1
   5   9  -7 2014.64 582.093   1
   5   9  -6-183.114 265.732   1
   5   9  -5 111.470 244.174   1
   5   9  -4 6.76614 207.921   1
   5   9  -3 165.334 227.303   1
   5   9  -2-42.4687 222.500   1
   6 -13  -3 241.290 321.945   5
   6 -13  -2 236.688 326.318   5
   6 -13  -1-49.4932 341.177   5
   6 -13   0 25.8047 270.721   5
   6 -13   1 1329.85 493.812   5
   6 -13   2 152.643 262.954   5
   6 -13   3-1.16176 296.291   5
   6 -13   4 1091.41 447.025   5
   6 -13   5 394.907 303.085   5
   6 -13   6 698.057 350.455   5
   6 -12  -5-410.450 353.220   4
   6 -12  -4 430.728 319.241   4
   6 -12  -3-198.454 237.352   5
   6 -12  -2 925.393 405.836   5
   6 -12  -1 310.386 335.042   5
   6 -12   0 1829.67 493.379   5
   6 -12   1 418.206 289.700   5
   6 -12   2 1645.37 520.855   5
   6 -12   3 817.389 413.008   5
   6 -12   4 283.412 337.992   5
   6 -12   5 173.780 394.876   5
   6 -12   6 347.063 341.546   5
   6 -12   7 403.820 354.408   3
   6 -12   8 467.375 369.633   3
   6 -12   9 290.976 323.213   3
   6 -11  -8 301.062 403.105  10
   6 -11  -7 929.102 408.440  10
   6 -11  -7 137.936 259.481   4
   6 -11  -6 567.837 375.095  10
   6 -11  -6 409.960 360.828   4
   6 -11  -5 562.990 396.747  10
   6 -11  -5 485.606 373.265   4
   6 -11  -4 193.513 277.947  10
   6 -11  -4 158.952 216.964   5
   6 -11  -3 1183.51 429.275  10
   6 -11  -3 1443.05 474.158   5
   6 -11  -2-28.9625 251.099  10
   6 -11  -2 1094.00 455.410   5
   6 -11  -1 407.010 238.182  10
   6 -11  -1 894.363 335.940   5
   6 -11   0-130.320 211.827   5
   6 -11   1 677.960 400.679   5
   6 -11   2 1403.29 468.734   5
   6 -11   3 372.682 322.175   5
   6 -11   4 446.249 317.975   5
   6 -11   5 362.612 244.653   3
   6 -11   5 511.075 392.383   5
   6 -11   6 2216.28 530.308   3
   6 -11   7 503.194 357.550   3
   6 -11   8 1246.34 420.293   3
   6 -11   9 1119.32 450.822   3
   6 -11  10 867.586 482.482   3
   6 -10  -9 438.076 315.613  10
   6 -10  -9-254.357 320.182   4
   6 -10  -8 413.255 296.088  10
   6 -10  -8-769.491 388.818   4
   6 -10  -7 298.237 321.560  10
   6 -10  -7 562.827 299.844   4
   6 -10  -6 1973.80 524.829  10
   6 -10  -6 657.988 379.486   4
   6 -10  -5 882.878 410.090  10
   6 -10  -4 3990.24 613.514  10
   6 -10  -4 4232.69 689.370   5
   6 -10  -3 2066.30 436.140  10
   6 -10  -3 1979.68 477.678   5
   6 -10  -2 3630.35 561.964  10
   6 -10  -2 3053.72 577.215   5
   6 -10  -1 3808.44 539.081  10
   6 -10  -1 4099.48 663.224   5
   6 -10   0 435.718 245.712  10
   6 -10   0-77.6486 222.423   5
   6 -10   1 5055.64 728.205   5
   6 -10   1 5169.96 594.051  10
   6 -10   2 643.739 256.292  10
   6 -10   2 459.798 289.356   5
   6 -10   3 4207.90 532.477   3
   6 -10   3 4397.15 704.512   5
   6 -10   3 4753.05 561.286  10
   6 -10   4 575.302 312.747   3
   6 -10   4 241.321 388.258   5
   6 -10   5 2231.78 475.789   3
   6 -10   6 79.1135 243.145   3
   6 -10   7 1076.57 385.721   3
   6 -10   8 2930.61 598.286   3
   6 -10   9 1645.32 501.526   3
   6 -10  10 2829.83 677.125   3
   6 -10  11 680.560 471.279   3
   6  -9 -10 631.244 445.366  10
   6  -9 -10 252.939 275.209   4
   6  -9  -9 2.26801 314.703  10
   6  -9  -9-224.349 232.816   4
   6  -9  -8 377.913 343.248  10
   6  -9  -8-197.283 291.232   4
   6  -9  -7 186.206 266.310  10
   6  -9  -7-145.519 232.202   4
   6  -9  -6 286.758 312.810  10
   6  -9  -6-105.777 243.166   4
   6  -9  -5 2900.45 561.196  10
   6  -9  -4 154.145 258.851  10
   6  -9  -4 300.153 260.686   5
   6  -9  -3 4440.63 632.941  10
   6  -9  -3 4314.90 647.606   5
   6  -9  -2 336.362 198.434  10
   6  -9  -2 873.105 340.250   5
   6  -9  -1 92.7932 174.925  10
   6  -9  -1-119.507 179.370   5
   6  -9   0 161.467 234.354  10
   6  -9   0 14.8940 245.608   5
   6  -9   1 518.648 192.998   3
   6  -9   1 865.477 284.476  10
   6  -9   1 423.486 240.808   5
   6  -9   2 10.9374 157.147   3
   6  -9   2 337.714 226.130  10
   6  -9   2 359.587 270.242   5
   6  -9   3 249.784 223.241   3
   6  -9   3 94.8164 206.308  10
   6  -9   3 236.534 248.532   5
   6  -9   4 737.632 315.160   3
   6  -9   5-0.95033 214.485   3
   6  -9   6 1595.53 408.784   3
   6  -9   7 518.127 308.661   3
   6  -9   8 241.645 335.308   3
   6  -9   9 817.361 425.430   3
   6  -9  10 597.036 347.430   3
   6  -9  11-8.34373 261.468   3
   6  -8 -11 1569.74 593.061  10
   6  -8 -10 1026.40 511.748  10
   6  -8 -10 420.992 292.612   4
   6  -8  -9 581.602 445.275  10
   6  -8  -9 622.851 338.380   4
   6  -8  -8-49.9912 238.648  10
   6  -8  -8-133.799 227.873   4
   6  -8  -7 865.679 362.068  10
   6  -8  -7 471.524 262.415   4
   6  -8  -6 951.115 351.641  10
   6  -8  -5 233.963 290.535   5
   6  -8  -5 540.512 299.273  10
   6  -8  -4 1928.03 436.609  10
   6  -8  -4 2239.19 517.167   5
   6  -8  -3 718.948 285.639  10
   6  -8  -3 388.870 272.158   5
   6  -8  -2 191.486 224.286  10
   6  -8  -2 192.279 250.335   5
   6  -8  -1 349.066 222.678  10
   6  -8  -1 22.6736 227.488   5
   6  -8   0 2082.36 398.026  10
   6  -8   0 1865.48 402.023   5
   6  -8   0 1506.69 264.808   3
   6  -8   1 315.833 194.630   3
   6  -8   1 299.636 238.204  10
   6  -8   1 252.657 253.952   5
   6  -8   2 1139.87 278.492   3
   6  -8   2 1299.67 330.260  10
   6  -8   2 1619.22 433.775   5
   6  -8   3 105.820 156.367   3
   6  -8   4 4510.09 561.470   3
   6  -8   5 523.537 227.213   3
   6  -8   5 1209.61 286.571   7
   6  -8   6 2558.27 494.004   3
   6  -8   6 2833.38 416.597   7
   6  -8   7 94.1496 256.810   3
   6  -8   8 193.401 285.623   3
   6  -8   9 492.985 377.949   3
   6  -8  10 1605.63 529.901   3
   6  -8  11 675.342 376.251   3
   6  -7 -12 1048.04 475.194  10
   6  -7 -11 558.713 380.823  10
   6  -7 -10 550.376 358.751  10
   6  -7 -10 604.222 353.011   4
   6  -7  -9 2169.82 558.563  10
   6  -7  -9 1642.51 393.441   4
   6  -7  -8-56.5919 283.412  10
   6  -7  -8 96.9609 230.128   4
   6  -7  -7 4677.22 682.790  10
   6  -7  -6 416.061 315.787  10
   6  -7  -5 2307.40 464.249  10
   6  -7  -5 1827.52 423.374   5
   6  -7  -4-59.4187 201.575  10
   6  -7  -4-133.256 239.747   5
   6  -7  -3 917.870 301.116  10
   6  -7  -3 1171.85 343.050   5
   6  -7  -2 1237.37 372.348  10
   6  -7  -2 828.233 335.821   5
   6  -7  -1 4546.30 545.514  10
   6  -7  -1 4204.42 562.959   5
   6  -7   0 3380.31 514.887   5
   6  -7   0 3353.25 376.944   3
   6  -7   0 4772.72 551.482  10
   6  -7   1 2489.78 417.344  10
   6  -7   1 2318.51 434.228   5
   6  -7   1 2418.55 350.649   3
   6  -7   2 6509.66 713.550   5
   6  -7   2 6394.74 585.324   3
   6  -7   2 6581.54 640.116  10
   6  -7   3 2339.46 391.219   3
   6  -7   4 1721.62 370.172   3
   6  -7   4 2341.74 399.820   7
   6  -7   5 2958.75 496.487   3
   6  -7   5 2657.50 388.449   7
   6  -7   6 155.930 217.671   3
   6  -7   6 123.439 203.991   7
   6  -7   7 981.791 311.058   3
   6  -7   7 963.113 289.593   7
   6  -7   8 341.783 235.438   3
   6  -7   8 546.339 244.547   7
   6  -7   9 494.620 306.802   3
   6  -7  10 546.646 414.134   3
   6  -7  11 771.461 445.104   3
   6  -7  12 592.581 375.527   3
   6  -6 -13 890.545 450.516  10
   6  -6 -12 1196.00 470.142  10
   6  -6 -11 403.436 392.989  10
   6  -6 -10 2957.15 603.692  10
   6  -6 -10 2272.85 438.787   4
   6  -6  -9 2466.53 561.293  10
   6  -6  -9 2427.95 460.577   4
   6  -6  -8 4081.87 639.309  10
   6  -6  -8 2901.61 436.644   4
   6  -6  -7 3001.71 543.208  10
   6  -6  -6 3180.89 520.721  10
   6  -6  -5 6399.99 700.653   5
   6  -6  -5 6694.96 718.007  10
   6  -6  -4 200.922 219.161  10
   6  -6  -4 20.7046 192.555   5
   6  -6  -3 12550.1 906.216   5
   6  -6  -3 12841.5 923.428  10
   6  -6  -2 684.142 281.309  10
   6  -6  -2 470.007 173.169   5
   6  -6  -1 15390.1 985.903   5
   6  -6  -1 16402.4 982.646  10
   6  -6   0 2560.66 443.949  10
   6  -6   0 2930.80 451.184   5
   6  -6   0 2674.15 336.433   3
   6  -6   1 13503.8 938.983   5
   6  -6   1 13987.6 814.032   3
   6  -6   1 14026.1 920.254  10
   6  -6   2 1277.17 344.015  10
   6  -6   2 1595.21 330.533   3
   6  -6   3 2738.58 447.417   3
   6  -6   4 3998.20 547.933   3
   6  -6   4 3555.45 467.573   7
   6  -6   5 568.824 314.730   3
   6  -6   5 634.595 228.490   7
   6  -6   6 145.238 188.643   3
   6  -6   6 676.599 249.826   7
   6  -6   7 377.447 247.707   3
   6  -6   7 686.259 266.617   7
   6  -6   8-301.813 241.029   3
   6  -6   8 384.141 239.561   7
   6  -6   9 337.330 285.289   3
   6  -6   9 630.874 260.996   7
   6  -6  10 370.618 361.238   3
   6  -6  11-40.0342 232.497   3
   6  -6  12 689.489 463.912   3
   6  -5 -14 1080.83 436.544  10
   6  -5 -13 1103.92 453.478  10
   6  -5 -12 1013.39 496.547  10
   6  -5 -11 1780.64 571.405  10
   6  -5 -10 539.608 275.480  10
   6  -5  -9 1446.62 432.531  10
   6  -5  -9 966.322 277.292   4
   6  -5  -8 776.879 327.401  10
   6  -5  -8 1432.59 313.391   4
   6  -5  -7 2532.46 506.385  10
   6  -5  -6 884.506 336.147  10
   6  -5  -5 1541.61 374.389  10
   6  -5  -5 350.792 197.992   5
   6  -5  -4 726.535 280.879  10
   6  -5  -4 888.064 288.888   5
   6  -5  -3 777.138 304.320  10
   6  -5  -3 1015.65 306.707   5
   6  -5  -2 12.2298 192.634  10
   6  -5  -2-23.9606 181.897   5
   6  -5  -1 1249.39 349.141  10
   6  -5  -1 1181.35 286.725   5
   6  -5   0 524.509 290.246  10
   6  -5   0 392.536 210.568   5
   6  -5   1 605.133 224.667  10
   6  -5   1 1017.56 299.271   5
   6  -5   1 1347.94 293.735   3
   6  -5   2 306.949 230.047   3
   6  -5   3 1113.41 322.402   7
   6  -5   3 881.949 297.442   3
   6  -5   4 768.822 226.181   7
   6  -5   4 975.106 322.628   3
   6  -5   5 170.411 204.296   3
   6  -5   5-119.718 176.438   7
   6  -5   6 609.076 302.547   3
   6  -5   6 452.891 248.565   7
   6  -5   7 4502.67 663.237   3
   6  -5   7 3659.80 518.751   7
   6  -5   8 1061.98 364.271   3
   6  -5   8 572.919 281.588   7
   6  -5   9 2604.84 593.947   3
   6  -5   9 2550.36 471.523   7
   6  -5  10 109.658 233.624   7
   6  -5  10 382.206 316.506   3
   6  -5  11 670.297 392.898   3
   6  -5  12 266.128 337.091   3
   6  -4 -14 573.150 388.346  10
   6  -4 -13 420.790 348.546  10
   6  -4 -12 884.445 390.274  10
   6  -4 -11 162.195 266.144  10
   6  -4 -10 743.154 327.013  10
   6  -4  -9 1051.70 344.168  10
   6  -4  -9 205.066 158.471   4
   6  -4  -8 1399.65 394.244  10
   6  -4  -8 756.175 224.970   4
   6  -4  -7 638.090 287.274  10
   6  -4  -6 166.996 232.904  10
   6  -4  -5 4413.70 590.639  10
   6  -4  -4 493.022 269.727  10
   6  -4  -4 428.410 219.030   5
   6  -4  -3 3358.83 454.127  10
   6  -4  -3 3210.95 430.138   5
   6  -4  -2 4136.96 498.278  10
   6  -4  -2 4690.40 494.331   5
   6  -4  -1 1266.78 307.145  10
   6  -4  -1 852.563 240.653   5
   6  -4   0 3885.80 493.952  10
   6  -4   0 4249.23 480.369   5
   6  -4   1 6834.00 646.975  10
   6  -4   2 3616.72 485.289   7
   6  -4   2 3663.14 462.214   3
   6  -4   3 380.069 244.179   7
   6  -4   3 7.35099 180.366   3
   6  -4   4 318.790 237.438   7
   6  -4   4 280.086 186.687   3
   6  -4   5 210.452 219.034   7
   6  -4   5 23.3997 172.244   3
   6  -4   6 5828.01 629.646   7
   6  -4   6 5924.47 704.857   3
   6  -4   7 885.700 303.654   7
   6  -4   7 163.259 259.763   3
   6  -4   8 6370.45 721.979   7
   6  -4   8 7746.37 887.340   3
   6  -4   9 2284.80 493.243   7
   6  -4   9 2101.73 524.021   3
   6  -4  10 276.148 288.837   7
   6  -4  10 447.427 318.584   3
   6  -4  11 2058.47 533.869   7
   6  -4  11 2270.40 640.123   3
   6  -3 -15 867.061 453.707  10
   6  -3 -14 93.6735 242.626  10
   6  -3 -13 1336.45 436.239  10
   6  -3 -12 523.094 298.276  10
   6  -3 -11 2560.09 572.969  10
   6  -3 -10 459.498 287.047  10
   6  -3  -9 1194.18 417.931  10
   6  -3  -8 394.153 247.383  10
   6  -3  -7 6021.49 674.612  10
   6  -3  -6 11125.3 880.777  10
   6  -3  -5 3912.63 525.242  10
   6  -3  -4 16075.1 901.567   5
   6  -3  -4 16138.0 965.544  10
   6  -3  -3 541.288 284.801  10
   6  -3  -3 52.8622 137.908   5
   6  -3  -2 6141.55 514.595   5
   6  -3  -2 6246.19 600.151  10
   6  -3  -1 3340.20 461.863  10
   6  -3  -1 3397.74 398.783   5
   6  -3   0 12184.2 711.555   5
   6  -3   0 10465.2 780.644  10
   6  -3   1 2441.11 408.874   7
   6  -3   2 2727.26 451.235   7
   6  -3   3 1207.63 330.605   7
   6  -3   3 999.243 285.869   3
   6  -3   4 253.909 190.122   7
   6  -3   4-272.487 274.312   3
   6  -3   5 700.296 284.064   7
   6  -3   5 219.408 204.220   3
   6  -3   6 275.450 216.584   7
   6  -3   6-57.9485 220.337   3
   6  -3   7 3271.52 532.849   7
   6  -3   7 4561.81 678.538   3
   6  -3   8 381.797 315.827   7
   6  -3   8-63.6116 224.396   3
   6  -3   9 77.7589 301.703   7
   6  -3   9-262.637 303.856   3
   6  -3  10 484.161 339.572   7
   6  -3  10 202.354 306.243   3
   6  -3  11 725.942 354.634   7
   6  -3  11 746.779 410.635   3
   6  -3  12 607.071 357.201   7
   6  -2 -16 604.756 408.184  10
   6  -2 -15-90.5722 274.061  10
   6  -2 -14 1145.82 430.100  10
   6  -2 -13 526.719 340.836  10
   6  -2 -12 3325.75 593.334  10
   6  -2 -11 1987.80 492.027  10
   6  -2 -10 775.893 346.521  10
   6  -2  -9 608.953 280.669  10
   6  -2  -8 1738.41 392.407  10
   6  -2  -7 9154.47 828.932  10
   6  -2  -6 1227.60 346.487  10
   6  -2  -5 16014.6 962.678  10
   6  -2  -4 475.893 244.870  10
   6  -2  -3 6782.09 516.450   5
   6  -2  -3 6483.33 606.135  10
   6  -2  -2 5669.83 458.108   5
   6  -2  -2 5740.28 564.045  10
   6  -2  -1 1601.70 316.356  10
   6  -2  -1 1796.65 271.636   5
   6  -2   0 6398.02 484.063   5
   6  -2   0 5801.09 589.811   7
   6  -2   1 863.662 292.376   7
   6  -2   2 344.533 101.778   1
   6  -2   2 292.771 234.246   7
   6  -2   3 451.496 210.749   7
   6  -2   4 234.538 267.127   7
   6  -2   5 658.877 275.107   7
   6  -2   6 1805.26 417.189   7
   6  -2   7 266.970 236.387   7
   6  -2   8 10.8194 232.090   7
   6  -2   9 1027.90 415.505   7
   6  -2  10 347.486 402.353   7
   6  -2  11 5.83425 274.296   7
   6  -1 -16 96.9500 284.696  10
   6  -1 -15 20.9893 257.910  10
   6  -1 -14 464.879 351.900  10
   6  -1 -13 7.19628 254.561  10
   6  -1 -12 297.611 241.232  10
   6  -1 -11-96.0381 199.803  10
   6  -1 -10 762.815 285.127  10
   6  -1  -9 634.190 288.224  10
   6  -1  -8 832.206 318.028  10
   6  -1  -7 9.12724 218.288  10
   6  -1  -6 1379.51 322.753  10
   6  -1  -5 281.996 217.468  10
   6  -1  -4 569.647 243.410  10
   6  -1  -3 422.799 219.579  10
   6  -1  -2 4305.83 360.556   5
   6  -1  -2 3735.15 466.531  10
   6  -1  -1 1509.95 221.947   5
   6  -1  -1 1327.37 355.373   7
   6  -1   0 5355.42 398.500   5
   6  -1   0 5697.35 612.688   7
   6  -1   0 4693.46 393.414   1
   6  -1   1 3572.79 302.560   1
   6  -1   1 3927.83 526.352   7
   6  -1   2 162.960 80.1190   1
   6  -1   2 399.339 264.688   7
   6  -1   3 4507.17 574.455   7
   6  -1   4 146.853 228.863   7
   6  -1   5 613.688 328.255   7
   6  -1   6 167.801 193.082   7
   6  -1   7 393.377 301.418   7
   6  -1   8 1241.84 449.312   7
   6  -1   9 1049.33 443.614   7
   6  -1  10 1187.69 473.600   7
   6  -1  11-46.2692 310.601   7
   6   0 -17 172.918 282.259  10
   6   0 -16 419.944 374.146  10
   6   0 -15 313.549 326.587  10
   6   0 -14-50.9681 225.633  10
   6   0 -13 876.604 379.653  10
   6   0 -12 379.402 238.585  10
   6   0 -11 930.482 353.797  10
   6   0 -10 356.889 266.777  10
   6   0  -9 2036.05 419.231  10
   6   0  -8 932.151 275.920  10
   6   0  -7 583.207 273.873  10
   6   0  -6 3174.95 440.966  10
   6   0  -5 83.8949 158.321  10
   6   0  -4 7410.38 636.566  10
   6   0  -3 4778.69 507.336   1
   6   0  -3 5169.77 548.429  10
   6   0  -2 3446.34 488.319   7
   6   0  -2 3996.54 433.237   1
   6   0  -1 7811.57 383.217   5
   6   0  -1 6864.04 638.380   7
   6   0  -1 6153.18 485.376   1
   6   0   0 6101.36 349.055   5
   6   0   0 6256.78 634.965   7
   6   0   0 5191.39 416.821   1
   6   0   1 229.784 111.856   5
   6   0   1 289.293 127.955   1
   6   0   1 438.124 264.797   7
   6   0   2 13221.7 958.384   7
   6   0   3 993.169 344.710   7
   6   0   4 5651.01 704.126   7
   6   0   5 866.208 359.297   7
   6   0   6 250.369 267.764   7
   6   0   7 2581.62 564.446   7
   6   0   8-31.8636 287.937   7
   6   0   9 1033.85 401.903   7
   6   0  10 1232.82 495.440   7
   6   1 -16 573.742 350.622   1
   6   1 -15 1262.42 391.465  10
   6   1 -15 2909.08 627.849   1
   6   1 -14 837.132 378.000  10
   6   1 -13 1868.37 459.895  10
   6   1 -12 590.765 259.070  10
   6   1 -11 1920.61 433.597  10
   6   1 -10 7958.26 747.079  10
   6   1  -9 1103.39 322.150  10
   6   1  -8 2811.63 430.187  10
   6   1  -7 76.1432 163.099  10
   6   1  -7 450.152 267.932   1
   6   1  -6 1385.37 306.585  10
   6   1  -6 1293.04 336.427   1
   6   1  -5 636.168 243.867  10
   6   1  -5 221.731 219.990   1
   6   1  -4 7036.71 621.839   7
   6   1  -4 6785.14 616.056   1
   6   1  -4 7265.90 621.448  10
   6   1  -3-126.903 142.131   1
   6   1  -3 254.741 198.334   7
   6   1  -2 3142.00 388.809   1
   6   1  -2 3329.90 482.700   7
   6   1  -1 23.0621 156.058   1
   6   1  -1 65.8242 185.525   7
   6   1   0 105.443 219.184   7
   6   1   0 86.9112 127.249   1
   6   1   1 3966.97 369.602   1
   6   1   1 4129.24 563.484   7
   6   1   2 1229.00 349.194   7
   6   1   3 2469.42 482.534   7
   6   1   4 514.278 305.854   7
   6   1   5 751.093 347.145   7
   6   1   6 473.735 306.196   7
   6   1   7 832.667 465.209   7
   6   1   8 528.885 352.963   7
   6   1   9 620.317 375.381   7
   6   2 -16 2355.09 634.946   1
   6   2 -15 570.905 349.329   1
   6   2 -14 1125.34 413.075   1
   6   2 -13 638.994 352.827   1
   6   2 -12 1577.96 386.536  10
   6   2 -12 1477.79 424.671   1
   6   2 -11 8098.60 883.240   1
   6   2 -11 7535.75 730.641  10
   6   2 -10 431.482 255.389  10
   6   2 -10 463.093 289.140   1
   6   2  -9 4756.93 654.780   1
   6   2  -9 4317.21 521.355  10
   6   2  -8 7.92787 185.996   1
   6   2  -8 605.735 223.223  10
   6   2  -7 347.920 203.698  10
   6   2  -7 490.853 266.563   1
   6   2  -6 1001.88 267.035  10
   6   2  -6 527.507 222.326   1
   6   2  -6 1005.34 303.404   7
   6   2  -5 181.724 204.843   1
   6   2  -5 459.712 178.839  10
   6   2  -5 298.155 227.118   7
   6   2  -4 244.867 171.887   1
   6   2  -4 535.543 224.378   7
   6   2  -3 528.371 212.611   1
   6   2  -3 640.811 233.825   7
   6   2  -2 1064.20 261.772   1
   6   2  -2 971.278 317.754   7
   6   2  -1 55.8854 121.901   1
   6   2  -1 258.442 202.023   7
   6   2   0 252.108 147.618   1
   6   2   0-78.5821 173.349   7
   6   2   1 919.315 226.418   1
   6   2   1 349.223 266.115   7
   6   2   2 2864.13 501.561   7
   6   2   3 530.291 304.556   7
   6   2   4 148.115 277.183   7
   6   2   5 719.003 356.669   7
   6   2   6 144.543 266.940   7
   6   2   7 659.841 424.329   7
   6   2   8 1032.93 475.435   7
   6   3 -16 927.936 435.261   1
   6   3 -15 551.850 307.569   1
   6   3 -14 1649.05 512.056   1
   6   3 -13 476.321 361.653   1
   6   3 -12 61.3690 232.216   1
   6   3 -11 193.787 212.366   1
   6   3 -10 8.52495 215.069   1
   6   3  -9 125.689 267.164   1
   6   3  -8 4592.31 637.813   1
   6   3  -8 5611.04 565.287   7
   6   3  -8 6247.57 570.007  10
   6   3  -7 47.8332 135.958  10
   6   3  -7-72.5859 175.568   7
   6   3  -7-27.3578 218.310   1
   6   3  -6 4119.94 571.864   1
   6   3  -6 5309.80 556.917   7
   6   3  -5 128.735 177.391   1
   6   3  -5 197.388 172.837   7
   6   3  -4 2069.40 394.761   1
   6   3  -4 1431.55 331.985   7
   6   3  -3 4135.54 512.895   1
   6   3  -3 4604.95 569.543   7
   6   3  -2 82.4876 154.714   1
   6   3  -2 248.293 229.914   7
   6   3  -1 2509.35 383.845   1
   6   3  -1 2247.93 438.050   7
   6   3   0 789.931 247.494   1
   6   3   0 1219.96 383.645   7
   6   3   1 249.336 248.342   7
   6   3   2-31.5060 205.900   7
   6   3   3 1064.53 399.453   7
   6   3   4 593.137 377.339   7
   6   3   5 2147.06 596.368   7
   6   3   6 220.785 291.075   7
   6   3   7 1052.21 525.980   7
   6   4 -15 1021.15 419.302   1
   6   4 -14-402.250 331.881   1
   6   4 -13 332.675 266.778   1
   6   4 -12-24.8273 211.236   1
   6   4 -11 239.151 215.180   1
   6   4 -10 956.713 324.396   1
   6   4  -9 734.274 250.290   1
   6   4  -8 1181.39 409.173   1
   6   4  -7 6339.83 605.276   7
   6   4  -7 5115.42 680.938   1
   6   4  -6 934.989 363.457   1
   6   4  -6 1582.48 329.352   7
   6   4  -5 2843.87 418.406   7
   6   4  -5 1591.12 389.097   1
   6   4  -4 6315.61 682.660   1
   6   4  -4 6240.90 630.356   7
   6   4  -3 629.029 303.430   1
   6   4  -3 858.652 302.858   7
   6   4  -2 5780.74 617.124   1
   6   4  -2 4749.06 601.632   7
   6   4  -1 117.015 153.618   1
   6   4  -1 18.6091 191.543   7
   6   4   0 1911.95 375.419   1
   6   4   0 1739.94 438.916   7
   6   4   1 591.613 276.679   7
   6   4   2 347.537 289.341   7
   6   4   3 2185.65 583.135   7
   6   4   4 802.858 388.240   7
   6   4   5 565.503 365.264   7
   6   4   6 2259.78 635.305   7
   6   5 -14 1098.70 406.685   1
   6   5 -13 955.502 398.521   1
   6   5 -12 337.360 298.855   1
   6   5 -11 204.406 238.376   1
   6   5 -10 667.702 353.263   1
   6   5  -9 140.641 270.067   1
   6   5  -8 3188.52 579.298   1
   6   5  -7-72.8476 261.543   1
   6   5  -6 2217.28 465.987   1
   6   5  -5 314.634 242.643   1
   6   5  -5 280.982 218.948   7
   6   5  -4 166.383 210.672   1
   6   5  -4 248.114 215.148   7
   6   5  -3 395.842 237.405   1
   6   5  -3-222.381 188.688   7
   6   5  -2 369.051 232.515   1
   6   5  -2 342.822 230.907   7
   6   5  -1 77.2743 171.653   1
   6   5  -1 178.413 251.168   7
   6   5   0 404.639 279.045   7
   6   5   1 658.951 337.678   7
   6   5   2 162.357 284.440   7
   6   5   3 59.4746 268.253   7
   6   5   4 654.928 408.904   7
   6   6 -13 569.214 368.661   1
   6   6 -12 477.298 302.119   1
   6   6 -11 157.213 258.715   1
   6   6 -10 35.3216 254.467   1
   6   6  -9 408.932 337.007   1
   6   6  -8 255.456 343.962   1
   6   6  -7 1761.94 467.568   1
   6   6  -6 179.238 208.926   1
   6   6  -5 3.38947 185.976   1
   6   6  -4 10.4105 195.164   1
   6   6  -3 153.776 241.360   1
   6   6  -3 165.518 199.254   7
   6   6  -2-48.3767 163.082   1
   6   6  -2 181.251 229.121   7
   6   6  -1 350.367 293.602   7
   6   6   0 1442.44 431.491   7
   6   6   1 720.637 363.212   7
   6   6   2 712.847 394.807   7
   6   6   3 1094.25 504.802   7
   6   7 -12 1461.45 488.427   1
   6   7 -11 373.464 325.829   1
   6   7 -10 1006.18 413.055   1
   6   7  -9 150.111 305.999   1
   6   7  -8 416.691 304.479   1
   6   7  -7 1170.47 408.244   1
   6   7  -6 612.948 318.461   1
   6   7  -5 1071.88 404.821   1
   6   7  -4 271.149 266.551   1
   6   7  -3 48.6820 223.305   1
   6   7  -2 176.227 185.710   1
   6   7  -1 393.573 268.065   7
   6   7   0 1211.30 433.841   7
   6   7   1 889.942 434.928   7
   6   8  -9 351.534 273.936   1
   6   8  -8 1362.56 467.318   1
   6   8  -7-448.966 386.506   1
   6   8  -6 997.182 409.005   1
   6   8  -5-186.133 249.072   1
   6   8  -4 387.875 335.238   1
   6   8  -3 35.7776 217.697   1
   7 -13  -2-329.815 325.630   5
   7 -13  -1 769.020 397.972   5
   7 -13   0 1297.18 447.193   5
   7 -13   1 1272.33 443.590   5
   7 -13   2 836.848 396.256   5
   7 -13   3-550.733 324.985   5
   7 -13   4 96.8082 241.874   5
   7 -13   5 863.925 598.194   5
   7 -12  -6 151.689 357.314  10
   7 -12  -5-111.285 300.738   4
   7 -12  -4-212.284 326.049   5
   7 -12  -3 190.610 308.142   5
   7 -12  -2 607.692 439.693   5
   7 -12  -1 909.911 395.513   5
   7 -12   0 277.334 304.607   5
   7 -12   1 95.9767 327.533   5
   7 -12   2 329.557 323.016   5
   7 -12   3 877.913 473.154   5
   7 -12   4 677.249 374.968   5
   7 -12   5 493.511 337.928   5
   7 -12   6-96.4769 355.288   5
   7 -12   7 521.078 389.896   5
   7 -12   8 957.270 422.037   3
   7 -12   9 162.592 297.128   3
   7 -11  -8 909.328 480.934  10
   7 -11  -7 226.053 269.925  10
   7 -11  -7 256.156 293.731   4
   7 -11  -6 174.515 344.581  10
   7 -11  -6 411.813 264.848   4
   7 -11  -5 885.377 392.168  10
   7 -11  -4 2194.49 533.464  10
   7 -11  -4 1482.81 462.484   5
   7 -11  -3 1258.69 380.597  10
   7 -11  -3 1240.21 466.836   5
   7 -11  -2 1043.63 347.112  10
   7 -11  -2 715.597 375.715   5
   7 -11  -1 9.83017 223.089  10
   7 -11  -1 412.262 296.811   5
   7 -11   0 1253.54 354.255  10
   7 -11   0 1455.53 471.499   5
   7 -11   1 84.4962 192.009  10
   7 -11   1 302.270 285.222   5
   7 -11   2 4507.48 755.812   5
   7 -11   3 261.762 351.535   5
   7 -11   4 3545.99 726.083   5
   7 -11   5-209.054 231.822   3
   7 -11   5-150.880 350.080   5
   7 -11   6 906.774 350.361   3
   7 -11   7 2211.35 547.376   3
   7 -11   8-10.5624 270.426   3
   7 -11   9 1255.63 449.284   3
   7 -10  -9 285.160 311.986  10
   7 -10  -9 707.054 357.606   4
   7 -10  -8 1049.67 430.770  10
   7 -10  -8 284.345 334.236   4
   7 -10  -7-171.757 300.628  10
   7 -10  -7 31.1455 219.298   4
   7 -10  -6 1016.98 399.177  10
   7 -10  -5 1141.90 412.960  10
   7 -10  -5 2011.58 503.148   5
   7 -10  -4 704.032 387.288  10
   7 -10  -4 1108.34 383.241   5
   7 -10  -3 2025.75 459.967  10
   7 -10  -3 1935.77 530.176   5
   7 -10  -2-302.964 251.658  10
   7 -10  -2 151.068 258.559   5
   7 -10  -1 675.026 327.091  10
   7 -10  -1 527.734 341.061   5
   7 -10   0 257.893 228.235  10
   7 -10   0 26.7448 234.682   5
   7 -10   1 534.790 274.017  10
   7 -10   1 867.933 358.180   5
   7 -10   2 155.749 198.027  10
   7 -10   2 399.423 322.509   5
   7 -10   3 1865.76 404.619   3
   7 -10   3 1739.11 503.734   5
   7 -10   4 257.477 222.315   3
   7 -10   4 14.5273 238.358   5
   7 -10   5-210.837 208.169   3
   7 -10   6 780.957 316.081   3
   7 -10   7-44.8509 218.730   3
   7 -10   8 1843.49 519.677   3
   7 -10   9 161.084 275.438   3
   7 -10  10-539.828 332.867   3
   7  -9 -10 843.801 470.502  10
   7  -9  -9 3024.89 694.300  10
   7  -9  -9 2302.06 528.391   4
   7  -9  -8 641.973 331.978  10
   7  -9  -8 321.306 301.248   4
   7  -9  -7 1827.95 533.814  10
   7  -9  -7 1814.98 444.628   4
   7  -9  -6 860.812 381.373  10
   7  -9  -5 3967.91 670.636  10
   7  -9  -5 5243.35 747.358   5
   7  -9  -4 2379.41 482.775  10
   7  -9  -4 2127.54 516.095   5
   7  -9  -3 1855.20 474.122  10
   7  -9  -3 1114.75 378.727   5
   7  -9  -2 381.031 295.858  10
   7  -9  -2 57.2545 267.237   5
   7  -9  -1 330.102 319.638  10
   7  -9  -1 346.674 337.484   5
   7  -9   0 1735.54 399.616  10
   7  -9   0 1696.22 439.488   5
   7  -9   1 653.981 293.581  10
   7  -9   1 689.399 286.016   5
   7  -9   1 859.081 253.742   3
   7  -9   2-64.1519 211.656  10
   7  -9   2-34.3885 146.537   3
   7  -9   3 855.258 284.615   3
   7  -9   3 1022.15 360.439   5
   7  -9   4 320.342 199.801   3
   7  -9   5 266.571 225.835   3
   7  -9   5 197.120 240.301   7
   7  -9   6 159.324 213.845   3
   7  -9   7 291.147 317.078   3
   7  -9   8-42.2731 278.800   3
   7  -9   9-546.037 351.792   3
   7  -9  10-302.152 318.919   3
   7  -8 -11 91.0936 347.571  10
   7  -8 -10 1044.36 462.447  10
   7  -8  -9 229.986 365.971  10
   7  -8  -9 212.669 242.377   4
   7  -8  -8 316.431 352.190  10
   7  -8  -8-121.652 246.385   4
   7  -8  -7 604.389 364.243  10
   7  -8  -6-87.5404 268.387  10
   7  -8  -5 628.300 344.576  10
   7  -8  -5 1036.10 345.896   5
   7  -8  -4 491.685 311.116  10
   7  -8  -4 1090.75 371.480   5
   7  -8  -3 363.665 260.715  10
   7  -8  -3 911.463 356.566   5
   7  -8  -2 274.066 255.154  10
   7  -8  -2 312.287 273.043   5
   7  -8  -1 4260.15 573.901  10
   7  -8  -1 3112.31 526.368   5
   7  -8   0-247.116 182.275  10
   7  -8   0 163.548 244.851   5
   7  -8   0 5.44052 121.457   3
   7  -8   1 1605.02 392.956  10
   7  -8   1 2364.43 510.660   5
   7  -8   1 2121.46 364.138   3
   7  -8   2 762.510 315.221  10
   7  -8   2 877.983 324.846   5
   7  -8   2 1161.40 306.360   3
   7  -8   3-105.803 185.242   3
   7  -8   3 342.033 275.679   5
   7  -8   4 3371.63 530.026   3
   7  -8   4 2979.61 464.082   7
   7  -8   5 3.29775 201.935   3
   7  -8   5 124.432 179.861   7
   7  -8   6 667.110 295.160   3
   7  -8   6 896.038 295.640   7
   7  -8   7 375.707 262.860   3
   7  -8   8 428.238 289.912   3
   7  -8   9 577.747 376.147   3
   7  -8  10 2585.61 616.742   3
   7  -7 -12-708.090 376.687  10
   7  -7 -11 1908.42 550.794  10
   7  -7 -10 1378.22 512.305  10
   7  -7  -9 1256.43 431.856  10
   7  -7  -9 1312.86 369.215   4
   7  -7  -8 3338.56 657.556  10
   7  -7  -8 1651.41 384.126   4
   7  -7  -7 2042.02 513.301  10
   7  -7  -6 681.652 361.270  10
   7  -7  -5 1396.70 436.840  10
   7  -7  -5 1029.93 337.898   5
   7  -7  -4 2478.14 490.101  10
   7  -7  -4 2872.25 520.265   5
   7  -7  -3 292.472 252.148  10
   7  -7  -3 3.09414 169.335   5
   7  -7  -2 13480.2 1011.77   5
   7  -7  -2 13473.6 982.443  10
   7  -7  -1 110.979 177.291  10
   7  -7  -1 338.156 251.093   5
   7  -7   0 8722.05 821.585   5
   7  -7   0 9456.25 830.790  10
   7  -7   1 2361.32 449.020  10
   7  -7   1 2514.98 474.585   5
   7  -7   1 2163.28 350.853   3
   7  -7   2 2231.70 449.836  10
   7  -7   2 1817.24 378.228   5
   7  -7   2 2200.19 396.233   3
   7  -7   3 9933.49 814.104   3
   7  -7   4 448.754 277.243   7
   7  -7   4 630.146 321.576   3
   7  -7   5 2471.92 517.090   3
   7  -7   5 1821.08 377.985   7
   7  -7   6 432.447 313.622   3
   7  -7   6 817.851 309.793   7
   7  -7   7 1182.01 403.138   3
   7  -7   7 715.988 286.330   7
   7  -7   8 669.417 326.666   3
   7  -7   8 520.539 237.598   7
   7  -7   9 1131.13 498.859   3
   7  -7  10 655.500 411.578   3
   7  -6 -13 1022.43 487.771  10
   7  -6 -12 745.135 447.990  10
   7  -6 -11-71.7611 387.466  10
   7  -6 -10 796.866 430.072  10
   7  -6  -9 3263.80 638.372  10
   7  -6  -9 2467.36 422.797   4
   7  -6  -8 17.2152 234.522  10
   7  -6  -7 634.850 383.712  10
   7  -6  -6 866.658 319.551  10
   7  -6  -5 2715.52 511.418  10
   7  -6  -5 1990.36 424.162   5
   7  -6  -4-322.191 266.977  10
   7  -6  -4 54.2926 176.510   5
   7  -6  -3 7115.85 716.238   5
   7  -6  -3 7103.45 731.409  10
   7  -6  -2 200.466 224.675  10
   7  -6  -2 227.202 192.855   5
   7  -6  -1 3748.63 524.041  10
   7  -6  -1 4800.62 592.126   5
   7  -6   0 266.587 211.063  10
   7  -6   0 27.7688 173.737   5
   7  -6   1 198.968 232.836  10
   7  -6   1 51.0596 176.093   5
   7  -6   1 14.6105 144.178   3
   7  -6   2 1939.92 395.028   5
   7  -6   2 1960.31 360.030   3
   7  -6   3 2667.76 460.875   7
   7  -6   3 3111.09 504.033   3
   7  -6   4 1017.13 344.431   7
   7  -6   4 673.812 291.936   3
   7  -6   5 153.520 190.013   7
   7  -6   5 868.454 344.264   3
   7  -6   6-64.1457 181.138   7
   7  -6   6 751.799 330.475   3
   7  -6   7-323.433 232.490   7
   7  -6   7 352.216 269.876   3
   7  -6   8 209.959 237.004   7
   7  -6   8 960.633 383.738   3
   7  -6   9 90.0050 262.667   7
   7  -6   9 198.650 310.966   3
   7  -6  10 616.579 420.872   3
   7  -5 -14-104.449 329.591  10
   7  -5 -13 1223.88 479.038  10
   7  -5 -12 534.054 402.222  10
   7  -5 -11 1055.64 417.744  10
   7  -5 -10 2311.10 591.715  10
   7  -5  -9 224.170 285.607  10
   7  -5  -8 103.528 280.532  10
   7  -5  -7 447.193 310.374  10
   7  -5  -6 334.572 238.765  10
   7  -5  -5 704.534 288.239  10
   7  -5  -5 171.970 176.628   5
   7  -5  -4 393.941 260.683  10
   7  -5  -4 76.7603 167.699   5
   7  -5  -3 1480.69 383.674  10
   7  -5  -3 1542.61 346.450   5
   7  -5  -2 593.352 274.452  10
   7  -5  -2 1106.94 297.639   5
   7  -5  -1 1295.60 357.486  10
   7  -5  -1 1066.31 300.803   5
   7  -5   0 167.400 191.065  10
   7  -5   0 76.6475 165.634   5
   7  -5   1 681.637 276.205  10
   7  -5   1 881.075 278.497   5
   7  -5   2 1507.05 354.394   7
   7  -5   2 1548.62 351.631   3
   7  -5   3 2215.49 424.344   7
   7  -5   3 2238.96 417.813   3
   7  -5   4 78.4356 180.307   7
   7  -5   4-29.9374 194.914   3
   7  -5   5 5398.12 650.439   7
   7  -5   5 6286.77 746.854   3
   7  -5   6 1075.69 342.451   7
   7  -5   6 1618.78 460.697   3
   7  -5   7 4868.85 655.549   7
   7  -5   7 6297.35 814.092   3
   7  -5   8 1448.55 399.015   7
   7  -5   8 1441.08 444.385   3
   7  -5   9 1103.08 419.424   7
   7  -5   9 940.250 369.738   3
   7  -5  10 514.912 340.533   7
   7  -5  10 980.573 402.094   3
   7  -4 -14-136.929 305.394  10
   7  -4 -13 200.835 391.578  10
   7  -4 -12 1050.62 445.841  10
   7  -4 -11 68.3349 224.942  10
   7  -4 -10 1598.73 434.326  10
   7  -4  -9 200.504 299.043  10
   7  -4  -8 1933.51 454.753  10
   7  -4  -7 4873.88 654.568  10
   7  -4  -6 251.151 265.827  10
   7  -4  -5 5593.94 617.291   5
   7  -4  -5 5612.51 657.218  10
   7  -4  -4 383.505 255.999  10
   7  -4  -4 299.903 226.246   5
   7  -4  -3 1866.62 416.301  10
   7  -4  -3 1432.81 318.295   5
   7  -4  -2 1464.22 374.067  10
   7  -4  -2 797.459 254.932   5
   7  -4  -1-35.0944 198.574  10
   7  -4  -1 102.229 181.738   5
   7  -4   0 868.213 334.148  10
   7  -4   0 404.558 206.098   5
   7  -4   1 1836.76 326.926   5
   7  -4   2 1717.09 371.881   7
   7  -4   3 18.0083 186.098   7
   7  -4   4 1995.83 430.022   7
   7  -4   4 2004.25 443.322   3
   7  -4   5 1955.27 432.776   7
   7  -4   5 1556.79 424.428   3
   7  -4   6 4679.54 658.370   7
   7  -4   6 3746.92 606.607   3
   7  -4   7 2005.95 498.862   7
   7  -4   7 2552.48 532.909   3
   7  -4   8 663.172 276.240   7
   7  -4   8 861.190 375.536   3
   7  -4   9 1154.72 380.844   7
   7  -4   9 364.761 295.370   3
   7  -4  10 417.812 320.928   7
   7  -4  10-19.7302 245.303   3
   7  -4  11 765.216 386.029   7
   7  -3 -15 367.558 422.894  10
   7  -3 -14 1056.15 479.523  10
   7  -3 -13 1677.24 518.227  10
   7  -3 -12 437.103 372.331  10
   7  -3 -11 4033.23 667.858  10
   7  -3 -10 1088.42 352.762  10
   7  -3  -9 2792.10 564.768  10
   7  -3  -8 7316.63 812.054  10
   7  -3  -7 385.639 313.171  10
   7  -3  -6 21022.7 1242.10  10
   7  -3  -5 1026.72 311.871  10
   7  -3  -4 11322.0 782.744   5
   7  -3  -4 11789.2 892.414  10
   7  -3  -3 930.491 305.972  10
   7  -3  -3 670.092 239.144   5
   7  -3  -2 1331.37 333.330  10
   7  -3  -2 1549.45 295.143   5
   7  -3  -1 549.444 259.593  10
   7  -3  -1 708.477 208.977   5
   7  -3   0 1691.90 306.049   5
   7  -3   1 1259.41 273.308   5
   7  -3   1 1129.07 329.735   7
   7  -3   2 2423.98 451.384   7
   7  -3   3 1133.44 335.144   7
   7  -3   4 323.166 265.920   7
   7  -3   5 681.431 302.698   7
   7  -3   6 909.472 345.365   7
   7  -3   7 1019.07 368.458   7
   7  -3   8 658.561 339.653   7
   7  -3   9 31.1218 265.720   7
   7  -3  10 495.463 340.060   7
   7  -3  11 309.513 323.350   7
   7  -2 -15 459.399 370.208  10
   7  -2 -14 534.551 351.537  10
   7  -2 -13 858.875 431.424  10
   7  -2 -12 1119.74 429.226  10
   7  -2 -11-182.854 285.295  10
   7  -2 -10 454.329 300.224  10
   7  -2  -9 611.836 291.208  10
   7  -2  -8 607.815 314.951  10
   7  -2  -7 3566.36 534.094  10
   7  -2  -6 293.675 247.934  10
   7  -2  -5 945.103 341.639  10
   7  -2  -4 812.821 328.844  10
   7  -2  -3 1811.00 385.880  10
   7  -2  -3 1712.03 291.450   5
   7  -2  -2 1506.24 347.929  10
   7  -2  -2 1733.18 279.310   5
   7  -2  -1 3726.34 383.333   5
   7  -2  -1 3354.68 507.522  10
   7  -2   0 128.869 142.430   5
   7  -2   0 159.611 149.806   1
   7  -2   0 185.807 198.677   7
   7  -2   1 175.139 122.153   1
   7  -2   1 374.071 157.102   5
   7  -2   1 135.606 187.964   7
   7  -2   2-238.290 234.558   7
   7  -2   3 307.384 241.695   7
   7  -2   4 856.885 314.982   7
   7  -2   5 239.666 237.494   7
   7  -2   6 302.409 302.169   7
   7  -2   7-99.7740 234.162   7
   7  -2   8 83.8938 248.291   7
   7  -2   9 259.571 282.326   7
   7  -2  10 467.977 423.836   7
   7  -1 -16 31.1088 245.042  10
   7  -1 -15 223.536 353.461  10
   7  -1 -14-70.1938 341.652  10
   7  -1 -13 110.468 219.546  10
   7  -1 -12 813.708 366.783  10
   7  -1 -11 2413.92 515.595  10
   7  -1 -10 118.391 240.143  10
   7  -1  -9 377.790 261.904  10
   7  -1  -8 1016.91 341.702  10
   7  -1  -7 237.920 231.957  10
   7  -1  -6 706.641 287.502  10
   7  -1  -5 664.326 280.199  10
   7  -1  -4 5637.04 618.153  10
   7  -1  -3 2478.98 445.605  10
   7  -1  -2 7431.06 484.375   5
   7  -1  -2 7159.03 725.419   7
   7  -1  -2 7088.04 594.306   1
   7  -1  -2 7284.69 701.438  10
   7  -1  -1 3208.28 315.492   5
   7  -1  -1 3497.35 494.113   7
   7  -1  -1 3081.93 382.645   1
   7  -1   0 394.529 143.041   5
   7  -1   0 406.531 271.961   7
   7  -1   0 332.220 132.965   1
   7  -1   1 3232.02 523.556   7
   7  -1   2 3668.14 570.899   7
   7  -1   3 3157.12 552.557   7
   7  -1   4 1152.81 402.359   7
   7  -1   5 2232.25 525.931   7
   7  -1   6 55.6693 233.795   7
   7  -1   7-112.660 224.093   7
   7  -1   8 3379.87 685.726   7
   7  -1   9 689.633 383.626   7
   7   0 -15 46.4458 273.238  10
   7   0 -14 2368.16 562.886  10
   7   0 -13-558.724 303.043  10
   7   0 -12-173.761 237.904  10
   7   0 -11 1180.84 354.728  10
   7   0 -10-163.210 200.626  10
   7   0  -9 1763.18 395.902  10
   7   0  -8 201.771 242.240  10
   7   0  -7 1053.58 322.472  10
   7   0  -6 823.938 278.264  10
   7   0  -5 3248.27 472.699  10
   7   0  -5 2455.01 435.431   1
   7   0  -4 1772.29 362.211   1
   7   0  -4 1628.49 363.852  10
   7   0  -3 7776.32 711.088   7
   7   0  -3 7097.20 622.924   1
   7   0  -3 8129.04 720.377  10
   7   0  -2 5300.33 606.088   7
   7   0  -2 4162.07 451.141   1
   7   0  -1 193.201 123.510   1
   7   0  -1 174.191 224.233   7
   7   0   0 2044.90 304.623   1
   7   0   0 1983.56 418.441   7
   7   0   1 1742.81 428.707   7
   7   0   2 2301.34 487.654   7
   7   0   3 753.613 308.589   7
   7   0   4 229.249 292.200   7
   7   0   5 119.170 240.695   7
   7   0   6 695.313 373.469   7
   7   0   7 372.500 369.126   7
   7   0   8-278.955 267.035   7
   7   1 -15 3478.99 716.522   1
   7   1 -14 2098.14 568.294   1
   7   1 -13-74.7497 262.539  10
   7   1 -13 240.080 308.031   1
   7   1 -12 3180.51 534.148  10
   7   1 -12 4694.64 736.588   1
   7   1 -11 385.086 277.166  10
   7   1 -11 553.859 400.670   1
   7   1 -10 7175.08 815.929   1
   7   1 -10 7861.93 768.531  10
   7   1  -9 49.4948 169.189  10
   7   1  -9 242.873 241.435   1
   7   1  -8 2960.90 467.679  10
   7   1  -8 3301.68 582.900   1
   7   1  -7 50.0162 157.720  10
   7   1  -7 227.388 215.024   1
   7   1  -6 2740.59 448.130  10
   7   1  -6 2770.29 465.701   1
   7   1  -5 617.720 247.953  10
   7   1  -5 553.914 235.077   1
   7   1  -5 651.690 268.963   7
   7   1  -4 6540.22 655.226   7
   7   1  -4 5451.94 582.683   1
   7   1  -3 3706.80 544.526   7
   7   1  -3 2409.25 391.636   1
   7   1  -2 425.354 182.961   1
   7   1  -2 809.501 269.303   7
   7   1  -1 112.147 187.399   7
   7   1  -1 260.958 159.104   1
   7   1   0 362.766 246.428   7
   7   1   1 957.818 318.961   7
   7   1   2 399.778 279.706   7
   7   1   3 608.849 337.487   7
   7   1   4 1209.39 450.745   7
   7   1   5 221.077 292.497   7
   7   1   6 1777.88 506.386   7
   7   1   7-174.917 283.061   7
   7   2 -15 380.321 300.281   1
   7   2 -14 355.467 368.421   1
   7   2 -13 255.114 338.656   1
   7   2 -12 729.913 402.648   1
   7   2 -11 1146.94 385.041   1
   7   2 -10 884.236 384.788   1
   7   2 -10 891.352 277.405  10
   7   2  -9 112.821 209.553  10
   7   2  -9 16.4891 250.354   1
   7   2  -8 523.257 230.639  10
   7   2  -8 171.730 215.580   1
   7   2  -7 1215.58 302.954  10
   7   2  -7 1323.61 387.766   1
   7   2  -7 1575.72 364.019   7
   7   2  -6 895.920 297.126   1
   7   2  -6 974.952 271.387  10
   7   2  -6 1482.27 357.114   7
   7   2  -5 848.904 294.707   7
   7   2  -5 497.921 235.653   1
   7   2  -4-177.658 201.247   1
   7   2  -4 126.744 209.270   7
   7   2  -3 263.032 207.944   1
   7   2  -3-127.277 205.897   7
   7   2  -2-147.648 195.076   7
   7   2  -2-7.86607 138.700   1
   7   2  -1 349.081 177.115   1
   7   2  -1 472.324 289.481   7
   7   2   0-10.1008 208.275   7
   7   2   1 632.882 336.117   7
   7   2   2 161.870 320.103   7
   7   2   3 66.5473 254.002   7
   7   2   4 1107.46 471.386   7
   7   2   5 1829.95 541.165   7
   7   2   6 791.074 370.703   7
   7   3 -15 550.532 381.179   1
   7   3 -14-89.7674 284.618   1
   7   3 -13-160.406 297.230   1
   7   3 -12 761.439 368.664   1
   7   3 -11 215.796 297.282   1
   7   3 -10 398.095 294.621   1
   7   3  -9 1362.15 391.783   1
   7   3  -8 3502.98 503.280   7
   7   3  -8 3333.00 580.121   1
   7   3  -7 3564.19 571.343   1
   7   3  -7 5341.52 592.324   7
   7   3  -6 914.019 319.730   1
   7   3  -6 700.489 282.266   7
   7   3  -5 1750.91 405.887   1
   7   3  -5 1629.37 382.605   7
   7   3  -4 651.404 288.590   7
   7   3  -4 171.651 210.585   1
   7   3  -3 3480.27 560.929   7
   7   3  -3 2778.23 469.478   1
   7   3  -2 89.6765 157.220   1
   7   3  -2 706.230 289.330   7
   7   3  -1 3920.14 503.695   1
   7   3  -1 4466.48 630.711   7
   7   3   0 215.360 248.057   7
   7   3   1 3320.63 629.714   7
   7   3   2 854.766 360.496   7
   7   3   3 1250.00 473.451   7
   7   3   4 1626.96 517.234   7
   7   3   5-447.648 403.638   7
   7   4 -14 71.6062 237.354   1
   7   4 -13 846.269 403.093   1
   7   4 -12 1224.89 421.615   1
   7   4 -11 619.984 280.448   1
   7   4 -10 198.068 219.358   1
   7   4  -9 838.388 344.584   1
   7   4  -8 2043.14 486.116   1
   7   4  -7 1189.52 383.269   1
   7   4  -6 1392.27 409.952   1
   7   4  -6 1758.47 399.052   7
   7   4  -5 28.7619 204.623   7
   7   4  -5-6.91396 194.608   1
   7   4  -4 174.384 230.299   1
   7   4  -4 404.862 262.495   7
   7   4  -3 2007.76 432.603   1
   7   4  -3 2342.33 450.044   7
   7   4  -2 557.584 266.433   1
   7   4  -2 302.197 220.411   7
   7   4  -1 355.560 271.759   7
   7   4   0 1205.95 426.794   7
   7   4   1 63.6919 225.131   7
   7   4   2 180.199 272.357   7
   7   4   3 324.457 345.198   7
   7   4   4-140.086 291.743   7
   7   5 -13 428.026 349.267   1
   7   5 -12 638.756 369.164   1
   7   5 -11 247.568 285.273   1
   7   5 -10 1398.82 483.927   1
   7   5  -9 597.317 358.295   1
   7   5  -8 924.161 354.520   1
   7   5  -7 25.2718 211.393   1
   7   5  -6 42.7701 190.286   1
   7   5  -5-256.034 237.857   1
   7   5  -4 91.1113 186.352   1
   7   5  -4 484.446 279.856   7
   7   5  -3 228.580 192.257   1
   7   5  -3 282.038 239.444   7
   7   5  -2 285.532 238.738   7
   7   5  -1-30.0539 232.295   7
   7   5   0 929.679 411.125   7
   7   5   1-140.010 304.933   7
   7   5   2 304.817 310.371   7
   7   6 -11 546.791 344.122   1
   7   6 -10 212.278 297.739   1
   7   6  -9 400.313 340.639   1
   7   6  -8 487.193 279.699   1
   7   6  -7-66.1058 204.404   1
   7   6  -6 282.103 231.478   1
   7   6  -5 127.994 266.832   1
   7   6  -4 880.821 336.212   1
   7   6  -3 159.596 222.157   1
   7   6  -2-119.416 243.158   7
   7   6  -1 395.707 370.694   7
   7   6   0 131.073 302.521   7
   7   6   1 781.808 379.563   7
   7   7  -9 175.151 275.727   1
   7   7  -8 67.8349 267.704   1
   7   7  -7 1278.66 439.489   1
   7   7  -6 48.0114 214.405   1
   7   7  -5 2237.95 537.220   1
   7   7  -4 420.517 299.413   1
   8 -12  -6 18.0854 266.066  10
   8 -12  -5 329.354 228.849  10
   8 -12  -4 859.710 383.077  10
   8 -12  -4 66.7629 249.122   5
   8 -12  -3 749.767 383.552  10
   8 -12  -3 635.513 428.659   5
   8 -12  -2 680.217 444.646   5
   8 -12  -1-4.72612 272.311   5
   8 -12   0 937.256 352.049   5
   8 -12   1 1902.48 575.442   5
   8 -12   2 282.396 336.344   5
   8 -12   3 2897.43 682.145   5
   8 -12   4 210.382 244.334   5
   8 -12   5 640.579 429.732   5
   8 -11  -7 560.201 392.470  10
   8 -11  -7 294.655 320.440   4
   8 -11  -6 1649.09 509.105  10
   8 -11  -5-274.940 356.753  10
   8 -11  -4 1431.32 477.753  10
   8 -11  -4 2196.38 541.095   5
   8 -11  -3 127.081 230.507  10
   8 -11  -3-91.7855 301.395   5
   8 -11  -2 2211.16 532.388  10
   8 -11  -2 1698.38 516.095   5
   8 -11  -1 97.4315 277.253  10
   8 -11  -1-0.36046 222.274   5
   8 -11   0 882.226 402.664  10
   8 -11   0 842.909 375.002   5
   8 -11   1 929.993 334.885  10
   8 -11   1 1644.76 513.668   5
   8 -11   2 3936.68 606.690  10
   8 -11   2 3437.94 679.658   5
   8 -11   3 1998.64 547.894   5
   8 -11   4 1648.56 555.373   5
   8 -11   5 1863.35 582.829   5
   8 -11   6-167.841 271.888   3
   8 -11   6-165.090 261.983   5
   8 -11   7 1089.71 437.658   3
   8 -11   8 562.788 308.811   3
   8 -10  -9 136.059 233.887   4
   8 -10  -8 1431.81 541.619  10
   8 -10  -8 863.204 388.264   4
   8 -10  -7 887.014 392.944  10
   8 -10  -6-30.8984 266.431  10
   8 -10  -5 1646.42 485.398  10
   8 -10  -5 1120.45 440.115   5
   8 -10  -4 790.908 403.962  10
   8 -10  -4 545.844 337.145   5
   8 -10  -3 1309.89 449.757  10
   8 -10  -3 1595.60 471.017   5
   8 -10  -2 272.951 251.801  10
   8 -10  -2 418.037 304.442   5
   8 -10  -1 348.954 308.159  10
   8 -10  -1 507.593 310.915   5
   8 -10   0 611.191 295.727  10
   8 -10   0 130.914 331.839   5
   8 -10   1 99.1740 209.835  10
   8 -10   1 704.893 358.599   5
   8 -10   2 93.6645 239.297  10
   8 -10   2 516.269 360.261   5
   8 -10   3 2028.19 561.398   5
   8 -10   4 80.6256 263.115   5
   8 -10   4 400.000 293.156   3
   8 -10   5 325.281 251.603   3
   8 -10   5 385.315 329.854   5
   8 -10   6-134.849 218.919   3
   8 -10   7 437.999 374.732   3
   8 -10   8 652.430 364.530   3
   8 -10   9 339.085 374.923   3
   8  -9 -10 971.840 447.249  10
   8  -9  -9 1246.08 508.779  10
   8  -9  -8 65.4318 330.420  10
   8  -9  -8 708.060 323.166   4
   8  -9  -7 542.531 402.218  10
   8  -9  -6 232.973 318.159  10
   8  -9  -5 595.348 331.708  10
   8  -9  -5-181.176 233.816   5
   8  -9  -4 510.243 336.409  10
   8  -9  -4 155.458 273.511   5
   8  -9  -3 442.892 365.323  10
   8  -9  -3 785.649 342.348   5
   8  -9  -2 1346.84 401.062  10
   8  -9  -2 1737.41 456.370   5
   8  -9  -1 225.276 292.221  10
   8  -9  -1 513.960 320.612   5
   8  -9   0 1601.78 409.371  10
   8  -9   0 938.622 365.643   5
   8  -9   1 452.618 264.923  10
   8  -9   1 554.741 320.912   5
   8  -9   2 365.042 285.979  10
   8  -9   2 920.953 355.480   5
   8  -9   2 874.420 291.559   3
   8  -9   3 254.370 240.406   5
   8  -9   3 7.36380 202.692   3
   8  -9   4-121.739 260.893   5
   8  -9   4 243.395 231.463   7
   8  -9   4 351.703 239.486   3
   8  -9   5 379.915 262.293   7
   8  -9   5 267.088 346.761   3
   8  -9   6-60.5382 227.665   3
   8  -9   7 256.842 337.712   3
   8  -9   8 678.815 351.526   3
   8  -9   9 947.612 455.069   3
   8  -8 -11 566.482 473.682  10
   8  -8 -10 181.784 315.539  10
   8  -8  -9 98.6788 295.322  10
   8  -8  -8 1318.11 527.852  10
   8  -8  -7 1559.61 491.926  10
   8  -8  -6 2345.61 567.005  10
   8  -8  -5 846.598 342.863  10
   8  -8  -5 1433.78 409.067   5
   8  -8  -4 346.023 285.795  10
   8  -8  -4 107.520 233.645   5
   8  -8  -3 5845.73 735.231  10
   8  -8  -3 4319.65 650.865   5
   8  -8  -2 1659.67 409.519  10
   8  -8  -2 1175.99 379.427   5
   8  -8  -1 5332.48 685.362  10
   8  -8  -1 5472.67 712.746   5
   8  -8   0-20.9012 205.777  10
   8  -8   0 696.167 345.605   5
   8  -8   1 1286.36 406.785  10
   8  -8   1 447.014 281.555   5
   8  -8   2 1367.62 419.771   5
   8  -8   2 968.833 300.467   3
   8  -8   3-117.853 262.947   5
   8  -8   3-13.1868 185.418   3
   8  -8   4 2891.76 501.978   7
   8  -8   4 2877.03 537.453   3
   8  -8   5 598.239 335.840   7
   8  -8   5 977.034 369.071   3
   8  -8   6 1428.15 373.187   7
   8  -8   6 2909.60 571.625   3
   8  -8   7 11.8269 260.042   3
   8  -8   8 2131.86 581.304   3
   8  -8   9 763.088 407.349   3
   8  -7 -12 589.812 402.061  10
   8  -7 -11 518.948 414.279  10
   8  -7 -10 302.283 384.245  10
   8  -7  -9 13.4745 340.523  10
   8  -7  -8 1364.89 531.592  10
   8  -7  -7 2892.26 627.937  10
   8  -7  -6 1285.40 475.341  10
   8  -7  -5 449.578 317.207  10
   8  -7  -5 363.883 302.545   5
   8  -7  -4 2784.20 501.897  10
   8  -7  -4 2292.94 457.036   5
   8  -7  -3 4512.74 629.212  10
   8  -7  -3 3910.70 593.783   5
   8  -7  -2 3483.30 563.549  10
   8  -7  -2 3442.28 534.439   5
   8  -7  -1 6176.26 719.564   5
   8  -7  -1 6204.26 722.762  10
   8  -7   0-87.6634 190.132  10
   8  -7   0-158.698 247.571   5
   8  -7   1 3232.81 566.488  10
   8  -7   1 3194.58 580.368   5
   8  -7   2 1072.92 363.357   5
   8  -7   2 1328.94 365.751   3
   8  -7   3 4313.29 647.954   5
   8  -7   3 4292.85 602.780   7
   8  -7   3 4671.38 625.165   3
   8  -7   4 694.845 314.831   7
   8  -7   4 226.570 229.489   3
   8  -7   5 2431.80 503.935   7
   8  -7   5 2838.84 584.902   3
   8  -7   6 117.962 237.945   7
   8  -7   6 272.235 300.047   3
   8  -7   7 722.773 337.406   7
   8  -7   7 1265.30 443.620   3
   8  -7   8 396.127 261.723   7
   8  -7   8 520.227 349.940   3
   8  -7   9 234.254 303.361   3
   8  -6 -12 1136.45 511.998  10
   8  -6 -11 962.146 392.600  10
   8  -6 -10 458.995 374.588  10
   8  -6  -9 1036.32 439.104  10
   8  -6  -8 848.162 386.353  10
   8  -6  -7 608.280 331.670  10
   8  -6  -6 2342.74 497.622  10
   8  -6  -5 175.917 270.427  10
   8  -6  -5 91.8299 193.819   5
   8  -6  -4 168.783 255.219  10
   8  -6  -4 199.697 225.304   5
   8  -6  -3 1327.19 401.964  10
   8  -6  -3 298.485 233.446   5
   8  -6  -2 257.035 255.489  10
   8  -6  -2-105.523 200.969   5
   8  -6  -1 350.214 253.203  10
   8  -6  -1 132.190 231.295   5
   8  -6   0 63.9708 199.399  10
   8  -6   0 869.539 280.776   5
   8  -6   1 1148.58 371.687  10
   8  -6   1 1691.14 395.935   5
   8  -6   2 2068.96 447.347   5
   8  -6   2 1754.27 422.893   7
   8  -6   3 672.301 288.649   7
   8  -6   3 488.756 284.283   3
   8  -6   4 797.572 291.758   7
   8  -6   4 663.294 352.150   3
   8  -6   5 243.273 209.724   7
   8  -6   5 675.961 285.661   3
   8  -6   6 840.903 332.727   7
   8  -6   6 1337.65 420.733   3
   8  -6   7 674.995 337.238   7
   8  -6   7 863.955 376.047   3
   8  -6   8 770.855 317.605   7
   8  -6   8 782.552 424.662   3
   8  -6   9 100.499 218.341   7
   8  -6   9-549.674 363.539   3
   8  -5 -13 498.156 392.897  10
   8  -5 -12 613.254 417.163  10
   8  -5 -11 1545.96 533.146  10
   8  -5 -10-135.491 253.259  10
   8  -5  -9 432.726 356.109  10
   8  -5  -8 195.083 348.844  10
   8  -5  -7 1061.51 426.463  10
   8  -5  -6 589.408 275.034  10
   8  -5  -5 852.305 327.712  10
   8  -5  -5 596.117 295.499   5
   8  -5  -4 134.091 236.961  10
   8  -5  -4-20.1613 170.338   5
   8  -5  -3 387.667 272.246  10
   8  -5  -3 299.036 233.708   5
   8  -5  -2 451.385 320.434  10
   8  -5  -2 63.1598 173.932   5
   8  -5  -1 694.750 332.162  10
   8  -5  -1 654.115 253.983   5
   8  -5   0 872.389 339.938  10
   8  -5   0 1209.91 337.511   5
   8  -5   1 6444.51 678.567   5
   8  -5   2-158.381 203.499   5
   8  -5   2 381.077 264.629   7
   8  -5   3 2245.31 456.046   7
   8  -5   4 1669.95 425.274   7
   8  -5   5 1238.56 378.776   7
   8  -5   6 2465.64 530.557   7
   8  -5   6 3811.42 684.138   3
   8  -5   7 249.823 279.171   7
   8  -5   7 257.020 272.121   3
   8  -5   8 686.950 346.266   7
   8  -5   8-204.514 342.949   3
   8  -5   9-173.249 255.172   7
   8  -5   9 272.788 279.019   3
   8  -5  10 1094.50 420.277   7
   8  -4 -14 1013.70 483.405  10
   8  -4 -13 168.805 372.893  10
   8  -4 -12 3090.23 685.180  10
   8  -4 -11 3804.61 727.312  10
   8  -4 -10 1526.82 473.401  10
   8  -4  -9 2257.78 532.138  10
   8  -4  -8 368.175 276.128  10
   8  -4  -7 11265.8 1016.75  10
   8  -4  -6 833.346 333.717  10
   8  -4  -5 8405.06 823.323  10
   8  -4  -4 167.535 198.685  10
   8  -4  -4 220.268 191.918   5
   8  -4  -3 1600.39 363.359  10
   8  -4  -3 1629.52 339.288   5
   8  -4  -2 271.774 239.655  10
   8  -4  -2 165.931 170.514   5
   8  -4  -1 593.911 270.919  10
   8  -4  -1 675.369 216.261   5
   8  -4   0 6266.03 615.302   5
   8  -4   1 1025.62 254.892   5
   8  -4   1 1997.93 425.004   7
   8  -4   2 5285.51 592.439   5
   8  -4   2 6331.99 720.585   7
   8  -4   3 46.2885 241.864   7
   8  -4   4 1061.27 398.520   7
   8  -4   5 1463.17 425.224   7
   8  -4   6 558.958 322.745   7
   8  -4   7 713.754 350.750   7
   8  -4   8 229.718 333.519   7
   8  -4   9-77.1883 237.870   7
   8  -4  10 270.248 301.081   7
   8  -3 -15 676.286 473.074  10
   8  -3 -14 698.486 405.204  10
   8  -3 -13 1817.49 564.251  10
   8  -3 -12 2452.73 616.148  10
   8  -3 -11 824.289 416.920  10
   8  -3 -10 2787.19 554.146  10
   8  -3  -9 232.875 305.410  10
   8  -3  -8 5327.72 715.011  10
   8  -3  -7 2439.98 502.465  10
   8  -3  -6 3599.90 562.474  10
   8  -3  -5 272.640 210.146  10
   8  -3  -4 243.019 169.035   5
   8  -3  -4-344.590 258.095  10
   8  -3  -3 45.5812 214.122  10
   8  -3  -3 181.271 174.287   5
   8  -3  -2 192.084 201.245  10
   8  -3  -2 238.353 201.328   5
   8  -3  -1 2665.20 479.568  10
   8  -3  -1 2817.10 387.420   5
   8  -3   0-2.49151 143.924   5
   8  -3   0 58.3879 258.743   7
   8  -3   1 2480.68 391.583   5
   8  -3   1 2028.31 414.870   7
   8  -3   2 247.865 195.152   5
   8  -3   2 266.509 246.703   7
   8  -3   3 94.0301 223.331   7
   8  -3   4 1668.69 421.314   7
   8  -3   5 220.541 276.387   7
   8  -3   6 1218.99 416.164   7
   8  -3   7 194.812 271.307   7
   8  -3   8 507.647 424.970   7
   8  -3   9 695.201 394.505   7
   8  -2 -15 361.784 361.413  10
   8  -2 -14 611.075 398.866  10
   8  -2 -13 813.253 418.985  10
   8  -2 -12 888.781 445.217  10
   8  -2 -11 7.84618 238.808  10
   8  -2 -10 936.774 391.308  10
   8  -2  -9 572.899 249.922  10
   8  -2  -8 734.770 310.654  10
   8  -2  -7-170.206 240.239  10
   8  -2  -6 78.8326 210.762  10
   8  -2  -5 1180.82 380.620  10
   8  -2  -4 4246.44 570.926  10
   8  -2  -3 758.317 220.862   5
   8  -2  -3 1120.32 335.265  10
   8  -2  -2 1034.37 317.110  10
   8  -2  -2 1040.27 229.325   5
   8  -2  -1-154.523 119.809   5
   8  -2  -1 327.575 303.319   7
   8  -2  -1 137.584 175.031   1
   8  -2   0 1262.77 369.778   7
   8  -2   1 4096.42 602.398   7
   8  -2   2 1304.27 413.640   7
   8  -2   3 628.660 339.425   7
   8  -2   4 3606.12 611.548   7
   8  -2   5 450.986 346.949   7
   8  -2   6 1053.23 393.765   7
   8  -2   7 1696.56 497.847   7
   8  -2   8-102.470 318.091   7
   8  -1 -16-168.392 290.643  10
   8  -1 -15 52.9508 282.490  10
   8  -1 -14 116.221 326.672  10
   8  -1 -13 221.681 285.171  10
   8  -1 -12-64.7549 264.442  10
   8  -1 -11 157.317 306.317  10
   8  -1 -10 25.1836 227.053  10
   8  -1  -9 538.963 297.221  10
   8  -1  -8 2469.35 482.061  10
   8  -1  -7 479.978 232.718  10
   8  -1  -6 1498.40 371.254  10
   8  -1  -5 2050.44 407.395  10
   8  -1  -4-100.630 202.791  10
   8  -1  -3 2935.74 494.858  10
   8  -1  -3 3569.54 546.079   7
   8  -1  -3 3399.83 468.685   1
   8  -1  -2 1258.57 380.370   7
   8  -1  -2 513.660 193.810   1
   8  -1  -1 1376.24 390.365   7
   8  -1  -1 1053.16 233.858   1
   8  -1   0 5736.20 717.572   7
   8  -1   1 317.175 326.203   7
   8  -1   2 3847.39 620.110   7
   8  -1   3 1708.89 473.754   7
   8  -1   4 681.265 397.045   7
   8  -1   5 380.623 292.863   7
   8  -1   6 1027.15 443.513   7
   8  -1   7 613.357 434.251   7
   8   0 -15 910.579 470.321   1
   8   0 -14 300.475 257.694  10
   8   0 -13 461.536 348.872  10
   8   0 -12 166.249 235.900  10
   8   0 -11 2541.87 504.492  10
   8   0 -10 118.082 191.108  10
   8   0  -9 4109.53 609.126  10
   8   0  -8 395.473 241.242  10
   8   0  -7 3541.77 573.383  10
   8   0  -7 4195.71 635.453   1
   8   0  -6 2818.44 493.543  10
   8   0  -6 2282.50 479.118   1
   8   0  -5 2004.19 417.844  10
   8   0  -5 2238.63 428.177   1
   8   0  -4 7329.39 784.218   7
   8   0  -4 6308.06 658.206   1
   8   0  -4 7431.16 771.072  10
   8   0  -3 1115.44 290.039   1
   8   0  -3 1935.16 433.029   7
   8   0  -2 3209.74 428.520   1
   8   0  -2 5143.76 660.530   7
   8   0  -1 244.450 288.486   7
   8   0   0 837.546 348.534   7
   8   0   1 434.324 357.047   7
   8   0   2 630.464 326.814   7
   8   0   3 707.083 332.030   7
   8   0   4 545.196 312.139   7
   8   0   5 134.652 271.219   7
   8   0   6-78.9379 296.212   7
   8   1 -14 1324.07 480.054   1
   8   1 -13-206.567 269.009   1
   8   1 -12 1189.16 480.571   1
   8   1 -11 939.421 360.059  10
   8   1 -11 1205.62 464.710   1
   8   1 -10 1109.86 347.884  10
   8   1 -10 1430.90 460.994   1
   8   1  -9 480.431 293.534  10
   8   1  -9-200.416 268.496   1
   8   1  -8 587.086 282.980  10
   8   1  -8 980.393 369.220   1
   8   1  -7-138.517 239.783  10
   8   1  -7 356.339 281.204   1
   8   1  -6-82.0060 225.104  10
   8   1  -6 71.9647 199.207   1
   8   1  -6-149.733 213.566   7
   8   1  -5 3717.72 542.740   1
   8   1  -5 4093.66 597.956   7
   8   1  -4 331.216 261.509   7
   8   1  -4 85.8734 193.618   1
   8   1  -3 2425.08 409.378   1
   8   1  -3 2749.11 523.985   7
   8   1  -2 16.8154 138.920   1
   8   1  -2-116.100 209.998   7
   8   1  -1 341.846 326.409   7
   8   1   0-96.2168 209.823   7
   8   1   1-13.5949 222.290   7
   8   1   2 576.491 364.552   7
   8   1   3 509.889 392.182   7
   8   1   4 452.848 334.045   7
   8   1   5 326.458 387.950   7
   8   2 -14 725.560 398.835   1
   8   2 -13 380.244 330.045   1
   8   2 -12-206.765 261.638   1
   8   2 -11 1250.81 463.062   1
   8   2 -10 803.390 326.115   1
   8   2  -9 490.150 262.436   1
   8   2  -9 1343.60 388.545   7
   8   2  -8 3002.76 523.914  10
   8   2  -8 3149.27 612.621   1
   8   2  -8 3216.33 525.944   7
   8   2  -7 808.342 278.994  10
   8   2  -7 1087.71 327.392   7
   8   2  -7 564.758 253.089   1
   8   2  -6 774.922 291.309   1
   8   2  -6 272.978 230.126   7
   8   2  -5-197.836 227.275   1
   8   2  -5 613.100 277.169   7
   8   2  -4 413.962 280.786   1
   8   2  -4-47.6726 213.328   7
   8   2  -3-192.569 193.777   7
   8   2  -3 177.180 170.207   1
   8   2  -2 2262.82 475.276   7
   8   2  -1 347.944 305.461   7
   8   2   0 3526.96 642.787   7
   8   2   1 975.740 393.006   7
   8   2   2 1186.34 425.214   7
   8   2   3 2525.79 609.130   7
   8   2   4-390.079 288.957   7
   8   3 -13-106.987 253.305   1
   8   3 -12 1817.45 533.936   1
   8   3 -11 158.646 305.778   1
   8   3 -10 182.066 276.573   1
   8   3  -9 363.770 252.125   1
   8   3  -8-205.411 283.765   1
   8   3  -7 1503.28 414.278   1
   8   3  -7 1446.03 392.516   7
   8   3  -6 174.523 301.621   1
   8   3  -6 95.2816 280.092   7
   8   3  -5 783.935 317.983   1
   8   3  -5 203.801 196.934   7
   8   3  -4 890.450 348.734   7
   8   3  -4 879.315 319.129   1
   8   3  -3 910.253 311.802   1
   8   3  -3 623.690 317.575   7
   8   3  -2 839.328 363.164   7
   8   3  -1 1298.61 398.090   7
   8   3   0 811.882 418.734   7
   8   3   1 353.168 302.590   7
   8   3   2 10.6429 280.563   7
   8   3   3 1282.45 491.443   7
   8   4 -12-104.752 247.998   1
   8   4 -11 948.489 432.577   1
   8   4 -10 985.600 393.009   1
   8   4  -9 380.051 339.545   1
   8   4  -8 634.227 300.211   1
   8   4  -7 600.820 346.602   1
   8   4  -6 1170.07 366.379   7
   8   4  -6 296.160 247.390   1
   8   4  -5 837.380 309.642   1
   8   4  -5 329.938 252.064   7
   8   4  -4-35.3723 175.604   1
   8   4  -4 612.715 292.008   7
   8   4  -3 203.827 202.633   7
   8   4  -2 1071.24 360.397   7
   8   4  -1 376.354 296.651   7
   8   4   0 869.593 417.784   7
   8   4   1 388.694 324.695   7
   8   5 -11-72.8525 268.186   1
   8   5 -10 816.611 432.498   1
   8   5  -9 898.138 412.951   1
   8   5  -8 436.730 310.364   1
   8   5  -7 289.486 223.136   1
   8   5  -6 135.510 250.036   1
   8   5  -5 137.799 237.295   1
   8   5  -4-130.051 267.843   1
   8   5  -3-30.2864 264.157   7
   8   5  -2 296.275 251.050   7
   8   5  -1-16.3467 250.103   7
   8   5   0-570.476 344.666   7
   8   6  -8 232.606 236.465   1
   8   6  -7-52.2710 209.730   1
   8   6  -6 2177.25 528.018   1
   8   6  -5 784.162 373.810   1
   9 -12  -5 641.701 388.067  10
   9 -12  -4 223.495 259.451  10
   9 -12  -3 1555.81 497.429  10
   9 -12  -2 498.897 376.172  10
   9 -12  -2 261.361 255.274   5
   9 -12  -1 1059.09 393.824  10
   9 -12  -1 973.452 411.736   5
   9 -12   0 337.294 336.413   5
   9 -12   1-153.665 348.690   5
   9 -12   2 3376.00 712.865   5
   9 -12   3 884.060 479.510   5
   9 -11  -6 876.564 412.838  10
   9 -11  -5 881.220 363.979  10
   9 -11  -5-25.5163 388.947   5
   9 -11  -4 1319.76 478.531  10
   9 -11  -4 1034.06 431.315   5
   9 -11  -3 1155.63 470.193  10
   9 -11  -3 704.631 409.383   5
   9 -11  -2 1889.14 474.161  10
   9 -11  -2 1391.50 490.317   5
   9 -11  -1 415.739 247.239  10
   9 -11  -1 231.631 299.502   5
   9 -11   0 402.206 333.145  10
   9 -11   0 230.104 340.334   5
   9 -11   1 1585.06 488.455  10
   9 -11   1 1672.23 557.299   5
   9 -11   2 49.9316 247.236   5
   9 -11   3 1941.50 559.673   5
   9 -11   4 311.306 384.463   5
   9 -11   5 419.857 364.924   5
   9 -11   7 135.026 239.507   3
   9 -10  -8 54.3877 280.607  10
   9 -10  -7 245.837 295.165  10
   9 -10  -6 380.087 345.851  10
   9 -10  -5 1014.42 438.667  10
   9 -10  -5 849.178 422.788   5
   9 -10  -4 437.004 364.619  10
   9 -10  -4-443.387 328.344   5
   9 -10  -3 983.223 366.476  10
   9 -10  -3 1470.39 478.663   5
   9 -10  -2 661.000 396.315  10
   9 -10  -2 426.583 364.690   5
   9 -10  -1-74.2366 258.363  10
   9 -10  -1 227.817 298.746   5
   9 -10   0 936.758 388.085  10
   9 -10   0 34.8810 247.595   5
   9 -10   1 343.282 302.068  10
   9 -10   1 257.635 338.492   5
   9 -10   2 608.993 351.487   5
   9 -10   3 584.799 373.574   5
   9 -10   4 339.288 344.875   5
   9 -10   4-145.597 221.960   3
   9 -10   5-405.364 318.510   5
   9 -10   5 219.086 267.701   3
   9 -10   6 483.685 403.399   5
   9 -10   6 852.628 346.357   3
   9 -10   7-5.25297 278.957   3
   9  -9  -9 1116.96 448.224  10
   9  -9  -8 991.358 481.562  10
   9  -9  -7 1124.92 526.380  10
   9  -9  -6 2945.66 628.113  10
   9  -9  -5 472.874 288.242  10
   9  -9  -5 453.312 326.804   5
   9  -9  -4 1338.48 428.411  10
   9  -9  -4 1940.15 531.743   5
   9  -9  -3 1593.01 466.545  10
   9  -9  -3 1215.96 454.521   5
   9  -9  -2 883.716 427.609  10
   9  -9  -2 974.842 379.355   5
   9  -9  -1 959.148 396.282  10
   9  -9  -1 409.491 327.831   5
   9  -9   0 1519.98 422.333  10
   9  -9   0 2139.68 519.915   5
   9  -9   1-7.00916 245.441  10
   9  -9   1 152.949 227.469   5
   9  -9   2 601.099 341.346   5
   9  -9   3 164.836 253.355   5
   9  -9   3 646.100 361.233   7
   9  -9   3 162.527 279.805   3
   9  -9   4 650.962 377.358   5
   9  -9   4 535.786 339.584   7
   9  -9   4-81.2949 257.149   3
   9  -9   5 2328.20 606.900   5
   9  -9   5 2371.98 475.592   7
   9  -9   5 2535.14 562.958   3
   9  -9   6-107.730 317.581   3
   9  -9   7 759.878 389.651   3
   9  -9   8 473.856 352.454   3
   9  -8 -10 28.8461 348.114  10
   9  -8  -9 1862.85 604.399  10
   9  -8  -8 372.344 337.419  10
   9  -8  -7 5058.88 812.630  10
   9  -8  -6 315.899 302.507  10
   9  -8  -5 5046.19 772.616  10
   9  -8  -5 4188.10 683.567   5
   9  -8  -4 2444.06 493.697  10
   9  -8  -4 1854.54 475.573   5
   9  -8  -3 1448.86 445.708  10
   9  -8  -3 824.502 370.775   5
   9  -8  -2 5368.00 754.703  10
   9  -8  -2 5152.07 730.147   5
   9  -8  -1 253.985 244.201  10
   9  -8  -1 285.854 243.507   5
   9  -8   0 2133.00 524.351  10
   9  -8   0 1847.15 484.165   5
   9  -8   1 354.359 336.629  10
   9  -8   1 530.175 303.705   5
   9  -8   2 1517.96 457.610   5
   9  -8   3 991.902 382.690   5
   9  -8   3 408.300 290.889   7
   9  -8   4 3266.61 627.665   5
   9  -8   4 3269.08 577.798   7
   9  -8   4 3147.33 606.575   3
   9  -8   5-181.734 222.827   7
   9  -8   5 752.106 359.068   3
   9  -8   6 2123.65 467.386   7
   9  -8   6 2135.97 541.310   3
   9  -8   7 1400.24 487.145   3
   9  -8   8 324.240 364.941   3
   9  -7 -11 1362.65 527.289  10
   9  -7 -10 1465.58 496.398  10
   9  -7  -9 925.850 438.149  10
   9  -7  -8 1766.23 549.351  10
   9  -7  -7 1852.83 512.571  10
   9  -7  -6 1810.86 507.086  10
   9  -7  -5-63.3414 211.455  10
   9  -7  -5 395.268 293.192   5
   9  -7  -4 1222.60 454.005  10
   9  -7  -4 452.474 291.756   5
   9  -7  -3 3554.26 599.668  10
   9  -7  -3 2979.51 545.832   5
   9  -7  -2 404.661 334.203  10
   9  -7  -2 268.066 254.097   5
   9  -7  -1 390.612 238.291  10
   9  -7  -1 637.406 302.940   5
   9  -7   0 596.822 370.014  10
   9  -7   0 379.404 255.797   5
   9  -7   1 678.680 306.206   5
   9  -7   2 288.999 269.190   5
   9  -7   2 881.041 338.448   7
   9  -7   3-525.230 319.964   5
   9  -7   3 234.270 274.597   7
   9  -7   4-259.705 289.129   5
   9  -7   4 302.898 258.174   7
   9  -7   5 420.709 280.855   7
   9  -7   6 973.762 379.450   7
   9  -7   6 286.811 248.472   3
   9  -7   7 373.451 332.437   7
   9  -7   7 261.688 289.127   3
   9  -7   8 366.235 313.132   7
   9  -7   8-250.658 341.572   3
   9  -6 -12-64.0478 373.309  10
   9  -6 -11 377.807 368.706  10
   9  -6 -10-69.8107 259.379  10
   9  -6  -9 1219.35 458.480  10
   9  -6  -8 83.3044 245.461  10
   9  -6  -7 2574.96 566.020  10
   9  -6  -6 513.699 323.945  10
   9  -6  -5-186.259 214.333  10
   9  -6  -5 47.1204 222.119   5
   9  -6  -4 711.646 335.922  10
   9  -6  -4 734.716 313.994   5
   9  -6  -3 1902.73 754.103  10
   9  -6  -3-22.0806 181.638   5
   9  -6  -2 482.361 341.384  10
   9  -6  -2 211.004 224.627   5
   9  -6  -1 242.290 241.606  10
   9  -6  -1 183.855 178.742   5
   9  -6   0 1425.50 443.354  10
   9  -6   0 1508.80 378.461   5
   9  -6   1 149.396 241.680   5
   9  -6   2 3258.54 539.077   5
   9  -6   2 3901.17 614.264   7
   9  -6   3 1490.70 420.899   5
   9  -6   3 1228.25 378.717   7
   9  -6   4 418.754 291.170   7
   9  -6   5 798.003 367.665   7
   9  -6   6-117.290 230.276   7
   9  -6   7 1451.64 423.978   7
   9  -6   8 652.248 340.201   7
   9  -6   9 725.181 364.316   7
   9  -5 -13 464.452 453.738  10
   9  -5 -12 1500.28 505.561  10
   9  -5 -11 638.936 383.024  10
   9  -5 -10 864.099 450.647  10
   9  -5  -9-477.861 345.128  10
   9  -5  -8 453.465 308.304  10
   9  -5  -7 161.877 209.482  10
   9  -5  -6 2426.12 485.222  10
   9  -5  -5 768.907 382.100  10
   9  -5  -5 125.632 207.773   5
   9  -5  -4 4985.34 719.728  10
   9  -5  -4 4754.17 613.215   5
   9  -5  -3 633.481 370.415  10
   9  -5  -3 535.559 239.387   5
   9  -5  -2 745.765 353.606  10
   9  -5  -2 348.866 201.572   5
   9  -5  -1 5341.13 635.701   5
   9  -5  -1 4936.91 703.436  10
   9  -5   0 129.288 171.754   5
   9  -5   1 11364.4 931.634   5
   9  -5   1 10685.4 979.953   7
   9  -5   2 74.8884 208.613   5
   9  -5   2 77.9604 228.449   7
   9  -5   3 272.961 254.330   5
   9  -5   3 156.209 231.576   7
   9  -5   4-190.309 342.834   7
   9  -5   5 185.687 220.452   7
   9  -5   6 683.447 417.828   7
   9  -5   7 433.753 309.398   7
   9  -5   8 259.071 283.863   7
   9  -4 -13 2175.36 607.451  10
   9  -4 -12 456.961 442.377  10
   9  -4 -11 6040.66 899.676  10
   9  -4 -10 548.721 447.848  10
   9  -4  -9 1013.89 353.230  10
   9  -4  -8 360.200 277.149  10
   9  -4  -7 739.857 325.484  10
   9  -4  -6 3205.90 568.465  10
   9  -4  -5 876.682 325.135  10
   9  -4  -4 2251.07 487.072  10
   9  -4  -4 2145.52 410.648   5
   9  -4  -3 429.596 304.541  10
   9  -4  -3 176.321 214.804   5
   9  -4  -2 5187.54 583.141   5
   9  -4  -2 5402.02 736.584  10
   9  -4  -1 187.435 223.561  10
   9  -4  -1 1012.35 295.765   5
   9  -4   0 12077.5 875.959   5
   9  -4   0 10667.0 994.106   7
   9  -4   1 1136.20 325.009   5
   9  -4   1 1778.77 438.091   7
   9  -4   2 3356.45 595.909   7
   9  -4   3 571.677 277.173   7
   9  -4   4-181.953 229.559   7
   9  -4   5 980.949 383.538   7
   9  -4   6 318.584 272.289   7
   9  -4   7-233.251 309.289   7
   9  -4   8 547.871 310.652   7
   9  -3 -14 923.681 464.316  10
   9  -3 -13-257.910 342.372  10
   9  -3 -12 1585.94 522.357  10
   9  -3 -11 743.825 397.280  10
   9  -3 -10 139.220 250.717  10
   9  -3  -9 18.2512 244.068  10
   9  -3  -8 594.760 289.684  10
   9  -3  -7 62.0555 303.488  10
   9  -3  -6 332.803 262.235  10
   9  -3  -5 269.359 252.230  10
   9  -3  -4 417.127 294.833  10
   9  -3  -3 1005.00 370.883  10
   9  -3  -3 479.071 236.291   5
   9  -3  -2-394.743 302.563  10
   9  -3  -1 334.429 306.433   7
   9  -3   0 748.455 354.920   7
   9  -3   1 321.872 271.078   7
   9  -3   2 397.171 374.231   7
   9  -3   3 1073.81 447.185   7
   9  -3   4 249.933 318.535   7
   9  -3   5 980.319 387.555   7
   9  -3   6 412.357 341.950   7
   9  -3   7 196.485 346.233   7
   9  -2 -14-92.5784 316.163  10
   9  -2 -13 1530.86 456.218  10
   9  -2 -12 639.042 372.797  10
   9  -2 -11 419.160 327.384  10
   9  -2 -10 63.4378 246.850  10
   9  -2  -9 1054.14 387.529  10
   9  -2  -8 166.641 219.068  10
   9  -2  -7 1064.93 336.677  10
   9  -2  -6 190.980 217.131  10
   9  -2  -5 2337.56 484.694  10
   9  -2  -4 2442.85 497.246  10
   9  -2  -3 1484.71 425.548  10
   9  -2  -3 1566.32 364.887   1
   9  -2  -3 2006.94 488.321   7
   9  -2  -2 1120.96 372.624   7
   9  -2  -1 50.3951 235.432   7
   9  -2   0-240.578 237.822   7
   9  -2   1 1459.61 431.949   7
   9  -2   2 410.960 303.427   7
   9  -2   3 3082.99 617.880   7
   9  -2   4 630.464 300.052   7
   9  -2   5 2366.28 546.045   7
   9  -2   6 679.246 418.434   7
   9  -1 -15 50.0160 251.680  10
   9  -1 -14 336.217 357.735  10
   9  -1 -13 99.8142 259.679  10
   9  -1 -12 895.592 377.793  10
   9  -1 -11 501.983 370.615  10
   9  -1 -10 5567.29 752.445  10
   9  -1  -9 142.453 241.452  10
   9  -1  -8 5239.21 710.225  10
   9  -1  -7-371.204 282.978  10
   9  -1  -6 354.481 257.264  10
   9  -1  -6 284.604 208.912   1
   9  -1  -5 2732.46 517.335  10
   9  -1  -5 2603.86 497.091   1
   9  -1  -4 289.455 187.106   1
   9  -1  -4 916.505 383.180   7
   9  -1  -3 2546.30 437.608   1
   9  -1  -3 2529.54 507.144   7
   9  -1  -2 452.476 271.850   7
   9  -1  -1 370.937 327.913   7
   9  -1   0-75.0251 275.982   7
   9  -1   1 586.615 298.791   7
   9  -1   2 1217.16 446.961   7
   9  -1   3 457.427 346.580   7
   9  -1   4 717.656 457.498   7
   9  -1   5-157.321 247.790   7
   9   0 -13 552.189 392.690   1
   9   0 -12-216.716 254.829  10
   9   0 -12 1837.01 551.884   1
   9   0 -11 1821.48 499.627  10
   9   0 -11 2748.27 632.072   1
   9   0 -10 2056.88 485.701  10
   9   0 -10 1482.67 481.914   1
   9   0  -9 2918.10 568.942  10
   9   0  -9 2443.22 573.368   1
   9   0  -8 1032.82 368.286  10
   9   0  -8 912.253 365.947   1
   9   0  -7 203.204 228.081  10
   9   0  -7 328.033 250.469   1
   9   0  -6 4290.16 625.747  10
   9   0  -6 4748.84 666.239   7
   9   0  -6 3970.95 621.447   1
   9   0  -5 1247.60 367.113   1
   9   0  -5 1470.01 415.707   7
   9   0  -4 4388.30 588.507   1
   9   0  -4 4946.05 720.269   7
   9   0  -3 349.810 200.842   1
   9   0  -3 519.272 325.953   7
   9   0  -2 13.4487 234.284   7
   9   0  -1-113.775 279.776   7
   9   0   0 442.120 375.366   7
   9   0   1 721.762 428.441   7
   9   0   2 466.534 330.618   7
   9   0   3 198.480 306.900   7
   9   0   4 866.876 402.617   7
   9   1 -13-184.791 257.141   1
   9   1 -12 622.806 417.702   1
   9   1 -11 222.791 236.137   1
   9   1 -10 440.435 371.105   1
   9   1  -9 63.5617 249.422  10
   9   1  -9 42.4577 230.947   1
   9   1  -8 60.8543 202.109  10
   9   1  -8 272.328 214.319   1
   9   1  -8 130.452 276.233   7
   9   1  -7 252.290 212.713  10
   9   1  -7 324.792 246.865   1
   9   1  -7 811.922 363.972   7
   9   1  -6 492.791 303.185   7
   9   1  -6 334.177 247.944   1
   9   1  -5 10.2382 239.493   1
   9   1  -5 160.193 211.230   7
   9   1  -4-138.457 240.146   1
   9   1  -4 538.313 324.463   7
   9   1  -3 2240.64 540.846   7
   9   1  -2 1320.27 406.578   7
   9   1  -1 3359.37 682.254   7
   9   1   0 1722.20 504.212   7
   9   1   1 736.663 422.562   7
   9   1   2 934.150 431.086   7
   9   1   3 41.2982 286.079   7
   9   2 -12 382.870 327.072   1
   9   2 -11 596.447 371.181   1
   9   2 -10 429.920 319.375   1
   9   2  -9 118.740 225.790   1
   9   2  -8 1325.36 387.075   7
   9   2  -8 990.011 388.305   1
   9   2  -7 123.815 210.008   1
   9   2  -7 37.2226 197.452   7
   9   2  -6 444.226 266.521   1
   9   2  -6 51.8536 204.155   7
   9   2  -5 103.139 207.240   1
   9   2  -5-664.167 304.333   7
   9   2  -4 1016.01 398.062   7
   9   2  -4 503.593 277.725   1
   9   2  -3 2689.36 553.524   7
   9   2  -2 178.309 234.579   7
   9   2  -1 3055.59 627.939   7
   9   2   0-416.608 309.032   7
   9   2   1 1286.59 437.482   7
   9   2   2 188.097 295.829   7
   9   3 -11 50.2805 267.029   1
   9   3 -10-406.548 307.773   1
   9   3  -9 458.035 316.024   1
   9   3  -8 418.259 341.810   1
   9   3  -7 1300.64 437.012   1
   9   3  -7 1385.39 470.136   7
   9   3  -6 1027.07 378.401   7
   9   3  -6 706.570 326.031   1
   9   3  -5 790.121 334.338   7
   9   3  -5 581.094 273.854   1
   9   3  -4 517.588 328.959   7
   9   3  -3 360.573 338.610   7
   9   3  -2 380.980 358.408   7
   9   3  -1 54.3441 251.011   7
   9   3   0-463.451 377.287   7
   9   4 -10 1087.77 446.478   1
   9   4  -9 471.852 313.711   1
   9   4  -8 791.686 387.255   1
   9   4  -7 578.340 361.460   1
   9   4  -6-37.5906 244.762   1
   9   4  -4 262.551 261.499   7
   9   4  -3 339.662 299.991   7
   9   4  -2-177.254 289.329   7
   9   4  -1 115.176 237.666   7
   9   5  -7 353.037 304.477   1
  10 -12  -3 1642.66 487.586  10
  10 -12  -2 168.379 301.113  10
  10 -12  -1 348.873 327.627  10
  10 -12   0 372.414 332.712  10
  10 -11  -5 80.9363 263.771  10
  10 -11  -4 3061.08 650.954  10
  10 -11  -3 1303.92 524.896  10
  10 -11  -3 334.729 307.611   5
  10 -11  -2 2053.38 545.034  10
  10 -11  -2 2314.94 591.082   5
  10 -11  -1 955.630 452.303  10
  10 -11  -1 706.434 383.440   5
  10 -11   0 255.695 292.125  10
  10 -11   0 42.3180 261.018   5
  10 -11   1 606.626 384.001  10
  10 -11   1 590.399 387.715   5
  10 -11   2 329.975 339.714   5
  10 -11   3-20.9273 255.796   5
  10 -10  -7 1173.54 440.125  10
  10 -10  -6 66.1137 282.383  10
  10 -10  -5 267.651 261.800  10
  10 -10  -5 256.610 372.176   5
  10 -10  -4 613.011 391.455  10
  10 -10  -4 511.728 397.306   5
  10 -10  -3 211.366 283.203  10
  10 -10  -3 126.189 244.598   5
  10 -10  -2 670.577 383.606  10
  10 -10  -2 353.577 351.033   5
  10 -10  -1-303.030 310.947  10
  10 -10  -1-237.580 380.408   5
  10 -10   0 180.111 240.916  10
  10 -10   0 107.030 224.320   5
  10 -10   1 763.388 376.894   5
  10 -10   2 694.595 356.915   5
  10 -10   3 500.678 462.128   5
  10 -10   3 62.3727 259.777   7
  10 -10   4 1520.52 506.081   5
  10 -10   5 405.231 307.002   5
  10 -10   6 461.255 267.530   3
  10  -9  -8 1536.17 542.161  10
  10  -9  -7 1877.98 585.081  10
  10  -9  -6 1824.09 512.406  10
  10  -9  -5 678.746 353.431  10
  10  -9  -5 1128.98 441.721   5
  10  -9  -4 408.575 389.230  10
  10  -9  -4 341.266 309.196   5
  10  -9  -3 2109.05 544.320  10
  10  -9  -3 1572.10 450.305   5
  10  -9  -2 161.180 399.022  10
  10  -9  -2-273.693 267.654   5
  10  -9  -1 3023.63 621.844  10
  10  -9  -1 3301.10 630.501   5
  10  -9   0 548.947 303.858  10
  10  -9   0 574.807 348.802   5
  10  -9   1 2429.91 576.943   5
  10  -9   2 337.898 279.163   5
  10  -9   2 223.918 244.574   7
  10  -9   3 2203.58 569.510   5
  10  -9   3 2839.67 563.325   7
  10  -9   4 1289.37 455.604   5
  10  -9   4 1754.10 494.737   7
  10  -9   5 618.212 306.960   5
  10  -9   5 1018.15 372.261   7
  10  -9   6 859.993 399.364   5
  10  -8  -9 1612.80 507.990  10
  10  -8  -8 1070.29 416.636  10
  10  -8  -7 1982.39 567.237  10
  10  -8  -6 489.791 304.271  10
  10  -8  -5 473.482 398.263  10
  10  -8  -5 297.082 268.603   5
  10  -8  -4 1738.67 525.058  10
  10  -8  -4 663.212 359.332   5
  10  -8  -3 441.201 325.110  10
  10  -8  -3 30.6492 241.440   5
  10  -8  -2 982.700 409.421  10
  10  -8  -2 1239.14 412.320   5
  10  -8  -1-246.624 332.044  10
  10  -8  -1-407.012 270.766   5
  10  -8   0-245.052 244.715  10
  10  -8   0 120.025 206.247   5
  10  -8   1 336.886 282.478   5
  10  -8   2 263.944 324.819   5
  10  -8   2 482.882 385.392   7
  10  -8   3 1105.77 385.172   5
  10  -8   3 1717.43 459.777   7
  10  -8   4 530.028 348.812   5
  10  -8   4 867.257 417.582   7
  10  -8   5 840.322 389.041   5
  10  -8   5 970.749 362.620   7
  10  -8   6-165.103 234.513   5
  10  -8   6 973.728 393.987   7
  10  -7 -10 1744.63 548.791  10
  10  -7  -9 1184.41 481.245  10
  10  -7  -8 1406.27 543.592  10
  10  -7  -7 398.893 404.071  10
  10  -7  -6 700.551 450.574  10
  10  -7  -5 846.501 377.622  10
  10  -7  -5 568.150 358.425   5
  10  -7  -4 691.969 401.251  10
  10  -7  -4 433.425 280.281   5
  10  -7  -3 948.266 400.085  10
  10  -7  -3 800.337 326.741   5
  10  -7  -2 528.376 354.306  10
  10  -7  -2 689.026 290.453   5
  10  -7  -1 602.902 303.697  10
  10  -7  -1 311.010 270.510   5
  10  -7   0 2246.33 522.978   5
  10  -7   1 40.6203 238.862   5
  10  -7   1-58.3522 238.801   7
  10  -7   2 394.306 238.622   5
  10  -7   2 323.970 278.787   7
  10  -7   3 407.604 280.383   5
  10  -7   3-290.241 260.403   7
  10  -7   4 219.532 249.752   5
  10  -7   4 225.600 261.736   7
  10  -7   5-69.3960 218.785   5
  10  -7   5 73.1040 277.124   7
  10  -7   6 290.777 290.538   7
  10  -7   7 380.599 278.824   7
  10  -6 -11 700.390 477.209  10
  10  -6 -10 536.128 449.317  10
  10  -6  -9 493.729 416.088  10
  10  -6  -8 1244.31 459.512  10
  10  -6  -7 604.721 416.353  10
  10  -6  -6 358.518 391.127  10
  10  -6  -5 1981.35 464.846   5
  10  -6  -5 2720.55 584.394  10
  10  -6  -4 907.215 389.087  10
  10  -6  -4 24.2642 188.938   5
  10  -6  -3 1999.93 537.308  10
  10  -6  -3 1892.77 411.508   5
  10  -6  -2 544.106 344.349  10
  10  -6  -2 1187.52 369.393   5
  10  -6  -1 336.144 285.551  10
  10  -6  -1 1093.83 368.350   5
  10  -6   0 732.524 306.731   5
  10  -6   0 949.654 386.399   7
  10  -6   1 908.152 314.128   5
  10  -6   1 228.798 291.650   7
  10  -6   2 497.028 301.411   5
  10  -6   2 465.633 300.260   7
  10  -6   3 503.695 293.799   7
  10  -6   4-160.989 294.549   7
  10  -6   5-106.518 291.960   7
  10  -6   6 83.0150 230.458   7
  10  -6   7 606.737 367.005   7
  10  -5 -12 1809.19 559.307  10
  10  -5 -11 653.265 425.395  10
  10  -5 -10 1475.66 491.034  10
  10  -5  -9 749.810 454.752  10
  10  -5  -8 189.445 326.853  10
  10  -5  -7 2267.90 583.439  10
  10  -5  -6 1160.77 430.153  10
  10  -5  -5 8734.82 981.446  10
  10  -5  -4 1388.20 442.375  10
  10  -5  -4 1053.35 328.033   5
  10  -5  -3 6313.68 709.813   5
  10  -5  -3 5763.29 795.020  10
  10  -5  -2 436.436 240.563  10
  10  -5  -2 303.154 213.991   5
  10  -5  -1 2403.53 458.991   5
  10  -5   0 3553.84 650.918   7
  10  -5   1 2194.76 537.799   7
  10  -5   2 1267.04 402.502   7
  10  -5   3 239.813 247.383   7
  10  -5   4 1756.24 506.824   7
  10  -5   5 56.4741 265.370   7
  10  -5   6 1623.04 509.068   7
  10  -4 -12 425.568 362.989  10
  10  -4 -11 670.465 408.117  10
  10  -4 -10 466.479 450.177  10
  10  -4  -9-168.886 268.212  10
  10  -4  -8 138.276 330.673  10
  10  -4  -7 74.5052 314.712  10
  10  -4  -6 1272.73 507.029  10
  10  -4  -5 416.714 332.548  10
  10  -4  -4 1535.72 451.422  10
  10  -4  -3-100.369 293.032  10
  10  -4  -1 3046.86 592.450   7
  10  -4   0 601.245 351.186   7
  10  -4   1 995.721 429.883   7
  10  -4   2-30.9029 271.026   7
  10  -4   3 161.175 303.565   7
  10  -4   4 604.391 375.710   7
  10  -4   5 167.556 304.874   7
  10  -3 -13 214.011 290.594  10
  10  -3 -12 843.437 411.309  10
  10  -3 -11 509.503 355.228  10
  10  -3 -10 223.011 261.732  10
  10  -3  -9 191.332 372.566  10
  10  -3  -8 555.156 339.024  10
  10  -3  -7 163.474 283.718  10
  10  -3  -6 804.061 361.289  10
  10  -3  -5-165.606 269.931  10
  10  -3  -4 1039.15 430.433  10
  10  -3  -3 424.593 314.666  10
  10  -3  -3 259.835 276.839   7
  10  -3  -2 121.526 350.761   7
  10  -3  -1 1218.78 434.087   7
  10  -3   0 190.254 352.692   7
  10  -3   1 118.229 283.146   7
  10  -3   2 2673.59 567.677   7
  10  -3   3 118.811 277.233   7
  10  -3   4 1566.34 482.704   7
  10  -3   5 683.150 408.893   7
  10  -2 -13 448.146 352.641  10
  10  -2 -12 404.022 372.251  10
  10  -2 -11 703.655 409.569  10
  10  -2 -10 72.5344 339.009  10
  10  -2  -9 1505.53 466.751  10
  10  -2  -8 2309.55 541.261  10
  10  -2  -7 576.288 385.453  10
  10  -2  -6 1100.96 349.351  10
  10  -2  -5 622.589 348.853  10
  10  -2  -5 811.195 334.058   1
  10  -2  -4 999.687 383.518  10
  10  -2  -4 1339.89 464.391   7
  10  -2  -4 957.633 308.443   1
  10  -2  -3 315.940 330.177   7
  10  -2  -2 3128.33 657.349   7
  10  -2  -1 442.946 290.769   7
  10  -2   0 72.0792 301.717   7
  10  -2   1 1480.02 500.293   7
  10  -2   2 463.866 372.331   7
  10  -2   3 3360.54 675.461   7
  10  -2   4 59.8032 278.060   7
  10  -1 -13-200.093 277.566  10
  10  -1 -12 1351.72 500.735  10
  10  -1 -11 1750.32 483.615  10
  10  -1 -10 1722.78 480.212  10
  10  -1 -10 1573.70 498.988   1
  10  -1  -9 4488.24 725.602  10
  10  -1  -9 4441.22 759.180   1
  10  -1  -8-228.576 303.871  10
  10  -1  -8 120.181 285.432   1
  10  -1  -7 2268.31 488.631  10
  10  -1  -7 2075.70 510.209   1
  10  -1  -6 1052.29 418.887  10
  10  -1  -6 902.898 369.492   1
  10  -1  -6 1438.24 473.846   7
  10  -1  -5 2123.87 509.013   7
  10  -1  -5 1536.07 402.434   1
  10  -1  -4 1127.44 449.809   7
  10  -1  -3 2922.46 603.197   7
  10  -1  -2 305.189 408.821   7
  10  -1  -1 172.973 303.324   7
  10  -1   0 583.793 351.485   7
  10  -1   1 820.346 433.855   7
  10  -1   2 2636.61 625.828   7
  10  -1   3-153.842 289.533   7
  10   0 -12 143.309 248.781   1
  10   0 -11 452.430 339.125   1
  10   0 -10 2244.07 534.717  10
  10   0 -10 2285.62 626.957   1
  10   0  -9 225.014 322.744   1
  10   0  -9 46.6451 303.441  10
  10   0  -8 480.085 347.500  10
  10   0  -8 469.139 303.331   7
  10   0  -8 192.117 278.349   1
  10   0  -7 338.947 311.235  10
  10   0  -7 434.086 262.811   1
  10   0  -7 352.847 310.877   7
  10   0  -6 278.746 242.648   1
  10   0  -6 617.879 341.505   7
  10   0  -5 36.1143 303.171   7
  10   0  -5 542.159 279.408   1
  10   0  -4 356.726 299.779   7
  10   0  -3-358.739 301.550   7
  10   0  -2 14.3209 314.591   7
  10   0  -1 1803.91 524.814   7
  10   0   0 806.676 425.082   7
  10   0   1 105.628 248.565   7
  10   1 -11 437.218 351.757   1
  10   1 -10 281.109 334.705   1
  10   1  -9 55.4781 260.479   1
  10   1  -9 233.297 280.024   7
  10   1  -8-719.441 341.153   1
  10   1  -8 1757.36 458.414   7
  10   1  -7 1323.29 396.034   7
  10   1  -7 741.961 364.104   1
  10   1  -6 71.5111 185.503   1
  10   1  -6 235.507 258.799   7
  10   1  -5 467.013 323.810   7
  10   1  -4 1036.88 372.321   7
  10   1  -3 159.577 277.280   7
  10   1  -2 3008.80 650.248   7
  10   1  -1 57.0412 289.452   7
  10   1   0 2186.49 590.656   7
  10   2 -10-487.585 321.242   1
  10   2  -9 81.1420 238.487   1
  10   2  -8 834.920 337.203   1
  10   2  -7 11.8264 218.084   1
  10   2  -7-235.935 313.500   7
  10   2  -6 1268.47 424.693   1
  10   2  -6 1844.71 498.511   7
  10   2  -5 845.576 406.506   7
  10   2  -4 1352.36 472.894   7
  10   2  -3 1868.78 504.258   7
  10   2  -2 110.417 298.703   7
  10   2  -1 1476.75 493.387   7
  10   3  -9 664.705 358.548   1
  10   3  -8 235.466 330.245   1
  10   3  -7 1749.18 508.491   1
  10   3  -5 479.592 354.309   7
  10   3  -4 445.325 337.574   7
  10   3  -3-76.6841 284.591   7
  11 -11  -2-667.699 375.214  10
  11 -11  -1 27.1147 298.747  10
  11 -11   0 213.079 238.871  10
  11 -10  -4 12.7533 378.946  10
  11 -10  -4 355.087 360.765   5
  11 -10  -3-290.497 310.896  10
  11 -10  -3-83.1613 278.181   5
  11 -10  -2 1020.94 447.476  10
  11 -10  -2 834.336 386.647   5
  11 -10  -1-221.429 266.872  10
  11 -10  -1 321.317 254.689   5
  11 -10   0 2455.04 599.901  10
  11 -10   0 2861.40 647.026   5
  11 -10   1-182.868 332.358   5
  11 -10   2 1133.44 466.667   5
  11 -10   2 1201.77 441.824   7
  11 -10   3 828.159 341.257   7
  11  -9  -6 648.924 450.409  10
  11  -9  -5 0.78370 252.119   5
  11  -9  -5 404.290 395.818  10
  11  -9  -4 253.058 339.169  10
  11  -9  -4 96.6819 234.426   5
  11  -9  -3 1025.65 459.471  10
  11  -9  -3 736.618 426.342   5
  11  -9  -2 93.0461 278.344  10
  11  -9  -2-124.692 326.765   5
  11  -9  -1 1920.51 473.351  10
  11  -9  -1 1443.02 467.800   5
  11  -9   0 138.576 248.201   5
  11  -9   1-90.1521 295.878   5
  11  -9   1 867.242 405.825   7
  11  -9   2 476.563 364.376   5
  11  -9   2 888.457 428.852   7
  11  -9   3 184.644 228.308   5
  11  -9   3-106.074 247.910   7
  11  -9   4 1287.98 488.470   5
  11  -9   4 1364.49 442.909   7
  11  -8  -7 1130.99 412.430  10
  11  -8  -6 311.412 383.678  10
  11  -8  -5 875.163 426.862   5
  11  -8  -5 592.555 369.624  10
  11  -8  -4-41.2349 357.171  10
  11  -8  -4 55.4315 217.690   5
  11  -8  -3 19.6517 281.743  10
  11  -8  -3-66.8894 314.077   5
  11  -8  -2 513.353 293.030  10
  11  -8  -2 291.647 319.298   5
  11  -8  -1-337.555 356.968  10
  11  -8  -1-62.8847 273.257   5
  11  -8   0 90.1498 217.112   5
  11  -8   1-142.338 295.016   5
  11  -8   1 371.944 295.714   7
  11  -8   2-343.982 298.577   5
  11  -8   2 289.104 362.759   7
  11  -8   3 540.492 325.869   5
  11  -8   3 795.596 358.566   7
  11  -8   4-366.077 312.733   7
  11  -7  -8 328.396 418.291  10
  11  -7  -7 591.122 387.449  10
  11  -7  -6 789.522 438.013  10
  11  -7  -5 881.226 408.623  10
  11  -7  -4 914.081 444.297  10
  11  -7  -4 328.922 274.647   5
  11  -7  -3-252.038 311.177  10
  11  -7  -3 342.188 318.980   5
  11  -7  -2 324.333 349.131  10
  11  -7  -2 74.2311 217.488   5
  11  -7  -1-237.207 277.315   5
  11  -7   0-338.141 258.357   5
  11  -7   0 234.339 336.375   7
  11  -7   1 314.123 276.710   7
  11  -7   2-278.527 300.954   7
  11  -7   3 348.683 267.453   7
  11  -7   4-93.8865 254.965   7
  11  -6  -9 70.3929 333.185  10
  11  -6  -8-17.0668 344.337  10
  11  -6  -7 803.002 356.760  10
  11  -6  -6 6412.67 920.645  10
  11  -6  -5-385.637 290.085  10
  11  -6  -4 4755.87 798.042  10
  11  -6  -4 3641.71 613.365   5
  11  -6  -3 251.235 297.300  10
  11  -6  -2 630.275 413.257  10
  11  -6  -1 1401.53 431.375   7
  11  -6   0 713.071 377.664   7
  11  -6   1 1062.39 441.543   7
  11  -6   2 1025.19 337.096   7
  11  -6   3 464.696 353.947   7
  11  -6   4 240.798 303.853   7
  11  -5 -10 351.533 352.863  10
  11  -5  -9 2007.37 586.922  10
  11  -5  -8 1743.96 521.538  10
  11  -5  -7 3732.54 708.940  10
  11  -5  -6 143.604 298.833  10
  11  -5  -5 4623.28 767.643  10
  11  -5  -4 402.152 368.659  10
  11  -5  -3-92.1023 308.423  10
  11  -5  -2 136.345 303.846   7
  11  -5  -1 80.8042 337.002   7
  11  -5   0 802.687 387.258   7
  11  -5   1-31.7411 351.749   7
  11  -5   2 614.273 392.489   7
  11  -5   3 520.151 373.027   7
  11  -4 -11-141.324 304.515  10
  11  -4 -10 161.258 274.666  10
  11  -4  -9 1107.80 473.217  10
  11  -4  -8 1412.82 495.123  10
  11  -4  -7 499.188 324.848  10
  11  -4  -6 1997.42 570.084  10
  11  -4  -5 571.495 381.437  10
  11  -4  -4 19.3789 232.521  10
  11  -4  -3 466.378 364.957   7
  11  -4  -2 377.662 389.072   7
  11  -4  -1 618.305 367.164   7
  11  -4   0 922.180 436.385   7
  11  -4   1 772.939 353.810   7
  11  -4   2 1017.28 397.538   7
  11  -3 -11 487.726 381.378  10
  11  -3 -10 118.159 351.556  10
  11  -3  -9-57.5807 250.298  10
  11  -3  -8 232.507 362.867  10
  11  -3  -7 349.291 298.828  10
  11  -3  -6 25.3236 259.512  10
  11  -3  -5 370.908 261.030  10
  11  -3  -4 1092.19 459.091   7
  11  -3  -3 963.935 404.296   7
  11  -3  -2 1279.77 486.267   7
  11  -3  -1 1565.37 455.804   7
  11  -3   0 626.655 418.850   7
  11  -3   1 867.477 438.321   7
  11  -2 -12 1057.17 430.156  10
  11  -2 -11 414.981 383.838  10
  11  -2 -10 2340.36 640.228  10
  11  -2  -9 196.711 314.477  10
  11  -2  -8 2605.73 585.651   1
  11  -2  -8 1564.52 521.976  10
  11  -2  -7-118.938 266.897  10
  11  -2  -7 83.1720 260.477   1
  11  -2  -6 654.797 383.242  10
  11  -2  -6 1068.36 391.599   1
  11  -2  -6 868.677 477.219   7
  11  -2  -5 202.548 267.517   7
  11  -2  -4 1899.09 511.375   7
  11  -2  -3 781.734 443.462   7
  11  -2  -2 2081.62 538.369   7
  11  -2  -1 1253.33 468.300   7
  11  -2   0 771.623 409.312   7
  11  -1 -11 791.465 397.114  10
  11  -1 -10-21.9595 258.209  10
  11  -1 -10 814.303 429.877   1
  11  -1  -9 212.504 302.122  10
  11  -1  -9 1367.92 472.206   1
  11  -1  -8 594.243 356.977   1
  11  -1  -8 310.998 327.068  10
  11  -1  -8 621.041 391.327   7
  11  -1  -7-149.446 299.137  10
  11  -1  -7 570.889 329.138   7
  11  -1  -7-64.1540 216.794   1
  11  -1  -6 803.604 413.000   7
  11  -1  -5 19.8184 232.217   7
  11  -1  -4 1248.24 474.637   7
  11  -1  -3 20.8572 267.429   7
  11  -1  -2 745.898 420.237   7
  11  -1  -1 1052.73 462.789   7
  11   0 -10 321.261 336.631   1
  11   0 -10 148.294 279.057   7
  11   0  -9-120.963 260.972   1
  11   0  -9 285.590 331.406   7
  11   0  -8-119.233 236.812   1
  11   0  -8 539.860 314.339   7
  11   0  -7 240.378 308.674   7
  11   0  -7 370.523 234.420   1
  11   0  -6 425.338 368.206   7
  11   0  -5 77.6612 247.033   7
  11   0  -4 130.763 298.210   7
  11   0  -3 65.5754 354.491   7
  11   0  -2 474.628 408.264   7
  11   1  -9 411.949 296.171   1
  11   1  -8 468.383 292.429   1
  11   1  -8 329.526 291.366   7
  11   1  -7 1712.54 503.717   7
  11   1  -6 243.114 250.681   7
  11   1  -5 639.900 350.559   7
  11   1  -4 1023.66 402.504   7
  12  -9  -3 718.352 364.979   5
  12  -9  -2-20.6666 213.859   5
  12  -9  -1 758.404 377.467   5
  12  -9   0-354.686 290.316   5
  12  -8  -4 18.5058 238.426   5
  12  -8  -3-184.275 246.438   5
  12  -7  -4 964.654 513.889  10
  12  -7  -3 57.5568 338.681  10
  12  -7  -1 626.576 444.059   7
  12  -6  -6 2922.16 685.609  10
  12  -6  -5 915.167 448.280  10
  12  -6  -4 1080.64 472.075  10
  12  -6  -3 950.125 472.700  10
  12  -6  -2-266.012 250.925   7
  12  -6  -1 1264.35 499.390   7
  12  -5  -7 1002.79 471.050  10
  12  -5  -6 349.259 396.642  10
  12  -5  -5 541.072 394.486  10
  12  -5  -4 194.873 276.148  10
  12  -5  -3 667.762 411.575   7
  12  -5  -2-61.9707 277.167   7
  12  -4  -8 229.492 287.983  10
  12  -4  -7 638.510 445.263  10
  12  -4  -6 233.549 283.883  10
  12  -4  -5 213.997 323.431  10
  12  -4  -5 201.536 340.238   7
  12  -4  -4 1877.24 565.555   7
  12  -4  -3 480.110 399.931   7
  12  -3  -8 4.95259 276.285  10
  12  -3  -8 641.232 363.403   1
  12  -3  -7 1171.40 428.491  10
  12  -3  -6-488.642 338.291  10
  12  -3  -6 721.416 388.948   7
  12  -3  -5 1460.82 512.121   7
  12  -3  -4 1391.61 450.513   7
  12  -2  -8-130.980 301.685  10
  12  -2  -8 396.502 314.308   1
   0   0   0    0.00    0.00   0
TITL ausraj16 in P1
REM P1 (#1 in standard setting)
CELL 0.71073   8.493748   9.490105  11.765557 101.0299 104.0033 113.0744
ZERR    2.00   0.000507   0.000458   0.000620   0.0043   0.0049   0.0051
LATT -1
SFAC C H O P S Fe
UNIT 20.00 26.00 10.00 2.00 4.00 4.00
TREF
HKLF 4
END
;
_shelx_hkl_checksum              54043
#END Tags that were not found in dictionaries
loop_
_space_group_symop_operation_xyz
'x, y, z'
'-x, -y, -z'
loop_
_atom_site_label
_atom_site_type_symbol
_atom_site_fract_x
_atom_site_fract_y
_atom_site_fract_z
_atom_site_U_iso_or_equiv
_atom_site_adp_type
_atom_site_occupancy
_atom_site_site_symmetry_order
_atom_site_calc_flag
_atom_site_refinement_flags_posn
_atom_site_refinement_flags_adp
C1 C -0.0166(6) -0.0676(5) 0.2227(4) 0.0247(11) Uani 1 1 d . .
C2 C -0.0288(6) 0.1440(5) 0.4152(5) 0.0280(11) Uani 1 1 d . .
C3 C -0.2392(6) 0.0793(5) 0.1934(4) 0.0239(11) Uani 1 1 d . .
C4 C 0.1921(6) 0.5279(5) 0.4457(4) 0.0212(10) Uani 1 1 d . .
C5 C -0.0450(6) 0.4523(5) 0.2379(4) 0.0204(10) Uani 1 1 d . .
C6 C 0.3796(6) 0.2249(5) 0.2372(4) 0.0250(11) Uani 1 1 d . .
H6A H 0.5070 0.3059 0.2556 0.030 Uiso 1 1 calc R U
H6B H 0.3795 0.1204 0.2368 0.030 Uiso 1 1 calc R U
C7 C 0.2619(6) 0.2065(5) 0.1100(4) 0.0242(10) Uani 1 1 d . .
H7A H 0.2248 0.0991 0.0522 0.029 Uiso 1 1 calc R U
H7B H 0.3346 0.2899 0.0788 0.029 Uiso 1 1 calc R U
C8 C 0.5725(6) 0.6491(5) 0.2768(5) 0.0312(12) Uani 1 1 d . .
H8A H 0.6483 0.7498 0.2648 0.047 Uiso 1 1 calc R U
H8B H 0.5611 0.5569 0.2149 0.047 Uiso 1 1 calc R U
H8C H 0.6297 0.6492 0.3598 0.047 Uiso 1 1 calc R U
C9 C 0.2718(7) 0.6476(5) 0.1060(4) 0.0318(12) Uani 1 1 d . .
H9A H 0.1581 0.6568 0.0916 0.048 Uiso 1 1 calc R U
H9B H 0.2505 0.5506 0.0441 0.048 Uiso 1 1 calc R U
H9C H 0.3661 0.7433 0.0993 0.048 Uiso 1 1 calc R U
C10 C 0.4037(6) 0.8297(5) 0.3606(4) 0.0301(12) Uani 1 1 d . .
H10A H 0.4685 0.8420 0.4459 0.045 Uiso 1 1 calc R U
H10B H 0.2912 0.8384 0.3560 0.045 Uiso 1 1 calc R U
H10C H 0.4820 0.9147 0.3346 0.045 Uiso 1 1 calc R U
Fe1 Fe -0.00663(8) 0.12860(7) 0.26677(6) 0.01957(17) Uani 1 1 d . .
Fe2 Fe 0.15001(8) 0.42339(7) 0.29238(6) 0.01638(16) Uani 1 1 d . .
O1 O -0.0238(5) -0.1931(4) 0.1941(3) 0.0380(9) Uani 1 1 d . .
O2 O -0.0454(5) 0.1558(4) 0.5094(3) 0.0409(9) Uani 1 1 d . .
O3 O -0.3889(4) 0.0487(4) 0.1460(3) 0.0395(9) Uani 1 1 d . .
O4 O 0.2192(4) 0.5970(4) 0.5466(3) 0.0331(8) Uani 1 1 d . .
O5 O -0.1781(4) 0.4622(4) 0.2013(3) 0.0296(8) Uani 1 1 d . .
P1 P 0.34691(15) 0.63309(13) 0.25953(11) 0.0195(3) Uani 1 1 d . .
S1 S 0.29894(15) 0.28774(13) 0.35845(11) 0.0217(3) Uani 1 1 d . .
S2 S 0.05668(15) 0.22697(12) 0.11357(10) 0.0192(2) Uani 1 1 d . .
loop_
_atom_site_aniso_label
_atom_site_aniso_U_11
_atom_site_aniso_U_22
_atom_site_aniso_U_33
_atom_site_aniso_U_23
_atom_site_aniso_U_13
_atom_site_aniso_U_12
C1 0.025(3) 0.034(3) 0.026(3) 0.018(2) 0.018(2) 0.016(2)
C2 0.029(3) 0.025(2) 0.039(3) 0.015(2) 0.015(3) 0.017(2)
C3 0.026(3) 0.020(2) 0.031(3) 0.013(2) 0.016(2) 0.011(2)
C4 0.018(2) 0.022(2) 0.027(3) 0.011(2) 0.009(2) 0.011(2)
C5 0.026(3) 0.016(2) 0.024(3) 0.007(2) 0.015(2) 0.010(2)
C6 0.021(2) 0.026(2) 0.035(3) 0.010(2) 0.012(2) 0.015(2)
C7 0.023(3) 0.024(2) 0.027(3) 0.005(2) 0.014(2) 0.010(2)
C8 0.024(3) 0.030(3) 0.041(3) 0.012(2) 0.016(3) 0.011(2)
C9 0.032(3) 0.032(3) 0.028(3) 0.011(2) 0.011(3) 0.011(2)
C10 0.032(3) 0.018(2) 0.040(3) 0.008(2) 0.017(3) 0.010(2)
Fe1 0.0195(4) 0.0183(3) 0.0264(4) 0.0097(3) 0.0111(3) 0.0110(3)
Fe2 0.0158(3) 0.0173(3) 0.0194(4) 0.0060(3) 0.0076(3) 0.0100(3)
O1 0.055(2) 0.0277(18) 0.051(2) 0.0174(18) 0.031(2) 0.0291(18)
O2 0.051(2) 0.053(2) 0.036(2) 0.021(2) 0.026(2) 0.031(2)
O3 0.0213(19) 0.041(2) 0.055(3) 0.015(2) 0.013(2) 0.0148(17)
O4 0.0266(19) 0.047(2) 0.0221(19) 0.0018(17) 0.0080(17) 0.0180(17)
O5 0.0255(18) 0.0341(19) 0.040(2) 0.0164(17) 0.0128(18) 0.0210(16)
P1 0.0181(6) 0.0184(6) 0.0230(7) 0.0065(5) 0.0085(6) 0.0086(5)
S1 0.0188(6) 0.0260(6) 0.0244(7) 0.0098(5) 0.0071(5) 0.0139(5)
S2 0.0188(6) 0.0197(5) 0.0201(6) 0.0059(5) 0.0071(5) 0.0100(5)
loop_
_atom_type_symbol
_atom_type_description
_atom_type_scat_dispersion_real
_atom_type_scat_dispersion_imag
_atom_type_scat_source
C C 0.0033 0.0016 'International Tables Vol C Tables 4.2.6.8 and 6.1.1.4'
H H 0.0000 0.0000 'International Tables Vol C Tables 4.2.6.8 and 6.1.1.4'
Fe Fe 0.3463 0.8444 'International Tables Vol C Tables 4.2.6.8 and 6.1.1.4'
O O 0.0106 0.0060 'International Tables Vol C Tables 4.2.6.8 and 6.1.1.4'
P P 0.1023 0.0942 'International Tables Vol C Tables 4.2.6.8 and 6.1.1.4'
S S 0.1246 0.1234 'International Tables Vol C Tables 4.2.6.8 and 6.1.1.4'
loop_
_geom_angle_atom_site_label_1
_geom_angle_atom_site_label_2
_geom_angle_atom_site_label_3
_geom_angle
O1 C1 Fe1 179.6(5)
O2 C2 Fe1 178.3(4)
O3 C3 Fe1 179.5(4)
O4 C4 Fe2 179.7(4)
O5 C5 Fe2 176.2(4)
C7 C6 S1 112.3(3)
C7 C6 H6A 109.1
S1 C6 H6A 109.1
C7 C6 H6B 109.1
S1 C6 H6B 109.1
H6A C6 H6B 107.9
C6 C7 S2 111.9(3)
C6 C7 H7A 109.2
S2 C7 H7A 109.2
C6 C7 H7B 109.2
S2 C7 H7B 109.2
H7A C7 H7B 107.9
P1 C8 H8A 109.5
P1 C8 H8B 109.5
H8A C8 H8B 109.5
P1 C8 H8C 109.5
H8A C8 H8C 109.5
H8B C8 H8C 109.5
P1 C9 H9A 109.5
P1 C9 H9B 109.5
H9A C9 H9B 109.5
P1 C9 H9C 109.5
H9A C9 H9C 109.5
H9B C9 H9C 109.5
P1 C10 H10A 109.5
P1 C10 H10B 109.5
H10A C10 H10B 109.5
P1 C10 H10C 109.5
H10A C10 H10C 109.5
H10B C10 H10C 109.5
C3 Fe1 C2 92.7(2)
C3 Fe1 C1 100.7(2)
C2 Fe1 C1 101.58(19)
C3 Fe1 S2 88.26(14)
C2 Fe1 S2 154.33(14)
C1 Fe1 S2 103.43(14)
C3 Fe1 S1 157.30(14)
C2 Fe1 S1 90.05(16)
C1 Fe1 S1 100.84(15)
S2 Fe1 S1 79.74(4)
C3 Fe1 Fe2 101.36(13)
C2 Fe1 Fe2 98.73(14)
C1 Fe1 Fe2 149.12(14)
S2 Fe1 Fe2 56.09(3)
S1 Fe1 Fe2 55.98(3)
C4 Fe2 C5 91.2(2)
C4 Fe2 P1 95.37(14)
C5 Fe2 P1 97.26(13)
C4 Fe2 S1 90.83(14)
C5 Fe2 S1 155.08(13)
P1 Fe2 S1 107.27(5)
C4 Fe2 S2 163.21(14)
C5 Fe2 S2 90.85(14)
P1 Fe2 S2 100.89(5)
S1 Fe2 S2 80.46(4)
C4 Fe2 Fe1 106.59(14)
C5 Fe2 Fe1 99.06(13)
P1 Fe2 Fe1 152.20(4)
S1 Fe2 Fe1 56.69(3)
S2 Fe2 Fe1 56.65(3)
C10 P1 C9 103.2(2)
C10 P1 C8 101.6(2)
C9 P1 C8 102.6(2)
C10 P1 Fe2 115.16(16)
C9 P1 Fe2 114.73(16)
C8 P1 Fe2 117.58(15)
C6 S1 Fe2 107.21(14)
C6 S1 Fe1 101.05(15)
Fe2 S1 Fe1 67.33(4)
C7 S2 Fe2 104.96(15)
C7 S2 Fe1 103.08(14)
Fe2 S2 Fe1 67.26(4)
loop_
_geom_bond_atom_site_label_1
_geom_bond_atom_site_label_2
_geom_bond_distance
C1 O1 1.146(5)
C1 Fe1 1.797(5)
C2 O2 1.141(5)
C2 Fe1 1.786(5)
C3 O3 1.148(5)
C3 Fe1 1.778(5)
C4 O4 1.159(5)
C4 Fe2 1.758(5)
C5 O5 1.156(5)
C5 Fe2 1.772(4)
C6 C7 1.520(6)
C6 S1 1.824(4)
C6 H6A 0.9900
C6 H6B 0.9900
C7 S2 1.837(4)
C7 H7A 0.9900
C7 H7B 0.9900
C8 P1 1.819(4)
C8 H8A 0.9800
C8 H8B 0.9800
C8 H8C 0.9800
C9 P1 1.816(5)
C9 H9A 0.9800
C9 H9B 0.9800
C9 H9C 0.9800
C10 P1 1.815(4)
C10 H10A 0.9800
C10 H10B 0.9800
C10 H10C 0.9800
Fe1 S2 2.2648(12)
Fe1 S1 2.2649(13)
Fe1 Fe2 2.5007(8)
Fe2 P1 2.2147(12)
Fe2 S1 2.2462(12)
Fe2 S2 2.2501(13)
loop_
_geom_torsion_atom_site_label_1
_geom_torsion_atom_site_label_2
_geom_torsion_atom_site_label_3
_geom_torsion_atom_site_label_4
_geom_torsion
S1 C6 C7 S2 -7.5(4)
C7 C6 S1 Fe2 -26.4(3)
C7 C6 S1 Fe1 43.0(3)
C6 C7 S2 Fe2 38.2(3)
C6 C7 S2 Fe1 -31.4(3)
