#------------------------------------------------------------------------------
#$Date: 2016-03-22 21:53:30 +0200 (Tue, 22 Mar 2016) $
#$Revision: 179027 $
#$URL: svn://www.crystallography.net/cod/cif/4/12/25/4122567.cif $
#------------------------------------------------------------------------------
#
# This file is available in the Crystallography Open Database (COD),
# http://www.crystallography.net/
#
# All data on this site have been placed in the public domain by the
# contributors.
#
data_4122567
loop_
_publ_author_name
'Meng, Fanke'
'Haeffner, Fredrik'
'Hoveyda, Amir H.'
_publ_section_title
;
 Diastereo- and Enantioselective Reactions of Bis(pinacolato)diboron,
 1,3-Enynes, and Aldehydes Catalyzed by an Easily Accessible
 Bisphosphine-Cu Complex.
;
_journal_issue                   32
_journal_name_full               'Journal of the American Chemical Society'
_journal_page_first              11304
_journal_page_last               11307
_journal_paper_doi               10.1021/ja5071202
_journal_volume                  136
_journal_year                    2014
_chemical_absolute_configuration ad
_chemical_formula_moiety         'C18 H18 O2'
_chemical_formula_sum            'C18 H18 O2'
_chemical_formula_weight         266.32
_chemical_name_systematic
;
 ?
;
_space_group_crystal_system      monoclinic
_space_group_IT_number           4
_space_group_name_Hall           'P 2yb'
_space_group_name_H-M_alt        'P 1 21 1'
_symmetry_space_group_name_Hall  'P 2yb'
_symmetry_space_group_name_H-M   'P 1 21 1'
_atom_sites_solution_hydrogens   mixed
_atom_sites_solution_primary     direct
_atom_sites_solution_secondary   difmap
_audit_creation_method           SHELXL-2013
_cell_angle_alpha                90
_cell_angle_beta                 110.030(2)
_cell_angle_gamma                90
_cell_formula_units_Z            2
_cell_length_a                   10.1568(10)
_cell_length_b                   6.1364(6)
_cell_length_c                   12.3308(12)
_cell_measurement_reflns_used    9874
_cell_measurement_temperature    100(2)
_cell_measurement_theta_max      69.41
_cell_measurement_theta_min      3.82
_cell_volume                     722.05(12)
_computing_cell_refinement       'SAINT (Bruker, 2013)'
_computing_data_collection       'APEX2 (Bruker, 2013)'
_computing_data_reduction        'SAINT (Bruker, 2013)'
_computing_molecular_graphics    'Bruker SHELXTL'
_computing_publication_material  'Bruker SHELXTL'
_computing_structure_refinement  'SHELXL-2013 (Sheldrick, 2013)'
_computing_structure_solution    'SHELXL-2013 (Sheldrick, 2013)'
_diffrn_ambient_temperature      100(2)
_diffrn_measured_fraction_theta_full 0.991
_diffrn_measured_fraction_theta_max 0.984
_diffrn_measurement_device_type  'Bruker Kappa DUO CCD diffractometer'
_diffrn_measurement_method       '\f and \w scans'
_diffrn_radiation_monochromator  mirrors
_diffrn_radiation_type           CuK\a
_diffrn_radiation_wavelength     1.54178
_diffrn_reflns_av_R_equivalents  0.0232
_diffrn_reflns_av_unetI/netI     0.0174
_diffrn_reflns_Laue_measured_fraction_full 0.991
_diffrn_reflns_Laue_measured_fraction_max 0.984
_diffrn_reflns_limit_h_max       12
_diffrn_reflns_limit_h_min       -11
_diffrn_reflns_limit_k_max       7
_diffrn_reflns_limit_k_min       -7
_diffrn_reflns_limit_l_max       14
_diffrn_reflns_limit_l_min       -14
_diffrn_reflns_number            10529
_diffrn_reflns_point_group_measured_fraction_full 0.985
_diffrn_reflns_point_group_measured_fraction_max 0.972
_diffrn_reflns_theta_full        67.679
_diffrn_reflns_theta_max         69.364
_diffrn_reflns_theta_min         3.815
_diffrn_source                   'microfocus sealed tube'
_diffrn_source_type              'Incoatec I\uS'
_exptl_absorpt_coefficient_mu    0.620
_exptl_absorpt_correction_T_max  0.7533
_exptl_absorpt_correction_T_min  0.6573
_exptl_absorpt_correction_type   multi-scan
_exptl_absorpt_process_details
;
Sheldrick, G.M. (2013). SADABS. Bruker AXS Inc. Madison, WI USA.
;
_exptl_crystal_colour            colorless
_exptl_crystal_density_diffrn    1.225
_exptl_crystal_density_meas      ?
_exptl_crystal_density_method    none
_exptl_crystal_description       needle
_exptl_crystal_F_000             284
_exptl_crystal_size_max          0.500
_exptl_crystal_size_mid          0.060
_exptl_crystal_size_min          0.050
_refine_diff_density_max         0.157
_refine_diff_density_min         -0.168
_refine_diff_density_rms         0.033
_refine_ls_abs_structure_details
;
 Flack x determined using 1172 quotients [(I+)-(I-)]/[(I+)+(I-)]
 (Parsons and Flack (2004), Acta Cryst. A60, s61).
;
_refine_ls_abs_structure_Flack   0.02(3)
_refine_ls_extinction_coef       na
_refine_ls_extinction_method     none
_refine_ls_goodness_of_fit_ref   1.066
_refine_ls_hydrogen_treatment    mixed
_refine_ls_matrix_type           full
_refine_ls_number_parameters     190
_refine_ls_number_reflns         2651
_refine_ls_number_restraints     3
_refine_ls_restrained_S_all      1.065
_refine_ls_R_factor_all          0.0258
_refine_ls_R_factor_gt           0.0257
_refine_ls_shift/su_max          0.000
_refine_ls_shift/su_mean         0.000
_refine_ls_structure_factor_coef Fsqd
_refine_ls_weighting_details
'w=1/[\s^2^(Fo^2^)+(0.0358P)^2^+0.1344P] where P=(Fo^2^+2Fc^2^)/3'
_refine_ls_weighting_scheme      calc
_refine_ls_wR_factor_gt          0.0650
_refine_ls_wR_factor_ref         0.0652
_reflns_Friedel_coverage         0.797
_reflns_Friedel_fraction_full    0.979
_reflns_Friedel_fraction_max     0.958
_reflns_number_gt                2642
_reflns_number_total             2651
_reflns_threshold_expression     'I > 2\s(I)'
_cod_data_source_file            ja5071202_si_002.cif
_cod_data_source_block           C18H18O2
_cod_depositor_comments
;
The following automatic conversions were performed:

'_exptl_crystal_density_meas' value 'not measured' was changed to '?'
- the value is perceived as not measured.

Automatic conversion script
Id: cif_fix_values 3008 2015-01-20 13:52:24Z robertas 
;
_cod_database_code               4122567
#BEGIN Tags that were not found in dictionaries:
_shelx_space_group_comment
;
The symmetry employed for this shelxl refinement is uniquely defined
by the following loop, which should always be used as a source of
symmetry information in preference to the above space-group names.
They are only intended as comments.
;
_shelx_estimated_absorpt_t_min   0.747
_shelx_estimated_absorpt_t_max   0.970
_shelxl_version_number           2013-4
_shelx_res_file
;
TITL sad in P2(1)
CELL 1.54178  10.15680   6.13640  12.33080  90.0000 110.0296  90.0000
ZERR   2.00   0.00100   0.00060   0.00120   0.0000   0.0024   0.0000
LATT -1
SYMM -X, 0.5+Y, -Z
SFAC C  H  O
UNIT 36  36  4

L.S. 10
BOND $H
FMAP 2
PLAN -20
SIZE 0.5 0.06 0.05
DFIX 0.84 O1 H1O O2 H2O
CONF
EQIV $1 x, y-1, z
HTAB O1 O2_$1
EQIV $2 -x, y+1/2, -z
HTAB O2 O1_$2
ACTA
TEMP -173

WGHT    0.035800    0.134400
FVAR       0.49924
O1    3    0.080748   -0.031526    0.078557    11.00000    0.01447    0.00996 =
         0.01827    0.00088    0.00156   -0.00130
H1O   2    0.102345   -0.156898    0.107993    11.00000    0.01899
O2    3    0.134249    0.543064    0.121069    11.00000    0.01663    0.01160 =
         0.01676    0.00160   -0.00230   -0.00023
H2O   2    0.072453    0.495641    0.059739    11.00000    0.02731
C1    1    0.201947    0.079729    0.073528    11.00000    0.01438    0.01446 =
         0.01637   -0.00088    0.00465   -0.00067
AFIX  23
H1A   2    0.174545    0.179081    0.006201    11.00000   -1.20000
H1B   2    0.269322   -0.027713    0.063065    11.00000   -1.20000
AFIX   0
C2    1    0.272775    0.211558    0.184172    11.00000    0.01249    0.01190 =
         0.01358    0.00145    0.00320    0.00047
AFIX  13
H2    2    0.304155    0.107574    0.250552    11.00000   -1.20000
AFIX   0
C3    1    0.396707    0.326547    0.177764    11.00000    0.01414    0.01503 =
         0.01321   -0.00014    0.00256    0.00266
C4    1    0.495143    0.432669    0.176097    11.00000    0.01605    0.01677 =
         0.01421    0.00037    0.00352    0.00102
C5    1    0.609486    0.574156    0.179511    11.00000    0.01424    0.01864 =
         0.01488   -0.00392    0.00601   -0.00116
C6    1    0.748589    0.513566    0.239189    11.00000    0.01651    0.02067 =
         0.01902   -0.00109    0.00609    0.00014
AFIX  43
H6    2    0.768922    0.374450    0.274844    11.00000   -1.20000
AFIX   0
C7    1    0.856480    0.657395    0.246024    11.00000    0.01327    0.02818 =
         0.02215   -0.00552    0.00704   -0.00105
AFIX  43
H7    2    0.950716    0.616297    0.286717    11.00000   -1.20000
AFIX   0
C8    1    0.828060    0.860860    0.193957    11.00000    0.02066    0.02557 =
         0.02114   -0.00965    0.01184   -0.01049
AFIX  43
H8    2    0.902615    0.958449    0.199237    11.00000   -1.20000
AFIX   0
C9    1    0.690802    0.921430    0.134273    11.00000    0.02725    0.01800 =
         0.02205   -0.00042    0.01044   -0.00214
AFIX  43
H9    2    0.671058    1.060383    0.098364    11.00000   -1.20000
AFIX   0
C10   1    0.582712    0.779006    0.127157    11.00000    0.01648    0.02221 =
         0.02065   -0.00040    0.00492    0.00134
AFIX  43
H10   2    0.488791    0.821103    0.086033    11.00000   -1.20000
AFIX   0
C11   1    0.168565    0.375848    0.206910    11.00000    0.01299    0.01148 =
         0.01546    0.00125    0.00332   -0.00037
AFIX  13
H11   2    0.080817    0.296239    0.202058    11.00000   -1.20000
AFIX   0
C12   1    0.229606    0.477248    0.325583    11.00000    0.01156    0.01382 =
         0.01808   -0.00203    0.00260    0.00321
C13   1    0.315695    0.659485    0.341183    11.00000    0.01581    0.01490 =
         0.02171   -0.00107    0.00401    0.00189
AFIX  43
H13   2    0.333630    0.720084    0.276720    11.00000   -1.20000
AFIX   0
C14   1    0.375780    0.754290    0.448968    11.00000    0.01647    0.01973 =
         0.03073   -0.00970    0.00302   -0.00026
AFIX  43
H14   2    0.434076    0.878953    0.458232    11.00000   -1.20000
AFIX   0
C15   1    0.349933    0.665266    0.543289    11.00000    0.01911    0.03747 =
         0.02132   -0.01424    0.00177    0.00357
AFIX  43
H15   2    0.389960    0.729608    0.617437    11.00000   -1.20000
AFIX   0
C16   1    0.265639    0.482405    0.528994    11.00000    0.01960    0.03824 =
         0.01791   -0.00299    0.00636    0.00369
AFIX  43
H16   2    0.249373    0.421964    0.594208    11.00000   -1.20000
AFIX   0
C17   1    0.204029    0.384790    0.421180    11.00000    0.01375    0.02331 =
         0.01902   -0.00097    0.00530    0.00346
C18   1    0.112085    0.187052    0.410417    11.00000    0.02365    0.02827 =
         0.02104    0.00384    0.00953   -0.00203
AFIX 137
H18A  2    0.116786    0.139025    0.487452    11.00000   -1.50000
H18B  2    0.144690    0.069469    0.372120    11.00000   -1.50000
H18C  2    0.015069    0.224246    0.364687    11.00000   -1.50000

AFIX   0
HKLF 4

REM  sad in P2(1)
REM R1 =  0.0257 for    2642 Fo > 4sig(Fo)  and  0.0258 for all    2651 data
REM    190 parameters refined using      3 restraints

END

WGHT      0.0354      0.1364

REM Highest difference peak  0.157,  deepest hole -0.168,  1-sigma level  0.033
Q1    1   0.2207  0.2873  0.1972  11.00000  0.05    0.16
Q2    1   0.2075  0.4372  0.2704  11.00000  0.05    0.13
Q3    1   0.2433  0.1448  0.1323  11.00000  0.05    0.12
Q4    1   0.2928  0.5314  0.3420  11.00000  0.05    0.12
Q5    1   0.4602  0.3277  0.1438  11.00000  0.05    0.12
Q6    1   0.5979  0.6581  0.1341  11.00000  0.05    0.12
Q7    1   0.4563  0.4186  0.2232  11.00000  0.05    0.11
Q8    1   0.1912  0.4557  0.3671  11.00000  0.05    0.11
Q9    1   0.2476  0.3959  0.3732  11.00000  0.05    0.11
Q10   1   0.2384  0.1161  0.3187  11.00000  0.05    0.11
Q11   1   0.6768  0.5201  0.1821  11.00000  0.05    0.10
Q12   1   0.5608  0.4764  0.1584  11.00000  0.05    0.10
Q13   1   0.1994  0.4832  0.4578  11.00000  0.05    0.09
Q14   1   0.0730 -0.3420  0.1434  11.00000  0.05    0.09
Q15   1   0.3456 -0.2385  0.0604  11.00000  0.05    0.09
Q16   1   0.0190  0.0131  0.1177  11.00000  0.05    0.09
Q17   1   0.2251  0.6006  0.3270  11.00000  0.05    0.09
Q18   1   0.3375  0.2533  0.1804  11.00000  0.05    0.09
Q19   1   0.8413  0.7195  0.1860  11.00000  0.05    0.09
Q20   1   0.1610 -0.3234  0.1419  11.00000  0.05    0.09
;
_shelx_res_checksum              32230
_shelx_hkl_file
;
  -1   0   0   -0.85    0.05
  -1   0   0   -0.82    0.03
   1   0   0   -0.90    0.02
   1   0   0   -0.88    0.04
   1   0   0   -0.85    0.02
   1   0   0   -0.85    0.03
  -2   0   0  787.33   35.34
   2   0   0  788.04   23.66
  -3   0   0   92.30    2.71
  -3   0   0   91.63    2.79
   3   0   0   96.67    3.13
   3   0   0   90.88    3.14
   3   0   0   89.64    3.20
   3   0   0   85.65    2.91
   3   0   0   90.65    2.81
   3   0   0   94.16    3.26
  -4   0   0  137.90    4.29
  -4   0   0  141.46    4.19
   4   0   0  138.95    4.93
   4   0   0  136.97    4.32
   4   0   0  146.92    5.01
   4   0   0  142.22    4.47
  -5   0   0    0.55    0.03
   5   0   0    0.54    0.08
   5   0   0    0.63    0.07
  -6   0   0    6.54    0.22
   6   0   0    6.83    0.31
   6   0   0    6.57    0.29
  -7   0   0    0.34    0.04
   7   0   0    0.29    0.08
   7   0   0    0.20    0.08
  -8   0   0   18.15    0.58
   8   0   0   17.93    0.49
   8   0   0   18.37    0.56
   9   0   0   18.10    0.57
   9   0   0   18.91    0.50
  10   0   0    9.24    0.27
  11  -1   0    1.27    0.07
  10  -1   0    8.99    0.25
  10  -1   0    8.10    0.28
 -10   1   0    7.89    0.28
   9  -1   0    9.97    0.33
   9  -1   0   10.47    0.30
  -9   1   0    9.96    0.47
   8  -1   0   44.62    1.13
   8  -1   0   45.73    1.32
  -8   1   0   44.62    1.40
  -8   1   0   45.41    1.71
   7  -1   0   31.32    1.09
   7  -1   0   30.63    1.20
  -7   1   0   30.17    0.96
   6  -1   0    9.97    0.44
   6  -1   0   10.34    0.41
   6  -1   0    9.79    0.46
  -6   1   0   10.05    0.34
   5  -1   0   61.79    2.18
   5  -1   0   58.67    2.08
   5  -1   0   62.68    1.95
   5  -1   0   55.43    2.41
  -5   1   0   59.83    1.80
   4  -1   0  211.20    6.48
   4  -1   0  230.63    7.36
   4  -1   0  209.85    7.01
  -4   1   0  186.02    6.59
  -4   1   0  202.57    6.14
  -4   1   0  187.24    6.22
   3  -1   0   72.06    2.65
   3  -1   0   79.44    2.71
   3  -1   0   76.65    2.42
  -3   1   0   75.02    2.34
  -3   1   0   74.94    2.25
  -3   1   0   75.03    2.45
   2  -1   0  233.61    8.09
   2  -1   0  240.25    8.08
   2  -1   0  241.94    8.49
   2  -1   0  239.42    7.47
  -2   1   0  235.11    7.11
  -2   1   0  223.36    7.05
   1  -1   0  554.79   18.91
  -1   1   0  544.37   18.90
  -1   1   0  559.54   16.67
   0  -1   0   -0.11    0.03
   0  -1   0   -0.17    0.05
   0   1   0   -0.13    0.05
   0   1   0   -0.16    0.03
   1   1   0  560.08   19.61
   1   1   0  560.91   25.75
   1   1   0  598.70   19.60
  -2  -1   0  229.58    7.17
   2   1   0  235.01    8.49
   2   1   0  244.59    8.22
   2   1   0  241.08    8.56
   2   1   0  239.99    7.45
   2   1   0  250.44   10.81
  -3  -1   0   75.81    2.48
  -3  -1   0   76.73    2.29
  -3  -1   0   79.58    2.38
   3   1   0   76.90    2.65
   3   1   0   74.78    2.45
   3   1   0   80.07    2.67
   3   1   0   76.97    2.38
   3   1   0   72.37    2.71
   3   1   0   77.30    2.75
   3   1   0   78.91    3.54
  -4  -1   0  200.49    5.97
  -4  -1   0  195.06    5.85
   4   1   0  189.75    6.89
   4   1   0  188.22    6.70
   4   1   0  197.77    6.22
   4   1   0  217.48    7.02
   4   1   0  196.23    6.71
   4   1   0  197.43    6.03
   4   1   0  199.49    8.91
   4   1   0  183.28    6.98
  -5  -1   0   60.30    1.81
   5   1   0   63.24    2.19
   5   1   0   59.59    1.96
   5   1   0   58.57    1.90
  -6  -1   0   10.37    0.32
   6   1   0    9.83    0.38
   6   1   0    9.98    0.42
  -7  -1   0   31.56    0.95
   7   1   0   30.82    1.19
  -8  -1   0   45.88    1.39
  11  -2   0    3.67    0.12
  10  -2   0    7.52    0.23
  10  -2   0    7.28    0.25
 -10   2   0    7.56    0.26
   9  -2   0   16.88    0.51
   9  -2   0   16.52    0.46
  -9   2   0   16.56    0.54
   8  -2   0   17.24    0.47
   8  -2   0   17.14    0.53
   8  -2   0   17.15    0.47
  -8   2   0   17.21    0.74
  -8   2   0   17.73    0.56
   7  -2   0   26.25    1.12
   7  -2   0   25.59    0.94
  -7   2   0   26.40    0.85
  -7   2   0   25.34    0.80
  -7   2   0   26.52    1.04
   6  -2   0   14.26    0.64
   6  -2   0   14.28    0.55
  -6   2   0   14.09    0.60
  -6   2   0   13.97    0.49
   5  -2   0   50.75    2.08
   5  -2   0   49.78    1.68
   5  -2   0   48.89    1.83
  -5   2   0   53.22    1.56
  -5   2   0   50.33    1.69
  -5   2   0   51.86    1.88
   4  -2   0  161.26    5.30
   4  -2   0  173.88    6.65
   4  -2   0  167.70    5.78
  -4   2   0  155.42    5.40
  -4   2   0  174.57    5.97
  -4   2   0  167.14    4.98
   3  -2   0  129.86    4.70
   3  -2   0  137.52    5.36
   3  -2   0  130.15    4.68
   3  -2   0  129.57    4.26
  -3   2   0  137.41    4.36
  -3   2   0  134.55    4.01
  -3   2   0  131.81    4.14
  -3   2   0  141.05    4.81
   2  -2   0   58.25    2.12
   2  -2   0   59.68    1.89
   2  -2   0   54.76    1.93
  -2   2   0   59.05    1.87
  -2   2   0   60.16    1.94
  -2   2   0   60.95    1.78
   1  -2   0  124.66    4.18
   1  -2   0  132.78    4.51
  -1   2   0  131.98    3.96
  -1   2   0  129.78    4.18
  -1   2   0  126.17    4.50
   0  -2   0   97.54    3.43
   0  -2   0   97.10    3.17
   0   2   0   98.73    3.43
   0   2   0   96.42    3.17
  -1  -2   0  128.37    3.85
  -1  -2   0  126.97    4.18
   1   2   0  126.42    5.90
   1   2   0  135.61    4.51
  -2  -2   0   59.44    1.84
  -2  -2   0   60.66    2.00
   2   2   0   62.14    2.21
   2   2   0   61.02    2.19
   2   2   0   65.42    1.91
   2   2   0   58.63    2.87
  -3  -2   0  131.66    4.47
  -3  -2   0  142.48    4.12
   3   2   0  142.40    4.94
   3   2   0  134.22    4.93
   3   2   0  137.42    6.33
   3   2   0  138.60    4.81
   3   2   0  140.97    4.27
  -4  -2   0  168.81    4.89
  -4  -2   0  160.90    5.29
   4   2   0  165.54    5.07
   4   2   0  162.80    5.85
   4   2   0  162.85    5.67
   4   2   0  163.57    5.85
  -5  -2   0   49.69    1.53
   5   2   0   52.26    1.84
   5   2   0   51.78    1.62
   5   2   0   51.70    1.84
   5   2   0   46.79    1.75
  -6  -2   0   13.94    0.45
   6   2   0   14.00    0.57
  -7  -2   0   25.38    0.78
   7   2   0   24.62    0.97
  -8  -2   0   17.85    0.69
   8   2   0   17.64    0.51
   9   2   0   16.26    0.47
  10   2   0    7.59    0.23
  10  -3   0   13.17    0.41
  10  -3   0   13.42    0.36
 -10   3   0   13.61    0.35
   9  -3   0   33.70    0.86
   9  -3   0   34.49    1.00
  -9   3   0   34.50    1.05
  -9   3   0   33.41    0.87
   8  -3   0    1.80    0.11
   8  -3   0    1.96    0.10
   8  -3   0    1.91    0.10
  -8   3   0    2.23    0.19
  -8   3   0    2.01    0.08
  -8   3   0    2.19    0.11
   7  -3   0   26.41    1.13
   7  -3   0   26.56    0.69
   7  -3   0   26.68    0.78
   7  -3   0   24.93    0.68
   7  -3   0   26.16    0.65
  -7   3   0   25.59    1.05
  -7   3   0   26.04    0.82
   6  -3   0  107.10    3.63
   6  -3   0  115.50    4.52
  -6   3   0  116.84    3.31
  -6   3   0  108.42    3.68
  -6   3   0  110.82    3.68
  -6   3   0  111.48    4.08
  -6   3   0  112.55    3.41
   5  -3   0    9.14    0.43
   5  -3   0    8.53    0.37
  -5   3   0    8.59    0.34
  -5   3   0    8.46    0.37
  -5   3   0    9.07    0.31
  -5   3   0    8.46    0.41
   4  -3   0   38.47    1.54
   4  -3   0   36.71    1.43
  -4   3   0   36.80    1.40
  -4   3   0   36.98    1.18
  -4   3   0   36.34    1.28
   3  -3   0   63.44    2.41
   3  -3   0   66.23    2.66
  -3   3   0   67.63    2.40
  -3   3   0   62.85    2.01
  -3   3   0   66.96    2.18
   2  -3   0   97.11    3.56
   2  -3   0  100.01    3.99
  -2   3   0  101.61    3.26
  -2   3   0   98.34    3.58
   1  -3   0  104.00    3.37
  -1   3   0  100.28    3.28
  -1   3   0  100.70    3.70
  -1   3   0  106.36    3.37
   0  -3   0   -0.01    0.05
   0   3   0    0.08    0.05
   0   3   0    0.41    0.08
   0   3   0    0.15    0.10
   0   3   0   -0.06    0.08
   0   3   0   -0.01    0.05
  -1  -3   0  104.40    3.34
  -1  -3   0  104.60    3.08
   1   3   0   98.25    3.54
   1   3   0  103.66    3.66
   1   3   0  100.25    3.67
  -2  -3   0   93.55    2.95
  -2  -3   0   99.37    3.21
   2   3   0   98.12    3.51
   2   3   0  101.62    3.53
   2   3   0   97.50    3.53
  -3  -3   0   67.01    2.07
  -3  -3   0   64.59    2.24
   3   3   0   68.74    2.47
   3   3   0   70.84    2.47
   3   3   0   69.44    2.49
  -4  -3   0   36.87    1.24
  -4  -3   0   37.85    1.16
   4   3   0   38.84    1.37
   4   3   0   37.08    1.38
   4   3   0   34.80    1.40
  -5  -3   0    9.18    0.32
  -5  -3   0    8.63    0.30
   5   3   0    8.28    0.38
   5   3   0    8.70    0.37
  -6  -3   0  111.93    3.37
   6   3   0  110.02    4.04
   6   3   0  114.01    4.04
   7   3   0   25.08    0.64
   7   3   0   25.74    0.71
  -8  -3   0    2.00    0.11
   8   3   0    2.04    0.11
  -9  -3   0   33.50    1.03
   9   3   0   33.66    0.90
  10   3   0   13.92    0.39
   9  -4   0    3.11    0.12
  -9   4   0    3.13    0.10
   8  -4   0   32.30    0.92
  -8   4   0   31.31    0.80
  -8   4   0   29.99    0.97
   7  -4   0    6.39    0.22
   7  -4   0    6.48    0.20
   7  -4   0    6.03    0.35
   7  -4   0    6.27    0.22
   7  -4   0    6.49    0.17
  -7   4   0    6.70    0.25
  -7   4   0    6.22    0.19
  -7   4   0    6.96    0.36
  -7   4   0    6.40    0.18
   6  -4   0  103.46    2.94
   6  -4   0  104.05    2.55
   6  -4   0  103.66    2.69
   6  -4   0  102.30    4.15
   6  -4   0   97.58    2.74
   6  -4   0  102.69    2.55
  -6   4   0  105.35    3.77
  -6   4   0  103.00    3.04
  -6   4   0   99.65    2.57
  -6   4   0  102.30    2.40
   5  -4   0  114.28    4.80
   5  -4   0  120.48    3.41
   5  -4   0  120.41    2.97
   5  -4   0  121.82    3.11
   5  -4   0  122.42    3.19
  -5   4   0  122.85    2.98
  -5   4   0  117.88    4.34
  -5   4   0  112.99    3.51
  -5   4   0  117.82    3.93
  -5   4   0  118.74    2.79
   4  -4   0   34.82    1.52
  -4   4   0   36.59    1.40
  -4   4   0   36.12    1.11
  -4   4   0   35.05    1.27
  -4   4   0   37.75    1.29
   3  -4   0   32.23    1.33
  -3   4   0   32.32    1.13
  -3   4   0   31.54    1.22
  -3   4   0   29.94    1.12
   2  -4   0    8.49    0.44
  -2   4   0    9.76    0.43
  -2   4   0    9.59    0.41
  -2   4   0    9.74    0.40
   1  -4   0    2.95    0.18
  -1   4   0    2.74    0.18
  -1   4   0    2.86    0.18
   0  -4   0   28.37    1.00
   0   4   0   29.12    1.08
   0   4   0   26.74    0.99
  -1  -4   0    3.07    0.18
   1   4   0    3.04    0.20
   1   4   0    3.09    0.19
  -2  -4   0    9.26    0.39
   2   4   0    9.49    0.41
   2   4   0    9.34    0.42
  -3  -4   0   30.35    0.95
  -3  -4   0   31.36    1.06
  -3  -4   0   29.92    0.98
   3   4   0   29.66    1.15
   3   4   0   31.02    1.17
  -4  -4   0   35.51    1.12
  -4  -4   0   35.69    1.09
  -4  -4   0   35.08    1.20
   4   4   0   33.73    1.33
   4   4   0   35.54    1.32
  -5  -4   0  121.62    3.62
  -5  -4   0  119.29    3.54
   5   4   0  115.72    3.10
   5   4   0  120.19    2.85
   5   4   0  119.99    2.97
   5   4   0  120.43    4.31
  -6  -4   0  101.45    3.04
   6   4   0  104.35    2.45
   6   4   0  102.08    2.66
   6   4   0  101.15    3.70
  -7  -4   0    6.74    0.25
   7   4   0    6.25    0.22
   7   4   0    6.19    0.19
  -8  -4   0   30.34    0.94
   8   4   0   29.45    0.74
   8   4   0   30.89    0.82
  -9  -4   0    2.88    0.09
  -9  -4   0    3.02    0.14
   9   4   0    3.11    0.12
   8  -5   0    5.57    0.18
  -8   5   0    5.58    0.15
   7  -5   0    4.12    0.15
  -7   5   0    3.96    0.12
  -7   5   0    3.98    0.12
   6  -5   0   12.19    0.38
   6  -5   0   11.90    0.34
   6  -5   0   11.89    0.36
   6  -5   0   11.90    0.32
  -6   5   0   11.78    0.31
  -6   5   0   11.96    0.32
   5  -5   0   28.34    0.78
   5  -5   0   28.00    1.22
   5  -5   0   28.53    0.73
   5  -5   0   28.54    0.79
   5  -5   0   27.95    0.84
  -5   5   0   28.47    0.69
  -5   5   0   27.84    1.13
   4  -5   0   14.29    0.45
   4  -5   0   14.46    0.43
   4  -5   0   14.34    0.42
   4  -5   0   13.65    0.65
   4  -5   0   13.78    0.39
  -4   5   0   14.62    0.64
  -4   5   0   14.28    0.37
   3  -5   0   58.73    1.55
   3  -5   0   59.21    1.70
   3  -5   0   58.62    1.59
  -3   5   0   57.92    1.39
  -3   5   0   56.53    2.19
   2  -5   0  112.81    3.27
   2  -5   0  113.42    3.06
  -2   5   0  114.39    3.78
  -2   5   0  113.85    2.67
  -2   5   0  114.72    4.15
   1  -5   0    3.06    0.21
  -1   5   0    3.18    0.22
   0  -5   0    0.03    0.06
   0   5   0   -0.01    0.07
   0   5   0    0.09    0.09
  -1  -5   0    3.35    0.21
   1   5   0    3.19    0.22
   1   5   0    3.16    0.21
  -2  -5   0  113.66    3.79
  -2  -5   0  109.62    3.30
  -2  -5   0  113.20    2.69
  -2  -5   0  116.16    2.87
   2   5   0  117.58    3.09
   2   5   0  118.37    4.16
  -3  -5   0   56.57    1.36
  -3  -5   0   54.53    1.72
  -3  -5   0   55.72    1.67
  -3  -5   0   57.82    1.44
   3   5   0   58.50    1.55
   3   5   0   56.65    1.44
   3   5   0   57.30    1.38
   3   5   0   57.19    2.10
  -4  -5   0   13.53    0.46
  -4  -5   0   14.32    0.39
  -4  -5   0   14.24    0.49
  -4  -5   0   14.36    0.37
   4   5   0   14.65    0.59
   4   5   0   14.47    0.42
   4   5   0   14.75    0.39
   4   5   0   14.42    0.39
  -5  -5   0   28.56    0.73
  -5  -5   0   30.00    0.90
  -5  -5   0   28.67    0.69
  -5  -5   0   26.73    0.85
   5   5   0   27.42    0.71
   5   5   0   28.49    0.71
   5   5   0   27.48    1.07
  -6  -5   0   11.44    0.32
  -6  -5   0   11.99    0.42
   6   5   0   12.07    0.32
  -7  -5   0    3.98    0.12
  -7  -5   0    4.12    0.17
   7   5   0    3.73    0.14
   7   5   0    3.87    0.13
  -8  -5   0    5.91    0.16
   8   5   0    5.60    0.16
   8   5   0    5.36    0.17
   6  -6   0   13.44    0.35
   6  -6   0   13.70    0.41
  -6   6   0   13.69    0.34
   5  -6   0    8.99    0.25
   5  -6   0    9.24    0.29
   5  -6   0    8.56    0.26
  -5   6   0    9.10    0.24
   4  -6   0    2.92    0.12
   4  -6   0    3.04    0.12
   4  -6   0    3.24    0.11
  -4   6   0    3.01    0.10
   3  -6   0   12.90    0.38
   3  -6   0   12.71    0.41
  -3   6   0   13.10    0.33
   2  -6   0   24.33    0.69
   2  -6   0   24.66    0.74
  -2   6   0   24.16    0.60
   1  -6   0   18.51    0.53
   1  -6   0   17.45    0.56
  -1   6   0   17.99    0.75
  -1   6   0   18.19    0.53
   0  -6   0    7.41    0.27
   0  -6   0    8.22    0.22
   0   6   0    7.70    0.25
   0   6   0    7.81    0.38
  -1  -6   0   18.79    0.46
  -1  -6   0   17.82    0.56
   1   6   0   17.38    0.73
   1   6   0   18.31    0.53
  -2  -6   0   23.99    0.75
  -2  -6   0   24.90    0.61
   2   6   0   25.21    0.65
   2   6   0   24.66    0.70
  -3  -6   0   12.65    0.34
  -3  -6   0   12.95    0.42
   3   6   0   13.45    0.38
   3   6   0   12.88    0.35
  -4  -6   0    2.95    0.13
  -4  -6   0    2.84    0.09
  -4  -6   0    2.94    0.10
   4   6   0    3.00    0.09
   4   6   0    2.80    0.10
   4   6   0    2.91    0.11
  -5  -6   0    8.90    0.24
  -5  -6   0    8.77    0.23
   5   6   0    8.76    0.24
  -6  -6   0   12.58    0.32
  -6  -6   0   13.26    0.34
   6   6   0   13.32    0.33
   3  -7   0    5.80    0.18
   3  -7   0    5.82    0.17
   3  -7   0    5.47    0.16
   2  -7   0   11.21    0.32
   2  -7   0   11.08    0.33
  -2   7   0   10.45    0.31
   1  -7   0   14.91    0.43
   1  -7   0   15.52    0.46
  -1   7   0   15.17    0.43
   0  -7   0    0.00    0.03
   0   7   0   -0.01    0.02
  -1  -7   0   15.66    0.39
  -1  -7   0   15.33    0.47
   1   7   0   15.03    0.41
   1   7   0   16.53    0.44
  -2  -7   0   11.51    0.28
  -2  -7   0   10.68    0.34
   2   7   0   11.21    0.29
   2   7   0   11.03    0.32
  -3  -7   0    6.04    0.16
   3   7   0    5.55    0.17
   3   7   0    5.90    0.15
  -4  -7   1   11.90    0.29
   3   7  -1   19.10    0.54
   3   7  -1   20.24    0.50
  -3  -7   1   20.15    0.48
   2   7  -1   47.69    1.30
   2   7  -1   48.27    1.20
  -2  -7   1   48.64    1.14
   1   7  -1    3.36    0.11
   1   7  -1    3.17    0.10
  -1  -7   1    3.20    0.10
   0   7  -1   17.22    0.45
   0  -7   1   14.45    0.47
  -1   7  -1   27.67    0.74
   1  -7   1   27.24    0.74
   1  -7   1   25.99    0.79
  -2   7  -1   12.67    0.36
   2  -7   1   13.43    0.37
   2  -7   1   12.51    0.39
   3  -7   1    0.18    0.03
   3  -7   1    0.27    0.03
   7   6  -1   10.59    0.27
   6   6  -1    2.04    0.08
  -6  -6   1    1.95    0.07
  -6  -6   1    2.14    0.07
   5   6  -1    5.65    0.17
  -5  -6   1    5.88    0.16
  -5  -6   1    5.83    0.16
   4   6  -1    0.67    0.05
   4   6  -1    0.61    0.05
   4   6  -1    0.71    0.04
  -4  -6   1    0.69    0.05
  -4  -6   1    0.64    0.04
   3   6  -1    4.64    0.15
   3   6  -1    4.76    0.16
  -3  -6   1    4.56    0.15
   2   6  -1    4.56    0.16
   2   6  -1    4.59    0.15
  -2  -6   1    4.47    0.17
  -2  -6   1    4.37    0.14
   1   6  -1    5.67    0.29
   1   6  -1    5.59    0.20
  -1  -6   1    5.74    0.17
  -1  -6   1    5.69    0.21
   0   6  -1   10.33    0.32
   0   6  -1   10.35    0.48
   0  -6   1   10.80    0.28
   0  -6   1   10.46    0.34
  -1   6  -1    2.49    0.21
  -1   6  -1    2.35    0.11
   1  -6   1    2.36    0.11
   1  -6   1    2.37    0.12
  -2   6  -1   63.74    1.50
   2  -6   1   64.37    1.72
   2  -6   1   61.95    1.83
  -3   6  -1    6.94    0.20
   3  -6   1    7.06    0.23
   3  -6   1    7.17    0.24
  -4   6  -1   13.52    0.34
   4  -6   1   13.53    0.42
   4  -6   1   13.18    0.36
   4  -6   1   13.97    0.39
  -5   6  -1    6.25    0.17
   5  -6   1    6.24    0.19
   5  -6   1    6.07    0.18
   5  -6   1    6.33    0.21
  -6   6  -1   26.67    0.62
   6  -6   1   26.74    0.75
   6  -6   1   24.34    0.64
   8   5  -1    1.31    0.06
   8   5  -1    1.31    0.07
  -8  -5   1    1.29    0.05
   7   5  -1    0.56    0.05
   7   5  -1    0.45    0.05
  -7  -5   1    0.52    0.04
  -7  -5   1    0.58    0.07
   6   5  -1    6.93    0.21
  -6  -5   1    7.20    0.27
  -6  -5   1    6.87    0.20
   5   5  -1    9.44    0.25
   5   5  -1    9.31    0.26
   5   5  -1    9.41    0.41
  -5  -5   1    9.18    0.26
  -5  -5   1    9.72    0.35
  -5  -5   1    8.88    0.25
   4   5  -1   80.40    2.17
   4   5  -1   80.65    1.94
   4   5  -1   81.15    2.02
   4   5  -1   82.32    2.94
  -4  -5   1   76.92    1.90
  -4  -5   1   80.49    2.03
  -4  -5   1   83.57    2.42
   3   5  -1    2.70    0.18
   3   5  -1    2.86    0.12
   3   5  -1    2.82    0.11
   3   5  -1    2.74    0.11
  -3  -5   1    2.87    0.15
  -3  -5   1    3.09    0.10
  -3  -5   1    3.01    0.11
   2   5  -1   23.55    0.67
   2   5  -1   22.92    0.92
  -2  -5   1   22.26    0.72
  -2  -5   1   24.56    0.88
  -2  -5   1   24.02    0.61
  -2  -5   1   23.49    0.58
   1   5  -1    5.24    0.29
  -1  -5   1    5.19    0.28
   0   5  -1    6.32    0.33
   0  -5   1    6.07    0.32
  -1   5  -1    4.64    0.27
   1  -5   1    4.02    0.17
  -2   5  -1   24.88    0.96
  -2   5  -1   23.25    0.58
  -2   5  -1   22.97    0.89
   2  -5   1   22.91    0.67
   2  -5   1   23.89    0.71
  -3   5  -1   20.55    0.87
   3  -5   1   21.38    0.60
   3  -5   1   21.00    0.63
   3  -5   1   20.00    0.92
  -4   5  -1   14.97    0.67
  -4   5  -1   14.75    0.38
   4  -5   1   14.82    0.41
   4  -5   1   14.86    0.44
   4  -5   1   15.53    0.69
   4  -5   1   14.82    0.47
  -5   5  -1    1.87    0.08
  -5   5  -1    1.73    0.18
   5  -5   1    1.72    0.16
   5  -5   1    2.03    0.09
   5  -5   1    1.89    0.08
   5  -5   1    1.86    0.10
  -6   5  -1   36.86    0.88
   6  -5   1   37.47    0.93
   6  -5   1   34.99    1.00
   6  -5   1   38.06    1.08
  -7   5  -1    2.67    0.09
   7  -5   1    2.61    0.11
  -8   5  -1    0.43    0.03
   8  -5   1    0.52    0.04
  10   4  -1    3.12    0.11
   9   4  -1   26.98    0.68
   9   4  -1   28.40    0.75
  -9  -4   1   28.75    0.86
   8   4  -1   15.89    0.45
   8   4  -1   15.61    0.41
  -8  -4   1   15.83    0.52
   7   4  -1    5.24    0.19
   7   4  -1    5.31    0.17
  -7  -4   1    5.27    0.22
   6   4  -1    2.72    0.12
   6   4  -1    2.49    0.11
   6   4  -1    2.60    0.17
  -6  -4   1    2.53    0.14
   5   4  -1   17.58    0.68
   5   4  -1   16.43    0.44
  -5  -4   1   17.39    0.59
  -5  -4   1   16.54    0.56
   4   4  -1   33.27    1.18
  -4  -4   1   29.94    1.01
  -4  -4   1   29.97    1.08
  -4  -4   1   31.32    0.97
   3   4  -1    1.03    0.11
   3   4  -1    1.19    0.11
  -3  -4   1    1.01    0.10
  -3  -4   1    1.06    0.08
  -3  -4   1    1.08    0.10
   2   4  -1   27.47    1.04
   2   4  -1   25.46    1.04
  -2  -4   1   28.87    0.97
   1   4  -1   19.48    0.81
   1   4  -1   20.41    0.81
  -1  -4   1   21.81    0.76
   0   4  -1   62.03    2.12
   0   4  -1   53.42    1.93
   0   4  -1   54.39    1.93
   0  -4   1   58.64    1.94
  -1   4  -1    3.13    0.20
  -1   4  -1    3.69    0.22
  -1   4  -1    3.58    0.21
   1  -4   1    3.09    0.20
   1  -4   1    3.34    0.20
  -2   4  -1   31.50    1.14
  -2   4  -1   34.04    1.24
   2  -4   1   30.34    1.34
  -3   4  -1   13.84    0.57
  -3   4  -1   14.43    0.61
   3  -4   1   14.02    0.65
  -4   4  -1   17.02    0.73
  -4   4  -1   16.79    0.67
   4  -4   1   17.29    0.77
  -5   4  -1   65.99    1.94
  -5   4  -1   63.72    2.42
  -5   4  -1   62.11    2.19
  -5   4  -1   64.95    1.53
  -5   4  -1   64.89    1.63
  -5   4  -1   66.35    2.20
   5  -4   1   63.68    1.62
   5  -4   1   63.93    2.65
   5  -4   1   64.59    1.74
   5  -4   1   64.76    1.71
   5  -4   1   64.23    1.86
  -6   4  -1    0.81    0.08
  -6   4  -1    0.77    0.05
  -6   4  -1    0.75    0.05
  -6   4  -1    0.71    0.13
   6  -4   1    0.76    0.12
   6  -4   1    0.83    0.05
   6  -4   1    0.70    0.07
   6  -4   1    0.76    0.07
   6  -4   1    0.74    0.06
  -7   4  -1    1.29    0.09
  -7   4  -1    1.05    0.06
  -7   4  -1    1.15    0.05
   7  -4   1    1.14    0.08
   7  -4   1    1.10    0.04
  -8   4  -1    3.85    0.12
  -8   4  -1    3.67    0.16
   8  -4   1    3.85    0.14
  -9   4  -1    1.81    0.06
   9  -4   1    1.67    0.08
  10   3  -1   15.57    0.43
   9   3  -1    6.33    0.21
   8   3  -1   25.79    0.66
   8   3  -1   26.67    0.73
   7   3  -1   81.83    2.11
   7   3  -1   78.84    1.93
  -7  -3   1   80.97    2.44
   6   3  -1   17.39    0.71
   6   3  -1   18.43    0.71
  -6  -3   1   18.26    0.60
   5   3  -1   59.94    2.21
   5   3  -1   60.25    2.21
  -5  -3   1   61.94    1.86
   4   3  -1   44.80    1.44
   4   3  -1   45.24    1.63
   4   3  -1   41.84    1.64
   4   3  -1   45.06    1.64
  -4  -3   1   46.20    1.38
  -4  -3   1   44.14    1.49
   3   3  -1    3.72    0.19
   3   3  -1    3.86    0.26
   3   3  -1    4.10    0.20
   3   3  -1    4.13    0.19
  -3  -3   1    3.76    0.17
  -3  -3   1    3.58    0.18
   2   3  -1    8.10    0.35
   2   3  -1    8.09    0.42
   2   3  -1    8.20    0.33
   2   3  -1    7.31    0.34
  -2  -3   1    8.54    0.30
  -2  -3   1    8.39    0.33
   1   3  -1    1.05    0.10
   1   3  -1    1.42    0.19
   1   3  -1    0.98    0.08
  -1  -3   1    1.00    0.08
  -1  -3   1    1.07    0.09
   0   3  -1   18.29    0.71
   0   3  -1   18.37    0.66
   0  -3   1   18.53    0.66
  -1   3  -1   78.70    2.48
  -1   3  -1   70.99    2.71
   1  -3   1   76.14    2.48
   1  -3   1   73.25    3.01
  -2   3  -1   42.28    1.54
  -2   3  -1   41.18    1.41
   2  -3   1   39.25    1.58
   2  -3   1   43.03    1.71
  -3   3  -1  109.10    3.88
  -3   3  -1  105.95    3.52
   3  -3   1  103.49    3.82
   3  -3   1  109.55    4.31
  -4   3  -1   37.83    1.23
  -4   3  -1   40.83    1.47
  -4   3  -1   39.13    1.34
   4  -3   1   36.81    1.61
  -5   3  -1   39.76    1.49
  -5   3  -1   37.95    1.18
  -5   3  -1   38.12    1.25
  -5   3  -1   39.47    1.35
   5  -3   1   40.53    1.63
   5  -3   1   37.07    1.32
  -6   3  -1   14.11    0.47
  -6   3  -1   14.03    0.63
  -6   3  -1   14.12    0.56
  -6   3  -1   14.29    0.53
   6  -3   1   14.30    0.45
   6  -3   1   13.67    0.56
   6  -3   1   14.72    0.66
  -7   3  -1   17.87    0.56
  -7   3  -1   16.75    0.74
  -7   3  -1   17.25    0.45
   7  -3   1   17.18    0.53
   7  -3   1   17.50    0.78
   7  -3   1   16.43    0.46
   7  -3   1   16.90    0.43
   7  -3   1   17.44    0.47
  -8   3  -1   13.11    0.44
  -8   3  -1   12.92    0.34
   8  -3   1   12.34    0.36
   8  -3   1   12.75    0.40
  -9   3  -1    7.10    0.26
  -9   3  -1    7.10    0.20
   9  -3   1    7.17    0.24
   9  -3   1    7.05    0.22
 -10   3  -1    1.16    0.05
  10  -3   1    1.14    0.06
  10  -3   1    1.29    0.07
  10   2  -1   24.25    0.66
   9   2  -1    2.75    0.13
   8   2  -1    2.75    0.13
   7   2  -1   12.22    0.52
  -7  -2   1   12.55    0.40
   6   2  -1   68.20    2.44
   6   2  -1   68.22    2.14
  -6  -2   1   65.19    2.02
   5   2  -1  106.59    3.78
   5   2  -1  106.36    3.29
   5   2  -1  103.48    3.77
  -5  -2   1  104.95    3.15
   4   2  -1  482.12   14.31
   4   2  -1  469.16   16.40
   4   2  -1  439.65   16.50
   4   2  -1  449.88   16.36
   4   2  -1  470.24   15.76
  -4  -2   1  446.70   14.91
  -4  -2   1  472.31   13.83
   3   2  -1  232.86    7.21
   3   2  -1  237.77    8.05
   3   2  -1  237.50    8.08
   3   2  -1  238.74   10.61
   3   2  -1  234.61    8.32
  -3  -2   1  236.53    7.01
  -3  -2   1  220.43    7.54
   2   2  -1  341.70   10.33
   2   2  -1  338.30   11.41
   2   2  -1  335.38   11.82
   2   2  -1  324.41   14.99
  -2  -2   1  333.45   10.81
  -2  -2   1  322.02    9.97
   1   2  -1   20.70    0.63
   1   2  -1   18.45    1.01
   1   2  -1   20.25    0.77
  -1  -2   1   19.05    0.67
  -1  -2   1   19.09    0.61
   0   2  -1  182.60    6.08
   0   2  -1  188.31    5.73
   0   2  -1  197.38    6.51
   0  -2   1  184.58    6.51
   0  -2   1  188.06    6.08
  -1   2  -1   81.93    2.50
  -1   2  -1   77.94    2.82
  -1   2  -1   79.62    2.40
  -1   2  -1   80.00    2.61
   1  -2   1   79.69    2.54
   1  -2   1   78.21    2.61
   1  -2   1   81.45    2.83
  -2   2  -1   76.16    2.36
  -2   2  -1   78.96    2.47
  -2   2  -1   80.69    2.57
   2  -2   1   73.32    2.57
   2  -2   1   82.46    2.79
   2  -2   1   78.10    2.50
  -3   2  -1   14.26    0.48
  -3   2  -1   15.15    0.53
  -3   2  -1   15.30    0.59
  -3   2  -1   14.48    0.58
   3  -2   1   15.07    0.52
   3  -2   1   14.56    0.61
   3  -2   1   13.91    0.63
  -4   2  -1   16.27    0.53
  -4   2  -1   15.41    0.57
  -4   2  -1   15.47    0.63
   4  -2   1   16.04    0.69
   4  -2   1   16.07    0.65
   4  -2   1   15.95    0.57
  -5   2  -1   50.31    1.79
  -5   2  -1   49.62    1.49
  -5   2  -1   49.17    1.62
   5  -2   1   48.91    1.61
   5  -2   1   44.02    1.79
   5  -2   1   46.63    1.74
   5  -2   1   47.92    1.97
  -6   2  -1   16.69    0.57
  -6   2  -1   16.94    0.70
  -6   2  -1   16.24    0.53
   6  -2   1   16.63    0.64
   6  -2   1   17.14    0.74
  -7   2  -1   45.56    1.79
  -7   2  -1   47.47    1.43
  -7   2  -1   48.91    1.49
   7  -2   1   49.50    1.38
   7  -2   1   47.76    1.20
   7  -2   1   45.22    1.96
   7  -2   1   46.81    1.19
  -8   2  -1    9.26    0.45
  -8   2  -1    8.77    0.32
   8  -2   1    9.15    0.28
   8  -2   1    9.30    0.30
  -9   2  -1    6.73    0.25
   9  -2   1    6.59    0.22
   9  -2   1    6.50    0.23
 -10   2  -1    4.18    0.13
 -10   2  -1    4.16    0.17
  10  -2   1    4.26    0.16
  10  -2   1    4.60    0.15
   8   1  -1    5.82    0.31
  -8  -1   1    6.08    0.20
   7   1  -1   20.84    0.82
  -7  -1   1   21.19    0.64
   6   1  -1  105.99    3.38
   6   1  -1  110.98    3.89
  -6  -1   1  108.29    3.22
   5   1  -1  195.32    6.09
   5   1  -1  184.37    6.74
   5   1  -1  202.23    6.83
   5   1  -1  195.44    5.91
  -5  -1   1  182.88    5.69
   4   1  -1   90.35    2.85
   4   1  -1   87.32    3.16
   4   1  -1   92.23    4.12
   4   1  -1   88.07    2.77
   4   1  -1   91.67    3.19
  -4  -1   1   90.46    2.76
  -4  -1   1   85.47    2.65
   3   1  -1  338.50   11.40
   3   1  -1  321.26   11.90
   3   1  -1  339.30   15.03
   3   1  -1  317.34   11.77
   3   1  -1  323.17   10.59
   3   1  -1  345.59   10.35
   3   1  -1  353.33   11.42
  -3  -1   1  331.23    9.91
   2   1  -1  404.27   14.70
   2   1  -1  454.48   18.86
   2   1  -1  417.27   12.85
   2   1  -1  385.60   14.83
   2   1  -1  423.92   14.24
   1   1  -1  165.95    7.20
   1   1  -1  154.04    5.47
   1   1  -1  158.17    5.48
  -1  -1   1  163.08    4.83
  -1  -1   1  156.44    5.48
   0   1  -1  272.75    9.22
   0   1  -1  267.67    8.14
   0  -1   1  267.66    9.21
  -1   1  -1  382.39   13.25
  -1   1  -1  388.84   11.71
   1  -1   1  389.21   13.28
  -2   1  -1  417.26   14.00
  -2   1  -1  418.57   12.90
  -2   1  -1  428.51   13.08
   2  -1   1  404.60   14.79
   2  -1   1  453.11   15.46
   2  -1   1  445.21   14.83
   2  -1   1  460.59   13.77
  -3   1  -1    0.90    0.11
  -3   1  -1    1.06    0.07
  -3   1  -1    1.11    0.06
   3  -1   1    1.04    0.09
   3  -1   1    1.18    0.09
  -4   1  -1   25.64    0.91
  -4   1  -1   28.54    0.98
  -4   1  -1   27.51    0.84
   4  -1   1   27.61    1.00
   4  -1   1   25.91    1.13
   4  -1   1   28.67    0.93
   4  -1   1   27.05    1.02
  -5   1  -1   18.81    0.67
  -5   1  -1   20.29    0.62
   5  -1   1   18.89    0.82
   5  -1   1   19.90    0.76
   5  -1   1   19.86    0.70
   5  -1   1   18.92    0.72
  -6   1  -1   36.46    1.10
   6  -1   1   34.94    1.35
   6  -1   1   35.30    1.22
  -7   1  -1    7.18    0.27
   7  -1   1    6.37    0.35
   7  -1   1    7.03    0.33
  -8   1  -1  117.02    4.27
   8  -1   1  117.65    3.36
   8  -1   1  117.06    2.86
  -9   1  -1    3.03    0.13
  -9   1  -1    2.91    0.21
   9  -1   1    3.04    0.13
   9  -1   1    2.90    0.13
 -10   1  -1    1.42    0.08
  10  -1   1    1.64    0.09
  11  -1   1   20.53    0.52
  10   0  -1    6.28    0.20
   9   0  -1   34.87    0.89
   8   0  -1   60.65    2.03
   8   0  -1   60.46    2.26
  -8   0   1   61.08    1.83
   7   0  -1    8.23    0.36
   7   0  -1    8.14    0.38
  -7   0   1    8.14    0.26
   6   0  -1    4.86    0.24
   6   0  -1    5.19    0.24
  -6   0   1    4.81    0.16
   5   0  -1    5.19    0.23
   5   0  -1    5.02    0.21
   5   0  -1    5.33    0.23
   5   0  -1    5.84    0.24
  -5   0   1    5.01    0.25
   4   0  -1    0.41    0.05
   4   0  -1    0.39    0.06
   4   0  -1    0.56    0.05
   4   0  -1    0.51    0.06
  -4   0   1    0.49    0.07
   3   0  -1  112.97    3.55
   3   0  -1  117.43    4.10
   3   0  -1  113.30    3.67
   3   0  -1  115.69    4.11
  -3   0   1  119.28    3.51
   2   0  -1  456.97   19.98
  -2   0   1  431.49   13.37
  -2   0   1  445.22   19.97
   1   0  -1  267.90   12.05
   0   0  -1   59.98    1.80
   0   0   1   57.12    2.05
   0   0   1   60.94    1.80
  -1   0  -1   28.67    0.86
  -1   0  -1   28.37    1.29
   1   0   1   27.58    0.86
   1   0   1   26.89    0.98
   1   0   1   27.10    0.97
   2   0   1    0.06    0.04
   2   0   1    0.00    0.03
   2   0   1    0.13    0.04
   2   0   1    0.12    0.04
  -3   0  -1  111.64    3.60
  -3   0  -1  113.62    3.34
  -3   0  -1  114.34    3.41
   3   0   1  105.02    3.43
   3   0   1  103.07    3.54
   3   0   1  118.79    3.84
   3   0   1  115.11    4.00
  -4   0  -1   26.15    0.92
  -4   0  -1   28.68    0.84
  -4   0  -1   27.88    0.94
  -4   0  -1   25.40    0.99
   4   0   1   28.45    1.00
   4   0   1   30.05    0.94
   4   0   1   28.87    1.03
  -5   0  -1    7.98    0.34
  -5   0  -1    8.79    0.28
   5   0   1    8.76    0.35
   5   0   1    9.24    0.37
   5   0   1    8.65    0.33
  -6   0  -1    0.71    0.07
  -6   0  -1    0.76    0.05
   6   0   1    0.78    0.09
   6   0   1    0.77    0.11
  -7   0  -1    7.32    0.26
   7   0   1    7.14    0.35
   7   0   1    7.12    0.33
   8   0   1    0.11    0.05
   8   0   1    0.06    0.05
   9   0   1    3.14    0.14
 -10   0  -1    9.23    0.32
  10   0   1    9.67    0.27
  11  -1  -1   37.02    0.92
  10  -1  -1   24.71    0.63
  10  -1  -1   23.73    0.72
   9  -1  -1   14.33    0.45
   9  -1  -1   15.20    0.41
  -9   1   1   13.80    0.62
   8  -1  -1    6.15    0.21
  -8   1   1    5.90    0.23
  -8   1   1    6.38    0.32
   7  -1  -1   21.45    0.77
   7  -1  -1   19.64    0.84
  -7   1   1   20.65    0.66
  -7   1   1   21.89    0.83
   6  -1  -1  109.09    3.87
   6  -1  -1  106.14    3.46
   6  -1  -1  106.68    4.30
  -6   1   1  106.96    3.20
   5  -1  -1  179.67    5.99
   5  -1  -1  186.44    7.51
   5  -1  -1  197.24    6.72
   5  -1  -1  188.28    6.44
  -5   1   1  190.65    5.66
   4  -1  -1   91.85    3.09
   4  -1  -1   94.00    3.21
   4  -1  -1   90.75    2.86
   4  -1  -1   88.16    3.14
  -4   1   1   87.28    2.66
  -4   1   1   83.60    2.89
  -4   1   1   89.05    2.76
   3  -1  -1  324.83   11.72
   3  -1  -1  320.84   11.37
   3  -1  -1  357.36   10.63
   3  -1  -1  332.45   11.92
  -3   1   1  342.44   10.01
  -3   1   1  326.70    9.92
  -3   1   1  323.35   10.77
   2  -1  -1  420.45   13.91
   2  -1  -1  392.69   14.23
   2  -1  -1  396.27   13.83
   2  -1  -1  417.62   12.89
   2  -1  -1  392.23   14.46
  -2   1   1  412.18   12.21
  -2   1   1  402.69   12.09
   1  -1  -1  160.94    4.75
   1  -1  -1  154.77    5.43
  -1   1   1  160.83    5.44
  -1   1   1  154.86    4.76
   0  -1  -1  280.94    8.42
   0  -1  -1  279.13    9.55
   0   1   1  269.26    9.55
   0   1   1  286.75   12.56
  -1  -1  -1  378.22   13.29
  -1  -1  -1  399.28   17.53
   1   1   1  373.78   13.88
   1   1   1  405.42   17.50
   1   1   1  386.47   13.36
  -2  -1  -1  442.99   13.30
  -2  -1  -1  436.77   14.28
  -2  -1  -1  434.87   13.16
   2   1   1  456.12   13.64
   2   1   1  438.25   15.77
   2   1   1  426.31   15.10
   2   1   1  467.05   19.92
   2   1   1  414.19   13.98
   2   1   1  457.28   15.17
  -3  -1  -1    1.08    0.05
  -3  -1  -1    1.03    0.06
  -3  -1  -1    0.96    0.10
   3   1   1    0.98    0.13
   3   1   1    1.05    0.09
   3   1   1    1.02    0.07
   3   1   1    1.08    0.08
   3   1   1    1.01    0.07
  -4  -1  -1   25.60    0.89
  -4  -1  -1   27.17    0.82
   4   1   1   27.27    0.90
   4   1   1   26.32    0.99
   4   1   1   27.25    0.99
   4   1   1   28.16    1.00
  -5  -1  -1   19.74    0.60
   5   1   1   20.00    0.75
   5   1   1   18.75    0.68
  -6  -1  -1   36.82    1.12
   6   1   1   36.75    1.37
  -7  -1  -1    7.10    0.25
  -7  -1  -1    7.21    0.32
   7   1   1    7.19    0.34
  -8  -1  -1  114.25    4.01
  11  -2  -1    1.35    0.07
  10  -2  -1   25.21    0.63
  10  -2  -1   24.22    0.72
 -10   2   1   23.61    0.75
   9  -2  -1    3.00    0.13
   9  -2  -1    2.96    0.12
   9  -2  -1    2.99    0.13
  -9   2   1    2.44    0.20
  -9   2   1    2.92    0.13
   8  -2  -1    2.28    0.12
   8  -2  -1    2.48    0.11
   8  -2  -1    2.51    0.11
  -8   2   1    2.49    0.20
   7  -2  -1   12.94    0.59
   7  -2  -1   13.06    0.53
  -7   2   1   12.35    0.45
  -7   2   1   13.24    0.56
   6  -2  -1   70.82    2.82
   6  -2  -1   70.36    2.28
  -6   2   1   68.81    2.54
  -6   2   1   67.37    2.11
   5  -2  -1  106.24    3.40
   5  -2  -1  106.49    4.24
   5  -2  -1  104.03    3.69
  -5   2   1  103.03    3.44
  -5   2   1  108.88    3.18
  -5   2   1  102.27    3.81
  -5   2   1  108.01    3.45
   4  -2  -1  423.99   16.16
   4  -2  -1  484.27   18.52
   4  -2  -1  480.97   14.71
   4  -2  -1  481.54   15.81
  -4   2   1  445.89   15.00
  -4   2   1  465.28   13.87
  -4   2   1  447.44   16.50
   3  -2  -1  242.80    8.02
   3  -2  -1  227.57    7.33
   3  -2  -1  228.28    8.18
  -3   2   1  235.96    6.90
  -3   2   1  233.09    7.49
  -3   2   1  224.29    7.04
   2  -2  -1  305.11   10.65
   2  -2  -1  327.87   10.49
   2  -2  -1  343.14   11.39
  -2   2   1  344.96    9.94
  -2   2   1  326.23    9.99
  -2   2   1  340.04   10.73
   1  -2  -1   20.79    0.80
   1  -2  -1   18.90    0.68
  -1   2   1   19.79    0.68
  -1   2   1   20.90    0.68
  -1   2   1   18.83    0.79
  -1   2   1   20.38    0.69
   0  -2  -1  195.52    6.68
   0  -2  -1  190.23    6.22
   0   2   1  200.98    6.68
   0   2   1  192.16    8.71
   0   2   1  184.96    6.22
  -1  -2  -1   82.48    2.44
  -1  -2  -1   81.80    2.64
   1   2   1   82.89    2.88
   1   2   1   78.31    2.64
   1   2   1   80.56    3.74
  -2  -2  -1   82.18    2.66
  -2  -2  -1   80.31    2.45
   2   2   1   79.16    3.77
   2   2   1   81.37    2.90
   2   2   1   84.87    2.94
  -3  -2  -1   15.63    0.48
  -3  -2  -1   14.27    0.52
   3   2   1   15.48    0.59
   3   2   1   13.48    0.57
   3   2   1   16.15    0.64
   3   2   1   15.06    0.83
  -4  -2  -1   15.83    0.55
  -4  -2  -1   16.15    0.52
   4   2   1   15.64    0.66
   4   2   1   16.72    0.62
   4   2   1   16.65    0.63
  -5  -2  -1   50.79    1.53
   5   2   1   46.58    1.78
   5   2   1   50.64    1.84
   5   2   1   52.73    1.84
  -6  -2  -1   17.35    0.55
   6   2   1   17.27    0.69
  -7  -2  -1   48.48    1.46
   7   2   1   47.40    1.28
  -8  -2  -1    9.22    0.39
   8   2   1    8.96    0.29
   9   2   1    6.53    0.22
 -10  -2  -1    4.01    0.16
  10   2   1    4.27    0.14
  10  -3  -1   15.37    0.46
  10  -3  -1   15.27    0.41
 -10   3   1   15.18    0.40
 -10   3   1   15.66    0.49
   9  -3  -1    6.42    0.22
   9  -3  -1    6.30    0.21
   9  -3  -1    6.35    0.20
  -9   3   1    6.67    0.24
  -9   3   1    6.21    0.18
   8  -3  -1   26.38    0.69
   8  -3  -1   26.99    0.69
   8  -3  -1   27.12    0.79
  -8   3   1   26.90    0.83
  -8   3   1   24.47    1.05
   7  -3  -1   80.95    2.12
   7  -3  -1   80.28    3.28
   7  -3  -1   78.62    1.98
   7  -3  -1   82.39    2.01
   7  -3  -1   80.14    1.99
   7  -3  -1   79.59    2.31
  -7   3   1   78.92    2.40
  -7   3   1   82.96    2.49
  -7   3   1   80.21    2.97
   6  -3  -1   18.44    0.80
   6  -3  -1   17.91    0.67
  -6   3   1   17.68    0.74
  -6   3   1   17.43    0.62
  -6   3   1   17.61    0.57
  -6   3   1   17.41    0.65
   5  -3  -1   62.09    2.44
   5  -3  -1   58.20    1.96
  -5   3   1   58.06    2.20
  -5   3   1   58.67    1.78
  -5   3   1   59.68    1.99
  -5   3   1   60.08    1.85
   4  -3  -1   45.70    1.73
   4  -3  -1   47.29    1.87
  -4   3   1   44.61    1.54
  -4   3   1   46.12    1.43
  -4   3   1   45.96    1.55
  -4   3   1   43.61    1.69
   3  -3  -1    3.90    0.19
   3  -3  -1    3.69    0.21
   3  -3  -1    3.80    0.28
  -3   3   1    3.70    0.20
  -3   3   1    4.06    0.20
  -3   3   1    3.57    0.18
  -3   3   1    3.77    0.21
   2  -3  -1    8.16    0.39
   2  -3  -1    7.91    0.45
  -2   3   1    8.49    0.35
  -2   3   1    8.75    0.35
  -2   3   1    9.20    0.37
   1  -3  -1    1.04    0.09
  -1   3   1    0.98    0.09
  -1   3   1    1.01    0.11
  -1   3   1    1.07    0.19
   0  -3  -1   19.32    0.66
   0   3   1   17.37    0.99
   0   3   1   18.89    0.72
   0   3   1   18.35    0.66
  -1  -3  -1   78.31    2.43
   1   3   1   64.82    3.50
   1   3   1   76.08    2.67
   1   3   1   75.37    2.70
  -2  -3  -1   44.28    1.46
  -2  -3  -1   41.43    1.34
   2   3   1   44.77    1.60
   2   3   1   42.81    1.67
   2   3   1   44.87    1.62
  -3  -3  -1  105.28    3.51
  -3  -3  -1  106.81    3.24
   3   3   1  109.76    3.88
   3   3   1  108.30    3.85
   3   3   1  108.37    3.87
  -4  -3  -1   39.40    1.27
  -4  -3  -1   39.84    1.36
   4   3   1   42.15    1.53
   4   3   1   42.16    1.51
  -5  -3  -1   40.27    1.28
  -5  -3  -1   40.21    1.25
   5   3   1   43.70    1.53
   5   3   1   40.49    1.54
  -6  -3  -1   13.99    0.46
  -6  -3  -1   13.44    0.46
   6   3   1   13.15    0.41
   6   3   1   13.71    0.57
  -7  -3  -1   18.63    0.59
   7   3   1   17.14    0.51
  -8  -3  -1   12.19    0.42
   8   3   1   12.85    0.38
  -9  -3  -1    6.68    0.25
   9   3   1    7.15    0.22
  10   3   1    1.18    0.06
 -10   4   1    3.28    0.09
   9  -4  -1   27.88    0.82
  -9   4   1   27.27    0.71
  -9   4   1   28.97    0.87
   8  -4  -1   15.67    0.46
   8  -4  -1   15.72    0.43
   8  -4  -1   16.50    0.49
  -8   4   1   15.97    0.42
  -8   4   1   15.78    0.52
   7  -4  -1    5.27    0.14
   7  -4  -1    5.54    0.18
   7  -4  -1    5.59    0.19
   7  -4  -1    4.97    0.30
   7  -4  -1    5.12    0.20
  -7   4   1    5.35    0.16
  -7   4   1    5.50    0.22
  -7   4   1    5.06    0.16
  -7   4   1    4.74    0.30
   6  -4  -1    2.51    0.13
   6  -4  -1    2.59    0.10
   6  -4  -1    2.45    0.11
   6  -4  -1    2.30    0.19
   6  -4  -1    2.61    0.09
   6  -4  -1    2.60    0.12
  -6   4   1    2.62    0.10
  -6   4   1    2.60    0.09
  -6   4   1    2.51    0.21
  -6   4   1    2.63    0.13
   5  -4  -1   16.82    0.53
   5  -4  -1   17.51    0.76
  -5   4   1   17.04    0.72
  -5   4   1   16.49    0.65
  -5   4   1   16.36    0.55
   4  -4  -1   29.90    1.24
  -4   4   1   29.59    1.15
  -4   4   1   28.72    1.05
  -4   4   1   28.57    0.91
   3  -4  -1    0.96    0.11
   3  -4  -1    1.08    0.11
  -3   4   1    1.10    0.13
  -3   4   1    1.15    0.13
  -2   4   1   27.57    1.09
  -2   4   1   28.91    1.01
   1  -4  -1   21.99    0.78
  -1   4   1   20.50    0.84
  -1   4   1   22.07    0.79
   0  -4  -1   56.74    1.92
   0   4   1   58.80    2.10
   0   4   1   55.19    1.93
  -1  -4  -1    3.69    0.20
   1   4   1    3.37    0.20
   1   4   1    3.30    0.21
  -2  -4  -1   30.31    1.06
  -2  -4  -1   29.07    0.94
   2   4   1   30.07    1.16
   2   4   1   31.51    1.15
  -3  -4  -1   13.33    0.51
  -3  -4  -1   13.55    0.46
   3   4   1   14.35    0.56
   3   4   1   13.21    0.57
  -4  -4  -1   16.17    0.54
  -4  -4  -1   16.14    0.56
  -4  -4  -1   16.17    0.59
   4   4   1   15.59    0.67
   4   4   1   16.73    0.65
  -5  -4  -1   64.83    1.97
  -5  -4  -1   61.94    1.92
  -5  -4  -1   62.06    1.62
   5   4   1   64.83    1.59
   5   4   1   64.62    1.55
   5   4   1   62.68    1.68
   5   4   1   65.40    2.34
  -6  -4  -1    0.67    0.05
  -6  -4  -1    0.98    0.09
   6   4   1    0.78    0.06
   6   4   1    0.81    0.07
   6   4   1    0.75    0.10
  -7  -4  -1    1.14    0.09
  -7  -4  -1    1.28    0.06
   7   4   1    1.07    0.07
   7   4   1    0.98    0.08
  -8  -4  -1    3.80    0.16
  -8  -4  -1    3.53    0.11
   8   4   1    3.41    0.12
   8   4   1    3.69    0.14
  -9  -4  -1    1.61    0.06
   9   4   1    1.82    0.08
   8  -5  -1    1.35    0.07
  -8   5   1    1.41    0.05
  -8   5   1    1.32    0.05
   7  -5  -1    0.57    0.05
   7  -5  -1    0.49    0.06
  -7   5   1    0.60    0.05
  -7   5   1    0.55    0.04
   6  -5  -1    6.89    0.22
   6  -5  -1    7.22    0.24
   6  -5  -1    7.31    0.20
   6  -5  -1    6.87    0.24
  -6   5   1    7.03    0.20
  -6   5   1    7.03    0.20
   5  -5  -1    9.00    0.30
   5  -5  -1    9.37    0.30
   5  -5  -1    8.87    0.45
   5  -5  -1    9.30    0.26
   5  -5  -1    9.54    0.28
  -5   5   1    9.13    0.25
  -5   5   1    9.26    0.25
  -5   5   1    8.69    0.45
   4  -5  -1   77.84    2.04
   4  -5  -1   81.90    2.34
   4  -5  -1   83.61    2.15
   4  -5  -1   82.97    2.20
  -4   5   1   81.15    1.92
  -4   5   1   79.91    3.00
   3  -5  -1    2.98    0.14
   3  -5  -1    3.01    0.14
   3  -5  -1    2.92    0.13
  -3   5   1    2.98    0.22
  -3   5   1    2.88    0.11
   2  -5  -1   23.65    0.71
   2  -5  -1   24.13    0.66
   2  -5  -1   23.23    0.67
  -2   5   1   22.85    0.87
  -2   5   1   22.08    0.93
  -2   5   1   23.19    0.58
   1  -5  -1    4.66    0.26
   1  -5  -1    4.82    0.20
  -1   5   1    5.11    0.28
   0  -5  -1    5.93    0.29
   0   5   1    6.38    0.31
   0   5   1    5.06    0.31
  -1  -5  -1    4.31    0.24
  -1  -5  -1    4.18    0.18
   1   5   1    4.01    0.17
   1   5   1    4.07    0.24
   1   5   1    3.95    0.28
  -2  -5  -1   22.88    0.57
  -2  -5  -1   22.81    0.71
  -2  -5  -1   22.97    0.84
  -2  -5  -1   22.74    0.59
   2   5   1   23.24    0.90
   2   5   1   22.44    0.61
   2   5   1   22.57    0.65
   2   5   1   22.65    0.58
  -3  -5  -1   20.06    0.64
  -3  -5  -1   20.24    0.52
  -3  -5  -1   21.30    0.54
   3   5   1   20.32    0.55
   3   5   1   20.56    0.59
   3   5   1   19.01    0.80
   3   5   1   21.18    0.53
  -4  -5  -1   15.09    0.41
  -4  -5  -1   15.40    0.52
  -4  -5  -1   14.87    0.39
  -4  -5  -1   15.15    0.49
   4   5   1   14.55    0.44
   4   5   1   15.39    0.40
   4   5   1   15.15    0.40
   4   5   1   14.92    0.61
  -5  -5  -1    1.93    0.08
  -5  -5  -1    1.84    0.08
  -5  -5  -1    2.55    0.13
  -5  -5  -1    2.03    0.12
   5   5   1    1.87    0.09
   5   5   1    1.72    0.14
   5   5   1    1.85    0.07
  -6  -5  -1   35.58    1.11
  -6  -5  -1   35.23    1.07
  -6  -5  -1   36.19    0.92
   6   5   1   36.62    0.88
  -7  -5  -1    2.50    0.13
  -7  -5  -1    2.62    0.09
  -7  -5  -1    2.41    0.12
   7   5   1    2.62    0.09
   7   5   1    2.31    0.10
   8   5   1    0.45    0.03
   8   5   1    0.49    0.04
   7  -6  -1   10.47    0.33
  -7   6   1   11.38    0.27
   6  -6  -1    2.16    0.07
   6  -6  -1    1.92    0.07
   6  -6  -1    2.17    0.09
  -6   6   1    2.25    0.07
   5  -6  -1    6.20    0.21
   5  -6  -1    5.94    0.19
   5  -6  -1    6.02    0.18
  -5   6   1    6.03    0.17
   4  -6  -1    0.69    0.06
   4  -6  -1    0.64    0.06
   4  -6  -1    0.60    0.06
  -4   6   1    0.69    0.05
   3  -6  -1    4.51    0.17
   3  -6  -1    4.54    0.17
  -3   6   1    4.72    0.14
   2  -6  -1    4.35    0.17
   2  -6  -1    4.29    0.16
  -2   6   1    4.35    0.14
  -2   6   1    4.05    0.17
   1  -6  -1    5.69    0.21
   1  -6  -1    5.66    0.20
  -1   6   1    5.42    0.30
  -1   6   1    5.66    0.20
   0  -6  -1   10.20    0.28
   0  -6  -1    9.93    0.34
   0   6   1   10.13    0.46
   0   6   1   10.40    0.32
  -1  -6  -1    2.33    0.10
  -1  -6  -1    2.18    0.12
   1   6   1    2.13    0.17
   1   6   1    2.29    0.11
  -2  -6  -1   67.13    1.57
  -2  -6  -1   62.80    1.92
   2   6   1   66.92    1.79
   2   6   1   67.25    1.67
  -3  -6  -1    6.92    0.25
  -3  -6  -1    7.38    0.20
   3   6   1    6.67    0.20
   3   6   1    7.07    0.22
   3   6   1    7.17    0.21
  -4  -6  -1   12.19    0.41
  -4  -6  -1   13.22    0.33
   4   6   1   12.89    0.34
   4   6   1   13.40    0.34
  -5  -6  -1    5.97    0.17
  -5  -6  -1    5.82    0.21
  -5  -6  -1    6.16    0.17
   5   6   1    5.89    0.17
  -6  -6  -1   23.20    0.61
  -6  -6  -1   23.45    0.57
   6   6   1   25.74    0.59
   4  -7  -1   11.58    0.29
   4  -7  -1   11.20    0.32
   4  -7  -1   11.21    0.34
   3  -7  -1   18.67    0.51
   3  -7  -1   20.56    0.55
   3  -7  -1   20.59    0.59
   2  -7  -1   47.12    1.27
   2  -7  -1   48.10    1.35
  -2   7   1   45.13    1.26
   1  -7  -1    3.16    0.12
   1  -7  -1    2.99    0.11
  -1   7   1    3.15    0.11
   0  -7  -1   14.85    0.46
   0   7   1   15.79    0.44
  -1  -7  -1   27.54    0.83
  -1  -7  -1   28.45    0.67
   1   7   1   27.35    0.72
   1   7   1   29.23    0.77
  -2  -7  -1   13.17    0.33
  -2  -7  -1   13.10    0.41
   2   7   1   13.90    0.35
   2   7   1   13.52    0.38
  -3  -7  -1    0.27    0.03
   3   7   1    0.21    0.02
  -4  -7   2    6.13    0.16
   3   7  -2    9.27    0.27
   3   7  -2    9.83    0.25
  -3  -7   2    9.75    0.24
   2   7  -2    5.94    0.17
   2   7  -2    5.97    0.18
  -2  -7   2    6.03    0.16
   1   7  -2    7.19    0.21
   1   7  -2    6.74    0.19
  -1  -7   2    6.77    0.18
  -1  -7   2    6.85    0.18
   0   7  -2    6.84    0.21
  -1   7  -2   23.78    0.65
   1  -7   2   23.62    0.65
  -2   7  -2    2.69    0.10
   2  -7   2    2.89    0.10
   3  -7   2    5.26    0.16
   7   6  -2    9.76    0.25
  -7  -6   2    9.89    0.26
   6   6  -2    5.85    0.16
  -6  -6   2    5.50    0.15
  -6  -6   2    6.10    0.16
   5   6  -2    9.02    0.25
  -5  -6   2    9.32    0.24
  -5  -6   2    9.48    0.25
   4   6  -2    3.51    0.12
   4   6  -2    3.72    0.11
  -4  -6   2    3.54    0.11
  -4  -6   2    3.57    0.12
   3   6  -2   26.06    0.68
   3   6  -2   26.78    0.73
  -3  -6   2   26.65    0.65
   2   6  -2    2.71    0.11
   2   6  -2    2.85    0.12
  -2  -6   2    2.62    0.10
   1   6  -2    0.43    0.05
  -1  -6   2    0.60    0.05
   0   6  -2    9.64    0.30
   0  -6   2    9.96    0.26
  -1   6  -2    8.58    0.27
   1  -6   2    8.96    0.28
   1  -6   2    8.44    0.28
  -2   6  -2   52.24    1.26
   2  -6   2   52.58    1.45
   2  -6   2   54.58    1.54
  -3   6  -2    5.61    0.16
   3  -6   2    5.40    0.19
   3  -6   2    5.42    0.18
  -4   6  -2    1.99    0.07
   4  -6   2    1.72    0.08
   4  -6   2    1.82    0.08
   4  -6   2    1.84    0.09
  -5   6  -2    7.58    0.19
   5  -6   2    7.04    0.21
   5  -6   2    6.95    0.23
   5  -6   2    7.26    0.20
  -6   6  -2    9.93    0.25
   8   5  -2    7.57    0.23
   8   5  -2    7.92    0.21
  -8  -5   2    7.62    0.27
  -8  -5   2    7.81    0.21
   7   5  -2   33.42    0.93
   7   5  -2   35.76    0.85
  -7  -5   2   34.11    0.89
  -7  -5   2   35.94    1.07
   6   5  -2   25.67    0.65
  -6  -5   2   26.83    0.83
  -6  -5   2   25.80    0.68
   5   5  -2   19.23    0.49
   5   5  -2   18.73    0.75
   5   5  -2   19.19    0.49
  -5  -5   2   19.13    0.51
  -5  -5   2   18.94    0.48
  -5  -5   2   19.65    0.63
   4   5  -2   48.12    1.31
   4   5  -2   48.30    1.21
   4   5  -2   47.63    1.17
   4   5  -2   48.72    1.79
  -4  -5   2   47.37    1.23
  -4  -5   2   48.73    1.47
  -4  -5   2   48.77    1.15
   3   5  -2   14.10    0.38
   3   5  -2   13.74    0.58
   3   5  -2   14.51    0.41
  -3  -5   2   13.79    0.47
  -3  -5   2   14.40    0.38
  -3  -5   2   13.59    0.36
   2   5  -2   11.78    0.52
   2   5  -2   12.25    0.36
  -2  -5   2   11.72    0.50
  -2  -5   2   11.84    0.32
  -2  -5   2   12.24    0.32
   1   5  -2    2.64    0.19
   1   5  -2    2.70    0.12
  -1  -5   2    2.62    0.19
  -1  -5   2    2.70    0.11
   0   5  -2   21.56    0.63
   0   5  -2   20.93    0.88
   0  -5   2   22.16    0.83
   0  -5   2   22.42    0.54
  -1   5  -2   19.72    0.82
  -1   5  -2   19.96    0.50
  -1   5  -2   19.73    0.58
   1  -5   2   20.22    0.61
   1  -5   2   20.32    0.50
   1  -5   2   19.88    0.58
  -2   5  -2    7.49    0.39
  -2   5  -2    7.53    0.21
   2  -5   2    6.98    0.24
   2  -5   2    7.25    0.38
   2  -5   2    7.23    0.25
  -3   5  -2   26.15    1.04
  -3   5  -2   25.22    0.63
   3  -5   2   24.13    1.10
   3  -5   2   25.65    0.76
   3  -5   2   25.94    0.72
  -4   5  -2    3.98    0.13
  -4   5  -2    3.90    0.27
   4  -5   2    4.24    0.16
   4  -5   2    4.15    0.14
   4  -5   2    4.45    0.15
   4  -5   2    3.88    0.26
  -5   5  -2    4.97    0.15
   5  -5   2    4.74    0.18
   5  -5   2    5.00    0.16
   5  -5   2    4.76    0.15
  -6   5  -2    2.57    0.09
   6  -5   2    2.75    0.10
   6  -5   2    2.88    0.09
   6  -5   2    2.80    0.11
  -7   5  -2    0.43    0.03
  10   4  -2   25.54    0.68
   9   4  -2   31.07    0.77
   9   4  -2   32.67    0.85
  -9  -4   2   30.89    0.96
   8   4  -2    5.43    0.17
   8   4  -2    5.54    0.20
  -8  -4   2    5.72    0.22
   7   4  -2   18.18    0.52
   7   4  -2   18.56    0.47
  -7  -4   2   18.03    0.60
   6   4  -2    2.50    0.12
   6   4  -2    2.49    0.16
   6   4  -2    2.47    0.10
  -6  -4   2    2.47    0.13
   5   4  -2   30.91    1.15
  -5  -4   2   29.64    0.95
  -5  -4   2   31.13    1.00
   4   4  -2   16.60    0.64
  -4  -4   2   15.88    0.60
  -4  -4   2   15.93    0.53
  -4  -4   2   15.59    0.56
   3   4  -2   26.37    0.99
  -3  -4   2   25.39    0.85
  -3  -4   2   25.28    0.92
  -3  -4   2   26.03    0.81
   2   4  -2   44.83    1.60
   2   4  -2   45.77    1.66
  -2  -4   2   42.94    1.53
   1   4  -2   36.48    1.29
   1   4  -2   32.19    1.23
  -1  -4   2   33.24    1.19
   0   4  -2   21.20    0.85
   0   4  -2   25.29    0.91
   0  -4   2   22.21    0.84
  -1   4  -2   19.43    0.77
  -1   4  -2   19.51    0.73
   1  -4   2   18.41    0.84
   1  -4   2   19.25    0.73
  -2   4  -2   30.64    1.17
  -2   4  -2   30.84    1.09
   2  -4   2   28.99    1.28
  -3   4  -2    2.09    0.18
  -3   4  -2    2.41    0.19
   3  -4   2    2.08    0.18
  -4   4  -2  104.32    3.65
  -4   4  -2   95.88    3.31
   4  -4   2   99.26    2.86
   4  -4   2   97.29    4.02
  -5   4  -2    3.30    0.11
  -5   4  -2    2.88    0.15
  -5   4  -2    3.22    0.11
  -5   4  -2    3.16    0.24
   5  -4   2    3.50    0.13
   5  -4   2    3.19    0.23
   5  -4   2    3.42    0.12
   5  -4   2    3.23    0.13
   5  -4   2    3.09    0.14
  -6   4  -2   52.73    1.24
  -6   4  -2   51.31    1.32
  -6   4  -2   48.44    1.98
  -6   4  -2   54.17    1.58
   6  -4   2   51.67    2.16
   6  -4   2   51.79    1.41
   6  -4   2   52.65    1.31
   6  -4   2   53.50    1.51
  -7   4  -2    0.59    0.04
  -7   4  -2    0.58    0.04
  -7   4  -2    0.55    0.06
   7  -4   2    0.63    0.06
  -8   4  -2    0.97    0.04
   8  -4   2    0.88    0.06
  -9   4  -2    6.62    0.19
   9  -4   2    7.12    0.22
  10   3  -2    1.28    0.08
   9   3  -2    0.85    0.07
   8   3  -2   18.15    0.46
   8   3  -2   17.98    0.52
   7   3  -2   28.87    0.80
   7   3  -2   29.25    0.73
  -7  -3   2   29.51    0.92
   6   3  -2   26.52    0.93
   6   3  -2   26.64    1.02
  -6  -3   2   27.70    0.86
   5   3  -2    3.76    0.19
   5   3  -2    3.66    0.20
  -5  -3   2    3.91    0.17
   4   3  -2   51.94    1.93
   4   3  -2   51.04    1.92
   4   3  -2   54.06    1.70
  -4  -3   2   55.04    1.63
  -4  -3   2   53.05    1.76
   3   3  -2    0.28    0.06
   3   3  -2    0.20    0.06
   3   3  -2    0.16    0.05
   3   3  -2    0.20    0.08
  -3  -3   2    0.15    0.05
  -3  -3   2    0.29    0.05
   2   3  -2   92.89    2.80
   2   3  -2   92.58    3.13
   2   3  -2   88.57    3.21
   2   3  -2   83.08    3.23
  -2  -3   2   90.18    2.95
  -2  -3   2   91.44    2.72
   1   3  -2   40.02    1.52
   1   3  -2   39.44    1.43
   1   3  -2   38.74    1.48
  -1  -3   2   42.59    1.37
   0   3  -2   60.19    2.00
   0   3  -2   59.08    2.19
   0   3  -2   58.27    2.10
   0  -3   2   62.07    2.00
   0  -3   2   60.47    2.43
  -1   3  -2   18.13    0.71
  -1   3  -2   18.00    0.67
   1  -3   2   18.11    0.67
   1  -3   2   18.53    0.78
  -2   3  -2   30.88    1.20
  -2   3  -2   32.12    1.10
   2  -3   2   31.86    1.32
  -3   3  -2   55.65    1.90
  -3   3  -2   58.24    2.08
   3  -3   2   55.20    2.09
   3  -3   2   55.72    2.30
  -4   3  -2   18.51    0.75
  -4   3  -2   17.50    0.58
  -4   3  -2   17.80    0.69
   4  -3   2   19.23    0.81
  -5   3  -2    6.60    0.25
  -5   3  -2    6.21    0.34
  -5   3  -2    6.07    0.29
  -5   3  -2    6.48    0.31
   5  -3   2    6.71    0.35
  -6   3  -2   15.40    0.60
  -6   3  -2   15.01    0.51
  -6   3  -2   15.71    0.57
  -6   3  -2   14.93    0.68
  -6   3  -2   15.46    0.41
  -6   3  -2   14.87    0.39
   6  -3   2   15.75    0.40
   6  -3   2   15.53    0.42
   6  -3   2   15.81    0.48
   6  -3   2   16.15    0.71
   6  -3   2   15.08    0.42
  -7   3  -2   14.66    0.47
  -7   3  -2   13.99    0.37
  -7   3  -2   13.32    0.62
   7  -3   2   14.13    0.43
   7  -3   2   13.40    0.64
   7  -3   2   13.59    0.35
   7  -3   2   13.39    0.39
  -8   3  -2    9.47    0.33
  -8   3  -2    9.48    0.26
   8  -3   2    9.17    0.28
   8  -3   2    9.34    0.30
  -9   3  -2    2.41    0.12
  -9   3  -2    2.68    0.09
   9  -3   2    2.71    0.11
   9  -3   2    2.59    0.11
  10   2  -2    5.24    0.18
   9   2  -2    7.64    0.25
   8   2  -2   21.46    0.61
  -8  -2   2   21.97    0.67
   7   2  -2    9.74    0.41
  -7  -2   2   10.25    0.33
   6   2  -2   60.77    1.88
   6   2  -2   56.69    2.13
   6   2  -2   57.03    2.13
  -6  -2   2   59.62    1.77
   5   2  -2   41.75    1.57
   5   2  -2   43.35    1.58
   5   2  -2   44.53    1.39
   5   2  -2   42.14    1.59
  -5  -2   2   44.13    1.31
   4   2  -2   53.69    1.82
   4   2  -2   50.54    1.77
   4   2  -2   46.42    1.81
   4   2  -2   51.97    1.59
   4   2  -2   50.38    1.82
  -4  -2   2   47.37    1.65
  -4  -2   2   51.16    1.52
   3   2  -2  320.59   11.12
   3   2  -2  302.14   11.43
   3   2  -2  330.20   11.05
   3   2  -2  330.36   10.03
   3   2  -2  326.16   14.57
   3   2  -2  321.43   11.53
  -3  -2   2  336.14    9.67
  -3  -2   2  312.81   10.44
   2   2  -2   82.53    3.86
   2   2  -2   86.49    2.57
   2   2  -2   80.76    2.96
   2   2  -2   83.48    2.91
  -2  -2   2   80.98    2.48
  -2  -2   2   82.86    2.70
   1   2  -2  116.86    4.09
   1   2  -2  114.50    3.81
   1   2  -2  115.97    3.61
   1   2  -2  117.75    3.63
  -1  -2   2  118.45    3.51
  -1  -2   2  121.39    3.81
   0   2  -2   11.64    0.48
   0   2  -2   10.65    0.40
   0   2  -2   10.85    0.44
   0  -2   2   11.26    0.40
   0  -2   2   10.65    0.48
  -1   2  -2   33.83    1.15
  -1   2  -2   32.97    1.14
   1  -2   2   32.81    1.15
   1  -2   2   36.19    1.28
   1  -2   2   34.16    1.11
  -2   2  -2  125.24    3.80
  -2   2  -2  120.20    4.37
  -2   2  -2  119.79    3.65
  -2   2  -2  128.23    3.97
   2  -2   2  128.36    3.88
   2  -2   2  121.94    4.26
   2  -2   2  108.64    4.87
  -3   2  -2  120.67    3.59
  -3   2  -2  112.07    4.29
  -3   2  -2  121.06    3.90
   3  -2   2  128.38    4.79
   3  -2   2  116.12    3.82
   3  -2   2  119.06    4.19
  -4   2  -2    5.40    0.25
  -4   2  -2    5.63    0.28
  -4   2  -2    5.96    0.23
   4  -2   2    5.53    0.29
   4  -2   2    5.77    0.30
   4  -2   2    5.09    0.27
   4  -2   2    5.42    0.26
  -5   2  -2   10.84    0.42
  -5   2  -2   10.61    0.47
  -5   2  -2   10.75    0.39
   5  -2   2    9.85    0.47
   5  -2   2   10.25    0.43
   5  -2   2   11.29    0.50
  -6   2  -2    9.87    0.37
  -6   2  -2   10.09    0.46
  -6   2  -2    9.27    0.33
   6  -2   2    9.93    0.47
   6  -2   2    9.81    0.43
  -7   2  -2   40.10    1.57
  -7   2  -2   41.07    1.24
   7  -2   2   40.55    1.03
   7  -2   2   41.02    1.19
  -8   2  -2    9.15    0.46
  -8   2  -2    9.33    0.34
   8  -2   2    9.71    0.29
   8  -2   2    9.74    0.31
  -9   2  -2    0.84    0.04
  -9   2  -2    0.81    0.07
   9  -2   2    0.73    0.07
   9  -2   2    0.84    0.07
 -10   2  -2    1.12    0.05
  10  -2   2    1.17    0.07
  10  -2   2    1.02    0.07
   8   1  -2   63.89    2.36
   7   1  -2  109.16    3.86
   7   1  -2  104.90    3.35
   6   1  -2   25.98    0.89
   6   1  -2   28.21    1.00
   6   1  -2   25.78    1.00
   5   1  -2   46.80    1.47
   5   1  -2   45.94    1.67
   5   1  -2   48.03    1.68
   5   1  -2   45.98    1.51
  -5  -1   2   44.11    1.51
   4   1  -2  165.76    5.78
   4   1  -2  163.83    5.71
   4   1  -2  169.43    7.40
   4   1  -2  164.62    5.01
   4   1  -2  157.82    5.15
  -4  -1   2  163.33    4.95
  -4  -1   2  154.65    4.84
   3   1  -2  175.34    8.18
   3   1  -2  186.73    6.46
   3   1  -2  191.32    6.20
   3   1  -2  183.17    6.20
   3   1  -2  178.84    5.75
   3   1  -2  187.10    5.61
   3   1  -2  181.98    6.48
  -3  -1   2  168.96    5.85
  -3  -1   2  175.24    5.40
   2   1  -2  541.86   23.62
   2   1  -2  526.81   18.44
   2   1  -2  513.26   17.92
   2   1  -2  529.93   16.13
   2   1  -2  525.00   17.93
  -2  -1   2  503.38   15.56
   1   1  -2  129.85    4.45
   1   1  -2  129.61    3.82
   1   1  -2  124.13    4.33
  -1  -1   2  123.64    3.82
  -1  -1   2  121.17    4.33
   0   1  -2   53.78    1.89
   0   1  -2   53.00    1.68
   0  -1   2   54.97    1.90
  -1   1  -2  352.80   12.12
  -1   1  -2  332.86   11.51
  -1   1  -2  368.85   10.74
   1  -1   2  353.07   12.67
   1  -1   2  345.88   12.12
   1  -1   2  373.86   11.27
  -2   1  -2    4.16    0.17
  -2   1  -2    3.93    0.15
  -2   1  -2    3.89    0.20
   2  -1   2    3.92    0.17
   2  -1   2    3.82    0.18
  -3   1  -2  120.74    3.72
  -3   1  -2  120.65    3.89
  -3   1  -2  122.70    3.58
   3  -1   2  126.54    3.83
   3  -1   2  108.77    4.29
   3  -1   2  120.73    4.17
  -4   1  -2   74.07    2.16
  -4   1  -2   69.43    2.34
  -4   1  -2   67.06    2.49
   4  -1   2   73.40    2.53
   4  -1   2   76.05    2.33
   4  -1   2   71.00    2.88
   4  -1   2   70.34    2.59
  -5   1  -2   12.40    0.41
  -5   1  -2   12.54    0.45
   5  -1   2   12.28    0.50
   5  -1   2   11.96    0.51
   5  -1   2   12.06    0.48
  -6   1  -2    1.02    0.08
   6  -1   2    1.33    0.14
   6  -1   2    1.02    0.12
  -7   1  -2    1.75    0.11
  -7   1  -2    1.93    0.17
  -7   1  -2    1.59    0.09
   7  -1   2    1.74    0.11
   7  -1   2    1.18    0.15
   7  -1   2    1.68    0.16
   7  -1   2    1.68    0.10
  -8   1  -2  113.01    4.28
  -8   1  -2  125.37    3.47
   8  -1   2  114.64    3.37
   8  -1   2  117.23    2.87
  -9   1  -2   38.36    1.18
   9  -1   2   39.21    0.98
   9  -1   2   38.49    1.14
 -10   1  -2   17.77    0.55
  10  -1   2   17.02    0.45
  10   0  -2   14.32    0.39
   9   0  -2   71.67    1.77
   8   0  -2    1.46    0.14
   8   0  -2    1.42    0.14
   7   0  -2   82.38    2.69
   7   0  -2   82.32    3.00
   6   0  -2   30.36    1.07
   6   0  -2   33.95    1.24
   6   0  -2   34.47    1.22
   6   0  -2   33.92    1.12
   5   0  -2    0.79    0.08
   5   0  -2    0.77    0.08
   5   0  -2    0.84    0.07
   5   0  -2    0.67    0.07
   4   0  -2    0.82    0.06
   4   0  -2    0.81    0.06
   4   0  -2    0.72    0.06
   4   0  -2    0.86    0.08
  -4   0   2    0.73    0.07
   3   0  -2  141.10    4.70
   3   0  -2  135.35    4.36
   3   0  -2  132.74    4.22
   3   0  -2  141.31    6.22
   3   0  -2  136.56    4.95
   3   0  -2  137.74    4.89
  -3   0   2  139.38    4.15
   2   0  -2  412.96   14.47
   2   0  -2  413.99   14.86
   2   0  -2  428.30   13.42
   2   0  -2  424.39   13.02
  -2   0   2  424.42   12.72
  -2   0   2  435.14   19.02
   1   0  -2    8.80    0.43
   1   0  -2    8.70    0.29
   1   0  -2    9.17    0.34
   1   0  -2    9.27    0.34
  -1   0   2    8.89    0.34
  -1   0   2    8.95    0.28
   0   0  -2  132.64    4.73
   0   0  -2  139.65    4.17
   0   0   2  140.41    4.16
   0   0   2  138.51    4.74
  -1   0  -2   52.03    1.88
  -1   0  -2   56.15    1.66
   1   0   2   53.40    1.88
  -2   0  -2   76.99    2.40
  -2   0  -2   80.50    2.48
  -2   0  -2   81.16    2.61
   2   0   2   82.90    2.88
   2   0   2   79.22    2.57
   2   0   2   83.51    2.80
  -3   0  -2   10.95    0.39
  -3   0  -2   11.58    0.35
  -3   0  -2   10.91    0.42
   3   0   2   11.59    0.41
   3   0   2   10.89    0.43
   3   0   2   11.36    0.44
  -4   0  -2   28.93    1.09
  -4   0  -2   29.72    1.02
  -4   0  -2   32.24    0.94
   4   0   2   30.88    1.12
   4   0   2   31.28    1.13
   4   0   2   30.76    1.03
  -5   0  -2    7.01    0.30
  -5   0  -2    7.66    0.26
   5   0   2    7.16    0.33
   5   0   2    7.85    0.33
   5   0   2    7.52    0.32
  -6   0  -2    0.11    0.04
  -6   0  -2    0.11    0.03
   6   0   2    0.09    0.06
   6   0   2    0.08    0.06
  -7   0  -2   15.11    0.51
   7   0   2   15.56    0.65
   7   0   2   15.69    0.61
   8   0   2    5.23    0.18
   8   0   2    4.96    0.20
  -9   0  -2    1.42    0.08
   9   0   2    1.20    0.09
 -10   0  -2   33.93    1.03
  10   0   2   33.69    0.84
  11  -1  -2    0.94    0.07
  10  -1  -2   23.11    0.61
   9  -1  -2   78.31    1.96
   9  -1  -2   78.54    1.93
   8  -1  -2   64.04    2.11
   8  -1  -2   60.80    2.35
  -8   1   2   64.36    1.91
   7  -1  -2  105.16    3.92
   7  -1  -2  109.76    3.51
  -7   1   2  108.37    3.24
  -7   1   2  109.08    3.91
   6  -1  -2   26.99    0.95
   6  -1  -2   27.40    1.05
  -6   1   2   27.31    0.84
  -6   1   2   27.83    1.03
   5  -1  -2   46.21    1.67
   5  -1  -2   47.40    1.85
   5  -1  -2   44.14    1.50
   5  -1  -2   47.27    1.57
   5  -1  -2   43.81    1.62
  -5   1   2   43.92    1.37
   4  -1  -2  163.71    5.53
   4  -1  -2  161.85    5.73
   4  -1  -2  159.66    4.93
   4  -1  -2  168.31    5.11
   4  -1  -2  159.01    5.69
  -4   1   2  161.30    4.80
  -4   1   2  152.90    5.18
   3  -1  -2  175.74    6.38
   3  -1  -2  178.96    5.55
   3  -1  -2  172.50    6.46
   3  -1  -2  188.37    5.72
  -3   1   2  181.66    5.80
  -3   1   2  185.76    5.43
  -3   1   2  177.14    5.39
   2  -1  -2  484.02   17.12
   2  -1  -2  481.29   17.58
   2  -1  -2  498.67   15.38
   2  -1  -2  502.59   15.90
   2  -1  -2  519.46   17.21
   2  -1  -2  489.41   15.03
  -2   1   2  505.21   16.20
  -2   1   2  497.30   14.93
  -2   1   2  530.31   15.06
   1  -1  -2  123.92    3.69
   1  -1  -2  124.55    4.24
  -1   1   2  119.96    5.50
  -1   1   2  121.81    4.24
   0  -1  -2   51.63    2.43
   0  -1  -2   52.66    1.88
   0   1   2   52.69    1.88
   0   1   2   55.94    2.42
  -1  -1  -2  354.63   11.74
  -1  -1  -2  355.68   10.81
  -1  -1  -2  357.55   10.93
  -1  -1  -2  360.59   12.40
   1   1   2  371.31   12.97
   1   1   2  370.83   12.46
   1   1   2  364.44   16.26
  -2  -1  -2    3.93    0.14
  -2  -1  -2    3.89    0.18
  -2  -1  -2    4.24    0.16
   2   1   2    4.05    0.22
   2   1   2    4.15    0.18
   2   1   2    3.98    0.17
   2   1   2    3.91    0.27
  -3  -1  -2  126.19    3.66
  -3  -1  -2  117.09    3.76
  -3  -1  -2  118.16    3.96
   3   1   2  127.81    4.38
   3   1   2  117.61    3.90
   3   1   2  129.78    4.28
  -4  -1  -2   75.81    2.20
  -4  -1  -2   70.03    2.39
   4   1   2   75.34    2.65
   4   1   2   72.69    2.37
   4   1   2   74.09    2.60
  -5  -1  -2   12.43    0.48
  -5  -1  -2   12.60    0.40
   5   1   2   12.69    0.51
   5   1   2   12.32    0.47
   5   1   2   12.01    0.50
  -6  -1  -2    1.18    0.07
  -6  -1  -2    1.07    0.10
   6   1   2    0.98    0.10
  -7  -1  -2    1.59    0.09
  -7  -1  -2    1.56    0.12
   7   1   2    1.35    0.13
  -8  -1  -2  113.85    3.98
  -9  -1  -2   38.36    1.17
 -10  -1  -2   16.78    0.53
  11  -2  -2    1.85    0.09
  10  -2  -2    5.23    0.18
 -10   2   2    5.01    0.19
   9  -2  -2    7.47    0.25
   9  -2  -2    7.92    0.24
   8  -2  -2   21.40    0.65
   8  -2  -2   21.95    0.57
   8  -2  -2   20.65    0.61
   8  -2  -2   21.57    0.57
  -8   2   2   21.41    0.71
   7  -2  -2    9.66    0.42
  -7   2   2    9.47    0.35
  -7   2   2    9.54    0.44
   6  -2  -2   62.27    2.52
   6  -2  -2   62.73    2.04
  -6   2   2   60.28    2.27
  -6   2   2   61.66    1.89
   5  -2  -2   45.39    1.79
   5  -2  -2   43.63    1.59
   5  -2  -2   43.15    1.57
   5  -2  -2   43.67    1.45
  -5   2   2   41.54    1.61
  -5   2   2   42.85    1.45
  -5   2   2   45.22    1.35
   4  -2  -2   51.98    2.02
   4  -2  -2   51.31    1.81
   4  -2  -2   50.93    1.77
   4  -2  -2   48.04    1.62
  -4   2   2   47.36    1.81
  -4   2   2   51.01    1.52
  -4   2   2   46.33    1.64
   3  -2  -2  316.24   10.40
   3  -2  -2  312.24   11.23
   3  -2  -2  339.75   11.55
  -3   2   2  339.78   10.61
  -3   2   2  323.92    9.69
   2  -2  -2   84.50    2.64
   2  -2  -2   78.88    2.69
   2  -2  -2   82.01    2.95
  -2   2   2   82.50    2.55
  -2   2   2   82.59    2.70
  -2   2   2   86.14    2.49
   1  -2  -2  115.59    3.84
   1  -2  -2  122.97    4.17
   1  -2  -2  121.38    4.17
  -1   2   2  121.21    5.39
  -1   2   2  112.69    4.16
  -1   2   2  116.94    3.55
  -1   2   2  119.30    3.84
   0  -2  -2   11.65    0.42
   0  -2  -2   11.15    0.52
   0   2   2   12.17    0.53
   0   2   2   12.12    0.62
   0   2   2   11.69    0.42
  -1  -2  -2   34.92    1.15
  -1  -2  -2   35.28    1.06
   1   2   2   35.12    1.31
   1   2   2   33.38    1.27
   1   2   2   33.83    1.15
   1   2   2   34.72    1.65
  -2  -2  -2  121.42    3.85
  -2  -2  -2  129.69    4.07
  -2  -2  -2  121.55    3.75
   2   2   2  123.59    5.73
   2   2   2  133.06    4.50
   2   2   2  122.61    4.49
   2   2   2  127.26    4.42
  -3  -2  -2  121.44    4.02
  -3  -2  -2  125.42    3.71
   3   2   2  125.44    4.44
   3   2   2  124.75    4.37
   3   2   2  124.12    4.44
  -4  -2  -2    5.94    0.21
  -4  -2  -2    5.68    0.22
   4   2   2    5.74    0.27
   4   2   2    5.29    0.31
   4   2   2    5.84    0.26
  -5  -2  -2   11.14    0.38
   5   2   2   11.74    0.48
  -6  -2  -2    9.80    0.33
   6   2   2    9.30    0.42
  -7  -2  -2   40.17    1.24
  -7  -2  -2   42.12    1.49
   7   2   2   40.59    1.10
  -8  -2  -2    9.23    0.41
  -8  -2  -2   10.33    0.35
   8   2   2    9.91    0.31
  -9  -2  -2    0.76    0.07
   9   2   2    0.90    0.08
  10  -3  -2    1.19    0.08
 -10   3   2    1.29    0.08
 -10   3   2    1.18    0.05
   9  -3  -2    0.75    0.07
   9  -3  -2    0.60    0.06
   9  -3  -2    0.83    0.07
   9  -3  -2    0.80    0.07
  -9   3   2    0.77    0.07
   8  -3  -2   18.52    0.56
   8  -3  -2   18.38    0.50
   8  -3  -2   17.80    0.50
   8  -3  -2   18.14    0.53
  -8   3   2   18.99    0.60
   7  -3  -2   28.86    0.80
   7  -3  -2   28.55    0.76
   7  -3  -2   28.73    0.75
   7  -3  -2   29.11    0.72
   7  -3  -2   29.30    0.86
  -7   3   2   29.32    0.96
  -7   3   2   27.38    1.14
  -7   3   2   30.31    0.90
   6  -3  -2   25.77    0.95
   6  -3  -2   28.72    1.15
  -6   3   2   25.45    0.83
  -6   3   2   28.25    1.06
  -6   3   2   25.81    0.88
  -6   3   2   26.22    0.93
   5  -3  -2    3.78    0.22
   5  -3  -2    3.61    0.20
  -5   3   2    3.36    0.19
  -5   3   2    3.42    0.21
  -5   3   2    3.46    0.15
  -5   3   2    3.63    0.18
   4  -3  -2   50.79    2.16
   4  -3  -2   55.71    1.91
   4  -3  -2   53.57    2.00
  -4   3   2   53.67    1.64
  -4   3   2   52.83    1.78
  -4   3   2   51.25    1.95
   3  -3  -2    0.18    0.05
   3  -3  -2    0.14    0.10
   3  -3  -2    0.18    0.05
  -3   3   2    0.21    0.06
  -3   3   2    0.15    0.06
  -3   3   2    0.17    0.05
   2  -3  -2   83.17    3.19
   2  -3  -2   83.83    3.52
  -2   3   2   91.19    3.18
  -2   3   2   93.20    2.89
   1  -3  -2   41.11    1.39
  -1   3   2   43.21    1.40
  -1   3   2   40.26    1.53
   0  -3  -2   61.89    2.02
   0   3   2   60.98    2.21
   0   3   2   59.91    2.02
  -1  -3  -2   19.01    0.65
   1   3   2   17.89    0.70
   1   3   2   18.09    0.72
   1   3   2   17.98    0.81
  -2  -3  -2   31.31    1.00
  -2  -3  -2   33.30    1.08
   2   3   2   32.49    1.18
   2   3   2   29.97    1.28
   2   3   2   31.58    1.20
  -3  -3  -2   55.51    1.89
  -3  -3  -2   57.07    1.75
   3   3   2   56.69    2.16
   3   3   2   58.34    2.11
   3   3   2   58.96    2.09
  -4  -3  -2   17.73    0.59
  -4  -3  -2   17.77    0.58
  -4  -3  -2   17.93    0.63
   4   3   2   17.56    0.72
   4   3   2   18.72    0.70
  -5  -3  -2    6.62    0.25
  -5  -3  -2    6.34    0.25
   5   3   2    6.89    0.32
   5   3   2    6.56    0.31
  -6  -3  -2   15.54    0.53
  -6  -3  -2   15.94    0.53
   6   3   2   15.77    0.46
   6   3   2   15.62    0.41
  -7  -3  -2   14.39    0.48
  -7  -3  -2   13.85    0.57
   7   3   2   13.92    0.42
  -8  -3  -2    9.37    0.34
   8   3   2    9.59    0.30
  -9  -3  -2    2.52    0.12
  -9  -3  -2    2.49    0.09
   9   3   2    2.68    0.11
 -10   4   2   26.19    0.66
   9  -4  -2   31.35    0.81
   9  -4  -2   31.45    0.92
   9  -4  -2   31.58    0.85
  -9   4   2   32.21    0.81
  -9   4   2   31.63    0.97
   8  -4  -2    5.45    0.19
   8  -4  -2    5.48    0.20
   8  -4  -2    5.40    0.18
  -8   4   2    5.52    0.16
  -8   4   2    5.62    0.22
   7  -4  -2   18.24    0.46
   7  -4  -2   17.72    0.52
   7  -4  -2   18.09    0.49
   7  -4  -2   19.03    0.55
  -7   4   2   16.29    0.75
  -7   4   2   17.59    0.45
  -7   4   2   18.06    0.48
  -7   4   2   18.44    0.59
   6  -4  -2    2.59    0.12
   6  -4  -2    2.80    0.12
   6  -4  -2    2.96    0.14
   6  -4  -2    2.60    0.20
   6  -4  -2    2.61    0.10
   6  -4  -2    2.57    0.11
  -6   4   2    2.69    0.14
  -6   4   2    2.47    0.10
  -6   4   2    2.59    0.10
  -6   4   2    2.67    0.21
   5  -4  -2   30.22    1.31
  -5   4   2   31.43    1.21
  -5   4   2   30.71    1.09
  -5   4   2   30.63    0.96
   4  -4  -2   15.75    0.64
   4  -4  -2   16.41    0.71
  -4   4   2   15.07    0.66
  -4   4   2   16.26    0.62
   3  -4  -2   24.82    0.96
   3  -4  -2   24.52    1.08
  -3   4   2   25.26    0.91
  -3   4   2   25.65    0.99
  -2   4   2   41.75    1.44
  -2   4   2   42.19    1.58
   1  -4  -2   32.75    1.15
  -1   4   2   33.20    1.16
  -1   4   2   33.45    1.26
   0  -4  -2   23.07    0.82
   0   4   2   22.42    0.89
  -1  -4  -2   19.31    0.71
   1   4   2   19.53    0.79
   1   4   2   19.76    0.77
  -2  -4  -2   30.66    1.06
   2   4   2   31.16    1.16
   2   4   2   29.83    1.18
  -3  -4  -2    1.88    0.13
  -3  -4  -2    1.94    0.12
   3   4   2    2.15    0.15
   3   4   2    2.04    0.16
  -4  -4  -2   92.93    2.90
  -4  -4  -2   93.59    3.12
  -4  -4  -2   91.01    2.84
   4   4   2   98.11    3.45
   4   4   2   96.01    2.28
   4   4   2   99.48    3.47
  -5  -4  -2    3.36    0.16
  -5  -4  -2    3.01    0.11
   5   4   2    3.18    0.19
   5   4   2    3.21    0.11
   5   4   2    3.01    0.12
   5   4   2    3.17    0.14
  -6  -4  -2   52.04    1.58
  -6  -4  -2   51.04    1.32
   6   4   2   52.16    1.26
   6   4   2   52.18    1.38
  -7  -4  -2    0.58    0.05
  -7  -4  -2    0.81    0.08
   7   4   2    0.59    0.07
   7   4   2    0.63    0.05
  -8  -4  -2    0.87    0.05
   8   4   2    0.77    0.07
  -9  -4  -2    7.43    0.20
   9   4   2    7.13    0.21
   8  -5  -2    7.41    0.22
   8  -5  -2    7.71    0.24
   8  -5  -2    7.63    0.24
  -8   5   2    7.73    0.21
  -8   5   2    7.76    0.20
   7  -5  -2   35.06    0.94
   7  -5  -2   34.85    1.01
   7  -5  -2   33.97    0.88
   7  -5  -2   33.91    0.86
  -7   5   2   34.22    0.88
  -7   5   2   34.76    0.83
   6  -5  -2   26.14    0.74
   6  -5  -2   27.49    0.75
   6  -5  -2   26.18    0.80
   6  -5  -2   26.94    0.69
  -6   5   2   26.94    0.66
  -6   5   2   27.31    0.69
   5  -5  -2   18.95    0.55
   5  -5  -2   19.60    0.51
   5  -5  -2   19.77    0.55
   5  -5  -2   19.74    0.59
  -5   5   2   18.07    0.79
  -5   5   2   18.76    0.50
  -5   5   2   18.68    0.48
   4  -5  -2   47.81    1.25
   4  -5  -2   49.05    1.42
   4  -5  -2   49.36    1.34
   4  -5  -2   50.08    1.32
  -4   5   2   46.85    1.84
  -4   5   2   48.90    1.17
   3  -5  -2   13.87    0.45
   3  -5  -2   14.00    0.42
   3  -5  -2   13.41    0.42
  -3   5   2   14.47    0.37
  -3   5   2   14.21    0.61
   2  -5  -2   11.76    0.37
   2  -5  -2   11.57    0.36
   2  -5  -2   12.32    0.39
  -2   5   2   11.91    0.32
  -2   5   2   11.58    0.49
  -2   5   2   11.65    0.53
   1  -5  -2    2.53    0.18
   1  -5  -2    2.61    0.13
  -1   5   2    2.77    0.20
   0  -5  -2   22.56    0.82
   0  -5  -2   22.11    0.69
   0  -5  -2   23.45    0.57
   0   5   2   22.16    0.89
   0   5   2   21.17    0.65
  -1  -5  -2   20.77    0.52
  -1  -5  -2   20.56    0.76
  -1  -5  -2   20.17    0.64
   1   5   2   20.10    0.81
   1   5   2   20.29    0.60
  -2  -5  -2    7.78    0.28
  -2  -5  -2    7.09    0.22
   2   5   2    7.51    0.35
   2   5   2    7.52    0.24
   2   5   2    7.43    0.23
   2   5   2    7.73    0.25
  -3  -5  -2   25.22    0.66
  -3  -5  -2   25.75    0.64
  -3  -5  -2   25.29    0.79
   3   5   2   25.29    0.67
   3   5   2   25.68    0.65
   3   5   2   25.19    0.98
   3   5   2   25.56    0.72
  -4  -5  -2    3.98    0.13
  -4  -5  -2    4.24    0.14
  -4  -5  -2    4.18    0.19
  -4  -5  -2    4.09    0.19
   4   5   2    4.11    0.15
   4   5   2    4.27    0.15
   4   5   2    3.89    0.14
   4   5   2    4.15    0.22
  -5  -5  -2    4.77    0.15
  -5  -5  -2    4.05    0.19
  -5  -5  -2    4.57    0.20
  -5  -5  -2    4.59    0.15
   5   5   2    4.82    0.16
   5   5   2    4.71    0.13
  -6  -5  -2    2.78    0.10
  -6  -5  -2    2.73    0.14
  -6  -5  -2    2.51    0.13
   6   5   2    2.68    0.10
   6   5   2    2.53    0.11
  -7  -5  -2    0.42    0.03
  -7  -5  -2    0.37    0.05
   7   5   2    0.31    0.03
   7   5   2    0.37    0.04
   7  -6  -2    9.48    0.30
  -7   6   2   10.35    0.25
   6  -6  -2    6.21    0.16
   6  -6  -2    5.86    0.20
   6  -6  -2    5.76    0.18
  -6   6   2    6.24    0.17
   5  -6  -2    9.76    0.29
   5  -6  -2    9.62    0.27
   5  -6  -2    9.92    0.31
  -5   6   2    9.61    0.26
   4  -6  -2    3.45    0.13
   4  -6  -2    3.52    0.14
   4  -6  -2    3.73    0.14
  -4   6   2    3.68    0.12
   3  -6  -2   26.22    0.75
   3  -6  -2   27.27    0.80
  -3   6   2   26.13    0.65
   2  -6  -2    2.70    0.13
   2  -6  -2    2.60    0.12
  -2   6   2    2.52    0.10
  -2   6   2    2.41    0.12
   1  -6  -2    0.44    0.06
   1  -6  -2    0.47    0.06
  -1   6   2    0.44    0.06
   0  -6  -2    9.70    0.26
   0  -6  -2    9.83    0.33
   0   6   2    9.27    0.31
  -1  -6  -2    8.70    0.30
  -1  -6  -2    8.73    0.24
   1   6   2    8.47    0.28
  -2  -6  -2   53.25    1.26
  -2  -6  -2   51.04    1.54
   2   6   2   51.33    1.27
   2   6   2   53.10    1.34
   2   6   2   54.65    1.44
  -3  -6  -2    5.65    0.16
  -3  -6  -2    4.99    0.20
   3   6   2    5.29    0.16
   3   6   2    5.37    0.18
   3   6   2    5.22    0.16
  -4  -6  -2    1.89    0.08
  -4  -6  -2    1.57    0.10
   4   6   2    1.73    0.08
   4   6   2    1.86    0.06
  -5  -6  -2    6.75    0.19
  -5  -6  -2    6.89    0.24
   5   6   2    7.21    0.19
   6   6   2    9.34    0.24
   4  -7  -2    5.49    0.17
   4  -7  -2    5.58    0.18
   4  -7  -2    5.89    0.16
   3  -7  -2    9.14    0.26
   3  -7  -2    9.74    0.29
   3  -7  -2    9.63    0.28
   2  -7  -2    5.57    0.18
   2  -7  -2    6.05    0.19
  -2   7   2    5.36    0.18
   1  -7  -2    6.71    0.21
   1  -7  -2    7.07    0.22
  -1   7   2    6.67    0.21
   0  -7  -2    6.41    0.22
   0   7   2    6.60    0.20
  -1  -7  -2   24.56    0.59
  -1  -7  -2   24.66    0.72
   1   7   2   23.64    0.63
   1   7   2   25.01    0.67
  -2  -7  -2    2.82    0.11
  -2  -7  -2    3.01    0.09
   2   7   2    2.97    0.10
   2   7   2    3.00    0.09
  -3  -7  -2    5.08    0.14
  -4  -7   3    2.48    0.08
  -4  -7   3    2.46    0.08
   3   7  -3    4.11    0.11
   3   7  -3    3.86    0.12
  -3  -7   3    4.15    0.11
  -3  -7   3    4.18    0.11
   2   7  -3   12.88    0.36
   2   7  -3   12.79    0.35
   2   7  -3   13.27    0.33
  -2  -7   3   12.62    0.32
  -2  -7   3   12.91    0.32
   1   7  -3    7.80    0.22
   1   7  -3    7.86    0.23
   1   7  -3    7.37    0.21
  -1  -7   3    7.72    0.20
   0   7  -3    0.95    0.05
  -1   7  -3    5.64    0.17
   1  -7   3    5.11    0.17
   2  -7   3    7.97    0.23
   7   6  -3    5.61    0.15
  -7  -6   3    5.52    0.15
   6   6  -3   12.73    0.33
  -6  -6   3   12.60    0.32
  -6  -6   3   13.66    0.34
   5   6  -3    1.91    0.08
  -5  -6   3    2.09    0.07
  -5  -6   3    2.00    0.07
   4   6  -3   13.16    0.33
   4   6  -3   12.62    0.36
  -4  -6   3   12.38    0.33
  -4  -6   3   12.39    0.32
   3   6  -3    4.26    0.13
   3   6  -3    4.34    0.15
   3   6  -3    4.39    0.15
  -3  -6   3    4.28    0.13
   2   6  -3   22.65    0.63
   2   6  -3   22.98    0.59
  -2  -6   3   22.23    0.56
   1   6  -3    3.29    0.13
  -1  -6   3    3.38    0.11
   0   6  -3   25.16    0.71
   0  -6   3   25.80    0.62
  -1   6  -3   30.01    0.84
   1  -6   3   30.52    0.84
  -2   6  -3   24.27    0.68
  -2   6  -3   23.34    0.58
   2  -6   3   24.43    0.67
  -3   6  -3    7.32    0.20
   3  -6   3    7.54    0.23
   3  -6   3    7.14    0.24
  -4   6  -3   11.51    0.28
   4  -6   3   11.04    0.30
   4  -6   3   11.64    0.33
   4  -6   3   10.72    0.34
  -5   6  -3    6.08    0.16
   5  -6   3    5.99    0.18
   5  -6   3    6.03    0.16
   5  -6   3    5.67    0.19
  -9  -5   3    1.40    0.05
   8   5  -3    5.02    0.14
   8   5  -3    4.79    0.16
  -8  -5   3    4.82    0.14
  -8  -5   3    4.61    0.19
   7   5  -3    6.87    0.22
   7   5  -3    7.15    0.20
  -7  -5   3    7.01    0.20
  -7  -5   3    7.36    0.27
   6   5  -3   30.47    0.77
  -6  -5   3   32.67    0.98
  -6  -5   3   30.96    0.81
   5   5  -3   34.86    0.88
   5   5  -3   35.35    0.87
  -5  -5   3   34.83    0.90
  -5  -5   3   35.54    0.85
  -5  -5   3   35.09    1.09
   4   5  -3   52.69    1.38
   4   5  -3   51.78    1.41
   4   5  -3   51.01    1.31
   4   5  -3   52.26    1.26
  -4  -5   3   52.74    1.59
  -4  -5   3   52.20    1.32
  -4  -5   3   52.58    1.24
   3   5  -3   27.49    0.72
   3   5  -3   28.64    0.78
   3   5  -3   27.97    1.07
  -3  -5   3   27.28    0.68
  -3  -5   3   27.75    0.72
   2   5  -3   25.53    0.70
   2   5  -3   24.46    0.97
  -2  -5   3   24.63    0.61
  -2  -5   3   24.66    0.64
  -2  -5   3   24.41    0.93
   1   5  -3   36.35    0.99
   1   5  -3   33.74    1.37
  -1  -5   3   36.63    1.29
  -1  -5   3   36.79    0.87
   0   5  -3   63.81    2.29
   0   5  -3   59.97    1.67
   0  -5   3   59.38    2.11
   0  -5   3   62.83    1.46
  -1   5  -3    3.05    0.13
  -1   5  -3    3.04    0.22
  -1   5  -3    3.14    0.11
   1  -5   3    2.94    0.13
  -2   5  -3   10.43    0.28
  -2   5  -3   10.79    0.50
   2  -5   3   11.13    0.35
   2  -5   3    9.80    0.52
   2  -5   3   10.54    0.33
  -3   5  -3   31.67    1.24
   3  -5   3   31.30    0.93
   3  -5   3   30.84    0.87
   3  -5   3   31.81    1.35
  -4   5  -3    6.64    0.19
   4  -5   3    6.63    0.20
   4  -5   3    6.71    0.21
   4  -5   3    5.88    0.35
   4  -5   3    6.64    0.22
  -5   5  -3    1.81    0.07
   5  -5   3    1.67    0.08
   5  -5   3    1.65    0.08
   5  -5   3    1.66    0.07
  -6   5  -3    5.80    0.16
   6  -5   3    5.73    0.20
   6  -5   3    6.31    0.16
  -7   5  -3   16.24    0.39
   7  -5   3   15.70    0.47
  10   4  -3    6.26    0.19
   9   4  -3    3.51    0.11
   9   4  -3    3.49    0.13
  -9  -4   3    3.14    0.14
   8   4  -3    4.22    0.14
   8   4  -3    4.09    0.16
  -8  -4   3    4.14    0.18
   7   4  -3   17.39    0.46
   7   4  -3   17.95    0.51
  -7  -4   3   17.66    0.58
   6   4  -3   19.27    0.56
   6   4  -3   19.48    0.51
  -6  -4   3   20.82    0.65
   5   4  -3   56.63    1.35
  -5  -4   3   54.38    1.74
  -5  -4   3   55.87    1.68
  -4  -4   3   40.63    1.25
  -4  -4   3   41.06    1.31
  -4  -4   3   41.13    1.41
   3   4  -3   29.75    1.09
   3   4  -3   29.44    1.12
  -3  -4   3   29.72    1.05
  -3  -4   3   28.78    0.91
   2   4  -3    9.14    0.41
   2   4  -3    9.18    0.40
  -2  -4   3    9.32    0.33
  -2  -4   3   10.13    0.41
   1   4  -3    9.13    0.42
   1   4  -3    9.71    0.40
  -1  -4   3    9.58    0.41
   0   4  -3   11.25    0.49
   0  -4   3   11.72    0.48
   0  -4   3   11.19    0.53
  -1   4  -3   12.79    0.56
  -1   4  -3   13.51    0.54
   1  -4   3   12.69    0.60
   1  -4   3   12.75    0.53
  -2   4  -3    3.62    0.23
  -2   4  -3    3.56    0.23
   2  -4   3    3.42    0.23
  -3   4  -3   63.56    2.22
  -3   4  -3   65.19    2.42
   3  -4   3   65.68    2.67
  -4   4  -3   76.93    2.73
  -4   4  -3   78.25    1.89
  -4   4  -3   82.48    2.02
  -4   4  -3   86.85    2.99
   4  -4   3   81.67    3.29
   4  -4   3   80.43    2.16
   4  -4   3   80.52    2.31
   4  -4   3   75.41    2.01
  -5   4  -3   25.60    0.63
  -5   4  -3   25.46    1.05
  -5   4  -3   25.45    0.66
   5  -4   3   25.44    0.76
   5  -4   3   25.56    0.66
   5  -4   3   25.65    1.12
   5  -4   3   25.57    0.71
  -6   4  -3    8.71    0.23
  -6   4  -3    8.78    0.24
   6  -4   3    8.38    0.26
   6  -4   3    8.86    0.24
   6  -4   3    8.83    0.29
  -7   4  -3    9.22    0.25
  -7   4  -3    9.08    0.24
   7  -4   3    9.24    0.29
  -8   4  -3    0.72    0.04
  -8   4  -3    0.82    0.04
   8  -4   3    0.89    0.06
  11   3  -3    6.32    0.19
  10   3  -3    3.20    0.13
   9   3  -3    4.18    0.13
   9   3  -3    4.39    0.17
   8   3  -3    9.12    0.26
   8   3  -3    9.36    0.30
   7   3  -3   20.09    0.56
   7   3  -3   20.05    0.51
  -7  -3   3   19.31    0.65
   6   3  -3    7.86    0.35
  -6  -3   3    7.91    0.30
   5   3  -3   35.32    1.19
  -5  -3   3   36.36    1.13
   4   3  -3   10.61    0.49
   4   3  -3   12.67    0.47
   4   3  -3   11.03    0.43
  -4  -3   3   11.49    0.44
  -4  -3   3   11.33    0.40
   3   3  -3   46.79    1.71
   3   3  -3   47.54    1.65
   3   3  -3   44.34    1.69
   3   3  -3   46.70    1.48
  -3  -3   3   46.94    1.44
  -3  -3   3   46.01    1.56
   2   3  -3   64.34    2.22
   2   3  -3   63.66    2.30
   2   3  -3   58.63    1.99
   2   3  -3   62.34    2.29
  -2  -3   3   67.16    2.11
  -2  -3   3   62.82    1.93
   1   3  -3   10.17    0.41
   1   3  -3   10.30    0.43
   1   3  -3   10.78    0.50
  -1  -3   3   11.00    0.42
  -1  -3   3    9.96    0.47
   0   3  -3    3.19    0.16
   0   3  -3    3.05    0.18
   0   3  -3    3.05    0.18
   0  -3   3    3.51    0.19
   0  -3   3    3.23    0.19
  -1   3  -3   41.01    1.51
  -1   3  -3   38.82    1.44
  -1   3  -3   42.13    1.39
   1  -3   3   38.99    1.67
   1  -3   3   41.40    1.39
  -2   3  -3   10.76    0.46
  -2   3  -3   10.64    0.44
   2  -3   3   10.52    0.50
  -3   3  -3    0.56    0.11
  -3   3  -3    0.40    0.09
   3  -3   3    0.36    0.08
   3  -3   3    0.63    0.14
  -4   3  -3  204.16    6.30
  -4   3  -3  221.08    7.73
  -4   3  -3  210.37    7.02
   4  -3   3  225.29    8.61
  -5   3  -3   94.08    2.95
  -5   3  -3   99.77    3.31
  -5   3  -3   99.03    3.65
   5  -3   3  105.20    4.04
  -6   3  -3  109.00    2.59
  -6   3  -3  112.09    2.78
  -6   3  -3  109.07    3.29
  -6   3  -3  111.89    4.07
   6  -3   3  109.88    2.75
   6  -3   3  110.55    2.70
   6  -3   3  111.69    4.49
   6  -3   3  113.22    3.18
  -7   3  -3   22.09    0.54
  -7   3  -3   22.92    0.71
  -7   3  -3   21.77    0.91
  -7   3  -3   21.60    0.57
   7  -3   3   20.53    0.97
   7  -3   3   21.96    0.58
   7  -3   3   22.37    0.66
  -8   3  -3    3.92    0.17
  -8   3  -3    3.99    0.12
   8  -3   3    3.83    0.14
   8  -3   3    3.73    0.15
  -9   3  -3    0.81    0.04
   9  -3   3    0.86    0.06
   9  -3   3    0.79    0.06
  10   2  -3   27.92    0.76
   9   2  -3    2.78    0.13
   8   2  -3    3.41    0.15
  -8  -2   3    3.45    0.13
   7   2  -3   16.51    0.60
   7   2  -3   15.40    0.67
  -7  -2   3   16.33    0.52
   6   2  -3   17.45    0.61
   6   2  -3   16.80    0.70
  -6  -2   3   17.14    0.55
   5   2  -3  156.93    5.62
   5   2  -3  159.10    4.92
  -5  -2   3  160.82    4.74
   4   2  -3    4.37    0.23
   4   2  -3    4.63    0.22
   4   2  -3    5.22    0.22
   4   2  -3    4.62    0.21
  -4  -2   3    4.85    0.18
  -4  -2   3    4.49    0.19
   3   2  -3   25.86    0.89
   3   2  -3   27.08    0.99
   3   2  -3   28.17    1.03
   3   2  -3   29.16    1.02
   3   2  -3   30.08    1.43
  -3  -2   3   28.16    0.86
  -3  -2   3   25.59    0.93
   2   2  -3   38.44    1.41
   2   2  -3   40.13    1.96
   2   2  -3   39.68    1.45
   2   2  -3   40.11    1.26
   2   2  -3   40.49    1.45
  -2  -2   3   39.44    1.22
  -2  -2   3   40.06    1.33
   1   2  -3   34.25    1.25
   1   2  -3   32.50    1.14
   1   2  -3   33.21    1.14
   1   2  -3   35.31    1.07
  -1  -2   3   35.36    1.14
  -1  -2   3   32.89    1.05
   0   2  -3   97.00    3.16
   0   2  -3  102.18    3.55
   0   2  -3   99.06    3.30
   0  -2   3  102.29    3.30
   0  -2   3  105.28    3.22
  -1   2  -3  101.58    3.28
  -1   2  -3  108.19    3.42
   1  -2   3   95.49    4.20
   1  -2   3  111.11    3.34
   1  -2   3  106.99    3.69
   1  -2   3  105.59    3.42
  -2   2  -3   62.73    2.21
  -2   2  -3   63.12    1.93
  -2   2  -3   58.60    2.29
  -2   2  -3   69.10    2.10
   2  -2   3   63.80    2.28
   2  -2   3   59.59    2.56
   2  -2   3   65.77    2.05
  -3   2  -3   24.03    0.77
  -3   2  -3   22.52    0.86
  -3   2  -3   23.50    0.91
  -3   2  -3   25.00    0.84
   3  -2   3   23.58    1.01
   3  -2   3   23.28    0.94
   3  -2   3   23.83    0.82
  -4   2  -3   13.75    0.53
  -4   2  -3   14.55    0.49
  -4   2  -3   14.73    0.59
   4  -2   3   14.04    0.62
   4  -2   3   13.68    0.63
   4  -2   3   13.84    0.53
   4  -2   3   13.66    0.58
  -5   2  -3    9.40    0.39
  -5   2  -3    9.13    0.36
  -5   2  -3    9.46    0.32
  -5   2  -3    9.68    0.44
   5  -2   3    8.99    0.43
   5  -2   3    9.15    0.40
   5  -2   3    9.58    0.46
  -6   2  -3   78.59    2.77
  -6   2  -3   85.31    3.05
  -6   2  -3   78.78    2.46
  -6   2  -3   83.45    2.55
   6  -2   3   81.60    2.04
   6  -2   3   90.26    2.39
   6  -2   3   81.14    2.73
  -7   2  -3    2.40    0.13
  -7   2  -3    2.26    0.08
  -7   2  -3    2.24    0.19
   7  -2   3    2.40    0.12
   7  -2   3    2.39    0.11
  -8   2  -3   51.82    1.54
  -8   2  -3   51.45    1.29
   8  -2   3   50.80    1.27
   8  -2   3   49.86    1.48
  -9   2  -3   14.05    0.47
  -9   2  -3   14.61    0.38
   9  -2   3   14.16    0.44
   9  -2   3   14.75    0.39
 -10   2  -3    1.23    0.05
  10  -2   3    1.10    0.06
   7   1  -3   41.12    1.32
   7   1  -3   39.22    1.50
   6   1  -3    3.53    0.18
   6   1  -3    3.30    0.19
  -6  -1   3    3.52    0.12
   5   1  -3   10.38    0.37
   5   1  -3    9.90    0.37
  -5  -1   3    9.75    0.31
   4   1  -3   28.47    0.96
   4   1  -3   25.88    1.29
   4   1  -3   26.30    0.91
   4   1  -3   25.51    0.92
   4   1  -3   25.43    0.86
   4   1  -3   28.13    0.84
  -4  -1   3   22.91    0.86
  -4  -1   3   25.16    0.78
   3   1  -3   42.73    1.44
   3   1  -3   41.71    1.29
   3   1  -3   41.43    1.47
   3   1  -3   39.15    1.94
   3   1  -3   40.82    1.32
  -3  -1   3   39.96    1.34
  -3  -1   3   41.30    1.23
   2   1  -3  220.52    8.26
   2   1  -3  237.66    7.19
   2   1  -3  238.08   10.56
   2   1  -3  246.22    8.01
  -2  -1   3  221.67    7.00
  -2  -1   3  240.25    7.62
   1   1  -3  541.76   16.37
   1   1  -3  545.18   18.57
   1   1  -3  548.68   19.06
   1   1  -3  587.47   16.67
  -1  -1   3  536.80   18.56
  -1  -1   3  505.63   16.16
  -1  -1   3  530.58   17.57
   0   1  -3  467.34   15.66
   0   1  -3  469.33   13.79
   0  -1   3  432.96   14.77
   0  -1   3  454.57   15.65
  -1   1  -3   74.40    2.28
  -1   1  -3   75.09    2.57
  -1   1  -3   78.77    2.39
  -1   1  -3   68.99    2.19
   1  -1   3   70.91    2.61
   1  -1   3   76.69    2.57
   1  -1   3   71.13    2.38
   1  -1   3   69.55    2.34
  -2   1  -3    6.77    0.25
  -2   1  -3    7.30    0.28
  -2   1  -3    7.41    0.33
   2  -1   3    7.26    0.33
   2  -1   3    6.98    0.29
   2  -1   3    7.30    0.28
  -3   1  -3   44.66    1.34
  -3   1  -3   45.31    1.54
  -3   1  -3   41.57    1.45
   3  -1   3   44.24    1.44
   3  -1   3   45.76    1.60
   3  -1   3   42.69    1.78
   3  -1   3   41.97    1.60
  -4   1  -3    1.58    0.11
  -4   1  -3    1.72    0.10
   4  -1   3    1.78    0.15
   4  -1   3    1.58    0.13
   4  -1   3    1.72    0.12
  -5   1  -3   37.47    1.40
  -5   1  -3   40.83    1.33
  -5   1  -3   40.32    1.22
   5  -1   3   39.47    1.47
   5  -1   3   37.92    1.33
  -6   1  -3   82.79    2.47
  -6   1  -3   84.26    2.54
   6  -1   3   82.69    2.74
   6  -1   3   83.36    3.05
  -7   1  -3    3.49    0.15
  -7   1  -3    3.59    0.23
   7  -1   3    3.02    0.14
   7  -1   3    3.25    0.14
  -8   1  -3   28.80    0.91
  -8   1  -3   30.41    1.16
   8  -1   3   28.80    0.76
   8  -1   3   29.79    0.88
  -9   1  -3   40.18    1.04
  -9   1  -3   42.62    1.25
   9  -1   3   42.34    1.03
   9  -1   3   39.54    1.20
 -10   1  -3    4.49    0.13
  10  -1   3    4.29    0.14
  10   0  -3    1.32    0.09
   9   0  -3  109.88    2.68
   8   0  -3   86.54    2.77
   8   0  -3   82.20    3.10
   7   0  -3   92.94    2.96
   7   0  -3   90.75    3.30
   7   0  -3   89.88    3.25
   6   0  -3    1.39    0.10
   6   0  -3    1.29    0.10
   6   0  -3    1.30    0.11
   6   0  -3    1.42    0.11
   5   0  -3    9.58    0.36
   5   0  -3    9.02    0.36
   5   0  -3    8.81    0.32
   5   0  -3    9.09    0.34
  -5   0   3    8.20    0.27
   4   0  -3   31.15    1.03
   4   0  -3   32.30    0.99
   4   0  -3   30.07    1.13
   4   0  -3   33.11    1.12
  -4   0   3   28.83    0.93
   3   0  -3  161.02    4.93
   3   0  -3  165.68    7.15
   3   0  -3  169.93    5.63
   3   0  -3  166.25    5.45
   3   0  -3  146.07    5.65
   3   0  -3  156.00    5.03
  -3   0   3  155.75    5.14
  -3   0   3  150.00    4.79
  -3   0   3  143.03    7.16
  -3   0   3  166.68    4.78
  -3   0   3  167.35    4.74
   2   0  -3  842.79   28.85
   2   0  -3  844.55   25.87
   1   0  -3 1000.00   30.43
  -1   0   3  987.72   33.98
  -1   0  -3   14.27    0.48
  -1   0  -3   13.49    0.44
  -1   0  -3   14.81    0.49
  -1   0  -3   13.62    0.55
   1   0   3   14.71    0.55
   1   0   3   13.91    0.52
  -2   0  -3  581.50   18.17
  -2   0  -3  605.38   19.76
  -2   0  -3  615.96   18.36
   2   0   3  612.21   20.97
   2   0   3  611.78   21.74
   2   0   3  634.05   19.40
  -3   0  -3   23.37    0.83
  -3   0  -3   22.69    0.78
  -3   0  -3   23.82    0.72
   3   0   3   23.28    0.86
   3   0   3   22.45    0.79
   3   0   3   23.27    0.88
  -4   0  -3  126.21    4.18
  -4   0  -3  130.44    3.84
  -4   0  -3  127.10    4.46
   4   0   3  128.28    4.61
   4   0   3  128.21    4.12
   4   0   3  133.04    4.49
  -5   0  -3    0.14    0.04
  -5   0  -3    0.02    0.03
  -5   0  -3    0.09    0.04
   5   0   3    0.06    0.05
   5   0   3    0.05    0.06
  -6   0  -3    1.52    0.09
  -6   0  -3    1.40    0.08
  -6   0  -3    1.60    0.12
   6   0   3    1.42    0.14
   6   0   3    1.47    0.13
  -7   0  -3    0.15    0.06
  -7   0  -3    0.30    0.05
  -7   0  -3    0.18    0.04
   7   0   3    0.20    0.05
   7   0   3    0.33    0.06
  -8   0  -3    1.94    0.11
   8   0   3    1.92    0.11
  -9   0  -3   65.76    1.94
   9   0   3   63.97    1.59
 -10   0  -3    1.39    0.05
  11  -1  -3    4.42    0.15
  10  -1  -3    6.05    0.20
   9  -1  -3    2.81    0.12
   9  -1  -3    2.77    0.13
   8  -1  -3   41.37    1.42
  -8   1   3   40.90    1.26
   7  -1  -3   38.60    1.52
   7  -1  -3   41.01    1.38
  -7   1   3   41.39    1.23
   6  -1  -3    3.38    0.17
   6  -1  -3    3.45    0.18
   6  -1  -3    3.08    0.19
  -6   1   3    3.01    0.13
   5  -1  -3   10.39    0.39
   5  -1  -3    9.77    0.38
   5  -1  -3    9.57    0.41
   5  -1  -3    9.87    0.38
   5  -1  -3    9.22    0.34
  -5   1   3   10.33    0.32
   4  -1  -3   27.62    0.95
   4  -1  -3   26.72    0.97
   4  -1  -3   26.07    0.88
   4  -1  -3   25.61    0.83
  -4   1   3   25.67    0.80
  -4   1   3   25.22    0.87
   3  -1  -3   42.16    1.45
   3  -1  -3   40.11    1.27
   3  -1  -3   40.24    1.32
   3  -1  -3   42.77    1.48
  -3   1   3   39.20    1.23
  -3   1   3   39.93    1.23
  -3   1   3   40.65    1.33
   2  -1  -3  236.92    8.60
   2  -1  -3  258.82    7.84
   2  -1  -3  248.67    8.39
   2  -1  -3  241.53    7.55
  -2   1   3  243.77    7.91
  -2   1   3  235.61    7.25
   1  -1  -3  571.86   19.02
   1  -1  -3  534.15   16.24
   1  -1  -3  537.61   18.53
  -1   1   3  537.65   17.51
  -1   1   3  523.50   18.48
   0  -1  -3  452.26   14.91
   0  -1  -3  477.41   13.89
   0  -1  -3  449.52   20.69
   0  -1  -3  460.78   15.77
   0   1   3  449.94   14.91
   0   1   3  464.77   16.46
   0   1   3  472.80   15.79
  -1  -1  -3   76.64    2.28
  -1  -1  -3   76.63    2.48
  -1  -1  -3   77.17    2.34
   1   1   3   76.86    2.73
   1   1   3   71.77    2.47
   1   1   3   79.55    2.70
  -2  -1  -3    6.95    0.24
  -2  -1  -3    7.02    0.26
  -2  -1  -3    7.00    0.29
   2   1   3    6.86    0.29
   2   1   3    7.24    0.27
   2   1   3    7.60    0.35
  -3  -1  -3   43.79    1.53
  -3  -1  -3   46.12    1.64
  -3  -1  -3   48.92    1.41
   3   1   3   46.73    1.71
   3   1   3   47.86    1.53
   3   1   3   46.52    1.70
  -4  -1  -3    1.64    0.09
  -4  -1  -3    1.76    0.09
  -4  -1  -3    1.55    0.11
   4   1   3    1.62    0.12
   4   1   3    1.74    0.12
   4   1   3    1.56    0.15
  -5  -1  -3   38.75    1.29
  -5  -1  -3   40.40    1.20
  -5  -1  -3   38.97    1.40
   5   1   3   37.75    1.31
   5   1   3   38.77    1.45
  -6  -1  -3   87.73    3.00
  -6  -1  -3   86.86    2.57
  -6  -1  -3   82.01    2.52
   6   1   3   84.49    3.10
  -7  -1  -3    3.23    0.15
  -7  -1  -3    3.20    0.19
   7   1   3    3.46    0.15
  -8  -1  -3   27.07    1.05
  -8  -1  -3   29.65    0.89
  -9  -1  -3   42.11    1.28
 -10  -1  -3    4.30    0.12
  11  -2  -3    1.41    0.08
  10  -2  -3   27.82    0.70
  10  -2  -3   27.57    0.70
 -10   2   3   25.51    0.83
   9  -2  -3    2.84    0.13
   9  -2  -3    2.58    0.11
   9  -2  -3    2.63    0.13
   8  -2  -3    3.35    0.15
   8  -2  -3    3.40    0.13
   8  -2  -3    3.21    0.14
  -8   2   3    3.65    0.17
   7  -2  -3   16.09    0.63
  -7   2   3   16.55    0.55
   6  -2  -3   17.77    0.66
   6  -2  -3   17.76    0.68
  -6   2   3   17.64    0.59
   5  -2  -3  151.67    5.48
   5  -2  -3  157.09    5.02
   5  -2  -3  162.68    5.54
  -5   2   3  156.16    5.10
  -5   2   3  159.60    4.71
   4  -2  -3    5.13    0.22
   4  -2  -3    4.78    0.21
   4  -2  -3    4.89    0.24
   4  -2  -3    5.09    0.29
  -4   2   3    4.37    0.19
  -4   2   3    4.38    0.20
   3  -2  -3   28.22    1.10
   3  -2  -3   28.58    0.94
   3  -2  -3   28.06    0.89
   3  -2  -3   27.90    1.02
  -3   2   3   27.99    0.95
  -3   2   3   27.67    0.88
  -3   2   3   28.13    0.88
   2  -2  -3   38.81    1.32
   2  -2  -3   40.56    1.30
   2  -2  -3   38.84    1.44
   2  -2  -3   39.96    1.51
  -2   2   3   40.19    1.33
  -2   2   3   40.66    1.23
   1  -2  -3   34.46    1.16
   1  -2  -3   36.01    1.34
  -1   2   3   34.76    1.17
   0  -2  -3  103.88    3.34
   0   2   3  102.25    3.65
   0   2   3  102.44    3.34
  -1  -2  -3  103.08    3.25
  -1  -2  -3  102.40    3.17
  -1  -2  -3  113.11    3.44
   1   2   3  102.37    4.83
   1   2   3  105.39    3.44
   1   2   3  108.36    3.80
   1   2   3  107.39    3.77
  -2  -2  -3   67.56    2.18
  -2  -2  -3   68.26    2.01
   2   2   3   66.37    2.40
   2   2   3   68.79    2.41
   2   2   3   62.31    3.09
   2   2   3   65.65    2.43
  -3  -2  -3   24.80    0.79
  -3  -2  -3   24.74    0.86
   3   2   3   26.05    1.03
   3   2   3   25.45    0.94
   3   2   3   25.72    0.96
  -4  -2  -3   14.67    0.48
  -4  -2  -3   14.45    0.51
   4   2   3   13.59    0.65
   4   2   3   14.76    0.59
   4   2   3   15.07    0.57
  -5  -2  -3    9.41    0.33
  -5  -2  -3    9.69    0.40
  -5  -2  -3    9.71    0.36
  -5  -2  -3    9.40    0.33
   5   2   3    9.23    0.41
  -6  -2  -3   87.22    2.62
  -6  -2  -3   87.39    3.06
  -6  -2  -3   86.72    2.58
   6   2   3   86.14    2.29
  -7  -2  -3    2.26    0.12
  -7  -2  -3    2.29    0.16
   7   2   3    2.48    0.12
  -8  -2  -3   49.66    1.53
   8   2   3   51.22    1.34
  -9  -2  -3   15.11    0.49
   9   2   3   14.53    0.42
  11  -3  -3    6.81    0.19
 -11   3   3    6.33    0.18
  10  -3  -3    2.98    0.12
  10  -3  -3    3.13    0.12
  10  -3  -3    3.07    0.12
 -10   3   3    3.13    0.13
 -10   3   3    3.04    0.10
   9  -3  -3    4.50    0.17
   9  -3  -3    4.40    0.15
   9  -3  -3    4.08    0.16
  -9   3   3    4.34    0.18
   8  -3  -3    9.23    0.28
   8  -3  -3    9.13    0.30
   8  -3  -3    9.55    0.28
  -8   3   3    9.65    0.34
   7  -3  -3   20.32    0.54
   7  -3  -3   19.31    0.50
   7  -3  -3   20.12    0.58
   7  -3  -3   19.44    0.53
  -7   3   3   20.01    0.68
  -7   3   3   19.84    0.68
  -7   3   3   20.63    0.64
   6  -3  -3    7.73    0.35
  -6   3   3    7.95    0.32
  -6   3   3    7.92    0.32
  -6   3   3    7.73    0.28
  -6   3   3    7.25    0.32
   5  -3  -3   34.34    1.19
   5  -3  -3   36.07    1.29
   5  -3  -3   36.54    1.46
  -5   3   3   34.08    1.19
  -5   3   3   35.37    1.11
  -5   3   3   35.73    1.11
  -5   3   3   32.56    1.34
  -5   3   3   33.60    1.06
   4  -3  -3   11.86    0.46
   4  -3  -3   11.19    0.57
   4  -3  -3   11.06    0.50
  -4   3   3   10.27    0.46
  -4   3   3   11.08    0.40
  -4   3   3   10.55    0.43
  -4   3   3   11.74    0.41
   3  -3  -3   48.44    1.69
   3  -3  -3   46.52    1.81
   3  -3  -3   44.19    1.90
  -3   3   3   44.43    1.72
  -3   3   3   49.65    1.57
   2  -3  -3   61.84    2.39
  -2   3   3   68.28    2.12
  -2   3   3   61.49    2.32
   1  -3  -3   10.62    0.40
  -1   3   3   11.23    0.41
  -1   3   3   10.23    0.44
   0  -3  -3    3.16    0.16
   0   3   3    3.28    0.17
   0   3   3    3.34    0.17
  -1  -3  -3   44.98    1.41
   1   3   3   39.24    1.64
   1   3   3   41.81    1.56
   1   3   3   41.58    1.54
  -2  -3  -3   10.89    0.40
   2   3   3    9.99    0.56
   2   3   3   10.55    0.45
   2   3   3   10.47    0.43
  -3  -3  -3    0.54    0.07
  -3  -3  -3    0.42    0.06
   3   3   3    0.88    0.10
   3   3   3    0.81    0.09
  -4  -3  -3  211.41    6.47
  -4  -3  -3  218.55    7.02
  -4  -3  -3  212.88    6.36
   4   3   3  219.75    7.76
   4   3   3  222.64    7.75
  -5  -3  -3   97.62    3.00
  -5  -3  -3   99.49    2.96
  -5  -3  -3  104.02    3.49
   5   3   3   99.34    3.60
   5   3   3   97.12    3.61
  -6  -3  -3  113.98    3.35
  -6  -3  -3  112.71    3.94
   6   3   3  111.32    2.93
  -7  -3  -3   23.26    0.73
  -7  -3  -3   21.82    0.59
   7   3   3   22.63    0.63
  -8  -3  -3    3.95    0.17
  -8  -3  -3    3.82    0.12
   8   3   3    4.08    0.15
  -9  -3  -3    0.79    0.04
   9   3   3    0.71    0.06
  10  -4  -3    5.63    0.18
 -10   4   3    6.27    0.16
   9  -4  -3    3.60    0.12
   9  -4  -3    3.23    0.13
  -9   4   3    3.22    0.11
  -9   4   3    3.54    0.15
   8  -4  -3    4.24    0.15
   8  -4  -3    4.33    0.16
   8  -4  -3    4.22    0.17
  -8   4   3    4.15    0.13
  -8   4   3    4.31    0.18
   7  -4  -3   17.43    0.54
   7  -4  -3   17.69    0.49
   7  -4  -3   17.90    0.46
   7  -4  -3   18.44    0.53
  -7   4   3   17.31    0.45
  -7   4   3   17.40    0.48
  -7   4   3   19.37    0.59
   6  -4  -3   18.82    0.54
   6  -4  -3   19.79    0.56
   6  -4  -3   19.69    0.58
   6  -4  -3   18.99    0.50
   6  -4  -3   18.98    0.52
  -6   4   3   18.97    0.62
  -6   4   3   18.89    0.49
   5  -4  -3   54.07    2.00
  -5   4   3   55.12    2.05
  -5   4   3   55.18    1.86
  -5   4   3   54.89    1.66
   4  -4  -3   40.47    1.73
   4  -4  -3   42.65    1.54
  -4   4   3   41.22    1.58
  -4   4   3   42.55    1.44
  -4   4   3   41.96    1.28
   3  -4  -3   27.80    1.07
  -3   4   3   29.03    1.10
  -3   4   3   27.84    1.00
   2  -4  -3    8.99    0.42
  -2   4   3    9.96    0.43
  -2   4   3   10.07    0.41
   1  -4  -3    9.10    0.38
  -1   4   3    9.03    0.38
  -1   4   3    9.31    0.41
   0  -4  -3   11.76    0.46
   0   4   3   12.25    0.49
   0   4   3   10.67    0.51
  -1  -4  -3   13.51    0.51
   1   4   3   13.15    0.58
   1   4   3   13.33    0.55
  -2  -4  -3    3.53    0.19
  -2  -4  -3    3.83    0.17
   2   4   3    3.30    0.19
   2   4   3    3.52    0.22
  -3  -4  -3   63.10    1.93
  -3  -4  -3   63.25    2.13
   3   4   3   65.37    2.34
  -4  -4  -3   76.68    1.96
  -4  -4  -3   78.19    2.33
  -4  -4  -3   77.07    1.84
  -4  -4  -3   77.61    2.56
   4   4   3   78.38    2.82
   4   4   3   78.25    1.87
   4   4   3   77.91    2.10
   4   4   3   75.51    2.03
   4   4   3   78.82    1.95
  -5  -4  -3   24.36    0.63
  -5  -4  -3   26.00    0.82
  -5  -4  -3   26.08    0.67
  -5  -4  -3   25.98    0.95
   5   4   3   25.29    0.70
   5   4   3   24.80    0.98
   5   4   3   25.49    0.65
   5   4   3   24.86    0.64
  -6  -4  -3    8.54    0.32
  -6  -4  -3    8.27    0.24
   6   4   3    8.56    0.24
   6   4   3    8.72    0.27
  -7  -4  -3    8.70    0.25
  -7  -4  -3    8.71    0.32
   7   4   3    9.00    0.27
   7   4   3    8.78    0.24
  -8  -4  -3    0.91    0.04
   8   4   3    0.82    0.06
   9  -5  -3    1.43    0.07
   8  -5  -3    4.93    0.17
   8  -5  -3    4.65    0.16
   8  -5  -3    4.61    0.15
  -8   5   3    4.93    0.14
  -8   5   3    4.59    0.13
   7  -5  -3    7.57    0.24
   7  -5  -3    6.91    0.21
   7  -5  -3    7.22    0.24
   7  -5  -3    7.25    0.19
  -7   5   3    7.13    0.20
  -7   5   3    7.29    0.20
   6  -5  -3   31.49    0.93
   6  -5  -3   32.17    0.87
   6  -5  -3   30.42    0.86
   6  -5  -3   31.46    0.80
   6  -5  -3   31.48    0.81
  -6   5   3   31.12    0.77
  -6   5   3   32.27    0.81
   5  -5  -3   35.72    0.97
   5  -5  -3   34.99    0.91
   5  -5  -3   35.13    1.04
   5  -5  -3   36.34    0.98
  -5   5   3   34.77    0.86
  -5   5   3   35.43    0.90
   4  -5  -3   50.97    1.48
   4  -5  -3   49.90    1.30
   4  -5  -3   50.93    1.37
   4  -5  -3   52.39    1.40
  -4   5   3   48.32    1.90
  -4   5   3   51.85    1.22
   3  -5  -3   27.00    0.75
   3  -5  -3   26.86    0.77
   3  -5  -3   28.22    0.82
  -3   5   3   26.13    1.07
  -3   5   3   27.20    0.67
   2  -5  -3   25.08    0.75
   2  -5  -3   23.77    0.71
  -2   5   3   23.85    0.90
  -2   5   3   25.11    0.98
  -2   5   3   25.02    0.62
   1  -5  -3   35.78    1.06
   1  -5  -3   35.76    0.86
   1  -5  -3   34.05    1.00
  -1   5   3   34.40    1.00
  -1   5   3   37.37    1.36
   0  -5  -3   60.05    1.45
   0  -5  -3   62.72    1.78
   0  -5  -3   60.31    2.05
   0   5   3   60.94    2.24
   0   5   3   59.67    1.67
  -1  -5  -3    3.13    0.15
  -1  -5  -3    3.05    0.12
   1   5   3    3.06    0.14
   1   5   3    3.00    0.12
   1   5   3    3.29    0.20
  -2  -5  -3   10.41    0.29
  -2  -5  -3   10.46    0.36
   2   5   3   10.08    0.31
   2   5   3   10.53    0.45
   2   5   3   10.77    0.34
   2   5   3   10.67    0.30
  -3  -5  -3   30.69    0.94
  -3  -5  -3   30.51    0.76
  -3  -5  -3   30.91    0.79
   3   5   3   31.04    0.78
   3   5   3   31.51    0.87
   3   5   3   29.99    1.17
   3   5   3   30.99    0.80
  -4  -5  -3    6.33    0.19
  -4  -5  -3    6.09    0.25
  -4  -5  -3    6.54    0.19
   4   5   3    6.37    0.21
   4   5   3    6.50    0.20
   4   5   3    6.52    0.19
   4   5   3    6.39    0.31
  -5  -5  -3    1.63    0.07
  -5  -5  -3    1.60    0.08
  -5  -5  -3    1.47    0.11
   5   5   3    1.64    0.05
   5   5   3    1.71    0.08
  -6  -5  -3    5.63    0.21
  -6  -5  -3    5.17    0.16
  -6  -5  -3    5.39    0.15
  -6  -5  -3    4.72    0.22
   6   5   3    6.02    0.16
   6   5   3    5.44    0.18
  -7  -5  -3   15.38    0.46
  -7  -5  -3   15.21    0.39
   7   5   3   14.99    0.37
   7   5   3   14.53    0.41
   7  -6  -3    5.22    0.17
  -7   6   3    5.51    0.14
   6  -6  -3   12.95    0.40
   6  -6  -3   12.95    0.37
   6  -6  -3   13.67    0.34
  -6   6   3   13.40    0.33
   5  -6  -3    2.01    0.09
   5  -6  -3    2.21    0.08
   5  -6  -3    2.06    0.09
  -5   6   3    1.99    0.08
   4  -6  -3   12.56    0.35
   4  -6  -3   13.22    0.38
   4  -6  -3   12.62    0.40
  -4   6   3   12.67    0.33
   3  -6  -3    4.20    0.17
   3  -6  -3    4.16    0.16
  -3   6   3    4.36    0.14
   2  -6  -3   22.97    0.67
   2  -6  -3   21.21    0.63
  -2   6   3   21.74    0.54
  -2   6   3   21.26    0.63
   1  -6  -3    3.53    0.15
   1  -6  -3    3.39    0.15
  -1   6   3    3.32    0.15
   0  -6  -3   26.08    0.77
   0  -6  -3   25.07    0.63
   0   6   3   25.10    0.73
  -1  -6  -3   30.55    0.75
  -1  -6  -3   30.88    0.92
   1   6   3   30.18    0.86
  -2  -6  -3   26.36    0.64
  -2  -6  -3   26.00    0.79
   2   6   3   25.53    0.65
   2   6   3   26.38    0.73
   2   6   3   25.00    0.67
  -3  -6  -3    7.29    0.26
  -3  -6  -3    7.69    0.21
   3   6   3    7.44    0.23
   3   6   3    7.38    0.21
   3   6   3    7.26    0.21
  -4  -6  -3   10.76    0.36
  -4  -6  -3   11.20    0.29
   4   6   3   11.14    0.28
   4   6   3   11.38    0.29
  -5  -6  -3    5.99    0.21
  -5  -6  -3    5.82    0.16
   5   6   3    6.34    0.17
   4  -7  -3    2.45    0.08
   3  -7  -3    3.73    0.12
   3  -7  -3    4.21    0.13
   3  -7  -3    3.98    0.14
   2  -7  -3   13.08    0.36
   2  -7  -3   13.00    0.38
  -2   7   3   11.80    0.36
   1  -7  -3    7.54    0.23
   1  -7  -3    7.78    0.25
  -1   7   3    7.53    0.23
   0  -7  -3    1.08    0.06
   0   7   3    0.98    0.06
  -1  -7  -3    5.30    0.15
  -1  -7  -3    5.33    0.18
   1   7   3    5.57    0.17
   1   7   3    5.34    0.16
  -2  -7  -3    7.74    0.24
  -2  -7  -3    7.43    0.20
   2   7   3    7.78    0.20
   2   7   3    7.52    0.22
   3   7  -4   13.00    0.33
  -3  -7   4   13.05    0.32
   2   7  -4   13.78    0.38
   2   7  -4   14.64    0.36
   2   7  -4   13.89    0.39
  -2  -7   4   14.08    0.34
   1   7  -4    4.49    0.14
   1   7  -4    4.46    0.13
   1   7  -4    4.35    0.13
  -1  -7   4    4.15    0.12
   0   7  -4   12.65    0.36
  -7  -6   4    8.71    0.23
   6   6  -4    0.42    0.03
  -6  -6   4    0.42    0.03
  -6  -6   4    0.44    0.03
  -6  -6   4    0.47    0.03
  -5  -6   4    1.05    0.05
  -5  -6   4    0.97    0.05
   4   6  -4   12.49    0.37
   4   6  -4   13.33    0.34
   4   6  -4   13.16    0.37
  -4  -6   4   13.30    0.33
   3   6  -4   18.33    0.51
   3   6  -4   17.68    0.49
   3   6  -4   17.59    0.47
  -3  -6   4   18.20    0.45
   2   6  -4    9.28    0.26
   2   6  -4    9.16    0.28
  -2  -6   4    9.41    0.25
   1   6  -4   43.41    1.18
  -1  -6   4   43.02    1.03
  -1  -6   4   42.83    1.03
   0   6  -4   10.02    0.30
   0  -6   4   10.05    0.26
   0  -6   4   10.02    0.26
  -1   6  -4    8.18    0.25
   1  -6   4    7.85    0.25
  -2   6  -4   13.13    0.40
   2  -6   4   13.83    0.39
  -3   6  -4    0.58    0.04
   3  -6   4    0.70    0.06
  -4   6  -4    8.75    0.22
   4  -6   4    8.72    0.24
   4  -6   4    8.72    0.26
   5  -6   4   11.67    0.30
  -9  -5   4    1.07    0.04
   8   5  -4   16.07    0.39
   8   5  -4   15.21    0.43
  -8  -5   4   15.49    0.50
  -8  -5   4   15.33    0.41
   7   5  -4    7.35    0.24
   7   5  -4    7.73    0.21
  -7  -5   4    7.63    0.22
  -7  -5   4    8.07    0.28
   6   5  -4    3.36    0.12
  -6  -5   4    3.15    0.11
  -6  -5   4    3.20    0.15
   5   5  -4   20.68    0.51
   5   5  -4   19.87    0.55
   5   5  -4   19.89    0.51
  -5  -5   4   20.34    0.65
  -5  -5   4   19.63    0.50
  -5  -5   4   19.88    0.53
   4   5  -4   15.30    0.43
   4   5  -4   15.26    0.43
   4   5  -4   15.47    0.40
  -4  -5   4   14.91    0.41
  -4  -5   4   15.21    0.39
  -4  -5   4   15.14    0.51
   3   5  -4   10.44    0.32
   3   5  -4   10.97    0.29
  -3  -5   4   10.41    0.29
  -3  -5   4   10.50    0.28
   2   5  -4   72.55    1.90
  -2  -5   4   69.10    1.76
  -2  -5   4   69.09    1.66
   1   5  -4    6.00    0.20
  -1  -5   4    6.23    0.18
   0   5  -4   57.83    2.17
   0   5  -4   57.82    1.59
   0  -5   4   59.37    1.38
  -1   5  -4   14.18    0.63
  -1   5  -4   14.86    0.43
   1  -5   4   14.84    0.69
  -2   5  -4   18.44    0.80
  -2   5  -4   18.99    0.48
   2  -5   4   19.71    0.56
   2  -5   4   20.33    0.88
  -3   5  -4   18.01    0.79
   3  -5   4   19.08    0.86
   3  -5   4   19.94    0.55
  -4   5  -4   30.45    0.74
   4  -5   4   31.20    0.79
   4  -5   4   30.08    0.90
   4  -5   4   31.37    0.85
  -5   5  -4   35.14    0.82
   5  -5   4   32.82    1.00
   5  -5   4   35.12    0.94
   5  -5   4   34.59    0.87
  -6   5  -4    0.32    0.03
   6  -5   4    0.29    0.02
   6  -5   4    0.29    0.03
  10   4  -4    4.73    0.15
   9   4  -4    3.76    0.12
   9   4  -4    4.15    0.15
  -9  -4   4    3.74    0.16
   8   4  -4    0.96    0.08
   8   4  -4    1.18    0.07
  -8  -4   4    0.99    0.08
   7   4  -4   18.48    0.48
   7   4  -4   18.86    0.53
  -7  -4   4   19.12    0.61
   6   4  -4    2.05    0.09
   6   4  -4    1.97    0.10
   6   4  -4    2.25    0.09
  -6  -4   4    2.10    0.12
   5   4  -4   25.91    0.64
   5   4  -4   25.89    0.69
   5   4  -4   24.95    0.89
  -5  -4   4   24.94    0.80
  -5  -4   4   25.43    0.85
   4   4  -4   12.36    0.51
  -4  -4   4   12.18    0.50
  -4  -4   4   12.30    0.46
  -4  -4   4   12.40    0.42
   3   4  -4   15.06    0.59
  -3  -4   4   14.29    0.48
  -3  -4   4   14.34    0.58
   2   4  -4    5.53    0.27
  -2  -4   4    5.21    0.28
   1   4  -4    2.36    0.15
  -1  -4   4    2.21    0.17
  -1  -4   4    2.18    0.17
   0   4  -4    3.45    0.19
   0   4  -4    3.71    0.22
   0  -4   4    3.65    0.23
   0  -4   4    3.57    0.23
  -1   4  -4   14.10    0.60
  -1   4  -4   14.60    0.59
   1  -4   4   13.89    0.58
   1  -4   4   14.14    0.66
  -2   4  -4   79.61    2.65
  -2   4  -4   76.25    2.87
   2  -4   4   77.94    3.19
  -3   4  -4   41.25    1.47
  -3   4  -4   41.46    1.58
  -3   4  -4   39.89    0.98
   3  -4   4   40.32    1.12
   3  -4   4   41.92    1.73
  -4   4  -4   86.33    2.03
  -4   4  -4   85.91    2.17
  -4   4  -4   85.70    3.19
   4  -4   4   86.60    2.16
   4  -4   4   84.51    2.48
   4  -4   4   87.82    2.32
   4  -4   4   87.01    3.53
  -5   4  -4   28.88    0.70
  -5   4  -4   29.24    0.74
  -5   4  -4   27.64    1.15
   5  -4   4   27.75    1.25
   5  -4   4   29.37    0.74
   5  -4   4   29.23    0.80
   5  -4   4   30.08    0.86
  -6   4  -4    2.33    0.09
  -6   4  -4    2.46    0.08
   6  -4   4    2.25    0.10
   6  -4   4    2.58    0.08
  -7   4  -4    5.32    0.15
  -7   4  -4    5.18    0.14
   7  -4   4    5.17    0.18
   8  -4   4   15.26    0.46
  11   3  -4   13.02    0.36
  10   3  -4    0.73    0.06
   9   3  -4    9.87    0.27
   9   3  -4   10.67    0.32
   8   3  -4    5.10    0.16
   8   3  -4    5.21    0.19
   7   3  -4   29.97    0.83
   7   3  -4   30.82    0.75
  -7  -3   4   29.99    0.96
   6   3  -4    3.92    0.22
  -6  -3   4    4.24    0.19
   5   3  -4   54.31    1.84
   5   3  -4   50.24    1.66
  -5  -3   4   51.12    1.59
  -5  -3   4   49.45    1.54
   4   3  -4   10.49    0.39
   4   3  -4   10.69    0.43
  -4  -3   4    9.98    0.37
  -4  -3   4    9.69    0.40
   3   3  -4   37.97    1.26
   3   3  -4   39.22    1.46
   3   3  -4   39.56    1.41
  -3  -3   4   38.39    1.33
  -3  -3   4   39.65    1.23
   2   3  -4   85.30    3.13
   2   3  -4   90.71    3.07
  -2  -3   4   84.77    3.54
  -2  -3   4   85.69    2.66
  -2  -3   4   91.68    2.90
   1   3  -4    9.23    0.38
   1   3  -4    8.84    0.48
  -1  -3   4    9.49    0.44
  -1  -3   4   10.00    0.39
   0   3  -4   20.04    0.77
   0   3  -4   21.10    0.76
   0   3  -4   20.58    0.80
   0  -3   4   21.21    0.90
   0  -3   4   20.65    0.76
  -1   3  -4    9.03    0.39
  -1   3  -4    9.31    0.39
  -1   3  -4    8.43    0.36
   1  -3   4    9.01    0.38
   1  -3   4    8.70    0.43
  -2   3  -4   22.67    0.85
  -2   3  -4   21.83    0.90
   2  -3   4   24.67    1.01
  -3   3  -4   43.79    1.64
  -3   3  -4   40.95    1.50
   3  -3   4   45.13    1.81
  -4   3  -4    6.23    0.32
  -4   3  -4    5.86    0.24
  -4   3  -4    6.81    0.34
   4  -3   4    6.03    0.34
  -5   3  -4   51.52    1.89
  -5   3  -4   48.68    1.18
  -5   3  -4   47.83    1.51
  -5   3  -4   49.32    1.26
   5  -3   4   49.61    1.25
   5  -3   4   51.17    2.07
   5  -3   4   49.04    1.44
   5  -3   4   50.10    1.35
  -6   3  -4   22.21    0.59
  -6   3  -4   23.61    0.73
  -6   3  -4   23.32    0.55
  -6   3  -4   22.76    0.93
   6  -3   4   22.06    0.58
   6  -3   4   22.23    0.68
   6  -3   4   21.85    0.59
   6  -3   4   22.65    0.99
  -7   3  -4    4.16    0.13
  -7   3  -4    3.96    0.18
  -7   3  -4    4.07    0.12
   7  -3   4    4.00    0.15
   7  -3   4    4.05    0.15
  -8   3  -4    9.14    0.23
  -8   3  -4    7.95    0.29
   8  -3   4    8.23    0.24
   8  -3   4    8.06    0.27
  11   2  -4   10.95    0.32
  10   2  -4    9.35    0.29
   9   2  -4    3.97    0.16
   8   2  -4    1.02    0.08
   8   2  -4    0.88    0.06
  -8  -2   4    0.74    0.06
   7   2  -4   44.86    1.47
   7   2  -4   44.00    1.68
  -7  -2   4   44.66    1.36
   6   2  -4   49.97    1.64
   6   2  -4   50.87    1.88
  -6  -2   4   51.40    1.55
   5   2  -4   98.23    3.36
   5   2  -4   98.10    3.06
   5   2  -4   95.72    3.49
   5   2  -4   95.84    3.41
  -5  -2   4  100.26    2.93
   4   2  -4  111.62    4.00
   4   2  -4  112.48    3.90
   4   2  -4  114.05    3.91
   4   2  -4  116.69    3.50
  -4  -2   4  109.90    3.66
  -4  -2   4  116.74    3.37
  -4  -2   4  106.47    4.51
   3   2  -4   45.92    1.58
   3   2  -4   45.10    1.56
   3   2  -4   45.86    1.38
   3   2  -4   43.75    1.53
  -3  -2   4   43.59    1.44
  -3  -2   4   37.22    1.32
  -3  -2   4   41.46    1.76
   2   2  -4   60.67    2.16
   2   2  -4   61.25    2.19
   2   2  -4   62.32    1.92
   2   2  -4   61.36    2.94
   2   2  -4   60.75    2.20
  -2  -2   4   64.56    2.03
  -2  -2   4   58.84    2.49
  -2  -2   4   62.29    1.87
   1   2  -4  106.45    3.61
   1   2  -4  112.96    3.46
   1   2  -4  111.11    3.84
   1   2  -4  112.93    3.88
  -1  -2   4  107.40    3.33
  -1  -2   4  112.09    4.44
  -1  -2   4  113.64    3.62
   0   2  -4   13.66    0.51
   0   2  -4   14.03    0.50
   0   2  -4   13.56    0.55
   0  -2   4   14.04    0.50
   0  -2   4   12.51    0.47
   0  -2   4   13.97    0.60
  -1   2  -4  454.41   14.04
  -1   2  -4  437.19   14.83
  -1   2  -4  406.96   15.29
   1  -2   4  434.03   13.83
   1  -2   4  442.86   13.62
   1  -2   4  400.04   17.12
  -2   2  -4   50.47    1.82
  -2   2  -4   53.42    1.74
  -2   2  -4   53.18    1.90
   2  -2   4   51.54    1.91
   2  -2   4   51.03    2.11
   2  -2   4   50.68    1.69
  -3   2  -4    4.42    0.23
  -3   2  -4    4.19    0.20
  -3   2  -4    4.14    0.22
   3  -2   4    4.06    0.27
   3  -2   4    4.26    0.24
   3  -2   4    4.50    0.22
  -4   2  -4   47.73    1.43
  -4   2  -4   44.76    1.48
  -4   2  -4   48.98    1.77
  -4   2  -4   46.31    1.61
   4  -2   4   46.37    1.59
   4  -2   4   49.37    1.96
  -5   2  -4   19.02    0.77
  -5   2  -4   18.24    0.65
  -5   2  -4   18.17    0.60
  -5   2  -4   18.69    0.70
   5  -2   4   18.85    0.71
   5  -2   4   18.05    0.82
  -6   2  -4   73.85    2.74
  -6   2  -4   76.23    2.21
  -6   2  -4   72.51    1.86
   6  -2   4   72.17    1.82
   6  -2   4   74.16    1.84
   6  -2   4   74.34    2.13
  -7   2  -4   78.14    1.98
  -7   2  -4   80.33    2.35
  -7   2  -4   75.97    2.91
   7  -2   4   78.58    1.94
   7  -2   4   80.45    2.27
  -8   2  -4    0.15    0.02
  -8   2  -4    0.13    0.04
   8  -2   4    0.20    0.05
   8  -2   4    0.18    0.04
  -9   2  -4    1.49    0.06
   9  -2   4    1.56    0.08
   8   1  -4    7.87    0.39
   8   1  -4    8.20    0.35
   7   1  -4   39.15    1.31
   7   1  -4   38.36    1.48
  -7  -1   4   41.35    1.19
   6   1  -4   28.21    0.96
   6   1  -4   29.95    1.09
  -6  -1   4   28.43    0.87
   5   1  -4  179.65    6.03
   5   1  -4  171.10    5.28
   5   1  -4  167.34    5.44
   5   1  -4  165.29    5.91
  -5  -1   4  172.95    5.12
   4   1  -4    7.11    0.30
   4   1  -4    6.34    0.28
   4   1  -4    7.27    0.28
   4   1  -4    7.28    0.27
   4   1  -4    6.79    0.43
  -4  -1   4    6.55    0.25
  -4  -1   4    6.99    0.23
   3   1  -4   13.99    0.52
   3   1  -4   14.41    0.46
   3   1  -4   13.81    0.52
   3   1  -4   12.79    0.72
  -3  -1   4   13.26    0.47
  -3  -1   4   13.45    0.43
   2   1  -4  161.03    4.69
   2   1  -4  159.84    4.77
   2   1  -4  150.77    5.31
   2   1  -4  152.26    5.40
   2   1  -4  146.75    6.99
  -2  -1   4  153.59    4.63
  -2  -1   4  154.63    4.98
   1   1  -4  116.21    3.85
   1   1  -4  123.89    4.12
   1   1  -4  117.24    3.65
   1   1  -4  115.73    4.17
   1   1  -4  123.64    3.65
  -1  -1   4  115.82    3.55
  -1  -1   4  119.58    3.85
   0   1  -4  146.94    4.73
   0   1  -4  160.61    5.35
   0   1  -4  154.74    5.00
   0   1  -4  152.01    4.72
   0  -1   4  156.67    5.36
   0  -1   4  157.21    5.00
  -1   1  -4   57.45    1.93
  -1   1  -4   62.22    2.01
  -1   1  -4   60.48    2.13
   1  -1   4   63.55    1.97
   1  -1   4   59.39    2.01
   1  -1   4   63.10    2.18
  -2   1  -4  153.27    5.30
  -2   1  -4  152.92    4.59
  -2   1  -4  165.92    4.99
   2  -1   4  153.88    4.89
   2  -1   4  145.19    6.13
   2  -1   4  150.67    5.34
  -3   1  -4   62.59    2.04
  -3   1  -4   60.34    2.16
  -3   1  -4   61.01    1.88
   3  -1   4   61.82    2.23
   3  -1   4   60.97    2.24
   3  -1   4   66.78    2.02
   3  -1   4   58.37    2.50
  -4   1  -4    8.54    0.35
  -4   1  -4    8.87    0.32
  -4   1  -4    8.83    0.36
   4  -1   4    8.91    0.37
   4  -1   4    8.75    0.42
   4  -1   4    8.73    0.38
  -5   1  -4    6.93    0.30
  -5   1  -4    6.80    0.27
  -5   1  -4    6.71    0.30
  -5   1  -4    6.75    0.25
   5  -1   4    6.97    0.33
   5  -1   4    6.66    0.33
  -6   1  -4   20.59    0.83
  -6   1  -4   20.98    0.65
  -6   1  -4   20.51    0.69
   6  -1   4   20.91    0.55
   6  -1   4   20.87    0.62
   6  -1   4   18.53    0.82
  -7   1  -4   20.25    0.82
  -7   1  -4   19.84    0.64
  -7   1  -4   19.26    0.52
   7  -1   4   20.39    0.61
   7  -1   4   19.69    0.54
  -8   1  -4    1.70    0.07
  -8   1  -4    1.60    0.10
   8  -1   4    1.60    0.10
   8  -1   4    1.49    0.10
  -9   1  -4    4.60    0.18
  -9   1  -4    4.52    0.14
   9  -1   4    4.56    0.16
  10   0  -4   32.00    0.82
   9   0  -4   33.47    0.86
   8   0  -4    0.72    0.12
   8   0  -4    0.47    0.09
   7   0  -4    1.15    0.12
   7   0  -4    1.18    0.10
   7   0  -4    1.10    0.11
  -7   0   4    1.27    0.06
   6   0  -4   10.32    0.40
   6   0  -4   10.01    0.42
   6   0  -4    9.80    0.37
  -6   0   4   10.07    0.32
   5   0  -4   27.88    0.99
   5   0  -4   26.62    0.91
   5   0  -4   26.60    0.87
  -5   0   4   25.98    0.81
   4   0  -4  161.59    4.96
   4   0  -4  169.83    5.55
   4   0  -4  170.74    5.66
   4   0  -4  161.12    5.12
  -4   0   4  153.88    4.82
  -4   0   4  150.88    5.23
   3   0  -4   14.38    0.54
   3   0  -4   13.77    0.46
   3   0  -4   14.61    0.52
  -3   0   4   13.01    0.43
  -3   0   4   13.63    0.47
   2   0  -4   16.71    0.81
   2   0  -4   18.15    0.63
   2   0  -4   17.22    0.55
   2   0  -4   17.10    0.65
  -2   0   4   17.56    0.57
  -2   0   4   17.27    0.53
  -2   0   4   16.12    0.53
   1   0  -4  138.59    4.72
   1   0  -4  133.48    4.41
   1   0  -4  138.29    4.13
   1   0  -4  138.61    4.80
   1   0  -4  131.29    4.19
  -1   0   4  134.68    4.12
  -1   0   4  143.46    4.46
  -1   0   4  141.18    4.73
  -1   0   4  130.66    4.06
   0   0  -4  137.59    4.50
   0   0  -4  142.52    4.81
   0   0  -4  136.01    4.21
   0   0   4  142.71    4.81
   0   0   4  135.05    4.50
  -1   0  -4   62.80    1.91
  -1   0  -4   64.98    1.98
  -1   0  -4   65.51    2.07
   1   0   4   63.79    2.25
   1   0   4   62.44    2.27
   1   0   4   61.40    2.07
  -2   0  -4   53.85    1.74
  -2   0  -4   52.69    1.69
  -2   0  -4   53.44    1.60
  -2   0  -4   51.31    1.85
   2   0   4   54.89    1.73
   2   0   4   51.75    1.90
   2   0   4   52.67    1.90
  -3   0  -4    8.87    0.30
  -3   0  -4    8.46    0.35
  -3   0  -4    8.96    0.33
   3   0   4    9.01    0.36
   3   0   4    9.21    0.36
   3   0   4    8.89    0.41
  -4   0  -4    0.25    0.05
  -4   0  -4    0.27    0.05
  -4   0  -4    0.34    0.06
   4   0   4    0.32    0.09
   4   0   4    0.36    0.07
   4   0   4    0.30    0.08
  -5   0  -4    1.00    0.09
  -5   0  -4    1.10    0.07
  -5   0  -4    1.21    0.10
  -5   0  -4    1.15    0.08
   5   0   4    0.97    0.10
   5   0   4    0.94    0.12
  -6   0  -4    0.18    0.04
  -6   0  -4    0.24    0.05
  -6   0  -4    0.20    0.06
   6   0   4    0.13    0.08
   6   0   4    0.17    0.07
  -7   0  -4    2.51    0.16
  -7   0  -4    2.50    0.13
   7   0   4    2.47    0.13
   7   0   4    2.68    0.13
  -8   0  -4   39.59    1.21
   8   0   4   39.23    0.99
  -9   0  -4    2.34    0.08
  -9   0  -4    2.38    0.12
   9   0   4    2.14    0.10
 -10   0  -4   52.60    1.32
  12  -1  -4   15.40    0.40
  11  -1  -4    3.80    0.14
  10  -1  -4    0.39    0.06
   9  -1  -4   43.55    1.18
   9  -1  -4   44.18    1.11
   8  -1  -4    8.54    0.39
  -8   1   4    8.84    0.30
   7  -1  -4   39.66    1.47
   7  -1  -4   39.69    1.37
  -7   1   4   40.55    1.23
   6  -1  -4   30.49    1.08
   6  -1  -4   29.67    1.01
  -6   1   4   27.31    0.90
   5  -1  -4  167.30    5.27
   5  -1  -4  179.32    6.02
   5  -1  -4  166.73    5.91
   5  -1  -4  179.01    5.46
  -5   1   4  165.82    5.52
  -5   1   4  170.34    5.10
   4  -1  -4    7.31    0.29
   4  -1  -4    7.22    0.26
   4  -1  -4    7.35    0.30
   4  -1  -4    7.13    0.34
  -4   1   4    6.90    0.26
  -4   1   4    7.20    0.25
   3  -1  -4   13.90    0.59
   3  -1  -4   13.96    0.50
   3  -1  -4   14.27    0.54
   3  -1  -4   16.52    0.48
  -3   1   4   13.82    0.46
  -3   1   4   13.88    0.49
   2  -1  -4  156.66    5.56
   2  -1  -4  160.78    5.48
   2  -1  -4  158.83    4.84
  -2   1   4  155.40    4.69
  -2   1   4  157.21    5.09
   1  -1  -4  131.37    4.24
   1  -1  -4  120.55    3.91
   1  -1  -4  115.27    4.25
  -1   1   4  114.82    3.61
  -1   1   4  121.70    4.23
  -1   1   4  123.08    3.92
   0  -1  -4  159.03    5.41
   0  -1  -4  144.45    5.44
   0  -1  -4  157.87    5.02
   0  -1  -4  159.05    4.70
   0   1   4  144.45    5.52
   0   1   4  166.17    5.42
   0   1   4  158.08    5.02
  -1  -1  -4   62.45    1.94
  -1  -1  -4   62.75    1.88
  -1  -1  -4   64.96    2.04
   1   1   4   60.51    2.04
   1   1   4   62.33    2.25
   1   1   4   62.42    2.25
  -2  -1  -4  151.37    5.29
  -2  -1  -4  156.68    4.96
  -2  -1  -4  154.24    4.57
  -2  -1  -4  152.34    4.68
   2   1   4  157.51    5.46
   2   1   4  159.02    4.88
   2   1   4  141.26    5.46
   2   1   4  154.96    5.36
  -3  -1  -4   63.60    1.88
  -3  -1  -4   61.90    2.18
  -3  -1  -4   61.58    2.04
   3   1   4   62.08    2.27
   3   1   4   62.34    2.03
   3   1   4   61.68    2.25
  -4  -1  -4    9.19    0.32
  -4  -1  -4   10.56    0.35
  -4  -1  -4    9.25    0.37
   4   1   4    8.52    0.37
   4   1   4    8.95    0.39
   4   1   4    8.52    0.45
  -5  -1  -4    7.01    0.28
  -5  -1  -4    7.22    0.31
  -5  -1  -4    7.07    0.26
  -5  -1  -4    7.21    0.26
   5   1   4    6.84    0.32
   5   1   4    6.55    0.32
  -6  -1  -4   20.13    0.79
  -6  -1  -4   21.67    0.68
  -6  -1  -4   20.70    0.66
   6   1   4   20.30    0.83
  -7  -1  -4   20.92    0.66
  -7  -1  -4   19.90    0.78
   7   1   4   19.95    0.57
  -8  -1  -4    1.65    0.10
  -9  -1  -4    4.47    0.18
  -9  -1  -4    4.21    0.13
  11  -2  -4   11.52    0.32
  10  -2  -4    9.42    0.29
  10  -2  -4    9.58    0.28
  10  -2  -4    9.31    0.27
 -10   2   4    9.01    0.32
   9  -2  -4    3.88    0.14
   9  -2  -4    3.72    0.16
   9  -2  -4    3.76    0.16
   8  -2  -4    0.88    0.08
   8  -2  -4    0.87    0.07
   8  -2  -4    0.64    0.07
  -8   2   4    0.84    0.08
   7  -2  -4   45.28    1.54
   7  -2  -4   44.45    1.65
  -7   2   4   45.87    1.41
   6  -2  -4   50.61    1.68
   6  -2  -4   51.65    1.82
  -6   2   4   48.48    1.55
   5  -2  -4   97.51    3.17
   5  -2  -4   94.32    3.49
   5  -2  -4  100.42    3.48
  -5   2   4  101.13    2.96
  -5   2   4   97.98    3.20
   4  -2  -4  114.19    3.63
   4  -2  -4  120.02    3.77
   4  -2  -4  117.11    4.16
   4  -2  -4  119.07    4.15
  -4   2   4  118.80    3.53
  -4   2   4  116.21    3.82
   3  -2  -4   44.77    1.75
   3  -2  -4   46.95    1.68
   3  -2  -4   48.33    1.47
  -3   2   4   46.30    1.43
  -3   2   4   47.09    1.55
   2  -2  -4   64.88    2.34
   2  -2  -4   60.30    2.27
  -2   2   4   63.40    1.93
  -2   2   4   66.93    2.10
   1  -2  -4  113.73    4.13
   1  -2  -4  116.15    3.78
  -1   2   4  119.40    3.78
   0  -2  -4   15.17    0.50
   0   2   4   14.17    0.50
   0   2   4   13.51    0.64
   0   2   4   13.28    0.55
  -1  -2  -4  461.99   14.18
  -1  -2  -4  423.77   15.10
   1   2   4  424.04   15.44
   1   2   4  431.60   15.56
   1   2   4  437.27   15.01
  -2  -2  -4   51.96    1.84
  -2  -2  -4   54.30    1.73
  -2  -2  -4   52.17    1.59
   2   2   4   53.18    1.92
   2   2   4   50.83    1.90
   2   2   4   52.59    1.98
  -3  -2  -4    4.70    0.21
  -3  -2  -4    4.46    0.19
  -3  -2  -4    4.22    0.18
   3   2   4    4.71    0.32
   3   2   4    4.32    0.21
   3   2   4    4.25    0.22
  -4  -2  -4   48.02    1.58
  -4  -2  -4   46.44    1.43
  -4  -2  -4   49.65    1.69
  -4  -2  -4   45.87    1.45
   4   2   4   47.38    1.75
  -5  -2  -4   20.11    0.73
  -5  -2  -4   18.90    0.62
  -5  -2  -4   18.90    0.62
  -5  -2  -4   18.73    0.67
   5   2   4   18.64    0.76
  -6  -2  -4   76.22    2.27
  -6  -2  -4   75.79    2.68
   6   2   4   75.11    1.99
  -7  -2  -4   80.84    2.42
  -7  -2  -4   80.45    2.85
   7   2   4   81.25    2.12
  -8  -2  -4    0.18    0.04
  -8  -2  -4    0.19    0.03
   8   2   4    0.20    0.05
  -9  -2  -4    1.48    0.06
   9   2   4    1.47    0.07
  11  -3  -4   12.71    0.33
 -11   3   4   12.67    0.33
  10  -3  -4    0.67    0.06
  10  -3  -4    0.77    0.06
  10  -3  -4    0.75    0.06
 -10   3   4    0.77    0.06
 -10   3   4    0.76    0.04
   9  -3  -4   10.65    0.30
   9  -3  -4    9.99    0.30
   9  -3  -4   10.30    0.32
  -9   3   4    9.78    0.35
   8  -3  -4    5.06    0.18
   8  -3  -4    5.04    0.20
   8  -3  -4    5.17    0.18
  -8   3   4    5.35    0.21
   7  -3  -4   30.92    0.85
   7  -3  -4   30.28    0.80
   7  -3  -4   31.21    0.77
   7  -3  -4   30.66    0.79
  -7   3   4   31.28    1.00
  -7   3   4   29.59    0.95
   6  -3  -4    4.09    0.22
   6  -3  -4    4.13    0.24
  -6   3   4    4.22    0.20
  -6   3   4    3.92    0.20
  -6   3   4    4.05    0.18
   5  -3  -4   50.90    1.73
   5  -3  -4   53.56    1.89
  -5   3   4   50.80    1.62
  -5   3   4   52.44    1.74
  -5   3   4   52.06    1.57
   4  -3  -4   10.41    0.56
   4  -3  -4   10.52    0.43
  -4   3   4   10.00    0.40
  -4   3   4   10.01    0.38
   3  -3  -4   39.58    1.42
   3  -3  -4   36.07    1.54
  -3   3   4   39.54    1.31
   2  -3  -4   87.90    3.25
  -2   3   4   94.92    3.00
   1  -3  -4   10.16    0.37
  -1   3   4    9.86    0.38
  -1   3   4    9.09    0.40
   0  -3  -4   21.44    0.72
   0   3   4   20.88    0.72
   0   3   4   19.57    0.80
   0   3   4   19.90    0.78
  -1  -3  -4    9.52    0.36
   1   3   4    9.10    0.41
   1   3   4    9.59    0.39
  -2  -3  -4   22.91    0.78
   2   3   4   22.35    0.87
   2   3   4   21.36    1.01
   2   3   4   22.43    0.85
  -3  -3  -4   43.83    1.54
  -3  -3  -4   42.22    1.44
  -3  -3  -4   41.57    1.31
   3   3   4   43.31    1.61
   3   3   4   43.83    1.58
  -4  -3  -4    6.24    0.25
  -4  -3  -4    6.57    0.29
  -4  -3  -4    6.13    0.27
  -4  -3  -4    6.02    0.25
   4   3   4    6.41    0.30
   4   3   4    6.54    0.32
  -5  -3  -4   48.99    1.26
  -5  -3  -4   51.04    1.52
  -5  -3  -4   50.86    1.78
   5   3   4   48.56    1.32
   5   3   4   48.37    1.21
   5   3   4   49.41    1.25
  -6  -3  -4   22.81    0.60
  -6  -3  -4   23.29    0.74
  -6  -3  -4   23.09    0.87
   6   3   4   22.56    0.64
  -7  -3  -4    4.03    0.13
  -7  -3  -4    4.32    0.19
   7   3   4    4.20    0.16
  -8  -3  -4    8.28    0.23
  -8  -3  -4    8.33    0.30
   8   3   4    8.75    0.26
  -9  -3  -4   13.13    0.34
  10  -4  -4    4.55    0.14
  10  -4  -4    4.56    0.15
 -10   4   4    4.70    0.13
   9  -4  -4    3.91    0.14
   9  -4  -4    4.13    0.15
  -9   4   4    3.71    0.12
  -9   4   4    3.90    0.16
   8  -4  -4    1.24    0.10
   8  -4  -4    0.97    0.08
  -8   4   4    1.11    0.08
  -8   4   4    1.12    0.06
   7  -4  -4   18.69    0.55
   7  -4  -4   19.20    0.48
   7  -4  -4   19.14    0.51
  -7   4   4   18.38    0.50
  -7   4   4   18.08    0.47
  -7   4   4   19.28    0.62
   6  -4  -4    2.27    0.10
   6  -4  -4    2.17    0.13
   6  -4  -4    2.22    0.09
   6  -4  -4    2.20    0.11
  -6   4   4    2.05    0.09
  -6   4   4    2.44    0.13
   5  -4  -4   26.49    0.72
   5  -4  -4   25.72    0.73
   5  -4  -4   23.93    0.77
   5  -4  -4   25.27    0.67
  -5   4   4   25.09    0.64
  -5   4   4   26.43    0.81
  -5   4   4   25.50    0.67
  -5   4   4   25.82    0.92
   4  -4  -4   12.85    0.53
  -4   4   4   12.24    0.50
   3  -4  -4   14.63    0.60
  -3   4   4   14.34    0.56
   2  -4  -4    5.38    0.28
  -2   4   4    5.57    0.28
  -2   4   4    5.53    0.26
   1  -4  -4    2.16    0.14
  -1   4   4    2.25    0.16
  -1   4   4    2.21    0.15
   0  -4  -4    3.59    0.19
   0   4   4    3.54    0.20
   0   4   4    3.48    0.23
  -1  -4  -4   14.58    0.56
   1   4   4   15.46    0.60
   1   4   4   14.89    0.64
  -2  -4  -4   79.84    2.60
   2   4   4   80.98    2.85
   2   4   4   74.35    2.87
  -3  -4  -4   40.17    1.36
  -3  -4  -4   40.43    0.98
  -3  -4  -4   40.12    1.03
  -3  -4  -4   40.15    1.24
   3   4   4   40.72    1.49
   3   4   4   39.68    0.99
   3   4   4   39.82    1.11
   3   4   4   39.37    1.03
  -4  -4  -4   88.21    2.07
  -4  -4  -4   88.79    2.62
  -4  -4  -4   88.76    2.20
   4   4   4   86.86    3.17
   4   4   4   86.43    2.19
   4   4   4   87.10    2.10
   4   4   4   86.97    2.28
   4   4   4   86.03    2.36
  -5  -4  -4   28.56    0.75
  -5  -4  -4   28.92    0.91
  -5  -4  -4   27.20    1.06
  -5  -4  -4   28.67    0.71
   5   4   4   28.90    0.72
   5   4   4   29.18    0.79
   5   4   4   29.28    0.73
  -6  -4  -4    2.42    0.09
  -6  -4  -4    2.36    0.13
   6   4   4    2.28    0.11
   6   4   4    2.22    0.10
  -7  -4  -4    5.32    0.15
   7   4   4    5.19    0.18
  -8  -4  -4   14.94    0.45
  -8  -4  -4   14.80    0.38
   8   4   4   14.96    0.41
   9  -5  -4    1.16    0.06
   8  -5  -4   15.73    0.44
   8  -5  -4   15.54    0.41
  -8   5   4   15.42    0.40
  -8   5   4   15.67    0.38
   7  -5  -4    7.91    0.20
   7  -5  -4    7.92    0.26
   7  -5  -4    7.62    0.23
   7  -5  -4    7.79    0.25
  -7   5   4    7.74    0.22
  -7   5   4    7.69    0.21
   6  -5  -4    3.41    0.13
   6  -5  -4    3.33    0.13
   6  -5  -4    3.32    0.11
   6  -5  -4    3.31    0.13
   6  -5  -4    3.19    0.15
  -6   5   4    3.59    0.11
  -6   5   4    3.44    0.12
   5  -5  -4   20.74    0.58
   5  -5  -4   19.67    0.58
   5  -5  -4   19.90    0.53
   5  -5  -4   20.03    0.53
   5  -5  -4   19.56    0.61
  -5   5   4   19.79    0.51
   4  -5  -4   14.79    0.47
   4  -5  -4   14.69    0.42
   4  -5  -4   15.10    0.45
   4  -5  -4   14.95    0.45
  -4   5   4   14.98    0.39
   3  -5  -4   10.10    0.33
   3  -5  -4   10.13    0.34
  -3   5   4   10.65    0.29
   2  -5  -4   69.46    2.02
   2  -5  -4   70.05    1.90
  -2   5   4   70.37    1.65
  -2   5   4   67.56    2.55
   1  -5  -4    6.08    0.23
   1  -5  -4    5.68    0.22
   1  -5  -4    5.59    0.18
  -1   5   4    5.95    0.30
  -1   5   4    5.68    0.22
   0  -5  -4   58.98    1.37
   0  -5  -4   57.99    1.68
   0   5   4   57.20    2.11
   0   5   4   56.55    1.58
   0   5   4   55.31    1.39
  -1  -5  -4   15.25    0.40
  -1  -5  -4   14.97    0.49
   1   5   4   15.56    0.46
   1   5   4   14.92    0.62
   1   5   4   15.16    0.41
  -2  -5  -4   19.57    0.50
  -2  -5  -4   19.78    0.62
   2   5   4   19.61    0.51
   2   5   4   18.83    0.76
   2   5   4   19.54    0.57
   2   5   4   19.23    0.53
  -3  -5  -4   20.01    0.51
  -3  -5  -4   20.69    0.63
  -3  -5  -4   18.84    0.51
   3   5   4   19.66    0.53
   3   5   4   20.14    0.57
   3   5   4   18.91    0.77
   3   5   4   19.55    0.51
  -4  -5  -4   29.60    0.75
  -4  -5  -4   30.65    0.78
  -4  -5  -4   30.39    0.92
   4   5   4   30.88    0.76
   4   5   4   29.63    0.84
   4   5   4   31.14    0.78
  -5  -5  -4   33.90    0.86
  -5  -5  -4   33.13    0.81
  -5  -5  -4   33.70    1.01
   5   5   4   34.05    0.83
  -6  -5  -4    0.28    0.03
  -6  -5  -4    0.34    0.05
  -6  -5  -4    0.27    0.03
   6   5   4    0.35    0.04
   6   5   4    0.23    0.04
  -7   6   4    9.01    0.23
   6  -6  -4    0.48    0.03
   6  -6  -4    0.45    0.04
   6  -6  -4    0.48    0.04
  -6   6   4    0.48    0.04
   5  -6  -4    0.91    0.06
   5  -6  -4    0.99    0.06
   5  -6  -4    1.00    0.06
  -5   6   4    1.01    0.06
   4  -6  -4   13.22    0.39
   4  -6  -4   12.97    0.41
   4  -6  -4   12.76    0.36
  -4   6   4   13.48    0.34
   3  -6  -4   17.42    0.53
   3  -6  -4   16.80    0.50
  -3   6   4   17.60    0.44
   2  -6  -4    9.27    0.30
   2  -6  -4    8.74    0.29
  -2   6   4    8.31    0.28
  -2   6   4    8.85    0.25
   1  -6  -4   42.46    1.24
   1  -6  -4   42.50    1.17
  -1   6   4   41.54    1.17
   0  -6  -4    9.63    0.26
   0  -6  -4    9.86    0.33
   0   6   4    9.79    0.31
  -1  -6  -4    7.95    0.23
  -1  -6  -4    8.14    0.28
   1   6   4    8.06    0.26
   1   6   4    7.94    0.23
  -2  -6  -4   14.36    0.45
  -2  -6  -4   14.37    0.37
   2   6   4   14.50    0.42
   2   6   4   13.65    0.37
   2   6   4   13.94    0.39
  -3  -6  -4    0.75    0.06
  -3  -6  -4    0.78    0.07
   3   6   4    0.61    0.05
   3   6   4    0.62    0.05
   3   6   4    0.58    0.05
  -4  -6  -4    8.88    0.23
  -4  -6  -4    8.75    0.29
   4   6   4    9.00    0.24
   3  -7  -4   13.02    0.39
   3  -7  -4   13.28    0.37
   2  -7  -4   14.35    0.39
   2  -7  -4   14.09    0.41
  -2   7   4   12.69    0.39
   1  -7  -4    3.83    0.14
   1  -7  -4    4.31    0.14
  -1   7   4    4.28    0.14
   0  -7  -4   12.84    0.37
   0   7   4   10.79    0.32
   0   7   4   12.28    0.34
  -1  -7  -4   14.38    0.44
   1   7   4   14.52    0.41
   1   7   4   15.17    0.38
   2   7  -5    2.21    0.07
   1   7  -5    6.10    0.18
  -6  -6   5    2.00    0.07
  -6  -6   5    2.07    0.07
   5   6  -5    7.16    0.21
  -5  -6   5    7.11    0.19
  -5  -6   5    7.24    0.19
  -5  -6   5    6.89    0.19
   4   6  -5    3.23    0.11
   4   6  -5    3.35    0.12
   4   6  -5    3.52    0.10
  -4  -6   5    3.42    0.11
  -4  -6   5    3.55    0.11
  -4  -6   5    3.47    0.11
   3   6  -5   10.41    0.30
   3   6  -5   10.10    0.28
   3   6  -5   10.32    0.30
  -3  -6   5   10.25    0.27
  -3  -6   5   10.37    0.27
   2   6  -5   22.22    0.60
   2   6  -5   21.24    0.56
  -2  -6   5   21.21    0.53
  -2  -6   5   21.30    0.53
   1   6  -5   48.73    1.31
  -1  -6   5   47.87    1.15
   0   6  -5   29.07    0.80
   0  -6   5   28.70    0.69
  -1   6  -5   64.29    1.74
   1  -6   5   64.93    1.75
  -2   6  -5   26.82    0.73
   2  -6   5   26.00    0.73
  -3   6  -5    3.32    0.10
   3  -6   5    3.13    0.11
   3  -6   5    3.41    0.12
  -4   6  -5    9.95    0.25
   4  -6   5    9.97    0.28
   4  -6   5   10.38    0.26
  -9  -5   5    3.70    0.11
   8   5  -5    1.74    0.08
  -8  -5   5    1.72    0.06
  -8  -5   5    1.72    0.09
   7   5  -5   56.83    1.34
  -7  -5   5   56.13    1.41
  -7  -5   5   54.87    1.68
   6   5  -5    5.97    0.19
   6   5  -5    5.98    0.18
  -6  -5   5    6.14    0.18
  -6  -5   5    6.08    0.23
   5   5  -5    4.35    0.14
   5   5  -5    4.25    0.12
   5   5  -5    4.33    0.15
  -5  -5   5    3.99    0.13
  -5  -5   5    4.12    0.13
  -5  -5   5    4.23    0.18
   4   5  -5   48.76    1.31
   4   5  -5   49.36    1.28
   4   5  -5   48.49    1.21
  -4  -5   5   47.90    1.15
  -4  -5   5   47.45    1.22
  -4  -5   5   47.23    1.46
   3   5  -5   55.40    1.45
   3   5  -5   51.99    1.92
   3   5  -5   53.93    1.34
  -3  -5   5   52.45    1.27
  -3  -5   5   52.89    1.35
   2   5  -5   19.75    0.54
   2   5  -5   17.85    0.74
   2   5  -5   18.79    0.51
  -2  -5   5   19.44    0.48
   1   5  -5   33.27    0.94
  -1  -5   5   34.08    0.82
  -1  -5   5   34.24    0.82
   0   5  -5   11.01    0.34
   0  -5   5   11.66    0.30
   0  -5   5   11.46    0.30
   0  -5   5   10.50    0.55
  -1   5  -5   48.55    1.36
   1  -5   5   52.25    2.10
   1  -5   5   49.30    1.37
  -2   5  -5    5.94    0.17
   2  -5   5    5.87    0.34
   2  -5   5    6.25    0.20
  -3   5  -5    6.47    0.18
   3  -5   5    6.35    0.21
  -4   5  -5   17.52    0.43
   4  -5   5   16.54    0.45
   4  -5   5   17.61    0.49
  -5   5  -5    7.36    0.19
   5  -5   5    7.16    0.22
   5  -5   5    7.54    0.20
  -6   5  -5    3.68    0.10
  10   4  -5    0.12    0.03
   9   4  -5    0.82    0.07
  -9  -4   5    0.70    0.06
   8   4  -5    3.79    0.15
   8   4  -5    3.93    0.13
  -8  -4   5    3.60    0.16
   7   4  -5    1.36    0.09
   7   4  -5    1.28    0.07
   7   4  -5    1.35    0.08
  -7  -4   5    1.33    0.09
   6   4  -5    0.04    0.03
   6   4  -5    0.01    0.03
   6   4  -5    0.04    0.04
  -6  -4   5    0.02    0.03
   5   4  -5   52.29    1.28
   5   4  -5   53.65    1.32
   5   4  -5   53.99    1.39
  -5  -4   5   52.95    1.60
  -5  -4   5   51.21    1.67
  -5  -4   5   52.06    1.34
   4   4  -5   41.68    1.54
  -4  -4   5   41.90    1.46
  -4  -4   5   41.87    1.39
  -4  -4   5   42.90    1.29
   3   4  -5  170.68    6.14
  -3  -4   5  178.56    5.79
  -3  -4   5  180.97    5.19
   2   4  -5   17.65    0.68
  -2  -4   5   16.86    0.68
   1   4  -5   22.28    0.87
  -1  -4   5   23.71    1.01
  -1  -4   5   22.68    0.87
   0   4  -5   54.73    1.93
   0  -4   5   53.05    2.22
   0  -4   5   52.82    1.86
  -1   4  -5   13.29    0.58
   1  -4   5   13.75    0.64
  -2   4  -5   23.75    0.93
  -2   4  -5   24.24    0.59
   2  -4   5   23.96    0.68
   2  -4   5   24.61    1.07
  -3   4  -5   54.07    1.31
  -3   4  -5   55.11    2.08
   3  -4   5   54.96    2.30
   3  -4   5   56.63    1.50
  -4   4  -5    0.04    0.08
  -4   4  -5    0.07    0.03
   4  -4   5    0.04    0.07
   4  -4   5    0.24    0.04
   4  -4   5    0.10    0.04
  -5   4  -5    6.38    0.18
   5  -4   5    6.43    0.22
   5  -4   5    6.64    0.19
   5  -4   5    6.42    0.20
  -6   4  -5   10.73    0.28
   6  -4   5   10.64    0.34
   6  -4   5   11.28    0.28
  -7   4  -5    6.87    0.17
   7  -4   5    6.37    0.21
  11   3  -5    2.95    0.10
  10   3  -5    9.76    0.29
   9   3  -5   11.08    0.34
   8   3  -5    9.54    0.26
   8   3  -5    9.71    0.30
   8   3  -5    9.72    0.29
   7   3  -5    0.85    0.06
   7   3  -5    0.82    0.08
   7   3  -5    0.76    0.06
  -7  -3   5    0.82    0.09
   6   3  -5   23.17    0.82
  -6  -3   5   21.99    0.72
  -6  -3   5   24.40    0.77
   5   3  -5   35.24    1.19
   5   3  -5   37.36    1.31
  -5  -3   5   34.79    1.22
  -5  -3   5   36.67    1.14
  -5  -3   5   34.00    1.08
   4   3  -5   68.36    2.19
   4   3  -5   71.87    2.45
  -4  -3   5   69.21    2.31
  -4  -3   5   66.52    2.06
  -4  -3   5   69.68    2.13
   3   3  -5   23.49    0.94
   3   3  -5   24.40    0.89
  -3  -3   5   23.25    0.78
  -3  -3   5   23.14    1.01
  -3  -3   5   23.49    0.85
   2   3  -5   68.94    2.72
   2   3  -5   76.56    2.68
  -2  -3   5   79.03    3.09
  -2  -3   5   79.14    2.54
   1   3  -5   10.25    0.44
  -1  -3   5   11.52    0.52
  -1  -3   5   11.05    0.45
   0   3  -5   39.61    1.41
   0   3  -5   41.49    1.46
   0  -3   5   40.92    1.69
   0  -3   5   39.75    1.41
  -1   3  -5   95.03    3.43
  -1   3  -5   97.76    3.26
   1  -3   5  104.28    3.97
   1  -3   5   94.74    3.26
  -2   3  -5    9.22    0.41
  -2   3  -5    9.71    0.44
  -2   3  -5    9.81    0.43
   2  -3   5   10.26    0.49
  -3   3  -5  135.09    4.50
  -3   3  -5  141.03    4.93
   3  -3   5  131.98    5.48
  -4   3  -5   63.85    1.52
  -4   3  -5   64.61    1.62
  -4   3  -5   66.70    2.40
  -4   3  -5   64.85    2.21
   4  -3   5   61.98    1.62
   4  -3   5   64.87    2.66
   4  -3   5   63.79    1.74
  -5   3  -5    2.65    0.09
  -5   3  -5    2.61    0.09
  -5   3  -5    2.52    0.21
   5  -3   5    2.49    0.11
   5  -3   5    2.47    0.12
   5  -3   5    2.56    0.10
   5  -3   5    2.45    0.20
   5  -3   5    2.71    0.10
  -6   3  -5   11.11    0.30
  -6   3  -5   11.13    0.31
   6  -3   5   11.95    0.36
   6  -3   5   11.42    0.33
   6  -3   5   11.63    0.30
  -7   3  -5    3.52    0.11
  -7   3  -5    3.82    0.11
   7  -3   5    3.52    0.14
   7  -3   5    3.63    0.14
  -8   3  -5    8.57    0.23
   8  -3   5    8.37    0.23
   8  -3   5    8.43    0.27
  11   2  -5    6.83    0.21
  10   2  -5    5.04    0.18
   9   2  -5   31.53    0.86
   8   2  -5   10.69    0.32
   8   2  -5   10.48    0.31
   8   2  -5   10.63    0.28
  -8  -2   5    9.73    0.35
   7   2  -5   21.85    0.90
   7   2  -5   22.45    0.79
  -7  -2   5   22.14    0.71
   6   2  -5   25.76    1.01
   6   2  -5   25.52    0.88
  -6  -2   5   25.80    0.81
   5   2  -5    3.60    0.18
   5   2  -5    3.91    0.20
   5   2  -5    3.44    0.22
   5   2  -5    3.99    0.20
  -5  -2   5    4.13    0.17
  -5  -2   5    3.89    0.22
   4   2  -5   61.82    2.11
   4   2  -5   58.26    2.16
   4   2  -5   59.80    1.89
   4   2  -5   59.39    2.12
  -4  -2   5   61.79    1.82
  -4  -2   5   58.37    2.43
  -4  -2   5   58.46    1.98
   3   2  -5   88.40    2.75
   3   2  -5   88.65    3.08
   3   2  -5   87.27    3.10
   3   2  -5   86.81    3.15
  -3  -2   5   91.18    2.67
  -3  -2   5   85.83    2.90
  -3  -2   5   89.96    3.56
   2   2  -5   41.15    1.52
   2   2  -5   41.72    1.32
   2   2  -5   41.62    1.49
   2   2  -5   39.49    1.53
  -2  -2   5   42.71    1.30
  -2  -2   5   41.45    1.72
  -2  -2   5   44.61    1.42
   1   2  -5  215.90    7.38
   1   2  -5  226.24    7.87
   1   2  -5  225.02    7.89
  -1  -2   5  238.78    9.10
  -1  -2   5  235.40    7.39
   0   2  -5  149.96    4.86
   0   2  -5  146.28    5.16
   0  -2   5  150.24    5.97
   0  -2   5  150.38    4.86
   0  -2   5  148.40    4.74
  -1   2  -5   75.45    2.60
  -1   2  -5   76.05    2.47
   1  -2   5   77.87    3.02
   1  -2   5   69.90    2.40
   1  -2   5   72.15    2.47
  -2   2  -5   36.27    1.23
  -2   2  -5   33.81    1.27
   2  -2   5   34.16    1.48
   2  -2   5   37.25    1.20
  -3   2  -5   41.18    1.49
  -3   2  -5   41.80    1.55
  -3   2  -5   41.55    1.43
   3  -2   5   40.43    1.72
   3  -2   5   41.86    1.40
  -4   2  -5   18.17    0.70
  -4   2  -5   17.88    0.71
  -4   2  -5   18.51    0.60
  -4   2  -5   18.80    0.76
   4  -2   5   18.69    0.82
   4  -2   5   18.35    0.70
  -5   2  -5   77.40    1.97
  -5   2  -5   77.44    1.84
  -5   2  -5   78.33    2.63
  -5   2  -5   80.39    2.89
  -5   2  -5   77.95    2.34
   5  -2   5   77.98    1.93
   5  -2   5   80.17    1.96
   5  -2   5   77.95    2.25
   5  -2   5   77.54    2.10
  -6   2  -5   86.02    1.98
  -6   2  -5   88.22    2.52
  -6   2  -5   82.11    2.12
  -6   2  -5   82.56    3.11
   6  -2   5   83.13    2.07
   6  -2   5   85.06    2.43
   6  -2   5   83.76    2.10
  -7   2  -5   40.99    1.26
  -7   2  -5   40.70    1.05
   7  -2   5   41.88    1.04
   7  -2   5   41.08    1.21
  -8   2  -5    3.15    0.10
  -8   2  -5    3.13    0.14
   8  -2   5    3.44    0.13
   8  -2   5    3.35    0.13
  -9   2  -5   15.83    0.41
   9  -2   5   15.85    0.41
   9   1  -5   44.74    1.20
   8   1  -5   52.45    1.96
   8   1  -5   53.77    1.73
  -8  -1   5   52.26    1.59
   7   1  -5    2.80    0.19
   7   1  -5    2.65    0.17
  -7  -1   5    2.97    0.12
   6   1  -5   29.82    1.00
   6   1  -5   30.69    1.14
  -6  -1   5   29.55    0.92
   5   1  -5   15.88    0.61
   5   1  -5   16.65    0.58
   5   1  -5   16.86    0.66
   5   1  -5   16.87    0.63
  -5  -1   5   16.95    0.52
   4   1  -5   39.51    1.38
   4   1  -5   39.63    1.23
   4   1  -5   34.40    1.36
   4   1  -5   38.54    1.40
  -4  -1   5   40.07    1.17
  -4  -1   5   39.41    1.58
  -4  -1   5   37.08    1.27
   3   1  -5    8.00    0.34
   3   1  -5    7.86    0.29
   3   1  -5    7.29    0.32
   3   1  -5    7.49    0.31
  -3  -1   5    7.97    0.36
  -3  -1   5    7.37    0.29
   2   1  -5  201.07    7.08
   2   1  -5  204.33    7.20
   2   1  -5  210.21    6.36
   2   1  -5  217.05    7.09
   2   1  -5  175.32    9.29
  -2  -1   5  213.36    6.75
  -2  -1   5  217.48    6.16
   1   1  -5  199.18    6.76
   1   1  -5  199.41    5.96
   1   1  -5  202.39    6.04
   1   1  -5  191.07    6.33
   1   1  -5  188.69    6.74
  -1  -1   5  189.21    5.83
  -1  -1   5  201.32    6.40
   0   1  -5  114.85    3.80
   0   1  -5  122.86    4.04
   0   1  -5  111.16    3.61
   0  -1   5  115.24    4.67
   0  -1   5  119.62    3.80
  -1   1  -5  129.66    4.45
  -1   1  -5  132.17    4.18
   1  -1   5  125.55    4.50
   1  -1   5  122.68    5.14
   1  -1   5  128.74    4.18
   1  -1   5  131.87    4.10
  -2   1  -5   18.20    0.63
  -2   1  -5   17.98    0.65
   2  -1   5   16.31    0.75
   2  -1   5   17.73    0.63
   2  -1   5   16.99    0.73
  -3   1  -5   13.72    0.52
  -3   1  -5   13.50    0.47
  -3   1  -5   13.61    0.53
   3  -1   5   13.83    0.61
   3  -1   5   13.40    0.52
  -4   1  -5    2.62    0.12
  -4   1  -5    2.46    0.14
  -4   1  -5    2.46    0.16
  -4   1  -5    2.41    0.15
   4  -1   5    2.35    0.18
  -5   1  -5   12.68    0.52
  -5   1  -5   13.68    0.57
  -5   1  -5   13.14    0.45
  -5   1  -5   13.35    0.48
  -5   1  -5   13.86    0.53
   5  -1   5   12.90    0.54
  -6   1  -5   22.95    0.93
  -6   1  -5   24.31    0.63
  -6   1  -5   24.62    0.97
  -6   1  -5   24.27    0.78
   6  -1   5   24.33    0.62
   6  -1   5   25.02    0.74
   6  -1   5   24.88    0.64
  -7   1  -5   53.25    1.53
  -7   1  -5   49.15    1.28
  -7   1  -5   48.46    1.89
   7  -1   5   51.03    1.26
   7  -1   5   49.74    1.47
  -8   1  -5   19.14    0.51
  -8   1  -5   19.46    0.62
   8  -1   5   19.86    0.52
  -9   1  -5   32.19    0.80
   9  -1   5   30.98    0.79
  10   0  -5    0.13    0.05
  10   0  -5    0.24    0.05
   9   0  -5  276.63    7.02
   9   0  -5  266.78    6.54
   8   0  -5    0.83    0.11
   8   0  -5    0.79    0.12
  -8   0   5    0.63    0.04
   7   0  -5   13.95    0.53
   7   0  -5   13.27    0.56
   7   0  -5   12.67    0.49
  -7   0   5   14.37    0.43
   6   0  -5  141.34    4.50
   6   0  -5  139.16    4.35
   6   0  -5  142.51    4.96
  -6   0   5  138.79    4.18
   5   0  -5   50.33    1.54
   5   0  -5   45.70    1.71
   5   0  -5   48.59    1.75
   5   0  -5   49.39    1.60
  -5   0   5   49.09    1.46
   4   0  -5   25.64    0.82
   4   0  -5   25.30    0.94
   4   0  -5   26.07    0.93
  -4   0   5   24.40    0.84
  -4   0   5   24.51    0.77
   3   0  -5    9.17    0.39
   3   0  -5    8.44    0.34
   3   0  -5    9.29    0.31
  -3   0   5    8.69    0.29
  -3   0   5    8.45    0.31
   2   0  -5    4.59    0.18
   2   0  -5    4.66    0.24
   2   0  -5    4.38    0.19
  -2   0   5    4.55    0.17
  -2   0   5    4.75    0.18
   1   0  -5   75.89    2.50
   1   0  -5   72.64    2.70
   1   0  -5   75.21    2.38
   1   0  -5   81.21    2.72
  -1   0   5   79.59    2.50
  -1   0   5   76.31    2.30
   0   0  -5   17.76    0.56
   0   0  -5   14.89    0.56
   0   0   5   15.06    0.65
   0   0   5   15.98    0.55
  -1   0  -5    2.12    0.15
  -1   0  -5    1.94    0.11
  -1   0  -5    1.92    0.11
   1   0   5    1.77    0.10
   1   0   5    1.87    0.16
  -2   0  -5    0.65    0.06
  -2   0  -5    0.81    0.07
  -2   0  -5    0.64    0.07
   2   0   5    0.74    0.12
  -3   0  -5  149.20    4.64
  -3   0  -5  154.82    5.04
  -3   0  -5  159.77    5.38
   3   0   5  149.86    5.44
   3   0   5  163.01    4.97
  -4   0  -5    3.59    0.17
  -4   0  -5    3.73    0.19
  -4   0  -5    3.58    0.15
  -4   0  -5    3.76    0.19
   4   0   5    3.28    0.21
  -5   0  -5   13.34    0.54
  -5   0  -5   13.89    0.52
  -5   0  -5   13.77    0.48
  -5   0  -5   14.28    0.46
   5   0   5   13.07    0.55
  -6   0  -5    4.91    0.15
  -6   0  -5    4.82    0.25
  -6   0  -5    5.07    0.21
   6   0   5    5.00    0.18
   6   0   5    4.97    0.19
   6   0   5    5.10    0.15
  -7   0  -5    0.50    0.06
  -7   0  -5    0.53    0.04
  -7   0  -5    0.48    0.08
   7   0   5    0.57    0.06
  -8   0  -5   12.62    0.35
  -8   0  -5   13.21    0.43
   8   0   5   12.76    0.36
  -9   0  -5    2.19    0.07
   9   0   5    2.13    0.09
  12  -1  -5    1.72    0.07
  11  -1  -5    4.31    0.16
  11  -1  -5    4.76    0.16
  10  -1  -5   30.06    0.77
  10  -1  -5   29.62    0.82
   9  -1  -5   43.73    1.19
   9  -1  -5   44.47    1.11
   8  -1  -5   53.18    2.00
   8  -1  -5   52.89    1.85
  -8   1   5   57.58    1.66
   7  -1  -5    2.79    0.17
   7  -1  -5    2.98    0.19
  -7   1   5    2.99    0.13
   6  -1  -5   29.47    1.04
   6  -1  -5   29.77    0.99
   6  -1  -5   30.93    1.12
  -6   1   5   30.50    0.94
   5  -1  -5   16.59    0.56
   5  -1  -5   15.69    0.67
   5  -1  -5   16.16    0.60
   5  -1  -5   16.18    0.67
   5  -1  -5   17.37    0.64
  -5   1   5   16.60    0.56
  -5   1   5   17.29    0.53
   4  -1  -5   38.55    1.21
   4  -1  -5   38.62    1.42
   4  -1  -5   37.87    1.37
  -4   1   5   37.19    1.25
  -4   1   5   37.09    1.16
   3  -1  -5    7.58    0.31
   3  -1  -5    7.76    0.28
   3  -1  -5    7.92    0.39
  -3   1   5    7.69    0.29
  -3   1   5    7.80    0.27
   2  -1  -5  213.22    7.72
   2  -1  -5  219.21    7.58
   2  -1  -5  226.10    6.72
  -2   1   5  221.77    7.10
  -2   1   5  213.60    6.50
   1  -1  -5  204.73    6.92
   1  -1  -5  192.02    6.42
   1  -1  -5  194.07    6.99
  -1   1   5  205.63    6.44
   0  -1  -5  122.20    3.84
   0   1   5  115.10    4.19
   0   1   5  118.22    3.84
  -1  -1  -5  131.24    4.11
  -1  -1  -5  128.44    4.38
   1   1   5  124.16    4.47
   1   1   5  125.60    4.10
   1   1   5  123.39    4.51
  -2  -1  -5   16.86    0.56
  -2  -1  -5   17.45    0.65
  -2  -1  -5   18.23    0.62
   2   1   5   18.07    0.63
   2   1   5   17.76    0.77
   2   1   5   17.66    0.67
  -3  -1  -5   13.91    0.47
  -3  -1  -5   15.07    0.55
  -3  -1  -5   14.21    0.51
   3   1   5   13.90    0.66
   3   1   5   14.11    0.54
   3   1   5   14.13    0.56
  -4  -1  -5    2.85    0.14
  -4  -1  -5    2.31    0.15
  -4  -1  -5    2.25    0.12
  -4  -1  -5    2.36    0.12
   4   1   5    2.51    0.15
   4   1   5    2.51    0.17
  -5  -1  -5   12.38    0.44
  -5  -1  -5   12.82    0.43
  -5  -1  -5   12.53    0.48
  -5  -1  -5   12.83    0.51
   5   1   5   12.69    0.53
  -6  -1  -5   23.23    0.62
  -6  -1  -5   23.07    0.90
  -6  -1  -5   24.67    0.77
   6   1   5   24.63    0.67
   6   1   5   24.36    0.61
  -7  -1  -5   52.81    1.32
  -7  -1  -5   53.49    1.59
   7   1   5   50.22    1.38
  -8  -1  -5   19.36    0.51
  -8  -1  -5   19.44    0.62
  -9  -1  -5   31.30    0.77
  -9  -1  -5   29.66    0.77
  11  -2  -5    7.14    0.22
  11  -2  -5    7.26    0.21
  10  -2  -5    5.14    0.18
  10  -2  -5    4.87    0.16
  10  -2  -5    5.18    0.19
 -10   2   5    4.77    0.19
   9  -2  -5   29.84    0.79
   9  -2  -5   31.11    0.84
   9  -2  -5   30.41    0.79
   8  -2  -5   10.53    0.31
   8  -2  -5   10.46    0.31
   8  -2  -5   10.90    0.34
   7  -2  -5   22.35    0.87
   7  -2  -5   22.79    0.83
  -7   2   5   22.61    0.74
   6  -2  -5   25.74    0.96
   6  -2  -5   25.05    0.90
  -6   2   5   25.20    0.81
   5  -2  -5    4.05    0.21
   5  -2  -5    4.23    0.21
   5  -2  -5    3.71    0.27
  -5   2   5    4.06    0.18
  -5   2   5    4.08    0.18
   4  -2  -5   66.07    2.35
   4  -2  -5   64.82    2.34
   4  -2  -5   61.42    1.98
   4  -2  -5   62.83    2.26
  -4   2   5   62.44    2.08
  -4   2   5   61.64    1.92
   3  -2  -5   94.57    3.21
   3  -2  -5   88.35    3.27
   3  -2  -5   90.70    2.81
  -3   2   5   91.58    2.95
  -3   2   5   87.35    2.73
   2  -2  -5   42.86    1.61
   2  -2  -5   45.08    1.72
  -2   2   5   46.22    1.49
   1  -2  -5  232.05    7.43
   1  -2  -5  221.04    8.07
  -1   2   5  238.05    7.44
   0  -2  -5  158.65    4.93
   0  -2  -5  142.04    5.34
   0   2   5  155.74    4.93
   0   2   5  152.31    5.44
  -1  -2  -5   72.33    2.62
  -1  -2  -5   78.85    2.47
   1   2   5   72.31    2.78
   1   2   5   77.02    2.72
  -2  -2  -5   36.31    1.29
  -2  -2  -5   36.73    1.22
   2   2   5   34.70    1.46
   2   2   5   35.03    1.33
   2   2   5   37.90    1.35
  -3  -2  -5   42.77    1.45
  -3  -2  -5   38.66    1.25
  -3  -2  -5   39.13    1.36
  -3  -2  -5   39.22    1.23
   3   2   5   42.50    1.51
  -4  -2  -5   18.14    0.65
  -4  -2  -5   18.94    0.69
  -4  -2  -5   17.62    0.60
  -4  -2  -5   18.02    0.59
   4   2   5   17.68    0.72
  -5  -2  -5   77.37    2.61
  -5  -2  -5   80.67    2.80
  -5  -2  -5   78.29    2.00
  -5  -2  -5   79.97    2.42
  -5  -2  -5   80.88    2.38
   5   2   5   78.62    1.98
   5   2   5   79.62    2.08
  -6  -2  -5   82.62    2.11
  -6  -2  -5   83.98    2.12
  -6  -2  -5   89.16    2.52
  -6  -2  -5   82.60    2.97
   6   2   5   82.87    2.21
  -7  -2  -5   44.66    1.33
  -7  -2  -5   42.23    1.10
  -7  -2  -5   42.21    1.10
   7   2   5   43.47    1.15
  -8  -2  -5    3.33    0.11
  -8  -2  -5    3.37    0.15
   8   2   5    3.51    0.13
  -9  -2  -5   15.72    0.41
  11  -3  -5    2.96    0.11
  11  -3  -5    3.15    0.11
 -11   3   5    3.03    0.09
  10  -3  -5    9.73    0.27
  10  -3  -5    9.32    0.27
  10  -3  -5    9.16    0.29
 -10   3   5    9.67    0.32
 -10   3   5    8.83    0.25
   9  -3  -5   10.50    0.32
   9  -3  -5   10.97    0.34
   9  -3  -5   10.96    0.31
  -9   3   5   11.18    0.38
   8  -3  -5    9.49    0.32
   8  -3  -5   10.12    0.29
   8  -3  -5    9.49    0.29
  -8   3   5   10.01    0.35
   7  -3  -5    0.79    0.08
   7  -3  -5    0.69    0.07
   7  -3  -5    1.03    0.09
   7  -3  -5    0.78    0.04
  -7   3   5    0.78    0.10
  -7   3   5    0.75    0.07
   6  -3  -5   24.53    0.93
  -6   3   5   24.36    0.77
  -6   3   5   24.33    0.85
  -6   3   5   23.87    0.80
   5  -3  -5   35.96    1.32
  -5   3   5   35.04    1.13
  -5   3   5   35.32    1.10
  -5   3   5   35.61    1.21
   4  -3  -5   70.20    2.46
  -4   3   5   67.69    2.27
  -4   3   5   67.25    2.05
   3  -3  -5   23.74    0.89
   3  -3  -5   23.25    0.78
   3  -3  -5   22.41    1.04
  -3   3   5   24.21    0.83
   2  -3  -5   70.47    2.57
  -2   3   5   73.31    2.38
   1  -3  -5   10.35    0.44
   1  -3  -5   10.91    0.41
  -1   3   5   11.01    0.41
   0  -3  -5   39.88    1.33
   0   3   5   38.20    1.33
   0   3   5   40.23    1.48
  -1  -3  -5   99.46    3.15
   1   3   5   95.12    3.45
   1   3   5   93.76    3.48
  -2  -3  -5    9.39    0.34
  -2  -3  -5    9.94    0.38
   2   3   5    9.70    0.43
   2   3   5    9.80    0.40
  -3  -3  -5  134.23    4.38
  -3  -3  -5  133.54    3.97
  -3  -3  -5  132.91    4.66
   3   3   5  140.55    4.82
   3   3   5  129.70    4.83
  -4  -3  -5   63.84    2.11
  -4  -3  -5   65.09    1.92
  -4  -3  -5   62.50    1.51
  -4  -3  -5   63.03    2.24
  -4  -3  -5   64.06    1.60
   4   3   5   62.77    1.72
   4   3   5   62.35    1.60
   4   3   5   63.83    1.54
   4   3   5   62.52    1.67
  -5  -3  -5    2.58    0.11
  -5  -3  -5    2.70    0.17
  -5  -3  -5    2.90    0.15
  -5  -3  -5    2.64    0.10
   5   3   5    2.63    0.10
   5   3   5    2.50    0.13
  -6  -3  -5   11.54    0.40
  -6  -3  -5   11.47    0.32
   6   3   5   11.19    0.35
  -7  -3  -5    3.78    0.17
  -7  -3  -5    3.60    0.12
   7   3   5    3.81    0.15
  -8  -3  -5    9.00    0.24
   8   3   5    8.52    0.26
  10  -4  -5    0.07    0.03
  10  -4  -5    0.09    0.03
 -10   4   5    0.16    0.02
   9  -4  -5    0.81    0.06
   9  -4  -5    0.85    0.07
  -9   4   5    0.78    0.07
  -9   4   5    0.77    0.04
   8  -4  -5    3.75    0.16
   8  -4  -5    3.78    0.14
  -8   4   5    3.71    0.17
  -8   4   5    3.65    0.12
   7  -4  -5    1.31    0.09
   7  -4  -5    1.48    0.10
   7  -4  -5    1.45    0.06
  -7   4   5    1.33    0.10
  -7   4   5    1.30    0.06
  -7   4   5    1.53    0.07
   6  -4  -5    0.06    0.04
   6  -4  -5    0.11    0.05
   6  -4  -5    0.08    0.04
   6  -4  -5    0.05    0.04
  -6   4   5   -0.01    0.03
  -6   4   5    0.04    0.03
  -6   4   5    0.05    0.02
   5  -4  -5   52.74    1.44
   5  -4  -5   52.05    1.34
   5  -4  -5   50.64    1.41
   5  -4  -5   52.88    1.33
  -5   4   5   52.54    1.26
  -5   4   5   54.32    1.60
  -5   4   5   53.63    1.78
  -5   4   5   51.29    1.33
   4  -4  -5   41.35    1.53
  -4   4   5   40.79    1.41
   3  -4  -5  176.82    6.32
  -3   4   5  180.56    5.82
   2  -4  -5   17.15    0.67
  -2   4   5   15.89    0.62
   1  -4  -5   20.93    0.84
   1  -4  -5   21.80    0.77
  -1   4   5   21.78    0.78
  -1   4   5   21.02    0.87
   0  -4  -5   52.19    1.73
   0   4   5   50.06    1.92
  -1  -4  -5   12.64    0.49
   1   4   5   13.18    0.53
   1   4   5   12.79    0.56
  -2  -4  -5   24.78    0.86
  -2  -4  -5   23.83    0.75
  -2  -4  -5   23.93    0.63
  -2  -4  -5   24.23    0.61
   2   4   5   24.19    0.92
   2   4   5   23.82    0.62
   2   4   5   23.76    0.70
  -3  -4  -5   54.92    1.31
  -3  -4  -5   53.34    1.38
   3   4   5   54.42    1.49
   3   4   5   54.99    2.00
   3   4   5   54.50    1.33
   3   4   5   54.00    1.39
  -4  -4  -5    0.02    0.04
  -4  -4  -5    0.08    0.04
  -4  -4  -5    0.09    0.03
   4   4   5    0.12    0.04
   4   4   5    0.07    0.04
   4   4   5    0.06    0.04
   4   4   5    0.06    0.04
  -5  -4  -5    6.41    0.19
  -5  -4  -5    6.50    0.19
  -5  -4  -5    6.26    0.25
   5   4   5    6.28    0.20
   5   4   5    6.65    0.18
   5   4   5    6.20    0.22
  -6  -4  -5   10.78    0.29
  -6  -4  -5   10.46    0.28
   6   4   5   10.60    0.31
   6   4   5   10.24    0.28
  -7  -4  -5    6.67    0.23
  -7  -4  -5    6.87    0.19
   7   4   5    6.82    0.21
   9  -5  -5    3.50    0.12
   8  -5  -5    1.78    0.09
   8  -5  -5    1.69    0.08
  -8   5   5    1.87    0.07
  -8   5   5    1.79    0.06
   7  -5  -5   57.07    1.38
   7  -5  -5   55.29    1.40
   7  -5  -5   54.38    1.48
  -7   5   5   54.98    1.40
  -7   5   5   57.21    1.32
   6  -5  -5    6.22    0.18
   6  -5  -5    5.79    0.21
   6  -5  -5    6.60    0.20
   6  -5  -5    6.14    0.20
  -6   5   5    6.03    0.18
  -6   5   5    5.86    0.17
   5  -5  -5    4.24    0.15
   5  -5  -5    4.03    0.15
   5  -5  -5    4.15    0.16
   5  -5  -5    4.25    0.17
   5  -5  -5    3.98    0.16
  -5   5   5    4.20    0.14
   4  -5  -5   48.01    1.30
   4  -5  -5   47.16    1.38
   4  -5  -5   46.57    1.20
  -4   5   5   46.92    1.14
   3  -5  -5   50.63    1.51
   3  -5  -5   52.68    1.43
  -3   5   5   51.41    1.24
   2  -5  -5   19.22    0.57
   2  -5  -5   19.46    0.60
  -2   5   5   19.25    0.50
   1  -5  -5   32.79    0.97
   1  -5  -5   32.81    0.92
   1  -5  -5   31.96    0.79
  -1   5   5   31.39    0.92
   0  -5  -5   11.00    0.38
   0  -5  -5   11.21    0.31
   0   5   5   11.29    0.36
   0   5   5   11.21    0.32
  -1  -5  -5   50.18    1.22
  -1  -5  -5   51.67    1.50
   1   5   5   50.88    1.24
   1   5   5   49.61    1.40
  -2  -5  -5    5.88    0.19
  -2  -5  -5    6.27    0.23
   2   5   5    5.59    0.28
   2   5   5    5.81    0.21
   2   5   5    5.73    0.19
   2   5   5    5.90    0.20
  -3  -5  -5    6.49    0.20
  -3  -5  -5    6.70    0.25
   3   5   5    6.49    0.20
   3   5   5    6.62    0.22
   3   5   5    6.56    0.20
  -4  -5  -5   16.23    0.42
  -4  -5  -5   16.55    0.52
   4   5   5   15.71    0.46
   4   5   5   16.88    0.43
   4   5   5   17.03    0.43
  -5  -5  -5    7.50    0.25
  -5  -5  -5    6.87    0.20
   5   5   5    7.02    0.20
  -6  -5  -5    3.38    0.13
   6   5   5    3.12    0.10
  -7   6   5    8.88    0.22
   6  -6  -5    2.19    0.07
   6  -6  -5    1.97    0.07
  -6   6   5    2.08    0.08
   5  -6  -5    7.38    0.22
   5  -6  -5    7.18    0.20
   5  -6  -5    6.97    0.23
  -5   6   5    7.50    0.20
   4  -6  -5    3.28    0.12
   4  -6  -5    3.37    0.13
   4  -6  -5    3.23    0.13
  -4   6   5    3.36    0.12
   3  -6  -5    9.79    0.32
   3  -6  -5    9.73    0.31
  -3   6   5   10.22    0.27
   2  -6  -5   20.39    0.61
   2  -6  -5   20.24    0.59
  -2   6   5   20.00    0.59
   1  -6  -5   46.21    1.25
   1  -6  -5   45.73    1.33
  -1   6   5   44.04    1.25
   0  -6  -5   28.37    0.70
   0  -6  -5   29.64    0.87
   0   6   5   28.70    0.82
  -1  -6  -5   68.29    1.94
  -1  -6  -5   66.88    1.58
   1   6   5   66.77    1.61
   1   6   5   63.80    1.69
   1   6   5   68.76    1.82
  -2  -6  -5   28.78    0.82
  -2  -6  -5   26.43    0.67
   2   6   5   26.93    0.71
   2   6   5   26.76    0.68
   2   6   5   28.65    0.77
  -3  -6  -5    3.41    0.14
  -3  -6  -5    3.36    0.11
   3   6   5    3.46    0.11
   3   6   5    3.64    0.11
   3   6   5    3.40    0.12
  -4  -6  -5   10.02    0.31
  -4  -6  -5   10.10    0.25
   4   6   5    9.82    0.26
   6   6  -6    4.82    0.14
  -6  -6   6    4.79    0.13
  -6  -6   6    4.89    0.13
   5   6  -6    5.30    0.16
  -5  -6   6    5.46    0.15
  -5  -6   6    5.55    0.15
   4   6  -6    6.14    0.16
   4   6  -6    6.23    0.18
  -4  -6   6    5.64    0.16
  -4  -6   6    5.93    0.16
   3   6  -6   12.31    0.35
   3   6  -6   12.22    0.34
   3   6  -6   12.12    0.32
  -3  -6   6   12.31    0.31
   2   6  -6   30.41    0.81
   2   6  -6   29.72    0.79
   2   6  -6   28.17    0.75
  -2  -6   6   29.71    0.71
   1   6  -6    0.71    0.06
  -1  -6   6    0.75    0.05
   0   6  -6    0.39    0.04
  -1   6  -6    6.67    0.21
   1  -6   6    6.58    0.21
  -2   6  -6    1.49    0.07
   2  -6   6    1.56    0.07
   3  -6   6   16.59    0.43
   3  -6   6   16.50    0.46
   8   5  -6    5.98    0.19
  -8  -5   6    6.60    0.17
   7   5  -6   14.65    0.39
  -7  -5   6   14.01    0.46
  -7  -5   6   13.97    0.37
   6   5  -6   31.17    0.82
  -6  -5   6   31.22    0.78
  -6  -5   6   30.35    0.74
  -6  -5   6   29.67    0.94
   5   5  -6    2.81    0.10
   5   5  -6    2.91    0.09
   5   5  -6    2.88    0.11
  -5  -5   6    2.97    0.10
  -5  -5   6    2.92    0.10
  -5  -5   6    2.91    0.10
  -5  -5   6    2.88    0.14
   4   5  -6   23.85    0.64
   4   5  -6   23.29    0.60
   4   5  -6   23.36    0.65
  -4  -5   6   23.27    0.58
  -4  -5   6   23.59    0.61
  -4  -5   6   23.62    0.58
   3   5  -6    5.12    0.17
   3   5  -6    5.30    0.17
   3   5  -6    5.11    0.16
   3   5  -6    4.93    0.27
  -3  -5   6    4.91    0.15
  -3  -5   6    4.86    0.15
  -3  -5   6    4.99    0.15
   2   5  -6    6.77    0.34
   2   5  -6    7.15    0.23
   2   5  -6    7.11    0.21
  -2  -5   6    7.18    0.20
  -2  -5   6    7.36    0.20
  -2  -5   6    7.09    0.20
   1   5  -6   45.82    1.27
  -1  -5   6   46.10    1.10
  -1  -5   6   47.20    1.11
   0   5  -6   28.76    0.79
   0  -5   6   26.90    1.22
   0  -5   6   28.67    0.68
  -1   5  -6   12.33    0.35
   1  -5   6   11.62    0.35
   1  -5   6   11.28    0.57
  -2   5  -6    0.61    0.05
   2  -5   6    0.50    0.05
  -3   5  -6    9.36    0.25
   3  -5   6    9.90    0.29
  -4   5  -6    0.53    0.04
   4  -5   6    0.61    0.05
   4  -5   6    0.57    0.05
  -5   5  -6   10.03    0.25
   5  -5   6    9.53    0.28
   5  -5   6   10.29    0.26
  10   4  -6    1.91    0.08
   9   4  -6    8.94    0.27
  -9  -4   6    9.06    0.30
   8   4  -6    3.21    0.13
   8   4  -6    3.35    0.12
  -8  -4   6    3.29    0.15
   7   4  -6    1.39    0.09
   7   4  -6    1.38    0.08
   7   4  -6    1.26    0.07
  -7  -4   6    1.40    0.09
   6   4  -6    0.67    0.06
   6   4  -6    0.67    0.05
   6   4  -6    0.57    0.06
  -6  -4   6    0.64    0.04
  -6  -4   6    0.62    0.07
   5   4  -6   62.22    2.24
   5   4  -6   63.14    1.64
   5   4  -6   62.64    1.55
   5   4  -6   62.05    1.50
  -5  -4   6   59.15    1.47
  -5  -4   6   62.20    1.57
  -5  -4   6   65.16    1.88
   4   4  -6  143.44    3.76
   4   4  -6  141.71    3.50
   4   4  -6  144.95    3.66
   4   4  -6  137.67    4.93
  -4  -4   6  141.40    3.29
  -4  -4   6  135.90    4.64
  -4  -4   6  140.24    3.53
  -4  -4   6  143.21    4.16
   3   4  -6   11.90    0.52
  -3  -4   6   12.19    0.52
  -3  -4   6   12.16    0.41
  -3  -4   6   12.61    0.33
   2   4  -6   22.14    0.89
  -2  -4   6   24.47    1.04
  -2  -4   6   23.33    0.89
   1   4  -6    6.88    0.32
  -1  -4   6    6.49    0.37
  -1  -4   6    6.54    0.35
   0   4  -6    1.29    0.08
   0  -4   6    1.07    0.15
   0  -4   6    1.07    0.16
   0  -4   6    1.15    0.07
  -1   4  -6   54.37    1.97
  -1   4  -6   54.32    1.53
  -1   4  -6   56.26    1.34
   1  -4   6   56.19    1.54
   1  -4   6   60.86    2.36
  -2   4  -6   27.53    0.67
   2  -4   6   27.47    0.77
   2  -4   6   27.66    1.21
  -3   4  -6    3.31    0.11
   3  -4   6    3.43    0.14
   3  -4   6    3.37    0.24
  -4   4  -6   22.88    0.57
   4  -4   6   23.41    0.65
   4  -4   6   23.43    0.60
  -5   4  -6    2.75    0.09
   5  -4   6    2.80    0.10
   5  -4   6    2.69    0.09
  -6   4  -6   37.23    0.86
   6  -4   6   35.11    0.90
  11   3  -6   19.95    0.53
  10   3  -6    7.05    0.22
   9   3  -6    5.76    0.20
   9   3  -6    5.62    0.19
   8   3  -6   13.90    0.40
   8   3  -6   13.80    0.41
   8   3  -6   14.20    0.37
   7   3  -6   18.09    0.51
   7   3  -6   18.12    0.47
   7   3  -6   18.32    0.52
  -7  -3   6   18.28    0.58
   6   3  -6   61.34    1.47
   6   3  -6   61.65    2.19
   6   3  -6   59.84    1.61
   6   3  -6   60.35    1.98
   6   3  -6   62.82    1.61
  -6  -3   6   61.41    1.83
  -6  -3   6   61.34    1.90
   5   3  -6  110.62    3.71
   5   3  -6  102.70    3.32
  -5  -3   6  106.68    3.21
  -5  -3   6   99.90    3.46
  -5  -3   6  106.91    3.11
   4   3  -6   30.74    1.07
  -4  -3   6   27.45    0.93
  -4  -3   6   28.14    0.88
  -4  -3   6   26.79    1.21
  -4  -3   6   28.78    1.01
   3   3  -6  156.36    5.23
  -3  -3   6  141.94    6.03
  -3  -3   6  150.28    4.92
  -3  -3   6  151.91    4.41
   2   3  -6   18.82    0.73
  -2  -3   6   19.34    0.72
  -2  -3   6   18.59    0.84
   1   3  -6   25.93    0.95
  -1  -3   6   24.53    0.92
  -1  -3   6   24.89    1.09
   0   3  -6   11.45    0.51
   0   3  -6   12.71    0.51
   0  -3   6   11.91    0.51
   0  -3   6   13.03    0.59
  -1   3  -6    7.13    0.36
  -1   3  -6    7.39    0.33
   1  -3   6    7.39    0.39
  -2   3  -6    1.43    0.16
  -2   3  -6    1.42    0.13
   2  -3   6    1.31    0.16
  -3   3  -6   26.58    0.98
  -3   3  -6   25.77    0.63
   3  -3   6   25.14    0.73
   3  -3   6   26.41    1.14
  -4   3  -6   45.10    1.07
  -4   3  -6   44.42    1.14
   4  -3   6   46.06    1.23
   4  -3   6   45.17    1.14
   4  -3   6   44.03    1.89
  -5   3  -6   47.45    1.12
  -5   3  -6   47.40    1.19
   5  -3   6   47.09    1.19
   5  -3   6   47.04    1.18
   5  -3   6   46.32    1.28
  -6   3  -6    7.82    0.22
  -6   3  -6    7.56    0.21
   6  -3   6    7.94    0.21
   6  -3   6    8.03    0.24
  -7   3  -6    1.48    0.06
   7  -3   6    1.51    0.08
   7  -3   6    1.46    0.08
  11   2  -6    5.49    0.17
  10   2  -6    9.18    0.28
  10   2  -6    8.95    0.27
   9   2  -6    1.01    0.08
   9   2  -6    1.05    0.09
   8   2  -6   47.29    1.27
   8   2  -6   48.41    1.27
   7   2  -6    6.20    0.35
   7   2  -6    6.51    0.31
  -7  -2   6    6.59    0.25
   6   2  -6   26.49    0.98
   6   2  -6   26.76    0.90
   6   2  -6   25.33    1.03
  -6  -2   6   26.23    0.84
   5   2  -6    0.75    0.09
   5   2  -6    0.73    0.11
   5   2  -6    1.01    0.11
  -5  -2   6    0.77    0.08
  -5  -2   6    0.81    0.11
  -5  -2   6    0.76    0.09
   4   2  -6   12.50    0.53
   4   2  -6   13.18    0.50
   4   2  -6   12.16    0.52
   4   2  -6   12.60    0.45
  -4  -2   6   11.46    0.56
  -4  -2   6   12.16    0.43
  -4  -2   6   12.24    0.47
   3   2  -6   52.07    1.77
   3   2  -6   51.69    1.59
   3   2  -6   50.99    1.82
   3   2  -6   47.97    1.81
  -3  -2   6   49.57    1.54
  -3  -2   6   47.34    2.04
  -3  -2   6   49.10    1.68
   2   2  -6    2.23    0.18
   2   2  -6    2.77    0.16
  -2  -2   6    2.56    0.16
  -2  -2   6    2.69    0.18
   1   2  -6   40.46    1.39
  -1  -2   6   38.50    1.33
  -1  -2   6   37.18    1.61
   0   2  -6   16.01    0.63
   0   2  -6   17.00    0.64
   0  -2   6   17.08    0.74
   0  -2   6   16.33    0.60
   0  -2   6   17.17    0.63
  -1   2  -6    2.45    0.17
  -1   2  -6    2.64    0.16
   1  -2   6    2.64    0.19
   1  -2   6    2.42    0.17
   1  -2   6    2.44    0.16
  -2   2  -6    9.88    0.41
  -2   2  -6    9.81    0.42
   2  -2   6    9.26    0.40
   2  -2   6    9.54    0.47
  -3   2  -6   45.59    1.64
  -3   2  -6   44.61    1.57
   3  -2   6   43.26    1.54
   3  -2   6   47.87    1.90
  -4   2  -6    5.38    0.22
  -4   2  -6    5.64    0.28
  -4   2  -6    5.76    0.17
  -4   2  -6    5.58    0.29
  -4   2  -6    5.63    0.17
   4  -2   6    5.75    0.20
   4  -2   6    5.62    0.18
  -5   2  -6    0.86    0.05
  -5   2  -6    0.65    0.07
  -5   2  -6    0.58    0.04
   5  -2   6    0.62    0.07
   5  -2   6    0.60    0.05
   5  -2   6    0.59    0.05
  -6   2  -6   14.26    0.36
  -6   2  -6   13.72    0.38
  -6   2  -6   13.40    0.47
   6  -2   6   13.81    0.39
   6  -2   6   14.34    0.37
   6  -2   6   14.44    0.44
  -7   2  -6    8.33    0.22
  -7   2  -6    8.11    0.21
  -7   2  -6    7.16    0.29
   7  -2   6    7.74    0.26
   7  -2   6    8.43    0.24
  -8   2  -6   14.67    0.39
   8  -2   6   15.39    0.39
  10   1  -6   44.11    1.18
   9   1  -6   13.15    0.39
   8   1  -6   10.31    0.31
   8   1  -6    9.94    0.30
  -8  -1   6    9.54    0.33
   7   1  -6   46.31    1.53
   7   1  -6   47.53    1.75
  -7  -1   6   47.50    1.43
  -7  -1   6   46.17    1.94
   6   1  -6   40.96    1.36
   6   1  -6   41.59    1.55
  -6  -1   6   42.14    1.28
  -6  -1   6   42.37    1.73
   5   1  -6   36.06    1.15
   5   1  -6   36.61    1.31
   5   1  -6   33.68    1.28
  -5  -1   6   34.46    1.18
  -5  -1   6   36.98    1.08
  -5  -1   6   33.41    1.46
   4   1  -6    3.35    0.18
   4   1  -6    3.49    0.20
   4   1  -6    3.38    0.16
   4   1  -6    3.24    0.17
  -4  -1   6    3.42    0.14
  -4  -1   6    3.09    0.19
  -4  -1   6    3.47    0.16
   3   1  -6  110.93    3.75
   3   1  -6  104.58    3.31
   3   1  -6  105.72    3.72
   3   1  -6  104.21    3.78
  -3  -1   6  112.06    3.21
  -3  -1   6  106.78    3.49
  -3  -1   6  104.65    4.29
   2   1  -6  130.68    4.56
   2   1  -6  129.68    4.06
   2   1  -6  133.22    4.60
  -2  -1   6  133.09    5.28
  -2  -1   6  132.60    3.95
   1   1  -6  379.66   12.05
   1   1  -6  399.89   13.53
   1   1  -6  393.19   13.64
   1   1  -6  385.59   12.80
  -1  -1   6  408.14   12.92
  -1  -1   6  397.17   15.81
   0   1  -6   77.27    2.62
   0   1  -6   81.37    2.78
   0  -1   6   79.71    3.21
   0  -1   6   80.00    2.62
  -1   1  -6   10.24    0.41
  -1   1  -6   10.71    0.42
   1  -1   6   10.25    0.41
   1  -1   6   10.20    0.48
   1  -1   6   10.31    0.41
  -2   1  -6   33.12    1.26
  -2   1  -6   35.23    1.20
   2  -1   6   36.36    1.20
  -3   1  -6   18.59    0.61
  -3   1  -6   19.84    0.73
  -3   1  -6   19.86    0.71
   3  -1   6   18.69    0.71
  -4   1  -6   18.93    0.72
  -4   1  -6   19.36    0.74
  -4   1  -6   19.66    0.62
   4  -1   6   18.19    0.72
  -5   1  -6   15.54    0.53
  -5   1  -6   16.03    0.43
  -5   1  -6   15.37    0.67
  -5   1  -6   16.11    0.64
  -5   1  -6   16.47    0.41
   5  -1   6   16.01    0.42
   5  -1   6   16.17    0.50
   5  -1   6   16.32    0.44
   5  -1   6   16.09    0.46
  -6   1  -6    1.41    0.06
  -6   1  -6    1.28    0.14
  -6   1  -6    1.15    0.12
  -6   1  -6    1.41    0.07
  -6   1  -6    1.43    0.10
   6  -1   6    1.50    0.06
   6  -1   6    1.38    0.09
   6  -1   6    1.45    0.10
  -7   1  -6    1.72    0.07
  -7   1  -6    1.61    0.10
   7  -1   6    1.77    0.10
  -8   1  -6   18.55    0.48
   8  -1   6   18.07    0.48
  11   0  -6   22.17    0.61
  10   0  -6    2.13    0.11
  10   0  -6    2.05    0.11
   9   0  -6   96.07    2.36
   9   0  -6   96.92    2.53
   8   0  -6    5.16    0.25
   8   0  -6    5.24    0.28
  -8   0   6    5.19    0.19
   7   0  -6   44.55    1.47
   7   0  -6   44.64    1.67
  -7   0   6   46.29    1.37
   6   0  -6    0.48    0.08
   6   0  -6    0.54    0.08
  -6   0   6    0.53    0.05
   5   0  -6   41.52    1.51
   5   0  -6   41.75    1.33
   5   0  -6   39.77    1.51
  -5   0   6   42.88    1.26
  -5   0   6   41.32    1.37
   4   0  -6  122.38    4.38
   4   0  -6  124.89    4.42
   4   0  -6  127.87    3.88
  -4   0   6  126.81    3.75
  -4   0   6  125.58    4.06
   3   0  -6   16.51    0.64
   3   0  -6   15.95    0.69
   3   0  -6   16.99    0.57
  -3   0   6   17.15    0.73
  -3   0   6   17.51    0.59
  -3   0   6   17.95    0.54
   2   0  -6   46.23    1.75
   2   0  -6   50.07    1.83
   2   0  -6   49.00    1.57
   2   0  -6   50.03    1.78
  -2   0   6   51.10    1.52
  -2   0   6   50.77    2.03
  -2   0   6   53.07    1.65
   1   0  -6   98.31    3.16
   1   0  -6   93.24    3.36
   1   0  -6   96.12    3.00
   1   0  -6   95.93    3.43
  -1   0   6   94.76    3.89
  -1   0   6  103.13    3.16
   0   0  -6    1.39    0.09
   0   0  -6    1.69    0.10
   0   0  -6    1.51    0.10
   0   0   6    1.39    0.10
  -1   0  -6  331.47   11.30
  -1   0  -6  334.43   10.51
   1   0   6  306.73   10.44
  -2   0  -6   42.16    1.47
  -2   0  -6   41.38    1.39
   2   0   6   42.07    1.39
   2   0   6   39.15    1.57
  -3   0  -6   72.76    2.53
  -3   0  -6   71.35    2.39
   3   0   6   71.94    2.37
  -4   0  -6    0.08    0.05
  -4   0  -6    0.04    0.03
  -4   0  -6    0.08    0.05
   4   0   6    0.06    0.08
  -5   0  -6    5.51    0.23
  -5   0  -6    5.63    0.17
  -5   0  -6    5.57    0.27
  -5   0  -6    5.54    0.27
  -5   0  -6    5.54    0.17
   5   0   6    5.49    0.19
   5   0   6    5.62    0.17
  -6   0  -6    6.59    0.25
  -6   0  -6    6.29    0.18
  -6   0  -6    5.97    0.30
  -6   0  -6    6.34    0.19
   6   0   6    6.31    0.21
   6   0   6    6.31    0.18
  -7   0  -6    0.03    0.03
  -7   0  -6   -0.01    0.02
   7   0   6   -0.02    0.04
  -8   0  -6    0.54    0.04
  -8   0  -6    0.46    0.05
   8   0   6    0.53    0.05
  12  -1  -6   13.99    0.36
  11  -1  -6    7.94    0.24
  11  -1  -6    7.93    0.25
  10  -1  -6   45.54    1.23
  10  -1  -6   45.86    1.15
   9  -1  -6   13.28    0.40
   9  -1  -6   13.36    0.38
   8  -1  -6    9.72    0.31
   8  -1  -6    9.59    0.29
  -8   1   6   10.15    0.34
   7  -1  -6   47.08    1.69
   7  -1  -6   43.87    1.48
  -7   1   6   46.62    1.40
   6  -1  -6   42.88    1.57
   6  -1  -6   42.91    1.39
  -6   1   6   43.45    1.32
   5  -1  -6   36.62    1.17
   5  -1  -6   36.49    1.33
   5  -1  -6   34.10    1.37
  -5   1   6   35.85    1.12
  -5   1   6   38.31    1.21
   4  -1  -6    3.33    0.24
   4  -1  -6    3.66    0.16
   4  -1  -6    3.28    0.17
  -4   1   6    3.34    0.15
  -4   1   6    3.56    0.15
   3  -1  -6  105.12    3.86
   3  -1  -6  104.77    3.84
   3  -1  -6  107.37    3.37
  -3   1   6  115.85    3.26
  -3   1   6  111.28    3.54
   2  -1  -6  136.35    4.13
   2  -1  -6  130.65    4.69
   2  -1  -6  133.43    4.71
  -2   1   6  133.58    4.33
  -2   1   6  134.14    4.00
   1  -1  -6  397.06   12.90
  -1   1   6  395.45   12.93
   0  -1  -6   78.83    2.55
   0  -1  -6   75.15    2.71
   0   1   6   79.74    2.55
  -1  -1  -6   10.41    0.41
  -1  -1  -6   10.79    0.40
  -2  -1  -6   36.01    1.25
  -2  -1  -6   35.09    1.18
   2   1   6   34.71    1.18
   2   1   6   32.68    1.38
  -3  -1  -6   18.65    0.63
  -3  -1  -6   19.48    0.70
  -3  -1  -6   21.30    0.75
   3   1   6   19.64    0.73
  -4  -1  -6   19.92    0.74
  -4  -1  -6   19.13    0.70
  -4  -1  -6   18.94    0.62
   4   1   6   18.95    0.72
  -5  -1  -6   17.20    0.43
  -5  -1  -6   17.04    0.67
  -5  -1  -6   17.60    0.57
  -5  -1  -6   16.72    0.45
   5   1   6   16.98    0.49
   5   1   6   16.31    0.45
  -6  -1  -6    1.40    0.07
  -6  -1  -6    1.23    0.12
  -6  -1  -6    1.46    0.10
   6   1   6    1.42    0.06
   6   1   6    1.31    0.10
  -7  -1  -6    1.87    0.11
  -7  -1  -6    1.87    0.07
   7   1   6    1.73    0.10
  -8  -1  -6   18.00    0.45
  -8  -1  -6   16.64    0.55
  -8  -1  -6   16.71    0.46
  11  -2  -6    5.70    0.19
  11  -2  -6    5.97    0.18
  10  -2  -6    8.86    0.26
  10  -2  -6    9.20    0.29
  10  -2  -6    9.48    0.27
 -10   2   6    8.78    0.31
   9  -2  -6    1.06    0.09
   9  -2  -6    0.86    0.08
   9  -2  -6    0.99    0.08
  -9   2   6    0.98    0.07
   8  -2  -6   46.92    1.17
   8  -2  -6   46.66    1.19
   8  -2  -6   46.91    1.26
  -8   2   6   45.90    1.41
   7  -2  -6    6.43    0.31
  -7   2   6    6.63    0.26
  -7   2   6    6.09    0.24
   6  -2  -6   26.35    0.97
  -6   2   6   25.07    0.87
  -6   2   6   25.46    0.80
  -6   2   6   25.82    0.83
   5  -2  -6    0.70    0.09
  -5   2   6    0.96    0.08
  -5   2   6    0.77    0.07
   4  -2  -6   12.79    0.45
   4  -2  -6   12.26    0.62
   4  -2  -6   11.72    0.49
  -4   2   6   12.82    0.46
  -4   2   6   12.54    0.43
   3  -2  -6   48.93    1.95
   3  -2  -6   49.86    1.83
   3  -2  -6   51.28    1.62
  -3   2   6   53.29    1.69
   2  -2  -6    2.48    0.14
  -2   2   6    2.55    0.14
   1  -2  -6   39.03    1.41
   1  -2  -6   38.07    1.30
  -1   2   6   39.68    1.31
   0  -2  -6   17.04    0.60
   0   2   6   16.93    0.60
  -1  -2  -6    2.45    0.14
  -1  -2  -6    2.60    0.14
   1   2   6    2.41    0.15
  -2  -2  -6    9.86    0.38
  -2  -2  -6    9.73    0.39
   2   2   6    9.64    0.41
  -3  -2  -6   45.24    1.61
  -3  -2  -6   45.33    1.52
   3   2   6   44.66    1.67
  -4  -2  -6    5.87    0.28
  -4  -2  -6    5.94    0.18
  -4  -2  -6    5.55    0.24
  -4  -2  -6    5.90    0.18
  -4  -2  -6    5.62    0.20
  -4  -2  -6    5.83    0.26
   4   2   6    5.78    0.21
   4   2   6    5.69    0.19
   4   2   6    5.63    0.21
  -5  -2  -6    0.61    0.09
  -5  -2  -6    0.65    0.07
  -5  -2  -6    0.57    0.06
  -5  -2  -6    0.52    0.05
  -5  -2  -6    0.67    0.08
   5   2   6    0.70    0.08
   5   2   6    0.75    0.06
  -6  -2  -6   14.67    0.41
  -6  -2  -6   15.29    0.50
  -6  -2  -6   13.81    0.39
   6   2   6   14.96    0.43
  -7  -2  -6    8.08    0.25
  -7  -2  -6    8.58    0.23
  -7  -2  -6    8.30    0.30
   7   2   6    8.31    0.26
  -8  -2  -6   15.02    0.38
   8   2   6   14.46    0.41
  11  -3  -6   21.56    0.59
  11  -3  -6   22.13    0.55
 -11   3   6   22.31    0.56
  10  -3  -6    7.19    0.22
  10  -3  -6    6.50    0.20
  10  -3  -6    6.43    0.20
 -10   3   6    6.47    0.24
 -10   3   6    6.42    0.19
   9  -3  -6    5.82    0.19
   9  -3  -6    5.73    0.19
   9  -3  -6    6.03    0.21
  -9   3   6    5.32    0.17
  -9   3   6    5.88    0.23
   8  -3  -6   13.48    0.38
   8  -3  -6   13.36    0.38
   8  -3  -6   13.63    0.42
  -8   3   6   14.44    0.47
  -8   3   6   13.13    0.37
   7  -3  -6   17.48    0.48
   7  -3  -6   17.54    0.48
   7  -3  -6   18.09    0.52
   7  -3  -6   17.82    0.45
  -7   3   6   16.86    0.47
  -7   3   6   18.76    0.59
   6  -3  -6   62.21    2.17
   6  -3  -6   58.00    1.51
  -6   3   6   58.79    1.84
  -6   3   6   60.87    1.98
  -6   3   6   57.23    1.80
   5  -3  -6  109.21    3.82
  -5   3   6  104.84    3.18
  -5   3   6  107.78    3.51
   4  -3  -6   29.24    1.07
  -4   3   6   27.45    0.98
   3  -3  -6  150.43    5.31
   3  -3  -6  145.42    4.66
  -3   3   6  155.11    4.90
   2  -3  -6   19.46    0.76
  -2   3   6   19.56    0.70
   1  -3  -6   24.81    0.85
   1  -3  -6   24.08    0.92
  -1   3   6   24.11    0.85
  -1   3   6   23.93    0.95
   0  -3  -6   12.45    0.46
   0   3   6   11.67    0.51
  -1  -3  -6    7.56    0.31
   1   3   6    7.23    0.35
  -2  -3  -6    1.41    0.12
   2   3   6    1.53    0.14
  -3  -3  -6   25.20    0.64
  -3  -3  -6   25.21    0.67
  -3  -3  -6   25.38    0.94
  -3  -3  -6   25.85    0.90
  -3  -3  -6   25.54    0.81
  -3  -3  -6   25.93    0.66
   3   3   6   24.29    0.70
   3   3   6   25.59    0.73
   3   3   6   24.55    0.67
   3   3   6   25.99    0.65
  -4  -3  -6   45.27    1.10
  -4  -3  -6   44.68    1.16
  -4  -3  -6   45.65    1.15
  -4  -3  -6   46.11    1.39
  -4  -3  -6   45.44    1.63
   4   3   6   44.65    1.11
   4   3   6   44.71    1.24
   4   3   6   45.31    1.21
   4   3   6   44.93    1.15
  -5  -3  -6   47.75    1.13
  -5  -3  -6   47.33    1.44
  -5  -3  -6   46.82    1.19
   5   3   6   46.41    1.18
   5   3   6   45.71    1.25
  -6  -3  -6    7.85    0.30
  -6  -3  -6    8.04    0.22
  -6  -3  -6    8.16    0.23
   6   3   6    8.11    0.26
  -7  -3  -6    1.70    0.07
   7   3   6    1.82    0.09
  10  -4  -6    2.00    0.08
  10  -4  -6    1.98    0.09
 -10   4   6    2.08    0.07
   9  -4  -6    8.95    0.28
   9  -4  -6    9.22    0.26
  -9   4   6    8.58    0.31
  -9   4   6    9.18    0.25
   8  -4  -6    3.30    0.15
   8  -4  -6    3.24    0.13
  -8   4   6    3.33    0.11
  -8   4   6    3.24    0.15
   7  -4  -6    1.39    0.06
   7  -4  -6    1.08    0.10
   7  -4  -6    1.46    0.09
  -7   4   6    1.32    0.10
  -7   4   6    1.36    0.07
  -7   4   6    1.31    0.06
   6  -4  -6    0.68    0.07
   6  -4  -6    0.70    0.08
   6  -4  -6    0.65    0.06
   6  -4  -6    0.78    0.06
  -6   4   6    0.64    0.06
  -6   4   6    0.47    0.04
  -6   4   6    0.54    0.07
   5  -4  -6   62.95    1.70
   5  -4  -6   60.23    1.66
   5  -4  -6   62.32    1.57
   5  -4  -6   61.67    1.58
  -5   4   6   61.74    1.58
  -5   4   6   64.52    1.49
   4  -4  -6  130.83    3.45
   4  -4  -6  141.69    3.71
   4  -4  -6  139.69    3.43
  -4   4   6  139.00    3.45
  -4   4   6  138.04    3.24
  -4   4   6  138.45    4.52
   3  -4  -6   12.42    0.54
   3  -4  -6   13.91    0.38
  -3   4   6   11.51    0.49
   2  -4  -6   22.37    0.77
   2  -4  -6   21.56    0.86
  -2   4   6   22.85    0.79
  -2   4   6   20.18    0.88
   1  -4  -6    6.03    0.31
   1  -4  -6    6.14    0.28
  -1   4   6    6.40    0.29
  -1   4   6    6.25    0.33
   0  -4  -6    1.29    0.09
   0  -4  -6    1.09    0.08
   0  -4  -6    1.38    0.12
   0   4   6    1.64    0.11
   0   4   6    1.17    0.16
   0   4   6    1.38    0.09
  -1  -4  -6   55.50    1.89
  -1  -4  -6   56.01    1.64
  -1  -4  -6   56.91    1.34
   1   4   6   55.59    1.54
   1   4   6   55.16    1.36
  -2  -4  -6   26.44    0.68
  -2  -4  -6   27.14    0.83
   2   4   6   27.87    0.78
   2   4   6   26.38    0.72
   2   4   6   27.80    0.69
  -3  -4  -6    3.12    0.13
  -3  -4  -6    3.25    0.16
  -3  -4  -6    3.31    0.11
   3   4   6    3.40    0.13
   3   4   6    3.47    0.13
   3   4   6    3.31    0.14
  -4  -4  -6   21.34    0.57
  -4  -4  -6   21.61    0.55
   4   4   6   22.21    0.56
   4   4   6   21.77    0.57
   4   4   6   22.47    0.61
   4   4   6   21.51    0.62
  -5  -4  -6    2.55    0.10
  -5  -4  -6    2.84    0.09
   5   4   6    2.57    0.12
   5   4   6    2.62    0.10
   5   4   6    2.63    0.08
  -6  -4  -6   35.43    1.03
  -6  -4  -6   35.32    0.88
  -6  -4  -6   34.19    0.83
   6   4   6   34.82    0.93
   8  -5  -6    6.12    0.18
   8  -5  -6    6.17    0.20
  -8   5   6    6.23    0.17
  -8   5   6    6.22    0.17
   7  -5  -6   14.38    0.39
   7  -5  -6   14.10    0.42
  -7   5   6   14.66    0.38
  -7   5   6   14.73    0.37
   6  -5  -6   29.48    0.83
   6  -5  -6   30.30    0.78
   6  -5  -6   29.94    0.83
   6  -5  -6   31.69    0.77
  -6   5   6   29.93    0.74
   5  -5  -6    3.05    0.12
   5  -5  -6    2.89    0.13
   5  -5  -6    2.90    0.12
  -5   5   6    2.85    0.11
   4  -5  -6   22.61    0.66
   4  -5  -6   23.01    0.60
  -4   5   6   22.45    0.57
   3  -5  -6    4.87    0.19
   3  -5  -6    4.68    0.17
  -3   5   6    5.03    0.16
   2  -5  -6    7.09    0.25
   2  -5  -6    7.08    0.25
  -2   5   6    7.01    0.21
   1  -5  -6   45.24    1.25
   1  -5  -6   45.10    1.32
  -1   5   6   44.66    1.10
  -1   5   6   43.86    1.25
   0  -5  -6   28.38    0.71
   0  -5  -6   29.05    0.87
   0   5   6   29.14    0.73
   0   5   6   28.61    0.83
  -1  -5  -6   11.72    0.33
  -1  -5  -6   12.43    0.40
   1   5   6   12.03    0.33
   1   5   6   11.80    0.38
  -2  -5  -6    0.52    0.06
  -2  -5  -6    0.43    0.06
   2   5   6    0.53    0.06
   2   5   6    0.46    0.05
   2   5   6    0.52    0.06
  -3  -5  -6    9.76    0.32
  -3  -5  -6    9.48    0.26
   3   5   6    9.11    0.27
   3   5   6    9.44    0.29
   3   5   6    9.78    0.27
  -4  -5  -6    0.60    0.06
  -4  -5  -6    0.62    0.05
   4   5   6    0.53    0.04
   4   5   6    0.43    0.04
  -5  -5  -6    9.95    0.25
  -5  -5  -6    9.50    0.31
   5   5   6    9.69    0.25
   6  -6  -6    4.98    0.13
  -6   6   6    5.21    0.14
   5  -6  -6    6.89    0.18
   5  -6  -6    5.58    0.19
  -5   6   6    5.88    0.17
   4  -6  -6    5.65    0.18
   4  -6  -6    5.89    0.19
  -4   6   6    5.93    0.17
   3  -6  -6   11.41    0.36
   3  -6  -6   11.75    0.36
  -3   6   6   12.09    0.31
   2  -6  -6   26.73    0.79
   2  -6  -6   26.92    0.76
  -2   6   6   26.68    0.76
   1  -6  -6    0.68    0.07
   1  -6  -6    0.83    0.07
  -1   6   6    0.69    0.07
   0  -6  -6    0.45    0.05
   0  -6  -6    0.41    0.04
   0   6   6    0.40    0.05
   0   6   6    0.35    0.04
  -1  -6  -6    6.66    0.19
  -1  -6  -6    6.84    0.23
   1   6   6    6.65    0.19
   1   6   6    6.69    0.20
   1   6   6    7.18    0.22
  -2  -6  -6    1.55    0.08
  -2  -6  -6    1.40    0.07
   2   6   6    1.56    0.08
   2   6   6    1.55    0.07
   2   6   6    1.69    0.07
  -3  -6  -6   17.04    0.42
  -3  -6  -6   17.10    0.51
   3   6   6   17.63    0.42
   3   6   6   16.53    0.43
  -6  -6   7    8.87    0.22
   5   6  -7    5.93    0.18
  -5  -6   7    5.92    0.16
  -5  -6   7    6.24    0.16
   4   6  -7   10.78    0.30
   4   6  -7   10.54    0.27
  -4  -6   7   10.64    0.27
  -4  -6   7   10.16    0.26
   3   6  -7   16.99    0.46
   3   6  -7   16.08    0.47
   3   6  -7   17.16    0.43
  -3  -6   7   17.36    0.41
   2   6  -7    0.85    0.05
   2   6  -7    0.74    0.05
  -2  -6   7    0.74    0.04
   1   6  -7    6.09    0.19
   1   6  -7    5.65    0.17
   1   6  -7    5.92    0.18
  -1  -6   7    6.04    0.16
   0   6  -7    8.60    0.25
   0   6  -7    8.34    0.24
  -1   6  -7   15.79    0.44
   1  -6   7   15.85    0.44
   2  -6   7    4.45    0.14
   8   5  -7   29.18    0.80
   8   5  -7   29.93    0.80
  -8  -5   7   32.02    0.77
   7   5  -7    1.65    0.07
  -7  -5   7    1.66    0.09
  -7  -5   7    1.77    0.06
   6   5  -7    1.56    0.07
  -6  -5   7    1.50    0.06
  -6  -5   7    1.45    0.09
  -6  -5   7    1.48    0.06
   5   5  -7   20.99    0.57
   5   5  -7   20.93    0.53
  -5  -5   7   20.79    0.51
  -5  -5   7   20.86    0.54
   4   5  -7   14.84    0.41
   4   5  -7   14.26    0.41
   4   5  -7   15.01    0.38
  -4  -5   7   14.61    0.37
  -4  -5   7   14.19    0.37
  -4  -5   7   14.35    0.38
   3   5  -7   40.54    1.08
   3   5  -7   40.61    1.03
   3   5  -7   41.18    1.11
  -3  -5   7   40.13    0.96
  -3  -5   7   41.16    0.97
   2   5  -7    5.69    0.18
   2   5  -7    5.88    0.19
   2   5  -7    5.73    0.19
  -2  -5   7    5.84    0.17
  -2  -5   7    5.83    0.17
   1   5  -7   14.15    0.42
  -1  -5   7   14.24    0.36
   0   5  -7    5.49    0.19
   0  -5   7    5.71    0.16
  -1   5  -7    0.99    0.07
   1  -5   7    1.04    0.07
  -2   5  -7    4.79    0.14
   2  -5   7    4.75    0.16
  -3   5  -7    2.11    0.07
   3  -5   7    2.07    0.09
   3  -5   7    1.91    0.08
  -4   5  -7   19.41    0.47
   4  -5   7   20.25    0.50
   4  -5   7   19.31    0.54
  10   4  -7    3.37    0.11
   9   4  -7    8.94    0.24
   9   4  -7    7.64    0.23
  -9  -4   7    7.64    0.22
  -9  -4   7    7.89    0.27
   8   4  -7    5.61    0.19
   8   4  -7    5.88    0.18
  -8  -4   7    5.68    0.22
  -8  -4   7    5.72    0.16
   7   4  -7    1.67    0.08
   7   4  -7    1.46    0.09
  -7  -4   7    1.63    0.10
  -7  -4   7    1.64    0.07
   6   4  -7   59.48    1.59
   6   4  -7   60.54    1.59
  -6  -4   7   62.15    1.82
  -6  -4   7   59.61    1.53
   5   4  -7   19.98    0.51
   5   4  -7   19.62    0.79
   5   4  -7   19.82    0.55
  -5  -4   7   19.96    0.49
  -5  -4   7   19.66    0.52
  -5  -4   7   20.63    0.64
   4   4  -7   30.74    0.85
   4   4  -7   30.59    0.83
   4   4  -7   30.86    0.78
   4   4  -7   29.21    1.15
  -4  -4   7   30.76    0.74
  -4  -4   7   30.76    0.95
  -4  -4   7   31.22    0.79
  -4  -4   7   31.58    0.96
   3   4  -7   28.58    0.74
   3   4  -7   29.62    0.80
   3   4  -7   28.57    0.78
   3   4  -7   28.30    1.10
  -3  -4   7   29.26    1.27
  -3  -4   7   29.92    0.74
  -3  -4   7   28.59    0.70
   2   4  -7    5.53    0.19
   2   4  -7    5.75    0.30
  -2  -4   7    6.08    0.17
  -2  -4   7    5.50    0.34
  -2  -4   7    5.67    0.17
   1   4  -7    4.57    0.26
   1   4  -7    4.73    0.17
  -1  -4   7    5.16    0.31
  -1  -4   7    4.71    0.15
  -1  -4   7    4.86    0.15
   0   4  -7    0.09    0.03
   0   4  -7    0.01    0.06
   0  -4   7    0.06    0.08
   0  -4   7    0.07    0.03
  -1   4  -7   17.54    0.52
  -1   4  -7   18.59    0.45
  -1   4  -7   18.05    0.73
   1  -4   7   18.64    0.84
   1  -4   7   18.08    0.53
  -2   4  -7   22.57    0.55
   2  -4   7   22.71    1.01
   2  -4   7   22.07    0.64
  -3   4  -7    0.64    0.05
   3  -4   7    0.79    0.07
  -4   4  -7    5.36    0.16
   4  -4   7    5.64    0.18
   4  -4   7    5.44    0.16
  -5   4  -7    5.61    0.16
   5  -4   7    5.45    0.17
   5  -4   7    5.81    0.16
  -6   4  -7   16.74    0.41
  10   3  -7    0.50    0.05
  10   3  -7    0.56    0.05
   9   3  -7    7.03    0.22
   9   3  -7    6.88    0.21
  -9  -3   7    6.37    0.24
   8   3  -7   19.25    0.55
   8   3  -7   19.31    0.54
  -8  -3   7   19.43    0.61
   7   3  -7   19.95    0.56
   7   3  -7   20.58    0.58
  -7  -3   7   20.67    0.65
   6   3  -7   40.99    1.11
   6   3  -7   41.55    1.52
   6   3  -7   41.55    1.10
  -6  -3   7   40.93    1.33
  -6  -3   7   41.86    1.26
   5   3  -7   42.18    1.49
  -5  -3   7   40.27    1.24
  -5  -3   7   38.90    1.40
  -5  -3   7   41.40    1.31
   4   3  -7   42.18    1.53
  -4  -3   7   40.55    1.46
  -4  -3   7   41.82    1.27
  -4  -3   7   39.45    1.34
  -4  -3   7   45.43    1.77
   3   3  -7   24.61    0.92
  -3  -3   7   24.06    0.76
  -3  -3   7   23.23    0.89
  -3  -3   7   24.63    1.06
   2   3  -7   57.58    1.94
  -2  -3   7   50.76    2.23
  -2  -3   7   52.83    1.85
   1   3  -7   16.29    0.65
  -1  -3   7   16.52    0.75
  -1  -3   7   15.69    0.65
   0   3  -7    1.56    0.14
   0  -3   7    1.43    0.16
   0  -3   7    1.52    0.16
  -1   3  -7   20.44    0.80
  -1   3  -7   19.44    0.80
   1  -3   7   21.30    0.93
  -2   3  -7   14.33    0.61
  -2   3  -7   14.41    0.59
  -2   3  -7   14.80    0.37
   2  -3   7   13.84    0.42
   2  -3   7   14.24    0.68
  -3   3  -7    9.72    0.26
  -3   3  -7    9.00    0.44
   3  -3   7    9.44    0.49
   3  -3   7    9.61    0.29
  -4   3  -7   24.45    0.59
   4  -3   7   24.79    0.63
   4  -3   7   24.11    0.67
   4  -3   7   22.93    1.05
  -5   3  -7    4.44    0.14
   5  -3   7    4.33    0.16
   5  -3   7    4.59    0.14
   5  -3   7    4.46    0.15
  -6   3  -7    8.00    0.21
   6  -3   7    7.76    0.20
   6  -3   7    7.34    0.22
  -7   3  -7    9.41    0.24
  11   2  -7   12.24    0.34
  10   2  -7   26.64    0.73
  10   2  -7   27.04    0.73
   9   2  -7    8.81    0.27
   9   2  -7    8.48    0.27
   8   2  -7   51.50    1.34
   8   2  -7   49.50    1.34
   7   2  -7   61.65    1.62
   7   2  -7   61.60    1.62
  -7  -2   7   61.47    1.89
   6   2  -7   65.90    2.32
   6   2  -7   64.40    2.10
   6   2  -7   64.54    2.41
  -6  -2   7   70.45    2.69
  -6  -2   7   61.41    1.94
  -6  -2   7   65.54    2.01
   5   2  -7    0.51    0.08
   5   2  -7    0.66    0.11
  -5  -2   7    0.89    0.10
  -5  -2   7    0.59    0.10
  -5  -2   7    0.60    0.06
   4   2  -7   17.69    0.62
   4   2  -7   18.46    0.69
   4   2  -7   16.82    0.71
  -4  -2   7   17.09    0.65
  -4  -2   7   18.62    0.80
  -4  -2   7   17.54    0.56
  -4  -2   7   17.85    0.60
   3   2  -7  115.81    4.26
   3   2  -7  125.13    4.22
  -3  -2   7  120.81    3.97
  -3  -2   7  118.82    3.65
  -3  -2   7  123.14    4.87
   2   2  -7   91.25    3.17
   2   2  -7   84.76    3.24
  -2  -2   7   89.24    3.00
  -2  -2   7   96.52    3.68
   1   2  -7   41.54    1.50
  -1  -2   7   43.96    1.74
  -1  -2   7   39.33    1.44
   0   2  -7   26.23    0.97
   0   2  -7   28.25    1.00
   0  -2   7   26.21    0.97
   0  -2   7   27.74    1.16
   0  -2   7   25.98    0.94
  -1   2  -7   37.02    1.31
  -1   2  -7   37.36    1.36
   1  -2   7   35.90    1.28
   1  -2   7   38.79    1.58
  -2   2  -7    9.75    0.42
  -2   2  -7    9.35    0.43
   2  -2   7   10.18    0.49
   2  -2   7    9.48    0.42
  -3   2  -7   22.76    0.57
  -3   2  -7   22.11    0.60
  -3   2  -7   22.82    0.88
  -3   2  -7   22.31    0.87
   3  -2   7   22.35    0.61
   3  -2   7   25.56    0.65
   3  -2   7   22.89    1.02
  -4   2  -7   18.22    0.74
  -4   2  -7   19.38    0.50
  -4   2  -7   18.76    0.48
   4  -2   7   19.55    0.52
   4  -2   7   18.92    0.50
   4  -2   7   19.66    0.54
  -5   2  -7   14.28    0.37
  -5   2  -7   14.23    0.38
   5  -2   7   14.38    0.40
   5  -2   7   14.40    0.38
   5  -2   7   14.23    0.41
  -6   2  -7   14.25    0.38
  -6   2  -7   14.41    0.36
   6  -2   7   14.42    0.37
   6  -2   7   13.95    0.39
  -7   2  -7    2.12    0.07
  -7   2  -7    2.20    0.07
   7  -2   7    2.17    0.10
  11   1  -7   32.89    0.88
  10   1  -7   58.69    1.55
   9   1  -7    8.58    0.28
   9   1  -7    9.11    0.28
   8   1  -7   13.95    0.40
   8   1  -7   14.02    0.41
  -8  -1   7   13.83    0.47
  -8  -1   7   13.72    0.65
   7   1  -7   29.33    1.16
   7   1  -7   28.83    1.02
  -7  -1   7   32.07    1.29
  -7  -1   7   29.20    0.94
   6   1  -7    4.52    0.25
   6   1  -7    4.46    0.22
  -6  -1   7    4.04    0.25
  -6  -1   7    4.15    0.18
   5   1  -7   21.84    0.75
   5   1  -7   22.37    0.85
  -5  -1   7   21.77    0.70
  -5  -1   7   20.93    0.95
  -5  -1   7   22.71    0.77
   4   1  -7    7.12    0.29
   4   1  -7    7.35    0.31
   4   1  -7    7.56    0.33
   4   1  -7    7.50    0.36
  -4  -1   7    7.14    0.27
  -4  -1   7    7.33    0.30
  -4  -1   7    7.19    0.37
   3   1  -7    6.44    0.35
   3   1  -7    6.62    0.27
   3   1  -7    6.95    0.30
  -3  -1   7    7.07    0.35
  -3  -1   7    7.01    0.29
  -3  -1   7    6.88    0.26
   2   1  -7   18.86    0.79
   2   1  -7   18.53    0.72
   2   1  -7   19.62    0.65
  -2  -1   7   19.93    0.84
  -2  -1   7   19.69    0.69
   1   1  -7  128.59    4.34
   1   1  -7  138.63    4.62
  -1  -1   7  128.06    5.34
  -1  -1   7  136.91    4.35
   0   1  -7   27.01    0.95
   0   1  -7   25.88    0.91
   0  -1   7   24.87    1.10
   0  -1   7   25.70    0.91
  -1   1  -7    5.68    0.27
  -1   1  -7    6.68    0.28
   1  -1   7    5.64    0.31
   1  -1   7    5.70    0.28
  -2   1  -7   60.32    2.10
  -2   1  -7   63.48    2.21
   2  -1   7   63.16    2.08
  -3   1  -7    6.81    0.32
  -3   1  -7    6.55    0.32
   3  -1   7    7.30    0.34
  -4   1  -7    7.70    0.36
  -4   1  -7    7.42    0.34
  -4   1  -7    7.33    0.28
  -4   1  -7    7.46    0.21
  -4   1  -7    7.31    0.21
   4  -1   7    7.50    0.24
   4  -1   7    7.68    0.24
   4  -1   7    7.62    0.22
  -5   1  -7    7.39    0.34
  -5   1  -7    7.48    0.21
  -5   1  -7    7.58    0.28
  -5   1  -7    7.65    0.21
   5  -1   7    7.14    0.21
   5  -1   7    7.12    0.24
   5  -1   7    6.96    0.23
  -6   1  -7    4.71    0.20
  -6   1  -7    5.04    0.15
  -6   1  -7    5.00    0.15
   6  -1   7    5.14    0.18
   6  -1   7    5.13    0.14
  -7   1  -7   28.65    0.69
  -7   1  -7   26.25    0.64
   7  -1   7   25.31    0.68
  -8   1  -7   10.95    0.30
  -8   1  -7   11.89    0.31
   8  -1   7   11.62    0.30
  11   0  -7   20.73    0.57
  10   0  -7    9.07    0.27
  10   0  -7    8.93    0.28
   9   0  -7   14.15    0.40
   9   0  -7   14.44    0.42
   8   0  -7   34.37    0.93
   8   0  -7   33.81    0.87
  -8   0   7   34.12    1.05
   7   0  -7    0.69    0.10
   7   0  -7    0.80    0.11
  -7   0   7    0.75    0.06
   6   0  -7    0.49    0.08
   6   0  -7    0.57    0.08
  -6   0   7    0.63    0.06
   5   0  -7   52.36    1.95
   5   0  -7   52.15    1.70
   5   0  -7   52.98    1.93
  -5   0   7   54.51    1.76
  -5   0   7   54.58    1.62
   4   0  -7   33.95    1.23
   4   0  -7   33.24    1.28
   4   0  -7   33.49    1.09
  -4   0   7   33.03    1.04
  -4   0   7   32.38    1.39
  -4   0   7   34.77    1.13
   3   0  -7    6.17    0.25
   3   0  -7    6.34    0.34
   3   0  -7    6.14    0.26
  -3   0   7    5.68    0.30
  -3   0   7    6.06    0.23
  -3   0   7    6.24    0.25
   2   0  -7   24.61    0.78
   2   0  -7   23.15    0.96
   2   0  -7   22.58    0.86
  -2   0   7   24.94    0.82
  -2   0   7   23.30    1.00
   1   0  -7    8.59    0.36
   1   0  -7    9.23    0.35
   1   0  -7    8.81    0.33
  -1   0   7    9.12    0.42
  -1   0   7    9.18    0.35
   0   0  -7    8.98    0.35
   0   0  -7    8.77    0.32
   0   0  -7    8.86    0.36
   0   0   7    8.62    0.35
  -1   0  -7   59.56    2.23
  -1   0  -7   67.35    2.11
  -2   0  -7   70.00    2.30
  -2   0  -7   71.95    2.44
   2   0   7   64.90    2.27
  -3   0  -7   32.32    1.18
  -3   0  -7   32.28    1.00
  -3   0  -7   33.31    1.13
   3   0   7   31.13    1.14
  -4   0  -7    2.67    0.18
  -4   0  -7    2.68    0.14
  -4   0  -7    2.55    0.10
  -4   0  -7    2.63    0.17
  -4   0  -7    2.72    0.10
   4   0   7    2.65    0.11
   4   0   7    2.77    0.11
   4   0   7    2.75    0.13
  -5   0  -7    9.60    0.35
  -5   0  -7    9.45    0.27
  -5   0  -7    9.90    0.26
  -5   0  -7    9.23    0.41
   5   0   7    9.33    0.29
   5   0   7    9.52    0.27
   5   0   7    9.80    0.29
  -6   0  -7    0.08    0.04
  -6   0  -7    0.08    0.03
  -6   0  -7    0.01    0.02
   6   0   7    0.00    0.05
   6   0   7    0.00    0.02
  -7   0  -7    4.59    0.19
  -7   0  -7    4.98    0.14
   7   0   7    4.53    0.16
  -8   0  -7    0.48    0.03
  -8   0  -7    0.46    0.04
   8   0   7    0.51    0.04
  11  -1  -7   33.58    0.89
  11  -1  -7   32.67    0.83
  10  -1  -7   59.94    1.49
  10  -1  -7   60.52    1.60
   9  -1  -7    8.81    0.27
   9  -1  -7    8.66    0.28
   8  -1  -7   13.96    0.39
   8  -1  -7   13.11    0.40
   7  -1  -7   28.34    1.00
   7  -1  -7   30.33    1.13
  -7   1   7   30.76    0.94
   6  -1  -7    4.27    0.21
   6  -1  -7    4.36    0.23
  -6   1   7    4.58    0.18
  -6   1   7    4.36    0.17
   5  -1  -7   22.81    0.76
   5  -1  -7   23.31    0.86
  -5   1   7   21.88    0.72
  -5   1   7   22.25    0.77
   4  -1  -7    7.05    0.31
   4  -1  -7    7.23    0.41
   4  -1  -7    7.36    0.29
  -4   1   7    7.46    0.27
  -4   1   7    7.18    0.28
   3  -1  -7    7.33    0.30
   3  -1  -7    6.93    0.28
   3  -1  -7    6.96    0.41
  -3   1   7    8.14    0.29
  -3   1   7    6.52    0.26
   2  -1  -7   19.36    0.65
   2  -1  -7   17.13    0.83
  -2   1   7   20.76    0.67
   1  -1  -7  127.20    4.02
   1  -1  -7  129.13    4.22
  -1   1   7  132.74    4.21
   0  -1  -7   25.55    0.87
   0  -1  -7   24.42    0.91
  -1  -1  -7    5.84    0.26
  -1  -1  -7    5.71    0.25
  -2  -1  -7   62.39    2.17
  -2  -1  -7   60.20    2.04
   2   1   7   61.55    2.04
  -3  -1  -7    6.91    0.27
  -3  -1  -7    7.01    0.31
  -3  -1  -7    7.64    0.32
   3   1   7    6.90    0.34
  -4  -1  -7    8.10    0.35
  -4  -1  -7    8.04    0.23
  -4  -1  -7    8.09    0.34
  -4  -1  -7    7.75    0.22
  -4  -1  -7    7.78    0.29
   4   1   7    7.48    0.23
   4   1   7    7.66    0.25
   4   1   7    7.35    0.24
  -5  -1  -7    7.68    0.29
  -5  -1  -7    7.50    0.21
  -5  -1  -7    7.32    0.22
  -5  -1  -7    7.42    0.34
   5   1   7    7.04    0.23
   5   1   7    7.42    0.22
   5   1   7    7.52    0.25
  -6  -1  -7    5.11    0.16
  -6  -1  -7    5.15    0.18
  -6  -1  -7    5.29    0.16
  -6  -1  -7    5.14    0.21
   6   1   7    5.06    0.19
  -7  -1  -7   25.63    0.85
  -7  -1  -7   27.36    0.71
  -7  -1  -7   28.53    0.70
  -8  -1  -7   11.77    0.31
  -8  -1  -7   12.03    0.32
  11  -2  -7   12.52    0.37
  11  -2  -7   13.13    0.35
  10  -2  -7   28.08    0.69
  10  -2  -7   26.96    0.74
 -10   2   7   25.15    0.82
   9  -2  -7    8.52    0.25
   9  -2  -7    8.62    0.26
   9  -2  -7    8.55    0.28
  -9   2   7    8.32    0.30
   8  -2  -7   49.35    1.27
   8  -2  -7   51.52    1.36
   8  -2  -7   50.09    1.29
  -8   2   7   51.94    1.54
   7  -2  -7   62.68    1.68
   7  -2  -7   62.28    1.56
   7  -2  -7   61.31    1.59
  -7   2   7   63.01    1.90
  -7   2   7   66.21    1.94
   6  -2  -7   62.55    2.03
   6  -2  -7   64.55    2.31
  -6   2   7   64.13    1.92
  -6   2   7   64.43    2.10
  -6   2   7   63.24    1.95
   5  -2  -7    0.74    0.09
   5  -2  -7    0.64    0.08
  -5   2   7    0.72    0.07
  -5   2   7    0.52    0.07
  -5   2   7    0.68    0.07
   4  -2  -7   18.44    0.69
   4  -2  -7   18.00    0.62
  -4   2   7   17.75    0.58
  -4   2   7   17.32    0.63
  -4   2   7   17.20    0.59
   3  -2  -7  129.32    4.38
   3  -2  -7  125.97    3.85
   3  -2  -7  115.56    4.47
  -3   2   7  123.66    4.03
   2  -2  -7   92.06    2.88
   2  -2  -7   92.96    3.27
  -2   2   7   91.13    3.01
   1  -2  -7   38.80    1.36
  -1   2   7   41.65    1.36
   0  -2  -7   26.07    0.91
  -1  -2  -7   37.29    1.27
  -2  -2  -7    9.87    0.39
  -2  -2  -7    9.58    0.40
  -3  -2  -7   22.60    0.59
  -3  -2  -7   22.22    0.56
  -3  -2  -7   22.86    0.60
  -3  -2  -7   22.17    0.84
  -3  -2  -7   21.93    0.80
   3   2   7   22.46    0.65
  -4  -2  -7   18.91    0.73
  -4  -2  -7   18.91    0.50
  -4  -2  -7   19.11    0.63
  -4  -2  -7   18.85    0.52
  -4  -2  -7   19.24    0.49
   4   2   7   18.86    0.54
   4   2   7   18.61    0.55
   4   2   7   19.10    0.51
  -5  -2  -7   14.41    0.41
  -5  -2  -7   14.69    0.49
  -5  -2  -7   14.53    0.39
  -5  -2  -7   14.47    0.38
   5   2   7   14.53    0.43
   5   2   7   14.16    0.39
  -6  -2  -7   13.59    0.39
  -6  -2  -7   14.70    0.38
  -6  -2  -7   13.49    0.47
  -6  -2  -7   14.01    0.36
   6   2   7   14.49    0.41
  -7  -2  -7    2.42    0.08
  -7  -2  -7    2.18    0.09
   7   2   7    2.20    0.10
  11  -3  -7   12.88    0.34
  11  -3  -7   13.11    0.36
  10  -3  -7    0.49    0.05
  10  -3  -7    0.47    0.05
  10  -3  -7    0.54    0.05
 -10   3   7    0.45    0.03
 -10   3   7    0.43    0.05
   9  -3  -7    6.72    0.21
   9  -3  -7    7.00    0.23
   9  -3  -7    6.52    0.21
  -9   3   7    6.67    0.20
  -9   3   7    7.18    0.26
   8  -3  -7   19.23    0.52
   8  -3  -7   19.46    0.53
   8  -3  -7   19.84    0.57
  -8   3   7   20.19    0.64
  -8   3   7   19.41    0.52
   7  -3  -7   20.87    0.59
   7  -3  -7   20.80    0.52
   7  -3  -7   20.25    0.56
   7  -3  -7   20.44    0.55
  -7   3   7   21.30    0.67
  -7   3   7   19.83    0.54
   6  -3  -7   42.08    1.05
   6  -3  -7   42.26    1.06
   6  -3  -7   42.01    1.07
   6  -3  -7   40.60    1.13
  -6   3   7   41.95    1.29
  -6   3   7   42.56    1.34
  -6   3   7   40.83    1.07
  -6   3   7   41.67    1.40
  -6   3   7   40.62    1.01
   5  -3  -7   39.99    1.49
  -5   3   7   40.76    1.36
  -5   3   7   39.55    1.24
   4  -3  -7   42.75    1.53
   4  -3  -7   39.22    1.34
  -4   3   7   42.54    1.41
  -4   3   7   41.22    1.27
   3  -3  -7   23.69    0.81
   3  -3  -7   23.53    0.91
  -3   3   7   24.26    0.84
   2  -3  -7   53.85    1.74
   2  -3  -7   53.01    1.96
  -2   3   7   55.32    1.81
   1  -3  -7   15.44    0.58
  -1   3   7   15.61    0.58
   0  -3  -7    1.43    0.12
  -1  -3  -7   20.53    0.75
  -2  -3  -7   14.35    0.38
  -2  -3  -7   13.94    0.41
  -2  -3  -7   14.31    0.55
   2   3   7   14.37    0.39
   2   3   7   14.45    0.44
  -3  -3  -7    9.77    0.27
  -3  -3  -7    9.78    0.30
  -3  -3  -7    9.85    0.28
   3   3   7    9.90    0.28
   3   3   7   10.12    0.32
   3   3   7    9.88    0.31
   3   3   7    9.76    0.29
  -4  -3  -7   24.37    0.62
  -4  -3  -7   24.11    0.60
  -4  -3  -7   24.71    0.64
   4   3   7   23.47    0.63
   4   3   7   22.75    0.68
   4   3   7   23.61    0.67
  -5  -3  -7    4.54    0.14
  -5  -3  -7    4.41    0.16
  -5  -3  -7    4.22    0.14
   5   3   7    4.69    0.17
   5   3   7    4.38    0.13
  -6  -3  -7    7.56    0.21
  -6  -3  -7    7.78    0.21
   6   3   7    8.03    0.24
   7   3   7    9.58    0.27
  10  -4  -7    3.43    0.12
  10  -4  -7    3.17    0.10
 -10   4   7    3.52    0.10
   9  -4  -7    8.13    0.25
   9  -4  -7    8.15    0.23
  -9   4   7    7.20    0.27
  -9   4   7    8.28    0.22
   8  -4  -7    5.80    0.19
   8  -4  -7    5.55    0.20
  -8   4   7    6.04    0.17
  -8   4   7    5.65    0.22
   7  -4  -7    1.52    0.06
   7  -4  -7    1.71    0.09
   7  -4  -7    1.57    0.10
  -7   4   7    1.51    0.08
  -7   4   7    1.61    0.10
  -7   4   7    1.43    0.07
   6  -4  -7   58.59    1.47
   6  -4  -7   61.13    1.48
   6  -4  -7   58.37    1.56
   6  -4  -7   58.05    1.59
  -6   4   7   59.50    1.40
  -6   4   7   53.17    1.78
  -6   4   7   59.99    1.48
   5  -4  -7   19.47    0.53
   5  -4  -7   19.55    0.52
   5  -4  -7   18.97    0.56
  -5   4   7   19.58    0.51
  -5   4   7   19.35    0.50
   4  -4  -7   30.05    0.84
   4  -4  -7   29.28    0.78
   4  -4  -7   28.93    0.78
  -4   4   7   30.10    0.74
   3  -4  -7   28.50    0.76
   3  -4  -7   28.39    0.82
  -3   4   7   29.06    0.72
   2  -4  -7    5.35    0.19
   2  -4  -7    5.35    0.21
  -2   4   7    5.31    0.18
  -2   4   7    5.26    0.18
   1  -4  -7    4.61    0.19
   1  -4  -7    4.56    0.16
   1  -4  -7    4.43    0.17
  -1   4   7    4.69    0.17
  -1   4   7    4.73    0.16
  -1   4   7    4.59    0.19
   0  -4  -7   -0.01    0.04
   0  -4  -7    0.10    0.05
   0   4   7   -0.03    0.04
   0   4   7    0.08    0.06
  -1  -4  -7   18.14    0.47
  -1  -4  -7   17.77    0.50
   1   4   7   18.34    0.55
   1   4   7   17.99    0.48
  -2  -4  -7   21.46    0.56
  -2  -4  -7   21.63    0.59
  -2  -4  -7   21.57    0.68
   2   4   7   22.08    0.59
   2   4   7   22.00    0.64
   2   4   7   22.19    0.57
  -3  -4  -7    0.77    0.08
  -3  -4  -7    0.69    0.06
   3   4   7    0.78    0.07
   3   4   7    0.70    0.07
   3   4   7    0.97    0.08
   3   4   7    0.87    0.08
  -4  -4  -7    5.50    0.17
  -4  -4  -7    5.29    0.21
   4   4   7    5.41    0.19
   4   4   7    5.27    0.18
   4   4   7    5.60    0.16
   4   4   7    5.53    0.17
  -5  -4  -7    5.17    0.19
  -5  -4  -7    5.42    0.16
   5   4   7    5.34    0.18
  -6  -4  -7   15.43    0.47
   6   4   7   15.60    0.42
   8  -5  -7   31.17    0.77
   8  -5  -7   29.87    0.81
  -8   5   7   29.77    0.72
   7  -5  -7    1.71    0.08
   7  -5  -7    1.72    0.09
  -7   5   7    1.66    0.07
   6  -5  -7    1.58    0.08
   6  -5  -7    1.54    0.07
   6  -5  -7    1.44    0.08
  -6   5   7    1.88    0.08
   5  -5  -7   19.83    0.54
   5  -5  -7   20.35    0.54
   5  -5  -7   20.16    0.58
  -5   5   7   20.44    0.51
   4  -5  -7   14.05    0.40
   4  -5  -7   14.09    0.39
   4  -5  -7   13.98    0.43
  -4   5   7   14.20    0.37
   3  -5  -7   39.13    1.00
   3  -5  -7   38.63    1.09
  -3   5   7   38.93    0.95
   2  -5  -7    5.25    0.18
   2  -5  -7    5.55    0.21
  -2   5   7    5.26    0.17
   1  -5  -7   13.69    0.43
  -1   5   7   13.72    0.43
  -1   5   7   13.80    0.37
   0  -5  -7    5.64    0.17
   0  -5  -7    5.68    0.21
   0   5   7    5.41    0.18
   0   5   7    5.23    0.21
  -1  -5  -7    1.04    0.08
  -1  -5  -7    1.06    0.07
   1   5   7    0.97    0.09
  -2  -5  -7    4.69    0.19
  -2  -5  -7    5.12    0.16
   2   5   7    4.83    0.17
   2   5   7    4.94    0.16
   2   5   7    5.15    0.18
  -3  -5  -7    2.20    0.09
  -3  -5  -7    2.13    0.11
   3   5   7    2.16    0.09
   3   5   7    2.15    0.09
   3   5   7    2.09    0.09
  -4  -5  -7   18.95    0.58
  -4  -5  -7   20.29    0.48
   4   5   7   19.03    0.48
  -6   6   7    8.96    0.23
   5  -6  -7    5.92    0.17
   5  -6  -7    5.93    0.18
  -5   6   7    5.93    0.16
   4  -6  -7   10.09    0.28
   4  -6  -7   10.31    0.30
  -4   6   7   10.02    0.26
   3  -6  -7   16.90    0.46
  -3   6   7   15.14    0.40
   2  -6  -7    0.72    0.06
  -2   6   7    0.76    0.06
   1  -6  -7    5.57    0.19
   1  -6  -7    5.46    0.19
  -1   6   7    5.48    0.19
   0  -6  -7    8.00    0.27
   0   6   7    9.30    0.27
   0   6   7    8.17    0.23
  -1  -6  -7   15.77    0.39
  -1  -6  -7   15.71    0.48
   1   6   7   16.20    0.40
   1   6   7   16.46    0.46
   1   6   7   15.72    0.42
  -2  -6  -7    4.38    0.12
   2   6   7    4.44    0.13
   2   6   7    4.26    0.14
   2   6   7    4.42    0.13
   5   6  -8    0.90    0.04
   4   6  -8    1.36    0.06
  -4  -6   8    1.35    0.05
   3   6  -8    2.20    0.08
   3   6  -8    2.26    0.08
   3   6  -8    2.35    0.07
  -3  -6   8    2.30    0.07
   2   6  -8    8.42    0.22
   2   6  -8    8.19    0.23
   2   6  -8    8.12    0.24
  -2  -6   8    8.02    0.21
   1   6  -8    7.65    0.21
   1   6  -8    8.16    0.23
   1   6  -8    7.59    0.22
  -1  -6   8    7.67    0.20
   0   6  -8    0.69    0.04
  -8  -5   8    5.20    0.14
  -8  -5   8    5.30    0.14
   7   5  -8    3.28    0.11
  -7  -5   8    3.39    0.10
  -7  -5   8    3.31    0.10
   6   5  -8   13.26    0.37
  -6  -5   8   13.19    0.35
  -6  -5   8   12.73    0.33
  -6  -5   8   13.67    0.33
   5   5  -8    7.33    0.19
   5   5  -8    7.53    0.22
  -5  -5   8    7.03    0.19
  -5  -5   8    7.48    0.20
  -5  -5   8    7.05    0.20
   4   5  -8    1.11    0.06
   4   5  -8    1.05    0.06
   4   5  -8    1.15    0.05
  -4  -5   8    1.00    0.06
  -4  -5   8    0.97    0.06
   3   5  -8    2.91    0.10
   3   5  -8    3.08    0.11
   3   5  -8    2.95    0.11
  -3  -5   8    3.06    0.10
  -3  -5   8    3.16    0.11
   2   5  -8   13.56    0.36
   2   5  -8   13.55    0.39
   2   5  -8   13.15    0.38
  -2  -5   8   13.48    0.34
   1   5  -8    0.76    0.06
   1   5  -8    0.71    0.05
  -1  -5   8    0.81    0.05
   0   5  -8    1.56    0.08
   0  -5   8    1.45    0.08
  -1   5  -8    0.20    0.03
   1  -5   8    0.19    0.04
   2  -5   8    5.60    0.18
  -3   5  -8    7.61    0.20
   3  -5   8    7.67    0.22
   3  -5   8    7.50    0.21
   9   4  -8    0.77    0.06
   9   4  -8    0.79    0.05
  -9  -4   8    0.77    0.04
  -9  -4   8    0.84    0.04
   8   4  -8    7.26    0.23
   8   4  -8    7.54    0.22
  -8  -4   8    7.30    0.26
  -8  -4   8    7.18    0.20
   7   4  -8    5.57    0.18
   7   4  -8    5.41    0.19
  -7  -4   8    5.17    0.21
  -7  -4   8    5.40    0.21
  -7  -4   8    5.41    0.16
   6   4  -8    3.32    0.13
   6   4  -8    3.26    0.12
  -6  -4   8    3.24    0.11
  -6  -4   8    3.39    0.15
   5   4  -8   33.54    1.30
   5   4  -8   35.61    0.88
   5   4  -8   34.27    0.93
  -5  -4   8   36.54    0.84
  -5  -4   8   34.34    0.89
  -5  -4   8   35.26    1.08
   4   4  -8   19.59    0.77
   4   4  -8   19.69    0.51
   4   4  -8   19.29    0.55
   4   4  -8   19.29    0.54
  -4  -4   8   19.59    0.48
  -4  -4   8   19.68    0.48
  -4  -4   8   19.31    0.51
  -4  -4   8   19.19    0.63
   3   4  -8   41.05    1.58
   3   4  -8   42.94    1.14
   3   4  -8   43.22    1.09
   3   4  -8   43.44    1.17
  -3  -4   8   42.03    1.03
  -3  -4   8   42.53    1.82
  -3  -4   8   43.80    1.02
  -3  -4   8   44.62    1.09
   2   4  -8    3.51    0.22
   2   4  -8    3.60    0.14
   2   4  -8    3.42    0.13
  -2  -4   8    3.89    0.27
  -2  -4   8    3.59    0.13
   1   4  -8    0.79    0.07
   1   4  -8    0.82    0.11
  -1  -4   8    0.85    0.14
  -1  -4   8    0.75    0.05
   0   4  -8    7.54    0.37
   0   4  -8    7.77    0.25
   0  -4   8    7.78    0.25
   0  -4   8    8.01    0.21
   0  -4   8    8.01    0.43
  -1   4  -8    5.26    0.18
  -1   4  -8    4.96    0.16
   1  -4   8    5.11    0.18
   1  -4   8    4.89    0.31
  -2   4  -8    3.59    0.12
   2  -4   8    3.54    0.14
  -3   4  -8    1.61    0.07
   3  -4   8    1.62    0.08
   3  -4   8    1.45    0.07
  -4   4  -8    2.88    0.09
   4  -4   8    2.79    0.10
   4  -4   8    3.07    0.11
  -5   4  -8   35.02    0.83
   5  -4   8   34.71    0.87
  10   3  -8    6.57    0.20
  10   3  -8    6.32    0.20
   9   3  -8    0.05    0.03
   9   3  -8    0.10    0.04
  -9  -3   8    0.05    0.02
  -9  -3   8    0.08    0.03
   8   3  -8    8.66    0.27
   8   3  -8    8.54    0.26
  -8  -3   8    8.41    0.30
   7   3  -8    2.25    0.11
   7   3  -8    2.30    0.10
  -7  -3   8    2.25    0.12
   6   3  -8   17.04    0.49
   6   3  -8   17.56    0.69
   6   3  -8   17.72    0.44
   6   3  -8   16.82    0.48
  -6  -3   8   16.97    0.46
  -6  -3   8   17.64    0.56
   5   3  -8   25.62    0.72
   5   3  -8   26.58    1.00
   5   3  -8   27.10    0.71
   5   3  -8   26.62    0.67
  -5  -3   8   26.29    0.90
  -5  -3   8   26.56    0.82
  -5  -3   8   26.27    1.15
  -5  -3   8   26.49    0.82
  -5  -3   8   25.92    0.64
  -5  -3   8   26.10    0.68
  -5  -3   8   24.52    0.95
   4   3  -8   33.09    0.93
   4   3  -8   33.54    0.94
   4   3  -8   35.13    1.28
   4   3  -8   34.15    0.92
  -4  -3   8   35.77    1.48
  -4  -3   8   34.64    1.23
  -4  -3   8   35.09    1.06
  -4  -3   8   34.08    0.88
  -4  -3   8   34.41    0.83
   3   3  -8   34.11    1.26
  -3  -3   8   36.05    1.46
  -3  -3   8   32.21    1.22
  -3  -3   8   32.76    1.04
   2   3  -8   20.10    0.78
  -2  -3   8   19.65    0.77
  -2  -3   8   19.17    0.89
   1   3  -8   12.89    0.55
  -1  -3   8   13.23    0.64
  -1  -3   8   12.78    0.56
   0   3  -8    4.39    0.16
   0   3  -8    4.56    0.25
   0  -3   8    4.72    0.30
   0  -3   8    4.26    0.27
   0  -3   8    4.37    0.17
  -1   3  -8   34.17    0.82
  -1   3  -8   33.76    1.27
   1  -3   8   35.68    1.47
   1  -3   8   32.60    0.94
  -2   3  -8   16.39    0.65
  -2   3  -8   16.35    0.41
   2  -3   8   15.24    0.74
   2  -3   8   15.93    0.47
  -3   3  -8   32.27    0.76
   3  -3   8   31.49    0.87
   3  -3   8   30.71    1.35
  -4   3  -8   73.73    1.73
   4  -3   8   71.94    1.83
   4  -3   8   74.15    1.97
  -5   3  -8   94.81    2.12
   5  -3   8   94.68    2.25
   5  -3   8   85.06    2.20
   5  -3   8   88.16    2.42
  -6   3  -8   14.95    0.37
  11   2  -8   14.63    0.40
  11   2  -8   14.69    0.41
  10   2  -8   17.30    0.49
  10   2  -8   17.97    0.49
   9   2  -8    0.45    0.06
   9   2  -8    0.35    0.05
   8   2  -8   32.66    0.88
   8   2  -8   32.27    0.88
  -8  -2   8   32.25    0.99
   7   2  -8   21.08    0.57
   7   2  -8   21.00    0.58
  -7  -2   8   21.34    0.65
  -7  -2   8   19.06    0.92
   6   2  -8    0.83    0.07
   6   2  -8    0.94    0.06
   6   2  -8    0.89    0.12
   6   2  -8    0.69    0.12
  -6  -2   8    0.62    0.09
  -6  -2   8    0.74    0.12
  -6  -2   8    0.79    0.07
   5   2  -8    1.55    0.15
   5   2  -8    1.41    0.13
   5   2  -8    1.53    0.13
  -5  -2   8    1.55    0.16
  -5  -2   8    1.65    0.09
  -5  -2   8    1.58    0.09
  -5  -2   8    1.67    0.13
  -5  -2   8    1.57    0.12
   4   2  -8    1.81    0.14
  -4  -2   8    1.57    0.09
  -4  -2   8    1.38    0.14
  -4  -2   8    1.53    0.12
  -4  -2   8    1.53    0.16
   3   2  -8   49.81    1.81
  -3  -2   8   53.02    2.11
  -3  -2   8   49.07    1.52
  -3  -2   8   49.96    1.73
   2   2  -8   91.53    3.04
  -2  -2   8   84.48    2.87
  -2  -2   8   81.84    3.50
   1   2  -8   20.77    0.78
  -1  -2   8   19.81    0.90
  -1  -2   8   19.95    0.77
   0   2  -8   22.10    0.86
   0   2  -8   21.96    0.85
   0  -2   8   21.41    0.82
   0  -2   8   23.35    0.86
   0  -2   8   24.24    1.01
  -1   2  -8   14.98    0.60
  -1   2  -8   14.50    0.61
   1  -2   8   14.72    0.59
   1  -2   8   15.23    0.70
  -2   2  -8    1.80    0.08
  -2   2  -8    1.94    0.16
  -2   2  -8    1.61    0.17
   2  -2   8    1.92    0.09
   2  -2   8    1.80    0.17
   2  -2   8    1.99    0.11
  -3   2  -8   91.51    2.20
  -3   2  -8   89.52    3.31
   3  -2   8   96.52    2.52
   3  -2   8   97.56    2.30
  -4   2  -8    9.51    0.27
   4  -2   8   10.09    0.28
   4  -2   8   10.24    0.30
   4  -2   8    9.93    0.30
  -5   2  -8   11.01    0.30
   5  -2   8   11.34    0.33
   5  -2   8   11.70    0.33
   5  -2   8   11.50    0.31
  -6   2  -8   13.27    0.34
   6  -2   8   13.64    0.36
  11   1  -8    1.95    0.09
  10   1  -8    4.77    0.17
   9   1  -8    1.07    0.08
   9   1  -8    1.10    0.09
   8   1  -8    6.84    0.21
   8   1  -8    6.41    0.22
  -8  -1   8    5.73    0.35
   7   1  -8    7.81    0.24
   7   1  -8    7.76    0.25
  -7  -1   8    7.96    0.30
  -7  -1   8    7.47    0.41
   6   1  -8    0.22    0.07
   6   1  -8    0.08    0.06
  -6  -1   8    0.19    0.03
  -6  -1   8    0.19    0.07
  -6  -1   8    0.15    0.04
   5   1  -8    3.81    0.23
   5   1  -8    4.32    0.21
  -5  -1   8    4.20    0.19
  -5  -1   8    4.56    0.26
  -5  -1   8    4.29    0.21
  -5  -1   8    3.88    0.16
   4   1  -8   31.93    1.06
  -4  -1   8   31.36    0.98
  -4  -1   8   32.60    1.02
  -4  -1   8   32.34    1.36
  -4  -1   8   31.87    1.11
   3   1  -8   47.76    1.82
   3   1  -8   50.37    1.64
  -3  -1   8   55.82    2.13
  -3  -1   8   51.22    1.73
   2   1  -8   24.18    0.94
  -2  -1   8   25.86    0.91
  -2  -1   8   26.75    1.11
   1   1  -8    9.77    0.39
  -1  -1   8    9.52    0.39
  -1  -1   8    8.61    0.45
   0   1  -8   25.81    0.93
   0   1  -8   23.98    0.90
   0  -1   8   24.62    1.07
   0  -1   8   25.03    0.90
  -1   1  -8    5.53    0.29
  -1   1  -8    6.03    0.29
   1  -1   8    6.14    0.30
  -2   1  -8   14.62    0.57
  -2   1  -8   14.21    0.57
   2  -1   8   13.38    0.57
  -3   1  -8   20.11    0.52
  -3   1  -8   20.31    0.54
  -3   1  -8   20.89    0.81
   3  -1   8   21.07    0.59
   3  -1   8   21.59    0.56
  -4   1  -8   11.67    0.48
  -4   1  -8   11.77    0.30
  -4   1  -8   10.93    0.31
   4  -1   8   11.41    0.32
   4  -1   8   11.21    0.34
   4  -1   8   11.25    0.33
  -5   1  -8    6.52    0.19
  -5   1  -8    6.57    0.19
   5  -1   8    7.00    0.20
   5  -1   8    6.54    0.21
   5  -1   8    7.10    0.22
  -6   1  -8   12.62    0.33
  -6   1  -8   12.54    0.34
   6  -1   8   13.13    0.35
  -7   1  -8   12.20    0.33
  -7   1  -8   11.80    0.30
   7  -1   8   12.17    0.32
  11   0  -8   22.20    0.61
  10   0  -8   34.46    0.91
  10   0  -8   32.95    0.85
   9   0  -8   81.26    1.98
   9   0  -8   83.36    2.12
  -9   0   8   77.11    3.29
   8   0  -8    1.41    0.09
   8   0  -8    1.37    0.09
  -8   0   8    1.36    0.16
   7   0  -8   59.47    2.21
   7   0  -8   58.84    1.95
  -7   0   8   61.44    2.50
  -7   0   8   61.72    1.84
   6   0  -8    0.63    0.09
   6   0  -8    0.83    0.10
  -6   0   8    0.77    0.07
  -6   0   8    0.75    0.06
  -6   0   8    1.00    0.13
   5   0  -8   32.68    1.09
   5   0  -8   32.32    1.23
  -5   0   8   33.10    1.03
  -5   0   8   32.19    1.00
  -5   0   8   32.74    1.12
  -5   0   8   34.58    1.40
   4   0  -8    6.56    0.27
   4   0  -8    6.21    0.29
  -4   0   8    6.39    0.27
  -4   0   8    6.52    0.25
  -4   0   8    6.94    0.34
   3   0  -8    3.69    0.28
   3   0  -8    3.87    0.18
  -3   0   8    4.03    0.19
  -3   0   8    3.74    0.23
   2   0  -8    0.07    0.04
  -2   0   8    0.18    0.06
  -2   0   8    0.07    0.04
   1   0  -8    4.40    0.19
   1   0  -8    4.28    0.22
   1   0  -8    4.02    0.21
  -1   0   8    4.47    0.21
   0   0  -8   79.38    2.63
   0   0  -8   80.71    2.79
   0   0   8   77.96    2.63
  -1   0  -8   11.37    0.46
  -1   0  -8   11.34    0.45
   1   0   8   10.63    0.46
  -2   0  -8    2.69    0.18
  -2   0  -8    2.86    0.18
   2   0   8    2.42    0.20
  -3   0  -8    4.22    0.13
  -3   0  -8    4.33    0.14
  -3   0  -8    4.46    0.24
  -3   0  -8    4.26    0.24
   3   0   8    4.22    0.15
   3   0   8    4.24    0.16
   3   0   8    4.47    0.17
  -4   0  -8    0.31    0.04
  -4   0  -8    0.25    0.03
  -4   0  -8    0.25    0.07
   4   0   8    0.29    0.05
   4   0   8    0.25    0.06
   4   0   8    0.25    0.04
  -5   0  -8   24.55    0.60
  -5   0  -8   23.91    0.62
   5   0   8   24.31    0.62
   5   0   8   23.39    0.67
   5   0   8   24.24    0.63
  -6   0  -8    2.10    0.08
  -6   0  -8    2.10    0.10
  -6   0  -8    2.02    0.07
   6   0   8    1.90    0.10
  -7   0  -8   81.63    2.04
  -7   0  -8   81.62    1.91
  -7   0  -8   82.18    2.03
  11  -1  -8    2.14    0.09
  11  -1  -8    1.95    0.10
  10  -1  -8    4.63    0.17
  10  -1  -8    4.72    0.16
 -10   1   8    4.46    0.18
   9  -1  -8    1.09    0.09
   9  -1  -8    1.16    0.09
  -9   1   8    1.14    0.08
   8  -1  -8    6.58    0.22
   8  -1  -8    6.87    0.23
  -8   1   8    7.01    0.25
   7  -1  -8    7.95    0.25
   7  -1  -8    7.91    0.26
  -7   1   8    8.07    0.29
  -7   1   8    7.73    0.28
   6  -1  -8    0.44    0.08
   6  -1  -8    0.14    0.06
  -6   1   8    0.19    0.05
  -6   1   8    0.26    0.05
  -6   1   8    0.17    0.04
   5  -1  -8    4.11    0.20
   5  -1  -8    4.01    0.21
  -5   1   8    3.82    0.17
  -5   1   8    4.12    0.19
  -5   1   8    4.14    0.17
   4  -1  -8   30.90    1.05
   4  -1  -8   33.87    1.18
  -4   1   8   31.72    1.00
  -4   1   8   32.20    1.34
  -4   1   8   31.42    0.98
  -4   1   8   31.33    1.08
   3  -1  -8   49.87    1.62
   3  -1  -8   48.23    1.95
  -3   1   8   51.92    2.08
  -3   1   8   52.08    1.69
   2  -1  -8   25.51    0.86
  -2   1   8   25.86    0.89
   1  -1  -8    9.49    0.36
   1  -1  -8    8.83    0.37
  -1   1   8    9.68    0.37
   0  -1  -8   25.03    0.86
   0  -1  -8   24.50    0.83
   0  -1  -8   24.13    0.90
   0   1   8   23.93    0.86
  -1  -1  -8    5.31    0.25
  -1  -1  -8    5.84    0.26
   1   1   8    5.29    0.28
  -2  -1  -8   13.86    0.54
  -2  -1  -8   13.16    0.52
   2   1   8   13.26    0.55
  -3  -1  -8   21.55    0.80
  -3  -1  -8   20.44    0.53
  -3  -1  -8   21.82    0.57
  -3  -1  -8   20.76    0.55
   3   1   8   20.46    0.55
   3   1   8   20.61    0.60
   3   1   8   20.40    0.56
  -4  -1  -8   11.46    0.31
  -4  -1  -8   11.16    0.47
  -4  -1  -8   11.77    0.34
  -4  -1  -8   11.28    0.31
   4   1   8   11.14    0.32
   4   1   8   11.30    0.33
   4   1   8   11.18    0.35
  -5  -1  -8    6.71    0.19
  -5  -1  -8    6.51    0.19
  -5  -1  -8    6.86    0.22
   5   1   8    6.33    0.21
   5   1   8    6.65    0.19
   5   1   8    6.42    0.22
  -6  -1  -8   12.83    0.33
  -6  -1  -8   12.97    0.34
  -6  -1  -8   13.29    0.36
   6   1   8   12.82    0.37
  -7  -1  -8   11.80    0.31
  -7  -1  -8   12.48    0.33
  11  -2  -8   15.09    0.39
  11  -2  -8   14.53    0.42
  10  -2  -8   17.89    0.49
  10  -2  -8   17.24    0.46
 -10   2   8   15.92    0.54
   9  -2  -8    0.42    0.06
   9  -2  -8    0.31    0.06
  -9   2   8    0.30    0.05
   8  -2  -8   32.71    0.89
   8  -2  -8   32.14    0.83
   8  -2  -8   31.65    0.84
  -8   2   8   32.56    1.00
   7  -2  -8   21.10    0.55
   7  -2  -8   20.04    0.59
   7  -2  -8   20.99    0.52
   7  -2  -8   20.35    0.55
  -7   2   8   20.55    0.67
   6  -2  -8    0.76    0.10
   6  -2  -8    0.99    0.08
   6  -2  -8    0.85    0.11
  -6   2   8    0.83    0.08
  -6   2   8    0.72    0.08
  -6   2   8    0.70    0.08
   5  -2  -8    1.66    0.13
   5  -2  -8    1.54    0.12
  -5   2   8    1.44    0.10
  -5   2   8    1.65    0.11
  -5   2   8    1.48    0.10
   4  -2  -8    1.68    0.13
   4  -2  -8    1.70    0.13
  -4   2   8    1.67    0.10
   3  -2  -8   49.25    1.59
   3  -2  -8   47.95    1.78
  -3   2   8   50.36    1.65
   2  -2  -8   84.96    2.60
  -2   2   8   79.87    2.71
   1  -2  -8   20.44    0.70
   1  -2  -8   19.55    0.72
  -1   2   8   20.13    0.72
   0  -2  -8   23.01    0.82
  -2  -2  -8    1.97    0.14
  -2  -2  -8    1.72    0.13
  -2  -2  -8    1.76    0.10
   2   2   8    1.67    0.11
  -3  -2  -8   95.15    2.20
  -3  -2  -8   93.75    2.33
  -3  -2  -8   90.63    3.26
  -3  -2  -8   92.10    2.33
   3   2   8   93.56    2.51
   3   2   8   91.82    2.34
  -4  -2  -8    9.71    0.27
  -4  -2  -8    9.76    0.27
  -4  -2  -8    9.68    0.29
   4   2   8    9.44    0.28
   4   2   8    9.89    0.31
   4   2   8    9.88    0.31
  -5  -2  -8   10.87    0.32
  -5  -2  -8   11.32    0.30
  -5  -2  -8   11.16    0.30
   5   2   8   11.51    0.30
   5   2   8   11.29    0.34
  -6  -2  -8   13.31    0.35
  -6  -2  -8   13.05    0.34
  -6  -2  -8   13.22    0.37
   6   2   8   14.20    0.39
  10  -3  -8    6.16    0.19
  10  -3  -8    6.07    0.18
  10  -3  -8    6.19    0.20
 -10   3   8    6.16    0.17
 -10   3   8    6.34    0.23
   9  -3  -8    0.02    0.04
   9  -3  -8    0.05    0.04
   9  -3  -8    0.01    0.04
  -9   3   8    0.06    0.02
  -9   3   8    0.05    0.03
   8  -3  -8    8.54    0.26
   8  -3  -8    8.82    0.26
   8  -3  -8    8.48    0.28
  -8   3   8    8.56    0.25
  -8   3   8    8.80    0.32
   7  -3  -8    2.36    0.08
   7  -3  -8    2.18    0.12
   7  -3  -8    2.40    0.11
   7  -3  -8    2.39    0.11
  -7   3   8    2.10    0.10
  -7   3   8    2.47    0.13
  -7   3   8    2.38    0.09
   6  -3  -8   17.35    0.47
   6  -3  -8   17.39    0.48
   6  -3  -8   17.51    0.47
   6  -3  -8   16.45    0.50
  -6   3   8   18.75    0.59
  -6   3   8   17.30    0.45
   5  -3  -8   25.54    0.69
   5  -3  -8   25.10    0.68
   5  -3  -8   25.90    0.74
  -5   3   8   26.49    0.68
  -5   3   8   25.20    0.65
  -5   3   8   26.25    0.93
  -5   3   8   26.76    0.83
   4  -3  -8   34.10    0.89
   4  -3  -8   34.37    0.96
  -4   3   8   32.64    0.85
  -4   3   8   34.79    1.18
  -4   3   8   35.19    0.88
  -4   3   8   33.56    0.84
   3  -3  -8   32.85    1.22
   3  -3  -8   32.30    1.09
  -3   3   8   32.30    1.12
   2  -3  -8   21.11    0.75
   1  -3  -8   12.57    0.51
   1  -3  -8   14.74    0.40
  -1   3   8   12.66    0.51
  -1   3   8   13.25    0.37
   0  -3  -8    4.54    0.16
   0  -3  -8    4.92    0.17
   0  -3  -8    4.59    0.23
   0   3   8    4.49    0.19
   0   3   8    4.71    0.17
  -1  -3  -8   35.14    0.85
  -1  -3  -8   34.13    0.90
   1   3   8   33.63    0.97
   1   3   8   34.40    0.86
  -2  -3  -8   16.58    0.43
  -2  -3  -8   16.65    0.46
   2   3   8   16.17    0.48
   2   3   8   16.48    0.50
   2   3   8   16.22    0.44
  -3  -3  -8   31.01    0.77
  -3  -3  -8   31.22    0.82
   3   3   8   30.66    0.85
   3   3   8   30.86    0.78
   3   3   8   31.90    0.88
   3   3   8   31.74    0.82
  -4  -3  -8   68.94    1.75
  -4  -3  -8   69.62    1.65
   4   3   8   69.71    1.75
   4   3   8   70.35    1.83
   4   3   8   69.40    1.88
  -5  -3  -8   89.31    2.09
  -5  -3  -8   87.63    2.22
   5   3   8   90.49    2.31
  -6  -3  -8   13.79    0.35
   6   3   8   14.64    0.39
   9  -4  -8    0.80    0.06
   9  -4  -8    0.78    0.06
  -9   4   8    0.75    0.04
   8  -4  -8    6.92    0.23
   8  -4  -8    6.95    0.21
  -8   4   8    7.19    0.26
  -8   4   8    6.95    0.19
  -8   4   8    7.64    0.20
   7  -4  -8    5.48    0.15
   7  -4  -8    5.57    0.18
   7  -4  -8    5.39    0.19
  -7   4   8    5.55    0.17
  -7   4   8    5.74    0.17
   6  -4  -8    3.14    0.13
   6  -4  -8    3.07    0.12
   6  -4  -8    3.20    0.13
  -6   4   8    3.05    0.12
  -6   4   8    3.21    0.11
   5  -4  -8   33.94    0.89
   5  -4  -8   34.61    0.89
   5  -4  -8   34.73    0.96
  -5   4   8   34.51    0.88
  -5   4   8   33.31    0.84
   4  -4  -8   19.08    0.52
   4  -4  -8   19.57    0.56
   4  -4  -8   19.25    0.52
  -4   4   8   18.11    0.49
   3  -4  -8   42.85    1.09
   3  -4  -8   43.14    1.18
  -3   4   8   41.82    1.05
  -3   4   8   41.19    1.03
   2  -4  -8    3.27    0.16
   2  -4  -8    3.51    0.14
   2  -4  -8    3.39    0.16
  -2   4   8    3.62    0.14
  -2   4   8    3.21    0.13
   1  -4  -8    0.89    0.08
   1  -4  -8    0.80    0.08
   1  -4  -8    0.86    0.09
  -1   4   8    0.72    0.07
  -1   4   8    0.69    0.08
   0  -4  -8    7.84    0.23
   0  -4  -8    8.43    0.25
   0   4   8    7.73    0.24
   0   4   8    7.73    0.28
  -1  -4  -8    5.38    0.18
  -1  -4  -8    5.28    0.17
   1   4   8    5.30    0.18
   1   4   8    4.88    0.20
  -2  -4  -8    3.80    0.14
  -2  -4  -8    3.69    0.14
   2   4   8    3.61    0.14
   2   4   8    3.71    0.14
   2   4   8    3.68    0.15
  -3  -4  -8    1.59    0.08
  -3  -4  -8    1.55    0.08
   3   4   8    1.49    0.08
   3   4   8    1.57    0.08
   3   4   8    1.46    0.09
   3   4   8    1.46    0.09
  -4  -4  -8    2.84    0.10
  -4  -4  -8    2.56    0.12
   4   4   8    2.63    0.11
   4   4   8    2.69    0.10
   4   4   8    2.69    0.09
  -5  -4  -8   34.97    0.82
   5   4   8   34.13    0.91
   8  -5  -8    5.04    0.15
   7  -5  -8    3.26    0.11
  -7   5   8    3.16    0.10
   6  -5  -8   12.18    0.34
   6  -5  -8   12.35    0.36
   6  -5  -8   12.97    0.33
  -6   5   8   12.70    0.33
   5  -5  -8    7.15    0.21
   5  -5  -8    7.12    0.22
   5  -5  -8    7.20    0.23
  -5   5   8    7.45    0.21
   4  -5  -8    1.04    0.08
   4  -5  -8    1.06    0.08
   4  -5  -8    1.04    0.08
  -4   5   8    1.15    0.07
   3  -5  -8    2.75    0.13
   3  -5  -8    2.67    0.11
  -3   5   8    2.62    0.11
   2  -5  -8   12.49    0.39
   2  -5  -8   13.02    0.35
  -2   5   8   12.37    0.34
  -2   5   8   12.10    0.33
  -2   5   8   12.14    0.39
   1  -5  -8    0.65    0.06
   1  -5  -8    0.79    0.08
  -1   5   8    0.80    0.08
  -1   5   8    0.76    0.06
   0  -5  -8    1.36    0.07
   0   5   8    1.36    0.08
   0   5   8    1.51    0.10
  -1  -5  -8    0.24    0.04
   1   5   8    0.18    0.04
   1   5   8    0.20    0.05
   1   5   8    0.23    0.05
  -2  -5  -8    5.77    0.17
   2   5   8    5.59    0.17
   2   5   8    5.63    0.19
   2   5   8    5.67    0.17
  -3  -5  -8    7.71    0.21
   3   5   8    7.88    0.21
   3   5   8    7.73    0.21
   3   5   8    7.29    0.22
   5  -6  -8    0.86    0.04
  -5   6   8    0.91    0.04
   4  -6  -8    1.37    0.06
   4  -6  -8    1.32    0.07
  -4   6   8    1.37    0.06
   3  -6  -8    2.29    0.09
   3  -6  -8    2.12    0.09
   2  -6  -8    8.03    0.24
  -2   6   8    7.53    0.24
   1  -6  -8    7.37    0.23
  -1   6   8    7.71    0.23
   0   6   8    0.69    0.05
   7   5  -9    0.67    0.04
  -7  -5   9    0.65    0.03
  -7  -5   9    0.63    0.04
   6   5  -9    5.38    0.17
  -6  -5   9    5.63    0.15
  -6  -5   9    5.45    0.15
  -6  -5   9    5.52    0.15
   5   5  -9   26.06    0.70
  -5  -5   9   25.60    0.62
  -5  -5   9   26.54    0.62
   4   5  -9   31.22    0.77
   4   5  -9   29.97    0.83
   4   5  -9   29.86    0.81
  -4  -5   9   31.12    0.73
   3   5  -9    1.47    0.06
   3   5  -9    1.71    0.07
   3   5  -9    1.43    0.07
  -3  -5   9    1.44    0.06
   2   5  -9   21.81    0.56
   2   5  -9   22.48    0.61
   2   5  -9   20.94    0.59
  -2  -5   9   22.07    0.53
   1   5  -9    5.58    0.18
  -1  -5   9    5.51    0.15
   0   5  -9    9.14    0.27
   0  -5   9    8.88    0.27
  -1   5  -9    4.71    0.15
   1  -5   9    4.70    0.15
   2  -5   9    0.22    0.03
   9   4  -9    1.08    0.06
   9   4  -9    1.14    0.05
  -9  -4   9    1.07    0.04
   8   4  -9   10.96    0.32
   8   4  -9   11.68    0.31
  -8  -4   9   10.95    0.37
  -8  -4   9   11.16    0.29
  -8  -4   9   10.57    0.28
   7   4  -9    5.88    0.18
   7   4  -9    5.72    0.19
  -7  -4   9    5.79    0.16
  -7  -4   9    5.73    0.22
  -7  -4   9    5.77    0.17
   6   4  -9   16.62    0.48
   6   4  -9   17.63    0.47
  -6  -4   9   17.30    0.42
  -6  -4   9   16.90    0.56
  -6  -4   9   17.33    0.45
  -6  -4   9   16.74    0.42
   5   4  -9   36.82    0.89
   5   4  -9   33.81    0.94
  -5  -4   9   34.93    0.84
  -5  -4   9   34.89    0.84
  -5  -4   9   36.03    0.90
  -5  -4   9   34.50    1.08
   4   4  -9   27.03    0.73
   4   4  -9   26.29    0.74
   4   4  -9   26.90    0.69
  -4  -4   9   27.44    0.65
  -4  -4   9   27.53    0.66
  -4  -4   9   26.59    0.69
  -4  -4   9   27.66    0.70
   3   4  -9    3.73    0.13
   3   4  -9    3.55    0.13
   3   4  -9    3.45    0.12
  -3  -4   9    3.14    0.25
  -3  -4   9    3.38    0.11
  -3  -4   9    3.63    0.12
   2   4  -9   23.01    0.65
  -2  -4   9   24.02    0.57
  -2  -4   9   22.36    1.03
   1   4  -9   36.38    1.02
  -1  -4   9   38.35    1.60
  -1  -4   9   36.87    0.89
   0   4  -9    2.48    0.10
   0  -4   9    2.50    0.09
   0  -4   9    2.60    0.11
  -1   4  -9    4.96    0.17
   1  -4   9    4.74    0.17
  -2   4  -9    0.87    0.05
   2  -4   9    0.96    0.06
  -3   4  -9   19.43    0.49
   3  -4   9   20.84    0.56
   3  -4   9   20.07    0.52
  -4   4  -9    8.15    0.21
   4  -4   9    7.82    0.23
   4  -4   9    8.34    0.22
  10   3  -9    1.77    0.08
  10   3  -9    1.94    0.08
   9   3  -9    5.76    0.19
   9   3  -9    5.93    0.19
  -9  -3   9    5.83    0.21
   8   3  -9    8.55    0.25
   8   3  -9    8.28    0.26
  -8  -3   9    7.96    0.29
  -8  -3   9    7.68    0.22
   7   3  -9    2.58    0.12
   7   3  -9    2.50    0.11
  -7  -3   9    2.49    0.13
  -7  -3   9    2.59    0.09
  -7  -3   9    2.41    0.10
   6   3  -9   42.14    1.05
   6   3  -9   42.66    1.13
   6   3  -9   42.29    1.13
   6   3  -9   41.22    1.55
  -6  -3   9   44.58    1.29
  -6  -3   9   41.10    1.79
  -6  -3   9   42.90    1.08
  -6  -3   9   41.94    1.00
   5   3  -9    8.13    0.22
   5   3  -9    6.72    0.23
   5   3  -9    6.91    0.20
   5   3  -9    6.41    0.34
  -5  -3   9    6.64    0.39
  -5  -3   9    6.95    0.20
  -5  -3   9    7.29    0.27
  -5  -3   9    7.34    0.20
  -5  -3   9    7.21    0.20
   4   3  -9   23.22    0.66
   4   3  -9   23.32    0.92
   4   3  -9   23.80    0.66
   4   3  -9   23.59    0.61
   4   3  -9   22.92    0.64
  -4  -3   9   24.09    1.07
  -4  -3   9   24.08    0.58
  -4  -3   9   24.21    0.76
  -4  -3   9   24.10    0.62
  -4  -3   9   24.30    0.58
   3   3  -9   28.73    0.80
   3   3  -9   28.47    0.75
   3   3  -9   28.81    1.10
  -3  -3   9   28.27    0.70
  -3  -3   9   29.20    0.74
  -3  -3   9   28.37    0.70
  -3  -3   9   31.20    1.28
   2   3  -9   13.08    0.39
   2   3  -9   13.15    0.55
  -2  -3   9   13.11    0.34
  -2  -3   9   13.09    0.64
   1   3  -9    1.02    0.13
   1   3  -9    0.90    0.06
  -1  -3   9    0.77    0.05
  -1  -3   9    0.75    0.13
   0   3  -9    2.03    0.17
   0   3  -9    2.06    0.09
   0  -3   9    1.87    0.09
   0  -3   9    1.88    0.19
   0  -3   9    1.92    0.08
  -1   3  -9    0.78    0.11
  -1   3  -9    0.60    0.06
  -1   3  -9    0.66    0.05
   1  -3   9    0.68    0.13
   1  -3   9    0.48    0.05
  -2   3  -9   18.19    0.45
   2  -3   9   17.77    0.52
  -3   3  -9    5.49    0.16
   3  -3   9    5.25    0.17
   3  -3   9    5.65    0.18
  -4   3  -9   10.43    0.28
   4  -3   9   10.69    0.29
   4  -3   9   11.46    0.32
  -5   3  -9    6.84    0.18
   5  -3   9    6.46    0.17
  11   2  -9    0.91    0.05
  10   2  -9    0.40    0.04
  10   2  -9    0.42    0.05
 -10  -2   9    0.34    0.04
   9   2  -9   16.84    0.48
   9   2  -9   17.08    0.48
  -9  -2   9   16.65    0.54
   8   2  -9   25.82    0.71
   8   2  -9   26.16    0.71
  -8  -2   9   26.14    0.81
   7   2  -9    1.85    0.10
   7   2  -9    2.45    0.12
  -7  -2   9    2.01    0.19
  -7  -2   9    2.18    0.11
   6   2  -9   26.30    0.70
   6   2  -9   26.12    0.71
   6   2  -9   25.99    0.65
  -6  -2   9   25.43    0.80
  -6  -2   9   24.33    1.13
   5   2  -9   31.98    0.89
   5   2  -9   33.66    0.84
   5   2  -9   33.54    0.90
   5   2  -9   32.39    1.23
  -5  -2   9   33.58    0.79
  -5  -2   9   33.18    1.43
  -5  -2   9   32.46    0.85
  -5  -2   9   32.38    1.17
  -5  -2   9   34.54    1.03
  -5  -2   9   33.17    1.08
   4   2  -9    0.46    0.09
  -4  -2   9    0.37    0.10
  -4  -2   9    0.53    0.06
  -4  -2   9    0.63    0.11
   3   2  -9   22.03    0.82
  -3  -2   9   20.45    0.67
  -3  -2   9   20.83    0.95
  -3  -2   9   21.01    0.80
   2   2  -9   33.70    1.28
  -2  -2   9   33.51    1.23
  -2  -2   9   36.03    1.48
   1   2  -9    2.92    0.19
  -1  -2   9    2.80    0.21
  -1  -2   9    2.98    0.23
   0   2  -9    1.07    0.13
   0   2  -9    0.85    0.06
   0  -2   9    0.99    0.06
   0  -2   9    1.22    0.16
   0  -2   9    0.86    0.07
   0  -2   9    0.80    0.12
  -1   2  -9   27.96    1.05
  -1   2  -9   27.67    0.67
   1  -2   9   26.77    1.20
  -2   2  -9   17.78    0.72
  -2   2  -9   17.71    0.45
   2  -2   9   17.68    0.52
   2  -2   9   18.81    0.49
  -3   2  -9   25.82    0.63
   3  -2   9   24.97    0.67
   3  -2   9   26.11    0.72
   3  -2   9   26.22    0.67
  -4   2  -9   15.46    0.38
   4  -2   9   14.71    0.41
   4  -2   9   14.67    0.40
   4  -2   9   15.21    0.43
  -5   2  -9   19.09    0.46
   5  -2   9   17.99    0.52
   5  -2   9   19.40    0.48
  -6   2  -9    0.48    0.03
  11   1  -9   22.05    0.60
  10   1  -9   26.15    0.71
   9   1  -9    6.84    0.22
   9   1  -9    6.86    0.22
  -9  -1   9    6.53    0.24
   8   1  -9    1.13    0.08
   8   1  -9    1.23    0.10
  -8  -1   9    1.14    0.14
  -8  -1   9    1.18    0.08
   7   1  -9   27.88    0.77
   7   1  -9   28.13    0.77
  -7  -1   9   29.06    0.87
  -7  -1   9   27.28    1.22
   6   1  -9    8.19    0.26
   6   1  -9    7.90    0.40
   6   1  -9    8.88    0.27
  -6  -1   9    8.54    0.33
  -6  -1   9    8.79    0.45
  -6  -1   9    8.45    0.30
   5   1  -9    2.09    0.15
  -5  -1   9    2.22    0.15
  -5  -1   9    2.15    0.19
  -5  -1   9    2.38    0.14
  -5  -1   9    2.15    0.11
  -4  -1   9   19.36    0.73
  -4  -1   9   18.44    0.63
  -4  -1   9   21.11    0.89
   3   1  -9   33.80    1.25
  -3  -1   9   33.00    1.20
  -3  -1   9   36.22    1.46
  -3  -1   9   33.81    1.05
   2   1  -9    2.94    0.18
  -2  -1   9    3.27    0.20
  -2  -1   9    3.24    0.23
   1   1  -9   14.77    0.59
  -1  -1   9   14.72    0.69
  -1  -1   9   15.34    0.59
   0   1  -9   62.33    2.14
   0   1  -9   60.20    2.03
   0  -1   9   54.30    2.47
   0  -1   9   61.80    2.01
  -1   1  -9  150.35    3.55
  -1   1  -9  157.24    5.30
   1  -1   9  148.56    4.07
  -2   1  -9   43.20    1.02
  -2   1  -9   42.24    1.55
   2  -1   9   43.71    1.07
   2  -1   9   40.65    1.17
  -3   1  -9    5.25    0.27
  -3   1  -9    5.42    0.16
   3  -1   9    5.25    0.19
   3  -1   9    5.53    0.19
   3  -1   9    5.42    0.18
  -4   1  -9    8.98    0.27
  -4   1  -9    9.43    0.25
   4  -1   9    9.05    0.26
   4  -1   9    9.27    0.28
   4  -1   9    9.54    0.29
  -5   1  -9   18.61    0.46
  -5   1  -9   17.60    0.49
   5  -1   9   18.73    0.48
   5  -1   9   17.74    0.51
   5  -1   9   19.14    0.49
  -6   1  -9    0.57    0.05
  -6   1  -9    0.70    0.04
  11   0  -9    0.74    0.06
  10   0  -9   21.21    0.57
  10   0  -9   20.16    0.53
 -10   0   9   20.15    0.64
   9   0  -9   32.87    0.90
   9   0  -9   33.77    0.85
  -9   0   9   34.82    1.02
  -9   0   9   30.91    1.44
   8   0  -9    0.44    0.05
   8   0  -9    0.55    0.07
  -8   0   9    0.63    0.06
  -8   0   9    0.49    0.10
   7   0  -9   30.14    0.83
   7   0  -9   30.04    0.78
  -7   0   9   30.36    0.94
  -7   0   9   31.35    1.32
   6   0  -9   13.33    0.57
   6   0  -9   13.47    0.51
  -6   0   9   14.87    0.65
  -6   0   9   13.32    0.45
  -6   0   9   12.70    0.47
   5   0  -9   23.52    0.96
   5   0  -9   25.50    0.86
  -5   0   9   24.72    0.81
  -5   0   9   25.20    0.79
  -5   0   9   25.38    0.88
  -5   0   9   26.30    1.10
   4   0  -9   14.72    0.55
  -4   0   9   14.88    0.50
  -4   0   9   16.73    0.71
  -4   0   9   15.13    0.57
   3   0  -9    6.87    0.29
  -3   0   9    7.00    0.26
  -3   0   9    6.80    0.30
  -3   0   9    7.17    0.37
   2   0  -9   63.75    2.04
  -2   0   9   62.42    2.63
  -2   0   9   66.55    2.15
   1   0  -9   94.52    3.35
  -1   0   9   96.63    3.16
   0   0  -9   16.31    0.63
   0   0  -9   16.95    0.65
   0   0   9   15.97    0.62
  -1   0  -9  156.87    5.24
  -1   0  -9  146.01    4.93
   1   0   9  147.88    4.86
  -2   0  -9    8.09    0.37
  -2   0  -9    7.95    0.23
  -2   0  -9    7.94    0.25
   2   0   9    7.76    0.26
   2   0   9    8.01    0.25
  -3   0  -9    2.16    0.16
  -3   0  -9    2.11    0.09
  -3   0  -9    1.93    0.11
   3   0   9    1.78    0.11
   3   0   9    1.98    0.10
   3   0   9    2.02    0.10
  -4   0  -9    3.10    0.13
  -4   0  -9    3.03    0.11
   4   0   9    3.16    0.13
   4   0   9    3.22    0.14
   4   0   9    2.93    0.12
  -5   0  -9   15.91    0.41
  -5   0  -9   16.51    0.44
   5   0   9   16.17    0.42
  -6   0  -9    2.61    0.10
  -6   0  -9    2.72    0.09
  11  -1  -9   22.57    0.61
  11  -1  -9   22.38    0.57
  10  -1  -9   26.86    0.67
  10  -1  -9   26.35    0.72
 -10   1   9   25.03    0.80
   9  -1  -9    6.99    0.22
   9  -1  -9    6.70    0.23
  -9   1   9    6.58    0.25
   8  -1  -9    1.28    0.09
   8  -1  -9    1.29    0.09
  -8   1   9    1.23    0.15
  -8   1   9    1.19    0.09
   7  -1  -9   26.76    0.75
   7  -1  -9   27.45    0.71
  -7   1   9   27.60    0.85
  -7   1   9   27.04    1.19
   6  -1  -9    8.62    0.26
   6  -1  -9    7.53    0.39
  -6   1   9    8.89    0.32
  -6   1   9    8.40    0.34
  -6   1   9    8.67    0.44
  -6   1   9    8.54    0.31
   5  -1  -9    2.34    0.16
   5  -1  -9    2.02    0.15
  -5   1   9    2.11    0.12
  -5   1   9    2.08    0.13
  -5   1   9    2.28    0.18
  -5   1   9    2.14    0.13
   4  -1  -9   19.26    0.67
  -4   1   9   18.71    0.62
  -4   1   9   19.34    0.69
  -4   1   9   19.02    0.85
   3  -1  -9   33.25    1.09
  -3   1   9   32.61    1.13
   2  -1  -9    3.20    0.17
  -2   1   9    2.96    0.17
   1  -1  -9   14.08    0.52
  -1   1   9   14.54    0.55
   0  -1  -9   60.31    2.03
  -1  -1  -9  149.34    3.69
  -1  -1  -9  143.15    5.17
  -1  -1  -9  147.59    4.86
  -1  -1  -9  153.67    3.48
   1   1   9  148.95    3.99
  -2  -1  -9   43.28    1.57
  -2  -1  -9   43.64    1.12
  -2  -1  -9   43.95    1.05
   2   1   9   42.29    1.20
  -3  -1  -9    5.75    0.20
  -3  -1  -9    5.56    0.17
  -3  -1  -9    5.68    0.28
   3   1   9    5.57    0.19
   3   1   9    5.23    0.20
  -4  -1  -9    9.48    0.26
  -4  -1  -9    9.20    0.28
   4   1   9    9.07    0.29
   4   1   9    9.29    0.27
  -5  -1  -9   18.14    0.46
  -5  -1  -9   18.96    0.49
   5   1   9   17.84    0.51
   5   1   9   18.33    0.47
  -6  -1  -9    0.66    0.05
  -6  -1  -9    0.64    0.04
   6   1   9    0.70    0.06
  11  -2  -9    0.97    0.06
  11  -2  -9    1.02    0.06
 -11   2   9    0.89    0.04
  10  -2  -9    0.36    0.05
  10  -2  -9    0.38    0.05
 -10   2   9    0.38    0.03
 -10   2   9    0.31    0.05
   9  -2  -9   16.81    0.48
   9  -2  -9   17.10    0.46
  -9   2   9   16.53    0.45
  -9   2   9   16.88    0.55
   8  -2  -9   27.24    0.75
   8  -2  -9   26.22    0.70
  -8   2   9   26.81    0.70
  -8   2   9   27.98    0.86
   7  -2  -9    1.94    0.11
   7  -2  -9    1.96    0.07
   7  -2  -9    1.90    0.10
   7  -2  -9    2.00    0.11
  -7   2   9    2.27    0.12
  -7   2   9    1.95    0.08
   6  -2  -9   26.17    0.68
   6  -2  -9   25.66    0.67
   6  -2  -9   25.96    0.69
  -6   2   9   25.55    0.64
  -6   2   9   26.51    0.82
  -6   2   9   25.95    0.68
  -6   2   9   25.50    0.66
   5  -2  -9   32.39    0.86
   5  -2  -9   32.71    0.92
   5  -2  -9   33.44    0.85
   5  -2  -9   33.02    0.86
  -5   2   9   32.94    1.40
  -5   2   9   33.95    0.85
  -5   2   9   33.17    0.83
  -5   2   9   33.38    1.03
  -5   2   9   33.34    1.14
  -5   2   9   32.29    0.81
   4  -2  -9    0.69    0.10
  -4   2   9    0.63    0.08
  -4   2   9    0.50    0.06
   3  -2  -9   19.71    0.70
  -3   2   9   20.07    0.72
   2  -2  -9   33.97    1.13
  -2   2   9   33.83    1.17
   1  -2  -9    3.02    0.18
   0  -2  -9    0.97    0.07
   0  -2  -9    1.04    0.08
   0  -2  -9    0.82    0.10
   0   2   9    0.97    0.08
   0   2   9    1.00    0.09
  -1  -2  -9   28.24    0.74
   1   2   9   27.79    0.80
   1   2   9   27.38    0.71
  -2  -2  -9   18.25    0.48
  -2  -2  -9   18.46    0.51
   2   2   9   18.50    0.55
  -3  -2  -9   25.76    0.68
  -3  -2  -9   25.73    0.64
   3   2   9   25.54    0.73
   3   2   9   25.25    0.68
  -4  -2  -9   14.71    0.38
  -4  -2  -9   14.26    0.41
   4   2   9   14.33    0.39
   4   2   9   15.31    0.43
   4   2   9   14.62    0.43
  -5  -2  -9   18.45    0.47
  -5  -2  -9   18.41    0.50
   5   2   9   19.07    0.52
  -6  -2  -9    0.45    0.04
  -6  -2  -9    0.38    0.04
   6   2   9    0.46    0.04
  10  -3  -9    1.79    0.07
  10  -3  -9    1.70    0.08
  10  -3  -9    1.81    0.08
 -10   3   9    1.85    0.06
   9  -3  -9    5.47    0.18
   9  -3  -9    5.54    0.19
   9  -3  -9    5.73    0.17
  -9   3   9    5.68    0.16
  -9   3   9    5.39    0.21
   8  -3  -9    8.08    0.26
   8  -3  -9    7.72    0.24
   8  -3  -9    7.99    0.24
  -8   3   9    8.21    0.23
  -8   3   9    8.29    0.30
   7  -3  -9    2.55    0.12
   7  -3  -9    2.53    0.12
   7  -3  -9    2.63    0.08
  -7   3   9    2.88    0.14
  -7   3   9    2.70    0.11
  -7   3   9    2.56    0.10
   6  -3  -9   41.80    1.07
   6  -3  -9   44.19    1.10
   6  -3  -9   42.10    1.08
   6  -3  -9   41.37    1.17
  -6   3   9   42.86    1.03
  -6   3   9   42.83    1.09
  -6   3   9   42.81    1.31
   5  -3  -9    6.93    0.24
   5  -3  -9    7.24    0.23
   5  -3  -9    6.81    0.22
   5  -3  -9    6.80    0.22
  -5   3   9    6.68    0.20
  -5   3   9    6.43    0.21
  -5   3   9    7.72    0.22
   4  -3  -9   22.49    0.62
   4  -3  -9   22.89    0.62
   4  -3  -9   23.51    0.67
  -4   3   9   22.79    0.60
  -4   3   9   23.44    0.59
  -4   3   9   23.06    0.60
   3  -3  -9   28.90    0.82
   3  -3  -9   27.68    0.75
  -3   3   9   28.11    0.72
  -3   3   9   28.91    0.71
   2  -3  -9   13.06    0.38
   2  -3  -9   13.03    0.42
  -2   3   9   13.54    0.37
  -2   3   9   13.33    0.36
   1  -3  -9    0.74    0.08
   1  -3  -9    0.93    0.08
  -1   3   9    1.04    0.09
  -1   3   9    0.87    0.07
  -1   3   9    0.97    0.08
   0  -3  -9    2.03    0.11
   0  -3  -9    2.06    0.10
   0   3   9    2.11    0.11
   0   3   9    2.07    0.12
  -1  -3  -9    0.45    0.06
  -1  -3  -9    0.59    0.06
   1   3   9    0.78    0.08
   1   3   9    0.68    0.07
  -2  -3  -9   19.04    0.48
  -2  -3  -9   18.42    0.51
   2   3   9   18.24    0.51
   2   3   9   17.78    0.48
   2   3   9   19.00    0.55
   2   3   9   18.27    0.53
  -3  -3  -9    5.46    0.18
  -3  -3  -9    5.58    0.17
   3   3   9    5.31    0.19
   3   3   9    5.24    0.18
   3   3   9    5.43    0.19
  -4  -3  -9   10.39    0.28
  -4  -3  -9   10.44    0.30
   4   3   9   10.18    0.31
   4   3   9   10.69    0.28
   4   3   9   10.39    0.31
  -5  -3  -9    6.49    0.18
  -5  -3  -9    6.27    0.19
   5   3   9    6.85    0.20
   9  -4  -9    1.08    0.06
  -9   4   9    1.07    0.04
   8  -4  -9   11.18    0.30
  -8   4   9   11.40    0.29
  -8   4   9   10.58    0.28
   7  -4  -9    5.83    0.18
  -7   4   9    5.77    0.17
  -7   4   9    5.62    0.16
   6  -4  -9   16.26    0.47
   6  -4  -9   17.10    0.44
   6  -4  -9   17.06    0.45
  -6   4   9   16.11    0.43
  -6   4   9   16.28    0.43
   5  -4  -9   34.43    0.91
   5  -4  -9   35.47    0.92
   5  -4  -9   35.19    0.98
  -5   4   9   36.45    0.87
   4  -4  -9   26.93    0.71
   4  -4  -9   26.79    0.71
   4  -4  -9   27.35    0.77
  -4   4   9   26.96    0.67
  -4   4   9   26.07    0.68
   3  -4  -9    3.47    0.16
   3  -4  -9    3.26    0.14
  -3   4   9    3.57    0.13
  -3   4   9    3.64    0.14
   2  -4  -9   22.83    0.67
   2  -4  -9   23.61    0.68
   2  -4  -9   22.76    0.62
  -2   4   9   23.04    0.58
  -2   4   9   22.63    0.60
   1  -4  -9   36.53    1.03
   1  -4  -9   36.37    1.03
   1  -4  -9   36.36    0.94
  -1   4   9   36.20    1.03
  -1   4   9   35.92    0.91
   0  -4  -9    2.53    0.11
   0  -4  -9    2.52    0.12
   0   4   9    2.47    0.13
   0   4   9    2.61    0.11
  -1  -4  -9    4.88    0.17
  -1  -4  -9    5.34    0.16
   1   4   9    5.01    0.17
   1   4   9    5.03    0.19
  -2  -4  -9    0.93    0.07
  -2  -4  -9    0.96    0.07
   2   4   9    0.94    0.07
   2   4   9    0.91    0.07
   2   4   9    0.95    0.08
  -3  -4  -9   20.02    0.48
  -3  -4  -9   18.47    0.50
   3   4   9   18.18    0.52
   3   4   9   19.09    0.54
   3   4   9   18.94    0.48
   3   4   9   19.77    0.50
  -4  -4  -9    8.40    0.22
   7  -5  -9    0.70    0.05
  -7   5   9    0.64    0.04
   6  -5  -9    5.55    0.17
   6  -5  -9    5.61    0.15
  -6   5   9    5.33    0.16
   5  -5  -9   25.30    0.66
   5  -5  -9   25.38    0.66
   5  -5  -9   25.75    0.71
  -5   5   9   26.56    0.63
   4  -5  -9   29.34    0.76
   4  -5  -9   29.11    0.77
   4  -5  -9   30.36    0.83
  -4   5   9   30.00    0.72
   3  -5  -9    1.29    0.08
   3  -5  -9    1.26    0.09
  -3   5   9    1.32    0.07
   2  -5  -9   20.89    0.60
   2  -5  -9   20.52    0.55
  -2   5   9   20.67    0.53
  -2   5   9   21.31    0.60
   1  -5  -9    5.20    0.17
   1  -5  -9    5.05    0.19
  -1   5   9    5.53    0.17
  -1   5   9    5.38    0.19
   0  -5  -9    9.18    0.27
   0   5   9    9.89    0.26
   0   5   9    9.68    0.30
  -1  -5  -9    4.85    0.14
   1   5   9    5.06    0.15
   1   5   9    4.69    0.16
   1   5   9    5.14    0.17
  -2  -5  -9    0.22    0.03
   2   5   9    0.24    0.03
   2   5   9    0.23    0.03
   2   5   9    0.26    0.04
   6   5 -10   20.11    0.54
   5   5 -10   29.14    0.77
  -5  -5  10   29.36    0.69
   4   5 -10    7.26    0.19
   4   5 -10    6.73    0.20
  -4  -5  10    7.08    0.18
   3   5 -10   16.94    0.48
   3   5 -10   18.09    0.45
  -3  -5  10   17.36    0.42
   2   5 -10    2.44    0.08
   2   5 -10    2.47    0.09
  -2  -5  10    2.41    0.08
   1   5 -10    6.00    0.18
   1   5 -10    5.67    0.16
  -1  -5  10    5.43    0.15
   0   5 -10    5.23    0.15
   0  -5  10    4.66    0.16
   8   4 -10    1.35    0.06
   8   4 -10    1.38    0.07
  -8  -4  10    1.28    0.05
  -8  -4  10    1.32    0.05
   7   4 -10    0.86    0.06
   7   4 -10    0.79    0.06
  -7  -4  10    0.91    0.04
  -7  -4  10    0.82    0.07
  -7  -4  10    0.88    0.05
  -7  -4  10    0.92    0.04
   6   4 -10    0.66    0.05
   6   4 -10    0.72    0.06
  -6  -4  10    0.75    0.04
  -6  -4  10    0.78    0.05
  -6  -4  10    0.73    0.04
   5   4 -10   17.53    0.44
   5   4 -10   17.00    0.47
  -5  -4  10   16.83    0.44
  -5  -4  10   17.04    0.42
  -5  -4  10   17.11    0.42
   4   4 -10    1.95    0.08
   4   4 -10    1.92    0.08
   4   4 -10    1.97    0.08
  -4  -4  10    1.93    0.08
   3   4 -10    8.60    0.25
   3   4 -10    8.79    0.26
  -3  -4  10    8.95    0.23
   2   4 -10    0.56    0.05
   2   4 -10    0.44    0.04
  -2  -4  10    0.61    0.05
   1   4 -10    3.77    0.13
  -1  -4  10    3.65    0.11
   0   4 -10    4.61    0.16
   0  -4  10    4.72    0.16
  -1   4 -10    0.98    0.06
   1  -4  10    0.90    0.06
   2  -4  10    5.80    0.18
   3  -4  10    9.07    0.26
   3  -4  10    9.42    0.25
  10   3 -10    5.61    0.18
  10   3 -10    5.94    0.18
   9   3 -10    0.82    0.05
   9   3 -10    0.94    0.07
  -9  -3  10    0.71    0.04
  -9  -3  10    0.71    0.04
  -9  -3  10    0.73    0.06
   8   3 -10   36.07    0.96
   8   3 -10   37.10    0.96
  -8  -3  10   35.77    1.10
  -8  -3  10   35.32    0.91
   7   3 -10    8.76    0.27
   7   3 -10    8.50    0.26
  -7  -3  10    8.91    0.31
  -7  -3  10    8.88    0.24
   6   3 -10   67.24    1.76
   6   3 -10   65.75    1.76
  -6  -3  10   67.17    1.58
  -6  -3  10   66.69    2.01
  -6  -3  10   68.17    1.56
  -6  -3  10   67.12    1.69
   5   3 -10   27.14    0.69
   5   3 -10   26.88    0.74
   5   3 -10   25.46    0.75
   5   3 -10   27.50    0.73
  -5  -3  10   27.34    0.70
  -5  -3  10   26.23    1.19
  -5  -3  10   27.42    0.65
  -5  -3  10   27.66    0.85
  -5  -3  10   27.04    0.69
  -5  -3  10   26.90    0.65
   4   3 -10   27.23    0.71
   4   3 -10   27.27    1.05
   4   3 -10   27.60    0.76
   4   3 -10   28.03    0.75
  -4  -3  10   27.55    0.67
  -4  -3  10   27.54    0.66
  -4  -3  10   27.27    0.71
  -4  -3  10   27.24    1.21
   3   3 -10    5.61    0.29
   3   3 -10    5.69    0.19
   3   3 -10    5.27    0.17
  -3  -3  10    5.71    0.35
  -3  -3  10    5.78    0.16
   2   3 -10   12.50    0.53
   2   3 -10   12.59    0.37
  -2  -3  10   12.44    0.32
  -2  -3  10   12.08    0.62
   1   3 -10    1.18    0.14
   1   3 -10    1.32    0.08
  -1  -3  10    1.32    0.07
  -1  -3  10    1.77    0.18
   0   3 -10   18.82    0.55
   0  -3  10   19.56    0.55
   0  -3  10   19.08    0.88
  -1   3 -10    6.61    0.21
  -1   3 -10    6.54    0.19
   1  -3  10    6.45    0.21
  -2   3 -10    7.57    0.21
   2  -3  10    7.77    0.24
  -3   3 -10    5.76    0.16
   3  -3  10    6.18    0.19
   3  -3  10    5.70    0.17
  -4   3 -10   12.25    0.31
   4  -3  10   13.14    0.33
   4  -3  10   12.48    0.35
  10   2 -10   10.98    0.31
  10   2 -10   10.94    0.31
   9   2 -10    7.07    0.22
   9   2 -10    7.11    0.23
  -9  -2  10    6.94    0.25
   8   2 -10   35.06    0.94
   8   2 -10   36.27    0.94
  -8  -2  10   34.28    0.89
  -8  -2  10   34.57    1.07
   7   2 -10   35.60    0.95
   7   2 -10   34.94    0.95
  -7  -2  10   37.19    1.09
  -7  -2  10   32.57    1.51
  -7  -2  10   36.36    0.90
   6   2 -10   54.47    1.46
   6   2 -10   54.97    1.38
   6   2 -10   55.54    1.46
  -6  -2  10   54.04    1.40
  -6  -2  10   58.15    1.68
  -6  -2  10   55.15    2.31
   5   2 -10   15.04    0.44
   5   2 -10   15.14    0.40
   5   2 -10   14.76    0.43
  -5  -2  10   14.68    0.40
  -5  -2  10   15.19    0.40
  -5  -2  10   15.16    0.50
  -5  -2  10   14.12    0.71
  -5  -2  10   15.35    0.38
   4   2 -10   92.15    2.44
   4   2 -10   90.21    2.27
   4   2 -10   90.81    2.36
   4   2 -10   88.97    3.20
  -4  -2  10   90.93    2.13
  -4  -2  10   89.19    3.71
  -4  -2  10   91.35    2.28
  -4  -2  10   91.71    2.70
   3   2 -10   79.88    2.06
   3   2 -10   73.92    2.80
   3   2 -10   80.68    2.13
  -3  -2  10   77.89    1.85
  -3  -2  10   80.66    3.25
  -3  -2  10   79.98    1.98
   2   2 -10    4.71    0.18
   2   2 -10    4.62    0.17
   2   2 -10    4.77    0.26
  -2  -2  10    5.18    0.32
  -2  -2  10    4.78    0.15
   1   2 -10    3.54    0.14
   1   2 -10    3.48    0.22
   1   2 -10    3.26    0.13
  -1  -2  10    3.38    0.25
  -1  -2  10    3.57    0.12
   0   2 -10   16.65    0.49
   0   2 -10   18.67    0.69
   0  -2  10   16.48    0.79
   0  -2  10   16.72    0.43
   0  -2  10   16.48    0.49
  -1   2 -10   13.00    0.55
  -1   2 -10   12.96    0.34
   1  -2  10   12.96    0.39
   2  -2  10   49.22    1.34
  -3   2 -10   15.76    0.40
   3  -2  10   15.85    0.46
   3  -2  10   15.72    0.42
  -4   2 -10    1.99    0.08
   4  -2  10    2.02    0.08
   4  -2  10    2.01    0.08
  -5   2 -10    0.47    0.04
  11   1 -10   19.38    0.53
  10   1 -10    8.85    0.26
 -10  -1  10    8.46    0.29
   9   1 -10    3.78    0.15
   9   1 -10    3.68    0.14
  -9  -1  10    3.74    0.16
   8   1 -10    8.97    0.28
   8   1 -10    8.92    0.27
  -8  -1  10    9.28    0.32
  -8  -1  10    8.24    0.46
   7   1 -10   10.27    0.31
   7   1 -10   10.35    0.33
  -7  -1  10   11.04    0.37
  -7  -1  10   10.63    0.53
   6   1 -10   10.78    0.29
   6   1 -10   10.66    0.32
   6   1 -10   10.96    0.33
  -6  -1  10   11.25    0.38
  -6  -1  10   10.62    0.54
  -6  -1  10   10.57    0.30
   5   1 -10    9.72    0.29
   5   1 -10    9.60    0.30
   5   1 -10    9.60    0.27
  -5  -1  10    9.90    0.50
  -5  -1  10    9.44    0.27
  -5  -1  10    9.42    0.34
  -5  -1  10    9.29    0.41
  -5  -1  10    9.68    0.25
   4   1 -10   43.61    1.19
   4   1 -10   44.11    1.16
   4   1 -10   41.39    1.11
  -4  -1  10   42.90    1.51
  -4  -1  10   42.82    1.33
  -4  -1  10   42.62    1.11
  -4  -1  10   44.11    1.04
  -4  -1  10   46.54    1.85
   3   1 -10   20.86    0.58
   3   1 -10   18.90    0.56
  -3  -1  10   19.36    0.75
  -3  -1  10   20.97    0.91
  -3  -1  10   19.21    0.53
   2   1 -10  122.49    3.32
   2   1 -10  122.33    3.21
   2   1 -10  124.46    4.33
  -2  -1  10  123.92    2.89
  -2  -1  10  123.24    4.09
  -2  -1  10  126.20    5.01
   1   1 -10   35.41    0.99
   1   1 -10   37.58    1.32
  -1  -1  10   35.69    1.27
  -1  -1  10   33.86    1.52
   0   1 -10   61.12    1.42
   0   1 -10   59.39    2.14
   0   1 -10   58.54    1.62
   0  -1  10   59.18    1.62
  -1   1 -10  120.40    2.87
  -1   1 -10  124.85    4.30
   1  -1  10  122.61    3.29
  -2   1 -10    9.69    0.26
   2  -1  10    9.51    0.30
  -3   1 -10   20.38    0.50
   3  -1  10   19.78    0.53
   3  -1  10   20.00    0.57
  -4   1 -10    4.66    0.14
   4  -1  10    4.74    0.16
   4  -1  10    4.56    0.15
  -5   1 -10    2.50    0.09
   5  -1  10    2.54    0.07
  11   0 -10   12.47    0.35
  10   0 -10   17.25    0.45
  10   0 -10   17.72    0.49
 -10   0  10   16.78    0.55
   9   0 -10    3.80    0.15
   9   0 -10    3.90    0.15
  -9   0  10    3.94    0.16
   8   0 -10    5.34    0.19
   8   0 -10    5.33    0.18
  -8   0  10    5.43    0.32
  -8   0  10    5.20    0.21
   7   0 -10    0.23    0.05
   7   0 -10    0.18    0.05
   7   0 -10    0.45    0.05
  -7   0  10    0.08    0.07
  -7   0  10    0.16    0.03
  -7   0  10    0.16    0.04
   6   0 -10    0.07    0.04
   6   0 -10    0.04    0.03
   6   0 -10    0.03    0.05
  -6   0  10    0.04    0.07
  -6   0  10    0.03    0.02
  -6   0  10    0.02    0.03
   5   0 -10   12.89    0.37
   5   0 -10   12.43    0.34
   5   0 -10   12.02    0.37
   5   0 -10   12.66    0.36
  -5   0  10   12.63    0.43
  -5   0  10   13.19    0.61
  -5   0  10   12.27    0.49
  -5   0  10   11.96    0.32
  -5   0  10   12.04    0.34
   4   0 -10   13.02    0.49
  -4   0  10   13.04    0.51
  -4   0  10   12.52    0.44
  -4   0  10   12.89    0.62
   3   0 -10   72.94    2.38
  -3   0  10   77.17    3.08
  -3   0  10   75.12    2.51
  -2   0  10   24.93    0.90
   1   0 -10   33.71    1.26
   1   0 -10   33.23    0.96
  -1   0  10   35.05    0.84
  -1   0  10   35.52    1.22
   0   0 -10    0.10    0.04
   0   0 -10    0.11    0.06
   0   0 -10    0.18    0.04
   0   0 -10    0.24    0.07
   0   0  10    0.21    0.05
  -1   0 -10    5.44    0.27
  -1   0 -10    4.96    0.16
   1   0  10    5.56    0.19
  -2   0 -10    1.59    0.14
  -2   0 -10    1.75    0.10
  -2   0 -10    1.91    0.09
   2   0  10    1.55    0.10
  -3   0 -10   10.48    0.31
  -3   0 -10   10.53    0.29
   3   0  10   10.75    0.31
   3   0  10   10.72    0.33
  -4   0 -10    1.41    0.08
  -4   0 -10    1.58    0.07
   4   0  10    1.64    0.08
   4   0  10    1.42    0.09
   4   0  10    1.51    0.07
  -5   0 -10   18.70    0.50
  -5   0 -10   19.22    0.47
  11  -1 -10   19.33    0.50
  11  -1 -10   19.91    0.54
  10  -1 -10    8.59    0.24
  10  -1 -10    8.15    0.26
 -10   1  10    8.31    0.29
   9  -1 -10    3.52    0.14
   9  -1 -10    3.66    0.14
  -9   1  10    3.70    0.16
  -9   1  10    3.15    0.12
   8  -1 -10    9.20    0.28
   8  -1 -10    9.38    0.29
  -8   1  10    9.40    0.48
  -8   1  10    9.79    0.34
  -8   1  10    9.18    0.26
   7  -1 -10   10.17    0.31
  -7   1  10    9.98    0.29
  -7   1  10   10.37    0.52
  -7   1  10   10.78    0.37
   6  -1 -10   10.58    0.30
   6  -1 -10   10.86    0.31
  -6   1  10   10.24    0.53
  -6   1  10   10.92    0.38
  -6   1  10   10.60    0.30
  -6   1  10   10.68    0.29
   5  -1 -10    9.65    0.29
   5  -1 -10    9.24    0.30
   5  -1 -10    9.40    0.28
  -5   1  10    9.39    0.34
  -5   1  10    9.52    0.27
  -5   1  10    9.50    0.26
  -5   1  10    9.76    0.48
  -5   1  10    9.47    0.39
   4  -1 -10   42.90    1.17
   4  -1 -10   42.97    1.13
  -4   1  10   41.98    1.05
  -4   1  10   42.41    1.45
  -4   1  10   42.72    1.80
  -4   1  10   43.26    1.02
  -4   1  10   40.91    1.30
   3  -1 -10   18.50    0.67
   3  -1 -10   18.26    0.55
  -3   1  10   19.66    0.48
  -3   1  10   17.95    0.69
  -3   1  10   18.71    0.49
   2  -1 -10  120.35    3.78
   2  -1 -10  121.06    3.25
  -2   1  10  120.20    2.84
  -2   1  10  121.57    2.89
   1  -1 -10   36.32    0.94
   1  -1 -10   35.14    1.01
  -1   1  10   36.87    1.26
  -1   1  10   36.72    0.90
  -1   1  10   35.60    0.88
   0  -1 -10   56.92    1.62
   0  -1 -10   60.01    1.50
   0  -1 -10   60.19    1.41
   0   1  10   59.08    1.62
  -1  -1 -10  121.59    3.04
  -1  -1 -10  119.92    2.87
   1   1  10  124.61    3.29
  -2  -1 -10   10.06    0.29
  -2  -1 -10    9.40    0.27
  -2  -1 -10    9.07    0.41
   2   1  10    9.73    0.31
  -3  -1 -10   19.62    0.50
  -3  -1 -10   20.08    0.54
   3   1  10   19.47    0.53
   3   1  10   19.95    0.57
  -4  -1 -10    4.73    0.16
  -4  -1 -10    4.57    0.14
   4   1  10    4.46    0.16
   4   1  10    4.66    0.15
   4   1  10    4.52    0.16
  -5  -1 -10    2.36    0.09
  -5  -1 -10    2.49    0.09
   5   1  10    2.26    0.10
  10  -2 -10   10.23    0.31
  10  -2 -10   10.78    0.29
 -10   2  10   10.56    0.28
   9  -2 -10    6.97    0.21
   9  -2 -10    6.48    0.22
  -9   2  10    7.22    0.26
  -9   2  10    6.91    0.20
   8  -2 -10   34.98    0.96
   8  -2 -10   36.22    0.90
  -8   2  10   36.20    1.10
  -8   2  10   34.33    0.91
   7  -2 -10   35.90    0.90
   7  -2 -10   35.56    0.88
  -7   2  10   35.69    1.50
  -7   2  10   34.84    0.91
  -7   2  10   34.06    0.86
  -7   2  10   36.13    1.10
   6  -2 -10   51.97    1.36
   6  -2 -10   53.77    1.35
   6  -2 -10   53.88    1.34
  -6   2  10   53.79    1.31
  -6   2  10   55.82    1.63
  -6   2  10   51.07    2.22
  -6   2  10   53.62    1.36
  -6   2  10   54.48    1.28
   5  -2 -10   14.82    0.41
   5  -2 -10   14.65    0.44
   5  -2 -10   14.67    0.41
  -5   2  10   14.83    0.40
  -5   2  10   14.38    0.50
  -5   2  10   15.26    0.40
  -5   2  10   15.13    0.39
   4  -2 -10   91.33    2.46
   4  -2 -10   88.51    2.27
   4  -2 -10   88.02    2.29
   4  -2 -10   92.21    2.23
  -4   2  10   93.02    2.15
  -4   2  10   90.69    2.28
  -4   2  10   91.92    2.19
   3  -2 -10   78.15    1.97
   3  -2 -10   77.52    2.13
  -3   2  10   78.97    1.90
  -3   2  10   78.98    1.86
   2  -2 -10    4.72    0.19
   2  -2 -10    4.64    0.17
  -2   2  10    4.61    0.17
  -2   2  10    4.97    0.16
   1  -2 -10    3.50    0.15
   1  -2 -10    3.56    0.16
  -1   2  10    3.52    0.16
  -1   2  10    3.54    0.14
   0  -2 -10   16.96    0.44
   0  -2 -10   17.32    0.48
   0   2  10   17.08    0.46
   0   2  10   17.04    0.52
  -1  -2 -10   13.13    0.35
  -1  -2 -10   13.42    0.38
   1   2  10   12.48    0.35
   1   2  10   12.57    0.40
  -2  -2 -10   50.41    1.29
  -2  -2 -10   50.19    1.22
   2   2  10   51.27    1.40
  -3  -2 -10   15.49    0.43
  -3  -2 -10   15.78    0.40
   3   2  10   14.73    0.42
   3   2  10   15.53    0.45
   3   2  10   15.78    0.45
  -4  -2 -10    2.01    0.09
  -4  -2 -10    1.96    0.08
   4   2  10    2.01    0.08
   4   2  10    1.93    0.10
   4   2  10    2.02    0.09
  -5  -2 -10    0.42    0.04
  -5  -2 -10    0.48    0.04
   5   2  10    0.40    0.04
 -10   3  10    6.03    0.16
   9  -3 -10    0.75    0.05
   9  -3 -10    0.64    0.06
   9  -3 -10    0.79    0.06
  -9   3  10    0.75    0.04
   8  -3 -10   35.05    0.90
   8  -3 -10   35.68    0.91
  -8   3  10   36.90    0.91
  -8   3  10   35.10    1.09
   7  -3 -10    9.25    0.27
   7  -3 -10    9.04    0.26
  -7   3  10    9.13    0.25
  -7   3  10    8.57    0.32
  -7   3  10    8.77    0.25
   6  -3 -10   67.38    1.64
   6  -3 -10   64.41    1.80
   6  -3 -10   67.81    1.67
   6  -3 -10   66.07    1.67
  -6   3  10   67.25    1.58
  -6   3  10   66.15    1.68
   5  -3 -10   26.03    0.70
   5  -3 -10   26.33    0.68
   5  -3 -10   26.23    0.75
   5  -3 -10   26.35    0.70
  -5   3  10   26.66    0.66
  -5   3  10   26.84    0.67
  -5   3  10   26.29    0.68
   4  -3 -10   26.98    0.73
   4  -3 -10   27.02    0.74
   4  -3 -10   29.03    0.73
   4  -3 -10   27.70    0.79
  -4   3  10   27.78    0.71
  -4   3  10   27.64    0.69
   3  -3 -10    5.22    0.21
   3  -3 -10    5.43    0.19
  -3   3  10    5.57    0.19
  -3   3  10    5.58    0.18
   2  -3 -10   12.66    0.40
   2  -3 -10   12.85    0.37
  -2   3  10   12.73    0.35
  -2   3  10   13.06    0.36
   1  -3 -10    1.39    0.10
   1  -3 -10    1.28    0.09
  -1   3  10    1.37    0.09
  -1   3  10    1.32    0.10
   0  -3 -10   19.28    0.53
   0  -3 -10   19.02    0.49
   0   3  10   19.54    0.51
   0   3  10   19.25    0.57
  -1  -3 -10    6.84    0.22
  -1  -3 -10    6.95    0.20
   1   3  10    6.65    0.24
   1   3  10    6.86    0.21
   1   3  10    6.98    0.23
  -2  -3 -10    7.99    0.22
  -2  -3 -10    8.00    0.24
   2   3  10    7.99    0.26
   2   3  10    7.36    0.22
   2   3  10    7.68    0.25
   2   3  10    7.57    0.24
  -3  -3 -10    6.03    0.19
  -3  -3 -10    6.02    0.18
   3   3  10    5.97    0.20
   3   3  10    6.06    0.20
   3   3  10    5.88    0.18
  -4  -3 -10   12.20    0.34
  -4  -3 -10   13.27    0.32
   4   3  10   12.71    0.36
   8  -4 -10    1.21    0.06
  -8   4  10    1.28    0.05
   7  -4 -10    1.00    0.06
  -7   4  10    0.81    0.05
   6  -4 -10    0.60    0.06
   6  -4 -10    0.83    0.06
   6  -4 -10    0.75    0.05
  -6   4  10    0.79    0.06
   5  -4 -10   17.20    0.47
   5  -4 -10   17.31    0.47
   5  -4 -10   17.23    0.50
  -5   4  10   17.77    0.45
   4  -4 -10    1.97    0.10
   4  -4 -10    1.94    0.11
   4  -4 -10    2.05    0.10
  -4   4  10    1.95    0.09
  -4   4  10    1.74    0.09
   3  -4 -10    8.67    0.29
   3  -4 -10    8.52    0.26
  -3   4  10    8.53    0.25
  -3   4  10    8.59    0.24
   2  -4 -10    0.50    0.06
   2  -4 -10    0.43    0.06
  -2   4  10    0.47    0.05
  -2   4  10    0.70    0.06
   1  -4 -10    3.74    0.14
   1  -4 -10    3.62    0.16
  -1   4  10    3.58    0.16
  -1   4  10    4.05    0.14
   0  -4 -10    4.75    0.16
   0  -4 -10    4.52    0.15
   0   4  10    5.07    0.18
   0   4  10    5.01    0.16
  -1  -4 -10    1.02    0.06
  -1  -4 -10    0.92    0.07
   1   4  10    1.02    0.07
   1   4  10    1.04    0.08
   1   4  10    0.98    0.07
  -2  -4 -10    5.52    0.17
  -2  -4 -10    5.71    0.16
   2   4  10    5.87    0.19
   2   4  10    5.73    0.16
   2   4  10    5.51    0.17
  -3  -4 -10    9.30    0.24
   3   4  10    9.34    0.24
   6  -5 -10   19.63    0.50
  -6   5  10   19.19    0.47
   5  -5 -10   28.04    0.79
   5  -5 -10   29.73    0.74
   5  -5 -10   29.72    0.74
  -5   5  10   29.08    0.70
   4  -5 -10    6.90    0.21
   4  -5 -10    6.54    0.20
   4  -5 -10    6.48    0.19
  -4   5  10    6.69    0.18
   3  -5 -10   17.06    0.48
   3  -5 -10   16.70    0.44
  -3   5  10   16.23    0.42
  -3   5  10   16.47    0.41
   2  -5 -10    2.36    0.10
   2  -5 -10    2.28    0.09
  -2   5  10    2.23    0.10
  -2   5  10    2.22    0.09
   1  -5 -10    5.53    0.19
   1  -5 -10    5.37    0.17
  -1   5  10    5.67    0.19
  -1   5  10    5.71    0.16
   0   5  10    5.52    0.18
   0   5  10    5.37    0.16
  -4  -5  11    1.50    0.05
   3   5 -11    6.23    0.16
  -3  -5  11    6.04    0.16
   7   4 -11    2.08    0.08
   7   4 -11    2.02    0.08
  -7  -4  11    2.02    0.07
   6   4 -11    5.67    0.18
   6   4 -11    6.01    0.18
  -6  -4  11    5.92    0.16
  -6  -4  11    5.90    0.16
   5   4 -11   16.50    0.42
   5   4 -11   16.38    0.45
  -5  -4  11   16.98    0.41
   4   4 -11    0.16    0.03
   4   4 -11    0.10    0.03
  -4  -4  11    0.07    0.02
   3   4 -11    2.06    0.08
   3   4 -11    2.09    0.08
  -3  -4  11    1.92    0.07
   2   4 -11    0.35    0.04
   2   4 -11    0.29    0.04
  -2  -4  11    0.39    0.04
   1   4 -11    1.91    0.08
  -1  -4  11    1.82    0.07
   0   4 -11    0.40    0.04
   0  -4  11    0.32    0.04
  -1   4 -11    1.69    0.07
   1  -4  11    1.74    0.07
   9   3 -11    4.68    0.15
   9   3 -11    4.62    0.15
  -9  -3  11    4.85    0.13
   8   3 -11   21.52    0.58
   8   3 -11   20.93    0.58
  -8  -3  11   21.81    0.55
  -8  -3  11   20.89    0.66
   7   3 -11   14.89    0.42
   7   3 -11   14.89    0.43
  -7  -3  11   16.06    0.40
  -7  -3  11   14.90    0.49
   6   3 -11   21.91    0.62
   6   3 -11   22.25    0.61
  -6  -3  11   22.52    0.58
  -6  -3  11   23.24    0.55
  -6  -3  11   22.33    0.71
   5   3 -11   20.20    0.51
   5   3 -11   19.94    0.56
  -5  -3  11   20.07    0.49
  -5  -3  11   19.72    0.52
   4   3 -11   20.77    0.56
   4   3 -11   21.95    0.59
   4   3 -11   21.81    0.60
  -4  -3  11   21.23    0.53
   3   3 -11   20.81    0.59
   3   3 -11   20.59    0.54
  -3  -3  11   20.87    0.51
   2   3 -11   13.73    0.40
  -2  -3  11   13.96    0.35
   1   3 -11   10.91    0.33
  -1  -3  11   11.11    0.28
   0   3 -11   10.61    0.32
   0  -3  11   10.56    0.32
  -1   3 -11    0.57    0.05
   1  -3  11    0.48    0.05
  -2   3 -11    0.80    0.05
   2  -3  11    0.83    0.06
   3  -3  11   40.52    1.00
   3  -3  11   39.21    1.08
  10   2 -11   18.56    0.50
  10   2 -11   18.68    0.51
 -10  -2  11   18.91    0.48
   9   2 -11   10.70    0.31
   9   2 -11   11.21    0.31
  -9  -2  11   10.65    0.29
  -9  -2  11   10.70    0.36
   8   2 -11    2.00    0.10
   8   2 -11    1.90    0.09
  -8  -2  11    1.92    0.11
  -8  -2  11    1.95    0.07
   7   2 -11   12.93    0.37
   7   2 -11   13.01    0.37
  -7  -2  11   11.87    0.34
  -7  -2  11   13.12    0.43
   6   2 -11    1.29    0.09
   6   2 -11    1.32    0.05
  -6  -2  11    1.26    0.06
  -6  -2  11    1.32    0.17
  -6  -2  11    1.42    0.06
  -6  -2  11    1.32    0.09
   5   2 -11   20.72    0.55
   5   2 -11   20.42    0.59
   5   2 -11   20.51    0.59
  -5  -2  11   20.75    0.67
  -5  -2  11   21.40    0.55
  -5  -2  11   20.89    0.52
  -5  -2  11   22.52    0.96
   4   2 -11    8.48    0.26
   4   2 -11    8.42    0.25
   4   2 -11    7.51    0.37
   4   2 -11    7.77    0.23
  -4  -2  11    8.21    0.44
  -4  -2  11    7.98    0.22
  -4  -2  11    7.86    0.23
   3   2 -11   32.22    0.87
   3   2 -11   32.21    1.20
   3   2 -11   32.49    0.89
   3   2 -11   31.20    0.82
  -3  -2  11   32.59    1.39
  -3  -2  11   30.93    0.77
   2   2 -11   10.52    0.33
   2   2 -11   10.56    0.47
   2   2 -11   11.08    0.33
  -2  -2  11   10.71    0.55
  -2  -2  11   10.68    0.28
   1   2 -11    0.33    0.05
   1   2 -11    0.27    0.08
  -1  -2  11    0.38    0.10
  -1  -2  11    0.35    0.04
   0   2 -11    2.76    0.12
   0  -2  11    2.96    0.12
  -1   2 -11    7.66    0.22
   1  -2  11    8.01    0.25
  -2   2 -11   55.98    1.34
   2  -2  11   56.92    1.53
  -3   2 -11   15.73    0.39
   3  -2  11   16.19    0.45
   3  -2  11   15.28    0.41
  -4   2 -11    2.43    0.08
   4  -2  11    2.37    0.08
  10   1 -11    4.76    0.15
 -10  -1  11    4.52    0.13
   9   1 -11    6.60    0.21
   9   1 -11    6.85    0.21
  -9  -1  11    7.01    0.25
  -9  -1  11    6.66    0.19
   8   1 -11   18.02    0.51
   8   1 -11   18.42    0.51
  -8  -1  11   18.61    0.48
  -8  -1  11   18.48    0.59
   7   1 -11    2.73    0.11
   7   1 -11    2.84    0.13
  -7  -1  11    2.86    0.14
  -7  -1  11    2.64    0.09
  -7  -1  11    2.55    0.21
   6   1 -11    7.44    0.25
   6   1 -11    7.58    0.21
  -6  -1  11    7.72    0.28
  -6  -1  11    7.26    0.41
  -6  -1  11    7.28    0.21
  -6  -1  11    7.58    0.22
   5   1 -11   19.15    0.50
   5   1 -11   18.15    0.51
   5   1 -11   18.55    0.54
   5   1 -11   19.27    0.54
  -5  -1  11   19.60    0.62
  -5  -1  11   19.04    0.50
  -5  -1  11   19.08    0.88
  -5  -1  11   19.59    0.48
   4   1 -11   17.08    0.48
   4   1 -11   16.98    0.45
   4   1 -11   16.64    0.49
  -4  -1  11   16.27    0.78
  -4  -1  11   17.03    0.44
  -4  -1  11   16.50    0.42
   3   1 -11   16.49    0.45
   3   1 -11   16.72    0.47
   3   1 -11   15.88    0.47
  -3  -1  11   15.50    0.76
  -3  -1  11   16.49    0.41
   2   1 -11   14.35    0.61
   2   1 -11   15.08    0.44
   2   1 -11   15.43    0.44
  -2  -1  11   14.72    0.71
  -2  -1  11   15.01    0.38
   1   1 -11   33.73    0.97
   1   1 -11   35.63    1.29
  -1  -1  11   34.92    0.84
   0   1 -11    2.11    0.16
   0   1 -11    1.87    0.10
   0  -1  11    2.05    0.11
  -1   1 -11    0.87    0.06
   1  -1  11    0.87    0.08
  -2   1 -11    2.04    0.09
   2  -1  11    2.09    0.10
  -3   1 -11    4.80    0.14
   3  -1  11    4.64    0.15
   3  -1  11    4.79    0.16
  -4   1 -11   12.88    0.32
   4  -1  11   13.13    0.34
   4  -1  11   12.68    0.36
  10   0 -11    3.64    0.13
 -10   0  11    3.50    0.11
   9   0 -11    2.47    0.11
   9   0 -11    2.34    0.10
  -9   0  11    2.46    0.12
  -9   0  11    2.41    0.08
   8   0 -11   31.90    0.82
   8   0 -11   31.69    0.87
  -8   0  11   32.51    0.99
  -8   0  11   31.88    0.82
   7   0 -11   22.49    0.59
   7   0 -11   21.72    0.62
  -7   0  11   21.86    0.59
  -7   0  11   22.74    1.01
  -7   0  11   23.70    0.72
   6   0 -11   10.27    0.29
   6   0 -11   10.48    0.31
   6   0 -11   10.16    0.32
  -6   0  11   10.14    0.53
  -6   0  11   10.53    0.28
  -6   0  11   10.94    0.37
  -6   0  11   10.31    0.29
   5   0 -11    6.01    0.21
   5   0 -11    5.91    0.20
   5   0 -11    5.89    0.20
   5   0 -11    5.97    0.19
  -5   0  11    5.74    0.34
  -5   0  11    5.84    0.18
  -5   0  11    6.01    0.24
  -5   0  11    6.21    0.18
   4   0 -11    8.37    0.27
   4   0 -11    8.33    0.27
   4   0 -11    8.55    0.25
  -4   0  11    8.01    0.23
  -4   0  11    7.62    0.43
  -4   0  11    8.20    0.23
   3   0 -11   19.90    0.56
   3   0 -11   19.75    0.57
  -3   0  11   19.24    0.49
  -3   0  11   19.97    0.51
   2   0 -11   36.73    1.03
  -2   0  11   37.29    0.89
  -2   0  11   36.35    0.91
   1   0 -11   58.15    1.61
  -1   0  11   59.29    1.40
   0   0 -11   10.52    0.29
   0   0 -11   10.61    0.45
   0   0  11   10.54    0.33
  -1   0 -11    1.16    0.07
   1   0  11    1.32    0.09
  -2   0 -11    0.48    0.05
  -2   0 -11    0.42    0.05
   2   0  11    0.45    0.05
  -3   0 -11    3.17    0.11
  -3   0 -11    3.12    0.12
   3   0  11    3.07    0.12
   3   0  11    3.25    0.13
  -4   0 -11    0.23    0.04
  -4   0 -11    0.23    0.03
   4   0  11    0.19    0.03
   4   0  11    0.24    0.03
  10  -1 -11    4.46    0.15
  10  -1 -11    4.56    0.14
 -10   1  11    4.53    0.13
   9  -1 -11    6.65    0.22
   9  -1 -11    6.87    0.21
  -9   1  11    6.93    0.19
  -9   1  11    6.76    0.25
   8  -1 -11   18.41    0.49
  -8   1  11   18.35    0.49
  -8   1  11   18.53    0.48
  -8   1  11   18.36    0.60
   7  -1 -11    2.98    0.13
  -7   1  11    2.75    0.11
  -7   1  11    2.74    0.10
  -7   1  11    3.09    0.15
  -7   1  11    2.83    0.23
  -7   1  11    2.59    0.10
   6  -1 -11    7.42    0.22
   6  -1 -11    7.72    0.24
  -6   1  11    7.74    0.29
  -6   1  11    7.53    0.22
  -6   1  11    7.66    0.22
  -6   1  11    6.93    0.40
  -6   1  11    7.47    0.23
   5  -1 -11   18.84    0.50
   5  -1 -11   18.81    0.50
   5  -1 -11   18.63    0.54
  -5   1  11   18.57    0.49
  -5   1  11   19.59    0.48
  -5   1  11   18.28    0.49
  -5   1  11   17.37    0.84
   4  -1 -11   16.94    0.46
   4  -1 -11   16.40    0.49
  -4   1  11   16.25    0.42
  -4   1  11   16.55    0.44
  -4   1  11   16.37    0.44
   3  -1 -11   16.45    0.49
  -3   1  11   16.54    0.42
  -3   1  11   16.22    0.44
   2  -1 -11   14.82    0.46
  -2   1  11   15.24    0.41
  -2   1  11   15.04    0.39
   1  -1 -11   34.23    0.87
   1  -1 -11   34.40    0.95
  -1   1  11   33.10    0.82
  -1   1  11   33.53    0.84
  -1   1  11   32.56    0.95
   0  -1 -11    1.98    0.11
   0  -1 -11    2.08    0.09
   0  -1 -11    2.01    0.10
   0   1  11    2.13    0.11
  -1  -1 -11    1.00    0.07
  -1  -1 -11    1.01    0.08
   1   1  11    0.94    0.08
  -2  -1 -11    1.95    0.10
  -2  -1 -11    1.90    0.09
   2   1  11    1.84    0.10
   2   1  11    1.88    0.10
  -3  -1 -11    4.62    0.15
  -3  -1 -11    4.70    0.16
   3   1  11    4.72    0.17
   3   1  11    4.76    0.17
   3   1  11    4.78    0.15
  -4  -1 -11   12.35    0.34
  -4  -1 -11   13.05    0.32
   4   1  11   13.06    0.33
   4   1  11   12.41    0.36
   4   1  11   13.19    0.36
  10  -2 -11   18.69    0.48
 -10   2  11   19.02    0.48
   9  -2 -11   11.11    0.30
  -9   2  11   11.15    0.29
  -9   2  11   10.01    0.36
   8  -2 -11    1.86    0.10
  -8   2  11    1.94    0.11
  -8   2  11    1.92    0.07
   7  -2 -11   12.05    0.35
  -7   2  11   12.76    0.33
  -7   2  11   12.43    0.34
  -7   2  11   12.77    0.34
  -7   2  11   12.26    0.42
   6  -2 -11    1.18    0.08
   6  -2 -11    1.30    0.07
   6  -2 -11    1.20    0.09
   6  -2 -11    1.26    0.08
  -6   2  11    1.31    0.06
  -6   2  11    1.29    0.08
  -6   2  11    1.28    0.07
   5  -2 -11   20.33    0.55
   5  -2 -11   20.16    0.55
   5  -2 -11   20.72    0.55
   5  -2 -11   21.57    0.60
  -5   2  11   20.51    0.52
  -5   2  11   19.94    0.54
  -5   2  11   21.13    0.54
   4  -2 -11    8.10    0.25
   4  -2 -11    8.26    0.27
   4  -2 -11    7.91    0.25
   4  -2 -11    7.93    0.25
  -4   2  11    8.29    0.24
  -4   2  11    8.28    0.25
   3  -2 -11   29.91    0.88
   3  -2 -11   30.88    0.81
  -3   2  11   31.45    0.76
  -3   2  11   31.69    0.78
   2  -2 -11   10.67    0.34
   2  -2 -11   10.79    0.32
  -2   2  11   10.49    0.29
  -2   2  11   10.51    0.30
   1  -2 -11    0.36    0.06
   1  -2 -11    0.22    0.05
  -1   2  11    0.45    0.06
  -1   2  11    0.37    0.06
   0  -2 -11    2.69    0.11
   0  -2 -11    2.75    0.13
   0  -2 -11    2.72    0.13
   0   2  11    2.76    0.12
   0   2  11    2.84    0.13
  -1  -2 -11    8.13    0.23
  -1  -2 -11    8.20    0.25
   1   2  11    8.17    0.27
  -2  -2 -11   55.71    1.40
  -2  -2 -11   55.61    1.32
   2   2  11   54.32    1.41
   2   2  11   55.66    1.46
   2   2  11   56.28    1.52
  -3  -2 -11   15.98    0.43
  -3  -2 -11   15.82    0.40
   3   2  11   16.88    0.42
   3   2  11   15.33    0.45
   3   2  11   15.87    0.45
  -4  -2 -11    2.26    0.08
  -4  -2 -11    2.30    0.09
   4   2  11    2.38    0.09
   9  -3 -11    4.52    0.14
  -9   3  11    4.56    0.13
   8  -3 -11   20.72    0.53
   8  -3 -11   20.68    0.54
  -8   3  11   20.38    0.51
  -8   3  11   21.10    0.53
   7  -3 -11   15.12    0.40
   7  -3 -11   14.14    0.40
  -7   3  11   15.25    0.39
  -7   3  11   14.84    0.38
   6  -3 -11   21.34    0.62
   6  -3 -11   22.30    0.58
   6  -3 -11   22.74    0.58
   6  -3 -11   22.59    0.59
  -6   3  11   22.09    0.56
  -6   3  11   22.17    0.56
   5  -3 -11   19.96    0.57
   5  -3 -11   19.59    0.52
   5  -3 -11   20.12    0.53
   5  -3 -11   19.28    0.53
  -5   3  11   20.23    0.50
  -5   3  11   19.21    0.51
   4  -3 -11   21.88    0.59
   4  -3 -11   21.06    0.58
   4  -3 -11   21.93    0.63
   4  -3 -11   21.97    0.63
   4  -3 -11   21.97    0.59
  -4   3  11   22.31    0.55
  -4   3  11   21.33    0.56
   3  -3 -11   20.69    0.60
   3  -3 -11   20.47    0.55
  -3   3  11   20.57    0.52
  -3   3  11   20.45    0.54
   2  -3 -11   13.00    0.42
   2  -3 -11   13.90    0.39
  -2   3  11   14.20    0.37
  -2   3  11   13.45    0.36
   1  -3 -11   11.95    0.34
   1  -3 -11   11.57    0.37
  -1   3  11   11.92    0.37
  -1   3  11   11.96    0.33
   0  -3 -11   10.68    0.35
   0  -3 -11   10.53    0.29
   0  -3 -11   11.00    0.31
   0   3  11   10.96    0.30
   0   3  11   10.31    0.34
  -1  -3 -11    0.66    0.06
  -1  -3 -11    0.67    0.05
   1   3  11    0.56    0.06
   1   3  11    0.61    0.06
   1   3  11    0.56    0.05
  -2  -3 -11    0.80    0.05
  -2  -3 -11    0.89    0.06
   2   3  11    0.91    0.06
   2   3  11    1.02    0.07
   2   3  11    0.83    0.06
  -3  -3 -11   40.11    1.01
  -3  -3 -11   39.13    0.95
   3   3  11   39.70    1.00
   3   3  11   41.69    1.05
   7  -4 -11    1.95    0.08
  -7   4  11    2.02    0.07
   6  -4 -11    6.08    0.17
   6  -4 -11    6.14    0.18
  -6   4  11    6.13    0.17
   5  -4 -11   17.34    0.46
   5  -4 -11   17.12    0.49
   5  -4 -11   17.75    0.46
  -5   4  11   17.36    0.44
   4  -4 -11    0.08    0.04
   4  -4 -11    0.19    0.05
   4  -4 -11    0.12    0.04
  -4   4  11    0.04    0.03
  -4   4  11    0.05    0.03
   3  -4 -11    1.83    0.09
   3  -4 -11    1.73    0.10
  -3   4  11    1.88    0.09
  -3   4  11    1.88    0.08
   2  -4 -11    0.30    0.05
   2  -4 -11    0.39    0.05
  -2   4  11    0.35    0.05
  -2   4  11    0.31    0.04
   1  -4 -11    1.76    0.10
   1  -4 -11    1.90    0.09
  -1   4  11    1.90    0.10
  -1   4  11    1.87    0.09
   0  -4 -11    0.41    0.05
   0   4  11    0.36    0.04
   0   4  11    0.40    0.05
  -1  -4 -11    1.75    0.07
  -1  -4 -11    1.61    0.06
   1   4  11    1.79    0.08
   1   4  11    1.81    0.08
   1   4  11    1.77    0.07
   4  -5 -11    1.43    0.07
   4  -5 -11    1.43    0.06
   3  -5 -11    6.19    0.19
  -5  -4  12   14.28    0.35
   4   4 -12    0.98    0.04
   4   4 -12    0.93    0.05
  -4  -4  12    1.07    0.05
   3   4 -12   38.13    0.93
   3   4 -12   37.03    1.00
  -3  -4  12   36.21    0.88
   2   4 -12    1.05    0.05
   2   4 -12    0.94    0.05
  -2  -4  12    0.87    0.04
   1   4 -12   30.10    0.82
   8   3 -12    0.90    0.06
   8   3 -12    0.93    0.05
  -8  -3  12    0.92    0.04
   7   3 -12    0.32    0.04
   7   3 -12    0.31    0.03
  -7  -3  12    0.34    0.03
   6   3 -12    2.47    0.10
  -6  -3  12    2.50    0.08
  -6  -3  12    2.47    0.08
   5   3 -12   13.46    0.34
   5   3 -12   12.92    0.38
  -5  -3  12   13.32    0.33
   4   3 -12   26.43    0.67
   4   3 -12   25.10    0.70
   4   3 -12   26.20    0.72
  -4  -3  12   26.86    0.63
   3   3 -12    2.27    0.09
   3   3 -12    2.20    0.09
  -3  -3  12    2.26    0.08
   2   3 -12    1.85    0.08
   2   3 -12    1.95    0.09
  -2  -3  12    1.98    0.07
   1   3 -12    2.30    0.10
  -1  -3  12    2.25    0.08
   0   3 -12    0.73    0.05
   0  -3  12    0.68    0.05
  -1   3 -12    0.31    0.04
   1  -3  12    0.34    0.04
   9   2 -12    1.25    0.07
   9   2 -12    1.16    0.06
  -9  -2  12    1.29    0.05
   8   2 -12    1.93    0.09
   8   2 -12    1.91    0.08
  -8  -2  12    2.10    0.07
  -8  -2  12    1.92    0.10
   7   2 -12   53.83    1.40
  -7  -2  12   50.99    1.60
  -7  -2  12   55.09    1.35
   6   2 -12   29.03    0.77
  -6  -2  12   28.03    0.73
  -6  -2  12   28.06    0.68
   5   2 -12   12.55    0.37
   5   2 -12   12.30    0.36
   5   2 -12   12.90    0.34
  -5  -2  12   12.75    0.32
  -5  -2  12   12.55    0.34
   4   2 -12    4.97    0.16
   4   2 -12    5.39    0.18
   4   2 -12    5.07    0.18
  -4  -2  12    5.18    0.15
   3   2 -12    6.82    0.23
   3   2 -12    7.27    0.21
   3   2 -12    7.28    0.23
  -3  -2  12    7.17    0.20
   2   2 -12    7.12    0.23
  -2  -2  12    7.08    0.20
   1   2 -12    9.98    0.30
  -1  -2  12    9.87    0.26
   0   2 -12    9.10    0.28
   0  -2  12    9.02    0.28
  -1   2 -12    2.77    0.11
   1  -2  12    3.01    0.12
  -2   2 -12   14.40    0.37
   2  -2  12   15.82    0.43
   2  -2  12   14.64    0.39
 -10  -1  12    2.74    0.08
   9   1 -12   19.06    0.52
   9   1 -12   18.91    0.52
  -9  -1  12   19.25    0.49
   8   1 -12    9.82    0.29
   8   1 -12    9.81    0.29
  -8  -1  12   10.06    0.27
  -8  -1  12    9.61    0.34
   7   1 -12   24.38    0.65
  -7  -1  12   22.75    0.75
  -7  -1  12   24.19    0.62
   6   1 -12   16.62    0.43
   6   1 -12   16.76    0.48
  -6  -1  12   17.06    0.44
  -6  -1  12   16.74    0.42
  -6  -1  12   16.59    0.55
   5   1 -12   11.10    0.31
   5   1 -12   11.27    0.33
   5   1 -12   11.22    0.34
   5   1 -12   10.80    0.32
  -5  -1  12   11.11    0.29
  -5  -1  12   11.50    0.30
   4   1 -12    9.27    0.28
   4   1 -12    8.98    0.28
   4   1 -12    8.32    0.26
  -4  -1  12    8.71    0.47
  -4  -1  12    8.90    0.24
   3   1 -12    9.79    0.30
   3   1 -12    9.68    0.28
  -3  -1  12    9.58    0.26
  -3  -1  12    8.75    0.51
   2   1 -12   17.18    0.50
  -2  -1  12   16.73    0.43
   1   1 -12   23.12    0.65
  -1  -1  12   22.34    0.56
   0   1 -12   12.24    0.37
   0  -1  12   12.23    0.37
  -1   1 -12   32.48    0.79
   1  -1  12   33.15    0.91
  -2   1 -12    4.51    0.14
   2  -1  12    4.42    0.15
   2  -1  12    4.76    0.16
  -3   1 -12    6.27    0.17
   3  -1  12    6.52    0.20
   3  -1  12    6.83    0.18
 -10   0  12   13.81    0.36
   9   0 -12   11.42    0.31
   9   0 -12   10.90    0.32
  -9   0  12   11.03    0.38
  -9   0  12   11.44    0.30
  -9   0  12   11.54    0.30
   8   0 -12   20.61    0.54
  -8   0  12   21.34    0.54
  -8   0  12   20.51    0.66
   7   0 -12   39.99    1.07
   7   0 -12   40.66    1.01
  -7   0  12   39.16    0.96
  -7   0  12   41.48    1.03
  -7   0  12   40.55    1.24
   6   0 -12   49.20    1.25
   6   0 -12   51.45    1.26
   6   0 -12   50.21    1.33
  -6   0  12   50.07    1.20
  -6   0  12   50.73    1.27
  -6   0  12   49.79    1.53
   5   0 -12    0.65    0.07
   5   0 -12    0.58    0.06
   5   0 -12    0.59    0.06
   5   0 -12    0.46    0.06
  -5   0  12    0.67    0.04
  -5   0  12    0.52    0.05
  -5   0  12    0.56    0.11
  -5   0  12    0.52    0.06
   4   0 -12   36.84    1.02
   4   0 -12   36.47    0.99
   4   0 -12   36.67    0.95
  -4   0  12   37.01    0.89
  -4   0  12   35.88    0.91
   3   0 -12   22.81    0.64
   3   0 -12   22.22    0.61
  -3   0  12   22.62    0.57
  -3   0  12   21.61    0.56
   2   0 -12   14.15    0.42
  -2   0  12   13.76    0.36
   1   0 -12   15.76    0.46
  -1   0  12   15.13    0.39
  -1   0  12   15.16    0.46
   0   0 -12    9.92    0.31
   0   0  12    9.65    0.31
  -1   0 -12    2.07    0.08
   1   0  12    1.89    0.10
  -2   0 -12    6.36    0.18
   2   0  12    6.76    0.21
   2   0  12    6.31    0.20
  -3   0 -12    0.05    0.02
   3   0  12    0.07    0.03
   3   0  12    0.10    0.03
   3   0  12    0.13    0.03
 -10   1  12    2.76    0.08
   9  -1 -12   19.37    0.51
  -9   1  12   20.00    0.51
   8  -1 -12   10.00    0.29
  -8   1  12    9.90    0.28
  -8   1  12   10.68    0.28
  -8   1  12    9.57    0.34
   7  -1 -12   23.73    0.61
  -7   1  12   23.03    0.59
  -7   1  12   23.88    0.61
  -7   1  12   24.05    0.58
  -7   1  12   22.51    0.74
   6  -1 -12   16.81    0.44
   6  -1 -12   16.97    0.45
  -6   1  12   16.42    0.42
  -6   1  12   16.41    0.44
  -6   1  12   16.76    0.44
   5  -1 -12   11.17    0.32
   5  -1 -12   11.18    0.32
   5  -1 -12   11.21    0.34
  -5   1  12   11.13    0.30
  -5   1  12   11.36    0.31
  -5   1  12   11.10    0.30
   4  -1 -12    9.08    0.27
   4  -1 -12    9.13    0.29
  -4   1  12    9.14    0.27
  -4   1  12    9.05    0.25
   3  -1 -12    9.46    0.31
  -3   1  12    9.38    0.26
  -3   1  12    9.51    0.28
   2  -1 -12   16.21    0.50
  -2   1  12   16.79    0.43
  -2   1  12   17.02    0.44
   1  -1 -12   22.42    0.66
  -1   1  12   22.91    0.66
   0  -1 -12   11.87    0.34
   0  -1 -12   11.81    0.37
   0   1  12   12.18    0.37
  -1  -1 -12   32.85    0.81
  -1  -1 -12   33.50    0.86
   1   1  12   33.58    0.93
  -2  -1 -12    4.47    0.15
  -2  -1 -12    4.46    0.14
   2   1  12    4.64    0.16
   2   1  12    4.61    0.15
  -3  -1 -12    6.42    0.18
  -3  -1 -12    6.22    0.19
   3   1  12    6.87    0.18
   3   1  12    6.38    0.20
   3   1  12    6.58    0.20
   9  -2 -12    1.21    0.06
  -9   2  12    1.18    0.05
   8  -2 -12    1.95    0.09
  -8   2  12    2.12    0.07
   7  -2 -12   53.12    1.28
  -7   2  12   50.58    1.25
  -7   2  12   51.59    1.23
  -7   2  12   51.87    1.31
   6  -2 -12   28.55    0.71
   6  -2 -12   27.13    0.71
  -6   2  12   27.64    0.71
  -6   2  12   28.15    0.68
  -6   2  12   27.48    0.70
   5  -2 -12   12.48    0.35
   5  -2 -12   12.79    0.38
   5  -2 -12   12.52    0.35
   5  -2 -12   12.91    0.36
  -5   2  12   12.79    0.35
  -5   2  12   13.13    0.34
   4  -2 -12    5.29    0.18
   4  -2 -12    5.19    0.18
   4  -2 -12    4.87    0.17
   4  -2 -12    5.39    0.19
  -4   2  12    5.30    0.17
  -4   2  12    5.35    0.17
   3  -2 -12    7.30    0.24
   3  -2 -12    6.87    0.22
   3  -2 -12    7.01    0.22
  -3   2  12    6.90    0.21
  -3   2  12    7.20    0.22
   2  -2 -12    7.13    0.25
   2  -2 -12    7.34    0.23
  -2   2  12    7.35    0.22
  -2   2  12    6.91    0.21
   1  -2 -12   10.49    0.31
   1  -2 -12   10.39    0.33
  -1   2  12   10.90    0.29
  -1   2  12   10.23    0.33
   0  -2 -12    9.26    0.27
   0  -2 -12    8.59    0.29
   0   2  12    9.02    0.25
   0   2  12    9.03    0.29
  -1  -2 -12    3.03    0.12
  -1  -2 -12    3.25    0.11
   1   2  12    3.25    0.13
  -2  -2 -12   15.10    0.41
  -2  -2 -12   15.23    0.38
   2   2  12   15.36    0.44
   2   2  12   15.02    0.41
   2   2  12   16.12    0.43
   8  -3 -12    0.95    0.06
   7  -3 -12    0.37    0.04
   7  -3 -12    0.30    0.04
  -7   3  12    0.35    0.04
   6  -3 -12    2.54    0.08
   6  -3 -12    2.46    0.10
   6  -3 -12    2.38    0.10
  -6   3  12    2.54    0.10
  -6   3  12    2.50    0.10
   5  -3 -12   12.96    0.36
   5  -3 -12   13.04    0.39
   5  -3 -12   12.75    0.35
   5  -3 -12   13.37    0.36
  -5   3  12   13.50    0.34
  -5   3  12   13.18    0.35
   4  -3 -12   26.70    0.69
   4  -3 -12   26.56    0.75
   4  -3 -12   25.63    0.69
   4  -3 -12   27.08    0.75
  -4   3  12   26.87    0.65
  -4   3  12   26.60    0.67
   3  -3 -12    2.35    0.10
   3  -3 -12    2.33    0.11
   3  -3 -12    2.43    0.11
  -3   3  12    2.14    0.10
  -3   3  12    2.14    0.09
   2  -3 -12    2.08    0.10
   2  -3 -12    1.76    0.10
  -2   3  12    1.93    0.09
  -2   3  12    1.88    0.08
   1  -3 -12    2.41    0.11
   1  -3 -12    2.63    0.10
  -1   3  12    2.33    0.11
  -1   3  12    2.49    0.10
   0  -3 -12    0.72    0.06
   0  -3 -12    0.71    0.06
   0  -3 -12    0.73    0.07
   0   3  12    0.81    0.07
   0   3  12    0.67    0.06
   0   3  12    0.80    0.06
  -1  -3 -12    0.32    0.04
  -1  -3 -12    0.40    0.04
   1   3  12    0.45    0.05
   1   3  12    0.40    0.04
   1   3  12    0.33    0.04
   6  -4 -12    0.41    0.04
  -6   4  12    0.36    0.03
   5  -4 -12   13.96    0.35
   5  -4 -12   13.32    0.38
   5  -4 -12   13.79    0.36
  -5   4  12   12.21    0.34
  -5   4  12   13.72    0.34
   4  -4 -12    1.07    0.06
   4  -4 -12    0.98    0.06
   4  -4 -12    1.02    0.06
  -4   4  12    0.93    0.05
  -4   4  12    1.02    0.06
   3  -4 -12   34.53    0.92
   3  -4 -12   38.31    0.99
   3  -4 -12   36.55    0.91
  -3   4  12   34.01    0.86
  -3   4  12   36.71    0.88
   2  -4 -12    0.98    0.06
   2  -4 -12    1.03    0.07
  -2   4  12    0.96    0.05
  -2   4  12    0.92    0.06
   1  -4 -12   29.38    0.73
   1  -4 -12   27.55    0.79
  -1   4  12   29.25    0.79
  -1   4  12   28.99    0.70
   6   3 -13   15.82    0.43
  -6  -3  13   16.20    0.39
  -5  -3  13   15.48    0.38
   4   3 -13   38.12    1.06
   4   3 -13   40.38    0.99
  -4  -3  13   39.86    0.93
   3   3 -13    0.00    0.02
   3   3 -13    0.02    0.03
  -3  -3  13    0.05    0.02
   2   3 -13    1.78    0.07
   2   3 -13    1.82    0.07
  -2  -3  13    1.71    0.06
   1   3 -13    2.09    0.08
   8   2 -13   25.19    0.67
  -8  -2  13   25.34    0.64
   7   2 -13    9.11    0.26
  -7  -2  13    8.69    0.23
  -7  -2  13    8.43    0.22
   6   2 -13   10.46    0.30
  -6  -2  13   10.07    0.26
   5   2 -13   23.78    0.62
   5   2 -13   24.46    0.66
  -5  -2  13   24.89    0.59
   4   2 -13   13.67    0.37
   4   2 -13   13.71    0.40
  -4  -2  13   14.21    0.35
   3   2 -13   18.46    0.50
   3   2 -13   19.26    0.54
  -3  -2  13   19.03    0.47
   2   2 -13    1.71    0.08
   2   2 -13    1.69    0.08
  -2  -2  13    1.68    0.07
   1   2 -13    2.27    0.10
   0   2 -13   11.27    0.33
   0  -2  13   11.30    0.33
   1  -2  13    6.98    0.21
  -9  -1  13    5.54    0.15
  -9  -1  13    5.60    0.16
   8   1 -13    4.98    0.16
  -8  -1  13    5.01    0.14
  -8  -1  13    5.05    0.15
   7   1 -13    1.35    0.08
  -7  -1  13    1.63    0.06
  -7  -1  13    1.47    0.06
   6   1 -13    2.05    0.10
  -6  -1  13    2.04    0.07
  -6  -1  13    2.07    0.09
  -6  -1  13    2.10    0.08
   5   1 -13    0.61    0.06
   5   1 -13    0.70    0.06
   5   1 -13    0.68    0.06
   5   1 -13    0.71    0.05
  -5  -1  13    0.80    0.06
  -5  -1  13    0.70    0.05
   4   1 -13    2.57    0.10
   4   1 -13    2.64    0.11
   4   1 -13    2.60    0.11
  -4  -1  13    2.68    0.09
  -4  -1  13    2.36    0.10
   3   1 -13    8.77    0.27
   3   1 -13    8.36    0.25
  -3  -1  13    8.71    0.23
   2   1 -13   17.76    0.51
  -2  -1  13   17.22    0.44
   1   1 -13    0.65    0.06
  -1  -1  13    0.64    0.06
   0   1 -13   17.28    0.50
   0  -1  13   17.80    0.50
   1  -1  13   64.91    1.75
  -9   0  13    5.23    0.15
  -9   0  13    5.21    0.15
   8   0 -13    2.92    0.10
  -8   0  13    2.79    0.09
  -8   0  13    2.79    0.10
   7   0 -13   14.84    0.39
  -7   0  13   14.23    0.37
  -7   0  13   15.26    0.39
  -7   0  13   14.76    0.39
   6   0 -13   12.60    0.34
   6   0 -13   12.59    0.32
  -6   0  13   11.88    0.33
  -6   0  13   12.80    0.33
  -6   0  13   12.31    0.32
   5   0 -13    2.55    0.11
   5   0 -13    2.40    0.10
   5   0 -13    2.43    0.10
  -5   0  13    2.32    0.09
  -5   0  13    2.60    0.11
   4   0 -13   19.14    0.53
   4   0 -13   19.63    0.57
   4   0 -13   20.21    0.52
  -4   0  13   20.48    0.50
  -4   0  13   19.45    0.51
   3   0 -13    6.40    0.21
   3   0 -13    6.92    0.22
  -3   0  13    6.34    0.19
  -3   0  13    6.46    0.20
   2   0 -13    5.28    0.19
  -2   0  13    5.15    0.16
   1   0 -13    0.98    0.07
  -1   0  13    0.87    0.07
   0   0 -13    4.33    0.16
   0   0  13    4.50    0.16
   1   0  13    0.00    0.03
   2   0  13    6.94    0.21
   9  -1 -13    5.36    0.16
  -9   1  13    5.47    0.15
   8  -1 -13    4.95    0.15
  -8   1  13    4.96    0.14
  -8   1  13    4.92    0.15
   7  -1 -13    1.51    0.08
  -7   1  13    1.61    0.08
  -7   1  13    1.47    0.06
  -7   1  13    1.32    0.07
   6  -1 -13    2.12    0.07
   6  -1 -13    2.15    0.10
  -6   1  13    1.95    0.08
  -6   1  13    1.96    0.09
   5  -1 -13    0.73    0.06
   5  -1 -13    0.70    0.06
   5  -1 -13    0.76    0.06
  -5   1  13    0.57    0.05
  -5   1  13    0.75    0.06
   4  -1 -13    2.50    0.11
   4  -1 -13    2.44    0.11
   4  -1 -13    2.60    0.12
  -4   1  13    2.58    0.11
  -4   1  13    2.55    0.10
   3  -1 -13    8.59    0.26
   3  -1 -13    9.15    0.28
  -3   1  13    8.57    0.24
  -3   1  13    8.60    0.25
   2  -1 -13   17.11    0.50
  -2   1  13   16.98    0.44
  -2   1  13   17.18    0.43
   1  -1 -13    0.67    0.06
  -1   1  13    0.63    0.06
   0  -1 -13   17.42    0.51
   0   1  13   18.00    0.51
   1   1  13   65.05    1.76
   8  -2 -13   26.92    0.67
   7  -2 -13    9.12    0.25
  -7   2  13    8.82    0.23
  -7   2  13    8.79    0.24
   6  -2 -13   10.03    0.28
   6  -2 -13   10.30    0.27
  -6   2  13    9.83    0.28
  -6   2  13   10.59    0.27
   5  -2 -13   23.91    0.61
   5  -2 -13   23.46    0.66
   5  -2 -13   23.97    0.66
   5  -2 -13   24.29    0.62
  -5   2  13   24.80    0.60
  -5   2  13   22.17    0.58
   4  -2 -13   13.30    0.37
   4  -2 -13   13.23    0.37
   4  -2 -13   13.23    0.37
   4  -2 -13   14.02    0.41
  -4   2  13   14.29    0.37
  -4   2  13   13.94    0.35
   3  -2 -13   19.16    0.53
   3  -2 -13   18.12    0.48
   3  -2 -13   17.99    0.49
   3  -2 -13   18.38    0.48
  -3   2  13   18.98    0.46
  -3   2  13   17.30    0.47
   2  -2 -13    1.69    0.09
   2  -2 -13    1.75    0.08
   2  -2 -13    1.75    0.08
  -2   2  13    1.67    0.07
  -2   2  13    1.65    0.08
   1  -2 -13    2.34    0.11
   1  -2 -13    2.37    0.09
  -1   2  13    2.25    0.11
  -1   2  13    2.27    0.09
   0  -2 -13   10.90    0.34
   0  -2 -13   11.54    0.31
   0   2  13   11.96    0.34
   1   2  13    6.90    0.22
   1   2  13    7.22    0.21
  -6   3  13   16.45    0.40
  -6   3  13   15.68    0.40
   5  -3 -13   15.25    0.38
   5  -3 -13   14.20    0.39
   5  -3 -13   14.44    0.42
  -5   3  13   14.80    0.38
  -5   3  13   15.10    0.37
   4  -3 -13   38.93    1.07
   4  -3 -13   37.66    0.99
   4  -3 -13   40.22    1.00
  -4   3  13   38.97    0.93
  -4   3  13   40.15    0.95
   3  -3 -13    0.02    0.03
   3  -3 -13   -0.02    0.03
   3  -3 -13    0.01    0.03
   3  -3 -13    0.00    0.03
  -3   3  13    0.00    0.03
  -3   3  13   -0.01    0.03
   2  -3 -13    1.99    0.09
   2  -3 -13    1.95    0.09
   2  -3 -13    1.97    0.08
  -2   3  13    1.91    0.08
   1  -3 -13    2.05    0.09
   1  -3 -13    2.15    0.08
   1  -3 -13    2.10    0.09
  -1   3  13    2.13    0.09
  -1   3  13    2.23    0.08
  -6  -2  14    5.09    0.14
  -5  -2  14    4.08    0.12
   4   2 -14    0.64    0.04
   4   2 -14    0.64    0.04
  -4  -2  14    0.60    0.04
   3   2 -14    4.67    0.15
   3   2 -14    5.07    0.14
  -3  -2  14    4.69    0.13
   2   2 -14    5.00    0.15
   2   2 -14    5.02    0.16
  -7  -1  14    4.19    0.12
  -7  -1  14    4.27    0.13
  -6  -1  14    0.02    0.02
  -6  -1  14    0.01    0.03
   5   1 -14    4.38    0.13
  -5  -1  14    4.53    0.13
  -5  -1  14    4.21    0.13
   4   1 -14    6.83    0.20
   4   1 -14    7.36    0.20
   4   1 -14    7.05    0.22
  -4  -1  14    7.25    0.19
   3   1 -14    4.05    0.14
   3   1 -14    3.92    0.13
   3   1 -14    3.89    0.13
  -3  -1  14    4.06    0.12
   2   1 -14    1.20    0.07
   2   1 -14    1.09    0.07
  -2  -1  14    1.14    0.05
   1   1 -14    2.22    0.09
   7   0 -14    1.79    0.07
  -7   0  14    1.79    0.07
  -7   0  14    1.82    0.07
   6   0 -14   18.08    0.47
  -6   0  14   18.54    0.45
  -6   0  14   18.19    0.46
   5   0 -14    4.31    0.13
   5   0 -14    4.12    0.14
   5   0 -14    4.07    0.14
  -5   0  14    4.36    0.13
  -5   0  14    4.09    0.13
   4   0 -14    1.01    0.06
   4   0 -14    0.94    0.07
   4   0 -14    0.94    0.06
  -4   0  14    0.90    0.06
  -4   0  14    1.09    0.06
   3   0 -14    0.34    0.04
   3   0 -14    0.38    0.05
   3   0 -14    0.40    0.05
  -3   0  14    0.41    0.04
   2   0 -14    4.85    0.17
  -2   0  14    4.79    0.14
   1   0 -14    2.35    0.10
  -1   0  14    2.32    0.10
   7  -1 -14    4.45    0.14
  -7   1  14    4.61    0.14
  -7   1  14    4.71    0.13
   6  -1 -14    0.02    0.03
  -6   1  14    0.02    0.03
  -6   1  14    0.03    0.03
   5  -1 -14    4.72    0.14
   5  -1 -14    4.41    0.14
   5  -1 -14    4.31    0.15
   5  -1 -14    4.75    0.14
  -5   1  14    4.42    0.14
  -5   1  14    4.47    0.14
   4  -1 -14    7.51    0.21
   4  -1 -14    7.14    0.21
   4  -1 -14    7.00    0.22
  -4   1  14    7.25    0.20
  -4   1  14    6.83    0.20
   3  -1 -14    3.95    0.14
   3  -1 -14    4.29    0.15
   3  -1 -14    4.31    0.14
  -3   1  14    4.06    0.13
  -3   1  14    3.95    0.12
   2  -1 -14    1.24    0.07
   2  -1 -14    1.25    0.07
   1  -1 -14    2.24    0.09
  -1   1  14    1.99    0.09
   6  -2 -14    5.21    0.15
  -6   2  14    4.98    0.15
  -6   2  14    5.12    0.14
   5  -2 -14    3.96    0.11
   5  -2 -14    4.06    0.12
   5  -2 -14    3.74    0.12
  -5   2  14    3.87    0.12
  -5   2  14    3.91    0.12
   4  -2 -14    0.65    0.05
   4  -2 -14    0.61    0.05
   4  -2 -14    0.60    0.05
   4  -2 -14    0.63    0.05
  -4   2  14    0.67    0.04
  -4   2  14    0.75    0.05
   3  -2 -14    4.75    0.16
   3  -2 -14    4.67    0.15
   3  -2 -14    4.77    0.14
   3  -2 -14    4.70    0.15
  -3   2  14    4.59    0.13
  -3   2  14    4.65    0.14
   2  -2 -14    5.11    0.17
   0   0   0    0.00    0.00
;
_shelx_hkl_checksum              45242
#END Tags that were not found in dictionaries
loop_
_space_group_symop_operation_xyz
'x, y, z'
'-x, y+1/2, -z'
loop_
_atom_site_label
_atom_site_type_symbol
_atom_site_fract_x
_atom_site_fract_y
_atom_site_fract_z
_atom_site_U_iso_or_equiv
_atom_site_adp_type
_atom_site_occupancy
_atom_site_site_symmetry_order
_atom_site_calc_flag
_atom_site_refinement_flags_posn
_atom_site_refinement_flags_adp
O1 O 0.08075(11) -0.03153(17) 0.07856(9) 0.0153(2) Uani 1 1 d D .
H1O H 0.102(2) -0.157(3) 0.1080(16) 0.019(5) Uiso 1 1 d D .
O2 O 0.13425(11) 0.54306(17) 0.12107(9) 0.0171(2) Uani 1 1 d D .
H2O H 0.072(2) 0.496(4) 0.0597(16) 0.027(5) Uiso 1 1 d D .
C1 C 0.20195(16) 0.0797(3) 0.07353(13) 0.0152(3) Uani 1 1 d . .
H1A H 0.1745 0.1791 0.0062 0.018 Uiso 1 1 calc R U
H1B H 0.2693 -0.0277 0.0631 0.018 Uiso 1 1 calc R U
C2 C 0.27278(15) 0.2116(2) 0.18417(12) 0.0130(3) Uani 1 1 d . .
H2 H 0.3042 0.1076 0.2506 0.016 Uiso 1 1 calc R U
C3 C 0.39671(16) 0.3265(2) 0.17776(12) 0.0147(3) Uani 1 1 d . .
C4 C 0.49514(16) 0.4327(3) 0.17610(12) 0.0161(3) Uani 1 1 d . .
C5 C 0.60949(16) 0.5742(3) 0.17951(13) 0.0157(3) Uani 1 1 d . .
C6 C 0.74859(16) 0.5136(3) 0.23919(13) 0.0187(3) Uani 1 1 d . .
H6 H 0.7689 0.3745 0.2748 0.022 Uiso 1 1 calc R U
C7 C 0.85648(16) 0.6574(3) 0.24602(14) 0.0209(3) Uani 1 1 d . .
H7 H 0.9507 0.6163 0.2867 0.025 Uiso 1 1 calc R U
C8 C 0.82806(17) 0.8609(3) 0.19396(13) 0.0212(4) Uani 1 1 d . .
H8 H 0.9026 0.9584 0.1992 0.025 Uiso 1 1 calc R U
C9 C 0.69080(18) 0.9214(3) 0.13427(14) 0.0219(3) Uani 1 1 d . .
H9 H 0.6711 1.0604 0.0984 0.026 Uiso 1 1 calc R U
C10 C 0.58271(17) 0.7790(3) 0.12716(14) 0.0202(3) Uani 1 1 d . .
H10 H 0.4888 0.8211 0.0860 0.024 Uiso 1 1 calc R U
C11 C 0.16857(15) 0.3758(2) 0.20691(12) 0.0137(3) Uani 1 1 d . .
H11 H 0.0808 0.2962 0.2021 0.016 Uiso 1 1 calc R U
C12 C 0.22961(15) 0.4772(2) 0.32558(13) 0.0151(3) Uani 1 1 d . .
C13 C 0.31569(16) 0.6595(3) 0.34118(14) 0.0181(3) Uani 1 1 d . .
H13 H 0.3336 0.7201 0.2767 0.022 Uiso 1 1 calc R U
C14 C 0.37578(18) 0.7543(3) 0.44897(15) 0.0236(4) Uani 1 1 d . .
H14 H 0.4341 0.8790 0.4582 0.028 Uiso 1 1 calc R U
C15 C 0.34993(17) 0.6653(3) 0.54329(15) 0.0273(4) Uani 1 1 d . .
H15 H 0.3900 0.7296 0.6174 0.033 Uiso 1 1 calc R U
C16 C 0.26564(17) 0.4824(3) 0.52899(14) 0.0253(4) Uani 1 1 d . .
H16 H 0.2494 0.4220 0.5942 0.030 Uiso 1 1 calc R U
C17 C 0.20403(16) 0.3848(3) 0.42118(13) 0.0188(3) Uani 1 1 d . .
C18 C 0.11209(18) 0.1871(3) 0.41042(14) 0.0238(4) Uani 1 1 d . .
H18A H 0.1168 0.1390 0.4875 0.036 Uiso 1 1 calc R U
H18B H 0.1447 0.0695 0.3721 0.036 Uiso 1 1 calc R U
H18C H 0.0151 0.2242 0.3647 0.036 Uiso 1 1 calc R U
loop_
_atom_site_aniso_label
_atom_site_aniso_U_11
_atom_site_aniso_U_22
_atom_site_aniso_U_33
_atom_site_aniso_U_23
_atom_site_aniso_U_13
_atom_site_aniso_U_12
O1 0.0145(5) 0.0100(5) 0.0183(5) 0.0009(4) 0.0016(4) -0.0013(4)
O2 0.0166(5) 0.0116(5) 0.0168(5) 0.0016(4) -0.0023(4) -0.0002(4)
C1 0.0144(7) 0.0145(7) 0.0164(7) -0.0009(6) 0.0046(5) -0.0007(6)
C2 0.0125(7) 0.0119(7) 0.0136(7) 0.0015(6) 0.0032(6) 0.0005(6)
C3 0.0141(7) 0.0150(7) 0.0132(7) -0.0001(6) 0.0026(5) 0.0027(6)
C4 0.0160(8) 0.0168(7) 0.0142(6) 0.0004(6) 0.0035(5) 0.0010(6)
C5 0.0142(7) 0.0186(8) 0.0149(7) -0.0039(6) 0.0060(5) -0.0012(6)
C6 0.0165(7) 0.0207(8) 0.0190(7) -0.0011(6) 0.0061(6) 0.0001(6)
C7 0.0133(8) 0.0282(9) 0.0222(8) -0.0055(7) 0.0070(6) -0.0010(7)
C8 0.0207(8) 0.0256(9) 0.0211(7) -0.0096(7) 0.0118(6) -0.0105(7)
C9 0.0273(9) 0.0180(8) 0.0220(8) -0.0004(6) 0.0104(6) -0.0021(7)
C10 0.0165(8) 0.0222(8) 0.0207(8) -0.0004(6) 0.0049(6) 0.0013(6)
C11 0.0130(7) 0.0115(7) 0.0155(7) 0.0013(6) 0.0033(5) -0.0004(6)
C12 0.0116(7) 0.0138(7) 0.0181(7) -0.0020(6) 0.0026(5) 0.0032(6)
C13 0.0158(7) 0.0149(7) 0.0217(8) -0.0011(6) 0.0040(6) 0.0019(6)
C14 0.0165(8) 0.0197(8) 0.0307(9) -0.0097(7) 0.0030(7) -0.0003(6)
C15 0.0191(8) 0.0375(10) 0.0213(8) -0.0142(8) 0.0018(6) 0.0036(8)
C16 0.0196(8) 0.0382(10) 0.0179(8) -0.0030(7) 0.0064(6) 0.0037(8)
C17 0.0138(7) 0.0233(8) 0.0190(7) -0.0010(6) 0.0053(6) 0.0035(6)
C18 0.0236(8) 0.0283(9) 0.0210(8) 0.0038(7) 0.0095(6) -0.0020(7)
loop_
_atom_type_symbol
_atom_type_description
_atom_type_scat_dispersion_real
_atom_type_scat_dispersion_imag
_atom_type_scat_source
C C 0.0181 0.0091 'International Tables Vol C Tables 4.2.6.8 and 6.1.1.4'
H H 0.0000 0.0000 'International Tables Vol C Tables 4.2.6.8 and 6.1.1.4'
O O 0.0492 0.0322 'International Tables Vol C Tables 4.2.6.8 and 6.1.1.4'
loop_
_geom_angle_atom_site_label_1
_geom_angle_atom_site_label_2
_geom_angle_atom_site_label_3
_geom_angle
C1 O1 H1O 110.6(13)
C11 O2 H2O 109.3(15)
O1 C1 C2 111.20(12)
O1 C1 H1A 109.4
C2 C1 H1A 109.4
O1 C1 H1B 109.4
C2 C1 H1B 109.4
H1A C1 H1B 108.0
C3 C2 C1 110.76(12)
C3 C2 C11 110.31(12)
C1 C2 C11 111.15(11)
C3 C2 H2 108.2
C1 C2 H2 108.2
C11 C2 H2 108.2
C4 C3 C2 175.42(16)
C3 C4 C5 175.09(16)
C10 C5 C6 118.90(14)
C10 C5 C4 120.14(14)
C6 C5 C4 120.91(15)
C7 C6 C5 119.77(15)
C7 C6 H6 120.1
C5 C6 H6 120.1
C6 C7 C8 120.62(15)
C6 C7 H7 119.7
C8 C7 H7 119.7
C9 C8 C7 119.92(15)
C9 C8 H8 120.0
C7 C8 H8 120.0
C10 C9 C8 119.79(16)
C10 C9 H9 120.1
C8 C9 H9 120.1
C9 C10 C5 121.00(15)
C9 C10 H10 119.5
C5 C10 H10 119.5
O2 C11 C12 109.64(12)
O2 C11 C2 109.90(11)
C12 C11 C2 111.23(11)
O2 C11 H11 108.7
C12 C11 H11 108.7
C2 C11 H11 108.7
C13 C12 C17 119.65(14)
C13 C12 C11 119.59(13)
C17 C12 C11 120.73(14)
C14 C13 C12 121.28(16)
C14 C13 H13 119.4
C12 C13 H13 119.4
C13 C14 C15 119.36(16)
C13 C14 H14 120.3
C15 C14 H14 120.3
C16 C15 C14 119.85(15)
C16 C15 H15 120.1
C14 C15 H15 120.1
C15 C16 C17 121.65(16)
C15 C16 H16 119.2
C17 C16 H16 119.2
C16 C17 C12 118.21(15)
C16 C17 C18 119.40(14)
C12 C17 C18 122.39(14)
C17 C18 H18A 109.5
C17 C18 H18B 109.5
H18A C18 H18B 109.5
C17 C18 H18C 109.5
H18A C18 H18C 109.5
H18B C18 H18C 109.5
loop_
_geom_bond_atom_site_label_1
_geom_bond_atom_site_label_2
_geom_bond_distance
O1 C1 1.4274(19)
O1 H1O 0.847(18)
O2 C11 1.4290(17)
O2 H2O 0.852(18)
C1 C2 1.5366(19)
C1 H1A 0.9900
C1 H1B 0.9900
C2 C3 1.469(2)
C2 C11 1.555(2)
C2 H2 1.0000
C3 C4 1.199(2)
C4 C5 1.439(2)
C5 C10 1.397(2)
C5 C6 1.401(2)
C6 C7 1.387(2)
C6 H6 0.9500
C7 C8 1.388(3)
C7 H7 0.9500
C8 C9 1.386(2)
C8 H8 0.9500
C9 C10 1.382(2)
C9 H9 0.9500
C10 H10 0.9500
C11 C12 1.514(2)
C11 H11 1.0000
C12 C13 1.392(2)
C12 C17 1.410(2)
C13 C14 1.386(2)
C13 H13 0.9500
C14 C15 1.389(3)
C14 H14 0.9500
C15 C16 1.386(3)
C15 H15 0.9500
C16 C17 1.396(2)
C16 H16 0.9500
C17 C18 1.509(2)
C18 H18A 0.9800
C18 H18B 0.9800
C18 H18C 0.9800
loop_
_geom_hbond_atom_site_label_D
_geom_hbond_atom_site_label_H
_geom_hbond_atom_site_label_A
_geom_hbond_distance_DH
_geom_hbond_distance_HA
_geom_hbond_distance_DA
_geom_hbond_angle_DHA
_geom_hbond_site_symmetry_A
O1 H1O O2 0.847(18) 1.867(19) 2.6813(15) 160.9(19) 1_545
O2 H2O O1 0.852(18) 1.881(18) 2.7120(15) 165(2) 2
loop_
_geom_torsion_atom_site_label_1
_geom_torsion_atom_site_label_2
_geom_torsion_atom_site_label_3
_geom_torsion_atom_site_label_4
_geom_torsion
O1 C1 C2 C3 -179.60(12)
O1 C1 C2 C11 -56.60(15)
C10 C5 C6 C7 0.5(2)
C4 C5 C6 C7 -176.79(14)
C5 C6 C7 C8 -0.2(2)
C6 C7 C8 C9 -0.1(2)
C7 C8 C9 C10 0.2(2)
C8 C9 C10 C5 0.1(2)
C6 C5 C10 C9 -0.5(2)
C4 C5 C10 C9 176.85(15)
C3 C2 C11 O2 54.92(14)
C1 C2 C11 O2 -68.34(15)
C3 C2 C11 C12 -66.69(15)
C1 C2 C11 C12 170.06(12)
O2 C11 C12 C13 -36.51(18)
C2 C11 C12 C13 85.25(16)
O2 C11 C12 C17 145.64(13)
C2 C11 C12 C17 -92.61(16)
C17 C12 C13 C14 -0.8(2)
C11 C12 C13 C14 -178.70(14)
C12 C13 C14 C15 0.2(2)
C13 C14 C15 C16 0.5(3)
C14 C15 C16 C17 -0.6(3)
C15 C16 C17 C12 0.0(2)
C15 C16 C17 C18 -179.45(16)
C13 C12 C17 C16 0.7(2)
C11 C12 C17 C16 178.56(14)
C13 C12 C17 C18 -179.86(14)
C11 C12 C17 C18 -2.0(2)
