#------------------------------------------------------------------------------
#$Date: 2016-03-22 21:49:03 +0200 (Tue, 22 Mar 2016) $
#$Revision: 179025 $
#$URL: svn://www.crystallography.net/cod/cif/4/12/23/4122377.cif $
#------------------------------------------------------------------------------
#
# This file is available in the Crystallography Open Database (COD),
# http://www.crystallography.net/
#
# All data on this site have been placed in the public domain by the
# contributors.
#
data_4122377
loop_
_publ_author_name
'Constantinides, Christos P.'
'Berezin, Andrey A.'
'Zissimou, Georgia A.'
'Manoli, Maria'
'Leitus, Gregory M.'
'Bendikov, Michael'
'Probert, Michael R.'
'Rawson, Jeremy M.'
'Koutentis, Panayiotis A.'
_publ_section_title
;
 A Magnetostructural Investigation of an Abrupt Spin Transition for
 1-Phenyl-3-trifluoromethyl-1,4-dihydrobenzo[e][1,2,4]triazin-4-yl.
;
_journal_issue                   34
_journal_name_full               'Journal of the American Chemical Society'
_journal_page_first              11906
_journal_paper_doi               10.1021/ja5063746
_journal_volume                  136
_journal_year                    2014
_chemical_formula_moiety         'C14 H9 F3 N3'
_chemical_formula_sum            'C14 H9 F3 N3'
_chemical_formula_weight         276.24
_chemical_name_systematic
;
 ?
;
_space_group_crystal_system      triclinic
_space_group_IT_number           2
_space_group_name_Hall           '-P 1'
_space_group_name_H-M_alt        'P -1'
_symmetry_space_group_name_Hall  '-P 1'
_symmetry_space_group_name_H-M   'P -1'
_atom_sites_solution_hydrogens   geom
_audit_creation_date             2014-04-01
_audit_creation_method
;
Olex2 1.2-alpha
(compiled 2014.03.19 svn.r2915 for OlexSys, GUI svn.r4811)
;
_cell_angle_alpha                79.778(2)
_cell_angle_beta                 67.137(2)
_cell_angle_gamma                86.490(2)
_cell_formula_units_Z            2
_cell_length_a                   8.2531(4)
_cell_length_b                   8.6096(4)
_cell_length_c                   9.5178(4)
_cell_measurement_reflns_used    6863
_cell_measurement_temperature    75.0
_cell_measurement_theta_max      26.45
_cell_measurement_theta_min      2.36
_cell_volume                     613.25(5)
_computing_data_reduction        'SAINT v7.68A (Bruker, 2009)'
_computing_molecular_graphics    'Olex2 (Dolomanov et al., 2009)'
_computing_publication_material  'Olex2 (Dolomanov et al., 2009)'
_computing_structure_refinement  'XL (Sheldrick, 2008)'
_diffrn_ambient_temperature      75.0
_diffrn_detector                 'Bruker APEX-II CCD area detector'
_diffrn_detector_area_resol_mean 8.3333
_diffrn_detector_type            'CCD area detector'
_diffrn_measured_fraction_theta_full 0.809
_diffrn_measured_fraction_theta_max 0.803
_diffrn_measurement_device       'XIPHOS four-circle diffractometer'
_diffrn_measurement_device_type  Xiphos
_diffrn_measurement_method       '\f and \w scans'
_diffrn_measurement_specimen_support '0.5mm graphite fibre'
_diffrn_radiation_collimation    focused
_diffrn_radiation_monochromator  graphite
_diffrn_radiation_probe          x-ray
_diffrn_radiation_type           MoK\a
_diffrn_radiation_wavelength     0.71073
_diffrn_reflns_av_R_equivalents  0.0263
_diffrn_reflns_av_unetI/netI     0.0216
_diffrn_reflns_Laue_measured_fraction_full 0.809
_diffrn_reflns_Laue_measured_fraction_max 0.803
_diffrn_reflns_limit_h_max       9
_diffrn_reflns_limit_h_min       -9
_diffrn_reflns_limit_k_max       10
_diffrn_reflns_limit_k_min       -9
_diffrn_reflns_limit_l_max       11
_diffrn_reflns_limit_l_min       -11
_diffrn_reflns_number            9462
_diffrn_reflns_point_group_measured_fraction_full 0.809
_diffrn_reflns_point_group_measured_fraction_max 0.803
_diffrn_reflns_theta_full        26.000
_diffrn_reflns_theta_max         26.449
_diffrn_reflns_theta_min         2.355
_diffrn_source                   'Bruker TXS with Helios Optics'
_diffrn_source_current           75.0
_diffrn_source_power             3.75
_diffrn_source_target            Mo
_diffrn_source_type              'Rotating Anode'
_diffrn_source_voltage           50.0
_diffrn_standards_number         0
_exptl_absorpt_coefficient_mu    0.124
_exptl_absorpt_correction_T_max  0.7454
_exptl_absorpt_correction_T_min  0.6528
_exptl_absorpt_correction_type   multi-scan
_exptl_absorpt_process_details
;
SADABS-2008/1 (Bruker,2008) was used for absorption correction.
wR2(int) was 0.0966 before and 0.0500 after correction.
The Ratio of minimum to maximum transmission is 0.8758.
The \l/2 correction factor is 0.0015.
;
_exptl_crystal_colour            'dark black'
_exptl_crystal_colour_modifier   dark
_exptl_crystal_colour_primary    black
_exptl_crystal_density_diffrn    1.496
_exptl_crystal_description       needle
_exptl_crystal_F_000             282
_exptl_crystal_size_max          0.35
_exptl_crystal_size_mid          0.15
_exptl_crystal_size_min          0.12
_refine_diff_density_max         0.213
_refine_diff_density_min         -0.189
_refine_diff_density_rms         0.039
_refine_ls_extinction_method     none
_refine_ls_goodness_of_fit_ref   1.041
_refine_ls_hydrogen_treatment    constr
_refine_ls_matrix_type           full
_refine_ls_number_parameters     181
_refine_ls_number_reflns         2036
_refine_ls_number_restraints     0
_refine_ls_restrained_S_all      1.041
_refine_ls_R_factor_all          0.0429
_refine_ls_R_factor_gt           0.0346
_refine_ls_shift/su_max          0.000
_refine_ls_shift/su_mean         0.000
_refine_ls_structure_factor_coef Fsqd
_refine_ls_weighting_details
'w=1/[\s^2^(Fo^2^)+(0.0224P)^2^+0.4491P] where P=(Fo^2^+2Fc^2^)/3'
_refine_ls_weighting_scheme      calc
_refine_ls_wR_factor_gt          0.0768
_refine_ls_wR_factor_ref         0.0811
_reflns_Friedel_coverage         0.000
_reflns_number_gt                1741
_reflns_number_total             2036
_reflns_threshold_expression     'I > 2\s(I)'
_cod_data_source_file            ja5063746_si_003.cif
_cod_data_source_block           data75k
_cod_depositor_comments
'Adding full bibliography for 4122377--4122379.cif.'
_cod_database_code               4122377
#BEGIN Tags that were not found in dictionaries:
_shelxl_version_number           2013-4
_shelx_space_group_comment
;
The symmetry employed for this shelxl refinement is uniquely defined
by the following loop, which should always be used as a source of
symmetry information in preference to the above space-group names.
They are only intended as comments.
;
_olex2_refinement_description
;
1. Fixed Uiso
 At 1.2 times of:
  All C(H) groups
2.a Aromatic/amide H refined with riding coordinates:
 C3(H3), C4(H4), C5(H5), C6(H6), C9(H9), C10(H10), C11(H11), C12(H12), C13(H13)
;
_shelx_res_file
;
TITL test_75 in P-1 #2
CELL 0.71073 8.2531 8.6096 9.5178 79.778 67.137 86.49
ZERR 2 0.0004 0.0004 0.0004 0.002 0.002 0.002
LATT 1

SFAC C H N F
UNIT 28 18 6 6

L.S. 4 0 0
PLAN  20
TEMP -198.15
REM reset to P-1 #2
BOND $H
MORE -1
CONF
fmap 2
acta 52
REM <HKL>/media/datastore/christos/christos/work/data75K.hkl</HKL>

WGHT    0.022400    0.449100
FVAR       0.30255
F1    4    0.059125    0.645487    0.924059    11.00000    0.04223    0.02537 =
         0.02455    0.00434   -0.01724   -0.00600
F2    4    0.235434    0.843410    0.815869    11.00000    0.02284    0.03548 =
         0.02319   -0.00352   -0.01139   -0.00495
F3    4   -0.040045    0.880632    0.941512    11.00000    0.02936    0.04105 =
         0.02257   -0.01593   -0.01025    0.00689
N1    3    0.142938    0.751988    0.454037    11.00000    0.01565    0.02203 =
         0.01585   -0.00477   -0.00510    0.00116
N2    3    0.173881    0.754037    0.585021    11.00000    0.01762    0.02154 =
         0.01729   -0.00341   -0.00733    0.00008
N3    3   -0.124123    0.837650    0.711497    11.00000    0.01909    0.01963 =
         0.01765   -0.00397   -0.00626    0.00143
C1    1    0.036331    0.797047    0.700764    11.00000    0.01869    0.01455 =
         0.01691   -0.00163   -0.00562   -0.00096
C2    1   -0.157012    0.824421    0.581801    11.00000    0.02029    0.01488 =
         0.01783   -0.00181   -0.00641   -0.00013
C3    1   -0.324604    0.853388    0.582204    11.00000    0.01905    0.01860 =
         0.02223   -0.00337   -0.00601    0.00235
AFIX  43
H3    2   -0.414446    0.886698    0.669527    11.00000   -1.20000
AFIX   0
C4    1   -0.361796    0.834192    0.456774    11.00000    0.01809    0.02034 =
         0.02805    0.00053   -0.01060   -0.00222
AFIX  43
H4    2   -0.476917    0.853666    0.458164    11.00000   -1.20000
AFIX   0
C5    1   -0.229735    0.786084    0.327912    11.00000    0.02793    0.02291 =
         0.02068   -0.00151   -0.01186   -0.00157
AFIX  43
H5    2   -0.256156    0.773004    0.242034    11.00000   -1.20000
AFIX   0
C6    1   -0.061983    0.757296    0.323175    11.00000    0.02174    0.02282 =
         0.01750   -0.00353   -0.00587   -0.00102
AFIX  43
H6    2    0.026428    0.723708    0.235199    11.00000   -1.20000
AFIX   0
C7    1   -0.022854    0.777996    0.449327    11.00000    0.01643    0.01600 =
         0.01880   -0.00099   -0.00556   -0.00103
C8    1    0.292560    0.707915    0.327213    11.00000    0.01219    0.02265 =
         0.01888   -0.00716   -0.00397   -0.00271
C9    1    0.349854    0.806876    0.184632    11.00000    0.02227    0.02224 =
         0.02112   -0.00459   -0.00816   -0.00107
AFIX  43
H9    2    0.291340    0.903201    0.170032    11.00000   -1.20000
AFIX   0
C10   1    0.494358    0.762022    0.064016    11.00000    0.02071    0.03091 =
         0.01884   -0.00535   -0.00496   -0.00690
AFIX  43
H10   2    0.535157    0.828019   -0.034357    11.00000   -1.20000
AFIX   0
C11   1    0.579486    0.621656    0.086129    11.00000    0.01557    0.03136 =
         0.02521   -0.01524   -0.00259   -0.00287
AFIX  43
H11   2    0.678119    0.591730    0.002872    11.00000   -1.20000
AFIX   0
C12   1    0.521252    0.524739    0.229292    11.00000    0.02101    0.02155 =
         0.03261   -0.01037   -0.00780    0.00149
AFIX  43
H12   2    0.580039    0.428576    0.243886    11.00000   -1.20000
AFIX   0
C13   1    0.377171    0.567844    0.351479    11.00000    0.02123    0.02063 =
         0.02241   -0.00416   -0.00680   -0.00280
AFIX  43
H13   2    0.337286    0.502321    0.450109    11.00000   -1.20000
AFIX   0
C14   1    0.073635    0.793479    0.845906    11.00000    0.01688    0.02194 =
         0.01872   -0.00304   -0.00522   -0.00188
HKLF 4

REM  test_75 in P-1 #2
REM R1 =  0.0346 for    1741 Fo > 4sig(Fo)  and  0.0429 for all    2036 data
REM    181 parameters refined using      0 restraints

END

WGHT      0.0224      0.4491

REM Highest difference peak  0.213,  deepest hole -0.189,  1-sigma level  0.039
Q1    1   0.3470  0.7754  0.2719  11.00000  0.05    0.21
Q2    1  -0.0705  0.8330  0.5033  11.00000  0.05    0.20
Q3    1   0.4358  0.5525  0.2770  11.00000  0.05    0.19
Q4    1  -0.0988  0.7874  0.5219  11.00000  0.05    0.19
Q5    1   0.2284  0.7312  0.3854  11.00000  0.05    0.19
Q6    1   0.3336  0.6335  0.3415  11.00000  0.05    0.18
Q7    1   0.5481  0.5760  0.1589  11.00000  0.05    0.18
Q8    1   0.0763  0.8113  0.7536  11.00000  0.05    0.18
Q9    1   0.3030  0.7350  0.2477  11.00000  0.05    0.17
Q10   1   0.5442  0.6974  0.0835  11.00000  0.05    0.16
Q11   1   0.0151  0.7447  0.7933  11.00000  0.05    0.16
Q12   1   0.4182  0.7694  0.1428  11.00000  0.05    0.16
Q13   1  -0.3598  0.7974  0.5333  11.00000  0.05    0.15
Q14   1  -0.2220  0.7977  0.7984  11.00000  0.05    0.15
Q15   1   0.0786  0.7953  0.4422  11.00000  0.05    0.14
Q16   1  -0.3023  0.7866  0.4088  11.00000  0.05    0.14
Q17   1  -0.3255  0.8962  0.4974  11.00000  0.05    0.13
Q18   1  -0.0041  0.8181  0.3601  11.00000  0.05    0.13
Q19   1  -0.1949  0.8795  0.5515  11.00000  0.05    0.12
Q20   1   0.2239  0.6623  0.5959  11.00000  0.05    0.12
;
_shelx_res_checksum              67556
_shelx_hkl_file
;
  -1   0   0  139.83    4.83
  -1   0   0  136.79    4.22
  -1   0   0  142.79    4.78
   1   0   0  142.17    4.84
   1   0   0  145.24    4.78
  -2   0   0   48.60    1.45
  -2   0   0   49.32    1.66
  -2   0   0   49.13    1.65
   2   0   0   45.73    1.64
   2   0   0   48.41    1.45
   2   0   0   49.54    1.67
   2   0   0   48.52    1.66
   2   0   0   49.79    1.64
  -3   0   0   13.57    0.47
  -3   0   0   13.52    0.47
  -3   0   0   13.10    0.41
  -3   0   0   12.81    0.44
   3   0   0   13.24    0.41
   3   0   0   12.77    0.47
   3   0   0   13.44    0.47
   3   0   0   12.38    0.46
   3   0   0   13.00    0.41
   3   0   0   13.64    0.47
  -4   0   0    0.90    0.09
  -4   0   0    0.88    0.12
  -4   0   0    0.62    0.08
  -4   0   0    0.81    0.10
   4   0   0    0.90    0.10
   4   0   0    0.68    0.08
   4   0   0    0.67    0.07
   4   0   0    0.60    0.09
  -6   1   0    2.37    0.20
  -5   1   0   -0.01    0.08
  -5   1   0    0.14    0.09
   4  -1   0    0.36    0.06
  -4   1   0    0.31    0.07
  -4   1   0    0.24    0.07
  -4   1   0    0.31    0.08
  -4   1   0    0.30    0.08
   3  -1   0   23.67    0.84
   3  -1   0   24.14    0.74
  -3   1   0   23.95    0.73
  -3   1   0   23.93    0.83
  -3   1   0   22.87    0.77
  -3   1   0   23.26    0.84
  -3   1   0   22.95    0.78
   2  -1   0   67.97    2.33
   2  -1   0   69.59    2.03
   2  -1   0   67.79    2.30
  -2   1   0   67.17    2.03
  -2   1   0   65.21    2.17
  -2   1   0   66.03    2.14
  -2   1   0   67.68    2.33
  -2   1   0   69.91    2.30
   1  -1   0   35.10    1.24
   1  -1   0   35.27    1.09
   1  -1   0   35.26    1.25
  -1   1   0   37.70    1.24
  -1   1   0   36.86    1.25
  -1   1   0   37.35    1.10
   0  -1   0   36.71    1.24
   0  -1   0   33.72    1.10
   0  -1   0   35.30    1.26
   0   1   0   36.05    1.24
   0   1   0   34.34    1.25
   0   1   0   34.45    1.10
  -1  -1   0  201.06    6.92
  -1  -1   0  217.10    6.94
  -1  -1   0  208.76    6.85
  -1  -1   0  198.41    6.04
  -1  -1   0  204.61    6.84
   1   1   0  199.96    6.04
   1   1   0  201.36    6.93
   1   1   0  203.15    6.04
   1   1   0  196.81    6.92
   1   1   0  204.15    6.84
   1   1   0  192.98    6.83
  -2  -1   0    1.96    0.09
  -2  -1   0    2.05    0.09
   2   1   0    1.86    0.09
   4   1   0    2.04    0.11
  -6   2   0    0.50    0.17
  -5   2   0    1.94    0.17
  -5   2   0    1.84    0.17
  -5   2   0    1.74    0.20
   4  -2   0   33.10    1.03
  -4   2   0   32.75    1.17
  -4   2   0   33.22    1.18
  -4   2   0   31.93    1.09
  -4   2   0   33.47    1.03
  -4   2   0   32.58    1.10
   3  -2   0   68.87    2.04
  -3   2   0   64.94    2.18
  -3   2   0   68.68    2.31
  -3   2   0   65.87    2.15
  -3   2   0   68.55    2.04
  -3   2   0   65.01    2.15
  -3   2   0   68.59    2.34
   2  -2   0   35.25    1.09
  -2   2   0   34.51    1.15
  -2   2   0   33.89    1.08
  -2   2   0   33.74    1.16
  -2   2   0   35.56    1.15
  -2   2   0   36.33    1.23
  -2   2   0   35.60    1.24
   1  -2   0   64.48    2.22
   1  -2   0   65.15    2.19
   1  -2   0   64.84    1.94
  -1   2   0   66.07    2.19
  -1   2   0   63.83    2.04
  -1   2   0   65.86    1.94
  -1   2   0   64.87    2.22
  -1   2   0   59.43    2.04
  -1   2   0   63.26    2.07
   0  -2   0  918.78   29.14
   0  -2   0  931.38   33.90
   0  -2   0  903.02   32.70
   0  -2   0  884.28   29.44
   0  -2   0  864.72   30.61
   0   2   0  955.80   34.16
   0   2   0 1000.00   33.92
   0   2   0  874.89   31.13
   0   2   0  892.39   30.62
   0   2   0  923.61   29.46
  -1  -2   0  454.99   14.58
  -1  -2   0  451.37   15.43
  -1  -2   0  454.37   15.63
  -1  -2   0  467.82   13.64
   1   2   0  454.32   13.64
   1   2   0  469.86   15.64
   1   2   0  453.73   13.65
   1   2   0  469.21   15.46
   1   2   0  465.88   15.63
   1   2   0  460.93   15.44
   1   2   0  424.35   14.39
  -2  -2   0    7.51    0.31
  -2  -2   0    8.95    0.30
  -2  -2   0    6.75    0.29
   2   2   0    7.39    0.26
   2   2   0    9.18    0.31
   2   2   0    7.62    0.26
   2   2   0    8.18    0.30
   2   2   0    6.77    0.30
  -3  -2   0   42.58    1.39
  -3  -2   0   45.98    1.48
  -3  -2   0   42.03    1.48
  -3  -2   0   43.54    1.46
  -3  -2   0   45.20    1.47
   3   2   0   42.65    1.36
   3   2   0   41.67    1.47
   3   2   0   41.34    1.45
   3   2   0   42.43    1.48
   3   2   0   41.51    1.29
   4   2   0   45.68    1.45
  -7   3   0   29.37    1.04
  -6   3   0   25.44    0.97
  -6   3   0   26.02    0.92
  -5   3   0    4.92    0.29
  -5   3   0    4.49    0.28
  -5   3   0    4.51    0.28
  -5   3   0    4.60    0.27
  -4   3   0    0.67    0.12
  -4   3   0    0.86    0.15
  -4   3   0    0.82    0.16
  -4   3   0    0.55    0.12
  -4   3   0    0.71    0.12
  -3   3   0    8.85    0.38
  -3   3   0    9.28    0.38
  -3   3   0    9.24    0.40
  -3   3   0    9.47    0.35
  -3   3   0    9.02    0.40
  -3   3   0    8.62    0.38
  -2   3   0   12.14    0.42
  -2   3   0   12.08    0.45
  -2   3   0   11.80    0.46
  -2   3   0   12.10    0.45
  -2   3   0   12.00    0.48
  -2   3   0   12.19    0.48
  -1   3   0    8.84    0.35
  -1   3   0    9.06    0.36
  -1   3   0    8.47    0.34
  -1   3   0    9.11    0.32
  -1   3   0    8.73    0.34
  -1   3   0    9.11    0.37
   0  -3   0  452.19   14.79
   0  -3   0  470.92   14.99
   0  -3   0  486.80   15.89
   0   3   0  504.79   16.13
   0   3   0  458.69   15.00
   0   3   0  439.94   14.81
   0   3   0  476.45   15.92
   0   3   0  452.43   14.81
   0   3   0  476.15   14.07
  -1  -3   0   30.40    1.01
  -1  -3   0   29.95    1.03
  -1  -3   0   30.68    1.08
   1   3   0   30.80    1.09
   1   3   0   31.35    0.95
   1   3   0   32.17    0.95
   1   3   0   30.96    1.00
   1   3   0   29.73    1.00
   1   3   0   31.55    1.08
   1   3   0   29.91    1.01
  -2  -3   0    0.03    0.07
  -2  -3   0    0.07    0.04
  -2  -3   0    0.04    0.05
  -2  -3   0    0.04    0.04
   2   3   0    0.03    0.05
   2   3   0    0.02    0.05
   2   3   0    0.06    0.05
   2   3   0    0.06    0.06
   2   3   0    0.04    0.04
   2   3   0    0.05    0.04
   2   3   0    0.03    0.04
  -3  -3   0    5.63    0.26
  -3  -3   0    5.01    0.22
  -3  -3   0    4.75    0.23
  -3  -3   0    4.96    0.23
   3   3   0    5.07    0.22
   3   3   0    5.15    0.23
   3   3   0    4.90    0.19
   3   3   0    5.23    0.22
   3   3   0    4.98    0.20
   3   3   0    5.94    0.22
   3   3   0    5.15    0.22
  -4  -3   0    0.43    0.08
   4   3   0    0.34    0.06
   4   3   0    0.42    0.06
  -8   4   0    0.37    0.16
  -7   4   0    0.83    0.17
  -6   4   0   35.66    1.25
  -5   4   0    0.12    0.13
  -5   4   0    0.16    0.15
  -5   4   0    0.38    0.15
  -5   4   0    0.03    0.12
  -4   4   0    2.04    0.21
  -4   4   0    2.08    0.20
  -4   4   0    2.11    0.20
  -4   4   0    2.04    0.18
  -4   4   0    1.94    0.23
  -3   4   0   26.55    0.99
  -3   4   0   25.81    0.87
  -3   4   0   26.43    0.92
  -3   4   0   27.10    0.94
  -3   4   0   26.62    1.00
  -3   4   0   27.30    0.93
  -2   4   0    3.69    0.22
  -2   4   0    3.61    0.25
  -2   4   0    3.46    0.24
  -2   4   0    3.68    0.24
  -2   4   0    3.84    0.24
  -2   4   0    3.73    0.24
  -1   4   0    6.49    0.30
  -1   4   0    6.73    0.27
  -1   4   0    6.41    0.30
  -1   4   0    6.35    0.31
  -1   4   0    6.90    0.31
  -1   4   0    6.73    0.31
   0   4   0    0.31    0.08
   0   4   0    0.33    0.08
   0   4   0    0.32    0.07
   0   4   0    0.25    0.07
   0   4   0    0.31    0.08
   0   4   0    0.26    0.07
  -1  -4   0    5.86    0.32
  -1  -4   0    6.26    0.29
   1   4   0    5.98    0.27
   1   4   0    6.11    0.29
   1   4   0    6.41    0.28
   1   4   0    6.42    0.28
   1   4   0    6.23    0.28
   1   4   0    6.19    0.25
  -2  -4   0    6.48    0.30
  -2  -4   0    6.49    0.34
  -2  -4   0    6.66    0.29
   2   4   0    6.48    0.29
   2   4   0    6.81    0.30
   2   4   0    6.92    0.29
   2   4   0    6.62    0.30
   2   4   0    6.99    0.29
   2   4   0    6.66    0.26
   2   4   0    6.54    0.26
  -3  -4   0   29.84    1.01
  -3  -4   0   29.23    0.98
   3   4   0   29.23    0.92
   3   4   0   28.84    0.97
   3   4   0   29.33    0.97
   3   4   0   29.67    1.05
  -4  -4   0    3.40    0.25
   4   4   0    3.55    0.17
   4   4   0    3.35    0.20
  -8   5   0    1.09    0.20
  -7   5   0    3.64    0.33
  -6   5   0    2.11    0.27
  -5   5   0   77.52    2.78
  -5   5   0   79.18    2.56
  -5   5   0   78.16    2.60
  -4   5   0    0.05    0.12
  -4   5   0    0.05    0.12
  -4   5   0    0.02    0.11
  -4   5   0    0.00    0.12
  -3   5   0    9.79    0.43
  -3   5   0    9.84    0.44
  -3   5   0    9.79    0.40
  -3   5   0    9.94    0.46
  -3   5   0    9.50    0.45
  -3   5   0   10.42    0.45
  -2   5   0    1.57    0.20
  -2   5   0    1.17    0.17
  -2   5   0    1.67    0.19
  -2   5   0    1.40    0.17
  -2   5   0    1.25    0.18
  -2   5   0    1.87    0.21
  -1   5   0    5.11    0.27
  -1   5   0    5.02    0.30
  -1   5   0    5.03    0.30
  -1   5   0    5.09    0.30
  -1   5   0    5.59    0.33
  -1   5   0    5.55    0.32
   0   5   0   60.38    2.13
   0   5   0   60.79    2.01
   0   5   0   62.65    1.99
   0   5   0   61.80    1.88
   0   5   0   59.44    2.15
   0   5   0   60.66    1.99
  -1  -5   0   36.14    1.24
   1   5   0   35.11    1.27
   1   5   0   35.66    1.12
   1   5   0   35.28    1.19
   1   5   0   34.24    1.20
   1   5   0   36.06    1.29
   1   5   0   34.20    1.18
  -2  -5   0    0.12    0.12
  -3  -5   0   13.28    0.53
   3   5   0   11.50    0.43
   3   5   0   11.78    0.47
  -4  -5   0   23.25    0.84
   4   5   0   21.43    0.76
   4   5   0   21.81    0.72
  -7   6   0   11.50    0.56
  -6   6   0    1.67    0.29
  -6   6   0    1.75    0.24
  -5   6   0    3.75    0.30
  -5   6   0    3.33    0.30
  -4   6   0   18.79    0.72
  -4   6   0   17.79    0.73
  -3   6   0    9.40    0.42
  -3   6   0   11.25    0.46
  -3   6   0    9.28    0.48
  -3   6   0    9.24    0.46
  -3   6   0    9.35    0.45
  -2   6   0   17.45    0.67
  -2   6   0   16.85    0.71
  -2   6   0   16.69    0.71
  -2   6   0   18.04    0.69
  -2   6   0   16.68    0.63
  -2   6   0   17.46    0.68
  -1   6   0   -0.06    0.12
  -1   6   0   -0.14    0.11
  -1   6   0   -0.08    0.11
  -1   6   0    0.01    0.11
  -1   6   0   -0.01    0.12
  -1   6   0    0.07    0.11
   0   6   0    4.71    0.26
   0   6   0    4.99    0.29
   0   6   0    5.11    0.30
   0   6   0    4.56    0.29
   0   6   0    5.34    0.30
   0   6   0    5.00    0.31
   1   6   0    1.15    0.20
   1   6   0    1.11    0.14
   1   6   0    1.08    0.16
   1   6   0    0.90    0.14
  -2  -6   0    0.04    0.15
   2   6   0    0.05    0.10
   2   6   0    0.22    0.09
   2   6   0    0.12    0.12
   2   6   0    0.08    0.09
  -3  -6   0   35.24    1.22
   3   6   0   32.88    1.14
   3   6   0   31.74    1.07
  -4  -6   0   10.38    0.50
   4   6   0   10.96    0.44
   4   6   0   10.08    0.41
  -7   7   0    3.13    0.37
  -6   7   0    6.71    0.43
  -6   7   0    7.03    0.44
  -5   7   0   25.73    0.99
  -5   7   0   26.05    0.99
  -4   7   0   31.48    1.17
  -4   7   0   32.22    1.16
  -3   7   0    0.60    0.19
  -3   7   0    0.13    0.17
  -3   7   0   -0.02    0.16
  -2   7   0    5.50    0.38
  -2   7   0    5.91    0.39
  -2   7   0    6.30    0.41
  -1   7   0    3.97    0.34
  -1   7   0    4.76    0.34
  -1   7   0    4.98    0.36
   0   7   0    3.60    0.31
   0   7   0    3.11    0.30
   0   7   0    2.90    0.30
   1   7   0   17.72    0.69
   1   7   0   16.59    0.73
   1   7   0   17.59    0.70
   2   7   0   46.09    1.66
   2   7   0   44.04    1.53
   2   7   0   45.71    1.52
   3   7   0    1.69    0.24
  -4  -7   0    2.38    0.31
   4   7   0    2.74    0.25
  -6   8   0    0.04    0.21
  -5   8   0    8.89    0.50
  -5   8   0    9.09    0.50
  -4   8   0    7.22    0.45
  -4   8   0    6.67    0.45
  -3   8   0    2.55    0.30
  -3   8   0    2.46    0.30
  -3   8   0    2.59    0.31
  -2   8   0    8.08    0.46
  -2   8   0    9.36    0.48
  -2   8   0    8.52    0.46
  -1   8   0    3.68    0.33
  -1   8   0    3.78    0.32
  -1   8   0    3.67    0.33
   0   8   0    2.15    0.28
   0   8   0    2.23    0.29
   1   8   0    0.59    0.17
   1   8   0    0.65    0.17
   2   8   0    0.88    0.17
   3   8   0   29.08    1.04
   4   8   0    0.05    0.15
  -5   9   0    4.41    0.42
  -5   9   0    4.13    0.40
  -4   9   0   23.43    0.95
  -4   9   0   23.76    0.95
  -3   9   0    8.71    0.50
  -3   9   0    9.02    0.50
  -3   9   0    9.37    0.52
  -2   9   0   -0.37    0.19
  -2   9   0    0.01    0.19
  -1   9   0    6.63    0.41
  -1   9   0    5.71    0.42
   0   9   0   -0.35    0.18
   1   9   0    2.22    0.33
   1   9   0    2.74    0.33
   2   9   0   31.26    1.16
   3   9   0    0.10    0.17
   4   9   0    0.41    0.17
  -3  10   0   -0.01    0.23
  -3  10   0   -0.27    0.21
  -3  10   0   -0.27    0.20
  -2  10   0    0.75    0.22
  -2  10   0    0.68    0.22
  -1  10   0    0.46    0.20
  -1  10   0    0.52    0.22
   0  10   0    3.44    0.35
   0  10   0    3.58    0.35
   1  10   0   -0.18    0.18
   1  10   0    0.00    0.17
   2  10   0   -0.19    0.18
   3  10   0   10.80    0.58
   2  10  -1    0.86    0.26
   1  10  -1    1.76    0.27
   1  10  -1    1.80    0.31
   0  10  -1    0.08    0.20
   0  10  -1    0.38    0.20
  -1  10  -1    0.41    0.20
  -1  10  -1    0.49    0.22
  -2  10  -1    1.01    0.25
  -2  10  -1    0.83    0.23
  -3  10  -1    2.69    0.36
  -3  10  -1    2.67    0.37
   4   9  -1    0.40    0.20
   3   9  -1    0.25    0.15
   2   9  -1   31.99    1.17
   1   9  -1    2.57    0.35
   1   9  -1    2.76    0.34
   0   9  -1    1.54    0.25
   0   9  -1    1.18    0.24
  -1   9  -1    0.84    0.24
  -1   9  -1    0.78    0.23
  -2   9  -1    0.21    0.19
  -2   9  -1    0.36    0.21
  -2   9  -1    0.08    0.21
  -3   9  -1    1.80    0.31
  -3   9  -1    1.88    0.33
  -3   9  -1    2.21    0.32
  -4   9  -1    6.14    0.43
  -4   9  -1    5.87    0.43
  -5   9  -1    4.54    0.43
  -5   9  -1    4.17    0.42
   4   8  -1    0.46    0.15
  -4  -8   1    0.49    0.22
   3   8  -1    8.75    0.43
  -3  -8   1    8.30    0.50
   2   8  -1    0.11    0.14
  -2  -8   1    0.25    0.21
   1   8  -1    5.51    0.38
   1   8  -1    5.96    0.36
   0   8  -1    8.67    0.45
   0   8  -1    8.55    0.45
  -1   8  -1    0.66    0.17
  -1   8  -1    0.45    0.17
  -1   8  -1    0.38    0.18
  -2   8  -1    0.08    0.18
  -2   8  -1    0.43    0.20
  -2   8  -1    0.21    0.17
  -3   8  -1    0.02    0.16
  -3   8  -1   -0.02    0.17
  -3   8  -1   -0.07    0.17
  -4   8  -1    2.95    0.35
  -4   8  -1    3.00    0.35
  -5   8  -1    1.65    0.25
  -5   8  -1    1.59    0.25
  -6   8  -1   -0.07    0.20
  -6   8  -1    0.48    0.22
   4   7  -1    8.60    0.42
  -4  -7   1   10.18    0.54
   3   7  -1    4.76    0.32
  -3  -7   1    4.88    0.37
   2   7  -1    7.42    0.39
   2   7  -1    7.62    0.39
  -2  -7   1    7.26    0.45
   1   7  -1  109.89    3.56
   1   7  -1  112.44    3.86
   1   7  -1  108.24    3.55
  -1  -7   1  109.77    3.65
   0   7  -1    0.27    0.15
   0   7  -1    0.47    0.19
  -1   7  -1    1.73    0.27
  -1   7  -1    1.50    0.23
  -1   7  -1    1.36    0.23
  -2   7  -1    9.48    0.47
  -2   7  -1    9.44    0.48
  -2   7  -1    9.08    0.47
  -3   7  -1   29.52    1.07
  -3   7  -1   28.92    1.07
  -3   7  -1   28.67    1.08
  -4   7  -1    0.85    0.20
  -4   7  -1    0.78    0.20
  -4   7  -1    0.95    0.19
  -5   7  -1    4.50    0.36
  -5   7  -1    5.62    0.39
  -6   7  -1    3.74    0.35
  -6   7  -1    3.53    0.34
  -7   7  -1   -0.07    0.19
   4   6  -1   11.19    0.46
  -4  -6   1   10.96    0.52
   3   6  -1    5.24    0.27
  -3  -6   1    5.33    0.38
   2   6  -1   37.17    1.28
   2   6  -1   37.04    1.27
   2   6  -1   37.22    1.21
   2   6  -1   37.70    1.38
  -2  -6   1   37.00    1.35
  -2  -6   1   39.90    1.32
   1   6  -1   39.27    1.31
   1   6  -1   39.44    1.33
   1   6  -1   38.33    1.42
   1   6  -1   38.49    1.25
  -1  -6   1   38.63    1.33
  -1  -6   1   38.77    1.38
   0   6  -1    4.32    0.28
   0   6  -1    3.72    0.29
   0   6  -1    3.85    0.28
   0   6  -1    4.56    0.30
   0   6  -1    4.83    0.31
   0   6  -1    4.27    0.26
   0  -6   1    4.13    0.29
   0  -6   1    4.46    0.38
  -1   6  -1    7.93    0.41
  -1   6  -1    8.27    0.39
  -1   6  -1    8.29    0.36
  -1   6  -1    7.90    0.40
  -1   6  -1    7.75    0.38
  -1   6  -1    7.97    0.41
  -2   6  -1    3.90    0.25
  -2   6  -1    4.06    0.29
  -2   6  -1    3.87    0.28
  -2   6  -1    3.87    0.29
  -2   6  -1    3.97    0.28
  -2   6  -1    3.73    0.27
  -3   6  -1   13.87    0.55
  -3   6  -1   14.05    0.59
  -3   6  -1   14.02    0.57
  -3   6  -1   14.15    0.58
  -3   6  -1   13.33    0.62
  -4   6  -1    6.58    0.39
  -4   6  -1    6.83    0.42
  -4   6  -1    7.01    0.39
  -5   6  -1    0.15    0.16
  -5   6  -1    0.23    0.16
  -6   6  -1    2.60    0.28
  -6   6  -1    2.06    0.33
  -7   6  -1    1.06    0.22
  -8   6  -1    5.06    0.40
   4   5  -1   13.86    0.49
   4   5  -1   13.51    0.55
  -4  -5   1   14.04    0.58
   3   5  -1    0.04    0.08
   3   5  -1   -0.03    0.09
  -3  -5   1   -0.09    0.15
   2   5  -1   21.00    0.73
   2   5  -1   20.08    0.78
   2   5  -1   20.38    0.68
   2   5  -1   19.52    0.72
  -2  -5   1   20.68    0.74
  -2  -5   1   21.20    0.78
   1   5  -1  195.50    6.44
   1   5  -1  207.11    6.83
   1   5  -1  196.47    6.37
   1   5  -1  203.26    6.04
   1   5  -1  200.50    6.37
   1   5  -1  201.76    6.92
  -1  -5   1  203.46    6.49
  -1  -5   1  202.47    6.38
  -1  -5   1  203.08    6.37
   0   5  -1  121.00    4.23
   0   5  -1  125.89    3.75
   0   5  -1  124.44    4.00
   0   5  -1  121.27    3.95
   0   5  -1  126.17    3.95
   0   5  -1  124.74    4.29
   0  -5   1  123.44    3.96
   0  -5   1  116.66    4.02
   0  -5   1  130.14    3.95
  -1   5  -1    4.40    0.30
  -1   5  -1    4.55    0.25
  -1   5  -1    4.46    0.30
  -1   5  -1    4.28    0.30
  -1   5  -1    4.17    0.27
  -1   5  -1    4.31    0.28
   1  -5   1    4.54    0.29
   1  -5   1    4.49    0.35
  -2   5  -1    3.47    0.23
  -2   5  -1    3.80    0.27
  -2   5  -1    2.37    0.26
  -2   5  -1    3.17    0.27
  -2   5  -1    3.01    0.25
  -2   5  -1    2.70    0.25
  -3   5  -1    0.07    0.11
  -3   5  -1    0.02    0.11
  -3   5  -1   -0.04    0.10
  -3   5  -1   -0.02    0.10
  -3   5  -1    0.24    0.12
  -3   5  -1   -0.04    0.10
  -4   5  -1    0.03    0.11
  -4   5  -1   -0.11    0.10
  -4   5  -1   -0.21    0.12
  -4   5  -1   -0.14    0.11
  -4   5  -1    0.15    0.12
  -4   5  -1   -0.07    0.12
  -5   5  -1    0.10    0.14
  -5   5  -1    0.19    0.14
  -5   5  -1   -0.24    0.16
  -6   5  -1    0.07    0.15
  -6   5  -1   -0.05    0.14
  -7   5  -1    3.38    0.34
  -8   5  -1    0.86    0.20
   4   4  -1   10.70    0.38
   4   4  -1   10.40    0.40
  -4  -4   1   10.29    0.47
  -4  -4   1   11.41    0.46
   3   4  -1    0.79    0.15
   3   4  -1    0.87    0.11
  -3  -4   1    0.93    0.17
   2   4  -1    8.20    0.34
   2   4  -1    8.38    0.36
   2   4  -1    8.36    0.39
   2   4  -1    9.70    0.38
   2   4  -1    9.22    0.38
  -2  -4   1   10.26    0.40
  -2  -4   1    9.75    0.42
  -2  -4   1    8.97    0.43
   1   4  -1  369.43   12.65
   1   4  -1  368.86   11.72
   1   4  -1  357.44   12.80
   1   4  -1  369.19   11.64
   1   4  -1  358.36   11.61
   1   4  -1  359.14   11.02
  -1  -4   1  366.39   11.54
  -1  -4   1  375.46   11.54
  -1  -4   1  375.85   11.70
   0   4  -1  128.31    3.83
   0   4  -1  130.01    4.33
   0   4  -1  125.29    4.09
   0   4  -1  130.63    4.38
   0   4  -1  123.10    4.04
   0   4  -1  125.39    4.03
   0  -4   1  125.08    4.04
   0  -4   1  127.91    4.12
   0  -4   1  128.98    4.03
  -1   4  -1   83.00    2.75
  -1   4  -1   83.45    2.76
  -1   4  -1   84.94    2.96
  -1   4  -1   87.54    3.00
  -1   4  -1   91.83    2.62
  -1   4  -1   84.31    2.79
   1  -4   1   87.64    2.77
   1  -4   1   86.47    2.76
   1  -4   1   85.43    2.82
  -2   4  -1    8.03    0.37
  -2   4  -1    8.27    0.35
  -2   4  -1    8.15    0.35
  -2   4  -1    7.96    0.32
  -2   4  -1    7.86    0.37
  -2   4  -1    8.19    0.35
   2  -4   1    7.34    0.37
   2  -4   1    9.27    0.39
  -3   4  -1    5.02    0.26
  -3   4  -1    4.78    0.28
  -3   4  -1    4.78    0.29
  -3   4  -1    4.97    0.29
  -3   4  -1    5.00    0.29
  -3   4  -1    4.96    0.28
  -4   4  -1   -0.13    0.10
  -4   4  -1   -0.10    0.11
  -4   4  -1   -0.06    0.10
  -4   4  -1   -0.14    0.10
  -4   4  -1   -0.02    0.10
  -4   4  -1   -0.05    0.10
  -5   4  -1    4.05    0.28
  -5   4  -1    5.21    0.30
  -5   4  -1    4.15    0.29
  -5   4  -1    4.35    0.29
  -6   4  -1    7.55    0.39
  -7   4  -1    1.93    0.24
  -8   4  -1    3.82    0.30
   4   3  -1   13.83    0.49
   4   3  -1   13.28    0.46
  -4  -3   1   15.12    0.53
  -4  -3   1   13.43    0.55
   3   3  -1   25.02    0.83
   3   3  -1   25.41    0.90
   3   3  -1   25.59    0.84
   3   3  -1   25.02    0.79
  -3  -3   1   24.72    0.88
  -3  -3   1   26.23    0.93
  -3  -3   1   24.19    0.92
  -3  -3   1   25.35    0.84
   2   3  -1    6.20    0.24
   2   3  -1    6.04    0.26
   2   3  -1    6.71    0.26
   2   3  -1    6.52    0.28
   2   3  -1    6.70    0.28
   2   3  -1    6.76    0.26
  -2  -3   1    6.68    0.29
  -2  -3   1    6.86    0.29
  -2  -3   1    6.71    0.25
  -2  -3   1    6.19    0.31
  -2  -3   1    6.65    0.31
  -2  -3   1    7.11    0.30
   1   3  -1   35.37    1.16
   1   3  -1   34.56    1.10
   1   3  -1   34.65    1.17
   1   3  -1   35.73    1.16
   1   3  -1   36.31    1.11
   1   3  -1   35.30    1.26
   1   3  -1   36.91    1.25
  -1  -3   1   34.93    1.16
  -1  -3   1   37.12    1.28
  -1  -3   1   34.95    1.17
  -1  -3   1   37.06    1.25
  -1  -3   1   34.74    1.20
  -1  -3   1   38.00    1.11
  -1  -3   1   34.34    1.27
   0   3  -1  124.22    4.19
   0   3  -1  122.54    3.87
   0   3  -1  121.01    3.90
   0   3  -1  115.99    3.85
   0   3  -1  123.22    3.67
   0   3  -1  126.15    4.14
   0  -3   1  123.78    3.85
   0  -3   1  121.38    3.86
   0  -3   1  118.92    3.92
  -1   3  -1    0.72    0.11
  -1   3  -1    0.83    0.10
  -1   3  -1    0.86    0.10
  -1   3  -1    0.87    0.11
  -1   3  -1    0.94    0.10
  -1   3  -1    0.75    0.12
   1  -3   1    0.95    0.13
   1  -3   1    0.62    0.10
   1  -3   1    0.71    0.12
  -2   3  -1   16.70    0.62
  -2   3  -1   15.74    0.57
  -2   3  -1   16.37    0.59
  -2   3  -1   15.64    0.58
  -2   3  -1   16.52    0.55
  -2   3  -1   16.72    0.62
   2  -3   1   16.21    0.57
   2  -3   1   16.74    0.59
  -3   3  -1  152.60    4.50
  -3   3  -1  154.92    5.15
  -3   3  -1  148.20    5.09
  -3   3  -1  145.00    4.74
  -3   3  -1  149.52    4.74
  -3   3  -1  149.11    4.80
  -4   3  -1    3.23    0.22
  -4   3  -1    2.46    0.24
  -4   3  -1    2.98    0.20
  -4   3  -1    2.85    0.23
  -4   3  -1    2.95    0.24
  -4   3  -1    3.18    0.22
  -5   3  -1    3.20    0.24
  -5   3  -1    3.19    0.24
  -5   3  -1    3.55    0.25
  -5   3  -1    3.33    0.25
  -6   3  -1    6.99    0.40
  -6   3  -1    9.67    0.42
  -7   3  -1   -0.12    0.12
   4   2  -1    8.26    0.33
   4   2  -1    8.27    0.29
  -4  -2   1    8.79    0.36
  -4  -2   1    9.35    0.35
   3   2  -1   15.84    0.53
   3   2  -1   16.26    0.56
   3   2  -1   16.61    0.56
   3   2  -1   16.35    0.53
   3   2  -1   16.99    0.60
   3   2  -1   16.76    0.61
  -3  -2   1   17.26    0.62
  -3  -2   1   17.50    0.53
  -3  -2   1   17.10    0.62
  -3  -2   1   15.91    0.61
  -3  -2   1   16.48    0.57
  -3  -2   1   16.63    0.61
  -3  -2   1   17.15    0.58
   2   2  -1   54.44    1.86
   2   2  -1   52.27    1.73
   2   2  -1   52.85    1.88
   2   2  -1   54.60    1.65
   2   2  -1   53.78    1.64
   2   2  -1   53.25    1.73
   2   2  -1   55.67    1.89
  -2  -2   1   54.30    1.88
  -2  -2   1   54.48    1.77
  -2  -2   1   53.89    1.74
  -2  -2   1   55.18    1.65
  -2  -2   1   55.37    1.89
  -2  -2   1   55.95    1.88
  -2  -2   1   56.92    1.86
   1   2  -1  434.38   14.55
   1   2  -1  415.29   13.35
   1   2  -1  418.87   12.68
   1   2  -1  400.47   13.36
   1   2  -1  416.26   14.34
   1   2  -1  413.86   12.68
   1   2  -1  435.79   14.53
  -1  -2   1  409.09   13.36
  -1  -2   1  435.61   14.56
  -1  -2   1  405.45   13.54
  -1  -2   1  441.26   12.68
  -1  -2   1  436.48   14.53
  -1  -2   1  434.18   14.38
  -1  -2   1  432.42   14.35
   0   2  -1  440.01   14.43
   0   2  -1  410.92   13.42
   0   2  -1  402.66   14.24
   0   2  -1  419.62   12.58
   0   2  -1  392.01   13.25
   0   2  -1  421.13   14.24
   0   2  -1  382.67   13.26
   0   2  -1  436.60   14.43
   0   2  -1  439.48   12.60
   0  -2   1  402.66   12.57
   0  -2   1  416.01   13.25
   0  -2   1  428.37   14.41
   0  -2   1  428.98   14.26
   0  -2   1  457.50   14.45
   0  -2   1  408.65   13.45
   0  -2   1  403.30   13.26
   0  -2   1  423.89   12.60
   0  -2   1  443.50   14.28
  -1   2  -1    1.31    0.23
  -1   2  -1    1.68    0.14
  -1   2  -1    1.33    0.13
  -1   2  -1    1.51    0.13
  -1   2  -1    2.01    0.13
  -1   2  -1    2.09    0.14
  -1   2  -1    1.81    0.14
  -1   2  -1    1.96    0.13
   1  -2   1    1.66    0.12
   1  -2   1    1.63    0.11
   1  -2   1    1.57    0.10
  -2   2  -1    0.47    0.11
   2  -2   1    0.46    0.10
   2  -2   1    0.69    0.11
   2  -2   1    0.80    0.10
  -3   2  -1    1.59    0.13
  -3   2  -1    1.57    0.14
  -3   2  -1    1.64    0.14
  -3   2  -1    1.59    0.14
  -3   2  -1    1.67    0.15
  -3   2  -1    1.61    0.12
   3  -2   1    1.41    0.13
   3  -2   1    1.64    0.11
  -4   2  -1    0.14    0.08
  -4   2  -1    0.03    0.08
  -4   2  -1    0.14    0.09
  -4   2  -1    0.19    0.08
  -4   2  -1    0.04    0.08
  -5   2  -1    5.38    0.31
  -5   2  -1    5.79    0.28
  -5   2  -1    5.76    0.30
  -5   2  -1    5.36    0.29
  -6   2  -1    4.35    0.26
  -6   2  -1    4.53    0.26
  -7   2  -1   37.22    1.27
   5   1  -1    4.73    0.19
   5   1  -1    4.71    0.22
  -5  -1   1    4.31    0.24
  -5  -1   1    4.56    0.23
   4   1  -1   32.48    1.07
   4   1  -1   31.40    1.01
   4   1  -1   32.59    1.16
  -4  -1   1   33.26    1.09
  -4  -1   1   34.73    1.16
  -4  -1   1   34.30    1.17
   3   1  -1    8.41    0.30
   3   1  -1    7.75    0.28
   3   1  -1    8.26    0.32
   3   1  -1    8.72    0.33
   3   1  -1    8.09    0.30
   3   1  -1    8.65    0.29
   3   1  -1    7.94    0.31
  -3  -1   1    7.91    0.31
  -3  -1   1    8.13    0.32
  -3  -1   1    8.33    0.33
  -3  -1   1    9.09    0.33
  -3  -1   1    8.62    0.33
  -3  -1   1    8.61    0.31
  -3  -1   1    8.72    0.28
   2   1  -1    0.55    0.09
  -2  -1   1    0.37    0.06
  -2  -1   1    0.23    0.06
  -2  -1   1    0.33    0.05
  -2  -1   1    0.17    0.06
   1   1  -1  236.95    7.89
   1   1  -1  229.08    8.00
   1   1  -1  237.47    8.00
   1   1  -1  225.41    7.89
   1   1  -1  223.87    7.35
   1   1  -1  226.86    6.98
   1   1  -1  228.10    6.98
  -1  -1   1  224.56    7.46
  -1  -1   1  234.27    7.92
  -1  -1   1  233.60    7.91
  -1  -1   1  238.32    6.99
  -1  -1   1  236.96    6.98
  -1  -1   1  244.73    8.01
  -1  -1   1  238.09    8.01
   0   1  -1    3.46    0.15
   0   1  -1    3.36    0.13
   0   1  -1    3.57    0.15
   0   1  -1    3.40    0.13
   0   1  -1    3.41    0.15
   0   1  -1    3.49    0.14
   0  -1   1    3.55    0.14
   0  -1   1    3.27    0.12
   0  -1   1    3.54    0.15
   0  -1   1    3.46    0.16
   0  -1   1    3.46    0.14
   0  -1   1    3.67    0.13
  -1   1  -1   98.12    2.96
  -1   1  -1   96.77    3.37
  -1   1  -1   99.17    3.37
  -1   1  -1   96.29    3.35
  -1   1  -1   94.96    2.94
  -1   1  -1  103.27    3.33
   1  -1   1  104.13    3.34
   1  -1   1   98.89    2.96
   1  -1   1   95.26    3.37
   1  -1   1   95.41    3.39
   1  -1   1   97.51    2.96
   1  -1   1   97.55    3.35
  -2   1  -1    0.84    0.08
  -2   1  -1    0.72    0.07
  -2   1  -1    0.64    0.08
  -2   1  -1    0.76    0.07
  -2   1  -1    0.71    0.10
  -2   1  -1    0.83    0.12
  -2   1  -1    0.85    0.08
  -2   1  -1    0.72    0.08
   2  -1   1    0.67    0.09
   2  -1   1    0.76    0.07
   2  -1   1    0.74    0.07
   2  -1   1    0.75    0.11
   2  -1   1    0.75    0.07
  -3   1  -1   88.65    2.82
  -3   1  -1   78.78    2.59
  -3   1  -1   83.29    2.81
  -3   1  -1   78.70    2.62
  -3   1  -1   82.60    2.45
  -3   1  -1   81.65    2.78
   3  -1   1   79.39    2.59
   3  -1   1   82.08    2.45
   3  -1   1   81.96    2.81
  -4   1  -1   12.22    0.44
  -4   1  -1   11.86    0.43
  -4   1  -1   12.09    0.41
  -4   1  -1   12.24    0.47
  -4   1  -1   12.60    0.46
   4  -1   1   12.64    0.46
   4  -1   1   12.46    0.41
  -5   1  -1    0.01    0.08
  -5   1  -1    0.23    0.08
  -6   1  -1    2.09    0.16
  -6   1  -1    2.40    0.18
   5   0  -1  103.53    3.23
  -5   0   1  111.60    3.46
  -5   0   1  108.23    3.67
   4   0  -1   63.30    1.97
   4   0  -1   66.02    2.08
   4   0  -1   66.43    2.27
  -4   0   1   61.86    2.08
  -4   0   1   66.96    2.24
  -4   0   1   66.52    2.12
  -4   0   1   67.16    2.27
   3   0  -1    5.30    0.22
   3   0  -1    5.71    0.21
   3   0  -1    5.31    0.22
   3   0  -1    5.31    0.23
   3   0  -1    5.98    0.23
   3   0  -1    5.08    0.19
  -3   0   1    5.22    0.23
  -3   0   1    4.77    0.22
  -3   0   1    5.25    0.22
  -3   0   1    4.78    0.22
  -3   0   1    5.14    0.20
   2   0  -1   24.95    0.92
   2   0  -1   26.96    0.93
   2   0  -1   26.43    0.81
   2   0  -1   26.30    0.92
   2   0  -1   26.43    0.81
   2   0  -1   24.91    0.86
   2   0  -1   26.26    0.93
  -2   0   1   25.93    0.81
  -2   0   1   26.53    0.87
  -2   0   1   24.89    0.93
  -2   0   1   26.12    0.93
  -2   0   1   25.59    0.81
  -2   0   1   26.32    0.92
  -2   0   1   27.98    0.86
  -2   0   1   30.00    0.94
   1   0  -1    9.17    0.30
   1   0  -1    9.58    0.35
   1   0  -1    9.07    0.35
   1   0  -1    9.69    0.34
   1   0  -1    9.57    0.30
   1   0  -1    9.20    0.34
  -1   0   1    9.11    0.30
  -1   0   1    9.85    0.34
  -1   0   1    9.21    0.30
  -1   0   1    9.50    0.35
  -1   0   1    9.20    0.35
  -1   0   1    9.58    0.34
   0   0  -1   44.62    1.54
   0   0  -1   45.87    1.56
   0   0  -1   43.39    1.37
   0   0  -1   46.34    1.57
   0   0  -1   46.86    1.36
   0   0   1   44.11    1.56
   0   0   1   47.16    1.57
   0   0   1   42.81    1.57
   0   0   1   46.50    1.38
   0   0   1   46.30    1.38
   0   0   1   46.65    1.55
  -1   0  -1    1.25    0.06
  -1   0  -1    1.27    0.06
  -1   0  -1    1.27    0.05
  -1   0  -1    1.23    0.05
  -1   0  -1    1.27    0.06
  -1   0  -1    1.22    0.06
   1   0   1    1.26    0.07
   1   0   1    1.22    0.05
   1   0   1    1.31    0.06
   1   0   1    1.24    0.06
   1   0   1    1.26    0.05
   1   0   1    1.24    0.06
  -2   0  -1  421.90   14.59
  -2   0  -1  441.78   14.61
  -2   0  -1  423.11   12.89
  -2   0  -1  439.64   12.89
  -2   0  -1  436.45   14.77
  -2   0  -1  447.06   14.78
   2   0   1  424.82   14.58
   2   0   1  438.19   12.90
   2   0   1  428.10   14.76
  -3   0  -1    1.56    0.09
  -3   0  -1    1.91    0.08
  -3   0  -1    1.56    0.09
  -3   0  -1    1.83    0.11
  -3   0  -1    1.48    0.09
   3   0   1    1.53    0.09
   3   0   1    1.48    0.08
  -4   0  -1   38.35    1.26
   4   0   1   35.29    1.25
   4   0   1   35.42    1.10
  -6   1   1   11.86    0.49
  -6   1   1   12.71    0.50
   5  -1  -1    2.93    0.18
  -5   1   1    3.22    0.22
  -5   1   1    2.93    0.21
   4  -1  -1    5.70    0.27
   4  -1  -1    4.70    0.22
  -4   1   1    4.86    0.26
  -4   1   1    5.17    0.25
  -4   1   1    5.96    0.28
  -4   1   1    4.58    0.24
   3  -1  -1   66.82    2.06
   3  -1  -1   67.14    2.33
   3  -1  -1   70.50    2.07
   3  -1  -1   70.76    2.37
  -3   1   1   68.00    2.06
  -3   1   1   65.13    2.17
  -3   1   1   69.69    2.34
  -3   1   1   66.89    2.20
  -3   1   1   69.41    2.36
   2  -1  -1    0.99    0.13
   1  -1  -1  194.43    6.68
   1  -1  -1  195.24    5.85
   1  -1  -1  191.97    6.60
  -1   1   1  188.10    6.23
  -1   1   1  195.84    6.71
  -1   1   1  200.52    6.62
  -1   1   1  188.60    6.15
  -1   1   1  198.40    5.86
   0  -1  -1   26.32    0.81
   0  -1  -1   26.50    0.93
   0   1   1   26.86    0.81
   0   1   1   27.14    0.93
   0   1   1   27.10    0.92
  -1  -1  -1   44.83    1.53
  -1  -1  -1   44.55    1.55
  -1  -1  -1   44.28    1.35
  -1  -1  -1   45.65    1.35
  -1  -1  -1   46.13    1.55
   1   1   1   44.34    1.35
   1   1   1   44.95    1.55
   1   1   1   46.20    1.53
   6  -2  -1   90.12    2.71
  -6   2   1   87.19    2.90
  -6   2   1   89.82    3.08
   5  -2  -1   91.23    2.74
  -5   2   1   87.60    3.11
  -5   2   1   92.27    2.94
  -4   2   1    7.32    0.34
  -4   2   1    8.30    0.36
  -4   2   1    8.03    0.35
  -4   2   1    7.90    0.35
   3  -2  -1    8.22    0.31
  -3   2   1    7.61    0.32
  -3   2   1    7.85    0.33
  -3   2   1    8.12    0.34
  -3   2   1    7.47    0.32
  -3   2   1    8.11    0.30
  -3   2   1    8.08    0.34
   2  -2  -1  103.50    3.06
  -2   2   1  104.84    3.06
  -2   2   1  102.28    3.50
  -2   2   1  101.97    3.46
  -2   2   1   97.49    3.22
  -2   2   1  102.20    3.22
  -2   2   1   99.34    3.26
   1  -2  -1    0.07    0.05
   1  -2  -1    0.04    0.05
  -1   2   1    0.13    0.07
  -1   2   1   -0.01    0.07
  -1   2   1    0.13    0.07
  -1   2   1   -0.06    0.07
  -1   2   1   -0.03    0.07
  -1   2   1    0.05    0.07
   0  -2  -1    7.86    0.27
   0  -2  -1    8.27    0.31
   0  -2  -1    7.74    0.31
   0   2   1    7.94    0.31
   0   2   1    7.78    0.27
   0   2   1    7.50    0.29
   0   2   1    7.43    0.29
   0   2   1    7.56    0.28
   0   2   1    8.31    0.31
  -1  -2  -1  196.53    6.63
  -1  -2  -1  194.43    5.88
  -1  -2  -1  196.22    6.73
   1   2   1  196.87    5.89
   1   2   1  196.81    6.75
   1   2   1  191.84    6.20
   1   2   1  199.70    6.65
  -2  -2  -1  295.43   10.02
  -2  -2  -1  291.85   10.33
  -2  -2  -1  286.72    8.74
   2   2   1  300.37    9.90
   2   2   1  285.44    9.23
   2   2   1  298.78    8.76
   2   2   1  296.08   10.02
  -7   3   1    0.25    0.13
  -6   3   1   27.01    0.97
  -5   3   1  110.91    3.86
  -5   3   1  110.49    3.60
  -5   3   1  110.14    3.82
  -5   3   1  112.81    3.56
  -4   3   1   14.87    0.56
  -4   3   1   14.97    0.60
  -4   3   1   14.91    0.61
  -4   3   1   15.06    0.57
  -3   3   1    4.96    0.27
  -3   3   1    4.72    0.26
  -3   3   1    5.17    0.24
  -3   3   1    4.79    0.25
  -3   3   1    5.04    0.27
  -3   3   1    4.59    0.26
  -2   3   1    2.04    0.14
  -2   3   1    1.92    0.17
  -2   3   1    2.14    0.16
  -2   3   1    2.30    0.18
  -2   3   1    2.04    0.16
  -2   3   1    1.91    0.17
  -1   3   1    5.97    0.27
  -1   3   1    5.95    0.27
  -1   3   1    5.94    0.27
  -1   3   1    5.98    0.27
  -1   3   1    6.01    0.24
  -1   3   1    5.86    0.27
   0   3   1    9.70    0.41
   0   3   1   10.50    0.41
   0   3   1   10.63    0.41
   0   3   1   10.58    0.37
   0   3   1   10.37    0.41
   0   3   1    9.75    0.39
  -1  -3  -1    1.21    0.14
   1   3   1    1.64    0.13
   1   3   1    1.51    0.14
   1   3   1    1.73    0.15
   1   3   1    1.64    0.12
  -2  -3  -1   42.96    1.47
  -2  -3  -1   43.63    1.48
   2   3   1   44.07    1.47
   2   3   1   42.71    1.49
   2   3   1   40.80    1.37
   2   3   1   42.91    1.30
   2   3   1   41.66    1.37
  -3  -3  -1    4.54    0.24
  -3  -3  -1    5.01    0.20
  -3  -3  -1    4.37    0.19
   3   3   1    4.41    0.20
   3   3   1    4.53    0.19
   3   3   1    4.22    0.18
   3   3   1    4.41    0.18
   3   3   1    4.51    0.20
   3   3   1    4.78    0.22
   4   3   1   70.77    2.24
  -8   4   1    0.23    0.15
  -7   4   1    0.86    0.19
  -6   4   1    0.30    0.15
  -5   4   1   28.79    1.05
  -5   4   1   29.93    1.05
  -5   4   1   29.19    1.12
  -4   4   1    0.12    0.14
  -4   4   1    0.30    0.14
  -4   4   1    0.56    0.14
  -4   4   1    0.81    0.16
  -3   4   1   29.54    1.03
  -3   4   1   29.15    1.02
  -3   4   1   29.40    0.96
  -3   4   1   29.16    1.10
  -3   4   1   29.29    1.09
  -3   4   1   29.48    1.02
  -2   4   1   47.95    1.70
  -2   4   1   46.80    1.58
  -2   4   1   47.67    1.49
  -2   4   1   47.25    1.57
  -2   4   1   47.88    1.59
  -2   4   1   48.79    1.69
  -1   4   1    0.71    0.12
  -1   4   1    0.58    0.10
  -1   4   1    0.70    0.13
  -1   4   1    0.78    0.10
  -1   4   1    0.66    0.10
  -1   4   1    0.52    0.11
   0   4   1   56.33    1.88
   0   4   1   57.23    1.89
   0   4   1   60.66    2.03
   0   4   1   56.72    1.91
   0   4   1   59.58    1.79
   0   4   1   59.85    2.05
   1   4   1   64.88    2.11
   1   4   1   66.33    2.01
   1   4   1   63.75    2.14
   1   4   1   66.99    2.30
   1   4   1   65.19    2.12
   1   4   1   68.47    2.27
  -2  -4  -1    1.74    0.14
   2   4   1    1.85    0.15
   2   4   1    1.67    0.16
   2   4   1    1.85    0.17
   2   4   1    1.70    0.13
   2   4   1    1.92    0.16
   3   4   1    2.42    0.18
   3   4   1    2.76    0.17
   3   4   1    2.76    0.17
   3   4   1    2.56    0.15
  -4  -4  -1    0.15    0.09
   4   4   1   -0.10    0.08
   4   4   1    0.11    0.08
  -7   5   1    1.63    0.26
  -6   5   1   13.43    0.58
  -5   5   1  126.57    4.00
  -5   5   1  121.63    4.05
  -4   5   1    5.54    0.35
  -4   5   1    6.62    0.38
  -4   5   1    5.98    0.36
  -3   5   1    0.68    0.15
  -3   5   1    0.62    0.15
  -3   5   1    0.79    0.15
  -3   5   1    0.92    0.15
  -3   5   1    0.62    0.14
  -2   5   1    1.34    0.22
  -2   5   1    1.39    0.22
  -2   5   1    1.37    0.22
  -2   5   1    1.60    0.22
  -2   5   1    1.55    0.20
  -2   5   1    1.46    0.17
  -1   5   1    4.69    0.29
  -1   5   1    4.51    0.29
  -1   5   1    4.41    0.29
  -1   5   1    4.74    0.30
  -1   5   1    4.94    0.26
  -1   5   1    4.75    0.30
   0   5   1   55.25    1.98
   0   5   1   56.30    1.85
   0   5   1   55.44    1.83
   0   5   1   56.08    1.82
   0   5   1   55.29    1.96
   0   5   1   56.02    1.73
   1   5   1   37.68    1.28
   1   5   1   38.13    1.20
   1   5   1   39.45    1.28
   1   5   1   37.05    1.26
   1   5   1   37.70    1.36
   1   5   1   38.05    1.37
   2   5   1    0.85    0.13
   2   5   1    1.35    0.19
   2   5   1    1.21    0.22
   2   5   1    0.97    0.12
   3   5   1    4.17    0.22
   3   5   1    4.48    0.25
   3   5   1    4.12    0.26
   4   5   1   15.69    0.56
   4   5   1   15.37    0.53
  -7   6   1    0.01    0.16
  -6   6   1   12.54    0.59
  -5   6   1    0.74    0.19
  -5   6   1    0.78    0.18
  -4   6   1    5.15    0.35
  -4   6   1    5.13    0.35
  -3   6   1    2.31    0.29
  -3   6   1    2.65    0.29
  -2   6   1    7.82    0.40
  -2   6   1    7.83    0.40
  -2   6   1    7.32    0.34
  -2   6   1    7.09    0.38
  -2   6   1    7.65    0.39
  -2   6   1    7.46    0.39
  -1   6   1    2.96    0.26
  -1   6   1    2.63    0.24
  -1   6   1    2.44    0.22
  -1   6   1    2.59    0.21
  -1   6   1    2.77    0.26
  -1   6   1    2.79    0.25
   0   6   1    1.97    0.20
   0   6   1    2.03    0.24
   0   6   1    1.91    0.23
   0   6   1    2.01    0.21
   0   6   1    1.98    0.23
   0   6   1    1.91    0.19
   1   6   1   14.22    0.52
   1   6   1   14.33    0.60
   1   6   1   13.84    0.56
   1   6   1   14.25    0.56
   1   6   1   14.02    0.59
   1   6   1   14.84    0.57
   2   6   1    3.13    0.24
   2   6   1    2.83    0.23
   2   6   1    3.54    0.26
   3   6   1   -0.07    0.09
   3   6   1    0.08    0.10
   4   6   1    7.51    0.38
   4   6   1    6.89    0.31
  -6   7   1    1.57    0.25
  -6   7   1    2.11    0.30
  -5   7   1   26.32    1.05
  -5   7   1   28.53    1.05
  -4   7   1   31.33    1.17
  -4   7   1   32.29    1.16
  -3   7   1    1.23    0.21
  -3   7   1    0.99    0.19
  -2   7   1    0.44    0.17
  -2   7   1    0.20    0.16
  -2   7   1    0.29    0.17
  -1   7   1    3.77    0.35
  -1   7   1    3.89    0.32
  -1   7   1    4.52    0.34
   0   7   1   16.50    0.67
   0   7   1   17.12    0.67
   0   7   1   16.47    0.72
   0   7   1   17.58    0.67
   0   7   1   16.03    0.71
   1   7   1    1.93    0.31
   2   7   1    0.19    0.16
   2   7   1   -0.04    0.12
   3   7   1    2.38    0.27
   4   7   1    1.18    0.17
  -6   8   1    0.69    0.20
  -6   8   1    1.30    0.26
  -5   8   1   15.00    0.69
  -5   8   1   15.16    0.69
  -4   8   1    2.12    0.33
  -4   8   1    2.57    0.33
  -3   8   1   10.34    0.52
  -3   8   1   10.01    0.50
  -3   8   1   10.12    0.51
  -2   8   1   19.90    0.80
  -2   8   1   20.05    0.80
  -2   8   1   20.57    0.82
  -1   8   1    4.58    0.34
  -1   8   1    4.24    0.34
  -1   8   1    4.26    0.34
   0   8   1    0.38    0.16
   0   8   1    0.15    0.16
   1   8   1    5.79    0.37
   1   8   1    5.70    0.36
   2   8   1    2.96    0.29
   2   8   1    2.77    0.30
   3   8   1   11.12    0.51
   4   8   1    1.82    0.28
  -4   9   1    8.29    0.49
  -4   9   1    8.25    0.49
  -3   9   1    1.62    0.29
  -3   9   1    1.52    0.25
  -3   9   1    1.45    0.25
  -2   9   1    5.41    0.40
  -2   9   1    4.95    0.40
  -2   9   1    4.42    0.41
  -1   9   1    0.17    0.18
  -1   9   1    0.15    0.18
   0   9   1    0.08    0.18
   0   9   1    0.20    0.18
   1   9   1    1.57    0.25
   1   9   1    1.11    0.25
   2   9   1   14.44    0.64
   3   9   1    0.60    0.18
   4   9   1   10.48    0.52
  -3  10   1    1.13    0.25
  -3  10   1    1.86    0.33
  -3  10   1    0.60    0.25
  -2  10   1    2.14    0.33
  -2  10   1    1.76    0.30
  -1  10   1    5.54    0.42
  -1  10   1    5.79    0.41
   0  10   1    2.79    0.34
   0  10   1    2.72    0.33
   1  10   1   -0.16    0.17
   1  10   1    0.01    0.17
   2  10   1    1.42    0.23
   3  10   1   -0.15    0.17
   0  10  -2    0.14    0.20
  -1  10  -2    0.57    0.25
  -1  10  -2   -0.23    0.23
  -2  10  -2    2.02    0.33
  -2  10  -2    1.81    0.29
   3   9  -2    1.03    0.20
  -3  -9   2    1.13    0.27
   2   9  -2   14.71    0.64
  -2  -9   2   14.22    0.72
   1   9  -2   37.65    1.32
   1   9  -2   36.27    1.34
   0   9  -2    0.19    0.18
   0   9  -2    0.19    0.18
  -1   9  -2   -0.16    0.17
  -1   9  -2    0.19    0.19
  -2   9  -2    0.77    0.22
  -2   9  -2    0.64    0.21
  -2   9  -2    0.57    0.21
  -3   9  -2    0.43    0.23
  -3   9  -2    0.53    0.23
  -3   9  -2    0.55    0.22
  -4   9  -2    0.91    0.23
  -4   9  -2    0.97    0.25
  -5   9  -2    0.90    0.28
  -5   9  -2    0.97    0.24
   4   8  -2    0.75    0.17
  -4  -8   2    0.64    0.27
   3   8  -2    1.56    0.24
  -3  -8   2    1.31    0.26
   2   8  -2    4.77    0.35
  -2  -8   2    4.21    0.39
   1   8  -2    7.87    0.42
   1   8  -2    8.14    0.43
  -1  -8   2    7.72    0.49
  -1  -8   2    7.92    0.48
   0   8  -2    3.61    0.32
   0   8  -2    3.85    0.31
   0  -8   2    3.97    0.39
  -1   8  -2    0.29    0.16
  -1   8  -2    0.11    0.15
  -2   8  -2   12.75    0.58
  -2   8  -2   12.92    0.58
  -2   8  -2   11.95    0.57
  -3   8  -2    1.51    0.28
  -3   8  -2    2.18    0.32
  -3   8  -2    1.49    0.27
  -4   8  -2   -0.24    0.22
  -5   8  -2    0.11    0.21
  -5   8  -2    0.02    0.20
  -6   8  -2    0.39    0.23
  -6   8  -2    0.03    0.21
   4   7  -2    0.25    0.15
  -4  -7   2    0.00    0.18
   3   7  -2    6.86    0.37
  -3  -7   2    6.59    0.44
   2   7  -2    0.22    0.15
   2   7  -2    0.08    0.12
  -2  -7   2    0.08    0.19
   1   7  -2   66.88    2.15
   1   7  -2   64.44    2.16
  -1  -7   2   63.40    2.16
  -1  -7   2   64.93    2.24
   0   7  -2    1.39    0.20
   0  -7   2    1.13    0.24
  -1   7  -2    3.16    0.28
  -1   7  -2    2.39    0.30
  -1   7  -2    2.44    0.32
  -1   7  -2    3.04    0.28
   1  -7   2    3.44    0.39
   1  -7   2    2.17    0.31
  -2   7  -2    5.54    0.38
  -2   7  -2    5.57    0.37
  -2   7  -2    5.42    0.37
  -3   7  -2    6.49    0.40
  -3   7  -2    6.54    0.39
  -3   7  -2    6.81    0.40
  -4   7  -2    0.16    0.19
  -4   7  -2    0.07    0.17
  -4   7  -2    0.09    0.17
  -5   7  -2    4.23    0.35
  -5   7  -2    4.24    0.38
  -6   7  -2    0.14    0.18
  -6   7  -2    0.00    0.19
  -7   7  -2    2.38    0.32
   4   6  -2    0.10    0.12
  -4  -6   2    0.02    0.16
   3   6  -2    1.83    0.23
  -3  -6   2    1.31    0.22
   2   6  -2    7.98    0.37
   2   6  -2    7.32    0.42
   2   6  -2    6.79    0.37
  -2  -6   2    6.64    0.37
  -2  -6   2    6.88    0.43
   1   6  -2    0.53    0.13
  -1  -6   2    0.25    0.21
   0   6  -2    8.20    0.39
   0   6  -2    8.08    0.41
   0   6  -2    8.32    0.37
   0   6  -2    8.30    0.40
   0   6  -2    8.33    0.41
   0   6  -2    7.92    0.41
   0  -6   2    8.18    0.51
   0  -6   2    9.28    0.42
   0  -6   2    9.35    0.43
  -1   6  -2    9.18    0.39
  -1   6  -2    8.94    0.44
  -1   6  -2    9.53    0.43
  -1   6  -2    8.84    0.44
  -1   6  -2    9.26    0.44
  -1   6  -2    9.09    0.43
   1  -6   2    9.32    0.43
   1  -6   2    9.09    0.46
   1  -6   2   10.03    0.54
  -2   6  -2   16.88    0.70
  -2   6  -2   16.34    0.62
  -2   6  -2   17.03    0.67
  -2   6  -2   17.18    0.67
  -2   6  -2   16.45    0.70
  -2   6  -2   17.03    0.66
   2  -6   2   17.46    0.67
   2  -6   2   16.58    0.70
   2  -6   2   16.25    0.75
  -3   6  -2   16.31    0.67
  -3   6  -2   16.57    0.65
  -3   6  -2   17.21    0.69
  -3   6  -2   17.48    0.68
  -4   6  -2    1.10    0.19
  -4   6  -2    0.60    0.16
  -4   6  -2    0.76    0.18
  -5   6  -2   -0.10    0.14
  -5   6  -2    0.17    0.16
  -6   6  -2    3.23    0.34
  -6   6  -2    3.29    0.31
  -7   6  -2   -0.04    0.18
  -8   6  -2    2.11    0.34
   4   5  -2   12.67    0.50
   4   5  -2   11.99    0.46
  -4  -5   2   13.42    0.56
  -4  -5   2   11.84    0.57
   3   5  -2   12.49    0.47
   3   5  -2   12.76    0.50
  -3  -5   2   12.97    0.58
  -3  -5   2   11.86    0.57
   2   5  -2    8.17    0.38
   2   5  -2    8.00    0.34
   2   5  -2    8.43    0.37
   2   5  -2    8.98    0.39
  -2  -5   2    7.82    0.43
  -2  -5   2    8.53    0.44
  -2  -5   2    8.22    0.38
   1   5  -2    0.30    0.10
   1   5  -2    0.38    0.11
   1   5  -2    0.32    0.11
   1   5  -2    0.27    0.09
   1   5  -2    0.34    0.10
   1   5  -2    0.30    0.10
  -1  -5   2    0.25    0.14
  -1  -5   2    0.44    0.12
   0   5  -2    0.77    0.13
   0   5  -2    0.67    0.13
   0   5  -2    0.63    0.16
   0   5  -2    0.72    0.12
   0   5  -2    0.59    0.14
   0   5  -2    0.65    0.12
   0  -5   2    0.56    0.12
   0  -5   2    0.61    0.16
   0  -5   2    0.60    0.11
  -1   5  -2   63.73    1.97
  -1   5  -2   63.56    2.06
  -1   5  -2   60.86    2.22
  -1   5  -2   63.73    2.07
  -1   5  -2   61.81    2.09
  -1   5  -2   63.49    2.25
   1  -5   2   62.36    2.08
   1  -5   2   64.86    2.07
   1  -5   2   64.21    2.14
  -2   5  -2    3.69    0.23
  -2   5  -2    3.51    0.26
  -2   5  -2    3.88    0.27
  -2   5  -2    3.58    0.25
  -2   5  -2    3.61    0.25
  -2   5  -2    3.90    0.27
   2  -5   2    3.89    0.25
   2  -5   2    3.84    0.28
   2  -5   2    3.97    0.34
  -3   5  -2   11.63    0.50
  -3   5  -2   11.70    0.46
  -3   5  -2   11.93    0.50
  -3   5  -2   11.78    0.53
  -3   5  -2   12.08    0.50
  -3   5  -2   11.47    0.52
   3  -5   2   12.32    0.51
   3  -5   2   11.51    0.49
  -4   5  -2    4.62    0.31
  -4   5  -2    4.70    0.31
  -4   5  -2    4.07    0.26
  -4   5  -2    4.42    0.29
  -4   5  -2    4.81    0.30
  -4   5  -2    4.35    0.28
  -5   5  -2    0.10    0.14
  -5   5  -2   -0.10    0.16
  -5   5  -2    0.20    0.15
  -6   5  -2    0.96    0.19
  -6   5  -2    0.94    0.18
  -7   5  -2    1.53    0.23
  -8   5  -2    2.31    0.30
   4   4  -2    0.58    0.12
  -4  -4   2    0.78    0.16
  -4  -4   2    0.64    0.15
   3   4  -2    4.46    0.24
   3   4  -2    4.24    0.22
  -3  -4   2    4.13    0.28
  -3  -4   2    4.42    0.30
   2   4  -2    7.42    0.31
   2   4  -2    7.38    0.33
   2   4  -2    8.03    0.35
   2   4  -2    7.47    0.35
  -2  -4   2    7.45    0.37
  -2  -4   2    7.89    0.34
  -2  -4   2    7.14    0.36
  -2  -4   2    7.13    0.38
   1   4  -2   55.49    1.99
   1   4  -2   58.34    1.97
   1   4  -2   57.05    1.86
   1   4  -2   55.85    1.84
   1   4  -2   56.11    1.84
   1   4  -2   56.24    1.75
  -1  -4   2   56.59    1.90
  -1  -4   2   54.23    2.02
  -1  -4   2   60.05    1.86
  -1  -4   2   57.37    1.84
  -1  -4   2   57.51    1.75
  -1  -4   2   54.35    2.02
   0   4  -2    4.23    0.26
   0  -4   2    5.59    0.31
   0  -4   2    5.52    0.35
   0  -4   2    4.81    0.41
  -1   4  -2   41.48    1.33
  -1   4  -2   40.45    1.50
  -1   4  -2   40.39    1.41
  -1   4  -2   41.83    1.39
  -1   4  -2   41.58    1.52
  -1   4  -2   40.35    1.40
   1  -4   2   45.08    1.42
   1  -4   2   45.10    1.47
   1  -4   2   44.62    1.41
  -2   4  -2    6.49    0.33
  -2   4  -2    6.54    0.30
  -2   4  -2    6.40    0.33
  -2   4  -2    6.79    0.35
  -2   4  -2    7.29    0.37
  -2   4  -2    7.49    0.34
   2  -4   2    6.33    0.37
   2  -4   2    7.02    0.44
   2  -4   2    7.07    0.34
  -3   4  -2   62.87    2.25
  -3   4  -2   63.55    2.28
  -3   4  -2   64.64    2.13
  -3   4  -2   64.96    2.10
  -3   4  -2   65.34    1.99
  -3   4  -2   64.87    2.10
   3  -4   2   66.08    2.11
   3  -4   2   64.02    2.16
   3  -4   2   63.65    2.10
  -4   4  -2   10.64    0.44
  -4   4  -2   10.68    0.47
  -4   4  -2   10.54    0.41
  -4   4  -2   10.44    0.47
  -4   4  -2   10.93    0.45
  -4   4  -2   10.88    0.45
   4  -4   2   11.07    0.45
  -5   4  -2    8.28    0.41
  -5   4  -2    8.56    0.41
  -5   4  -2    8.66    0.39
  -5   4  -2    8.68    0.42
  -6   4  -2    0.98    0.18
  -7   4  -2    6.85    0.37
  -8   4  -2    0.73    0.19
   4   3  -2    0.09    0.07
   4   3  -2    0.05    0.07
  -4  -3   2    0.17    0.10
   3   3  -2   32.83    1.14
   3   3  -2   37.35    1.25
   3   3  -2   36.81    1.09
  -3  -3   2   34.76    1.19
  -3  -3   2   34.44    1.26
  -3  -3   2   34.21    1.15
  -3  -3   2   33.14    1.26
   2   3  -2    2.84    0.20
   2   3  -2    3.39    0.19
   2   3  -2    3.39    0.20
   2   3  -2    3.28    0.19
   2   3  -2    3.23    0.19
   2   3  -2    3.40    0.18
  -2  -3   2    3.30    0.17
  -2  -3   2    3.79    0.21
  -2  -3   2    3.44    0.22
  -2  -3   2    3.23    0.24
  -2  -3   2    3.41    0.22
  -2  -3   2    3.30    0.31
   1   3  -2    2.23    0.16
   1   3  -2    2.28    0.17
   1   3  -2    2.22    0.14
   1   3  -2    2.14    0.15
   1   3  -2    2.15    0.17
   1   3  -2    2.31    0.16
  -1  -3   2    2.28    0.19
  -1  -3   2    2.47    0.15
  -1  -3   2    2.11    0.17
  -1  -3   2    2.18    0.16
  -1  -3   2    2.27    0.22
  -1  -3   2    2.14    0.19
   0   3  -2   24.63    0.86
   0   3  -2   25.62    0.93
   0   3  -2   26.74    0.92
   0   3  -2   25.38    0.81
   0   3  -2   23.87    0.85
   0   3  -2   24.31    0.85
   0  -3   2   26.13    0.87
   0  -3   2   26.48    0.81
   0  -3   2   24.80    0.94
   0  -3   2   24.19    0.85
   0  -3   2   26.38    0.90
   0  -3   2   25.45    0.95
  -1   3  -2   15.84    0.53
  -1   3  -2   14.59    0.56
  -1   3  -2   15.05    0.56
  -1   3  -2   16.24    0.60
  -1   3  -2   15.37    0.60
  -1   3  -2   16.18    0.56
   1  -3   2   15.55    0.57
   1  -3   2   15.90    0.63
   1  -3   2   15.98    0.60
   1  -3   2   15.12    0.55
   1  -3   2   16.07    0.62
   1  -3   2   15.50    0.53
  -2   3  -2    3.53    0.20
  -2   3  -2    3.40    0.20
  -2   3  -2    3.62    0.20
  -2   3  -2    3.66    0.18
  -2   3  -2    3.69    0.21
  -2   3  -2    3.67    0.20
   2  -3   2    3.67    0.23
   2  -3   2    3.82    0.20
   2  -3   2    3.18    0.28
  -3   3  -2    0.17    0.11
  -3   3  -2    0.20    0.08
  -3   3  -2    0.21    0.10
  -3   3  -2    0.10    0.09
  -3   3  -2    0.22    0.10
  -3   3  -2    0.14    0.09
   3  -3   2    0.10    0.08
   3  -3   2    0.07    0.12
   3  -3   2    0.24    0.11
  -4   3  -2    4.01    0.22
  -4   3  -2    3.66    0.23
  -4   3  -2    3.79    0.24
  -4   3  -2    3.97    0.25
  -4   3  -2    3.75    0.25
   4  -3   2    3.74    0.28
   4  -3   2    4.10    0.24
  -5   3  -2    9.79    0.43
  -5   3  -2    9.75    0.41
  -5   3  -2    9.49    0.41
  -5   3  -2    9.60    0.43
  -6   3  -2    4.61    0.31
  -6   3  -2    4.85    0.35
  -7   3  -2    2.62    0.24
   4   2  -2    3.85    0.19
   4   2  -2    3.99    0.21
  -4  -2   2    4.13    0.26
  -4  -2   2    5.03    0.28
   3   2  -2    1.12    0.12
   3   2  -2    1.06    0.12
   3   2  -2    1.09    0.14
  -3  -2   2    1.15    0.16
  -3  -2   2    1.15    0.17
  -3  -2   2    1.14    0.18
   2   2  -2    1.27    0.12
   2   2  -2    1.37    0.14
   2   2  -2    1.32    0.13
   2   2  -2    1.34    0.12
   2   2  -2    1.23    0.10
   2   2  -2    1.25    0.13
   2   2  -2    1.36    0.12
  -2  -2   2    1.01    0.17
  -2  -2   2    1.11    0.17
  -2  -2   2    1.17    0.14
  -2  -2   2    1.43    0.13
  -2  -2   2    1.39    0.13
  -2  -2   2    1.20    0.14
  -2  -2   2    1.09    0.12
   1   2  -2    2.27    0.13
   1   2  -2    2.03    0.11
   1   2  -2    2.04    0.13
   1   2  -2    2.08    0.14
   1   2  -2    2.11    0.13
   1   2  -2    2.15    0.14
   1   2  -2    2.05    0.13
  -1  -2   2    1.94    0.18
  -1  -2   2    2.00    0.16
  -1  -2   2    2.04    0.14
  -1  -2   2    2.28    0.17
  -1  -2   2    2.07    0.15
  -1  -2   2    1.91    0.12
  -1  -2   2    2.14    0.14
   0   2  -2   16.49    0.60
   0   2  -2   15.14    0.55
   0   2  -2   16.28    0.59
   0   2  -2   17.18    0.57
   0   2  -2   15.89    0.52
   0   2  -2   15.67    0.52
   0   2  -2   16.68    0.56
   0  -2   2   15.69    0.58
   0  -2   2   18.31    0.61
   0  -2   2   15.88    0.61
   0  -2   2   14.84    0.54
   0  -2   2   15.75    0.52
   0  -2   2   15.73    0.56
   0  -2   2   15.41    0.61
  -1   2  -2   75.70    2.51
  -1   2  -2   79.94    2.35
  -1   2  -2   76.91    2.69
  -1   2  -2   81.73    2.66
  -1   2  -2   76.44    2.48
  -1   2  -2   78.16    2.48
   1  -2   2   77.28    2.48
   1  -2   2   79.69    2.69
   1  -2   2   74.53    2.48
   1  -2   2   77.84    2.71
   1  -2   2   80.36    2.35
   1  -2   2   76.63    2.53
  -2   2  -2   30.97    0.95
  -2   2  -2   28.78    1.01
  -2   2  -2   30.41    1.07
  -2   2  -2   30.90    1.08
  -2   2  -2   29.57    0.99
  -2   2  -2   28.66    0.99
   2  -2   2   30.88    1.10
   2  -2   2   31.38    1.10
   2  -2   2   31.55    0.95
   2  -2   2   29.99    1.00
   2  -2   2   30.34    1.03
   2  -2   2   29.98    1.00
  -3   2  -2   54.80    1.90
  -3   2  -2   56.06    1.66
  -3   2  -2   56.68    1.91
  -3   2  -2   53.71    1.78
  -3   2  -2   51.95    1.75
  -3   2  -2   54.97    1.88
  -3   2  -2   52.62    1.75
   3  -2   2   56.56    1.66
   3  -2   2   53.72    1.75
   3  -2   2   53.18    1.76
   3  -2   2   54.70    1.79
  -4   2  -2   87.25    2.97
  -4   2  -2   86.18    2.59
  -4   2  -2   82.18    2.73
  -4   2  -2   84.63    2.94
  -4   2  -2   84.98    2.74
  -4   2  -2   83.82    2.77
   4  -2   2   91.21    2.60
   4  -2   2   85.55    2.74
   4  -2   2   86.73    2.75
  -5   2  -2   44.39    1.53
  -5   2  -2   41.84    1.51
  -5   2  -2   43.05    1.43
  -5   2  -2   42.45    1.41
   5  -2   2   42.92    1.41
  -6   2  -2    0.75    0.13
  -6   2  -2    0.92    0.12
  -7   2  -2    6.59    0.33
   5   1  -2    0.74    0.12
  -5  -1   2    1.18    0.21
   4   1  -2    5.78    0.27
   4   1  -2    6.93    0.25
  -4  -1   2    6.33    0.29
  -4  -1   2    6.20    0.29
   3   1  -2  103.58    3.08
   3   1  -2  103.88    3.53
   3   1  -2   97.57    3.08
   3   1  -2   97.20    3.48
   3   1  -2  101.97    3.25
   3   1  -2  101.55    3.25
  -3  -1   2  104.62    3.54
  -3  -1   2  105.60    3.49
  -3  -1   2  103.62    3.30
  -3  -1   2  106.77    3.50
  -3  -1   2  103.71    3.08
  -3  -1   2  101.93    3.25
   2   1  -2   83.35    2.84
   2   1  -2   82.53    2.50
   2   1  -2   82.35    2.87
   2   1  -2   84.45    2.51
   2   1  -2   79.80    2.64
   2   1  -2   80.02    2.64
  -2  -1   2   82.49    2.65
  -2  -1   2   86.48    2.85
  -2  -1   2   81.96    2.68
  -2  -1   2   85.43    2.84
  -2  -1   2   86.72    2.51
  -2  -1   2   84.96    2.88
   1   1  -2   21.06    0.73
   1   1  -2   19.41    0.69
   1   1  -2   21.08    0.68
   1   1  -2   19.55    0.64
   1   1  -2   20.98    0.72
   1   1  -2   20.33    0.63
   1   1  -2   19.71    0.73
   1   1  -2   22.02    0.67
  -1  -1   2   18.03    0.67
  -1  -1   2   19.71    0.73
  -1  -1   2   18.75    0.67
  -1  -1   2   19.55    0.64
  -1  -1   2   22.13    0.73
  -1  -1   2   19.88    0.73
  -1  -1   2   21.22    0.74
  -1  -1   2   18.52    0.68
   0   1  -2   56.59    1.96
   0   1  -2   62.51    1.86
   0   1  -2   62.64    2.14
   0   1  -2   59.26    1.98
   0   1  -2   60.09    1.96
   0   1  -2   63.40    1.86
   0   1  -2   60.60    2.10
   0   1  -2   61.08    2.13
   0  -1   2   63.71    2.12
   0  -1   2   65.77    2.11
   0  -1   2   65.55    2.13
   0  -1   2   61.47    1.97
   0  -1   2   59.91    1.99
   0  -1   2   64.47    1.86
   0  -1   2   62.42    2.14
   0  -1   2   58.11    1.96
   0  -1   2   60.61    1.86
  -1   1  -2   54.31    1.67
  -1   1  -2   52.30    1.79
  -1   1  -2   52.25    1.76
  -1   1  -2   56.82    1.93
  -1   1  -2   57.22    1.92
  -1   1  -2   56.61    1.90
  -1   1  -2   52.58    1.76
  -1   1  -2   56.47    1.91
  -1   1  -2   54.61    1.67
   1  -1   2   56.82    1.68
   1  -1   2   57.42    1.67
   1  -1   2   58.87    1.93
   1  -1   2   52.43    1.77
   1  -1   2   56.72    1.91
   1  -1   2   58.87    1.92
   1  -1   2   52.65    1.80
   1  -1   2   55.87    1.90
   1  -1   2   55.02    1.77
  -2   1  -2    0.17    0.05
  -2   1  -2    0.16    0.06
  -2   1  -2    0.16    0.05
  -2   1  -2    0.17    0.05
  -2   1  -2    0.24    0.05
   2  -1   2    0.09    0.09
   2  -1   2    0.12    0.05
   2  -1   2    0.13    0.07
   2  -1   2    0.16    0.05
  -3   1  -2    0.15    0.05
  -3   1  -2    0.21    0.06
  -3   1  -2    0.21    0.05
  -3   1  -2    0.18    0.05
  -3   1  -2    0.17    0.05
  -3   1  -2    0.24    0.08
  -3   1  -2    0.15    0.04
   3  -1   2    0.14    0.05
   3  -1   2    0.21    0.05
   3  -1   2    0.12    0.05
   3  -1   2    0.14    0.05
   3  -1   2    0.18    0.04
  -4   1  -2   72.82    2.48
  -4   1  -2   70.92    2.45
  -4   1  -2   73.09    2.16
  -4   1  -2   71.21    2.31
   4  -1   2   66.95    2.28
   4  -1   2   74.25    2.17
   4  -1   2   73.56    2.29
  -5   1  -2   -0.03    0.07
  -5   1  -2   -0.11    0.08
  -5   1  -2   -0.04    0.08
   5  -1   2    0.04    0.06
  -6   1  -2    2.37    0.19
  -6   1  -2    3.23    0.20
   5   0  -2    4.64    0.22
   5   0  -2    4.86    0.24
  -5   0   2    5.22    0.27
   4   0  -2    2.87    0.21
   4   0  -2    2.18    0.17
  -4   0   2    2.67    0.18
  -4   0   2    2.84    0.22
  -4   0   2    2.69    0.18
   3   0  -2    0.47    0.07
   3   0  -2    0.69    0.10
   3   0  -2    0.76    0.10
  -3   0   2    0.64    0.11
  -3   0   2    0.63    0.08
  -3   0   2    0.43    0.08
  -3   0   2    0.55    0.09
  -3   0   2    0.51    0.07
  -3   0   2    0.65    0.11
   2   0  -2   35.80    1.28
   2   0  -2   35.46    1.13
   2   0  -2   37.02    1.30
   2   0  -2   37.78    1.14
   2   0  -2   35.82    1.19
   2   0  -2   36.23    1.19
  -2   0   2   39.06    1.29
  -2   0   2   35.64    1.20
  -2   0   2   39.12    1.30
  -2   0   2   37.03    1.29
  -2   0   2   37.88    1.14
  -2   0   2   36.40    1.21
   1   0  -2   19.17    0.65
   1   0  -2   22.18    0.76
   1   0  -2   20.47    0.69
   1   0  -2   19.90    0.69
   1   0  -2   18.60    0.70
   1   0  -2   20.35    0.66
   1   0  -2   19.44    0.74
   1   0  -2   19.16    0.75
  -1   0   2   22.19    0.75
  -1   0   2   21.61    0.70
  -1   0   2   22.41    0.71
  -1   0   2   21.56    0.70
  -1   0   2   22.78    0.67
  -1   0   2   23.84    0.76
  -1   0   2   20.50    0.75
  -1   0   2   20.49    0.75
   0   0  -2    2.34    0.12
   0   0  -2    2.27    0.12
   0   0  -2    2.20    0.12
   0   0  -2    2.25    0.10
   0   0  -2    2.10    0.11
   0   0  -2    2.07    0.11
   0   0  -2    2.26    0.10
   0   0  -2    2.25    0.12
   0   0  -2    2.12    0.11
   0   0   2    2.27    0.12
   0   0   2    2.35    0.12
   0   0   2    2.22    0.12
   0   0   2    2.22    0.10
   0   0   2    2.21    0.12
   0   0   2    2.35    0.12
   0   0   2    2.28    0.11
   0   0   2    2.28    0.10
   0   0   2    2.20    0.12
  -1   0  -2  114.55    3.87
  -1   0  -2  123.13    4.21
  -1   0  -2  121.86    3.69
  -1   0  -2  120.29    4.16
  -1   0  -2  120.76    4.20
  -1   0  -2  123.04    3.68
  -1   0  -2  117.75    3.90
  -1   0  -2  123.76    4.16
   1   0   2  125.77    4.17
   1   0   2  124.30    3.68
   1   0   2  119.41    3.88
   1   0   2  117.78    3.88
   1   0   2  127.18    4.24
   1   0   2  125.85    4.22
   1   0   2  129.94    3.70
   1   0   2  124.21    4.17
  -2   0  -2   29.27    0.90
  -2   0  -2   27.31    0.95
  -2   0  -2   30.30    1.02
  -2   0  -2   29.32    1.03
  -2   0  -2   29.27    0.89
  -2   0  -2   30.01    1.02
  -2   0  -2   29.41    1.01
   2   0   2   29.85    0.90
   2   0   2   31.33    1.02
   2   0   2   28.07    1.01
   2   0   2   28.90    0.89
   2   0   2   29.78    1.02
   2   0   2   27.89    0.94
   2   0   2   30.50    1.03
  -3   0  -2   10.77    0.35
  -3   0  -2   11.42    0.41
  -3   0  -2   10.98    0.35
  -3   0  -2   11.28    0.41
  -3   0  -2   11.12    0.40
  -3   0  -2   10.47    0.38
  -3   0  -2   11.64    0.41
   3   0   2   11.76    0.41
   3   0   2   11.27    0.36
   3   0   2   10.20    0.40
   3   0   2   10.89    0.35
   3   0   2   11.82    0.42
   3   0   2   11.39    0.41
   3   0   2   10.55    0.37
  -4   0  -2   13.57    0.48
  -4   0  -2   13.77    0.50
  -4   0  -2   14.57    0.52
  -4   0  -2   14.45    0.51
  -4   0  -2   14.60    0.44
   4   0   2   13.85    0.44
   4   0   2   13.67    0.47
   4   0   2   14.52    0.51
  -5   0  -2    0.80    0.08
  -5   0  -2    0.64    0.11
   5   0   2    1.06    0.13
  -6   1   2  121.58    4.20
  -6   1   2  124.02    3.97
   5  -1  -2   10.56    0.40
  -5   1   2   11.00    0.46
  -5   1   2   10.62    0.44
   4  -1  -2    5.09    0.32
   4  -1  -2    6.42    0.26
   4  -1  -2    6.97    0.31
  -4   1   2    6.56    0.31
  -4   1   2    5.78    0.30
  -4   1   2    6.72    0.30
  -4   1   2    6.21    0.30
   3  -1  -2    0.26    0.06
   3  -1  -2    0.07    0.08
   3  -1  -2    0.10    0.06
   3  -1  -2    0.26    0.10
   3  -1  -2    0.13    0.08
  -3   1   2    0.10    0.07
  -3   1   2    0.01    0.07
  -3   1   2    0.06    0.06
  -3   1   2    0.09    0.07
  -3   1   2    0.17    0.07
  -3   1   2    0.12    0.08
   2  -1  -2   75.32    2.48
   2  -1  -2   75.65    2.19
   2  -1  -2   70.58    2.18
   2  -1  -2   72.06    2.34
   2  -1  -2   70.17    2.51
  -2   1   2   76.35    2.19
  -2   1   2   69.89    2.30
  -2   1   2   71.12    2.33
  -2   1   2   73.25    2.51
  -2   1   2   68.67    2.30
  -2   1   2   72.53    2.48
   1  -1  -2   70.92    2.36
   1  -1  -2   71.80    2.50
   1  -1  -2   74.03    2.54
   1  -1  -2   72.73    2.20
   1  -1  -2   73.74    2.21
  -1   1   2   67.13    2.32
  -1   1   2   75.31    2.54
  -1   1   2   76.55    2.50
  -1   1   2   75.44    2.53
  -1   1   2   72.15    2.36
  -1   1   2   75.29    2.21
  -1   1   2   77.16    2.51
  -1   1   2   69.51    2.33
   0  -1  -2   32.05    1.09
   0  -1  -2   30.55    1.07
   0  -1  -2   31.91    0.95
   0  -1  -2   32.13    1.07
   0  -1  -2   29.56    0.99
   0  -1  -2   30.01    1.08
   0  -1  -2   30.61    0.94
   0   1   2   30.97    0.95
   0   1   2   29.66    1.00
   0   1   2   31.93    1.07
   0   1   2   30.94    1.08
   0   1   2   31.66    1.07
   0   1   2   31.78    0.94
   0   1   2   31.92    1.09
   0   1   2   28.17    0.99
   0   1   2   29.45    1.01
  -1  -1  -2  440.71   14.56
  -1  -1  -2  419.55   13.75
  -1  -1  -2  434.89   14.74
  -1  -1  -2  409.72   12.86
  -1  -1  -2  424.11   12.86
  -1  -1  -2  421.47   14.56
  -1  -1  -2  428.42   14.75
   1   1   2  421.24   13.58
   1   1   2  435.80   14.58
   1   1   2  448.56   12.88
   1   1   2  437.61   14.76
   1   1   2  434.95   14.58
   1   1   2  424.03   12.88
   1   1   2  448.20   14.78
  -2  -1  -2  327.58   11.44
  -2  -1  -2  336.35   11.30
  -2  -1  -2  328.12    9.97
  -2  -1  -2  321.76   10.66
  -2  -1  -2  334.37   11.43
  -2  -1  -2  329.78   11.29
  -2  -1  -2  333.53    9.98
   2   1   2  333.05    9.98
   2   1   2  342.01    9.99
   2   1   2  343.36   11.31
   2   1   2  353.93   11.45
   2   1   2  342.71   11.45
   2   1   2  329.29   11.30
   2   1   2  327.76   10.54
  -3  -1  -2  156.38    5.34
  -3  -1  -2  157.32    5.28
  -3  -1  -2  157.85    5.35
  -3  -1  -2  155.13    5.28
   3   1   2  158.57    5.35
   3   1   2  159.67    5.35
   3   1   2  153.89    4.67
   3   1   2  158.38    4.68
  -6   2   2    0.15    0.12
  -5   2   2    0.36    0.12
  -5   2   2    0.35    0.12
   4  -2  -2    2.26    0.21
   4  -2  -2    2.31    0.17
  -4   2   2    2.38    0.20
  -4   2   2    2.36    0.19
  -4   2   2    2.31    0.19
  -4   2   2    2.16    0.20
   3  -2  -2   40.22    1.45
   3  -2  -2   40.18    1.43
   3  -2  -2   39.27    1.25
  -3   2   2   39.97    1.33
  -3   2   2   40.84    1.43
  -3   2   2   40.75    1.34
  -3   2   2   41.04    1.26
  -3   2   2   40.07    1.44
   2  -2  -2    2.22    0.17
   2  -2  -2    2.10    0.13
   2  -2  -2    2.19    0.17
  -2   2   2    2.24    0.15
  -2   2   2    1.79    0.16
  -2   2   2    2.13    0.15
  -2   2   2    2.20    0.14
  -2   2   2    1.83    0.16
  -2   2   2    1.83    0.16
   1  -2  -2   56.68    1.93
   1  -2  -2   54.73    1.95
  -1   2   2   54.27    1.79
  -1   2   2   56.82    1.95
  -1   2   2   53.56    1.81
  -1   2   2   54.47    1.79
  -1   2   2   58.63    1.93
  -1   2   2   57.05    1.70
   0   2   2    0.28    0.06
   0   2   2    0.22    0.07
   0   2   2    0.15    0.06
   0   2   2    0.21    0.06
   0   2   2    0.16    0.06
   0   2   2    0.13    0.06
  -1  -2  -2    1.91    0.12
   1   2   2    1.52    0.13
   1   2   2    1.50    0.13
   1   2   2    1.27    0.12
   1   2   2    1.29    0.10
   1   2   2    1.54    0.12
  -2  -2  -2  113.75    3.82
  -2  -2  -2  111.88    3.37
  -2  -2  -2  113.22    3.38
  -2  -2  -2  114.79    3.82
  -2  -2  -2  114.15    3.87
  -2  -2  -2  118.52    3.87
   2   2   2  106.85    3.57
   2   2   2  115.07    3.88
   2   2   2  113.02    3.38
   2   2   2  111.47    3.82
  -3  -2  -2   72.56    2.55
  -3  -2  -2   73.41    2.55
  -3  -2  -2   76.45    2.53
  -3  -2  -2   77.10    2.52
   3   2   2   73.17    2.35
   3   2   2   76.21    2.23
   3   2   2   74.35    2.55
  -7   3   2    0.75    0.17
  -6   3   2   36.29    1.26
   5  -3  -2   24.22    0.81
  -5   3   2   23.79    0.88
  -5   3   2   23.92    0.93
  -5   3   2   25.17    0.89
   4  -3  -2   12.51    0.55
  -4   3   2   12.22    0.53
  -4   3   2   12.38    0.50
  -4   3   2   12.27    0.52
  -4   3   2   12.16    0.50
  -3   3   2   23.54    0.90
  -3   3   2   24.16    0.85
  -3   3   2   24.14    0.91
  -3   3   2   24.44    0.80
  -3   3   2   23.23    0.84
  -3   3   2   26.14    0.87
  -2   3   2    8.56    0.33
  -2   3   2    8.11    0.38
  -2   3   2    8.23    0.37
  -2   3   2    8.29    0.38
  -2   3   2    8.61    0.38
  -2   3   2    8.28    0.36
  -1   3   2   52.47    1.82
  -1   3   2   51.76    1.70
  -1   3   2   54.00    1.84
  -1   3   2   52.83    1.61
  -1   3   2   50.11    1.71
  -1   3   2   51.96    1.69
   0   3   2   19.88    0.69
   0   3   2   19.83    0.69
   0   3   2   20.64    0.66
   0   3   2   20.33    0.75
   0   3   2   20.56    0.70
   0   3   2   20.27    0.74
  -1  -3  -2    8.73    0.35
   1   3   2    8.23    0.32
   1   3   2    8.30    0.32
   1   3   2    8.32    0.30
   1   3   2    8.24    0.32
   1   3   2    8.62    0.34
   1   3   2    8.18    0.34
  -2  -3  -2   34.67    1.21
  -2  -3  -2   34.60    1.19
   2   3   2   34.68    1.05
   2   3   2   34.84    1.21
   2   3   2   34.03    1.11
   2   3   2   32.58    1.11
   2   3   2   34.26    1.19
  -3  -3  -2    1.09    0.10
  -3  -3  -2    1.10    0.11
   3   3   2    1.18    0.13
   3   3   2    1.25    0.10
   3   3   2    1.23    0.09
   3   3   2    1.32    0.10
   3   3   2    1.00    0.11
  -8   4   2    7.15    0.42
  -7   4   2    0.58    0.16
  -6   4   2    8.93    0.43
   5  -4  -2   12.18    0.57
  -5   4   2   12.15    0.53
  -5   4   2   11.73    0.54
  -5   4   2   11.87    0.52
  -4   4   2   10.54    0.47
  -4   4   2   10.51    0.48
  -4   4   2   10.78    0.47
  -4   4   2   10.55    0.47
  -3   4   2   31.87    1.08
  -3   4   2   30.85    1.14
  -3   4   2   30.76    1.07
  -3   4   2   30.63    1.07
  -3   4   2   30.73    1.01
  -3   4   2   31.03    1.16
  -2   4   2    4.23    0.28
  -2   4   2    4.57    0.24
  -2   4   2    4.58    0.27
  -2   4   2    4.34    0.29
  -2   4   2    4.57    0.27
  -2   4   2    4.48    0.28
  -1   4   2    1.47    0.20
  -1   4   2    1.67    0.18
  -1   4   2    1.42    0.16
  -1   4   2    1.62    0.17
  -1   4   2    1.01    0.19
  -1   4   2    1.48    0.19
   0   4   2   20.11    0.75
   0   4   2   20.35    0.66
   0   4   2   19.56    0.75
   0   4   2   20.11    0.70
   0   4   2   18.87    0.70
   0   4   2   20.06    0.70
   1   4   2   16.47    0.60
   1   4   2   16.67    0.63
   1   4   2   16.18    0.59
   1   4   2   16.75    0.62
   1   4   2   16.41    0.59
   1   4   2   16.24    0.55
  -2  -4  -2   92.33    3.04
   2   4   2   89.13    2.69
   2   4   2   90.69    3.04
   2   4   2   86.27    3.08
   2   4   2   87.04    2.83
   2   4   2   88.90    2.84
   3   4   2   21.83    0.74
   3   4   2   22.06    0.74
   3   4   2   21.85    0.70
   3   4   2   21.67    0.79
   4   4   2    9.04    0.32
   4   4   2    8.82    0.36
  -7   5   2    0.33    0.16
  -6   5   2    0.42    0.17
  -5   5   2   -0.06    0.13
  -5   5   2   -0.09    0.14
  -4   5   2   35.32    1.25
  -4   5   2   34.44    1.34
  -4   5   2   37.36    1.28
  -3   5   2   23.36    0.93
  -3   5   2   24.41    0.88
  -3   5   2   22.98    0.92
  -3   5   2   23.80    0.82
  -3   5   2   24.02    0.87
  -3   5   2   24.83    0.87
  -2   5   2    0.86    0.17
  -2   5   2    0.90    0.14
  -2   5   2    0.93    0.17
  -2   5   2    1.00    0.15
  -2   5   2    0.97    0.15
  -2   5   2    0.91    0.15
  -1   5   2   39.53    1.29
  -1   5   2   40.54    1.39
  -1   5   2   41.03    1.37
  -1   5   2   40.53    1.48
  -1   5   2   40.37    1.46
  -1   5   2   40.53    1.37
   0   5   2    2.29    0.25
   0   5   2    2.56    0.23
   0   5   2    2.53    0.20
   0   5   2    2.00    0.24
   1   5   2    1.69    0.18
   1   5   2    2.41    0.24
   1   5   2    1.67    0.18
   1   5   2    2.09    0.21
   1   5   2    1.81    0.19
   1   5   2    1.57    0.23
   2   5   2    8.48    0.34
   2   5   2    7.91    0.38
   2   5   2    8.38    0.39
   2   5   2    8.14    0.38
   2   5   2    8.79    0.38
   3   5   2    2.71    0.21
   3   5   2    3.68    0.26
   3   5   2    2.91    0.23
   3   5   2    3.24    0.23
   4   5   2    1.50    0.15
  -7   6   2    1.21    0.25
  -6   6   2    0.50    0.18
  -5   6   2    0.00    0.15
  -5   6   2    0.26    0.15
  -4   6   2    5.63    0.37
  -4   6   2    6.11    0.37
  -3   6   2   34.77    1.21
  -3   6   2   32.98    1.18
  -3   6   2   34.02    1.20
  -3   6   2   30.74    1.10
  -2   6   2   22.38    0.79
  -2   6   2   22.38    0.90
  -2   6   2   22.25    0.90
  -2   6   2   23.02    0.85
  -2   6   2   23.20    0.85
  -2   6   2   23.37    0.84
  -1   6   2   55.94    2.01
  -1   6   2   57.54    1.88
  -1   6   2   57.01    1.87
  -1   6   2   54.07    2.03
  -1   6   2   57.95    1.90
  -1   6   2   55.56    1.78
   0   6   2    1.77    0.24
   0   6   2    2.02    0.24
   0   6   2    1.62    0.22
   0   6   2    1.61    0.19
   0   6   2    1.54    0.18
   0   6   2    1.48    0.19
   1   6   2    1.68    0.19
   1   6   2    1.58    0.19
   1   6   2    2.18    0.23
   1   6   2    1.81    0.23
   1   6   2    1.44    0.19
   1   6   2    1.57    0.23
   2   6   2   27.80    0.97
   2   6   2   27.81    1.04
   2   6   2   27.49    0.96
   2   6   2   27.33    0.91
   3   6   2    3.94    0.26
   3   6   2    3.71    0.22
   4   6   2    0.00    0.12
  -6   7   2    4.06    0.35
  -6   7   2    4.66    0.36
  -5   7   2    2.47    0.30
  -5   7   2    2.60    0.31
  -4   7   2    0.62    0.19
  -4   7   2    0.90    0.19
  -3   7   2   11.45    0.53
  -3   7   2   11.11    0.53
  -3   7   2   11.23    0.53
  -2   7   2   11.84    0.54
  -2   7   2   11.60    0.54
  -2   7   2   11.50    0.54
  -1   7   2    2.56    0.34
  -1   7   2    1.66    0.24
   0   7   2    0.43    0.15
   0   7   2   -0.16    0.14
   1   7   2   11.64    0.54
   1   7   2   11.59    0.50
   1   7   2    9.87    0.50
   2   7   2    0.39    0.15
   2   7   2    0.32    0.13
   3   7   2    0.31    0.14
   4   7   2    1.56    0.23
  -5   8   2    0.29    0.17
  -5   8   2    0.14    0.18
  -4   8   2    2.62    0.34
  -4   8   2    3.10    0.34
  -3   8   2   -0.13    0.16
  -3   8   2   -0.08    0.17
  -3   8   2   -0.01    0.16
  -2   8   2    4.19    0.35
  -2   8   2    4.30    0.34
  -2   8   2    4.13    0.33
  -1   8   2   42.92    1.50
  -1   8   2   43.82    1.52
  -1   8   2   42.78    1.51
   0   8   2   26.49    0.99
   0   8   2   27.63    1.01
   1   8   2    1.92    0.27
   1   8   2    1.84    0.26
   2   8   2    3.38    0.29
   2   8   2    3.15    0.30
   3   8   2    3.87    0.31
   4   8   2    0.10    0.14
  -4   9   2    0.35    0.21
  -4   9   2    0.52    0.20
  -3   9   2    9.29    0.52
  -3   9   2    9.15    0.50
  -3   9   2    9.09    0.51
  -2   9   2    0.04    0.18
  -2   9   2    0.08    0.19
  -2   9   2   -0.01    0.18
  -1   9   2    0.26    0.18
  -1   9   2    0.31    0.19
   0   9   2    0.82    0.21
   0   9   2    1.24    0.21
   1   9   2    1.36    0.22
   1   9   2    1.22    0.23
   2   9   2    0.13    0.18
   3   9   2    2.83    0.33
   4   9   2    6.48    0.40
  -2  10   2   -0.02    0.20
  -2  10   2    0.03    0.19
  -2  10   2   -0.08    0.19
  -1  10   2    0.26    0.19
  -1  10   2    0.38    0.19
   0  10   2   15.86    0.69
   0  10   2   15.47    0.71
   1  10   2    0.69    0.20
   1  10   2    0.83    0.22
   2  10   2    1.49    0.23
   3  10   2    2.43    0.32
   2   9  -3    1.28    0.23
  -2  -9   3    0.94    0.27
   1   9  -3    0.40    0.17
   1   9  -3    0.37    0.18
  -1  -9   3    0.11    0.28
  -1  -9   3    0.56    0.20
   0   9  -3    5.27    0.39
   0   9  -3    5.54    0.38
   0  -9   3    5.01    0.42
   0  -9   3    5.05    0.46
  -1   9  -3    0.36    0.20
  -1   9  -3    0.43    0.19
  -2   9  -3    4.14    0.37
  -2   9  -3    3.63    0.35
  -3   9  -3    0.18    0.20
  -3   9  -3    0.31    0.20
  -3   9  -3    0.42    0.21
  -4   9  -3    2.37    0.35
   4   8  -3    7.32    0.43
  -4  -8   3    5.85    0.47
   3   8  -3    0.62    0.17
  -3  -8   3    0.29    0.25
   2   8  -3    1.19    0.21
  -2  -8   3    1.02    0.26
   1   8  -3    0.28    0.17
   1   8  -3   -0.04    0.17
  -1  -8   3    0.05    0.18
  -1  -8   3    0.34    0.22
   0   8  -3    1.66    0.30
   0  -8   3    0.99    0.21
   0  -8   3    0.83    0.26
  -1   8  -3    0.11    0.16
   1  -8   3   -0.17    0.24
   1  -8   3   -0.19    0.17
  -2   8  -3    4.86    0.37
  -2   8  -3    5.13    0.36
  -2   8  -3    4.57    0.36
   2  -8   3    4.67    0.37
  -3   8  -3    2.34    0.33
  -3   8  -3    2.75    0.32
  -3   8  -3    2.86    0.35
  -4   8  -3    1.34    0.27
  -4   8  -3    1.93    0.26
  -4   8  -3    2.20    0.33
  -5   8  -3   -0.04    0.20
  -5   8  -3   -0.01    0.20
  -6   8  -3    1.62    0.29
  -6   8  -3    2.08    0.38
   4   7  -3    0.06    0.14
  -4  -7   3   -0.03    0.19
   3   7  -3    2.57    0.28
  -3  -7   3    2.49    0.34
   2   7  -3    4.16    0.30
  -2  -7   3    3.95    0.37
   1   7  -3    0.38    0.14
   1   7  -3    0.42    0.15
  -1  -7   3    0.28    0.15
  -1  -7   3    0.45    0.21
   0   7  -3    1.70    0.25
   0   7  -3    1.78    0.27
   0  -7   3    1.46    0.26
   0  -7   3    1.76    0.26
  -1   7  -3   13.06    0.58
  -1   7  -3   12.69    0.57
  -1   7  -3   13.54    0.58
   1  -7   3   13.01    0.65
   1  -7   3   13.69    0.57
   1  -7   3   13.22    0.59
  -2   7  -3    1.77    0.28
  -2   7  -3    1.84    0.27
  -2   7  -3    2.15    0.28
   2  -7   3    2.08    0.28
   2  -7   3    2.36    0.36
   2  -7   3    1.94    0.24
  -3   7  -3    7.11    0.41
  -3   7  -3    7.21    0.42
  -3   7  -3    7.29    0.42
   3  -7   3    6.76    0.42
   3  -7   3    6.88    0.39
  -4   7  -3   16.62    0.72
  -4   7  -3   17.18    0.72
  -4   7  -3   17.88    0.71
  -5   7  -3   12.62    0.62
  -5   7  -3   11.99    0.59
  -6   7  -3    0.19    0.20
  -6   7  -3   -0.15    0.18
  -7   7  -3   -0.11    0.20
   4   6  -3   15.94    0.64
  -4  -6   3   16.59    0.71
   3   6  -3   15.97    0.63
  -3  -6   3   15.88    0.69
   2   6  -3    0.04    0.13
   2   6  -3   -0.01    0.14
  -2  -6   3   -0.11    0.18
  -2  -6   3    0.04    0.12
   1   6  -3    1.33    0.19
   1   6  -3    1.26    0.19
   1   6  -3    1.37    0.17
  -1  -6   3    1.25    0.23
  -1  -6   3    1.22    0.18
   0   6  -3   18.79    0.75
   0   6  -3   22.35    0.80
   0   6  -3   19.78    0.76
   0   6  -3   18.10    0.80
   0  -6   3   19.86    0.74
   0  -6   3   19.64    0.77
   0  -6   3   19.51    0.81
  -1   6  -3   20.20    0.76
  -1   6  -3   20.41    0.78
  -1   6  -3   20.62    0.83
  -1   6  -3   20.30    0.78
   1  -6   3   19.60    0.76
   1  -6   3   20.38    0.89
   1  -6   3   19.21    0.79
  -2   6  -3    7.18    0.41
  -2   6  -3    7.64    0.41
  -2   6  -3    7.37    0.40
   2  -6   3    7.42    0.49
   2  -6   3    7.37    0.42
   2  -6   3    7.07    0.38
  -3   6  -3    0.84    0.15
  -3   6  -3    0.77    0.17
  -3   6  -3    0.72    0.18
  -3   6  -3    0.66    0.22
   3  -6   3    0.77    0.16
   3  -6   3    0.58    0.22
   3  -6   3    0.61    0.18
  -4   6  -3    0.51    0.16
  -4   6  -3    0.37    0.17
  -4   6  -3    0.13    0.17
  -4   6  -3    0.39    0.13
   4  -6   3    0.36    0.16
   4  -6   3    0.22    0.15
  -5   6  -3    3.39    0.30
  -5   6  -3    2.96    0.30
  -6   6  -3    0.48    0.20
  -7   6  -3    0.28    0.20
  -8   6  -3    3.60    0.37
   4   5  -3    1.97    0.20
  -4  -5   3    1.92    0.27
   3   5  -3   42.15    1.44
  -3  -5   3   44.19    1.52
   2   5  -3    5.97    0.33
   2   5  -3    5.49    0.30
   2   5  -3    4.87    0.29
  -2  -5   3    4.67    0.35
  -2  -5   3    4.56    0.32
  -2  -5   3    4.64    0.33
   1   5  -3    4.55    0.27
   1   5  -3    4.37    0.27
   1   5  -3    4.48    0.24
   1   5  -3    4.74    0.28
  -1  -5   3    4.53    0.31
  -1  -5   3    4.78    0.32
  -1  -5   3    4.53    0.36
  -1  -5   3    4.28    0.35
   0   5  -3   13.36    0.54
   0   5  -3   12.63    0.55
   0   5  -3   13.19    0.52
   0   5  -3   13.20    0.49
   0   5  -3   13.40    0.53
   0   5  -3   13.08    0.56
   0  -5   3   13.12    0.51
   0  -5   3   13.48    0.60
   0  -5   3   12.22    0.60
   0  -5   3   13.08    0.54
   0  -5   3   12.76    0.49
   0  -5   3   12.61    0.58
  -1   5  -3   13.74    0.54
  -1   5  -3   12.94    0.53
  -1   5  -3   13.09    0.50
  -1   5  -3   13.39    0.54
  -1   5  -3   12.61    0.56
  -1   5  -3   13.03    0.57
   1  -5   3   14.43    0.63
   1  -5   3   13.51    0.56
   1  -5   3   13.43    0.54
  -2   5  -3    6.29    0.33
  -2   5  -3    6.25    0.33
  -2   5  -3    5.94    0.34
  -2   5  -3    5.86    0.30
  -2   5  -3    5.85    0.34
  -2   5  -3    6.28    0.34
   2  -5   3    5.87    0.35
   2  -5   3    5.81    0.32
   2  -5   3    5.64    0.41
  -3   5  -3    1.60    0.23
  -3   5  -3    1.78    0.22
  -3   5  -3    1.97    0.19
  -3   5  -3    1.57    0.20
  -3   5  -3    1.69    0.20
  -3   5  -3    2.05    0.24
   3  -5   3    1.81    0.31
   3  -5   3    2.05    0.26
   3  -5   3    1.87    0.22
  -4   5  -3    5.02    0.32
  -4   5  -3    5.59    0.33
  -4   5  -3    4.41    0.32
  -4   5  -3    4.46    0.32
   4  -5   3    4.08    0.40
   4  -5   3    3.63    0.36
  -5   5  -3    5.33    0.35
  -5   5  -3    5.57    0.34
   5  -5   3    5.61    0.33
  -6   5  -3    0.43    0.17
  -6   5  -3    0.35    0.15
  -7   5  -3    3.07    0.33
  -8   5  -3    1.11    0.22
   4   4  -3    7.42    0.35
  -4  -4   3    7.01    0.40
   3   4  -3    8.04    0.37
   3   4  -3    8.32    0.35
  -3  -4   3    8.35    0.44
  -3  -4   3    9.73    0.51
   2   4  -3    1.76    0.20
   2   4  -3    1.42    0.17
   2   4  -3    1.79    0.18
   2   4  -3    1.43    0.16
  -2  -4   3    1.21    0.20
  -2  -4   3    1.48    0.25
  -2  -4   3    1.24    0.17
  -2  -4   3    1.21    0.19
   1   4  -3   15.76    0.63
   1   4  -3   15.81    0.60
   1   4  -3   15.55    0.58
   1   4  -3   16.07    0.55
   1   4  -3   15.55    0.57
   1   4  -3   15.00    0.62
  -1  -4   3   15.98    0.59
  -1  -4   3   14.94    0.65
  -1  -4   3   15.93    0.55
  -1  -4   3   14.61    0.66
  -1  -4   3   15.36    0.63
  -1  -4   3   15.69    0.57
   0   4  -3   10.46    0.46
   0   4  -3   10.24    0.40
   0   4  -3   10.06    0.44
   0   4  -3   10.84    0.47
   0   4  -3   10.99    0.45
   0   4  -3   11.02    0.45
   0  -4   3   10.96    0.43
   0  -4   3   10.66    0.49
   0  -4   3   10.52    0.49
   0  -4   3   10.11    0.51
   0  -4   3   10.72    0.41
   0  -4   3   10.87    0.46
  -1   4  -3    8.98    0.39
  -1   4  -3    8.63    0.41
  -1   4  -3    9.28    0.36
  -1   4  -3    9.21    0.41
  -1   4  -3    8.41    0.38
  -1   4  -3    8.29    0.39
   1  -4   3    8.92    0.36
   1  -4   3    8.33    0.45
   1  -4   3    9.22    0.38
   1  -4   3    8.31    0.42
   1  -4   3    8.55    0.44
   1  -4   3    8.96    0.40
  -2   4  -3    7.89    0.37
  -2   4  -3    7.78    0.39
  -2   4  -3    7.75    0.37
  -2   4  -3    8.10    0.33
  -2   4  -3    8.05    0.37
  -2   4  -3    7.76    0.37
   2  -4   3    7.16    0.34
   2  -4   3    7.26    0.32
   2  -4   3    7.48    0.41
   2  -4   3    7.00    0.39
   2  -4   3    7.67    0.37
  -3   4  -3    4.15    0.25
  -3   4  -3    3.61    0.27
  -3   4  -3    3.99    0.27
  -3   4  -3    3.55    0.26
  -3   4  -3    3.86    0.27
  -3   4  -3    4.01    0.27
   3  -4   3    3.78    0.31
   3  -4   3    3.89    0.27
   3  -4   3    3.65    0.24
  -4   4  -3   11.74    0.47
  -4   4  -3   12.56    0.50
  -4   4  -3   13.21    0.52
  -4   4  -3   11.99    0.53
  -4   4  -3   11.31    0.52
  -4   4  -3   12.18    0.50
   4  -4   3   11.54    0.50
   4  -4   3   12.13    0.55
   4  -4   3   11.85    0.50
  -5   4  -3    0.57    0.16
  -5   4  -3    0.63    0.14
   5  -4   3    0.99    0.24
  -6   4  -3    0.03    0.15
  -6   4  -3    0.81    0.16
  -7   4  -3    1.13    0.19
  -8   4  -3    9.12    0.46
   5   3  -3   31.66    1.11
  -5  -3   3   34.43    1.17
   4   3  -3    3.72    0.20
  -4  -3   3    3.11    0.29
  -4  -3   3    3.34    0.26
   3   3  -3   12.65    0.51
   3   3  -3   13.16    0.49
   3   3  -3   12.50    0.48
   3   3  -3   12.23    0.45
  -3  -3   3   12.62    0.49
  -3  -3   3   12.23    0.54
  -3  -3   3   12.35    0.53
  -3  -3   3   12.80    0.52
   2   3  -3    2.60    0.19
   2   3  -3    2.31    0.19
  -2  -3   3    2.26    0.20
  -2  -3   3    2.29    0.21
  -2  -3   3    2.09    0.24
  -2  -3   3    2.17    0.20
   1   3  -3    0.61    0.10
   1   3  -3    0.47    0.10
   1   3  -3    0.66    0.13
   1   3  -3    0.79    0.14
  -1  -3   3    0.84    0.15
  -1  -3   3    0.51    0.10
  -1  -3   3    0.80    0.15
  -1  -3   3    0.89    0.18
   0   3  -3   43.67    1.52
   0   3  -3   46.70    1.64
   0   3  -3   47.00    1.43
   0   3  -3   46.27    1.62
   0   3  -3   47.07    1.51
   0   3  -3   45.99    1.50
   0  -3   3   46.32    1.51
   0  -3   3   46.48    1.43
   0  -3   3   46.31    1.66
   0  -3   3   45.50    1.56
   0  -3   3   44.31    1.66
   0  -3   3   45.97    1.52
  -1   3  -3    5.07    0.26
  -1   3  -3    5.01    0.26
  -1   3  -3    4.72    0.23
  -1   3  -3    4.45    0.26
  -1   3  -3    4.01    0.27
  -1   3  -3    4.81    0.25
   1  -3   3    4.84    0.25
   1  -3   3    4.90    0.32
   1  -3   3    4.65    0.27
   1  -3   3    5.13    0.28
   1  -3   3    4.71    0.22
   1  -3   3    4.78    0.29
  -2   3  -3    9.35    0.40
  -2   3  -3   10.07    0.37
  -2   3  -3    9.76    0.39
  -2   3  -3    9.70    0.42
  -2   3  -3    9.94    0.41
  -2   3  -3    9.78    0.42
   2  -3   3    9.52    0.44
   2  -3   3   10.39    0.47
   2  -3   3    9.52    0.41
   2  -3   3    9.34    0.37
   2  -3   3    8.86    0.45
   2  -3   3    9.35    0.39
  -3   3  -3   12.03    0.43
  -3   3  -3   11.73    0.45
  -3   3  -3   11.18    0.45
  -3   3  -3   11.65    0.48
  -3   3  -3   11.66    0.48
   3  -3   3   11.32    0.45
   3  -3   3   11.54    0.44
   3  -3   3   11.72    0.54
   3  -3   3   11.58    0.49
   3  -3   3   11.97    0.53
  -4   3  -3   46.93    1.47
  -4   3  -3   46.49    1.68
  -4   3  -3   46.62    1.57
  -4   3  -3   46.25    1.55
  -4   3  -3   45.78    1.55
  -4   3  -3   44.78    1.66
   4  -3   3   45.58    1.60
   4  -3   3   52.32    1.55
  -5   3  -3    6.52    0.34
  -5   3  -3    6.49    0.33
  -5   3  -3    6.68    0.35
  -5   3  -3    7.75    0.36
   5  -3   3    7.03    0.35
   5  -3   3    7.03    0.33
  -6   3  -3    3.21    0.27
  -6   3  -3    2.81    0.29
   6  -3   3    2.88    0.25
  -7   3  -3    3.42    0.27
  -8   3  -3   12.73    0.55
   5   2  -3    3.64    0.24
  -5  -2   3    2.35    0.25
   4   2  -3   18.17    0.63
   4   2  -3   19.02    0.67
  -4  -2   3   19.55    0.72
  -4  -2   3   19.46    0.76
   3   2  -3   12.10    0.45
   3   2  -3   12.12    0.49
   3   2  -3   12.09    0.46
   3   2  -3   11.75    0.42
  -3  -2   3   11.80    0.50
  -3  -2   3   12.47    0.47
  -3  -2   3   12.21    0.50
  -3  -2   3   11.78    0.49
   2   2  -3   11.14    0.47
   2   2  -3   11.31    0.44
   2   2  -3   13.03    0.45
   2   2  -3   11.60    0.47
   2   2  -3   11.28    0.41
  -2  -2   3   11.85    0.44
  -2  -2   3   10.55    0.49
  -2  -2   3   11.97    0.50
  -2  -2   3   11.96    0.47
  -2  -2   3   11.72    0.49
  -2  -2   3   11.87    0.42
   1   2  -3   73.18    2.29
   1   2  -3   71.72    2.41
   1   2  -3   75.08    2.42
   1   2  -3   78.80    2.60
   1   2  -3   75.76    2.63
   1   2  -3   74.86    2.45
  -1  -2   3   73.94    2.62
  -1  -2   3   72.50    2.42
  -1  -2   3   76.94    2.64
  -1  -2   3   76.31    2.43
  -1  -2   3   78.36    2.47
  -1  -2   3   79.60    2.30
   0   2  -3    0.12    0.06
   0   2  -3    0.10    0.09
   0   2  -3   -0.04    0.07
   0   2  -3    0.07    0.07
   0   2  -3    0.13    0.08
   0   2  -3    0.07    0.07
   0  -2   3    0.07    0.08
   0  -2   3    0.02    0.06
   0  -2   3   -0.02    0.05
   0  -2   3    0.03    0.08
   0  -2   3    0.00    0.06
   0  -2   3    0.03    0.07
  -1   2  -3    8.02    0.29
  -1   2  -3    8.04    0.34
  -1   2  -3    7.75    0.31
  -1   2  -3    7.63    0.32
  -1   2  -3    7.62    0.31
  -1   2  -3    7.87    0.33
   1  -2   3    7.87    0.32
   1  -2   3    7.93    0.36
   1  -2   3    8.01    0.36
   1  -2   3    8.26    0.30
   1  -2   3    7.72    0.36
   1  -2   3    8.22    0.33
  -2   2  -3    0.21    0.07
  -2   2  -3    0.09    0.07
  -2   2  -3    0.30    0.09
  -2   2  -3    0.20    0.08
  -2   2  -3    0.28    0.08
   2  -2   3    0.22    0.07
   2  -2   3    0.17    0.10
   2  -2   3    0.23    0.09
   2  -2   3    0.21    0.07
   2  -2   3    0.23    0.06
   2  -2   3    0.16    0.08
  -3   2  -3    0.09    0.07
  -3   2  -3    0.10    0.08
  -3   2  -3    0.33    0.10
  -3   2  -3    0.32    0.08
  -3   2  -3    0.06    0.08
   3  -2   3    0.13    0.06
   3  -2   3    0.17    0.10
   3  -2   3    0.13    0.07
   3  -2   3    0.22    0.12
   3  -2   3    0.11    0.08
   3  -2   3    0.12    0.08
  -4   2  -3   28.76    0.89
  -4   2  -3   27.77    0.94
  -4   2  -3   27.43    1.01
  -4   2  -3   28.11    0.96
  -4   2  -3   28.13    1.02
  -4   2  -3   27.38    0.94
   4  -2   3   27.90    0.96
   4  -2   3   28.60    0.98
   4  -2   3   28.12    0.95
  -5   2  -3   36.26    1.29
  -5   2  -3   35.33    1.27
  -5   2  -3   35.53    1.19
  -5   2  -3   35.78    1.21
   5  -2   3   35.16    1.19
   5  -2   3   36.54    1.20
  -6   2  -3    2.11    0.20
  -6   2  -3    2.09    0.18
   6  -2   3    1.97    0.22
  -7   2  -3    2.03    0.22
   5   1  -3    0.39    0.10
  -5  -1   3    0.03    0.11
  -5  -1   3    0.20    0.13
   4   1  -3    6.64    0.28
   4   1  -3    7.04    0.31
  -4  -1   3    7.42    0.34
  -4  -1   3    7.19    0.34
   3   1  -3    0.36    0.08
   3   1  -3    0.24    0.10
  -3  -1   3    0.14    0.09
  -3  -1   3    0.40    0.11
  -3  -1   3    0.17    0.09
  -3  -1   3    0.20    0.10
   2   1  -3    4.36    0.23
   2   1  -3    4.33    0.20
   2   1  -3    4.80    0.23
   2   1  -3    4.05    0.22
   2   1  -3    4.60    0.24
   2   1  -3    4.81    0.24
  -2  -1   3    4.67    0.25
  -2  -1   3    5.34    0.26
  -2  -1   3    4.28    0.23
  -2  -1   3    4.43    0.24
  -2  -1   3    4.22    0.22
  -2  -1   3    4.25    0.20
   1   1  -3   11.16    0.41
   1   1  -3   10.88    0.42
   1   1  -3   11.39    0.45
   1   1  -3   10.94    0.42
   1   1  -3   11.45    0.39
   1   1  -3   11.76    0.45
  -1  -1   3   11.28    0.42
  -1  -1   3   11.77    0.39
  -1  -1   3   11.00    0.43
  -1  -1   3   11.09    0.45
  -1  -1   3   11.63    0.46
  -1  -1   3   11.02    0.41
   0   1  -3    1.83    0.13
   0   1  -3    1.75    0.13
   0   1  -3    1.89    0.14
   0   1  -3    1.80    0.13
   0   1  -3    1.82    0.11
   0   1  -3    1.92    0.14
   0  -1   3    1.94    0.16
   0  -1   3    1.87    0.15
   0  -1   3    1.88    0.13
   0  -1   3    1.88    0.12
   0  -1   3    1.91    0.14
   0  -1   3    1.99    0.15
  -1   1  -3  184.77    6.20
  -1   1  -3  188.40    6.28
  -1   1  -3  182.71    5.51
  -1   1  -3  184.64    5.83
  -1   1  -3  184.87    5.78
  -1   1  -3  175.20    5.75
   1  -1   3  196.88    6.26
   1  -1   3  179.83    5.78
   1  -1   3  170.14    5.78
   1  -1   3  178.31    6.30
   1  -1   3  182.96    5.85
   1  -1   3  180.98    5.50
  -2   1  -3   37.66    1.30
  -2   1  -3   35.92    1.21
  -2   1  -3   37.45    1.15
  -2   1  -3   35.09    1.21
  -2   1  -3   37.86    1.31
  -2   1  -3   35.58    1.22
  -2   1  -3   37.40    1.31
   2  -1   3   39.16    1.15
   2  -1   3   37.99    1.15
   2  -1   3   37.94    1.33
   2  -1   3   36.52    1.24
   2  -1   3   38.12    1.32
   2  -1   3   37.72    1.21
   2  -1   3   36.95    1.22
  -3   1  -3    2.45    0.16
  -3   1  -3    2.65    0.18
  -3   1  -3    2.60    0.16
  -3   1  -3    2.66    0.19
  -3   1  -3    2.28    0.14
  -3   1  -3    2.36    0.14
  -3   1  -3    2.27    0.15
   3  -1   3    2.52    0.17
   3  -1   3    2.32    0.16
   3  -1   3    2.64    0.16
   3  -1   3    2.55    0.13
   3  -1   3    2.62    0.19
   3  -1   3    2.47    0.13
   3  -1   3    2.62    0.19
  -4   1  -3    7.49    0.32
  -4   1  -3    7.55    0.33
  -4   1  -3    7.24    0.31
  -4   1  -3    7.87    0.33
  -4   1  -3    7.81    0.29
  -4   1  -3    7.81    0.36
   4  -1   3    8.20    0.35
   4  -1   3    7.84    0.32
   4  -1   3    8.03    0.29
   4  -1   3    7.55    0.32
   4  -1   3    7.95    0.28
  -5   1  -3    6.92    0.30
  -5   1  -3    6.49    0.30
  -5   1  -3    7.08    0.29
  -5   1  -3    7.09    0.30
   5  -1   3    6.93    0.29
   5  -1   3    7.04    0.31
   6   0  -3    2.07    0.22
  -6   0   3    1.81    0.23
   5   0  -3    0.19    0.09
   5   0  -3   -0.11    0.10
  -5   0   3    0.01    0.12
  -5   0   3    0.00    0.11
   4   0  -3    0.87    0.13
  -4   0   3    0.75    0.14
  -4   0   3    0.69    0.13
  -3   0   3    0.59    0.11
  -3   0   3    0.68    0.13
  -3   0   3    0.71    0.13
  -3   0   3    0.68    0.13
   2   0  -3    7.68    0.31
   2   0  -3    6.94    0.30
   2   0  -3    7.37    0.32
   2   0  -3    7.57    0.33
   2   0  -3    7.34    0.28
   2   0  -3    7.54    0.33
  -2   0   3    7.55    0.33
  -2   0   3    7.72    0.31
  -2   0   3    7.42    0.32
  -2   0   3    7.38    0.33
  -2   0   3    7.06    0.31
  -2   0   3    7.56    0.29
   1   0  -3   10.57    0.37
   1   0  -3   10.16    0.40
   1   0  -3   10.32    0.42
   1   0  -3    9.82    0.39
   1   0  -3   10.58    0.39
   1   0  -3   10.65    0.42
  -1   0   3   11.39    0.44
  -1   0   3   10.96    0.38
  -1   0   3   10.74    0.43
  -1   0   3   10.95    0.41
  -1   0   3   11.63    0.41
  -1   0   3   10.33    0.39
   0   0  -3    3.84    0.20
   0   0  -3    3.92    0.18
   0   0  -3    4.25    0.19
   0   0  -3    3.98    0.20
   0   0   3    3.73    0.20
   0   0   3    3.71    0.19
   0   0   3    4.06    0.20
   0   0   3    3.49    0.20
   0   0   3    3.96    0.20
   0   0   3    4.07    0.17
  -1   0  -3    6.07    0.24
  -1   0  -3    6.20    0.28
  -1   0  -3    5.94    0.29
  -1   0  -3    5.30    0.24
   1   0   3    5.03    0.27
   1   0   3    5.16    0.26
   1   0   3    6.08    0.26
   1   0   3    5.43    0.22
   1   0   3    7.01    0.30
   1   0   3    5.47    0.23
  -2   0  -3   21.77    0.85
  -2   0  -3   23.10    0.84
  -2   0  -3   25.12    0.85
  -2   0  -3   25.23    0.79
  -2   0  -3   26.76    0.78
  -2   0  -3   23.60    0.80
   2   0   3   23.20    0.74
   2   0   3   26.20    0.86
   2   0   3   25.14    0.85
   2   0   3   21.98    0.79
   2   0   3   23.22    0.85
   2   0   3   20.40    0.77
   2   0   3   22.94    0.74
   2   0   3   21.66    0.81
  -3   0  -3   36.29    1.26
  -3   0  -3   37.01    1.27
  -3   0  -3   37.08    1.28
  -3   0  -3   35.77    1.11
  -3   0  -3   33.54    1.17
  -3   0  -3   35.83    1.27
  -3   0  -3   34.87    1.19
   3   0   3   36.80    1.28
   3   0   3   35.30    1.18
   3   0   3   38.49    1.29
   3   0   3   36.36    1.12
   3   0   3   37.28    1.11
   3   0   3   36.67    1.28
   3   0   3   36.26    1.18
  -4   0  -3    0.99    0.08
  -4   0  -3    1.20    0.13
  -4   0  -3    1.20    0.15
  -4   0  -3    0.82    0.11
  -4   0  -3    1.08    0.14
   4   0   3    1.20    0.14
   4   0   3    1.35    0.10
   4   0   3    1.10    0.12
   4   0   3    1.26    0.09
   4   0   3    1.10    0.12
   4   0   3    0.88    0.14
   4   0   3    1.17    0.09
  -5   0  -3    2.01    0.18
  -5   0  -3    2.34    0.15
   5   0   3    2.23    0.15
   6  -1  -3    3.06    0.24
  -6   1   3    2.37    0.24
   5  -1  -3    6.38    0.32
   5  -1  -3    6.02    0.28
  -5   1   3    5.81    0.33
  -5   1   3    5.92    0.33
   4  -1  -3    5.15    0.31
   4  -1  -3    5.85    0.27
   4  -1  -3    5.00    0.30
   4  -1  -3    6.57    0.30
  -4   1   3    5.68    0.29
  -4   1   3    6.49    0.31
  -4   1   3    5.32    0.28
  -4   1   3    5.59    0.30
   3  -1  -3    4.04    0.27
   3  -1  -3    3.56    0.21
   3  -1  -3    3.49    0.25
   3  -1  -3    4.15    0.25
  -3   1   3    4.37    0.25
  -3   1   3    3.07    0.24
   2  -1  -3  189.05    5.61
   2  -1  -3  174.70    5.92
   2  -1  -3  193.56    6.44
   2  -1  -3  196.01    6.36
   2  -1  -3  183.51    6.01
   2  -1  -3  189.28    5.93
  -2   1   3  192.54    5.62
  -2   1   3  183.42    6.05
  -2   1   3  186.62    6.50
  -2   1   3  189.34    5.93
  -2   1   3  195.82    6.37
  -2   1   3  180.84    5.95
   1  -1  -3   32.45    0.98
   1  -1  -3   30.64    1.13
   1  -1  -3   31.56    1.12
   1  -1  -3   32.09    1.04
   1  -1  -3   30.08    1.03
   1  -1  -3   30.39    1.05
  -1   1   3   31.49    1.04
  -1   1   3   30.54    1.05
  -1   1   3   32.04    1.13
  -1   1   3   32.15    1.04
  -1   1   3   31.69    1.12
  -1   1   3   32.15    0.98
   0  -1  -3   21.76    0.72
   0  -1  -3   21.09    0.78
   0  -1  -3   20.65    0.71
   0  -1  -3   21.04    0.77
   0  -1  -3   20.99    0.73
   0  -1  -3   22.10    0.67
   0   1   3   20.90    0.71
   0   1   3   20.95    0.67
   0   1   3   20.83    0.71
   0   1   3   22.15    0.77
   0   1   3   21.12    0.77
   0   1   3   19.96    0.72
  -1  -1  -3  198.75    6.65
  -1  -1  -3  202.24    6.74
  -1  -1  -3  193.68    6.27
  -1  -1  -3  195.47    6.21
  -1  -1  -3  195.57    6.19
  -1  -1  -3  201.93    5.89
  -1  -1  -3  206.12    6.64
   1   1   3  202.34    5.93
   1   1   3  191.08    6.24
   1   1   3  190.07    6.81
   1   1   3  201.26    5.94
   1   1   3  191.05    6.25
   1   1   3  195.60    6.72
   1   1   3  191.57    6.32
  -2  -1  -3   12.18    0.41
  -2  -1  -3   10.09    0.43
  -2  -1  -3   12.74    0.42
  -2  -1  -3   10.99    0.43
  -2  -1  -3   10.79    0.37
  -2  -1  -3   12.05    0.43
  -2  -1  -3   12.54    0.43
   2   1   3   10.57    0.37
   2   1   3    9.95    0.42
   2   1   3    9.91    0.39
   2   1   3   10.03    0.40
   2   1   3   11.78    0.43
   2   1   3   10.86    0.42
  -3  -1  -3   60.98    2.08
  -3  -1  -3   59.32    2.05
  -3  -1  -3   61.99    2.08
  -3  -1  -3   56.83    1.91
  -3  -1  -3   56.99    1.94
  -3  -1  -3   60.18    2.05
  -3  -1  -3   60.79    1.81
   3   1   3   60.38    1.81
   3   1   3   63.06    2.08
   3   1   3   60.74    2.06
   3   1   3   62.15    2.08
   3   1   3   61.09    1.82
   3   1   3   58.11    1.91
   3   1   3   59.60    1.92
  -4  -1  -3    1.14    0.10
  -4  -1  -3    1.27    0.10
  -4  -1  -3    1.30    0.11
  -4  -1  -3    1.29    0.10
   4   1   3    1.26    0.07
   4   1   3    1.24    0.10
   4   1   3    1.24    0.11
   4   1   3    1.23    0.09
   7  -2  -3    2.93    0.26
  -7   2   3    2.82    0.26
  -6   2   3    1.19    0.22
  -5   2   3    4.52    0.30
   4  -2  -3    2.14    0.22
   4  -2  -3    1.84    0.17
  -4   2   3    1.54    0.22
  -4   2   3    2.10    0.18
  -4   2   3    2.20    0.20
  -4   2   3    2.06    0.19
   3  -2  -3    1.14    0.19
   3  -2  -3    0.91    0.14
  -3   2   3    0.61    0.14
  -3   2   3    0.90    0.12
  -3   2   3    0.74    0.14
  -3   2   3    0.95    0.14
   2  -2  -3    0.10    0.07
   2  -2  -3    0.12    0.09
   2  -2  -3    0.12    0.10
   2  -2  -3    0.03    0.10
  -2   2   3    0.07    0.07
  -2   2   3    0.13    0.07
  -2   2   3    0.12    0.07
  -2   2   3    0.07    0.07
  -2   2   3    0.16    0.09
  -2   2   3    0.06    0.07
   1  -2  -3  122.41    4.30
   1  -2  -3  122.59    4.24
   1  -2  -3  128.71    3.74
  -1   2   3  127.49    4.30
  -1   2   3  127.85    3.75
  -1   2   3  122.23    3.95
  -1   2   3  126.34    4.00
  -1   2   3  125.67    4.24
  -1   2   3  118.86    3.95
   0  -2  -3    0.92    0.12
   0  -2  -3    0.97    0.10
   0  -2  -3    0.94    0.12
   0   2   3    0.94    0.12
   0   2   3    0.97    0.10
   0   2   3    0.98    0.09
   0   2   3    0.97    0.10
   0   2   3    0.92    0.12
   0   2   3    0.90    0.12
  -1  -2  -3   52.15    1.59
  -1  -2  -3   48.16    1.67
  -1  -2  -3   53.98    1.81
  -1  -2  -3   54.47    1.83
  -1  -2  -3   54.36    1.81
   1   2   3   51.98    1.69
   1   2   3   51.46    1.83
   1   2   3   55.07    1.60
   1   2   3   51.21    1.68
   1   2   3   49.39    1.70
   1   2   3   52.83    1.60
   1   2   3   53.62    1.81
  -2  -2  -3    0.00    0.05
  -2  -2  -3    0.02    0.05
  -2  -2  -3   -0.06    0.04
  -2  -2  -3   -0.09    0.05
  -2  -2  -3    0.01    0.05
  -2  -2  -3    0.07    0.06
   2   2   3   -0.09    0.05
   2   2   3    0.03    0.05
   2   2   3    0.01    0.04
   2   2   3   -0.02    0.04
   2   2   3   -0.01    0.04
   2   2   3    0.01    0.04
   2   2   3   -0.01    0.04
  -3  -2  -3    4.07    0.18
  -3  -2  -3    3.72    0.18
  -3  -2  -3    4.09    0.15
  -3  -2  -3    4.07    0.19
  -3  -2  -3    3.70    0.18
  -3  -2  -3    4.16    0.18
   3   2   3    3.84    0.18
   3   2   3    3.72    0.15
   3   2   3    3.84    0.18
   3   2   3    3.70    0.16
   3   2   3    3.45    0.18
   3   2   3    3.56    0.18
  -4  -2  -3   21.70    0.79
  -4  -2  -3   21.46    0.78
  -4  -2  -3   22.02    0.79
  -4  -2  -3   20.09    0.75
  -4  -2  -3   21.81    0.79
   4   2   3   22.25    0.69
   4   2   3   25.82    0.74
   4   2   3   25.46    0.80
  -7   3   3    2.69    0.27
  -6   3   3    7.69    0.39
  -5   3   3    0.35    0.14
   4  -3  -3    4.80    0.33
   4  -3  -3    4.93    0.27
  -4   3   3    5.20    0.31
  -4   3   3    5.48    0.31
  -4   3   3    4.72    0.31
  -4   3   3    5.37    0.31
   3  -3  -3   15.77    0.68
   3  -3  -3   16.76    0.58
   3  -3  -3   17.71    0.69
  -3   3   3   16.11    0.61
  -3   3   3   16.36    0.66
  -3   3   3   16.51    0.66
  -3   3   3   16.77    0.62
  -3   3   3   16.59    0.58
  -3   3   3   15.63    0.61
   2  -3  -3  114.43    3.46
   2  -3  -3  114.26    3.93
   2  -3  -3  108.20    3.98
  -2   3   3  116.15    3.93
  -2   3   3  112.99    3.66
  -2   3   3  114.30    3.98
  -2   3   3  118.04    3.47
  -2   3   3  117.61    3.66
  -2   3   3  115.58    3.70
   1  -3  -3  149.26    5.30
   1  -3  -3  154.66    4.68
   1  -3  -3  147.38    5.38
  -1   3   3  159.76    5.37
  -1   3   3  162.00    5.31
  -1   3   3  163.81    5.01
  -1   3   3  158.44    4.69
  -1   3   3  148.68    4.94
  -1   3   3  160.62    4.95
   0  -3  -3    0.91    0.13
   0  -3  -3    0.89    0.11
   0  -3  -3    0.95    0.15
   0   3   3    0.76    0.09
   0   3   3    0.82    0.10
   0   3   3    0.88    0.10
   0   3   3    0.83    0.11
   0   3   3    0.81    0.10
   0   3   3    0.72    0.12
  -1  -3  -3   -0.01    0.08
  -1  -3  -3    0.01    0.08
   1   3   3    0.20    0.07
   1   3   3    0.18    0.07
   1   3   3    0.22    0.06
   1   3   3    0.12    0.07
   1   3   3    0.24    0.08
   1   3   3    0.19    0.06
  -2  -3  -3   73.27    2.53
  -2  -3  -3   75.25    2.53
  -2  -3  -3   76.04    2.57
  -2  -3  -3   74.82    2.23
   2   3   3   72.07    2.36
   2   3   3   73.67    2.24
   2   3   3   75.72    2.53
   2   3   3   73.65    2.56
   2   3   3   71.43    2.36
   2   3   3   73.28    2.38
  -3  -3  -3   37.58    1.25
  -3  -3  -3   34.87    1.08
  -3  -3  -3   35.58    1.23
  -3  -3  -3   35.29    1.24
  -3  -3  -3   35.59    1.24
   3   3   3   33.92    1.14
   3   3   3   34.59    1.15
   3   3   3   34.87    1.23
   3   3   3   35.92    1.24
   3   3   3   34.96    1.09
  -4  -3  -3    3.84    0.20
   4   3   3    3.79    0.17
   4   3   3    4.55    0.20
  -7   4   3    3.98    0.31
  -6   4   3    1.50    0.28
  -5   4   3    0.80    0.16
  -5   4   3    0.61    0.15
   4  -4  -3    0.07    0.15
  -4   4   3   -0.27    0.17
  -4   4   3    0.07    0.11
   3  -4  -3    9.54    0.40
   3  -4  -3    9.99    0.49
   3  -4  -3    9.89    0.49
  -3   4   3   11.26    0.46
  -3   4   3   10.95    0.46
  -3   4   3    9.62    0.43
  -3   4   3   10.11    0.47
  -3   4   3   10.43    0.41
  -3   4   3    9.57    0.46
  -2   4   3   67.78    2.19
  -2   4   3   65.68    2.38
  -2   4   3   68.33    2.21
  -2   4   3   65.81    2.35
  -2   4   3   68.50    2.19
  -2   4   3   65.83    2.08
  -1   4   3   91.01    3.21
  -1   4   3   93.11    2.81
  -1   4   3   89.69    3.17
  -1   4   3   91.06    2.96
  -1   4   3   93.01    2.99
  -1   4   3   93.69    2.96
   0   4   3    8.52    0.36
   0   4   3    8.44    0.36
   0   4   3    8.22    0.38
   0   4   3    8.69    0.37
   0   4   3    8.67    0.34
   0   4   3    8.46    0.38
   1   4   3    0.25    0.09
   1   4   3    0.16    0.09
   1   4   3    0.26    0.09
   1   4   3    0.17    0.09
   1   4   3    0.23    0.09
   2   4   3   16.86    0.64
   2   4   3   16.42    0.60
   2   4   3   17.06    0.64
   2   4   3   16.75    0.56
   2   4   3   17.11    0.60
   2   4   3   17.03    0.60
   3   4   3  110.94    3.58
   3   4   3  115.71    3.60
   3   4   3  113.47    3.90
   3   4   3  112.76    3.40
  -4  -4  -3   19.75    0.71
   4   4   3   19.46    0.68
   4   4   3   19.18    0.63
  -7   5   3    0.92    0.23
  -6   5   3    0.60    0.18
  -5   5   3    3.38    0.29
  -5   5   3    3.00    0.27
  -4   5   3    0.73    0.17
  -4   5   3    0.38    0.15
  -3   5   3    0.77    0.16
  -3   5   3    0.90    0.17
  -3   5   3    0.73    0.16
  -3   5   3    0.64    0.15
  -2   5   3   21.35    0.86
  -2   5   3   22.80    0.80
  -2   5   3   20.72    0.85
  -2   5   3   22.08    0.80
  -2   5   3   21.75    0.80
  -2   5   3   20.75    0.75
  -1   5   3    0.07    0.10
  -1   5   3   -0.02    0.10
  -1   5   3    0.03    0.09
  -1   5   3    0.17    0.09
  -1   5   3    0.11    0.11
  -1   5   3    0.10    0.11
   0   5   3    1.05    0.18
   0   5   3    1.14    0.17
   0   5   3    1.45    0.19
   0   5   3    1.22    0.18
   0   5   3    1.43    0.17
   1   5   3   31.61    1.06
   1   5   3   30.36    1.06
   1   5   3   31.51    1.08
   1   5   3   29.47    1.00
   1   5   3   30.54    1.14
   1   5   3   31.67    1.13
   2   5   3    3.21    0.26
   2   5   3    2.59    0.22
   2   5   3    3.11    0.20
   2   5   3    3.16    0.24
   3   5   3    2.29    0.19
   3   5   3    2.85    0.22
   3   5   3    2.49    0.17
   3   5   3    1.84    0.22
   4   5   3    2.84    0.23
   4   5   3    3.25    0.17
  -6   6   3    0.33    0.17
  -5   6   3    2.09    0.31
  -5   6   3    2.10    0.31
  -4   6   3   -0.04    0.14
  -4   6   3    0.02    0.14
  -3   6   3    8.45    0.46
  -3   6   3    8.75    0.45
  -3   6   3    8.44    0.40
  -3   6   3    8.92    0.44
  -2   6   3    4.96    0.33
  -2   6   3    4.06    0.36
  -2   6   3    3.41    0.31
  -2   6   3    3.75    0.31
  -1   6   3   17.76    0.68
  -1   6   3   16.84    0.72
  -1   6   3   17.61    0.72
  -1   6   3   17.79    0.68
  -1   6   3   17.07    0.63
  -1   6   3   17.48    0.67
   0   6   3    0.01    0.11
   0   6   3    0.30    0.12
   0   6   3    0.08    0.12
   0   6   3   -0.01    0.12
   0   6   3   -0.03    0.11
   0   6   3    0.08    0.13
   1   6   3    1.33    0.20
   1   6   3    1.76    0.21
   1   6   3    1.09    0.16
   1   6   3    1.48    0.22
   1   6   3    1.19    0.16
   2   6   3   44.23    1.64
   2   6   3   45.46    1.52
   2   6   3   47.22    1.52
   2   6   3   44.36    1.44
   3   6   3   11.60    0.46
   3   6   3   11.61    0.48
   3   6   3   11.48    0.44
   4   6   3   10.58    0.45
   4   6   3    9.80    0.41
  -6   7   3    0.70    0.23
  -5   7   3   -0.08    0.16
  -5   7   3    0.10    0.17
  -4   7   3    3.03    0.35
  -4   7   3    2.09    0.29
  -3   7   3    9.00    0.47
  -3   7   3    9.06    0.47
  -3   7   3    9.56    0.47
  -2   7   3    0.11    0.17
  -2   7   3    0.19    0.15
  -2   7   3   -0.18    0.17
  -1   7   3   14.01    0.61
  -1   7   3   14.35    0.60
  -1   7   3   14.36    0.62
  -1   7   3   14.05    0.63
   0   7   3    0.24    0.16
   0   7   3    0.35    0.15
   0   7   3   -0.36    0.19
   1   7   3    0.42    0.16
   1   7   3    0.14    0.16
   3   7   3   16.88    0.67
   4   7   3   12.47    0.53
  -5   8   3    0.70    0.22
  -5   8   3    0.06    0.21
  -4   8   3    0.38    0.18
  -4   8   3    0.34    0.18
  -3   8   3    0.21    0.17
  -3   8   3    0.15    0.18
  -3   8   3   -0.02    0.18
  -2   8   3    4.63    0.34
  -2   8   3    5.06    0.36
  -2   8   3    4.58    0.34
  -1   8   3    0.28    0.17
  -1   8   3    0.33    0.17
  -1   8   3    0.38    0.17
   0   8   3    2.11    0.28
   0   8   3    2.09    0.29
   1   8   3    3.11    0.29
   1   8   3    2.67    0.30
   2   8   3    0.44    0.16
   2   8   3    0.60    0.17
   3   8   3    0.13    0.15
   4   8   3    1.57    0.25
  -4   9   3    0.04    0.21
  -4   9   3    0.14    0.18
  -3   9   3    0.58    0.19
  -3   9   3    0.60    0.18
  -3   9   3    0.37    0.19
  -2   9   3    1.34    0.23
  -2   9   3    1.58    0.28
  -2   9   3    1.59    0.27
  -1   9   3    0.66    0.19
  -1   9   3    0.51    0.20
  -1   9   3    0.34    0.20
   0   9   3    0.97    0.21
   1   9   3    7.14    0.47
   1   9   3    7.90    0.46
   2   9   3    1.46    0.23
   2   9   3    1.44    0.24
   3   9   3    5.12    0.38
   4   9   3    0.52    0.17
  -2  10   3    0.72    0.23
  -2  10   3    0.57    0.23
  -1  10   3   -0.01    0.17
  -1  10   3    0.11    0.17
   0  10   3    0.37    0.20
   0  10   3    0.29    0.19
   1  10   3   -0.10    0.17
   1  10   3   -0.18    0.17
   2  10   3    5.98    0.40
   3  10   3    2.60    0.30
   4  10   3    3.84    0.39
   0   9  -4    0.45    0.20
   0   9  -4    0.75    0.22
   0  -9   4    0.34    0.21
   0  -9   4    0.47    0.26
  -1   9  -4    3.05    0.34
  -1   9  -4    3.20    0.34
   1  -9   4    2.90    0.35
   1  -9   4    2.92    0.43
  -2   9  -4    0.97    0.23
  -2   9  -4    0.89    0.22
   2  -9   4    0.60    0.22
   2  -9   4    0.80    0.29
  -3   9  -4    4.62    0.43
  -3   9  -4    4.41    0.43
  -3   9  -4    5.38    0.42
   3   8  -4    5.91    0.39
  -3  -8   4    4.77    0.45
   2   8  -4   -0.03    0.15
  -2  -8   4   -0.42    0.26
   1   8  -4    3.41    0.33
   1   8  -4    3.93    0.32
  -1  -8   4    2.83    0.39
  -1  -8   4    3.54    0.34
   0   8  -4    3.41    0.33
   0   8  -4    2.84    0.34
   0  -8   4    3.35    0.34
   0  -8   4    3.26    0.40
  -1   8  -4    0.51    0.21
   1  -8   4    0.13    0.24
   1  -8   4    0.42    0.20
  -2   8  -4    1.34    0.24
  -2   8  -4    1.65    0.30
  -2   8  -4    1.40    0.25
   2  -8   4    1.20    0.24
   2  -8   4    1.50    0.26
   2  -8   4    1.26    0.29
  -3   8  -4    2.21    0.32
  -3   8  -4    2.70    0.34
  -3   8  -4    1.90    0.32
   3  -8   4    2.84    0.30
   3  -8   4    2.87    0.34
   3  -8   4    2.43    0.43
  -4   8  -4    1.78    0.31
  -4   8  -4    1.83    0.30
  -4   8  -4    1.45    0.25
  -5   8  -4    0.98    0.24
  -5   8  -4    0.76    0.22
   4   7  -4   -0.12    0.15
  -4  -7   4    0.00    0.21
   3   7  -4    1.07    0.19
  -3  -7   4    0.96    0.24
   2   7  -4    5.08    0.37
  -2  -7   4    5.37    0.44
   1   7  -4    3.89    0.31
   1   7  -4    3.49    0.29
  -1  -7   4    4.31    0.36
  -1  -7   4    2.88    0.40
   0   7  -4    1.06    0.19
   0   7  -4    1.17    0.19
   0  -7   4    0.89    0.19
   0  -7   4    0.93    0.24
  -1   7  -4    9.19    0.47
  -1   7  -4    9.50    0.48
  -1   7  -4    9.06    0.46
   1  -7   4    9.38    0.55
   1  -7   4    9.17    0.49
   1  -7   4    9.41    0.46
  -2   7  -4    0.64    0.17
  -2   7  -4    0.62    0.18
  -2   7  -4    0.47    0.18
   2  -7   4    0.43    0.17
   2  -7   4    0.60    0.17
   2  -7   4    0.52    0.22
  -3   7  -4    0.14    0.16
  -3   7  -4   -0.05    0.16
  -3   7  -4    0.02    0.15
   3  -7   4   -0.10    0.20
   3  -7   4    0.09    0.15
   3  -7   4   -0.02    0.17
  -4   7  -4    3.20    0.31
   4  -7   4    3.06    0.37
   4  -7   4    2.60    0.31
  -5   7  -4    4.55    0.38
  -5   7  -4    4.45    0.39
  -6   7  -4    8.10    0.47
  -6   7  -4    7.84    0.47
  -7   7  -4    2.09    0.37
   4   6  -4    3.15    0.27
  -4  -6   4    2.96    0.34
   3   6  -4    3.53    0.28
  -3  -6   4    3.66    0.37
   2   6  -4    0.43    0.14
  -2  -6   4    0.27    0.18
   1   6  -4    0.42    0.14
   1   6  -4    0.64    0.15
  -1  -6   4    0.32    0.19
  -1  -6   4    0.32    0.15
   0   6  -4    3.69    0.30
   0   6  -4    3.10    0.28
   0  -6   4    3.93    0.47
  -1   6  -4    2.32    0.29
  -1   6  -4    2.22    0.24
   1  -6   4    1.66    0.21
   1  -6   4    1.90    0.34
   1  -6   4    1.51    0.23
  -2   6  -4   -0.12    0.16
  -2   6  -4    0.02    0.17
  -2   6  -4   -0.11    0.16
   2  -6   4   -0.13    0.16
   2  -6   4   -0.12    0.19
  -3   6  -4   16.80    0.68
  -3   6  -4   15.92    0.67
  -3   6  -4   16.64    0.67
   3  -6   4   17.03    0.76
   3  -6   4   15.77    0.69
   3  -6   4   16.12    0.67
  -4   6  -4    2.00    0.28
  -4   6  -4    1.90    0.27
  -4   6  -4    2.02    0.27
   4  -6   4    1.82    0.27
   4  -6   4    2.00    0.24
   4  -6   4    2.36    0.39
  -5   6  -4    0.52    0.17
  -5   6  -4    0.51    0.18
   5  -6   4    0.35    0.17
   5  -6   4    0.40    0.16
  -6   6  -4    5.76    0.40
  -6   6  -4    5.61    0.39
  -7   6  -4    6.43    0.42
  -8   6  -4    1.00    0.27
   4   5  -4    2.77    0.24
  -4  -5   4    1.82    0.30
   3   5  -4    0.11    0.12
  -3  -5   4    0.27    0.17
   2   5  -4    3.37    0.27
   2   5  -4    3.54    0.26
   2   5  -4    3.97    0.27
  -2  -5   4    3.62    0.33
  -2  -5   4    3.44    0.28
  -2  -5   4    3.49    0.28
   1   5  -4    9.96    0.47
   1   5  -4   10.44    0.47
  -1  -5   4   10.20    0.47
  -1  -5   4    9.25    0.50
  -1  -5   4   10.30    0.53
   0   5  -4   15.92    0.67
   0   5  -4   16.12    0.67
   0   5  -4   16.80    0.65
   0   5  -4   16.20    0.63
   0   5  -4   15.65    0.63
   0  -5   4   17.18    0.74
   0  -5   4   15.00    0.71
   0  -5   4   14.90    0.64
   0  -5   4   15.88    0.60
   0  -5   4   17.37    0.71
  -1   5  -4    0.78    0.13
  -1   5  -4    0.83    0.15
  -1   5  -4    0.75    0.15
  -1   5  -4    0.79    0.16
  -1   5  -4    0.74    0.14
  -1   5  -4    0.68    0.15
   1  -5   4    0.42    0.21
   1  -5   4    0.34    0.18
   1  -5   4    0.70    0.14
   1  -5   4    0.45    0.20
   1  -5   4    1.29    0.20
  -2   5  -4   32.99    1.29
  -2   5  -4   34.83    1.20
  -2   5  -4   35.98    1.22
  -2   5  -4   34.33    1.28
  -2   5  -4   34.12    1.19
  -2   5  -4   34.88    1.14
   2  -5   4   34.95    1.20
   2  -5   4   35.77    1.23
   2  -5   4   31.70    1.34
   2  -5   4   34.16    1.27
  -3   5  -4    0.18    0.14
  -3   5  -4    0.09    0.13
  -3   5  -4   -0.07    0.13
  -3   5  -4   -0.07    0.12
  -3   5  -4   -0.08    0.15
   3  -5   4    0.27    0.28
   3  -5   4    0.65    0.22
  -4   5  -4    0.25    0.19
  -4   5  -4    0.60    0.26
  -4   5  -4    0.79    0.15
  -4   5  -4    0.83    0.16
   4  -5   4    0.76    0.16
   4  -5   4    0.69    0.22
   4  -5   4    0.72    0.18
  -5   5  -4    2.93    0.29
  -5   5  -4    2.55    0.28
   5  -5   4    2.78    0.28
   5  -5   4    2.85    0.26
  -6   5  -4    3.06    0.29
  -6   5  -4    3.64    0.29
   6  -5   4    2.98    0.27
  -7   5  -4   34.70    1.26
  -8   5  -4    4.14    0.34
  -5  -4   4    0.00    0.15
   4   4  -4    0.80    0.14
  -4  -4   4    0.97    0.19
   3   4  -4    0.41    0.14
  -3  -4   4    0.05    0.15
   2   4  -4    6.50    0.34
   2   4  -4    5.58    0.36
   2   4  -4    6.15    0.33
  -2  -4   4    6.07    0.36
  -2  -4   4    6.72    0.37
  -2  -4   4    6.95    0.47
   1   4  -4    0.29    0.11
   1   4  -4    0.12    0.12
   1   4  -4    0.23    0.11
   1   4  -4    0.33    0.10
  -1  -4   4    0.19    0.15
  -1  -4   4    0.33    0.15
  -1  -4   4    0.23    0.12
   0   4  -4    4.38    0.24
   0   4  -4    4.40    0.26
   0   4  -4    4.10    0.26
   0   4  -4    4.15    0.26
   0   4  -4    4.49    0.28
   0   4  -4    4.18    0.26
   0  -4   4    4.16    0.23
   0  -4   4    4.32    0.30
   0  -4   4    4.00    0.32
   0  -4   4    4.28    0.29
   0  -4   4    4.14    0.34
   0  -4   4    4.48    0.26
  -1   4  -4    0.73    0.13
  -1   4  -4    0.74    0.13
  -1   4  -4    0.78    0.14
  -1   4  -4    0.72    0.13
  -1   4  -4    0.86    0.15
  -1   4  -4    0.73    0.12
   1  -4   4    0.66    0.12
   1  -4   4    0.66    0.17
   1  -4   4    0.58    0.12
   1  -4   4    0.61    0.13
   1  -4   4    0.62    0.14
   1  -4   4    0.66    0.18
  -2   4  -4    4.70    0.28
  -2   4  -4    4.72    0.25
  -2   4  -4    4.74    0.29
  -2   4  -4    4.76    0.29
  -2   4  -4    4.77    0.28
  -2   4  -4    4.57    0.29
   2  -4   4    4.99    0.36
   2  -4   4    4.89    0.26
   2  -4   4    4.82    0.27
   2  -4   4    4.42    0.35
   2  -4   4    4.95    0.31
   2  -4   4    4.67    0.31
  -3   4  -4   21.82    0.74
  -3   4  -4   21.19    0.83
  -3   4  -4   21.26    0.77
  -3   4  -4   21.22    0.84
  -3   4  -4   21.39    0.79
  -3   4  -4   21.55    0.77
   3  -4   4   21.87    0.80
   3  -4   4   19.99    0.86
   3  -4   4   22.31    0.78
   3  -4   4   20.71    0.83
   3  -4   4   20.08    0.73
   3  -4   4   21.28    0.89
  -4   4  -4    4.24    0.28
  -4   4  -4    4.27    0.30
  -4   4  -4    4.56    0.25
  -4   4  -4    4.65    0.28
  -4   4  -4    4.30    0.28
  -4   4  -4    4.64    0.28
   4  -4   4    4.39    0.28
   4  -4   4    4.76    0.33
   4  -4   4    4.03    0.38
  -5   4  -4    3.53    0.30
   5  -4   4    3.52    0.28
   5  -4   4    3.35    0.29
  -6   4  -4    0.14    0.16
  -6   4  -4    0.86    0.18
   6  -4   4    0.80    0.15
   6  -4   4    0.38    0.15
  -7   4  -4    3.64    0.29
   7  -4   4    3.41    0.27
  -8   4  -4   -0.11    0.16
   5   3  -4   15.57    0.61
  -5  -3   4   16.81    0.70
   4   3  -4    4.07    0.25
  -4  -3   4    3.54    0.31
   3   3  -4   21.34    0.79
   3   3  -4   22.05    0.74
  -3  -3   4   21.93    0.88
  -3  -3   4   22.55    0.85
   2   3  -4   11.44    0.49
   2   3  -4   10.99    0.43
   2   3  -4   10.99    0.46
   2   3  -4   11.88    0.46
  -2  -3   4   11.38    0.52
  -2  -3   4   12.31    0.52
  -2  -3   4   12.09    0.49
  -2  -3   4   11.30    0.51
   1   3  -4    0.55    0.12
   1   3  -4    0.41    0.10
   1   3  -4    0.42    0.11
   1   3  -4    0.53    0.11
   1   3  -4    0.70    0.14
   1   3  -4    0.42    0.10
  -1  -3   4    0.29    0.09
  -1  -3   4    0.33    0.13
  -1  -3   4    0.36    0.10
  -1  -3   4    0.33    0.11
  -1  -3   4    0.44    0.13
  -1  -3   4    0.50    0.12
   0   3  -4    1.88    0.19
   0   3  -4    1.59    0.24
   0   3  -4    1.80    0.16
   0   3  -4    2.02    0.23
   0   3  -4    1.49    0.23
   0  -3   4    1.71    0.18
   0  -3   4    1.56    0.15
   0  -3   4    1.70    0.25
   0  -3   4    1.45    0.20
   0  -3   4    1.61    0.19
   0  -3   4    1.49    0.21
  -1   3  -4   19.89    0.76
  -1   3  -4   20.08    0.72
  -1   3  -4   19.19    0.70
  -1   3  -4   19.12    0.66
  -1   3  -4   19.46    0.70
  -1   3  -4   19.66    0.75
   1  -3   4   19.57    0.70
   1  -3   4   19.82    0.72
   1  -3   4   18.81    0.79
   1  -3   4   20.17    0.76
   1  -3   4   19.34    0.67
   1  -3   4   18.03    0.77
  -2   3  -4    3.74    0.26
  -2   3  -4    3.70    0.28
  -2   3  -4    3.92    0.28
  -2   3  -4    4.05    0.24
   2  -3   4    4.11    0.28
   2  -3   4    3.86    0.21
   2  -3   4    3.54    0.29
   2  -3   4    4.11    0.27
   2  -3   4    3.98    0.32
   2  -3   4    4.10    0.25
  -3   3  -4   10.46    0.47
  -3   3  -4   11.30    0.46
  -3   3  -4   11.41    0.48
  -3   3  -4   10.11    0.45
  -3   3  -4   10.82    0.47
  -3   3  -4   11.17    0.41
   3  -3   4   10.12    0.41
   3  -3   4   10.82    0.52
   3  -3   4   10.72    0.51
   3  -3   4   10.72    0.50
   3  -3   4   10.66    0.43
   3  -3   4   10.76    0.46
  -4   3  -4   13.49    0.55
  -4   3  -4   13.32    0.49
  -4   3  -4   12.75    0.55
  -4   3  -4   13.19    0.51
  -4   3  -4   13.44    0.52
  -4   3  -4   12.92    0.53
   4  -3   4   14.05    0.59
   4  -3   4   13.44    0.55
   4  -3   4   12.76    0.59
   4  -3   4   12.96    0.49
   4  -3   4   13.10    0.52
  -5   3  -4    7.44    0.37
  -5   3  -4    7.92    0.38
  -5   3  -4    7.42    0.35
  -5   3  -4    8.21    0.38
   5  -3   4    7.65    0.40
   5  -3   4    8.15    0.36
  -6   3  -4    4.01    0.35
   6  -3   4    3.78    0.27
  -7   3  -4   21.77    0.82
   7  -3   4   22.19    0.80
  -8   3  -4   10.65    0.49
   5   2  -4    0.29    0.12
  -5  -2   4    0.48    0.14
   4   2  -4    0.22    0.12
  -4  -2   4   -0.04    0.13
   3   2  -4    8.12    0.36
   3   2  -4    8.08    0.38
   3   2  -4    8.26    0.36
   3   2  -4    7.89    0.33
  -3  -2   4    8.10    0.40
  -3  -2   4    8.22    0.41
  -3  -2   4    7.82    0.40
  -3  -2   4    9.41    0.40
   2   2  -4   14.34    0.50
   2   2  -4   14.63    0.53
   2   2  -4   14.59    0.53
   2   2  -4   13.98    0.57
  -2  -2   4   13.72    0.59
  -2  -2   4   13.69    0.59
  -2  -2   4   14.80    0.57
  -2  -2   4   14.42    0.55
   1   2  -4    0.47    0.15
   1   2  -4    0.40    0.11
   1   2  -4    0.57    0.15
   1   2  -4    0.58    0.11
   1   2  -4    0.86    0.16
   1   2  -4    0.60    0.11
  -1  -2   4    0.46    0.13
  -1  -2   4    0.66    0.13
  -1  -2   4    0.48    0.11
  -1  -2   4    0.23    0.10
  -1  -2   4    0.40    0.12
  -1  -2   4    0.54    0.11
   0   2  -4   11.03    0.43
   0   2  -4   11.27    0.43
   0   2  -4   10.63    0.40
   0   2  -4   10.85    0.46
   0   2  -4   11.05    0.44
   0   2  -4   10.94    0.46
   0  -2   4   11.51    0.50
   0  -2   4   11.46    0.45
   0  -2   4   11.08    0.50
   0  -2   4   11.16    0.41
   0  -2   4   11.59    0.46
   0  -2   4   10.79    0.49
  -1   2  -4    9.82    0.37
  -1   2  -4    9.87    0.40
  -1   2  -4   10.02    0.42
  -1   2  -4    9.35    0.42
  -1   2  -4    9.66    0.43
  -1   2  -4   10.26    0.41
   1  -2   4    9.84    0.45
   1  -2   4    9.81    0.37
   1  -2   4   10.03    0.45
   1  -2   4    9.95    0.42
   1  -2   4    9.60    0.44
   1  -2   4   10.48    0.41
  -2   2  -4   15.75    0.58
  -2   2  -4   16.85    0.60
  -2   2  -4   15.74    0.58
  -2   2  -4   16.50    0.63
  -2   2  -4   16.03    0.55
  -2   2  -4   15.90    0.63
   2  -2   4   15.54    0.65
   2  -2   4   15.84    0.63
   2  -2   4   16.44    0.60
   2  -2   4   15.67    0.58
   2  -2   4   16.37    0.56
   2  -2   4   16.22    0.66
  -3   2  -4    0.00    0.08
  -3   2  -4    0.01    0.07
  -3   2  -4    0.04    0.07
  -3   2  -4   -0.03    0.09
  -3   2  -4   -0.06    0.07
  -3   2  -4    0.01    0.08
   3  -2   4   -0.20    0.10
   3  -2   4    0.11    0.11
   3  -2   4   -0.08    0.10
   3  -2   4   -0.03    0.12
  -4   2  -4   10.99    0.40
  -4   2  -4   10.32    0.46
  -4   2  -4   10.56    0.45
  -4   2  -4   10.59    0.42
  -4   2  -4   10.66    0.45
  -4   2  -4   11.65    0.44
   4  -2   4    9.79    0.48
   4  -2   4   10.70    0.43
   4  -2   4   11.53    0.54
   4  -2   4   10.44    0.40
  -5   2  -4    0.49    0.12
  -5   2  -4    0.44    0.10
  -5   2  -4    0.38    0.11
  -5   2  -4    0.41    0.10
   5  -2   4    0.54    0.10
   5  -2   4    0.37    0.12
  -6   2  -4   -0.08    0.11
  -6   2  -4    0.10    0.12
  -7   2  -4    0.03    0.12
  -7   2  -4    0.26    0.14
   7  -2   4    0.31    0.11
   5   1  -4   17.53    0.65
  -5  -1   4   17.41    0.68
   4   1  -4   20.34    0.72
   4   1  -4   19.20    0.66
  -4  -1   4   19.12    0.77
  -4  -1   4   18.73    0.73
   3   1  -4   47.01    1.56
   3   1  -4   49.03    1.56
   3   1  -4   45.35    1.69
   3   1  -4   47.44    1.48
  -3  -1   4   46.47    1.71
  -3  -1   4   48.90    1.57
  -3  -1   4   47.31    1.59
  -3  -1   4   48.00    1.70
   2   1  -4   85.83    2.77
   2   1  -4   86.32    2.78
   2   1  -4   83.35    2.81
   2   1  -4   84.23    3.02
   2   1  -4   87.63    2.98
   2   1  -4   85.74    2.63
  -2  -1   4   88.47    2.79
  -2  -1   4   85.54    2.78
  -2  -1   4   89.77    3.01
  -2  -1   4   90.32    2.83
  -2  -1   4   84.75    3.03
  -2  -1   4   87.76    2.64
   1   1  -4   38.62    1.34
   1   1  -4   40.20    1.46
   1   1  -4   42.77    1.45
   1   1  -4   40.43    1.27
   1   1  -4   38.63    1.34
   1   1  -4   41.67    1.37
  -1  -1   4   40.70    1.36
  -1  -1   4   40.81    1.48
  -1  -1   4   42.39    1.39
  -1  -1   4   42.52    1.35
  -1  -1   4   40.24    1.46
  -1  -1   4   41.31    1.28
   0   1  -4    0.10    0.10
   0   1  -4   -0.06    0.08
   0  -1   4   -0.19    0.08
   0  -1   4   -0.25    0.08
   0  -1   4   -0.19    0.07
   0  -1   4   -0.13    0.06
   0  -1   4   -0.19    0.06
   0  -1   4   -0.22    0.07
  -1   1  -4   71.92    2.44
  -1   1  -4   70.65    2.27
  -1   1  -4   72.24    2.15
  -1   1  -4   68.37    2.30
  -1   1  -4   70.89    2.47
  -1   1  -4   70.00    2.27
   1  -1   4   70.00    2.16
   1  -1   4   72.12    2.28
   1  -1   4   70.29    2.48
   1  -1   4   70.32    2.32
   1  -1   4   71.04    2.46
   1  -1   4   71.58    2.28
  -2   1  -4   55.09    1.92
  -2   1  -4   53.98    1.94
  -2   1  -4   54.12    1.78
  -2   1  -4   51.80    1.78
  -2   1  -4   57.43    1.70
  -2   1  -4   56.88    1.82
   2  -1   4   54.60    1.79
   2  -1   4   57.16    1.95
   2  -1   4   55.41    1.96
   2  -1   4   54.94    1.83
   2  -1   4   57.25    1.70
   2  -1   4   55.99    1.80
  -3   1  -4   50.76    1.74
  -3   1  -4   52.27    1.77
  -3   1  -4   53.16    1.74
  -3   1  -4   55.05    1.90
  -3   1  -4   53.68    1.65
  -3   1  -4   54.54    1.88
   3  -1   4   54.55    1.75
   3  -1   4   53.04    1.75
   3  -1   4   56.71    1.91
   3  -1   4   54.87    1.66
   3  -1   4   53.74    1.79
   3  -1   4   54.96    1.91
  -4   1  -4   36.41    1.24
  -4   1  -4   38.07    1.35
  -4   1  -4   38.64    1.18
  -4   1  -4   37.60    1.33
  -4   1  -4   37.85    1.26
  -4   1  -4   37.13    1.24
   4  -1   4   37.55    1.25
   4  -1   4   38.01    1.37
   4  -1   4   37.21    1.28
   4  -1   4   37.22    1.25
   4  -1   4   37.57    1.18
   4  -1   4   40.38    1.38
  -5   1  -4    2.37    0.23
  -5   1  -4    2.83    0.23
  -5   1  -4    2.56    0.21
  -5   1  -4    3.02    0.22
   5  -1   4    2.91    0.20
   5  -1   4    2.83    0.21
   5  -1   4    2.91    0.19
   5  -1   4    2.76    0.17
  -6   1  -4    0.19    0.09
  -6   1  -4    0.27    0.10
   6  -1   4    0.22    0.09
   6   0  -4    2.13    0.25
  -6   0   4    1.42    0.19
   5   0  -4    0.31    0.12
  -5   0   4    0.48    0.14
  -4   0   4    1.72    0.30
   3   0  -4    9.15    0.40
   3   0  -4    9.39    0.36
   3   0  -4    8.76    0.41
   3   0  -4    9.22    0.39
  -3   0   4    9.48    0.43
  -3   0   4   10.00    0.41
  -3   0   4    9.51    0.42
  -3   0   4    9.29    0.42
   2   0  -4    3.16    0.22
   2   0  -4    3.27    0.20
   2   0  -4    3.39    0.23
   2   0  -4    2.70    0.25
  -2   0   4    3.15    0.23
  -2   0   4    3.26    0.23
  -2   0   4    2.87    0.24
  -2   0   4    3.11    0.24
  -2   0   4    2.38    0.25
  -2   0   4    3.50    0.21
   1   0  -4    0.41    0.08
   1   0  -4    0.73    0.13
   1   0  -4    0.39    0.08
  -1   0   4    0.34    0.09
  -1   0   4    0.40    0.09
  -1   0   4    0.38    0.08
  -1   0   4    0.39    0.09
  -1   0   4    0.32    0.08
  -1   0   4    0.44    0.09
   0   0  -4    7.41    0.33
   0   0  -4    7.66    0.34
   0   0  -4    7.55    0.32
   0   0  -4    7.52    0.32
   0   0  -4    7.37    0.34
   0   0  -4    7.62    0.29
   0   0   4    7.71    0.35
   0   0   4    8.46    0.33
   0   0   4    7.93    0.30
   0   0   4    7.68    0.33
   0   0   4    8.11    0.34
   0   0   4    7.27    0.34
  -1   0  -4    2.90    0.18
  -1   0  -4    2.81    0.15
  -1   0  -4    2.87    0.20
  -1   0  -4    2.63    0.17
  -1   0  -4    2.96    0.19
  -1   0  -4    2.55    0.19
   1   0   4    2.95    0.19
   1   0   4    2.69    0.18
   1   0   4    3.12    0.15
   1   0   4    2.78    0.17
   1   0   4    2.90    0.18
   1   0   4    2.75    0.20
  -2   0  -4   16.85    0.60
  -2   0  -4   16.34    0.60
  -2   0  -4   17.60    0.66
  -2   0  -4   17.76    0.57
  -2   0  -4   17.22    0.62
  -2   0  -4   17.91    0.66
   2   0   4   17.89    0.67
   2   0   4   17.99    0.62
   2   0   4   18.14    0.67
   2   0   4   17.48    0.61
   2   0   4   17.62    0.63
   2   0   4   17.76    0.58
  -3   0  -4    3.04    0.19
  -3   0  -4    3.07    0.18
  -3   0  -4    3.13    0.18
  -3   0  -4    2.85    0.16
  -3   0  -4    3.21    0.15
  -3   0  -4    2.88    0.18
  -3   0  -4    3.37    0.20
   3   0   4    2.77    0.21
   3   0   4    2.57    0.21
   3   0   4    3.27    0.17
   3   0   4    3.29    0.15
   3   0   4    3.32    0.20
   3   0   4    2.60    0.21
   3   0   4    2.30    0.23
  -4   0  -4   11.89    0.41
  -4   0  -4   11.63    0.46
  -4   0  -4   12.06    0.48
  -4   0  -4   11.65    0.47
  -4   0  -4   11.67    0.49
  -4   0  -4   11.55    0.45
   4   0   4   11.92    0.46
   4   0   4   13.23    0.51
   4   0   4   13.08    0.43
   4   0   4   12.43    0.50
   4   0   4   13.89    0.46
   4   0   4   12.64    0.42
  -5   0  -4   15.52    0.59
  -5   0  -4   15.89    0.59
  -5   0  -4   15.22    0.57
   5   0   4   15.54    0.55
   5   0   4   15.70    0.52
   5   0   4   16.48    0.61
  -6   0  -4    2.86    0.21
  -6   0  -4    2.68    0.17
   6   0   4    2.49    0.17
   6  -1  -4   -0.14    0.15
  -6   1   4    0.28    0.17
   5  -1  -4    7.77    0.36
  -5   1   4    7.20    0.38
   4  -1  -4    8.51    0.38
   4  -1  -4    8.54    0.40
   4  -1  -4    9.14    0.44
  -4   1   4    8.75    0.43
  -4   1   4    9.54    0.42
  -4   1   4    7.19    0.40
   3  -1  -4    0.11    0.10
   3  -1  -4   -0.02    0.09
   3  -1  -4   -0.04    0.10
   3  -1  -4    0.15    0.10
  -3   1   4    0.05    0.09
  -3   1   4    0.14    0.09
  -3   1   4   -0.05    0.10
   2  -1  -4   11.86    0.52
   2  -1  -4   12.13    0.46
   2  -1  -4   13.48    0.54
   2  -1  -4   12.17    0.53
   2  -1  -4   12.60    0.50
   2  -1  -4   11.95    0.52
  -2   1   4   13.14    0.54
  -2   1   4   14.57    0.53
  -2   1   4   13.86    0.54
  -2   1   4   13.74    0.52
  -2   1   4   11.83    0.50
  -2   1   4   13.99    0.48
   1  -1  -4    4.69    0.25
   1  -1  -4    5.46    0.28
   1  -1  -4    5.45    0.27
   1  -1  -4    5.17    0.27
   1  -1  -4    5.51    0.23
  -1   1   4    5.04    0.26
  -1   1   4    5.02    0.26
  -1   1   4    5.25    0.26
  -1   1   4    5.06    0.23
  -1   1   4    5.03    0.25
  -1   1   4    5.04    0.26
   0  -1  -4    3.33    0.19
   0  -1  -4    3.33    0.20
   0  -1  -4    3.07    0.22
   0  -1  -4    3.49    0.17
   0  -1  -4    3.51    0.20
   0  -1  -4    3.46    0.20
   0   1   4    3.51    0.20
   0   1   4    3.28    0.20
   0   1   4    3.51    0.21
   0   1   4    3.35    0.20
   0   1   4    3.17    0.19
   0   1   4    3.41    0.17
  -1  -1  -4  104.67    3.36
  -1  -1  -4  104.13    3.41
  -1  -1  -4  105.98    3.61
  -1  -1  -4  109.89    3.65
  -1  -1  -4  106.06    3.18
  -1  -1  -4  101.01    3.35
   1   1   4  109.88    3.19
   1   1   4  105.89    3.36
   1   1   4  104.79    3.65
   1   1   4  104.29    3.40
   1   1   4  106.02    3.61
   1   1   4  106.76    3.36
  -2  -1  -4  240.67    7.99
  -2  -1  -4  247.26    7.90
  -2  -1  -4  239.55    6.98
  -2  -1  -4  228.67    7.36
  -2  -1  -4  228.95    7.46
  -2  -1  -4  220.30    7.35
  -2  -1  -4  237.27    7.89
   2   1   4  228.48    7.51
   2   1   4  238.91    7.03
   2   1   4  240.43    8.00
   2   1   4  226.14    7.42
   2   1   4  231.56    7.43
   2   1   4  234.46    8.09
  -3  -1  -4  119.94    3.45
  -3  -1  -4  115.57    3.92
  -3  -1  -4  107.22    3.69
  -3  -1  -4  117.69    3.91
  -3  -1  -4  108.91    3.64
  -3  -1  -4  110.17    3.64
  -3  -1  -4  118.62    3.96
   3   1   4  112.30    3.65
   3   1   4  112.53    3.96
   3   1   4  118.89    3.46
   3   1   4  121.17    3.92
   3   1   4  113.05    3.70
   3   1   4  120.31    3.45
   3   1   4  118.25    3.65
  -4  -1  -4    1.97    0.17
  -4  -1  -4    2.15    0.17
  -4  -1  -4    2.16    0.15
  -4  -1  -4    2.58    0.16
  -4  -1  -4    2.47    0.14
   4   1   4    1.99    0.16
   4   1   4    2.41    0.14
   4   1   4    2.63    0.17
   4   1   4    2.18    0.17
   4   1   4    2.70    0.17
  -5  -1  -4   13.66    0.53
  -5  -1  -4   14.93    0.54
   5   1   4   14.97    0.51
   5   1   4   15.31    0.48
   7  -2  -4    5.77    0.36
  -7   2   4    5.81    0.35
   6  -2  -4   -0.06    0.16
  -6   2   4    0.46    0.17
   5  -2  -4    3.85    0.27
  -5   2   4    3.63    0.28
   4  -2  -4   10.19    0.49
   4  -2  -4    9.45    0.47
  -4   2   4    9.05    0.45
  -4   2   4   11.36    0.48
  -4   2   4    8.49    0.45
   3  -2  -4    3.58    0.23
   3  -2  -4    2.95    0.21
   3  -2  -4    3.09    0.25
  -3   2   4    3.26    0.24
  -3   2   4    2.63    0.23
  -3   2   4    2.65    0.25
  -3   2   4    2.65    0.22
   2  -2  -4   10.30    0.49
   2  -2  -4    9.05    0.47
   2  -2  -4   10.81    0.40
   2  -2  -4    9.44    0.41
   2  -2  -4   11.48    0.48
  -2   2   4   10.60    0.46
  -2   2   4   10.73    0.41
  -2   2   4   10.20    0.46
  -2   2   4    9.95    0.42
  -2   2   4    9.47    0.43
  -2   2   4   10.08    0.43
   1  -2  -4    0.60    0.11
   1  -2  -4    0.82    0.13
   1  -2  -4    0.68    0.12
   1  -2  -4    0.59    0.09
   1  -2  -4    0.61    0.11
  -1   2   4    0.91    0.16
  -1   2   4    0.95    0.14
   0  -2  -4   -0.11    0.07
   0  -2  -4   -0.03    0.09
   0  -2  -4   -0.11    0.08
   0  -2  -4    0.01    0.07
   0  -2  -4    0.02    0.08
   0  -2  -4    0.02    0.09
   0   2   4    0.11    0.07
   0   2   4   -0.01    0.07
   0   2   4   -0.01    0.07
   0   2   4    0.00    0.08
   0   2   4    0.13    0.07
   0   2   4   -0.02    0.08
  -1  -2  -4    1.23    0.13
  -1  -2  -4    1.26    0.18
  -1  -2  -4    1.34    0.14
  -1  -2  -4    1.09    0.17
  -1  -2  -4    1.29    0.11
  -1  -2  -4    1.29    0.15
   1   2   4    1.28    0.11
   1   2   4    1.16    0.14
   1   2   4    1.29    0.14
   1   2   4    1.24    0.13
   1   2   4    1.33    0.13
   1   2   4    1.27    0.15
  -2  -2  -4   78.25    2.56
  -2  -2  -4   79.29    2.70
  -2  -2  -4   77.50    2.51
  -2  -2  -4   83.30    2.74
  -2  -2  -4   82.89    2.71
  -2  -2  -4   81.90    2.38
  -2  -2  -4   77.97    2.51
   2   2   4   78.26    2.39
   2   2   4   79.74    2.52
   2   2   4   76.82    2.55
   2   2   4   77.53    2.73
   2   2   4   74.39    2.51
   2   2   4   77.81    2.70
  -3  -2  -4  165.96    5.66
  -3  -2  -4  159.81    5.21
  -3  -2  -4  162.50    5.59
  -3  -2  -4  166.68    4.93
  -3  -2  -4  168.52    5.60
  -3  -2  -4  166.50    5.29
   3   2   4  166.27    5.59
   3   2   4  160.47    4.94
   3   2   4  169.24    5.22
   3   2   4  165.93    5.66
   3   2   4  174.08    4.94
   3   2   4  159.34    5.21
  -4  -2  -4   33.70    1.21
  -4  -2  -4   38.43    1.28
  -4  -2  -4   35.97    1.27
  -4  -2  -4   36.38    1.18
   4   2   4   37.49    1.12
   4   2   4   38.32    1.29
   4   2   4   35.85    1.19
   4   2   4   34.95    1.18
  -5  -2  -4   11.90    0.40
  -5  -2  -4   10.66    0.41
   5   2   4   10.49    0.36
   5   2   4    9.89    0.38
   7  -3  -4    6.50    0.39
  -7   3   4    5.96    0.40
  -6   3   4    0.20    0.15
  -5   3   4    1.11    0.18
   4  -3  -4    5.79    0.37
  -4   3   4    5.53    0.35
  -4   3   4    5.93    0.34
  -4   3   4    6.15    0.35
   3  -3  -4    1.08    0.15
   3  -3  -4    0.83    0.15
  -3   3   4    1.54    0.23
  -3   3   4    1.08    0.16
  -3   3   4    1.04    0.15
  -3   3   4    1.04    0.17
   2  -3  -4   40.48    1.55
   2  -3  -4   43.02    1.54
   2  -3  -4   41.71    1.34
  -2   3   4   42.92    1.55
  -2   3   4   41.82    1.42
  -2   3   4   42.80    1.44
  -2   3   4   42.55    1.42
  -2   3   4   43.58    1.35
  -2   3   4   43.08    1.53
   1  -3  -4    7.20    0.31
   1  -3  -4    6.82    0.37
   1  -3  -4    6.89    0.39
  -1   3   4    7.39    0.36
  -1   3   4    7.78    0.33
  -1   3   4    7.78    0.35
  -1   3   4    7.32    0.36
  -1   3   4    7.19    0.36
  -1   3   4    7.92    0.37
   0  -3  -4   47.30    1.62
   0  -3  -4   45.66    1.42
   0  -3  -4   44.79    1.64
   0   3   4   44.67    1.61
   0   3   4   46.19    1.52
   0   3   4   45.06    1.63
   0   3   4   45.64    1.50
   0   3   4   46.09    1.51
   0   3   4   45.49    1.43
  -1  -3  -4    0.17    0.10
  -1  -3  -4    0.38    0.09
  -1  -3  -4    0.31    0.12
   1   3   4    0.29    0.10
   1   3   4    0.34    0.09
   1   3   4    0.21    0.09
   1   3   4    0.41    0.09
   1   3   4    0.28    0.08
  -2  -3  -4    2.35    0.17
  -2  -3  -4    2.59    0.18
  -2  -3  -4    2.16    0.19
  -2  -3  -4    2.49    0.16
   2   3   4    2.50    0.18
   2   3   4    2.11    0.15
   2   3   4    2.22    0.17
   2   3   4    1.75    0.18
   2   3   4    2.84    0.20
   2   3   4    1.94    0.18
  -3  -3  -4   46.52    1.42
  -3  -3  -4   47.10    1.63
  -3  -3  -4   46.85    1.51
  -3  -3  -4   46.34    1.64
  -3  -3  -4   47.77    1.63
   3   3   4   47.00    1.64
   3   3   4   47.26    1.52
   3   3   4   44.68    1.51
   3   3   4   46.87    1.44
   3   3   4   46.36    1.62
  -4  -3  -4   26.79    0.94
  -4  -3  -4   25.36    0.93
   4   3   4   25.28    0.82
   4   3   4   25.58    0.93
   4   3   4   27.03    0.87
  -5  -3  -4   91.73    3.10
  -5  -3  -4   91.01    2.94
   5   3   4   91.77    2.74
  -7   4   4   14.59    0.65
  -6   4   4   -0.07    0.15
  -5   4   4    1.02    0.18
  -4   4   4    1.29    0.24
  -4   4   4    1.62    0.24
   3  -4  -4    0.63    0.22
  -3   4   4    0.97    0.19
  -3   4   4    0.92    0.16
  -3   4   4    0.48    0.15
   2  -4  -4    1.50    0.18
   2  -4  -4    0.91    0.17
   2  -4  -4    1.03    0.19
  -2   4   4    1.13    0.20
  -2   4   4    1.27    0.21
  -2   4   4    1.50    0.21
  -2   4   4    1.34    0.21
  -2   4   4    1.41    0.19
  -2   4   4    1.23    0.19
   1  -4  -4   19.71    0.82
   1  -4  -4   21.22    0.71
   1  -4  -4   21.11    0.82
  -1   4   4   21.02    0.81
  -1   4   4   21.03    0.76
  -1   4   4   20.44    0.71
  -1   4   4   20.93    0.75
  -1   4   4   20.25    0.75
  -1   4   4   20.46    0.81
   0  -4  -4   -0.11    0.17
   0  -4  -4    0.04    0.12
   0  -4  -4    0.15    0.15
   0   4   4   -0.07    0.09
   0   4   4    0.21    0.11
   0   4   4   -0.02    0.10
   1   4   4    0.46    0.13
   1   4   4    0.60    0.12
   1   4   4    0.62    0.13
   1   4   4    0.36    0.11
  -2  -4  -4   37.25    1.37
  -2  -4  -4   39.43    1.39
  -2  -4  -4   38.21    1.19
   2   4   4   38.75    1.38
   2   4   4   37.26    1.27
   2   4   4   38.24    1.20
   2   4   4   38.26    1.36
   2   4   4   38.29    1.27
   2   4   4   38.01    1.28
  -3  -4  -4   33.46    1.21
  -3  -4  -4   33.52    1.20
   3   4   4   32.46    1.11
   3   4   4   33.61    1.11
   3   4   4   33.41    1.05
   3   4   4   32.95    1.20
  -4  -4  -4    0.10    0.10
   4   4   4    0.29    0.08
   4   4   4    0.20    0.07
   5   4   4    0.97    0.13
  -6   5   4   -0.04    0.16
  -5   5   4    6.18    0.41
  -5   5   4    5.60    0.38
  -4   5   4    4.24    0.30
  -4   5   4    3.73    0.30
  -3   5   4    1.32    0.20
  -3   5   4    1.21    0.18
  -2   5   4    0.94    0.16
  -2   5   4    0.73    0.16
  -2   5   4    0.93    0.16
  -2   5   4    0.88    0.16
   1  -5  -4    0.18    0.16
   1  -5  -4    0.23    0.11
  -1   5   4    0.56    0.13
  -1   5   4    0.49    0.13
  -1   5   4    0.48    0.13
  -1   5   4    0.53    0.12
   0  -5  -4    2.07    0.23
   0  -5  -4    2.18    0.23
   0  -5  -4    2.34    0.19
   0   5   4    2.10    0.19
   0   5   4    2.08    0.17
   0   5   4    2.30    0.23
   0   5   4    2.17    0.23
   0   5   4    2.31    0.22
   0   5   4    2.15    0.19
  -1  -5  -4   25.16    0.83
  -1  -5  -4   24.04    0.97
   1   5   4   24.24    0.94
   1   5   4   25.39    0.89
   1   5   4   24.49    0.83
   1   5   4   25.24    0.88
   1   5   4   26.15    0.89
   1   5   4   25.13    0.95
  -2  -5  -4   33.37    1.07
  -2  -5  -4   33.10    1.25
   2   5   4   34.75    1.15
   2   5   4   33.31    1.22
   2   5   4   33.90    1.24
   2   5   4   33.05    1.08
   2   5   4   33.96    1.14
  -3  -5  -4   17.97    0.69
  -3  -5  -4   17.20    0.68
   3   5   4   17.50    0.63
   3   5   4   16.35    0.62
   3   5   4   16.71    0.67
   3   5   4   17.04    0.59
  -4  -5  -4    2.00    0.20
   4   5   4    1.85    0.14
   4   5   4    1.69    0.19
  -6   6   4    4.83    0.39
  -5   6   4    0.77    0.19
  -5   6   4    0.92    0.20
  -4   6   4    0.09    0.15
  -4   6   4    0.03    0.14
  -3   6   4   14.33    0.60
  -3   6   4   13.73    0.60
  -3   6   4   14.06    0.60
   2  -6  -4   15.74    0.72
  -2   6   4   15.75    0.66
  -2   6   4   16.71    0.67
  -2   6   4   16.24    0.67
  -1   6   4    1.69    0.29
  -1   6   4    2.93    0.28
  -1   6   4    2.61    0.30
   0   6   4    1.05    0.17
   0   6   4    1.30    0.18
   0   6   4    1.04    0.16
   0   6   4    1.01    0.16
   0   6   4    1.23    0.16
   0   6   4    1.02    0.16
   1   6   4    2.95    0.20
   1   6   4    2.90    0.26
   1   6   4    2.88    0.26
   1   6   4    2.79    0.24
   1   6   4    2.90    0.23
   1   6   4    3.05    0.23
   2   6   4    0.10    0.09
   2   6   4    0.08    0.11
   2   6   4    0.08    0.10
   2   6   4    0.24    0.09
   3   6   4   14.34    0.54
   3   6   4   14.74    0.58
   3   6   4   14.12    0.60
   3   6   4   15.74    0.58
   4   6   4    1.53    0.16
  -5   7   4    3.26    0.31
  -5   7   4    3.38    0.33
  -4   7   4    0.99    0.21
  -3   7   4    1.13    0.20
  -3   7   4    1.15    0.19
  -3   7   4    1.23    0.20
  -2   7   4    1.83    0.24
  -2   7   4    1.82    0.27
  -2   7   4    2.07    0.26
  -1   7   4   61.07    2.05
  -1   7   4   59.74    2.06
  -1   7   4   61.76    2.05
   0   7   4    0.90    0.18
   0   7   4    1.11    0.19
   0   7   4    1.11    0.18
   0   7   4    0.75    0.18
   1   7   4    0.22    0.17
   1   7   4    0.00    0.13
   2   7   4    1.13    0.19
   2   7   4    1.01    0.18
   2   7   4    0.86    0.16
   3   7   4    8.79    0.43
   4   7   4    0.66    0.15
  -4   8   4    0.86    0.20
  -4   8   4    0.94    0.21
  -3   8   4    0.52    0.19
  -3   8   4    0.10    0.17
  -3   8   4    0.27    0.18
  -2   8   4    0.76    0.18
  -2   8   4    0.62    0.19
  -1   8   4    0.39    0.16
  -1   8   4    0.45    0.17
  -1   8   4    0.45    0.16
   0   8   4    8.78    0.45
   0   8   4    8.70    0.45
   1   8   4    1.61    0.25
   1   8   4    1.48    0.25
   2   8   4    0.15    0.14
   2   8   4    0.27    0.14
   3   8   4   18.12    0.72
   4   8   4    7.88    0.41
  -3   9   4    4.60    0.36
  -3   9   4    5.04    0.39
  -2   9   4    0.41    0.18
  -2   9   4    0.24    0.17
  -2   9   4    0.42    0.18
  -1   9   4    5.21    0.36
  -1   9   4    5.38    0.38
  -1   9   4    5.26    0.38
   0   9   4    0.18    0.17
   0   9   4    0.20    0.19
   1   9   4    0.01    0.16
   1   9   4    0.56    0.19
   2   9   4    0.98    0.18
   2   9   4    0.66    0.20
   3   9   4    0.02    0.16
   4   9   4    6.63    0.39
  -1  10   4    3.68    0.37
  -1  10   4    4.83    0.39
   0  10   4    0.27    0.16
   0  10   4    0.28    0.17
   1  10   4    0.95    0.21
   1  10   4    1.65    0.26
   2  10   4    0.52    0.18
   3  10   4    2.48    0.29
   4  10   4    6.43    0.44
   1   8  -5    0.34    0.19
   1   8  -5    0.48    0.18
  -1  -8   5    0.47    0.25
  -1  -8   5    0.51    0.20
   0   8  -5    0.05    0.16
   0   8  -5   -0.01    0.17
   0  -8   5   -0.23    0.25
   0  -8   5   -0.18    0.21
  -1   8  -5    0.25    0.18
  -1   8  -5    0.29    0.19
   1  -8   5    0.43    0.20
   1  -8   5    0.17    0.24
  -2   8  -5    0.05    0.18
  -2   8  -5    0.18    0.19
   2  -8   5    0.14    0.19
   2  -8   5    0.22    0.25
  -3   8  -5    4.81    0.39
  -3   8  -5    4.94    0.41
  -3   8  -5    4.90    0.37
   3  -8   5    4.36    0.38
   3  -8   5    4.59    0.52
   3  -8   5    4.96    0.42
  -4   8  -5   -0.15    0.19
  -4   8  -5   -0.06    0.19
   4  -8   5   -0.01    0.18
   4  -8   5   -0.21    0.20
  -5   8  -5    2.14    0.36
  -5   8  -5    2.17    0.37
   3   7  -5    0.24    0.18
  -3  -7   5    0.46    0.24
   2   7  -5   -0.03    0.15
  -2  -7   5    0.01    0.21
   1   7  -5   -0.08    0.16
  -1  -7   5    0.03    0.16
  -1  -7   5   -0.04    0.21
   0   7  -5    3.64    0.35
   0   7  -5    3.96    0.36
   0  -7   5    4.27    0.37
   0  -7   5    4.48    0.42
  -1   7  -5    2.84    0.31
  -1   7  -5    2.36    0.30
   1  -7   5    2.34    0.36
   1  -7   5    2.07    0.29
  -2   7  -5    0.26    0.17
  -2   7  -5    0.37    0.18
  -2   7  -5    0.19    0.16
   2  -7   5   -0.01    0.16
   2  -7   5   -0.13    0.13
   2  -7   5   -0.23    0.21
  -3   7  -5   -0.20    0.18
  -3   7  -5   -0.16    0.19
   3  -7   5   -0.02    0.18
   3  -7   5    0.23    0.18
   3  -7   5    0.20    0.22
  -4   7  -5    0.26    0.21
  -4   7  -5   -0.05    0.20
   4  -7   5    0.34    0.17
   4  -7   5   -0.05    0.23
   4  -7   5    0.18    0.20
  -5   7  -5    0.16    0.19
  -5   7  -5    0.09    0.20
   5  -7   5    0.07    0.18
   5  -7   5    0.15    0.16
  -6   7  -5    0.15    0.18
  -6   7  -5    0.13    0.19
   6  -7   5    0.49    0.22
   4   6  -5   -0.02    0.14
  -4  -6   5    0.06    0.20
   3   6  -5    8.97    0.44
  -3  -6   5    9.06    0.52
   2   6  -5   17.03    0.70
  -2  -6   5   16.74    0.76
   1   6  -5    0.83    0.17
   1   6  -5    0.95    0.17
  -1  -6   5    0.76    0.22
  -1  -6   5    0.44    0.19
   0   6  -5    0.31    0.15
   0   6  -5    0.16    0.15
   0  -6   5    0.19    0.19
   0  -6   5    0.28    0.17
  -1   6  -5   12.14    0.55
  -1   6  -5   12.25    0.56
  -1   6  -5   11.85    0.54
   1  -6   5   11.71    0.56
   1  -6   5   12.17    0.62
   1  -6   5   11.90    0.53
  -2   6  -5    0.15    0.16
  -2   6  -5    0.25    0.17
  -2   6  -5    0.25    0.16
   2  -6   5    0.18    0.20
   2  -6   5    0.10    0.13
   2  -6   5    0.19    0.16
  -3   6  -5    0.56    0.17
  -3   6  -5    0.62    0.20
  -3   6  -5    0.56    0.18
   3  -6   5    0.39    0.16
   3  -6   5    0.36    0.17
   3  -6   5    0.52    0.22
  -4   6  -5    8.70    0.47
  -4   6  -5    9.06    0.46
  -4   6  -5    9.90    0.48
   4  -6   5    9.61    0.57
   4  -6   5    8.94    0.49
   4  -6   5    8.79    0.45
  -5   6  -5    2.34    0.28
   5  -6   5    2.14    0.29
   5  -6   5    2.03    0.31
  -6   6  -5    1.30    0.22
  -6   6  -5    1.16    0.23
   6  -6   5    1.19    0.20
   6  -6   5    1.02    0.22
  -7   6  -5    0.98    0.22
   7  -6   5    0.69    0.20
   4   5  -5    0.72    0.16
  -4  -5   5    0.67    0.21
   3   5  -5    1.35    0.23
   2   5  -5    2.93    0.28
   2   5  -5    2.98    0.25
  -2  -5   5    2.94    0.33
  -2  -5   5    2.93    0.28
   1   5  -5    3.84    0.28
   1   5  -5    3.45    0.27
  -1  -5   5    2.81    0.29
  -1  -5   5    3.02    0.33
   0   5  -5    5.88    0.35
   0   5  -5    6.23    0.36
   0  -5   5    6.17    0.44
  -1   5  -5   15.35    0.61
  -1   5  -5   15.70    0.63
  -1   5  -5   14.75    0.65
  -1   5  -5   14.38    0.62
   1  -5   5   16.25    0.60
   1  -5   5   14.68    0.61
   1  -5   5   14.31    0.69
   1  -5   5   14.53    0.64
  -2   5  -5   63.73    2.13
  -2   5  -5   64.24    2.17
  -2   5  -5   66.85    2.15
   2  -5   5   63.98    2.22
   2  -5   5   63.43    2.16
   2  -5   5   62.86    2.13
  -3   5  -5    3.61    0.33
  -3   5  -5    3.99    0.32
  -3   5  -5    3.98    0.31
   3  -5   5    4.50    0.41
   3  -5   5    4.29    0.30
   3  -5   5    3.95    0.33
  -4   5  -5    5.53    0.38
  -4   5  -5    6.00    0.36
  -4   5  -5    5.79    0.37
   4  -5   5    6.07    0.34
   4  -5   5    5.50    0.43
   4  -5   5    5.21    0.37
  -5   5  -5    2.99    0.28
  -5   5  -5    2.99    0.30
   5  -5   5    3.33    0.31
   5  -5   5    3.21    0.28
  -6   5  -5   -0.05    0.16
  -6   5  -5    0.00    0.14
   6  -5   5   -0.13    0.13
   6  -5   5   -0.02    0.19
  -7   5  -5    6.05    0.38
   7  -5   5    5.77    0.36
  -8   5  -5    0.15    0.17
   5   4  -5    0.31    0.14
  -5  -4   5    0.57    0.21
  -4  -4   5    0.16    0.18
   3   4  -5    3.87    0.27
  -3  -4   5    3.79    0.33
   2   4  -5   16.19    0.62
   2   4  -5   15.73    0.62
   2   4  -5   15.57    0.66
  -2  -4   5   15.70    0.64
  -2  -4   5   16.29    0.68
   1   4  -5   -0.17    0.18
  -1  -4   5   -0.01    0.13
  -1  -4   5    0.00    0.12
  -1  -4   5    0.05    0.17
   0   4  -5    4.19    0.31
   0   4  -5    3.94    0.29
   0   4  -5    4.28    0.28
   0   4  -5    4.28    0.28
   0   4  -5    3.77    0.28
   0  -4   5    4.02    0.34
   0  -4   5    4.50    0.38
   0  -4   5    4.05    0.26
   0  -4   5    4.40    0.38
   0  -4   5    3.43    0.33
  -1   4  -5   17.23    0.66
  -1   4  -5   16.74    0.71
  -1   4  -5   17.33    0.68
  -1   4  -5   17.48    0.66
  -1   4  -5   17.72    0.72
  -1   4  -5   17.82    0.63
   1  -4   5   17.31    0.64
   1  -4   5   16.89    0.78
   1  -4   5   18.07    0.75
   1  -4   5   17.06    0.76
   1  -4   5   18.07    0.67
   1  -4   5   18.51    0.70
  -2   4  -5   14.61    0.57
  -2   4  -5   14.31    0.61
  -2   4  -5   14.39    0.54
  -2   4  -5   14.29    0.58
  -2   4  -5   14.45    0.62
  -2   4  -5   14.14    0.59
   2  -4   5   14.25    0.65
   2  -4   5   14.07    0.55
   2  -4   5   13.61    0.68
   2  -4   5   15.57    0.60
   2  -4   5   14.48    0.58
   2  -4   5   14.55    0.66
  -3   4  -5    7.24    0.37
  -3   4  -5    7.49    0.39
  -3   4  -5    8.08    0.39
  -3   4  -5    7.39    0.39
  -3   4  -5    7.87    0.35
  -3   4  -5    7.66    0.40
   3  -4   5    8.01    0.39
   3  -4   5    7.78    0.49
   3  -4   5    6.73    0.38
   3  -4   5    7.67    0.48
   3  -4   5    9.12    0.44
  -4   4  -5    0.28    0.20
  -4   4  -5    0.57    0.15
  -4   4  -5    0.61    0.20
  -4   4  -5    0.65    0.17
   4  -4   5    0.65    0.22
   4  -4   5    0.70    0.21
   4  -4   5    0.29    0.15
   4  -4   5    0.55    0.17
   4  -4   5    0.63    0.16
  -5   4  -5    0.37    0.18
  -5   4  -5    0.34    0.14
   5  -4   5    0.29    0.15
   5  -4   5    0.43    0.14
  -6   4  -5   -0.06    0.12
  -6   4  -5    0.03    0.15
   6  -4   5    0.02    0.15
   6  -4   5   -0.05    0.12
  -7   4  -5    0.00    0.14
  -8   4  -5    3.23    0.29
   8  -4   5    3.26    0.28
  -9   4  -5    0.37    0.22
   5   3  -5    1.39    0.21
  -5  -3   5    1.07    0.22
   4   3  -5    4.13    0.27
  -4  -3   5    3.87    0.35
   3   3  -5    0.36    0.13
  -3  -3   5    0.30    0.17
   2   3  -5    0.56    0.13
   2   3  -5    0.27    0.16
  -2  -3   5    0.44    0.17
  -2  -3   5    0.37    0.14
  -2  -3   5    0.34    0.13
   1   3  -5    0.07    0.09
   1   3  -5   -0.04    0.11
   1   3  -5   -0.06    0.10
   1   3  -5    0.03    0.10
  -1  -3   5    0.27    0.15
  -1  -3   5    0.17    0.16
  -1  -3   5   -0.11    0.12
   0   3  -5    0.03    0.11
   0   3  -5    0.31    0.12
   0   3  -5    0.24    0.11
   0   3  -5    0.10    0.13
   0   3  -5    0.14    0.11
   0   3  -5    0.22    0.12
   0  -3   5    0.39    0.12
   0  -3   5    0.25    0.10
   0  -3   5    0.31    0.16
   0  -3   5    0.23    0.12
   0  -3   5    0.22    0.14
   0  -3   5    0.22    0.09
  -1   3  -5   71.87    2.38
  -1   3  -5   72.79    2.52
  -1   3  -5   70.50    2.22
  -1   3  -5   72.31    2.55
  -1   3  -5   74.09    2.34
  -1   3  -5   72.45    2.35
   1  -3   5   74.49    2.37
   1  -3   5   72.28    2.24
   1  -3   5   70.04    2.58
   1  -3   5   70.05    2.57
   1  -3   5   72.89    2.42
   1  -3   5   71.57    2.35
  -2   3  -5  145.36    4.90
  -2   3  -5  143.50    4.95
  -2   3  -5  141.05    4.55
  -2   3  -5  143.81    4.62
  -2   3  -5  137.41    4.55
  -2   3  -5  144.57    4.32
   2  -3   5  142.88    4.99
   2  -3   5  153.18    4.67
   2  -3   5  139.99    4.94
   2  -3   5  143.22    4.56
   2  -3   5  140.08    4.57
   2  -3   5  141.38    4.33
  -3   3  -5    1.67    0.17
  -3   3  -5    1.65    0.20
  -3   3  -5    1.50    0.20
  -3   3  -5    1.75    0.18
  -3   3  -5    1.58    0.22
  -3   3  -5    1.65    0.19
   3  -3   5    1.70    0.25
   3  -3   5    1.58    0.17
   3  -3   5    1.48    0.21
   3  -3   5    1.38    0.24
   3  -3   5    1.87    0.21
   3  -3   5    1.10    0.21
  -4   3  -5    1.11    0.18
  -4   3  -5    0.75    0.13
  -4   3  -5    0.75    0.14
  -4   3  -5    0.86    0.16
  -4   3  -5    0.84    0.17
   4  -3   5    1.28    0.15
   4  -3   5    0.94    0.14
   4  -3   5    0.77    0.15
   4  -3   5    0.94    0.20
   4  -3   5    0.93    0.18
  -5   3  -5    4.81    0.31
  -5   3  -5    5.32    0.33
  -5   3  -5    5.63    0.32
   5  -3   5    6.21    0.38
   5  -3   5    4.83    0.34
   5  -3   5    4.79    0.39
  -6   3  -5    4.25    0.30
  -6   3  -5    4.45    0.32
   6  -3   5    4.89    0.31
  -7   3  -5    2.54    0.26
   7  -3   5    3.21    0.26
  -8   3  -5    2.96    0.31
   8  -3   5    3.21    0.26
   5   2  -5    0.91    0.17
  -5  -2   5    0.77    0.18
   4   2  -5   15.40    0.60
  -4  -2   5   14.99    0.63
   3   2  -5    4.30    0.29
   3   2  -5    4.16    0.28
  -3  -2   5    4.19    0.30
  -3  -2   5    4.14    0.33
   2   2  -5    8.64    0.37
   2   2  -5    8.93    0.40
   2   2  -5    9.87    0.41
   2   2  -5    8.86    0.43
  -2  -2   5    9.19    0.46
  -2  -2   5    9.78    0.48
  -2  -2   5    9.70    0.45
  -2  -2   5    9.01    0.47
   1   2  -5    5.74    0.30
   1   2  -5    5.71    0.30
   1   2  -5    5.35    0.30
   1   2  -5    5.44    0.26
   1   2  -5    5.43    0.31
   1   2  -5    5.56    0.31
  -1  -2   5    4.76    0.32
  -1  -2   5    5.00    0.33
  -1  -2   5    5.04    0.31
  -1  -2   5    5.38    0.26
  -1  -2   5    5.78    0.35
  -1  -2   5    5.66    0.30
   0   2  -5    0.78    0.15
   0   2  -5    0.89    0.18
   0   2  -5    0.57    0.12
   0   2  -5    0.57    0.12
   0   2  -5    0.58    0.13
   0  -2   5    0.52    0.14
   0  -2   5    0.43    0.11
   0  -2   5    0.43    0.10
   0  -2   5    0.49    0.11
   0  -2   5    0.60    0.14
   0  -2   5    0.48    0.11
  -1   2  -5    0.29    0.11
  -1   2  -5    0.14    0.13
  -1   2  -5    0.41    0.11
  -1   2  -5    0.12    0.13
  -1   2  -5    0.26    0.13
   1  -2   5    0.18    0.10
   1  -2   5    0.25    0.09
   1  -2   5    0.20    0.13
   1  -2   5    0.30    0.10
   1  -2   5    0.23    0.12
   1  -2   5    0.23    0.11
  -2   2  -5   20.07    0.81
  -2   2  -5   21.09    0.70
  -2   2  -5   19.99    0.75
  -2   2  -5   19.55    0.77
  -2   2  -5   22.55    0.76
  -2   2  -5   20.55    0.80
   2  -2   5   19.99    0.82
   2  -2   5   21.98    0.77
   2  -2   5   20.59    0.71
   2  -2   5   21.72    0.75
   2  -2   5   20.43    0.83
   2  -2   5   21.64    0.80
  -3   2  -5    4.52    0.28
  -3   2  -5    4.51    0.29
  -3   2  -5    5.21    0.30
  -3   2  -5    4.99    0.30
  -3   2  -5    6.04    0.26
  -3   2  -5    4.91    0.29
   3  -2   5    4.52    0.35
   3  -2   5    5.13    0.30
   3  -2   5    5.29    0.27
   3  -2   5    5.50    0.30
   3  -2   5    5.48    0.33
   3  -2   5    5.09    0.25
  -4   2  -5    1.63    0.21
  -4   2  -5    1.09    0.18
  -4   2  -5    1.31    0.20
  -4   2  -5    0.96    0.15
  -4   2  -5    1.16    0.17
  -4   2  -5    1.21    0.15
   4  -2   5    1.24    0.18
   4  -2   5    1.71    0.23
   4  -2   5    1.00    0.17
   4  -2   5    1.28    0.15
   4  -2   5    1.16    0.20
   4  -2   5    1.24    0.19
  -5   2  -5   17.54    0.65
  -5   2  -5   16.91    0.69
  -5   2  -5   17.91    0.70
  -5   2  -5   19.19    0.68
   5  -2   5   17.05    0.62
   5  -2   5   17.53    0.65
   5  -2   5   18.39    0.74
   5  -2   5   17.71    0.67
  -6   2  -5    4.33    0.32
  -6   2  -5    5.05    0.30
   6  -2   5    3.89    0.27
   7  -2   5    2.99    0.23
   5   1  -5    2.27    0.26
   4   1  -5    4.22    0.28
  -4  -1   5    4.69    0.33
   3   1  -5   15.89    0.67
   3   1  -5   16.54    0.65
   3   1  -5   18.06    0.64
  -3  -1   5   14.74    0.66
  -3  -1   5   17.02    0.65
  -3  -1   5   16.02    0.68
   2   1  -5    3.23    0.24
   2   1  -5    3.10    0.19
   2   1  -5    2.99    0.24
   2   1  -5    3.31    0.23
  -2  -1   5    3.19    0.23
  -2  -1   5    2.98    0.23
  -2  -1   5    3.18    0.27
  -2  -1   5    3.15    0.25
   1   1  -5   54.86    1.95
   1   1  -5   54.68    1.93
   1   1  -5   54.52    1.70
   1   1  -5   55.02    1.82
   1   1  -5   55.41    1.79
   1   1  -5   55.84    1.79
  -1  -1   5   55.41    1.97
  -1  -1   5   54.98    1.83
  -1  -1   5   53.27    1.71
  -1  -1   5   51.78    1.80
  -1  -1   5   56.65    1.80
  -1  -1   5   54.36    1.95
   0   1  -5   10.25    0.44
   0   1  -5   10.46    0.45
   0   1  -5   11.03    0.47
   0   1  -5   10.17    0.45
   0   1  -5   11.14    0.47
   0   1  -5   10.68    0.40
   0  -1   5   10.45    0.41
   0  -1   5   10.77    0.47
   0  -1   5   10.13    0.48
   0  -1   5   10.88    0.43
   0  -1   5   11.25    0.46
   0  -1   5   10.35    0.48
  -1   1  -5   24.02    0.84
  -1   1  -5   22.78    0.83
  -1   1  -5   23.95    0.91
  -1   1  -5   24.96    0.91
  -1   1  -5   24.49    0.79
  -1   1  -5   24.48    0.86
   1  -1   5   23.60    0.92
   1  -1   5   23.49    0.92
   1  -1   5   24.20    0.90
   1  -1   5   24.29    0.85
   1  -1   5   23.22    0.80
   1  -1   5   26.01    0.87
  -2   1  -5   47.85    1.55
  -2   1  -5   47.20    1.55
  -2   1  -5   47.84    1.59
  -2   1  -5   47.55    1.67
  -2   1  -5   46.86    1.69
  -2   1  -5   45.15    1.47
   2  -1   5   47.44    1.71
   2  -1   5   48.05    1.71
   2  -1   5   47.54    1.57
   2  -1   5   45.54    1.48
   2  -1   5   50.45    1.58
   2  -1   5   47.29    1.61
  -3   1  -5    3.75    0.23
  -3   1  -5    4.17    0.26
  -3   1  -5    3.94    0.23
  -3   1  -5    3.64    0.29
  -3   1  -5    3.90    0.25
  -3   1  -5    4.20    0.21
   3  -1   5    3.54    0.33
   3  -1   5    4.53    0.31
   3  -1   5    4.00    0.23
   3  -1   5    4.01    0.28
   3  -1   5    4.84    0.28
   3  -1   5    4.17    0.24
  -4   1  -5    5.61    0.29
  -4   1  -5    5.16    0.30
  -4   1  -5    4.58    0.29
  -4   1  -5    5.49    0.30
  -4   1  -5    5.32    0.26
   4  -1   5    5.68    0.28
  -5   1  -5    4.19    0.24
  -5   1  -5    4.07    0.26
  -5   1  -5    4.32    0.25
  -5   1  -5    4.18    0.24
   5  -1   5    4.27    0.27
   5  -1   5    4.62    0.26
   5  -1   5    4.15    0.22
   5  -1   5    4.17    0.25
  -6   1  -5   20.13    0.72
  -6   1  -5   18.82    0.75
   6  -1   5   21.56    0.73
   6  -1   5   18.74    0.68
  -7   1  -5    2.52    0.24
   7  -1   5    2.89    0.22
   6   0  -5    3.81    0.29
  -6   0   5    3.76    0.32
   5   0  -5    3.23    0.26
   4   0  -5    0.04    0.12
  -4   0   5    0.00    0.12
   3   0  -5    5.25    0.31
   3   0  -5    4.64    0.32
   3   0  -5    5.08    0.34
   3   0  -5    5.30    0.29
  -3   0   5    4.25    0.32
  -3   0   5    5.78    0.35
  -3   0   5    4.43    0.30
   2   0  -5    0.39    0.11
   2   0  -5    0.26    0.14
   2   0  -5    0.29    0.11
   2   0  -5    0.17    0.10
   2   0  -5    0.24    0.13
  -2   0   5    0.31    0.09
  -2   0   5    0.52    0.13
  -2   0   5    0.38    0.11
  -2   0   5    0.28    0.12
  -2   0   5    0.46    0.13
   1   0  -5    5.39    0.28
   1   0  -5    5.63    0.31
   1   0  -5    5.29    0.32
   1   0  -5    5.02    0.33
   1   0  -5    4.98    0.37
   1   0  -5    4.96    0.27
  -1   0   5    5.53    0.28
  -1   0   5    5.54    0.25
  -1   0   5    5.47    0.30
  -1   0   5    5.54    0.29
  -1   0   5    5.48    0.30
  -1   0   5    5.44    0.30
   0   0  -5    3.64    0.25
   0   0  -5    3.17    0.28
   0   0  -5    3.32    0.26
   0   0  -5    4.07    0.21
   0   0  -5    3.74    0.24
   0   0   5    3.95    0.24
   0   0   5    3.87    0.21
   0   0   5    4.49    0.31
   0   0   5    3.91    0.25
  -1   0  -5   36.99    1.34
  -1   0  -5   38.65    1.18
  -1   0  -5   37.01    1.27
  -1   0  -5   36.19    1.24
  -1   0  -5   38.73    1.25
  -1   0  -5   38.14    1.36
   1   0   5   36.76    1.19
   1   0   5   37.86    1.28
   1   0   5   37.84    1.26
   1   0   5   37.34    1.36
   1   0   5   37.01    1.26
   1   0   5   37.52    1.37
  -2   0  -5  318.08   10.07
  -2   0  -5  309.45    9.94
  -2   0  -5  313.09   10.66
  -2   0  -5  329.44    9.46
  -2   0  -5  317.57    9.94
  -2   0  -5  314.68   10.79
   2   0   5  306.60   10.11
   2   0   5  309.64   10.89
   2   0   5  320.45   10.03
   2   0   5  318.55   10.76
   2   0   5  320.88   10.04
   2   0   5  314.49    9.54
  -3   0  -5    3.72    0.23
  -3   0  -5    3.90    0.23
  -3   0  -5    3.54    0.21
  -3   0  -5    3.37    0.24
  -3   0  -5    3.96    0.23
  -3   0  -5    3.92    0.19
   3   0   5    4.38    0.27
   3   0   5    3.95    0.26
   3   0   5    4.34    0.28
   3   0   5    4.42    0.25
   3   0   5    3.92    0.21
   3   0   5    3.66    0.24
  -4   0  -5    0.17    0.10
  -4   0  -5    0.12    0.09
  -4   0  -5   -0.09    0.10
  -4   0  -5    0.19    0.10
  -4   0  -5    0.22    0.09
   4   0   5    0.15    0.08
   4   0   5   -0.06    0.09
   4   0   5    0.10    0.10
   4   0   5    0.23    0.08
   4   0   5    0.06    0.13
  -5   0  -5    0.04    0.09
  -5   0  -5    0.09    0.08
  -5   0  -5    0.02    0.09
  -5   0  -5    0.11    0.07
   5   0   5    0.12    0.08
   5   0   5    0.12    0.07
   5   0   5   -0.02    0.07
   5   0   5    0.05    0.09
  -6   0  -5   20.96    0.74
  -6   0  -5   20.47    0.77
   6   0   5   20.68    0.69
   6   0   5   21.66    0.73
   6  -1  -5    0.55    0.16
  -6   1   5    0.67    0.17
   5  -1  -5    3.72    0.28
  -5   1   5    3.72    0.30
   4  -1  -5    8.54    0.40
   4  -1  -5    8.65    0.40
  -4   1   5    7.75    0.41
   3  -1  -5    1.41    0.25
  -3   1   5    1.37    0.23
   2  -1  -5   -0.16    0.11
   2  -1  -5    0.02    0.09
   2  -1  -5   -0.19    0.13
   2  -1  -5   -0.05    0.09
   2  -1  -5    0.09    0.11
   2  -1  -5   -0.10    0.10
  -2   1   5    0.31    0.11
  -2   1   5    0.06    0.10
  -2   1   5   -0.02    0.09
  -2   1   5   -0.17    0.11
  -2   1   5   -0.13    0.09
   1  -1  -5    6.86    0.39
   1  -1  -5    7.67    0.39
   1  -1  -5    7.17    0.32
   1  -1  -5    8.33    0.35
   1  -1  -5    7.31    0.39
  -1   1   5    7.35    0.36
  -1   1   5    7.70    0.36
  -1   1   5    7.64    0.37
  -1   1   5    7.07    0.31
  -1   1   5    7.46    0.34
  -1   1   5    8.03    0.36
   0  -1  -5    0.10    0.12
   0  -1  -5    0.25    0.13
   0  -1  -5   -0.10    0.12
   0  -1  -5   -0.15    0.14
   0  -1  -5    0.11    0.14
   0   1   5    0.37    0.11
   0   1   5    0.12    0.12
   0   1   5    0.32    0.12
   0   1   5    0.10    0.10
  -1  -1  -5    8.24    0.35
  -1  -1  -5    8.24    0.32
  -1  -1  -5    8.16    0.37
  -1  -1  -5    8.16    0.37
  -1  -1  -5    8.02    0.34
  -1  -1  -5    8.11    0.37
   1   1   5    8.25    0.38
   1   1   5    8.80    0.36
   1   1   5    8.36    0.37
   1   1   5    8.46    0.33
   1   1   5    8.32    0.38
  -2  -1  -5    1.51    0.16
  -2  -1  -5    1.56    0.15
  -2  -1  -5    1.41    0.18
  -2  -1  -5    1.71    0.14
  -2  -1  -5    1.38    0.17
   2   1   5    1.14    0.17
   2   1   5    1.22    0.13
   2   1   5    1.31    0.18
   2   1   5    1.18    0.15
   2   1   5    1.30    0.16
   2   1   5    1.27    0.12
  -3  -1  -5   36.50    1.31
  -3  -1  -5   35.31    1.20
  -3  -1  -5   37.69    1.14
  -3  -1  -5   36.15    1.29
  -3  -1  -5   35.65    1.19
  -3  -1  -5   34.32    1.22
   3   1   5   37.34    1.15
   3   1   5   37.77    1.31
   3   1   5   36.86    1.21
   3   1   5   37.23    1.21
   3   1   5   36.42    1.23
   3   1   5   36.16    1.31
  -4  -1  -5   24.35    0.88
  -4  -1  -5   25.11    0.89
  -4  -1  -5   23.43    0.82
  -4  -1  -5   23.92    0.85
   4   1   5   23.30    0.82
   4   1   5   23.60    0.78
   4   1   5   23.76    0.83
   4   1   5   25.01    0.90
  -5  -1  -5    5.74    0.27
  -5  -1  -5    5.70    0.28
   5   1   5    5.68    0.26
   5   1   5    5.77    0.24
  -6  -1  -5    0.09    0.08
  -6  -1  -5    0.01    0.08
   6  -2  -5    2.45    0.28
  -6   2   5    2.23    0.26
   5  -2  -5    7.41    0.39
  -5   2   5    8.56    0.42
   4  -2  -5    0.83    0.17
   4  -2  -5    0.89    0.16
  -4   2   5    0.83    0.16
  -4   2   5    0.75    0.15
  -3   2   5    0.20    0.13
   2  -2  -5    5.93    0.34
   2  -2  -5    5.29    0.26
   2  -2  -5    5.72    0.31
   2  -2  -5    5.16    0.32
   2  -2  -5    5.67    0.35
   2  -2  -5    5.57    0.36
  -2   2   5    5.40    0.27
  -2   2   5    6.03    0.32
  -2   2   5    5.67    0.31
  -2   2   5    5.44    0.31
  -2   2   5    5.32    0.29
   1  -2  -5   30.23    1.13
   1  -2  -5   28.93    1.06
   1  -2  -5   29.26    0.97
   1  -2  -5   29.12    1.03
   1  -2  -5   31.51    1.12
   1  -2  -5   30.66    1.04
  -1   2   5   30.16    1.13
  -1   2   5   30.00    1.05
  -1   2   5   29.59    1.04
  -1   2   5   30.07    0.98
  -1   2   5   30.66    1.04
  -1   2   5   31.21    1.12
   0  -2  -5    5.50    0.27
   0  -2  -5    5.56    0.32
   0  -2  -5    6.20    0.34
   0  -2  -5    6.61    0.34
   0  -2  -5    5.26    0.31
   0  -2  -5    5.32    0.36
   0   2   5    5.48    0.30
   0   2   5    5.73    0.27
   0   2   5    6.77    0.34
   0   2   5    5.63    0.31
   0   2   5    5.65    0.33
  -1  -2  -5   31.15    1.18
  -1  -2  -5   29.94    1.12
  -1  -2  -5   31.48    1.03
  -1  -2  -5   29.97    1.18
  -1  -2  -5   29.96    1.08
  -1  -2  -5   30.77    1.09
   1   2   5   33.61    1.11
   1   2   5   37.74    1.05
   1   2   5   37.90    1.20
  -2  -2  -5  101.13    3.46
  -2  -2  -5  103.39    3.05
  -2  -2  -5  100.54    3.22
  -2  -2  -5  100.20    3.21
  -2  -2  -5   99.74    3.27
  -2  -2  -5  100.62    3.50
   2   2   5   98.26    3.22
   2   2   5  103.19    3.06
   2   2   5   99.79    3.46
   2   2   5  102.43    3.51
   2   2   5  104.58    3.23
   2   2   5   98.32    3.26
  -3  -2  -5   17.62    0.61
  -3  -2  -5   17.23    0.67
  -3  -2  -5   17.94    0.68
  -3  -2  -5   17.18    0.62
  -3  -2  -5   17.58    0.65
  -3  -2  -5   18.03    0.58
   3   2   5   17.58    0.68
   3   2   5   18.43    0.68
   3   2   5   17.40    0.64
   3   2   5   17.18    0.59
   3   2   5   17.78    0.64
   3   2   5   18.11    0.63
  -4  -2  -5    6.21    0.29
  -4  -2  -5    6.08    0.28
  -4  -2  -5    6.44    0.34
  -4  -2  -5    6.28    0.30
   4   2   5    6.85    0.31
   4   2   5    5.85    0.30
   4   2   5    5.53    0.28
   4   2   5    5.37    0.25
  -5  -2  -5    0.19    0.09
  -5  -2  -5    0.30    0.09
   5   2   5    0.34    0.08
   5   2   5    0.23    0.07
   6  -3  -5    0.06    0.15
  -6   3   5    0.27    0.16
   5  -3  -5    4.98    0.34
  -5   3   5    4.30    0.35
   4  -3  -5    1.75    0.27
  -4   3   5    1.52    0.25
  -4   3   5    1.97    0.24
   3  -3  -5    3.38    0.29
  -3   3   5    3.90    0.30
  -3   3   5    3.81    0.27
  -3   3   5    3.74    0.33
   2  -3  -5   14.95    0.57
   2  -3  -5   16.39    0.65
   2  -3  -5   15.93    0.62
   2  -3  -5   15.66    0.67
   2  -3  -5   16.44    0.67
   2  -3  -5   15.93    0.60
  -2   3   5   15.93    0.66
  -2   3   5   16.51    0.58
  -2   3   5   15.72    0.61
  -2   3   5   16.03    0.67
  -2   3   5   15.95    0.62
  -2   3   5   15.27    0.62
   1  -3  -5    7.07    0.31
   1  -3  -5    7.17    0.36
   1  -3  -5    8.02    0.41
   1  -3  -5    7.06    0.34
   1  -3  -5    7.32    0.38
   1  -3  -5    6.67    0.37
  -1   3   5    7.59    0.36
  -1   3   5    7.49    0.35
  -1   3   5    7.48    0.37
  -1   3   5    7.78    0.33
  -1   3   5    7.36    0.35
  -1   3   5    7.23    0.37
   0  -3  -5   89.21    2.88
   0  -3  -5   86.96    3.04
   0  -3  -5   86.76    2.83
   0  -3  -5   89.78    2.67
   0  -3  -5   85.29    3.07
   0  -3  -5   85.29    2.81
   0   3   5   91.15    3.04
   0   3   5   85.86    2.82
   0   3   5   89.03    3.08
   0   3   5   89.20    2.68
   0   3   5   88.90    2.86
   0   3   5   83.35    2.82
  -1  -3  -5    4.82    0.31
  -1  -3  -5    4.71    0.25
  -1  -3  -5    4.27    0.28
   1   3   5    3.71    0.26
   1   3   5    5.05    0.29
   1   3   5    3.98    0.23
   1   3   5    5.21    0.29
   1   3   5    5.27    0.29
   1   3   5    3.69    0.25
  -2  -3  -5    1.18    0.18
  -2  -3  -5    1.22    0.15
  -2  -3  -5    1.41    0.20
  -2  -3  -5    1.21    0.16
  -2  -3  -5    0.91    0.13
   2   3   5    0.86    0.13
   2   3   5    0.76    0.14
   2   3   5    0.95    0.12
   2   3   5    0.83    0.16
  -3  -3  -5    4.02    0.33
  -3  -3  -5    5.21    0.28
  -3  -3  -5    3.94    0.27
  -3  -3  -5    4.69    0.26
   3   3   5    5.33    0.23
   3   3   5    4.73    0.26
   3   3   5    5.20    0.27
   3   3   5    4.08    0.27
   3   3   5    4.65    0.25
  -4  -3  -5    3.25    0.20
  -4  -3  -5    2.82    0.24
  -4  -3  -5    2.97    0.21
   4   3   5    2.78    0.20
   4   3   5    3.03    0.20
   4   3   5    3.02    0.19
   4   3   5    2.82    0.16
  -5  -3  -5   29.07    1.02
  -5  -3  -5   28.47    0.98
   5   3   5   28.80    0.90
   5   3   5   27.87    0.95
   6  -4  -5    0.14    0.15
  -6   4   5    0.11    0.16
  -5   4   5    1.02    0.20
  -4   4   5   12.23    0.54
  -4   4   5   12.75    0.55
  -3   4   5    1.17    0.17
  -3   4   5    1.41    0.24
   2  -4  -5    2.26    0.33
   2  -4  -5    2.21    0.37
   2  -4  -5    2.07    0.26
  -2   4   5    1.25    0.24
  -2   4   5    2.22    0.26
  -2   4   5    1.62    0.24
  -2   4   5    1.44    0.24
   1  -4  -5    4.73    0.32
   1  -4  -5    4.49    0.24
   1  -4  -5    4.14    0.29
  -1   4   5    4.42    0.25
  -1   4   5    4.31    0.28
  -1   4   5    4.68    0.31
  -1   4   5    4.68    0.29
  -1   4   5    4.22    0.28
   0  -4  -5    1.16    0.15
   0  -4  -5    1.22    0.21
   0  -4  -5    1.25    0.19
   0   4   5    1.37    0.15
   0   4   5    1.17    0.20
   0   4   5    1.47    0.20
   0   4   5    1.28    0.17
   0   4   5    1.17    0.19
   0   4   5    1.21    0.17
  -1  -4  -5   17.11    0.58
  -1  -4  -5   16.78    0.69
  -1  -4  -5   17.61    0.69
   1   4   5   16.23    0.67
   1   4   5   16.15    0.68
   1   4   5   16.38    0.59
   1   4   5   17.85    0.64
   1   4   5   16.57    0.63
   1   4   5   16.99    0.63
  -3  -4  -5   18.79    0.74
  -3  -4  -5   19.23    0.74
  -3  -4  -5   19.51    0.69
   3   4   5   18.98    0.69
   3   4   5   19.27    0.69
   3   4   5   19.03    0.65
   3   4   5   18.94    0.74
  -4  -4  -5   37.05    1.32
   4   4   5   36.75    1.16
   4   4   5   37.04    1.23
  -5  -4  -5   10.43    0.44
  -5  -4  -5   10.46    0.45
   5   4   5   10.48    0.38
   5   4   5   11.18    0.42
  -6   5   5   -0.18    0.18
  -5   5   5    1.51    0.27
  -5   5   5    1.37    0.21
  -4   5   5    2.92    0.30
  -4   5   5    2.40    0.27
  -3   5   5    4.67    0.32
  -3   5   5    4.83    0.33
   2  -5  -5    1.73    0.31
  -2   5   5    1.91    0.26
  -2   5   5    1.43    0.25
  -2   5   5    1.61    0.26
  -2   5   5    1.60    0.21
   1  -5  -5   11.00    0.47
   1  -5  -5   11.76    0.56
  -1   5   5   10.45    0.51
  -1   5   5   10.38    0.51
  -1   5   5   10.56    0.49
  -1   5   5   10.63    0.48
  -1   5   5   10.67    0.46
  -1   5   5   11.15    0.49
   0  -5  -5    4.36    0.30
   0  -5  -5    4.52    0.32
   0  -5  -5    4.59    0.25
   0   5   5    4.35    0.28
   0   5   5    4.69    0.29
   0   5   5    4.37    0.29
   0   5   5    4.47    0.28
   0   5   5    4.45    0.30
   0   5   5    4.55    0.25
  -1  -5  -5    4.60    0.30
  -1  -5  -5    4.72    0.31
  -1  -5  -5    4.78    0.25
   1   5   5    4.70    0.30
   1   5   5    4.48    0.26
   1   5   5    4.49    0.29
   1   5   5    5.15    0.29
   1   5   5    4.53    0.31
   1   5   5    5.29    0.31
  -2  -5  -5    2.67    0.24
  -2  -5  -5    2.66    0.26
   2   5   5    2.74    0.25
   2   5   5    2.27    0.22
   2   5   5    2.64    0.22
   2   5   5    2.53    0.20
  -3  -5  -5    9.22    0.44
  -3  -5  -5    9.85    0.44
   3   5   5    9.26    0.40
   3   5   5    9.24    0.37
   3   5   5    9.50    0.41
   3   5   5    8.99    0.42
  -4  -5  -5    9.20    0.43
   4   5   5    9.46    0.40
   4   5   5    9.06    0.37
  -5  -5  -5   28.04    1.00
   5   5   5   26.60    0.93
   5   5   5   26.55    0.87
  -5   6   5    0.28    0.17
  -5   6   5   -0.11    0.16
  -4   6   5    1.04    0.21
  -4   6   5    0.96    0.21
  -3   6   5    3.20    0.29
  -3   6   5    3.26    0.29
  -2   6   5   10.09    0.49
  -2   6   5   10.34    0.50
  -2   6   5    9.99    0.49
  -1   6   5    1.04    0.18
  -1   6   5    0.86    0.17
  -1   6   5    0.75    0.17
   0  -6  -5   14.76    0.60
   0   6   5   16.51    0.69
   0   6   5   14.19    0.68
   0   6   5   16.56    0.68
   0   6   5   18.90    0.69
   1   6   5    0.36    0.20
   1   6   5    0.52    0.14
   1   6   5    0.81    0.18
   2   6   5    2.14    0.25
   2   6   5    2.17    0.26
   2   6   5    2.33    0.26
  -3  -6  -5   18.15    0.75
  -3  -6  -5   18.00    0.75
   3   6   5   21.45    0.73
   3   6   5   17.24    0.66
   3   6   5   17.43    0.75
   3   6   5   18.94    0.71
  -4  -6  -5    5.60    0.36
   4   6   5    6.50    0.34
   4   6   5    5.91    0.29
   5   6   5    1.01    0.14
  -4   7   5    2.57    0.30
  -4   7   5    2.71    0.30
  -3   7   5   10.40    0.53
  -3   7   5   11.38    0.55
  -2   7   5    8.67    0.44
  -2   7   5    8.25    0.45
  -2   7   5    8.51    0.44
  -1   7   5    2.37    0.27
  -1   7   5    2.50    0.28
  -1   7   5    2.65    0.27
   0   7   5    5.10    0.34
   0   7   5    5.27    0.34
   0   7   5    5.43    0.37
   1   7   5    2.47    0.29
   1   7   5    2.89    0.29
   2   7   5    1.94    0.26
   2   7   5    1.49    0.26
   3   7   5    0.00    0.13
   3   7   5    0.04    0.11
   4   7   5   11.01    0.49
   5   7   5    0.16    0.12
  -4   8   5    4.02    0.37
  -4   8   5    4.38    0.37
  -3   8   5    0.04    0.16
  -3   8   5   -0.05    0.16
  -2   8   5   15.13    0.66
  -2   8   5   15.36    0.67
  -2   8   5   14.46    0.66
  -1   8   5    3.48    0.34
  -1   8   5    4.09    0.35
  -1   8   5    3.73    0.33
   0   8   5    3.73    0.32
   0   8   5    3.45    0.30
   1   8   5    0.17    0.15
   1   8   5    0.26    0.15
   2   8   5    0.10    0.14
   2   8   5    0.23    0.14
   3   8   5    0.37    0.15
   4   8   5    1.27    0.19
   5   8   5   17.32    0.69
  -2   9   5    5.71    0.41
  -2   9   5    5.21    0.37
  -2   9   5    5.34    0.38
  -1   9   5   10.85    0.55
  -1   9   5   11.42    0.56
  -1   9   5   11.55    0.57
   0   9   5    0.30    0.17
   0   9   5    0.21    0.17
   1   9   5    8.83    0.50
   1   9   5    9.39    0.49
   2   9   5    1.58    0.28
   2   9   5    1.68    0.27
   3   9   5    3.77    0.31
   4   9   5    9.93    0.48
   0  10   5    2.65    0.35
   0  10   5    2.10    0.33
   1  10   5    4.30    0.35
   1  10   5    4.13    0.37
   2  10   5    5.07    0.37
   3  10   5    3.54    0.33
   4  10   5    2.13    0.33
  -1   8  -6    3.92    0.40
  -1   8  -6    5.15    0.42
   1  -8   6    3.78    0.45
   1  -8   6    3.93    0.39
  -2   8  -6    1.26    0.27
  -2   8  -6    1.15    0.25
   2  -8   6    1.05    0.25
   2  -8   6    1.12    0.30
  -3   8  -6    0.48    0.26
  -3   8  -6    0.74    0.26
  -3   8  -6    0.79    0.24
   3  -8   6    0.59    0.20
   3  -8   6    0.73    0.28
   3  -8   6    0.46    0.21
  -2  -7   6    0.04    0.23
   1   7  -6    0.84    0.19
   1   7  -6    0.86    0.20
  -1  -7   6    0.50    0.28
  -1  -7   6    0.70    0.21
   0   7  -6    0.91    0.20
   0   7  -6    1.21    0.22
   0  -7   6    0.75    0.26
   0  -7   6    1.04    0.22
  -1   7  -6   15.68    0.67
  -1   7  -6   15.14    0.66
   1  -7   6   14.12    0.74
   1  -7   6   14.09    0.67
  -2   7  -6    0.06    0.19
  -2   7  -6    0.12    0.18
  -2   7  -6    0.14    0.18
   2  -7   6    0.14    0.24
   2  -7   6    0.19    0.15
   2  -7   6    0.21    0.18
  -3   7  -6    0.00    0.19
  -3   7  -6    0.17    0.20
  -3   7  -6    0.40    0.20
   3  -7   6    0.25    0.25
   3  -7   6    0.11    0.16
   3  -7   6    0.31    0.20
  -4   7  -6    4.95    0.38
  -4   7  -6    4.88    0.39
   4  -7   6    5.21    0.37
   4  -7   6    4.76    0.41
  -5   7  -6    6.99    0.44
  -5   7  -6    6.67    0.44
   5  -7   6    6.35    0.47
   5  -7   6    6.43    0.44
  -6   7  -6    0.60    0.28
  -6   7  -6    0.78    0.24
   6  -7   6    0.60    0.23
   6  -7   6    0.60    0.20
   3   6  -6   -0.14    0.16
  -3  -6   6    0.17    0.21
   2   6  -6    2.76    0.28
  -2  -6   6    2.68    0.35
   1   6  -6    7.18    0.44
   1   6  -6    7.59    0.42
  -1  -6   6    7.68    0.45
  -1  -6   6    7.12    0.49
   0   6  -6    1.36    0.23
   0   6  -6    1.80    0.28
   0  -6   6    1.68    0.28
   0  -6   6    1.60    0.29
  -1   6  -6    0.35    0.17
  -1   6  -6    0.35    0.16
   1  -6   6    0.34    0.25
   1  -6   6    0.28    0.20
  -2   6  -6   -0.20    0.16
  -2   6  -6   -0.01    0.15
  -2   6  -6    0.07    0.15
   2  -6   6   -0.05    0.22
   2  -6   6    0.24    0.19
   2  -6   6   -0.06    0.17
  -3   6  -6    9.79    0.51
  -3   6  -6    9.87    0.52
  -3   6  -6   10.23    0.52
   3  -6   6   10.95    0.53
   3  -6   6   12.83    0.59
  -4   6  -6    4.63    0.40
  -4   6  -6    4.88    0.38
   4  -6   6    4.60    0.34
   4  -6   6    4.53    0.38
   4  -6   6    5.09    0.48
  -5   6  -6   18.22    0.77
  -5   6  -6   18.17    0.75
   5  -6   6   17.71    0.77
   5  -6   6   18.13    0.75
  -6   6  -6    0.34    0.19
  -6   6  -6    0.24    0.20
   6  -6   6    0.20    0.16
   6  -6   6    0.26    0.19
  -7   6  -6    1.11    0.24
   7  -6   6    1.75    0.29
  -4  -5   6    0.68    0.23
   3   5  -6    3.18    0.28
  -3  -5   6    2.99    0.35
   2   5  -6    1.80    0.27
  -2  -5   6    2.06    0.32
   1   5  -6    0.98    0.17
   1   5  -6    1.00    0.17
  -1  -5   6    0.73    0.19
  -1  -5   6    0.72    0.22
   0   5  -6    0.23    0.15
   0   5  -6    0.09    0.14
   0  -5   6    0.16    0.15
   0  -5   6    0.18    0.19
  -1   5  -6   21.87    0.83
  -1   5  -6   22.54    0.85
  -1   5  -6   22.03    0.82
   1  -5   6   20.90    0.85
   1  -5   6   21.34    0.90
   1  -5   6   22.36    0.83
  -2   5  -6    4.10    0.32
  -2   5  -6    4.17    0.33
   2  -5   6    4.26    0.39
   2  -5   6    4.36    0.34
   2  -5   6    4.52    0.30
  -3   5  -6    6.54    0.38
  -3   5  -6    6.78    0.40
  -3   5  -6    6.60    0.39
   3  -5   6    6.62    0.37
   3  -5   6    6.37    0.39
   3  -5   6    6.61    0.47
  -4   5  -6   15.17    0.63
  -4   5  -6   14.35    0.65
  -4   5  -6   14.45    0.64
   4  -5   6   15.89    0.72
   4  -5   6   15.04    0.63
   4  -5   6   14.81    0.66
  -5   5  -6    3.03    0.31
  -5   5  -6    2.85    0.29
   5  -5   6    2.96    0.33
   5  -5   6    2.94    0.27
  -6   5  -6    2.09    0.30
   6  -5   6    1.95    0.26
   6  -5   6    2.18    0.30
  -7   5  -6   -0.06    0.18
   7  -5   6   -0.06    0.14
  -8   5  -6    0.56    0.20
   8  -5   6    0.28    0.18
   4   4  -6    1.76    0.25
  -4  -4   6    2.35    0.33
  -3  -4   6    0.45    0.20
   2   4  -6    6.98    0.37
   2   4  -6    7.10    0.38
  -2  -4   6    6.71    0.43
  -2  -4   6    7.09    0.42
   1   4  -6    1.00    0.16
   1   4  -6    1.04    0.17
  -1  -4   6    0.76    0.17
  -1  -4   6    0.79    0.20
   0   4  -6   14.31    0.60
   0   4  -6   15.24    0.59
   0   4  -6   14.50    0.59
   0  -4   6   14.45    0.58
   0  -4   6   11.90    0.67
   0  -4   6   13.65    0.62
  -1   4  -6   26.13    0.96
  -1   4  -6   26.57    0.96
  -1   4  -6   27.37    1.04
  -1   4  -6   26.80    0.98
   1  -4   6   25.90    0.93
   1  -4   6   27.51    0.99
   1  -4   6   26.72    1.04
   1  -4   6   26.08    0.96
  -2   4  -6   11.01    0.49
  -2   4  -6   10.31    0.49
   2  -4   6    9.03    0.47
   2  -4   6    8.93    0.54
   2  -4   6    8.99    0.44
  -3   4  -6   47.01    1.61
  -3   4  -6   47.59    1.58
  -3   4  -6   46.67    1.50
  -3   4  -6   47.26    1.58
   3  -4   6   46.11    1.66
   3  -4   6   46.24    1.58
   3  -4   6   46.18    1.78
   3  -4   6   44.47    1.59
  -4   4  -6    4.11    0.34
  -4   4  -6    4.45    0.32
  -4   4  -6    4.01    0.32
   4  -4   6    4.21    0.40
   4  -4   6    3.75    0.30
   4  -4   6    3.65    0.32
  -5   4  -6   21.18    0.80
  -5   4  -6   21.70    0.83
   5  -4   6   20.93    0.83
   5  -4   6   21.23    0.81
  -6   4  -6    1.16    0.18
  -6   4  -6    1.13    0.20
   6  -4   6    1.13    0.20
   6  -4   6    1.36    0.23
  -7   4  -6    0.26    0.20
   7  -4   6    0.24    0.15
  -8   4  -6    6.38    0.39
   8  -4   6    6.04    0.37
   5   3  -6    3.86    0.30
  -5  -3   6    3.78    0.37
   4   3  -6    8.41    0.41
  -4  -3   6    8.02    0.48
   3   3  -6    1.91    0.22
  -3  -3   6    1.64    0.25
   2   3  -6    3.90    0.27
   2   3  -6    4.13    0.29
  -2  -3   6    3.07    0.31
  -2  -3   6    3.24    0.30
   1   3  -6    0.17    0.13
   1   3  -6    0.00    0.13
  -1  -3   6   -0.07    0.16
  -1  -3   6   -0.02    0.14
   0   3  -6    3.77    0.35
   0   3  -6    2.60    0.30
   0  -3   6    3.60    0.24
   0  -3   6    3.46    0.26
   0  -3   6    4.39    0.41
   0  -3   6    3.35    0.31
  -1   3  -6   12.69    0.53
  -1   3  -6   12.36    0.49
  -1   3  -6   12.28    0.53
  -1   3  -6   12.12    0.56
  -1   3  -6   12.21    0.54
  -1   3  -6   12.09    0.56
   1  -3   6   14.36    0.62
   1  -3   6   13.32    0.67
   1  -3   6   13.53    0.54
   1  -3   6   13.56    0.57
   1  -3   6   12.59    0.63
   1  -3   6   11.93    0.52
  -2   3  -6    0.68    0.14
  -2   3  -6    0.83    0.16
  -2   3  -6    0.89    0.17
  -2   3  -6    0.62    0.13
  -2   3  -6    0.79    0.15
  -2   3  -6    0.74    0.14
   2  -3   6    0.49    0.16
   2  -3   6    0.92    0.21
   2  -3   6    0.78    0.20
   2  -3   6    1.23    0.21
   2  -3   6    0.49    0.16
  -3   3  -6    5.27    0.31
  -3   3  -6    4.90    0.32
  -3   3  -6    5.35    0.29
  -3   3  -6    4.88    0.33
  -3   3  -6    5.51    0.32
  -3   3  -6    5.16    0.31
   3  -3   6    5.28    0.43
   3  -3   6    5.21    0.36
   3  -3   6    6.51    0.34
   3  -3   6    5.53    0.32
   3  -3   6    5.77    0.41
  -4   3  -6   44.74    1.48
  -4   3  -6   44.18    1.48
  -4   3  -6   43.44    1.51
  -4   3  -6   44.55    1.62
   4  -3   6   43.98    1.49
   4  -3   6   43.34    1.55
   4  -3   6   42.47    1.49
   4  -3   6   42.87    1.64
  -5   3  -6    2.04    0.24
  -5   3  -6    1.99    0.30
  -5   3  -6    1.85    0.22
   5  -3   6    1.68    0.25
   5  -3   6    1.96    0.23
   5  -3   6    1.81    0.26
  -6   3  -6   32.28    1.15
  -6   3  -6   32.90    1.18
   6  -3   6   33.46    1.17
   6  -3   6   33.46    1.16
  -7   3  -6    8.05    0.42
   7  -3   6    8.45    0.41
  -8   3  -6   -0.01    0.15
   8  -3   6    0.06    0.13
   5   2  -6    0.49    0.15
  -5  -2   6    0.36    0.18
   4   2  -6    0.04    0.15
  -4  -2   6    0.13    0.17
   3   2  -6    1.58    0.23
  -3  -2   6    1.66    0.27
   2   2  -6   14.50    0.58
   2   2  -6   14.22    0.58
  -2  -2   6   13.96    0.62
  -2  -2   6   14.42    0.60
   1   2  -6    4.24    0.32
   1   2  -6    4.52    0.33
   1   2  -6    5.53    0.37
  -1  -2   6    5.31    0.42
  -1  -2   6    4.23    0.31
  -1  -2   6    3.62    0.35
   0   2  -6    0.18    0.12
   0   2  -6    0.22    0.11
   0   2  -6    0.28    0.11
   0   2  -6    0.13    0.13
   0   2  -6    0.27    0.10
   0   2  -6    0.17    0.12
   0  -2   6    0.30    0.13
   0  -2   6    0.28    0.11
   0  -2   6    0.42    0.12
   0  -2   6    0.22    0.13
   0  -2   6    0.16    0.14
  -1   2  -6   23.69    0.85
  -1   2  -6   23.94    0.81
  -1   2  -6   21.73    0.92
  -1   2  -6   23.48    0.87
  -1   2  -6   23.96    0.92
  -1   2  -6   24.31    0.85
   1  -2   6   23.21    0.81
   1  -2   6   25.54    0.86
   1  -2   6   23.85    0.96
   1  -2   6   24.72    0.88
   1  -2   6   24.35    0.91
   1  -2   6   22.46    0.94
  -2   2  -6   24.18    0.89
  -2   2  -6   25.35    0.85
  -2   2  -6   24.71    0.97
  -2   2  -6   25.14    0.97
  -2   2  -6   25.88    0.92
  -2   2  -6   25.94    0.90
   2  -2   6   25.78    0.96
   2  -2   6   25.35    0.86
   2  -2   6   24.89    1.01
   2  -2   6   24.20    1.00
   2  -2   6   26.28    0.93
   2  -2   6   27.15    0.91
  -3   2  -6    0.25    0.15
  -3   2  -6    0.69    0.14
  -3   2  -6    0.60    0.14
  -3   2  -6    0.34    0.14
  -3   2  -6    0.59    0.13
  -3   2  -6    0.61    0.13
   3  -2   6    0.39    0.13
   3  -2   6    0.66    0.13
   3  -2   6    0.35    0.15
   3  -2   6    0.55    0.11
   3  -2   6    0.44    0.13
   3  -2   6    0.49    0.16
  -4   2  -6    3.92    0.25
  -4   2  -6    4.04    0.26
  -4   2  -6    4.00    0.26
   4  -2   6    4.45    0.30
   4  -2   6    3.97    0.24
   4  -2   6    4.01    0.28
   4  -2   6    3.94    0.35
   4  -2   6    3.97    0.26
  -5   2  -6   24.54    0.92
  -5   2  -6   25.16    0.89
  -5   2  -6   24.59    0.98
   5  -2   6   25.96    0.91
   5  -2   6   25.83    1.01
   5  -2   6   25.22    0.92
  -6   2  -6   13.50    0.58
   6  -2   6   13.92    0.55
  -7   2  -6    0.22    0.14
   7  -2   6    0.28    0.12
  -8   2  -6    0.63    0.18
   8  -2   6    0.76    0.15
   6   1  -6    2.01    0.27
  -6  -1   6    2.37    0.30
   5   1  -6    3.73    0.30
  -5  -1   6    3.63    0.32
   4   1  -6   15.93    0.60
  -4  -1   6   13.98    0.68
   3   1  -6    0.45    0.14
   3   1  -6    0.35    0.14
  -3  -1   6    0.56    0.17
  -3  -1   6    0.55    0.15
   2   1  -6    8.30    0.40
   2   1  -6    8.21    0.42
  -2  -1   6    7.97    0.43
  -2  -1   6    7.60    0.40
  -2  -1   6    7.78    0.42
   1   1  -6   13.54    0.52
   1   1  -6   12.75    0.54
   1   1  -6   12.55    0.48
   1   1  -6   12.56    0.56
   1   1  -6   12.83    0.52
   1   1  -6   12.50    0.56
  -1  -1   6   13.02    0.50
  -1  -1   6   13.72    0.54
  -1  -1   6   13.85    0.56
  -1  -1   6   12.43    0.59
  -1  -1   6   12.41    0.56
  -1  -1   6   13.09    0.58
   0   1  -6   13.34    0.53
   0   1  -6   13.19    0.50
   0   1  -6   13.93    0.53
   0   1  -6   13.07    0.58
   0   1  -6   12.69    0.57
   0   1  -6   14.20    0.56
   0  -1   6   13.93    0.59
   0  -1   6   13.17    0.53
   0  -1   6   13.13    0.59
   0  -1   6   13.46    0.50
   0  -1   6   13.90    0.56
   0  -1   6   14.18    0.59
  -1   1  -6    0.28    0.13
  -1   1  -6    0.31    0.13
  -1   1  -6    0.36    0.11
  -1   1  -6    0.33    0.11
  -1   1  -6    0.42    0.10
  -1   1  -6    0.31    0.10
   1  -1   6    0.34    0.10
   1  -1   6    0.30    0.12
   1  -1   6    0.29    0.11
   1  -1   6    0.21    0.11
   1  -1   6    0.33    0.14
   1  -1   6    0.23    0.09
  -2   1  -6   17.80    0.72
  -2   1  -6   17.81    0.66
  -2   1  -6   18.91    0.69
  -2   1  -6   18.16    0.66
  -2   1  -6   17.98    0.72
  -2   1  -6   17.79    0.62
   2  -1   6   17.96    0.71
   2  -1   6   17.90    0.63
   2  -1   6   18.09    0.75
   2  -1   6   18.93    0.67
   2  -1   6   17.50    0.67
   2  -1   6   17.33    0.73
  -3   1  -6    2.40    0.21
  -3   1  -6    2.61    0.21
  -3   1  -6    2.42    0.20
  -3   1  -6    2.46    0.18
  -3   1  -6    2.55    0.22
  -3   1  -6    2.60    0.25
   3  -1   6    2.00    0.27
   3  -1   6    2.39    0.17
   3  -1   6    2.33    0.20
   3  -1   6    2.37    0.23
   3  -1   6    2.41    0.21
   3  -1   6    2.36    0.24
  -4   1  -6    0.72    0.12
  -4   1  -6    0.53    0.14
  -4   1  -6    0.37    0.12
  -4   1  -6    0.56    0.13
   4  -1   6    0.51    0.13
   4  -1   6    0.56    0.10
   4  -1   6    0.60    0.12
   4  -1   6    0.44    0.12
  -5   1  -6    2.04    0.23
  -5   1  -6    1.89    0.19
  -5   1  -6    1.97    0.18
  -5   1  -6    1.88    0.19
   5  -1   6    1.94    0.20
   5  -1   6    2.34    0.23
  -6   1  -6    8.03    0.39
  -6   1  -6    7.93    0.45
   6  -1   6    8.53    0.37
   6  -1   6    8.07    0.35
  -7   1  -6    7.90    0.40
   7  -1   6    8.71    0.38
   6   0  -6    1.50    0.26
  -6   0   6    0.88    0.21
   5   0  -6    1.58    0.23
  -5   0   6    1.37    0.21
   4   0  -6   11.60    0.49
  -4   0   6   11.49    0.53
   3   0  -6   23.05    0.85
   3   0  -6   23.42    0.85
  -3   0   6   23.49    0.88
  -3   0   6   23.52    0.86
   2   0  -6   40.68    1.42
   2   0  -6   43.97    1.44
   2   0  -6   41.59    1.56
  -2   0   6   41.18    1.44
  -2   0   6   44.13    1.48
  -2   0   6   41.71    1.57
   1   0  -6    2.91    0.27
   1   0  -6    3.43    0.26
   1   0  -6    2.76    0.19
   1   0  -6    3.17    0.24
   1   0  -6    2.81    0.22
  -1   0   6    2.51    0.25
  -1   0   6    2.62    0.19
  -1   0   6    2.87    0.23
  -1   0   6    2.75    0.23
  -1   0   6    2.92    0.23
   0   0  -6    5.89    0.34
   0   0  -6    5.90    0.32
   0   0  -6    5.76    0.27
   0   0  -6    5.83    0.32
   0   0  -6    5.78    0.32
   0   0  -6    5.83    0.31
   0   0   6    6.08    0.34
   0   0   6    5.71    0.28
   0   0   6    6.01    0.30
   0   0   6    5.86    0.33
   0   0   6    6.04    0.32
   0   0   6    5.83    0.33
  -1   0  -6    0.10    0.10
  -1   0  -6    0.23    0.15
  -1   0  -6    0.10    0.12
  -1   0  -6    0.20    0.10
   1   0   6    0.07    0.11
   1   0   6    0.07    0.09
   1   0   6    0.10    0.10
   1   0   6    0.06    0.11
   1   0   6    0.14    0.09
   1   0   6    0.08    0.09
  -2   0  -6    4.99    0.28
  -2   0  -6    5.11    0.33
  -2   0  -6    5.29    0.33
  -2   0  -6    5.48    0.33
  -2   0  -6    5.76    0.32
  -2   0  -6    6.10    0.33
   2   0   6    5.89    0.32
   2   0   6    5.43    0.30
   2   0   6    6.01    0.29
   2   0   6    5.76    0.33
   2   0   6    5.68    0.26
   2   0   6    5.48    0.31
  -3   0  -6    0.42    0.15
  -3   0  -6   -0.05    0.10
  -3   0  -6    0.37    0.13
  -3   0  -6    0.13    0.15
  -3   0  -6    0.07    0.11
  -3   0  -6    0.01    0.12
   3   0   6    0.18    0.10
   3   0   6    0.16    0.08
   3   0   6    0.13    0.11
   3   0   6    0.14    0.10
   3   0   6    0.14    0.09
  -4   0  -6   12.35    0.48
  -4   0  -6   12.01    0.50
  -4   0  -6   12.34    0.52
  -4   0  -6   12.39    0.52
   4   0   6   12.52    0.46
   4   0   6   12.51    0.48
   4   0   6   12.64    0.51
   4   0   6   12.78    0.54
  -5   0  -6    5.83    0.33
  -5   0  -6    5.67    0.31
  -5   0  -6    6.14    0.31
  -5   0  -6    6.30    0.30
   5   0   6    5.79    0.27
   5   0   6    5.95    0.32
   5   0   6    6.21    0.30
   5   0   6    5.69    0.30
  -6   0  -6  118.79    4.14
  -6   0  -6  119.78    3.91
   6   0   6  125.39    3.87
   6   0   6  120.82    3.66
  -7   0  -6   27.09    0.96
   7   0   6   27.64    0.94
   6  -1  -6    0.36    0.16
   5  -1  -6    0.03    0.13
  -5   1   6    0.07    0.15
   4  -1  -6    0.09    0.13
  -4   1   6    0.06    0.14
   3  -1  -6    0.70    0.17
  -3   1   6    0.65    0.15
  -3   1   6    0.62    0.16
   2  -1  -6   18.84    0.79
   2  -1  -6   18.22    0.71
   2  -1  -6   18.34    0.74
  -2   1   6   19.99    0.77
  -2   1   6   18.53    0.79
  -2   1   6   20.74    0.76
   1  -1  -6   26.05    1.00
   1  -1  -6   27.60    0.93
   1  -1  -6   25.26    0.86
   1  -1  -6   25.08    1.00
   1  -1  -6   27.55    0.94
   1  -1  -6   26.31    0.95
  -1   1   6   26.25    0.92
  -1   1   6   25.77    1.00
  -1   1   6   25.76    0.88
  -1   1   6   25.85    0.95
  -1   1   6   26.62    1.02
  -1   1   6   26.09    0.93
   0  -1  -6    1.70    0.22
   0  -1  -6    1.61    0.19
   0  -1  -6    1.66    0.16
   0  -1  -6    1.75    0.23
   0  -1  -6    1.66    0.19
   0  -1  -6    1.63    0.20
   0   1   6    1.59    0.16
   0   1   6    1.51    0.17
   0   1   6    1.61    0.21
   0   1   6    1.69    0.19
   0   1   6    1.53    0.18
   0   1   6    1.70    0.22
  -1  -1  -6    0.18    0.14
  -1  -1  -6    0.20    0.10
  -1  -1  -6    0.45    0.13
  -1  -1  -6    0.55    0.18
  -1  -1  -6   -0.04    0.10
   1   1   6    0.05    0.09
   1   1   6    0.05    0.11
   1   1   6    0.10    0.09
   1   1   6   -0.02    0.10
   1   1   6   -0.06    0.10
   1   1   6    0.06    0.08
  -2  -1  -6    2.28    0.29
  -2  -1  -6    2.20    0.23
  -2  -1  -6    3.65    0.28
  -2  -1  -6    2.78    0.20
   2   1   6    3.00    0.18
   2   1   6    3.19    0.22
   2   1   6    2.81    0.23
   2   1   6    3.07    0.26
   2   1   6    2.86    0.21
   2   1   6    3.19    0.24
  -3  -1  -6   31.04    1.09
  -3  -1  -6   31.89    1.07
  -3  -1  -6   32.64    1.16
  -3  -1  -6   34.26    1.07
  -3  -1  -6   31.15    1.15
  -3  -1  -6   30.23    1.00
   3   1   6   30.58    1.01
   3   1   6   30.76    1.08
   3   1   6   30.14    1.16
   3   1   6   32.05    1.16
   3   1   6   30.89    1.07
   3   1   6   30.23    1.10
  -4  -1  -6   -0.01    0.10
  -4  -1  -6    0.06    0.11
  -4  -1  -6    0.12    0.09
  -4  -1  -6    0.01    0.09
   4   1   6   -0.03    0.08
   4   1   6    0.05    0.09
   4   1   6   -0.07    0.09
   4   1   6   -0.01    0.09
  -5  -1  -6   23.64    0.87
  -5  -1  -6   23.26    0.84
   5   1   6   23.55    0.77
   5   1   6   23.30    0.81
  -6  -1  -6   22.64    0.82
  -6  -1  -6   23.33    0.86
   6   1   6   22.54    0.75
   6   1   6   23.00    0.81
  -6   2   6    1.04    0.21
   5  -2  -6    5.49    0.35
  -5   2   6    5.57    0.36
   4  -2  -6   44.55    1.48
   4  -2  -6   42.78    1.47
  -4   2   6   41.12    1.50
  -4   2   6   43.54    1.48
   3  -2  -6   18.24    0.73
   3  -2  -6   20.45    0.74
  -3   2   6   19.39    0.73
  -3   2   6   18.37    0.74
   2  -2  -6    2.13    0.32
   2  -2  -6    1.72    0.30
   2  -2  -6    1.95    0.24
  -2   2   6    1.82    0.21
  -2   2   6    1.20    0.22
  -2   2   6    1.65    0.19
   1  -2  -6    1.91    0.21
   1  -2  -6    2.46    0.23
   1  -2  -6    2.01    0.22
   1  -2  -6    2.26    0.27
   1  -2  -6    2.34    0.25
   1  -2  -6    2.09    0.18
  -1   2   6    1.97    0.21
  -1   2   6    2.01    0.17
  -1   2   6    2.16    0.20
  -1   2   6    2.08    0.20
  -1   2   6    1.67    0.22
  -1   2   6    1.82    0.24
   0  -2  -6    6.79    0.36
   0  -2  -6    7.05    0.35
   0  -2  -6    7.11    0.31
   0  -2  -6    6.89    0.38
   0  -2  -6    6.71    0.36
   0  -2  -6    7.30    0.34
   0   2   6    6.95    0.35
   0   2   6    6.82    0.34
   0   2   6    6.91    0.35
   0   2   6    6.72    0.35
   0   2   6    6.81    0.35
   0   2   6    6.98    0.31
  -1  -2  -6    9.59    0.45
  -1  -2  -6    9.68    0.44
  -1  -2  -6   10.04    0.41
  -1  -2  -6    9.84    0.43
  -1  -2  -6    9.86    0.38
  -1  -2  -6    9.53    0.44
   1   2   6    9.45    0.44
   1   2   6    9.71    0.44
   1   2   6    9.27    0.43
   1   2   6    9.64    0.38
   1   2   6    9.74    0.43
   1   2   6   10.07    0.42
  -2  -2  -6    6.80    0.35
  -2  -2  -6    7.67    0.39
  -2  -2  -6    8.27    0.34
  -2  -2  -6    6.57    0.36
  -2  -2  -6    8.55    0.39
  -2  -2  -6    7.34    0.38
   2   2   6    6.66    0.35
   2   2   6    6.86    0.31
   2   2   6    6.54    0.35
   2   2   6    6.93    0.35
   2   2   6    6.90    0.36
   2   2   6    8.05    0.34
  -3  -2  -6    3.33    0.30
  -3  -2  -6    3.72    0.30
  -3  -2  -6    3.89    0.27
  -3  -2  -6    4.06    0.29
  -3  -2  -6    4.41    0.27
  -3  -2  -6    4.59    0.25
   3   2   6    4.50    0.25
   3   2   6    4.29    0.27
   3   2   6    4.21    0.22
   3   2   6    4.76    0.28
   3   2   6    4.32    0.26
   3   2   6    4.36    0.29
  -4  -2  -6    5.15    0.27
  -4  -2  -6    4.90    0.28
  -4  -2  -6    5.19    0.27
  -4  -2  -6    5.36    0.29
   4   2   6    4.85    0.27
   4   2   6    5.00    0.24
   4   2   6    4.89    0.27
   4   2   6    5.32    0.27
  -5  -2  -6   12.72    0.52
  -5  -2  -6   12.68    0.50
   5   2   6   12.94    0.48
   5   2   6   12.83    0.45
  -6  -2  -6   84.49    2.82
  -6  -2  -6   78.73    2.67
   6   2   6   83.00    2.49
   6   2   6   82.31    2.63
   6  -3  -6    0.32    0.17
  -6   3   6   -0.13    0.17
   5  -3  -6    3.19    0.29
  -5   3   6    3.20    0.30
   4  -3  -6    4.02    0.30
   4  -3  -6    4.63    0.34
  -4   3   6    3.56    0.31
  -4   3   6    4.30    0.32
   3  -3  -6   13.49    0.57
   3  -3  -6   13.38    0.56
  -3   3   6   13.37    0.57
  -3   3   6   13.29    0.56
   2  -3  -6    0.76    0.19
   2  -3  -6    0.68    0.18
   2  -3  -6    0.54    0.19
   2  -3  -6    0.42    0.15
  -2   3   6    0.46    0.16
  -2   3   6    0.87    0.16
  -2   3   6    0.47    0.15
  -2   3   6    0.53    0.13
   1  -3  -6   11.26    0.53
   1  -3  -6   11.45    0.48
   1  -3  -6   11.29    0.52
   1  -3  -6   11.43    0.44
   1  -3  -6   11.31    0.53
   1  -3  -6   11.36    0.49
  -1   3   6   11.06    0.52
  -1   3   6   10.86    0.49
  -1   3   6   10.59    0.48
  -1   3   6   11.07    0.52
  -1   3   6   11.01    0.47
  -1   3   6   11.15    0.45
   0  -3  -6    2.39    0.24
   0  -3  -6    2.23    0.19
   0  -3  -6    2.45    0.25
   0  -3  -6    2.54    0.24
   0  -3  -6    2.15    0.27
   0  -3  -6    2.29    0.29
   0   3   6    2.23    0.25
   0   3   6    1.79    0.22
   0   3   6    1.94    0.24
   0   3   6    2.09    0.19
   0   3   6    1.89    0.20
  -1  -3  -6    1.38    0.22
  -1  -3  -6    1.41    0.16
  -1  -3  -6    1.20    0.19
  -1  -3  -6    1.01    0.13
  -1  -3  -6    1.20    0.17
  -1  -3  -6    1.16    0.20
   1   3   6    1.35    0.21
   1   3   6    1.11    0.16
   1   3   6    1.13    0.17
   1   3   6    1.07    0.18
   1   3   6    1.29    0.21
   1   3   6    1.25    0.15
  -2  -3  -6    9.22    0.43
  -2  -3  -6    9.21    0.36
  -2  -3  -6    9.24    0.42
  -2  -3  -6    8.94    0.44
  -2  -3  -6    8.82    0.39
  -2  -3  -6    9.47    0.43
   2   3   6    9.16    0.42
   2   3   6    9.18    0.37
   2   3   6    9.23    0.41
   2   3   6    9.14    0.40
   2   3   6    9.25    0.41
   2   3   6    9.62    0.42
  -3  -3  -6    1.85    0.22
  -3  -3  -6    1.84    0.24
  -3  -3  -6    1.76    0.20
  -3  -3  -6    1.85    0.19
   3   3   6    1.89    0.17
   3   3   6    1.93    0.16
  -4  -3  -6    5.19    0.28
  -4  -3  -6    4.74    0.29
  -4  -3  -6    5.07    0.28
  -4  -3  -6    4.59    0.31
   4   3   6    4.84    0.28
   4   3   6    4.90    0.27
   4   3   6    5.02    0.24
   4   3   6    5.70    0.28
  -5  -3  -6    0.61    0.13
  -5  -3  -6    0.43    0.12
   5   3   6    0.56    0.11
   5   3   6    0.30    0.10
   5  -4  -6    0.56    0.17
  -5   4   6    0.84    0.19
   4  -4  -6    1.61    0.26
   4  -4  -6    1.00    0.23
  -4   4   6    1.06    0.19
   3  -4  -6   19.72    0.77
   3  -4  -6   21.63    0.82
  -3   4   6   20.71    0.80
  -3   4   6   20.32    0.79
   2  -4  -6    0.47    0.20
   2  -4  -6    0.81    0.16
   2  -4  -6    0.97    0.22
   2  -4  -6    1.62    0.28
  -2   4   6    1.08    0.18
  -2   4   6    0.87    0.17
  -2   4   6    0.93    0.15
  -2   4   6    0.99    0.17
   1  -4  -6   15.96    0.63
   1  -4  -6   17.28    0.73
   1  -4  -6   14.87    0.69
  -1   4   6   15.80    0.64
  -1   4   6   15.46    0.65
  -1   4   6   14.42    0.59
  -1   4   6   14.98    0.64
   0  -4  -6    0.23    0.13
   0  -4  -6    0.35    0.16
   0  -4  -6    0.43    0.18
   0  -4  -6    0.29    0.12
   0  -4  -6    0.32    0.12
   0  -4  -6    0.49    0.14
   0   4   6    0.44    0.13
   0   4   6    0.45    0.13
   0   4   6    0.48    0.13
   0   4   6    0.47    0.13
   0   4   6    0.50    0.12
   0   4   6    0.47    0.12
  -1  -4  -6    0.00    0.10
  -1  -4  -6    0.01    0.11
  -1  -4  -6    0.06    0.15
  -1  -4  -6   -0.02    0.13
   1   4   6   -0.09    0.12
   1   4   6   -0.08    0.12
   1   4   6    0.02    0.09
   1   4   6   -0.03    0.09
   1   4   6   -0.14    0.10
   1   4   6   -0.03    0.10
  -2  -4  -6    0.68    0.14
  -2  -4  -6    0.76    0.12
  -2  -4  -6    0.72    0.13
  -2  -4  -6    0.86    0.15
   2   4   6    0.47    0.14
   2   4   6    0.36    0.12
   2   4   6    0.55    0.12
   2   4   6    0.66    0.13
   2   4   6    0.67    0.13
  -3  -4  -6    8.93    0.43
  -3  -4  -6    9.14    0.41
  -3  -4  -6    9.28    0.46
  -3  -4  -6    8.66    0.43
   3   4   6    8.99    0.36
   3   4   6    9.81    0.42
   3   4   6    8.89    0.41
  -4  -4  -6    1.58    0.23
  -4  -4  -6    1.34    0.20
  -4  -4  -6    1.74    0.22
   4   4   6    1.74    0.19
   4   4   6    1.93    0.20
   4   4   6    2.00    0.16
  -5  -4  -6    0.41    0.13
   5   4   6    0.00    0.08
   5  -5  -6    0.62    0.18
  -5   5   6    0.03    0.19
   4  -5  -6    2.87    0.33
  -4   5   6    2.25    0.30
  -4   5   6    2.50    0.29
  -3   5   6    3.84    0.31
  -3   5   6    3.88    0.31
   2  -5  -6    1.09    0.26
  -2   5   6    1.10    0.18
  -2   5   6    1.47    0.24
  -2   5   6    1.37    0.24
  -1   5   6    7.88    0.42
  -1   5   6    8.33    0.41
  -1   5   6    7.96    0.42
   0  -5  -6    6.33    0.32
   0   5   6    6.39    0.43
   0   5   6    5.95    0.36
   0   5   6    7.05    0.42
  -1  -5  -6   38.08    1.46
  -1  -5  -6   41.31    1.27
  -1  -5  -6   37.89    1.48
  -1  -5  -6   40.62    1.33
   1   5   6   41.48    1.36
   1   5   6   37.67    1.44
   1   5   6   40.65    1.35
   1   5   6   39.14    1.35
   1   5   6   37.76    1.46
   1   5   6   37.13    1.28
  -2  -5  -6    5.92    0.36
  -2  -5  -6    5.73    0.35
   2   5   6    5.77    0.32
   2   5   6    6.02    0.30
   2   5   6    6.07    0.34
   2   5   6    6.02    0.34
  -3  -5  -6   14.80    0.64
  -3  -5  -6   15.11    0.57
  -3  -5  -6   14.08    0.63
   3   5   6   13.55    0.61
   3   5   6   14.32    0.57
   3   5   6   13.74    0.56
   3   5   6   13.92    0.53
  -4  -5  -6   22.38    0.91
   4   5   6   23.34    0.80
   4   5   6   25.42    0.87
  -5  -5  -6    2.52    0.29
  -5  -5  -6    3.55    0.25
   5   5   6    2.66    0.22
   5   5   6    2.99    0.24
  -4   6   6    4.81    0.36
  -4   6   6    4.72    0.36
  -3   6   6    1.80    0.30
  -3   6   6    2.92    0.32
  -2   6   6    1.05    0.18
  -2   6   6    1.12    0.19
  -2   6   6    1.13    0.20
  -1   6   6    3.18    0.30
  -1   6   6    3.24    0.29
  -1   6   6    3.24    0.28
   0   6   6    0.28    0.16
   0   6   6    0.15    0.16
   0   6   6    0.53    0.17
   1   6   6    0.91    0.17
   1   6   6    0.91    0.18
   1   6   6    0.86    0.17
   2   6   6    0.08    0.13
   2   6   6    0.47    0.13
   2   6   6    0.34    0.15
  -3  -6  -6    2.39    0.25
   3   6   6    2.55    0.23
   3   6   6    2.98    0.27
   3   6   6    2.25    0.24
   4   6   6    0.96    0.18
   5   6   6    3.50    0.25
  -4   7   6    0.11    0.18
  -3   7   6    0.01    0.16
  -3   7   6   -0.02    0.17
  -2   7   6    0.66    0.19
  -2   7   6    0.59    0.19
  -2   7   6    0.46    0.20
  -1   7   6    3.46    0.30
  -1   7   6    3.55    0.31
  -1   7   6    3.66    0.32
   0   7   6   13.52    0.60
   0   7   6   14.42    0.61
   0   7   6   14.13    0.61
   1   7   6   27.15    1.00
   1   7   6   26.69    0.99
   2   7   6   27.55    0.99
   2   7   6   26.78    1.00
   3   7   6    1.92    0.26
   3   7   6    2.10    0.24
   4   7   6    0.02    0.12
   5   7   6    0.13    0.12
  -3   8   6   -0.26    0.18
  -3   8   6   -0.17    0.19
  -2   8   6    0.01    0.16
  -2   8   6    0.05    0.16
  -2   8   6    0.10    0.17
  -1   8   6    0.41    0.18
  -1   8   6    0.53    0.19
  -1   8   6    0.42    0.18
   0   8   6   18.37    0.77
   0   8   6   18.20    0.76
   1   8   6   45.09    1.58
   1   8   6   44.97    1.59
   2   8   6    0.43    0.17
   2   8   6    0.57    0.17
   3   8   6    3.78    0.32
   4   8   6    1.64    0.27
   5   8   6    1.80    0.24
  -2   9   6    6.75    0.45
  -2   9   6    6.54    0.44
  -1   9   6   -0.09    0.16
  -1   9   6    0.14    0.17
   0   9   6    1.50    0.27
   0   9   6    1.16    0.21
   1   9   6   20.74    0.84
   1   9   6   20.12    0.82
   2   9   6   11.74    0.56
   2   9   6   12.00    0.56
   3   9   6   16.52    0.70
   4   9   6    9.26    0.47
   5   9   6    2.31    0.29
   1  10   6   13.20    0.61
   1  10   6   12.60    0.62
   2  10   6   10.67    0.56
   3  10   6    0.53    0.20
   0   7  -7    1.18    0.23
   0  -7   7    0.94    0.23
   0  -7   7    0.78    0.28
  -1   7  -7    6.42    0.43
  -1   7  -7    6.65    0.43
   1  -7   7    5.83    0.51
   1  -7   7    6.22    0.44
  -2   7  -7    0.05    0.18
  -2   7  -7    0.04    0.18
   2  -7   7    0.18    0.26
   2  -7   7    0.09    0.19
  -3   7  -7    3.83    0.35
  -3   7  -7    4.31    0.38
  -3   7  -7    4.02    0.37
   3  -7   7    3.75    0.47
   3  -7   7    3.80    0.38
   3  -7   7    4.11    0.35
  -4   7  -7    1.29    0.24
   4  -7   7    0.87    0.24
   4  -7   7    0.89    0.21
   1   6  -7    3.85    0.32
   1   6  -7    4.36    0.34
  -1  -6   7    3.34    0.43
  -1  -6   7    4.04    0.38
   0   6  -7    0.20    0.17
   0   6  -7    0.08    0.16
   0  -6   7    0.05    0.22
   0  -6   7    0.03    0.17
  -1   6  -7    0.57    0.18
  -1   6  -7    0.51    0.20
   1  -6   7    0.51    0.24
   1  -6   7    0.38    0.19
  -2   6  -7    0.84    0.21
  -2   6  -7    0.47    0.21
  -2   6  -7    0.42    0.20
   2  -6   7    0.32    0.19
   2  -6   7    0.41    0.24
   2  -6   7    0.46    0.17
  -3   6  -7    0.49    0.22
  -3   6  -7    0.00    0.18
   3  -6   7   -0.07    0.17
   3  -6   7   -0.05    0.14
   3  -6   7   -0.11    0.23
  -4   6  -7   12.21    0.58
  -4   6  -7   12.20    0.59
   4  -6   7   11.21    0.55
   4  -6   7   11.05    0.59
  -5   6  -7    7.64    0.46
  -5   6  -7    7.27    0.44
   5  -6   7    7.31    0.47
   5  -6   7    6.98    0.43
  -6   6  -7    0.02    0.19
  -6   6  -7    0.01    0.17
   6  -6   7    0.09    0.20
   6  -6   7   -0.02    0.16
  -3  -5   7    2.82    0.37
   2   5  -7    6.05    0.37
  -2  -5   7    6.56    0.47
   1   5  -7    2.51    0.30
   1   5  -7    2.31    0.28
  -1  -5   7    2.79    0.36
  -1  -5   7    2.92    0.31
   0   5  -7   -0.26    0.17
   0   5  -7   -0.11    0.16
   0  -5   7    0.05    0.21
   0  -5   7    0.54    0.19
  -1   5  -7    0.17    0.15
  -1   5  -7    0.18    0.15
   1  -5   7   -0.29    0.16
   1  -5   7   -0.16    0.23
  -2   5  -7    0.07    0.16
  -2   5  -7    0.25    0.16
  -2   5  -7    0.19    0.15
   2  -5   7    0.08    0.21
   2  -5   7    0.25    0.17
   2  -5   7    0.18    0.16
  -3   5  -7    0.57    0.19
  -3   5  -7    0.34    0.17
  -3   5  -7    0.42    0.16
   3  -5   7    0.39    0.18
   3  -5   7    0.10    0.24
   3  -5   7   -0.04    0.18
  -4   5  -7   -0.02    0.17
  -4   5  -7   -0.03    0.16
   4  -5   7   -0.10    0.20
   4  -5   7   -0.15    0.16
  -5   5  -7    4.13    0.37
  -5   5  -7    3.56    0.41
   5  -5   7    4.27    0.36
   5  -5   7    4.08    0.32
  -6   5  -7   10.80    0.52
  -6   5  -7   10.75    0.55
   6  -5   7   10.70    0.55
   6  -5   7   10.21    0.51
  -7   5  -7    0.20    0.19
   7  -5   7   -0.06    0.19
   3   4  -7    0.00    0.14
  -3  -4   7    0.19    0.23
   2   4  -7    0.57    0.19
  -2  -4   7   -0.07    0.19
  -2  -4   7   -0.09    0.15
   1   4  -7   24.08    0.89
   1   4  -7   24.14    0.90
  -1  -4   7   23.28    0.98
  -1  -4   7   23.72    0.93
   0   4  -7    6.09    0.36
   0   4  -7    6.10    0.36
   0  -4   7    6.10    0.43
   0  -4   7    5.98    0.39
  -1   4  -7    0.04    0.14
  -1   4  -7   -0.11    0.15
  -1   4  -7   -0.07    0.14
   1  -4   7   -0.04    0.18
   1  -4   7    0.06    0.14
   1  -4   7   -0.04    0.11
  -2   4  -7    9.40    0.45
  -2   4  -7    9.54    0.46
  -2   4  -7    9.27    0.47
   2  -4   7    9.21    0.45
   2  -4   7    9.77    0.53
   2  -4   7    9.47    0.48
  -3   4  -7   19.77    0.76
  -3   4  -7   19.30    0.75
  -3   4  -7   19.51    0.77
   3  -4   7   18.89    0.77
   3  -4   7   19.59    0.75
   3  -4   7   18.98    0.83
  -4   4  -7    1.93    0.30
  -4   4  -7    2.23    0.31
  -4   4  -7    1.86    0.27
   4  -4   7    1.82    0.26
   4  -4   7    1.86    0.24
  -5   4  -7   97.14    3.19
  -5   4  -7   95.98    3.13
   5  -4   7   96.14    3.15
   5  -4   7   94.72    3.16
  -6   4  -7    7.93    0.46
  -6   4  -7    8.71    0.46
   6  -4   7    8.69    0.47
   6  -4   7    9.06    0.45
  -7   4  -7    0.08    0.18
   7  -4   7    0.03    0.14
  -8   4  -7    0.15    0.18
   8  -4   7    0.20    0.16
   4   3  -7    4.93    0.34
  -4  -3   7    4.19    0.40
   3   3  -7    5.55    0.35
  -3  -3   7    5.61    0.41
   2   3  -7    1.42    0.23
   2   3  -7    1.53    0.27
  -2  -3   7    1.51    0.27
  -2  -3   7    2.07    0.29
   1   3  -7    0.25    0.15
   1   3  -7    0.30    0.14
  -1  -3   7    0.20    0.18
  -1  -3   7    0.14    0.14
   0   3  -7    0.07    0.17
   0  -3   7    0.43    0.13
   0  -3   7    0.33    0.18
   0  -3   7    0.50    0.16
  -1   3  -7    7.46    0.41
  -1   3  -7    7.71    0.43
  -1   3  -7    7.47    0.41
   1  -3   7    7.66    0.44
   1  -3   7    8.64    0.40
   1  -3   7    6.42    0.49
  -2   3  -7    0.06    0.15
  -2   3  -7   -0.13    0.15
  -2   3  -7   -0.07    0.17
   2  -3   7   -0.12    0.13
   2  -3   7   -0.13    0.16
  -3   3  -7    0.28    0.12
  -3   3  -7    0.19    0.18
  -3   3  -7    0.04    0.13
  -3   3  -7   -0.02    0.14
   3  -3   7    0.04    0.13
   3  -3   7   -0.03    0.17
   3  -3   7    0.04    0.12
   3  -3   7    0.00    0.16
  -4   3  -7    7.86    0.43
  -4   3  -7    7.64    0.40
   4  -3   7    8.01    0.40
   4  -3   7    7.43    0.41
  -5   3  -7    2.89    0.26
  -5   3  -7    2.91    0.30
   5  -3   7    2.54    0.27
   5  -3   7    2.78    0.24
  -6   3  -7    0.00    0.14
  -6   3  -7    0.18    0.16
   6  -3   7    0.24    0.16
   6  -3   7    0.10    0.13
  -7   3  -7   -0.06    0.16
   7  -3   7   -0.06    0.13
  -8   3  -7    0.83    0.20
   8  -3   7    0.72    0.16
  -9   3  -7    0.67    0.20
   9  -3   7    0.83    0.18
   4   2  -7   31.67    1.13
  -4  -2   7   31.37    1.19
   3   2  -7    3.05    0.30
  -3  -2   7    2.84    0.32
   2   2  -7    0.44    0.16
   2   2  -7    0.56    0.15
  -2  -2   7    0.50    0.18
  -2  -2   7    0.56    0.16
   1   2  -7    0.60    0.16
  -1  -2   7    0.85    0.17
  -1  -2   7    0.83    0.20
   0   2  -7    8.26    0.42
   0   2  -7    8.86    0.41
   0   2  -7    8.12    0.44
   0   2  -7    8.03    0.43
   0  -2   7    6.88    0.42
   0  -2   7    8.37    0.47
   0  -2   7    8.45    0.38
   0  -2   7    7.43    0.43
  -1   2  -7   -0.26    0.21
  -1   2  -7    0.29    0.16
  -1   2  -7   -0.15    0.16
   1  -2   7    0.09    0.11
   1  -2   7    0.35    0.13
   1  -2   7    0.16    0.17
   1  -2   7    0.21    0.14
  -2   2  -7    6.72    0.39
  -2   2  -7    6.67    0.42
  -2   2  -7    5.17    0.36
   2  -2   7    5.77    0.48
   2  -2   7    5.07    0.41
   2  -2   7    5.45    0.39
   2  -2   7    5.55    0.30
   2  -2   7    5.90    0.37
  -3   2  -7    5.99    0.36
  -3   2  -7    5.94    0.34
  -3   2  -7    6.02    0.35
  -3   2  -7    5.98    0.34
   3  -2   7    5.31    0.42
   3  -2   7    5.22    0.38
   3  -2   7    5.46    0.39
   3  -2   7    4.53    0.35
  -4   2  -7    0.17    0.19
  -4   2  -7    0.03    0.18
   4  -2   7    0.08    0.12
   4  -2   7    0.10    0.14
  -5   2  -7   77.41    2.57
  -5   2  -7   77.32    2.52
   5  -2   7   77.63    2.53
   5  -2   7   77.10    2.54
  -6   2  -7   99.92    3.23
   6  -2   7   96.86    3.19
  -7   2  -7    3.54    0.30
   7  -2   7    3.71    0.29
  -8   2  -7   -0.09    0.15
   8  -2   7   -0.11    0.13
   5   1  -7    1.75    0.27
  -5  -1   7    1.37    0.23
   4   1  -7    0.12    0.14
  -4  -1   7    0.03    0.17
   3   1  -7   -0.06    0.13
   3   1  -7    0.41    0.18
  -3  -1   7    0.48    0.21
  -3  -1   7   -0.13    0.14
   2   1  -7   10.27    0.47
   2   1  -7   10.58    0.47
  -2  -1   7   10.24    0.48
  -2  -1   7    9.92    0.50
   1   1  -7   11.40    0.52
   1   1  -7   12.18    0.52
  -1  -1   7   12.83    0.58
  -1  -1   7   11.17    0.53
   0   1  -7    0.81    0.17
   0   1  -7    0.63    0.19
   0   1  -7    0.36    0.18
   0  -1   7    0.45    0.18
   0  -1   7    0.57    0.14
   0  -1   7    0.48    0.15
   0  -1   7    0.51    0.13
  -1   1  -7    7.43    0.38
  -1   1  -7    5.97    0.31
  -1   1  -7    5.45    0.36
  -1   1  -7    7.55    0.37
  -1   1  -7    6.19    0.37
  -1   1  -7    5.58    0.35
   1  -1   7    6.57    0.38
   1  -1   7    6.74    0.42
   1  -1   7    7.29    0.36
   1  -1   7    6.78    0.45
   1  -1   7    6.52    0.43
   1  -1   7    6.31    0.35
  -2   1  -7    0.09    0.12
  -2   1  -7    0.08    0.12
  -2   1  -7    0.10    0.13
  -2   1  -7    0.07    0.10
  -2   1  -7    0.14    0.11
  -2   1  -7    0.05    0.11
   2  -1   7   -0.08    0.10
   2  -1   7    0.37    0.14
   2  -1   7    0.27    0.16
   2  -1   7   -0.03    0.15
   2  -1   7   -0.19    0.11
   2  -1   7    0.05    0.10
  -3   1  -7    1.40    0.17
  -3   1  -7    1.34    0.19
  -3   1  -7    1.46    0.21
  -3   1  -7    1.42    0.18
  -3   1  -7    1.41    0.25
  -3   1  -7    1.55    0.22
   3  -1   7    2.19    0.26
   3  -1   7    1.73    0.27
   3  -1   7    1.89    0.33
   3  -1   7    1.52    0.20
   3  -1   7    1.45    0.22
   3  -1   7    1.35    0.18
  -4   1  -7    1.62    0.25
  -4   1  -7    1.77    0.24
  -4   1  -7    1.76    0.21
   4  -1   7    2.01    0.27
  -5   1  -7    0.06    0.21
  -5   1  -7    0.49    0.13
   5  -1   7    0.31    0.14
   5  -1   7    0.46    0.14
   5  -1   7    0.52    0.13
  -6   1  -7   16.97    0.66
   6  -1   7   17.20    0.65
  -7   1  -7    2.44    0.26
   7  -1   7    2.02    0.21
  -8   1  -7    1.53    0.23
   5   0  -7    4.50    0.35
  -5   0   7    3.76    0.36
   4   0  -7    9.88    0.46
  -4   0   7    9.33    0.50
   3   0  -7   -0.01    0.14
   3   0  -7    0.07    0.13
  -3   0   7   -0.16    0.15
  -3   0   7    0.41    0.18
   2   0  -7   12.31    0.52
   2   0  -7   12.47    0.53
  -2   0   7   11.89    0.55
  -2   0   7   11.76    0.54
   1   0  -7    8.60    0.45
   1   0  -7    8.59    0.41
   1   0  -7    7.86    0.42
  -1   0   7    8.27    0.45
  -1   0   7    9.08    0.43
  -1   0   7    8.21    0.44
   0   0  -7    0.15    0.16
   0   0  -7    0.60    0.18
   0   0  -7    0.08    0.14
   0   0  -7   -0.01    0.17
   0   0   7    0.04    0.12
   0   0   7    0.55    0.16
   0   0   7    0.32    0.16
   0   0   7    0.42    0.20
  -1   0  -7   13.86    0.56
  -1   0  -7   13.62    0.59
  -1   0  -7   12.86    0.59
  -1   0  -7   14.19    0.58
  -1   0  -7   13.55    0.51
  -1   0  -7   13.99    0.55
   1   0   7   14.79    0.57
   1   0   7   13.34    0.61
   1   0   7   13.52    0.61
   1   0   7   13.96    0.53
   1   0   7   14.53    0.59
   1   0   7   14.44    0.61
  -2   0  -7    6.26    0.35
  -2   0  -7    6.08    0.34
  -2   0  -7    6.26    0.34
  -2   0  -7    6.63    0.38
  -2   0  -7    5.79    0.33
  -2   0  -7    6.43    0.30
   2   0   7    5.97    0.34
   2   0   7    6.42    0.33
   2   0   7    6.20    0.37
   2   0   7    6.12    0.30
   2   0   7    5.96    0.35
   2   0   7    6.30    0.34
  -3   0  -7   18.96    0.74
  -3   0  -7   20.06    0.72
  -3   0  -7   20.06    0.67
  -3   0  -7   19.65    0.71
  -3   0  -7   19.00    0.77
  -3   0  -7   19.29    0.77
   3   0   7   18.89    0.79
   3   0   7   19.46    0.72
   3   0   7   19.48    0.73
   3   0   7   18.82    0.75
   3   0   7   19.36    0.68
   3   0   7   18.84    0.79
  -4   0  -7   11.27    0.51
  -4   0  -7   11.35    0.47
  -4   0  -7   12.17    0.51
  -4   0  -7   11.47    0.50
   4   0   7   11.24    0.45
   4   0   7   11.77    0.48
   4   0   7   11.86    0.51
   4   0   7   11.74    0.54
  -5   0  -7    8.59    0.44
  -5   0  -7    8.26    0.45
  -5   0  -7    8.01    0.43
  -5   0  -7    7.59    0.40
   5   0   7    8.02    0.41
   5   0   7    8.06    0.40
   5   0   7    8.13    0.35
  -6   0  -7   45.35    1.54
   6   0   7   45.52    1.52
  -7   0  -7    2.67    0.24
   7   0   7    2.55    0.21
   5  -1  -7    8.47    0.45
  -5   1   7    8.49    0.49
   4  -1  -7    2.16    0.26
  -4   1   7    2.16    0.29
   3  -1  -7    0.01    0.13
   3  -1  -7    0.25    0.14
  -3   1   7    0.05    0.16
  -3   1   7    0.01    0.15
   2  -1  -7    0.67    0.16
  -2   1   7    0.79    0.18
  -2   1   7    0.74    0.16
   1  -1  -7    3.02    0.32
   1  -1  -7    2.78    0.27
   1  -1  -7    3.00    0.29
  -1   1   7    2.27    0.29
  -1   1   7    2.40    0.24
  -1   1   7    2.53    0.27
  -1   1   7    3.31    0.23
   0  -1  -7   58.72    1.87
   0  -1  -7   59.77    1.97
   0  -1  -7   57.08    2.15
   0  -1  -7   57.12    2.13
   0  -1  -7   58.24    1.97
   0  -1  -7   58.96    2.01
   0   1   7   60.89    1.90
   0   1   7   60.05    2.16
   0   1   7   61.30    1.99
   0   1   7   58.69    2.17
   0   1   7   67.49    2.01
   0   1   7   59.90    2.02
  -1  -1  -7    0.20    0.11
  -1  -1  -7    0.24    0.12
  -1  -1  -7    0.43    0.14
  -1  -1  -7    0.16    0.13
  -1  -1  -7    0.20    0.11
   1   1   7    0.16    0.09
   1   1   7    0.31    0.12
   1   1   7    0.33    0.13
   1   1   7    0.17    0.11
   1   1   7    0.04    0.12
   1   1   7    0.06    0.10
  -2  -1  -7    0.07    0.13
  -2  -1  -7   -0.06    0.11
  -2  -1  -7   -0.01    0.14
  -2  -1  -7    0.18    0.12
  -2  -1  -7    0.05    0.14
   2   1   7   -0.15    0.09
   2   1   7   -0.02    0.11
   2   1   7    0.01    0.08
   2   1   7   -0.12    0.10
   2   1   7   -0.03    0.10
   2   1   7    0.01    0.09
  -3  -1  -7    0.22    0.13
  -3  -1  -7    0.28    0.11
  -3  -1  -7   -0.15    0.14
  -3  -1  -7   -0.01    0.10
  -3  -1  -7    0.03    0.13
  -3  -1  -7    0.05    0.11
   3   1   7    0.01    0.11
   3   1   7    0.09    0.10
   3   1   7    0.07    0.11
   3   1   7    0.02    0.10
   3   1   7    0.07    0.09
   3   1   7    0.12    0.08
  -4  -1  -7   54.39    1.84
  -4  -1  -7   55.90    1.88
  -4  -1  -7   55.39    1.99
  -4  -1  -7   56.36    2.01
   4   1   7   55.81    1.85
   4   1   7   57.05    1.76
   4   1   7   57.10    1.86
   4   1   7   57.60    2.03
  -5  -1  -7    1.01    0.15
  -5  -1  -7    0.70    0.16
  -5  -1  -7    0.44    0.16
   5   1   7    0.25    0.15
   5   1   7    0.67    0.13
  -6  -1  -7   25.76    0.98
  -6  -1  -7   26.00    0.94
   6   1   7   27.00    0.93
   6   1   7   26.86    0.88
  -7  -1  -7    0.08    0.12
   7   1   7    0.02    0.09
   5  -2  -7   -0.05    0.18
  -5   2   7   -0.14    0.18
   4  -2  -7    2.03    0.27
  -4   2   7    2.46    0.29
   3  -2  -7   -0.17    0.13
   3  -2  -7    0.08    0.15
  -3   2   7    0.46    0.18
  -3   2   7   -0.03    0.14
   2  -2  -7    1.09    0.17
  -2   2   7    1.22    0.19
  -2   2   7    1.43    0.23
   1  -2  -7   13.86    0.63
   1  -2  -7   14.72    0.60
   1  -2  -7   14.56    0.58
   1  -2  -7   13.70    0.61
  -1   2   7   14.18    0.60
  -1   2   7   13.92    0.58
  -1   2   7   13.11    0.60
  -1   2   7   13.79    0.54
   0  -2  -7   17.92    0.76
   0  -2  -7   20.08    0.73
   0  -2  -7   18.68    0.68
   0  -2  -7   19.28    0.74
   0  -2  -7   17.80    0.79
   0   2   7   19.80    0.75
   0   2   7   20.34    0.71
   0   2   7   18.84    0.74
   0   2   7   18.26    0.72
   0   2   7   20.15    0.81
  -1  -2  -7   43.29    1.51
  -1  -2  -7   45.72    1.47
  -1  -2  -7   41.57    1.61
  -1  -2  -7   45.13    1.40
  -1  -2  -7   43.50    1.48
  -1  -2  -7   43.54    1.60
   1   2   7   44.84    1.51
   1   2   7   42.55    1.60
   1   2   7   42.78    1.41
   1   2   7   45.39    1.49
   1   2   7   44.39    1.49
   1   2   7   43.06    1.62
  -2  -2  -7    0.52    0.15
  -2  -2  -7    0.49    0.12
  -2  -2  -7    0.50    0.15
  -2  -2  -7    0.55    0.12
  -2  -2  -7    0.63    0.17
   2   2   7    0.56    0.13
   2   2   7    0.34    0.12
   2   2   7    0.54    0.14
   2   2   7    0.51    0.11
   2   2   7    0.53    0.13
   2   2   7    0.47    0.12
  -3  -2  -7    4.09    0.26
  -3  -2  -7    4.09    0.23
  -3  -2  -7    3.58    0.26
  -3  -2  -7    4.55    0.27
   3   2   7    4.02    0.27
   3   2   7    3.84    0.29
   3   2   7    3.92    0.25
   3   2   7    3.93    0.26
   3   2   7    4.08    0.23
  -4  -2  -7    6.07    0.32
  -4  -2  -7    6.02    0.33
  -4  -2  -7    6.55    0.34
  -4  -2  -7    6.05    0.34
   4   2   7    6.36    0.34
   4   2   7    6.12    0.29
   4   2   7    7.04    0.33
   4   2   7    7.08    0.34
  -5  -2  -7    2.44    0.29
   5   2   7    3.30    0.27
   5   2   7    2.35    0.19
  -6  -2  -7    2.44    0.22
  -6  -2  -7    2.89    0.26
   6   2   7    2.14    0.22
   6   2   7    2.91    0.20
   5  -3  -7    0.06    0.17
  -5   3   7   -0.10    0.17
   4  -3  -7    2.43    0.27
   4  -3  -7    2.72    0.29
  -4   3   7    2.42    0.28
  -4   3   7    2.38    0.29
   3  -3  -7    0.39    0.16
   3  -3  -7    0.42    0.15
  -3   3   7    0.56    0.18
  -3   3   7    0.44    0.18
   2  -3  -7    1.40    0.25
   2  -3  -7    1.01    0.19
  -2   3   7    1.18    0.18
  -2   3   7    1.18    0.19
   1  -3  -7    0.44    0.18
   1  -3  -7    0.24    0.17
   1  -3  -7    0.26    0.16
   1  -3  -7    0.41    0.19
  -1   3   7    0.39    0.16
  -1   3   7    0.57    0.15
  -1   3   7    0.41    0.13
   0  -3  -7   84.49    2.92
   0  -3  -7   81.77    2.55
   0  -3  -7   82.22    2.71
   0  -3  -7   81.95    2.76
   0  -3  -7   84.47    2.70
   0   3   7   84.85    2.75
   0   3   7   84.44    2.72
   0   3   7   78.71    2.91
   0   3   7   79.75    2.57
   0   3   7   85.14    2.72
  -1  -3  -7  102.54    3.14
  -1  -3  -7   94.83    3.60
  -1  -3  -7  104.90    3.31
  -1  -3  -7  104.28    3.38
  -1  -3  -7  100.85    3.57
  -1  -3  -7  105.58    3.32
   1   3   7   99.21    3.61
   1   3   7  101.08    3.57
   1   3   7  105.82    3.37
   1   3   7  106.28    3.33
   1   3   7  104.09    3.33
   1   3   7  103.91    3.16
  -2  -3  -7    6.24    0.29
  -2  -3  -7    6.13    0.32
  -2  -3  -7    5.59    0.33
  -2  -3  -7    6.16    0.36
  -2  -3  -7    6.15    0.32
  -2  -3  -7    5.74    0.33
   2   3   7    6.63    0.35
   2   3   7    6.24    0.34
   2   3   7    6.38    0.33
   2   3   7    6.12    0.35
   2   3   7    5.95    0.33
   2   3   7    5.49    0.29
  -3  -3  -7    3.83    0.31
  -3  -3  -7    4.17    0.27
  -3  -3  -7    3.91    0.26
  -3  -3  -7    4.01    0.27
   3   3   7    3.93    0.29
   3   3   7    3.76    0.23
   3   3   7    3.98    0.26
   3   3   7    3.99    0.27
  -4  -3  -7    4.22    0.28
  -4  -3  -7    4.75    0.30
  -4  -3  -7    3.48    0.28
   4   3   7    5.11    0.31
   4   3   7    4.26    0.30
   4   3   7    4.13    0.26
   4   3   7    3.94    0.27
  -5  -3  -7    0.32    0.13
   5   3   7    0.24    0.10
   5   3   7    0.17    0.12
  -6  -3  -7    8.06    0.38
  -6  -3  -7    8.21    0.39
   6   3   7    8.17    0.36
   6   3   7    8.31    0.34
   4  -4  -7    0.46    0.19
   4  -4  -7    0.34    0.17
  -4   4   7    0.28    0.17
  -4   4   7    0.41    0.16
   3  -4  -7    1.61    0.26
   3  -4  -7    1.66    0.30
  -3   4   7    1.01    0.23
   2  -4  -7    2.17    0.25
   2  -4  -7    2.14    0.29
  -2   4   7    2.14    0.26
  -2   4   7    2.13    0.26
   1  -4  -7   20.22    0.78
   1  -4  -7   19.63    0.80
   1  -4  -7   23.22    0.85
  -1   4   7   19.95    0.79
  -1   4   7   19.68    0.78
  -1   4   7   19.17    0.78
   0  -4  -7    4.12    0.32
   0  -4  -7    4.01    0.34
   0  -4  -7    4.01    0.38
   0   4   7    4.38    0.33
   0   4   7    4.09    0.30
   0   4   7    3.97    0.31
  -1  -4  -7   25.58    0.91
  -1  -4  -7   27.03    1.00
  -1  -4  -7   26.02    1.03
  -1  -4  -7   29.49    1.00
   1   4   7   27.81    1.00
   1   4   7   28.80    1.01
   1   4   7   27.68    1.02
   1   4   7   24.74    1.05
  -2  -4  -7    1.81    0.29
  -2  -4  -7    1.32    0.17
  -2  -4  -7    1.27    0.20
   2   4   7    1.61    0.25
   2   4   7    0.95    0.20
   2   4   7    1.16    0.18
   2   4   7    1.47    0.26
  -3  -4  -7   17.22    0.67
  -3  -4  -7   14.87    0.65
  -3  -4  -7   15.19    0.63
   3   4   7   15.97    0.63
   3   4   7   14.48    0.60
   3   4   7   13.28    0.64
  -4  -4  -7   13.55    0.54
  -4  -4  -7   13.40    0.56
   4   4   7   13.05    0.56
   4   4   7   12.45    0.56
   4   4   7   13.08    0.53
  -5  -4  -7    2.26    0.27
  -6  -4  -7    4.56    0.31
   6   4   7    4.72    0.27
   4  -5  -7    0.29    0.17
   4  -5  -7   -0.14    0.22
  -4   5   7    0.27    0.20
  -4   5   7    0.45    0.19
   3  -5  -7    0.06    0.20
   3  -5  -7    0.47    0.17
  -3   5   7    0.38    0.19
  -3   5   7    0.34    0.18
   2  -5  -7    5.85    0.36
   2  -5  -7    6.23    0.41
   2  -5  -7    5.97    0.44
  -2   5   7    7.06    0.42
  -2   5   7    7.67    0.41
  -2   5   7    6.05    0.39
   1  -5  -7    1.78    0.26
   1  -5  -7    1.82    0.29
   1  -5  -7    1.90    0.35
  -1   5   7    1.75    0.26
  -1   5   7    1.92    0.25
  -1   5   7    1.85    0.24
   0  -5  -7   35.74    1.28
   0  -5  -7   36.32    1.32
   0  -5  -7   35.95    1.25
   0   5   7   36.06    1.27
   0   5   7   35.84    1.28
   0   5   7   35.90    1.28
  -1  -5  -7  119.66    3.63
  -1  -5  -7  121.42    3.92
  -1  -5  -7  122.21    3.85
  -1  -5  -7  120.14    3.83
   1   5   7  115.44    3.85
   1   5   7  118.31    3.89
   1   5   7  115.49    4.14
   1   5   7  119.87    3.86
  -2  -5  -7   42.85    1.46
  -2  -5  -7   43.68    1.50
   2   5   7   41.49    1.45
   2   5   7   41.45    1.45
  -3  -5  -7    1.30    0.22
  -3  -5  -7    1.41    0.20
  -3  -5  -7    1.25    0.22
   3   5   7    1.04    0.17
   3   5   7    1.02    0.18
   3   5   7    1.36    0.22
  -4  -5  -7   19.77    0.78
   4   5   7   20.28    0.76
  -5  -5  -7    3.56    0.30
   5   5   7    3.72    0.26
   4  -6  -7    0.70    0.19
   4  -6  -7    1.08    0.26
  -4   6   7    1.04    0.22
  -4   6   7    1.01    0.22
   3  -6  -7   -0.03    0.19
   3  -6  -7    0.05    0.16
  -3   6   7    0.06    0.17
  -3   6   7    0.09    0.17
   2  -6  -7    1.49    0.29
   2  -6  -7    1.17    0.20
  -2   6   7    1.52    0.23
  -2   6   7    1.28    0.21
  -2   6   7    1.41    0.23
   1  -6  -7    9.07    0.53
   1  -6  -7    8.76    0.44
  -1   6   7    8.11    0.45
  -1   6   7    8.42    0.45
  -1   6   7    8.50    0.45
   0  -6  -7    6.72    0.38
   0   6   7    6.74    0.39
   0   6   7    6.64    0.39
   0   6   7    6.88    0.40
  -1  -6  -7   11.64    0.51
   1   6   7   11.38    0.52
   1   6   7   11.49    0.52
   1   6   7   11.08    0.51
   2   6   7    0.02    0.13
   2   6   7    0.06    0.12
  -3  -6  -7    2.17    0.28
   3   6   7    2.88    0.25
   3   6   7    3.14    0.28
   4   6   7    7.06    0.37
  -5  -6  -7    3.88    0.34
   5   6   7    4.30    0.28
  -3   7   7    1.69    0.28
  -3   7   7    1.71    0.31
  -2   7   7    2.15    0.29
  -2   7   7    2.10    0.29
  -2   7   7    1.95    0.28
  -1   7   7    0.43    0.19
  -1   7   7    0.31    0.16
  -1   7   7    0.24    0.17
   0   7   7    0.28    0.20
   0   7   7    0.62    0.19
   0   7   7    1.03    0.24
   1   7   7   29.29    1.07
   1   7   7   29.11    1.09
   2   7   7   13.10    0.58
   2   7   7   12.93    0.57
   3   7   7    0.13    0.14
   3   7   7    0.34    0.14
   4   7   7    6.27    0.36
   5   7   7    0.45    0.15
  -2   8   7    0.06    0.18
  -2   8   7   -0.07    0.18
  -2   8   7    0.10    0.17
  -1   8   7    0.26    0.17
  -1   8   7    0.21    0.18
  -1   8   7    0.26    0.17
   0   8   7    2.79    0.32
   0   8   7    3.11    0.32
   1   8   7   23.42    0.93
   1   8   7   23.53    0.94
   2   8   7   18.25    0.78
   2   8   7   19.17    0.78
   3   8   7   -0.20    0.15
   4   8   7    1.25    0.23
   5   8   7   -0.01    0.13
   0   9   7    1.36    0.26
   1   9   7    4.65    0.38
   1   9   7    4.20    0.36
   2   9   7    0.79    0.19
   2   9   7    0.72    0.19
   3   9   7    0.01    0.15
   4   9   7    2.07    0.28
   5   9   7    0.01    0.18
  -1   6  -8    0.70    0.20
  -1   6  -8    0.66    0.20
   1  -6   8    0.69    0.27
   1  -6   8    0.79    0.22
  -2   6  -8    2.14    0.29
  -2   6  -8    1.80    0.30
   2  -6   8    1.40    0.31
   2  -6   8    1.55    0.26
  -3   6  -8    1.92    0.29
  -3   6  -8    1.99    0.31
  -3   6  -8    1.95    0.32
   3  -6   8    1.66    0.32
   3  -6   8    1.60    0.28
   3  -6   8    1.62    0.27
  -4   6  -8   10.80    0.56
  -4   6  -8   10.39    0.53
   4  -6   8    9.78    0.56
   4  -6   8   10.03    0.53
  -5   6  -8    8.70    0.54
  -5   6  -8   10.35    0.54
   5  -6   8    8.31    0.49
   5  -6   8    8.24    0.52
   1   5  -8    2.42    0.28
   1   5  -8    2.24    0.34
  -1  -5   8    2.50    0.32
  -1  -5   8    2.42    0.37
   0   5  -8    1.16    0.21
   0   5  -8    0.97    0.19
   0  -5   8    0.83    0.23
   0  -5   8    1.13    0.27
  -1   5  -8    0.13    0.17
  -1   5  -8   -0.04    0.15
   1  -5   8    0.08    0.16
   1  -5   8    0.06    0.21
  -2   5  -8    0.24    0.19
  -2   5  -8    0.29    0.18
  -2   5  -8    0.22    0.20
   2  -5   8    0.25    0.15
   2  -5   8    0.11    0.17
   2  -5   8    0.17    0.22
  -3   5  -8    1.13    0.23
   3  -5   8    0.73    0.20
   3  -5   8    0.92    0.18
   3  -5   8    0.90    0.26
  -4   5  -8   -0.03    0.17
  -4   5  -8   -0.24    0.20
   4  -5   8    0.01    0.17
   4  -5   8    0.05    0.15
  -5   5  -8    5.33    0.40
  -5   5  -8    5.17    0.38
   5  -5   8    5.25    0.40
   5  -5   8    4.93    0.36
  -6   5  -8    5.14    0.38
  -6   5  -8    5.53    0.40
   6  -5   8    4.90    0.38
   6  -5   8    5.13    0.42
  -7   5  -8    3.03    0.37
   2   4  -8    5.19    0.36
  -2  -4   8    5.01    0.42
   1   4  -8   14.99    0.65
   1   4  -8   15.07    0.64
  -1  -4   8   14.22    0.71
  -1  -4   8   14.59    0.67
   0   4  -8   15.63    0.67
   0   4  -8   16.01    0.67
   0  -4   8   15.73    0.75
   0  -4   8   15.58    0.70
  -1   4  -8    1.93    0.29
  -1   4  -8    2.18    0.28
  -1   4  -8    1.98    0.34
   1  -4   8    2.56    0.35
   1  -4   8    2.78    0.27
   1  -4   8    2.45    0.30
  -2   4  -8    0.56    0.19
  -2   4  -8    0.37    0.16
  -2   4  -8    0.55    0.17
   2  -4   8    0.44    0.15
   2  -4   8    0.37    0.19
   2  -4   8    0.32    0.24
  -3   4  -8   11.82    0.53
  -3   4  -8   11.87    0.56
  -3   4  -8   11.69    0.54
   3  -4   8   10.90    0.67
   3  -4   8   12.50    0.59
   3  -4   8   11.51    0.55
  -4   4  -8    3.86    0.34
  -4   4  -8    3.59    0.31
   4  -4   8    3.94    0.33
   4  -4   8    3.77    0.30
  -5   4  -8    4.44    0.35
   5  -4   8    4.46    0.31
   5  -4   8    4.31    0.35
  -6   4  -8    6.02    0.40
  -6   4  -8    6.61    0.42
   6  -4   8    6.48    0.39
   6  -4   8    6.03    0.42
  -7   4  -8    1.64    0.29
   7  -4   8    2.23    0.31
   3   3  -8    5.86    0.39
  -3  -3   8    5.30    0.43
   2   3  -8    0.98    0.20
   2   3  -8    0.96    0.19
  -2  -3   8    0.97    0.24
  -2  -3   8    0.95    0.21
   1   3  -8    7.94    0.44
   1   3  -8    8.57    0.46
  -1  -3   8    8.03    0.47
  -1  -3   8    8.40    0.51
   0   3  -8    0.62    0.16
   0   3  -8    0.64    0.17
   0  -3   8    0.71    0.21
   0  -3   8    0.82    0.24
  -1   3  -8    2.54    0.28
  -1   3  -8    2.92    0.29
  -1   3  -8    2.36    0.30
   1  -3   8    2.52    0.26
   1  -3   8    2.65    0.34
   1  -3   8    2.36    0.29
  -2   3  -8    0.73    0.18
  -2   3  -8    1.06    0.21
  -2   3  -8    0.87    0.18
   2  -3   8    0.88    0.16
   2  -3   8    0.80    0.22
   2  -3   8    0.71    0.18
  -3   3  -8    0.19    0.15
  -3   3  -8    0.01    0.15
  -3   3  -8    0.39    0.19
   3  -3   8   -0.06    0.17
   3  -3   8   -0.03    0.12
   3  -3   8    0.06    0.15
  -4   3  -8    0.19    0.17
  -4   3  -8    0.32    0.15
   4  -3   8    0.11    0.15
   4  -3   8    0.20    0.13
  -5   3  -8    0.83    0.17
  -5   3  -8    0.82    0.20
   5  -3   8    0.79    0.18
   5  -3   8    0.80    0.16
  -6   3  -8    0.14    0.18
  -6   3  -8    0.32    0.20
   6  -3   8    0.10    0.13
   6  -3   8    0.12    0.15
  -7   3  -8    2.84    0.30
   7  -3   8    2.54    0.27
  -8   3  -8    0.68    0.20
   8  -3   8    0.85    0.19
   3   2  -8    1.07    0.19
  -3  -2   8    1.03    0.26
   2   2  -8   10.05    0.47
   2   2  -8    9.05    0.47
  -2  -2   8    9.27    0.49
  -2  -2   8    8.67    0.52
   1   2  -8   15.82    0.65
   1   2  -8   16.30    0.66
  -1  -2   8   16.04    0.74
  -1  -2   8   16.05    0.69
   0   2  -8   81.69    2.78
   0   2  -8   85.84    2.79
   0  -2   8   85.05    2.82
   0  -2   8   86.88    2.88
  -1   2  -8   12.21    0.54
  -1   2  -8   13.05    0.57
  -1   2  -8   12.57    0.54
   1  -2   8   11.66    0.53
   1  -2   8   11.69    0.60
   1  -2   8   11.45    0.55
  -2   2  -8    4.84    0.35
  -2   2  -8    3.85    0.37
  -2   2  -8    5.13    0.33
   2  -2   8    4.36    0.33
   2  -2   8    3.95    0.39
   2  -2   8    4.49    0.31
  -3   2  -8    4.57    0.33
  -3   2  -8    4.68    0.32
  -3   2  -8    4.36    0.36
   3  -2   8    4.64    0.34
   3  -2   8    4.47    0.31
   3  -2   8    5.60    0.41
  -4   2  -8    2.27    0.26
  -4   2  -8    2.14    0.28
   4  -2   8    2.30    0.23
   4  -2   8    1.85    0.26
  -5   2  -8    3.63    0.28
  -5   2  -8    3.21    0.31
   5  -2   8    3.56    0.28
   5  -2   8    3.49    0.27
  -6   2  -8   10.38    0.47
  -6   2  -8   10.54    0.49
   6  -2   8   10.14    0.47
   6  -2   8   10.59    0.50
  -7   2  -8   28.85    1.06
   7  -2   8   27.66    1.02
  -8   2  -8    1.74    0.26
   8  -2   8    1.77    0.25
   4   1  -8    0.51    0.18
  -4  -1   8    0.47    0.21
   3   1  -8    0.11    0.16
  -3  -1   8    0.05    0.17
   2   1  -8    0.19    0.17
   2   1  -8    0.39    0.18
  -2  -1   8    0.39    0.16
  -2  -1   8    0.36    0.19
   1   1  -8    3.31    0.28
   1   1  -8    3.23    0.29
  -1  -1   8    3.03    0.32
  -1  -1   8    3.49    0.30
   0   1  -8   19.79    0.77
   0   1  -8   20.22    0.80
   0   1  -8   19.74    0.76
   0  -1   8   19.14    0.78
   0  -1   8   19.55    0.77
   0  -1   8   20.94    0.83
  -1   1  -8    2.41    0.26
  -1   1  -8    3.22    0.36
   1  -1   8    2.94    0.29
   1  -1   8    3.21    0.27
  -2   1  -8   -0.17    0.14
  -2   1  -8    0.13    0.16
  -2   1  -8    0.05    0.17
   2  -1   8   -0.06    0.17
   2  -1   8    0.03    0.15
  -3   1  -8    6.89    0.38
  -3   1  -8    6.71    0.38
  -3   1  -8    7.19    0.41
  -3   1  -8    6.64    0.34
   3  -1   8    6.78    0.44
   3  -1   8    6.87    0.36
   3  -1   8    7.33    0.46
   3  -1   8    6.16    0.39
  -4   1  -8   10.06    0.47
  -4   1  -8   10.03    0.49
   4  -1   8   10.02    0.48
   4  -1   8   10.81    0.47
  -5   1  -8    4.32    0.33
  -5   1  -8    3.13    0.29
   5  -1   8    4.33    0.31
   5  -1   8    3.37    0.26
  -6   1  -8    0.22    0.16
   6  -1   8    0.35    0.13
  -7   1  -8    3.36    0.29
   7  -1   8    3.16    0.26
  -8   1  -8    2.15    0.28
   8  -1   8    2.12    0.24
   4   0  -8    1.29    0.23
  -4   0   8    1.18    0.24
   3   0  -8    0.01    0.15
   3   0  -8    0.01    0.16
  -3   0   8    0.02    0.15
  -3   0   8   -0.22    0.16
   2   0  -8    1.18    0.19
   2   0  -8    1.04    0.20
  -2   0   8    1.43    0.24
  -2   0   8    0.99    0.20
   1   0  -8    6.40    0.37
   1   0  -8    7.01    0.39
  -1   0   8    7.09    0.39
  -1   0   8    6.44    0.40
   0   0  -8  107.54    3.47
   0   0  -8  108.86    3.52
   0   0  -8  110.02    3.46
   0   0   8  105.07    3.48
   0   0   8  107.58    3.47
   0   0   8  102.23    3.53
  -1   0  -8   24.00    0.88
  -1   0  -8   23.38    0.88
  -1   0  -8   23.16    0.90
   1   0   8   24.25    0.91
   1   0   8   23.32    0.88
   1   0   8   22.96    0.92
  -2   0  -8    0.03    0.13
  -2   0  -8    0.14    0.13
  -2   0  -8    0.29    0.21
   2   0   8   -0.06    0.12
   2   0   8    0.04    0.16
   2   0   8    0.05    0.15
   2   0   8    0.01    0.14
  -3   0  -8   15.22    0.60
  -3   0  -8   13.53    0.53
  -3   0  -8   14.40    0.58
   3   0   8   13.61    0.58
   3   0   8   13.19    0.64
   3   0   8   13.92    0.63
   3   0   8   13.75    0.59
  -4   0  -8    7.94    0.43
  -4   0  -8    7.23    0.38
   4   0   8    7.65    0.41
   4   0   8    7.59    0.38
  -5   0  -8    2.50    0.25
  -5   0  -8    2.43    0.30
   5   0   8    2.70    0.27
   5   0   8    2.40    0.25
   5   0   8    2.73    0.24
  -6   0  -8    0.55    0.16
   6   0   8    0.42    0.13
  -7   0  -8    1.31    0.23
   7   0   8    1.13    0.20
   4  -1  -8    0.77    0.20
  -4   1   8    0.79    0.23
   3  -1  -8    2.56    0.29
   3  -1  -8    2.73    0.27
  -3   1   8    3.05    0.31
  -3   1   8    2.69    0.28
   2  -1  -8    0.06    0.15
   2  -1  -8    0.13    0.14
  -2   1   8   -0.03    0.15
   1  -1  -8   -0.03    0.15
  -1   1   8   -0.07    0.13
  -1   1   8    0.03    0.13
   0  -1  -8  119.38    3.82
   0  -1  -8  115.44    3.75
   0  -1  -8  118.57    3.75
   0   1   8  116.91    3.82
   0   1   8  110.31    3.75
   0   1   8  114.93    3.76
  -1  -1  -8   23.70    0.88
  -1  -1  -8   23.80    0.89
  -1  -1  -8   24.65    0.94
   1   1   8   24.66    0.94
   1   1   8   23.22    0.89
   1   1   8   24.52    0.91
  -2  -1  -8    2.64    0.21
  -2  -1  -8    2.73    0.42
   2   1   8    1.75    0.31
   2   1   8    2.28    0.28
   2   1   8    2.04    0.25
   2   1   8    2.17    0.24
  -3  -1  -8   10.43    0.49
  -3  -1  -8    8.10    0.51
  -3  -1  -8    8.27    0.44
   3   1   8    8.63    0.48
   3   1   8    8.37    0.42
   3   1   8    8.79    0.44
  -4  -1  -8    0.35    0.14
  -4  -1  -8    0.78    0.21
  -4  -1  -8    0.25    0.14
   4   1   8    0.17    0.14
   4   1   8    0.25    0.13
   4   1   8    0.36    0.13
  -5  -1  -8    3.32    0.29
  -5  -1  -8    2.53    0.27
  -5  -1  -8    2.78    0.28
  -6  -1  -8    1.67    0.24
   6   1   8    1.40    0.19
  -7  -1  -8    0.61    0.16
   7   1   8    0.60    0.14
   4  -2  -8    0.11    0.18
  -4   2   8   -0.02    0.20
   3  -2  -8    2.39    0.26
   3  -2  -8    2.61    0.30
  -3   2   8    2.26    0.29
  -3   2   8    2.32    0.28
   2  -2  -8   -0.10    0.14
   2  -2  -8    0.07    0.16
  -2   2   8   -0.01    0.17
   1  -2  -8    5.94    0.37
   1  -2  -8    6.68    0.40
   1  -2  -8    5.61    0.36
  -1   2   8    5.99    0.37
  -1   2   8    6.20    0.35
  -1   2   8    6.00    0.37
   0  -2  -8   15.08    0.65
   0  -2  -8   16.34    0.68
   0  -2  -8   16.96    0.70
   0   2   8   14.71    0.63
   0   2   8   15.63    0.65
   0   2   8   15.82    0.67
  -1  -2  -8    7.00    0.38
  -1  -2  -8    6.40    0.38
  -1  -2  -8    6.51    0.41
   1   2   8    6.55    0.39
   1   2   8    6.29    0.40
   1   2   8    7.18    0.38
  -2  -2  -8    0.81    0.15
   2   2   8    0.76    0.16
   2   2   8    0.98    0.16
   2   2   8    0.87    0.18
   2   2   8    0.67    0.17
  -3  -2  -8    6.11    0.46
   3   2   8    5.67    0.35
   3   2   8    5.61    0.33
   3   2   8    5.67    0.35
  -4  -2  -8   27.53    1.10
  -4  -2  -8   29.81    1.06
  -4  -2  -8   29.23    1.02
   4   2   8   30.18    1.04
   4   2   8   29.20    1.03
   4   2   8   27.69    1.11
  -5  -2  -8    1.41    0.20
   5   2   8    1.30    0.20
  -6  -2  -8    8.19    0.41
   6   2   8    8.35    0.38
  -7  -2  -8    1.02    0.17
   4  -3  -8    0.67    0.20
  -4   3   8    0.55    0.21
   3  -3  -8    0.00    0.15
   3  -3  -8    0.11    0.17
  -3   3   8   -0.01    0.17
  -3   3   8   -0.04    0.15
   2  -3  -8    0.32    0.17
   2  -3  -8   -0.06    0.18
  -2   3   8    0.15    0.19
  -2   3   8   -0.05    0.17
   1  -3  -8    3.38    0.29
   1  -3  -8    3.13    0.28
   1  -3  -8    3.03    0.34
  -1   3   8    3.09    0.27
  -1   3   8    3.06    0.28
  -1   3   8    2.83    0.29
   0  -3  -8   40.27    1.35
   0  -3  -8   38.43    1.35
   0  -3  -8   39.34    1.40
   0   3   8   38.49    1.38
   0   3   8   37.42    1.36
   0   3   8   39.00    1.37
  -1  -3  -8   65.95    2.19
  -1  -3  -8   64.90    2.20
  -1  -3  -8   67.41    2.25
   1   3   8   65.06    2.21
   1   3   8   67.59    2.22
   1   3   8   67.04    2.24
  -2  -3  -8    7.94    0.41
  -2  -3  -8    7.94    0.47
  -2  -3  -8    8.27    0.37
  -2  -3  -8    8.00    0.41
   2   3   8    7.92    0.43
   2   3   8    8.67    0.43
   2   3   8    8.35    0.42
   2   3   8    8.10    0.45
  -3  -3  -8    0.25    0.17
  -3  -3  -8   -0.15    0.14
   3   3   8    0.04    0.13
   3   3   8   -0.03    0.13
  -4  -3  -8    0.69    0.15
  -4  -3  -8    0.50    0.15
  -4  -3  -8    0.61    0.18
   4   3   8    0.81    0.15
   4   3   8    0.66    0.14
   4   3   8    0.83    0.15
  -5  -3  -8   10.21    0.47
   5   3   8   10.14    0.44
  -6  -3  -8    1.28    0.18
   6   3   8    1.15    0.18
   3  -4  -8    0.14    0.17
   3  -4  -8    0.01    0.16
  -3   4   8   -0.03    0.17
  -3   4   8    0.11    0.16
   2  -4  -8    0.23    0.18
   2  -4  -8    0.19    0.16
   1  -4  -8    0.18    0.19
   1  -4  -8    0.12    0.15
   1  -4  -8    0.07    0.17
  -1   4   8    0.00    0.14
  -1   4   8    0.18    0.15
  -1   4   8    0.34    0.15
   0  -4  -8   29.15    1.05
   0  -4  -8   28.31    1.08
   0  -4  -8   28.72    1.03
   0   4   8   28.50    1.06
   0   4   8   27.37    1.04
   0   4   8   28.79    1.04
  -1  -4  -8   18.01    0.71
  -1  -4  -8   18.69    0.76
  -1  -4  -8   17.31    0.69
   1   4   8   17.70    0.71
   1   4   8   17.59    0.72
   1   4   8   17.14    0.71
  -2  -4  -8    5.54    0.35
  -2  -4  -8    5.72    0.40
   2   4   8    5.29    0.36
   2   4   8    5.42    0.34
  -3  -4  -8    8.44    0.47
  -3  -4  -8    8.28    0.42
   3   4   8    8.62    0.42
   3   4   8    8.90    0.43
  -4  -4  -8    1.10    0.20
  -4  -4  -8    1.17    0.22
  -4  -4  -8    1.15    0.18
   4   4   8    1.13    0.21
   4   4   8    1.04    0.16
   4   4   8    0.80    0.15
  -5  -4  -8   -0.07    0.15
   5   4   8   -0.04    0.11
  -6  -4  -8    2.95    0.28
   6   4   8    2.85    0.23
   3  -5  -8    0.43    0.23
   3  -5  -8    0.77    0.20
  -3   5   8    1.10    0.23
  -3   5   8    0.64    0.22
   2  -5  -8    1.89    0.27
   2  -5  -8    1.65    0.25
  -2   5   8    2.11    0.29
  -2   5   8    2.23    0.28
   1  -5  -8   -0.05    0.20
  -1   5   8    0.04    0.17
  -1   5   8   -0.17    0.15
  -1   5   8    0.06    0.17
   0  -5  -8    9.12    0.51
   0  -5  -8    8.55    0.46
   0  -5  -8    9.37    0.45
   0   5   8    8.49    0.45
   0   5   8    8.81    0.46
   0   5   8    8.61    0.45
  -1  -5  -8    4.93    0.41
  -1  -5  -8    5.19    0.34
  -1  -5  -8    5.18    0.35
   1   5   8    5.10    0.34
   1   5   8    4.99    0.33
   1   5   8    5.24    0.35
  -2  -5  -8    0.29    0.20
  -2  -5  -8    0.19    0.16
   2   5   8    0.52    0.15
   2   5   8    0.32    0.14
  -3  -5  -8    1.94    0.26
  -3  -5  -8    1.85    0.31
   3   5   8    2.21    0.24
   3   5   8    1.59    0.25
  -4  -5  -8    1.07    0.21
  -4  -5  -8    1.24    0.18
   4   5   8    1.31    0.21
   4   5   8    1.61    0.24
  -5  -5  -8    7.12    0.41
   5   5   8    6.37    0.35
  -6  -5  -8    5.28    0.39
   6   5   8    6.07    0.34
   3  -6  -8    2.38    0.35
  -3   6   8    2.20    0.31
   2  -6  -8    3.10    0.31
   2  -6  -8    3.03    0.36
  -2   6   8    3.24    0.32
  -2   6   8    3.07    0.31
  -1   6   8    2.03    0.27
  -1   6   8    1.77    0.28
  -1   6   8    2.06    0.28
   0  -6  -8    2.21    0.38
  -1  -6  -8   12.71    0.59
  -1  -6  -8   12.71    0.63
   1   6   8   13.12    0.59
   1   6   8   13.67    0.60
  -2  -6  -8   -0.12    0.17
  -2  -6  -8   -0.11    0.20
   2   6   8   -0.05    0.14
   2   6   8   -0.10    0.13
  -3  -6  -8   22.75    0.90
  -3  -6  -8   23.03    0.86
   3   6   8   22.73    0.87
   3   6   8   22.79    0.87
  -4  -6  -8    0.01    0.19
   4   6   8    0.02    0.13
   5   6   8    1.39    0.23
  -6  -6  -8    2.22    0.30
   6   6   8    1.92    0.23
   2  -7  -8    3.94    0.34
   2  -7  -8    3.56    0.38
  -2   7   8    3.99    0.36
  -2   7   8    3.82    0.36
   1  -7  -8    0.57    0.22
   1  -7  -8    0.83    0.28
   1  -7  -8    0.77    0.19
  -1   7   8    1.04    0.22
  -1   7   8    0.70    0.20
  -1   7   8    0.98    0.20
   0  -7  -8    0.53    0.27
   0  -7  -8    0.34    0.20
   0  -7  -8    0.14    0.17
   0   7   8    0.15    0.17
   0   7   8    0.20    0.16
   0   7   8    0.10    0.17
  -1  -7  -8    1.32    0.23
  -1  -7  -8    1.48    0.30
   1   7   8    2.21    0.34
   1   7   8    1.48    0.25
  -2  -7  -8    1.36    0.23
   2   7   8    2.14    0.31
  -3  -7  -8    0.40    0.29
  -3  -7  -8    0.83    0.20
   3   7   8    1.05    0.19
   3   7   8    0.79    0.20
  -4  -7  -8    7.47    0.47
   4   7   8    8.27    0.43
  -5  -7  -8    0.11    0.20
   5   7   8    0.09    0.14
   1  -8  -8   -0.18    0.27
   1  -8  -8    0.15    0.18
  -1   8   8   -0.10    0.17
  -1   8   8    0.10    0.18
  -1   8   8    0.02    0.17
   0   8   8    4.65    0.39
   0   8   8    4.30    0.37
   1   8   8    0.29    0.17
   1   8   8    0.30    0.18
   2   8   8    1.53    0.26
   2   8   8    1.51    0.23
   3   8   8    0.22    0.15
   4   8   8    0.04    0.14
   5   8   8   12.64    0.57
   2   9   8   10.82    0.56
   2   9   8   10.27    0.56
   3   9   8   10.49    0.55
   4   9   8   -0.28    0.16
  -1   5  -9    1.22    0.24
   1  -5   9    1.46    0.30
   1  -5   9    1.04    0.23
  -2   5  -9    1.62    0.24
  -2   5  -9    1.63    0.30
   2  -5   9    1.46    0.31
   2  -5   9    1.72    0.30
  -3   5  -9    3.64    0.36
  -3   5  -9    4.05    0.38
  -3   5  -9    3.83    0.34
   3  -5   9    3.62    0.36
   3  -5   9    3.67    0.46
   3  -5   9    3.69    0.33
  -4   5  -9    2.27    0.29
  -4   5  -9    2.48    0.34
   4  -5   9    1.90    0.31
   4  -5   9    2.13    0.28
  -5   5  -9    0.74    0.25
  -5   5  -9    1.54    0.30
   0   4  -9   19.53    0.78
   0   4  -9   18.38    0.76
   0  -4   9   17.66    0.86
   0  -4   9   18.26    0.80
  -1   4  -9    0.00    0.16
  -1   4  -9    0.01    0.17
   1  -4   9    0.17    0.22
   1  -4   9    0.09    0.18
  -2   4  -9    0.58    0.19
  -2   4  -9    0.63    0.22
  -2   4  -9    0.61    0.19
   2  -4   9    0.63    0.17
   2  -4   9    0.65    0.20
   2  -4   9    0.63    0.24
  -3   4  -9    0.91    0.23
  -3   4  -9    0.74    0.20
  -3   4  -9    0.74    0.20
   3  -4   9    0.84    0.25
   3  -4   9    0.62    0.20
   3  -4   9    0.70    0.17
  -4   4  -9    0.03    0.18
  -4   4  -9   -0.01    0.20
   4  -4   9   -0.02    0.14
   4  -4   9    0.10    0.17
  -5   4  -9    4.04    0.33
  -5   4  -9    4.01    0.38
   5  -4   9    3.83    0.32
   5  -4   9    4.03    0.36
  -6   4  -9   -0.12    0.16
  -6   4  -9    0.03    0.20
   6  -4   9    0.00    0.18
   6  -4   9   -0.07    0.16
   1   3  -9    9.47    0.49
   1   3  -9    9.83    0.51
  -1  -3   9    9.61    0.54
  -1  -3   9    8.66    0.58
   0   3  -9    0.20    0.17
   0   3  -9    0.00    0.17
   0  -3   9    0.01    0.17
   0  -3   9    0.05    0.20
  -1   3  -9    0.10    0.17
  -1   3  -9   -0.21    0.17
  -1   3  -9    0.44    0.21
   1  -3   9   -0.07    0.13
   1  -3   9    0.10    0.21
   1  -3   9   -0.06    0.16
  -2   3  -9    2.68    0.33
  -2   3  -9    2.26    0.29
   2  -3   9    2.20    0.27
  -3   3  -9   31.02    1.11
  -3   3  -9   29.14    1.15
  -3   3  -9   30.03    1.11
   3  -3   9   29.94    1.14
   3  -3   9   29.91    1.19
   3  -3   9   29.19    1.10
  -4   3  -9    8.62    0.46
  -4   3  -9    8.13    0.54
   4  -3   9    8.22    0.47
   4  -3   9    8.44    0.44
  -5   3  -9    0.05    0.19
  -5   3  -9    0.38    0.17
   5  -3   9    0.01    0.16
   5  -3   9    0.13    0.14
  -6   3  -9    3.34    0.30
  -6   3  -9    3.15    0.33
   6  -3   9    3.34    0.29
   6  -3   9    2.95    0.30
  -7   3  -9    1.60    0.25
   7  -3   9    1.78    0.27
   2   2  -9    2.73    0.31
  -2  -2   9    3.54    0.36
  -2  -2   9    3.08    0.37
   1   2  -9    7.30    0.43
   1   2  -9    6.64    0.40
  -1  -2   9    6.66    0.47
  -1  -2   9    7.14    0.45
   0   2  -9    4.51    0.36
   0   2  -9    4.51    0.35
   0  -2   9    4.81    0.38
   0  -2   9    4.66    0.42
  -1   2  -9   -0.11    0.16
  -1   2  -9    0.10    0.19
  -1   2  -9   -0.09    0.16
   1  -2   9   -0.03    0.14
   1  -2   9   -0.14    0.15
   1  -2   9   -0.09    0.18
  -2   2  -9    9.15    0.46
  -2   2  -9    9.26    0.46
  -2   2  -9    9.50    0.49
   2  -2   9    9.13    0.47
   2  -2   9    9.19    0.58
   2  -2   9    9.36    0.51
  -3   2  -9    6.34    0.41
  -3   2  -9    6.50    0.38
  -3   2  -9    6.59    0.40
   3  -2   9    6.05    0.41
   3  -2   9    5.96    0.38
   3  -2   9    7.63    0.52
  -4   2  -9    2.71    0.28
  -4   2  -9    2.51    0.30
   4  -2   9    2.04    0.34
   4  -2   9    2.91    0.30
  -5   2  -9   -0.10    0.17
  -5   2  -9    0.27    0.18
   5  -2   9    0.11    0.14
   5  -2   9    0.22    0.15
  -6   2  -9    0.63    0.17
  -6   2  -9    0.49    0.23
   6  -2   9    0.35    0.15
   6  -2   9    0.42    0.17
  -7   2  -9   10.58    0.52
   7  -2   9   10.71    0.50
  -8   2  -9    0.18    0.18
   8  -2   9    0.21    0.15
   2   1  -9    1.06    0.21
   2   1  -9    1.35    0.25
  -2  -1   9    0.89    0.23
  -2  -1   9    1.30    0.26
   1   1  -9   16.54    0.69
   1   1  -9   16.75    0.69
  -1  -1   9   16.60    0.75
  -1  -1   9   16.32    0.71
   0   1  -9   25.52    0.96
   0   1  -9   25.42    0.96
   0  -1   9   25.80    1.02
   0  -1   9   24.88    0.97
  -1   1  -9    0.35    0.16
  -1   1  -9    0.45    0.17
  -1   1  -9    0.34    0.20
   1  -1   9    0.20    0.14
   1  -1   9    0.38    0.19
   1  -1   9    0.42    0.16
  -2   1  -9    0.27    0.16
  -2   1  -9    0.27    0.15
  -2   1  -9    0.21    0.19
   2  -1   9    0.30    0.14
   2  -1   9    0.23    0.16
   2  -1   9    0.28    0.19
  -3   1  -9   10.35    0.49
  -3   1  -9   10.74    0.54
  -3   1  -9   10.40    0.49
   3  -1   9    9.62    0.47
   3  -1   9   10.62    0.56
   3  -1   9   10.14    0.51
  -4   1  -9    2.59    0.31
  -4   1  -9    2.78    0.29
   4  -1   9    2.82    0.26
   4  -1   9    3.08    0.30
  -5   1  -9    0.14    0.15
  -5   1  -9    0.09    0.17
   5  -1   9    0.05    0.15
   5  -1   9    0.19    0.14
  -6   1  -9    3.72    0.32
   6  -1   9    3.78    0.28
  -7   1  -9    0.00    0.17
   7  -1   9    0.00    0.12
  -8   1  -9    5.41    0.36
   8  -1   9    5.43    0.37
   3   0  -9    0.60    0.19
  -3   0   9    0.52    0.21
   2   0  -9   -0.01    0.16
   2   0  -9    0.01    0.16
  -2   0   9    0.04    0.18
  -2   0   9   -0.04    0.15
   1   0  -9    0.54    0.17
   1   0  -9    0.47    0.18
  -1   0   9    0.31    0.17
  -1   0   9    0.40    0.20
   0   0  -9    0.23    0.18
   0   0  -9    0.06    0.15
   0   0  -9    0.10    0.15
   0   0   9    0.01    0.14
   0   0   9    0.13    0.18
   0   0   9    0.04    0.17
  -1   0  -9    5.09    0.35
  -1   0  -9    4.86    0.37
  -1   0  -9    4.58    0.33
   1   0   9    5.43    0.40
   1   0   9    4.64    0.31
   1   0   9    4.87    0.35
  -2   0  -9   11.52    0.54
  -2   0  -9   11.35    0.51
  -2   0  -9   11.13    0.51
   2   0   9   11.23    0.53
   2   0   9   10.89    0.50
   2   0   9   11.49    0.56
  -3   0  -9   -0.08    0.16
  -3   0  -9    0.11    0.15
  -3   0  -9    0.15    0.14
   3   0   9   -0.04    0.17
   3   0   9    0.02    0.12
   3   0   9    0.03    0.13
  -4   0  -9    0.73    0.19
  -4   0  -9    0.81    0.17
   4   0   9    0.64    0.15
   4   0   9    0.53    0.16
  -5   0  -9    7.11    0.38
  -5   0  -9    6.92    0.42
   5   0   9    7.05    0.37
   5   0   9    7.32    0.40
  -6   0  -9    4.11    0.31
   6   0   9    3.17    0.29
  -7   0  -9    4.32    0.33
   7   0   9    3.92    0.28
  -8   0  -9    0.89    0.19
   8   0   9    0.65    0.15
   3  -1  -9    3.73    0.34
   3  -1  -9    4.33    0.34
  -3   1   9    3.41    0.33
  -3   1   9    3.44    0.36
   2  -1  -9    1.33    0.22
   2  -1  -9    1.61    0.25
  -2   1   9    1.19    0.21
  -2   1   9    1.41    0.24
   1  -1  -9    3.66    0.32
   1  -1  -9    3.01    0.31
  -1   1   9    2.61    0.29
  -1   1   9    2.51    0.34
   0  -1  -9    1.18    0.23
   0  -1  -9    1.05    0.18
   0  -1  -9    0.94    0.20
   0   1   9    1.00    0.19
   0   1   9    1.12    0.21
   0   1   9    1.30    0.24
  -1  -1  -9   10.29    0.49
  -1  -1  -9   10.50    0.53
  -1  -1  -9   10.71    0.49
   1   1   9    9.88    0.48
   1   1   9   10.09    0.53
   1   1   9   10.29    0.50
  -2  -1  -9    3.88    0.31
  -2  -1  -9    4.10    0.35
  -2  -1  -9    4.18    0.32
   2   1   9    4.11    0.37
   2   1   9    3.78    0.28
   2   1   9    3.85    0.32
  -3  -1  -9    2.63    0.26
  -3  -1  -9    2.75    0.31
   3   1   9    2.94    0.30
   3   1   9    2.83    0.25
  -4  -1  -9    0.19    0.17
  -4  -1  -9    0.29    0.15
   4   1   9    0.24    0.12
   4   1   9    0.20    0.14
  -5  -1  -9    3.33    0.29
  -5  -1  -9    3.14    0.31
   5   1   9    3.48    0.26
   5   1   9    3.53    0.29
  -6  -1  -9    1.15    0.19
   6   1   9    0.88    0.17
  -7  -1  -9    1.59    0.29
   7   1   9    1.13    0.19
   3  -2  -9    6.55    0.38
   3  -2  -9    5.62    0.38
  -3   2   9    4.89    0.37
  -3   2   9    5.30    0.41
   2  -2  -9    8.48    0.45
   2  -2  -9    8.38    0.44
  -2   2   9    8.52    0.49
  -2   2   9    8.21    0.45
   1  -2  -9    1.13    0.20
   1  -2  -9    1.51    0.26
  -1   2   9    1.05    0.20
  -1   2   9    0.92    0.23
   0  -2  -9    2.79    0.28
   0  -2  -9    3.05    0.33
   0  -2  -9    2.80    0.28
   0   2   9    2.28    0.28
   0   2   9    2.25    0.30
   0   2   9    2.56    0.27
  -1  -2  -9   12.18    0.53
  -1  -2  -9   11.80    0.53
  -1  -2  -9   11.88    0.56
   1   2   9   11.84    0.54
   1   2   9   11.76    0.53
   1   2   9   11.59    0.55
  -2  -2  -9   17.61    0.71
  -2  -2  -9   17.95    0.74
  -2  -2  -9   18.02    0.71
   2   2   9   18.28    0.73
   2   2   9   19.30    0.78
   2   2   9   17.78    0.72
  -3  -2  -9    0.21    0.15
  -3  -2  -9    0.23    0.18
   3   2   9    0.15    0.14
   3   2   9    0.21    0.13
  -4  -2  -9   -0.08    0.17
  -4  -2  -9   -0.08    0.13
   4   2   9    0.05    0.13
   4   2   9   -0.06    0.11
  -5  -2  -9    5.07    0.32
  -5  -2  -9    5.09    0.36
   5   2   9    4.84    0.30
   5   2   9    5.10    0.34
  -6  -2  -9    1.01    0.19
   6   2   9    1.01    0.17
  -7  -2  -9    5.64    0.36
   7   2   9    5.28    0.31
   3  -3  -9    5.92    0.38
   3  -3  -9    6.20    0.41
  -3   3   9    6.09    0.43
  -3   3   9    6.15    0.41
   2  -3  -9    0.96    0.21
   2  -3  -9    0.90    0.19
  -2   3   9    0.78    0.21
  -2   3   9    0.91    0.20
   1  -3  -9    2.44    0.30
   1  -3  -9    2.33    0.30
  -1   3   9    2.28    0.29
  -1   3   9    2.00    0.27
   0  -3  -9    3.57    0.31
   0  -3  -9    3.63    0.31
   0  -3  -9    3.74    0.35
   0   3   9    3.24    0.32
   0   3   9    3.43    0.30
   0   3   9    3.99    0.35
  -1  -3  -9    0.45    0.20
  -1  -3  -9    0.18    0.15
  -1  -3  -9    0.35    0.17
   1   3   9    0.33    0.16
   1   3   9    0.27    0.14
   1   3   9    0.21    0.15
  -2  -3  -9    0.50    0.20
  -2  -3  -9    0.45    0.17
  -2  -3  -9    0.40    0.14
   2   3   9    0.43    0.15
   2   3   9    0.38    0.16
   2   3   9    0.33    0.15
  -3  -3  -9    0.38    0.15
  -3  -3  -9    0.42    0.19
   3   3   9    0.39    0.15
   3   3   9    0.26    0.13
  -4  -3  -9    0.78    0.16
  -4  -3  -9    0.54    0.19
   4   3   9    0.64    0.14
   4   3   9    0.77    0.15
  -5  -3  -9    1.86    0.28
   5   3   9    2.20    0.22
  -6  -3  -9    4.46    0.33
   6   3   9    4.56    0.29
  -7  -3  -9    7.24    0.39
   7   3   9    6.87    0.35
   2  -4  -9    8.29    0.47
   2  -4  -9    7.83    0.44
  -2   4   9    8.43    0.49
  -2   4   9    8.80    0.48
   1  -4  -9    4.38    0.43
   1  -4  -9    3.88    0.33
   1  -4  -9    3.62    0.33
  -1   4   9    3.79    0.33
  -1   4   9    4.24    0.33
  -1   4   9    3.98    0.35
   0  -4  -9    2.07    0.34
   0  -4  -9    1.81    0.34
   0   4   9    1.81    0.27
   0   4   9    2.47    0.32
   0   4   9    2.27    0.29
  -1  -4  -9   17.89    0.70
  -1  -4  -9   17.67    0.75
  -1  -4  -9   16.76    0.70
   1   4   9   17.54    0.74
   1   4   9   16.73    0.73
   1   4   9   17.64    0.73
  -2  -4  -9    0.12    0.19
  -2  -4  -9    0.32    0.16
   2   4   9    0.04    0.14
   2   4   9    0.13    0.13
  -3  -4  -9    0.70    0.21
  -3  -4  -9    0.37    0.17
   3   4   9    0.27    0.13
   3   4   9    0.34    0.15
  -4  -4  -9    6.92    0.42
  -4  -4  -9    6.49    0.37
   4   4   9    6.40    0.38
   4   4   9    6.77    0.37
  -5  -4  -9   16.59    0.68
   5   4   9   16.31    0.66
  -6  -4  -9   -0.25    0.20
   6   4   9   -0.06    0.12
   2  -5  -9    1.31    0.24
   2  -5  -9    1.02    0.25
  -2   5   9    1.01    0.22
  -2   5   9    1.07    0.24
   1  -5  -9   -0.04    0.22
   1  -5  -9    0.25    0.21
   1  -5  -9   -0.02    0.17
  -1   5   9    0.07    0.16
  -1   5   9    0.00    0.14
  -1   5   9   -0.07    0.16
   0  -5  -9    1.90    0.29
   0  -5  -9    3.02    0.35
   0   5   9    2.73    0.31
   0   5   9    2.84    0.29
   0   5   9    2.74    0.29
  -1  -5  -9    0.76    0.31
  -1  -5  -9    0.40    0.18
  -1  -5  -9    0.43    0.24
   1   5   9    0.43    0.19
   1   5   9    0.23    0.18
   1   5   9    0.27    0.17
  -2  -5  -9    0.23    0.22
  -2  -5  -9   -0.07    0.15
   2   5   9    0.07    0.17
  -3  -5  -9    1.41    0.25
  -3  -5  -9    1.50    0.23
   3   5   9    1.34    0.23
   3   5   9    1.64    0.28
  -4  -5  -9    1.69    0.31
   4   5   9    1.25    0.19
   4   5   9    1.17    0.20
  -5  -5  -9    0.83    0.26
  -6  -5  -9    0.16    0.18
   6   5   9    0.11    0.13
   1  -6  -9    0.55    0.22
   1  -6  -9    0.29    0.24
   1  -6  -9    1.20    0.33
  -1   6   9    0.38    0.23
  -1   6   9    0.15    0.20
  -1   6   9    0.40    0.21
   0  -6  -9    9.29    0.49
   0  -6  -9    8.99    0.54
   0  -6  -9    8.94    0.49
   0   6   9    8.53    0.47
   0   6   9    8.16    0.47
   0   6   9    8.33    0.47
  -1  -6  -9   -0.09    0.19
  -1  -6  -9   -0.14    0.23
   1   6   9    0.12    0.16
   1   6   9   -0.04    0.15
  -2  -6  -9    0.15    0.22
  -2  -6  -9    0.21    0.18
   2   6   9   -0.17    0.16
  -3  -6  -9   -0.22    0.21
  -3  -6  -9    0.05    0.16
  -4  -6  -9    2.24    0.31
   4   6   9    1.87    0.26
  -5  -6  -9   34.30    1.25
   5   6   9   33.72    1.22
  -6  -6  -9    0.37    0.20
   6   6   9    0.52    0.14
   0  -7  -9    1.62    0.29
   0  -7  -9    0.29    0.32
   0   7   9    1.07    0.25
  -1  -7  -9    2.86    0.40
  -1  -7  -9    2.41    0.32
   1   7   9    2.95    0.31
   1   7   9    2.52    0.32
  -2  -7  -9    1.56    0.29
  -2  -7  -9    1.59    0.30
   2   7   9    1.70    0.27
   2   7   9    1.41    0.23
  -3  -7  -9    1.65    0.29
  -3  -7  -9    1.56    0.27
   3   7   9    1.46    0.22
   3   7   9    1.46    0.26
  -4  -7  -9   -0.14    0.22
   4   7   9   -0.07    0.14
  -5  -7  -9    0.91    0.23
   5   7   9    0.92    0.18
  -6  -7  -9    2.91    0.36
   6   7   9    2.42    0.28
  -1  -8  -9   -0.09    0.23
  -1  -8  -9    0.63    0.24
   1   8   9    0.01    0.18
   1   8   9   -0.02    0.17
  -2  -8  -9    3.30    0.35
  -2  -8  -9    2.53    0.39
   2   8   9    3.26    0.35
   2   8   9    3.61    0.37
  -3  -8  -9    1.31    0.30
  -3  -8  -9    1.11    0.24
   3   8   9    1.99    0.32
  -4  -8  -9   -0.48    0.26
   4   8   9   -0.15    0.17
  -5  -8  -9    1.87    0.29
   5   8   9    1.52    0.23
  -3   4 -10    0.56    0.25
  -3   4 -10    0.41    0.19
  -3   4 -10    0.07    0.22
   3  -4  10    0.15    0.23
   3  -4  10   -0.01    0.18
   3  -4  10    0.07    0.15
  -4   4 -10    1.38    0.30
   4  -4  10    1.86    0.27
   4  -4  10    1.16    0.23
  -1   3 -10    0.11    0.19
  -1   3 -10    0.10    0.20
   1  -3  10    0.14    0.19
   1  -3  10    0.18    0.23
  -2   3 -10    0.77    0.23
  -2   3 -10    0.73    0.21
  -2   3 -10    0.83    0.22
   2  -3  10    0.87    0.29
   2  -3  10    0.54    0.19
   2  -3  10    0.56    0.24
  -3   3 -10    0.09    0.21
  -3   3 -10    0.28    0.17
  -3   3 -10    0.26    0.18
   3  -3  10    0.15    0.17
   3  -3  10    0.14    0.21
   3  -3  10    0.99    0.30
  -4   3 -10    1.42    0.27
  -4   3 -10    1.56    0.27
   4  -3  10    1.02    0.22
   4  -3  10    1.15    0.26
  -5   3 -10    1.60    0.27
  -5   3 -10    1.85    0.28
   5  -3  10    1.32    0.24
   5  -3  10    1.56    0.27
  -6   3 -10    0.71    0.24
  -6   3 -10    1.32    0.24
   6  -3  10    0.73    0.21
   6  -3  10    0.60    0.18
   0   2 -10    0.39    0.20
   0   2 -10    0.59    0.20
   0  -2  10    0.49    0.24
   0  -2  10    0.50    0.20
  -1   2 -10    1.26    0.22
  -1   2 -10    0.95    0.21
   1  -2  10    1.24    0.27
   1  -2  10    1.07    0.22
  -2   2 -10    2.13    0.31
  -2   2 -10    2.67    0.34
  -2   2 -10    2.04    0.29
   2  -2  10    2.12    0.30
   2  -2  10    1.94    0.26
   2  -2  10    1.64    0.28
  -3   2 -10   -0.05    0.17
  -3   2 -10    0.55    0.22
  -3   2 -10    0.11    0.18
   3  -2  10   -0.05    0.14
   3  -2  10   -0.10    0.19
   3  -2  10   -0.04    0.16
  -4   2 -10    0.27    0.19
  -4   2 -10    0.16    0.21
   4  -2  10    0.04    0.16
   4  -2  10    0.17    0.15
  -5   2 -10    7.89    0.43
  -5   2 -10    8.31    0.47
   5  -2  10    7.69    0.43
   5  -2  10    8.07    0.46
  -6   2 -10    2.99    0.29
  -6   2 -10    2.66    0.33
   6  -2  10    2.41    0.33
   6  -2  10    2.74    0.28
  -7   2 -10    0.03    0.20
   7  -2  10    0.41    0.19
   1   1 -10    8.40    0.49
   1   1 -10    8.43    0.50
  -1  -1  10    8.55    0.49
  -1  -1  10    8.12    0.53
   0   1 -10    0.02    0.17
   0   1 -10    0.03    0.18
   0  -1  10    0.33    0.22
   0  -1  10    0.34    0.18
  -1   1 -10    9.37    0.53
  -1   1 -10    9.18    0.48
  -1   1 -10    9.43    0.48
   1  -1  10    9.06    0.50
   1  -1  10    9.52    0.56
   1  -1  10    8.74    0.47
  -2   1 -10   -0.35    0.20
  -2   1 -10    0.25    0.17
  -2   1 -10   -0.33    0.17
   2  -1  10    0.09    0.16
   2  -1  10    0.01    0.14
   2  -1  10    0.08    0.20
  -3   1 -10    0.36    0.23
  -3   1 -10    0.32    0.18
  -3   1 -10    0.25    0.17
   3  -1  10    0.17    0.15
   3  -1  10    0.00    0.16
  -4   1 -10    7.31    0.42
   4  -1  10    6.21    0.39
   4  -1  10    6.78    0.42
  -5   1 -10    0.07    0.17
  -5   1 -10   -0.07    0.20
   5  -1  10    0.17    0.14
   5  -1  10    0.11    0.16
  -6   1 -10    2.06    0.30
   6  -1  10    2.26    0.25
  -7   1 -10    0.09    0.18
   7  -1  10    0.19    0.17
   8  -1  10    2.06    0.24
   1   0 -10   -0.01    0.17
   1   0 -10    0.01    0.18
  -1   0  10   -0.13    0.20
  -1   0  10    0.17    0.18
   0   0 -10    1.54    0.28
   0   0 -10    1.23    0.22
   0   0  10    1.11    0.21
   0   0  10    1.45    0.26
  -1   0 -10    0.15    0.18
  -1   0 -10    0.33    0.24
  -1   0 -10    0.65    0.21
   1   0  10    0.50    0.18
   1   0  10    0.43    0.20
   1   0  10    0.49    0.16
  -2   0 -10    1.08    0.22
  -2   0 -10    0.70    0.21
  -2   0 -10    1.02    0.27
   2   0  10    0.75    0.24
   2   0  10    1.10    0.19
   2   0  10    1.18    0.21
  -3   0 -10    0.01    0.23
  -3   0 -10    0.11    0.22
   3   0  10    0.07    0.16
   3   0  10   -0.08    0.14
   4   0  10    1.24    0.21
   4   0  10    1.20    0.19
  -5   0 -10    0.34    0.17
   5   0  10    0.08    0.14
   5   0  10    0.20    0.15
  -6   0 -10   -0.05    0.18
   6   0  10   -0.08    0.12
  -7   0 -10    1.59    0.28
   7   0  10    1.71    0.23
  -8   0 -10    3.28    0.34
   8   0  10    3.41    0.28
   1  -1 -10    4.12    0.33
   1  -1 -10    3.86    0.34
  -1   1  10    3.95    0.38
  -1   1  10    4.62    0.43
   0  -1 -10    1.59    0.27
   0  -1 -10    1.22    0.22
   0   1  10    1.30    0.22
   0   1  10    1.31    0.24
  -1  -1 -10    3.70    0.33
  -1  -1 -10    3.04    0.35
  -1  -1 -10    4.13    0.37
   1   1  10    3.40    0.32
   1   1  10    3.45    0.29
   1   1  10    3.36    0.36
  -2  -1 -10    1.10    0.28
  -2  -1 -10    1.97    0.33
   2   1  10    1.16    0.23
   2   1  10    1.19    0.20
   2   1  10    1.21    0.21
  -3  -1 -10    1.40    0.24
  -3  -1 -10    1.29    0.21
   3   1  10    1.01    0.22
   3   1  10    1.42    0.25
  -4  -1 -10   15.26    0.65
  -4  -1 -10   15.37    0.68
   4   1  10   15.34    0.65
   4   1  10   15.54    0.67
  -5  -1 -10    3.47    0.31
  -5  -1 -10    2.62    0.39
   5   1  10    2.71    0.26
   5   1  10    2.81    0.30
  -6  -1 -10    0.11    0.19
   6   1  10    0.12    0.13
  -7  -1 -10    0.41    0.19
   7   1  10    0.14    0.13
  -8  -1 -10    3.53    0.33
   8   1  10    3.70    0.29
   1  -2 -10    0.16    0.16
   1  -2 -10    0.26    0.18
  -1   2  10    0.21    0.20
   0  -2 -10    0.06    0.17
   0  -2 -10    0.01    0.21
   0  -2 -10    0.01    0.16
   0   2  10   -0.07    0.17
   0   2  10    0.08    0.14
   0   2  10   -0.03    0.15
  -1  -2 -10    2.05    0.35
  -1  -2 -10    2.53    0.31
   1   2  10    2.17    0.34
   1   2  10    2.25    0.28
   1   2  10    1.99    0.25
  -2  -2 -10    3.04    0.41
  -2  -2 -10    3.54    0.37
   2   2  10    2.53    0.32
   2   2  10    2.76    0.29
  -3  -2 -10    1.71    0.23
  -3  -2 -10    1.61    0.27
   3   2  10    1.54    0.24
   3   2  10    1.69    0.26
  -4  -2 -10    5.12    0.39
  -4  -2 -10    6.44    0.43
   4   2  10    7.03    0.39
   4   2  10    6.85    0.42
  -5  -2 -10    7.53    0.47
  -5  -2 -10    7.52    0.41
   5   2  10    7.07    0.42
   5   2  10    6.98    0.39
  -6  -2 -10    0.28    0.19
   6   2  10    0.08    0.13
  -7  -2 -10    1.65    0.26
   7   2  10    1.57    0.21
   1  -3 -10   -0.15    0.16
   1  -3 -10   -0.04    0.19
  -1   3  10   -0.20    0.19
  -1   3  10    0.37    0.24
   0  -3 -10    0.20    0.17
   0  -3 -10    0.12    0.20
   0  -3 -10   -0.01    0.18
   0   3  10    0.36    0.15
   0   3  10    0.17    0.16
   0   3  10    0.16    0.17
  -1  -3 -10    0.23    0.18
  -1  -3 -10    0.38    0.23
  -1  -3 -10    0.28    0.19
   1   3  10    0.69    0.17
   1   3  10    0.58    0.19
   1   3  10    0.51    0.18
  -2  -3 -10   19.91    0.83
  -2  -3 -10   18.87    0.76
   2   3  10   18.39    0.77
   2   3  10   18.82    0.79
  -3  -3 -10    5.44    0.40
   3   3  10    4.56    0.38
   3   3  10    5.21    0.36
  -4  -3 -10    0.72    0.27
  -4  -3 -10    0.95    0.22
  -5  -3 -10    0.12    0.22
   5   3  10    0.10    0.13
  -6  -3 -10    0.20    0.19
   6   3  10    0.23    0.14
  -7  -3 -10    3.84    0.32
   7   3  10    3.82    0.27
   1  -4 -10    6.30    0.41
   1  -4 -10    5.53    0.41
  -1   4  10    4.80    0.41
  -1   4  10    4.45    0.38
   0  -4 -10    0.19    0.23
   0  -4 -10    0.45    0.19
   0  -4 -10    0.29    0.18
   0   4  10    0.16    0.17
   0   4  10    0.28    0.16
   0   4  10    0.24    0.18
  -1  -4 -10    6.01    0.39
  -1  -4 -10    5.69    0.43
  -1  -4 -10    5.33    0.37
   1   4  10    5.75    0.38
   1   4  10    5.59    0.39
   1   4  10    5.44    0.40
  -2  -4 -10    2.33    0.33
  -2  -4 -10    2.06    0.28
   2   4  10    2.65    0.31
   2   4  10    2.20    0.28
  -3  -4 -10   25.16    0.96
  -3  -4 -10   23.42    0.90
   3   4  10   23.33    0.93
   3   4  10   23.49    0.92
  -4  -4 -10    5.84    0.41
  -4  -4 -10    5.78    0.35
   4   4  10    5.22    0.35
   4   4  10    5.20    0.36
  -5  -4 -10    0.53    0.20
   5   4  10    0.56    0.16
  -6  -4 -10    3.80    0.33
   6   4  10    3.47    0.27
  -7  -4 -10    0.30    0.19
   7   4  10    0.38    0.16
   0  -5 -10    0.46    0.21
   0  -5 -10    0.61    0.21
   0   5  10    0.13    0.20
   0   5  10    0.59    0.22
  -1  -5 -10    0.51    0.25
  -1  -5 -10    0.39    0.20
   1   5  10    0.35    0.16
   1   5  10    0.56    0.18
  -2  -5 -10   -0.05    0.22
  -2  -5 -10    0.01    0.17
   2   5  10   -0.01    0.15
   2   5  10    0.12    0.15
  -3  -5 -10    0.16    0.20
  -3  -5 -10    0.23    0.17
   3   5  10    0.10    0.16
   3   5  10    0.12    0.15
  -4  -5 -10    0.15    0.16
  -4  -5 -10    0.06    0.21
   4   5  10    0.12    0.15
   4   5  10    0.02    0.15
  -5  -5 -10    0.59    0.22
   5   5  10    0.55    0.16
  -6  -5 -10    0.65    0.20
   6   5  10    0.61    0.16
  -7  -5 -10    4.31    0.35
   0  -6 -10    0.79    0.28
   0  -6 -10    0.84    0.23
   0  -6 -10    0.81    0.21
   0   6  10    0.85    0.22
   0   6  10    0.79    0.20
   0   6  10    0.82    0.21
  -1  -6 -10    0.33    0.23
  -1  -6 -10   -0.38    0.25
   1   6  10   -0.27    0.19
   1   6  10    0.02    0.20
  -2  -6 -10    4.85    0.42
  -2  -6 -10    4.70    0.35
   2   6  10    4.71    0.38
   2   6  10    4.86    0.36
  -3  -6 -10    0.41    0.21
  -3  -6 -10    0.61    0.19
   3   6  10    0.68    0.18
   3   6  10    0.68    0.18
  -4  -6 -10    0.07    0.19
   4   6  10    0.14    0.15
  -5  -6 -10    3.39    0.36
   5   6  10    3.40    0.30
  -6  -6 -10    2.67    0.37
   6   6  10    2.08    0.26
  -2  -7 -10    0.17    0.22
  -2  -7 -10    0.25    0.21
   2   7  10    0.21    0.17
   2   7  10    0.03    0.17
  -3  -7 -10    0.80    0.21
   3   7  10    0.87    0.22
   3   7  10    0.73    0.20
  -4  -7 -10    1.13    0.27
  -5  -7 -10    2.72    0.37
   5   7  10    2.21    0.28
  -3   2 -11    1.32    0.26
  -3   2 -11    2.07    0.38
   3  -2  11    1.04    0.21
   3  -2  11    1.03    0.24
  -4   2 -11    1.54    0.28
   4  -2  11    1.77    0.31
   4  -2  11    1.97    0.27
  -5   2 -11    0.37    0.19
   5  -2  11    0.38    0.19
   1  -1  11    8.02    0.57
  -2   1 -11    0.39    0.20
  -2   1 -11    0.62    0.27
  -2   1 -11    0.66    0.22
   2  -1  11    0.58    0.21
   2  -1  11    0.78    0.19
   2  -1  11    0.75    0.25
  -3   1 -11    0.03    0.22
  -3   1 -11    0.14    0.18
   3  -1  11   -0.17    0.16
   3  -1  11   -0.02    0.18
  -4   1 -11    4.46    0.35
  -4   1 -11    4.11    0.39
   4  -1  11    3.42    0.35
   4  -1  11    3.96    0.39
  -5   1 -11   -0.03    0.21
  -5   1 -11    0.02    0.19
   5  -1  11   -0.04    0.17
   5  -1  11   -0.03    0.15
  -6   1 -11    0.03    0.18
  -6   1 -11    0.84    0.27
   6  -1  11    0.04    0.16
  -1   0 -11    1.12    0.25
  -1   0 -11    1.07    0.28
   1   0  11    0.55    0.23
   1   0  11    0.61    0.20
   1   0  11    0.51    0.18
  -2   0 -11    3.54    0.34
  -2   0 -11    3.01    0.32
  -2   0 -11    3.35    0.38
   2   0  11    2.66    0.34
   2   0  11    4.25    0.46
   2   0  11    4.22    0.38
  -3   0 -11   -0.07    0.18
  -3   0 -11   -0.10    0.21
   3   0  11    0.10    0.17
   3   0  11   -0.07    0.15
  -4   0 -11    2.67    0.31
  -4   0 -11    2.51    0.36
   4   0  11    2.70    0.28
   4   0  11    2.87    0.33
  -5   0 -11    0.94    0.21
  -5   0 -11    0.90    0.25
  -6   0 -11    0.34    0.22
   6   0  11    0.24    0.17
  -7   0 -11    2.05    0.33
   7   0  11    1.79    0.25
  -1  -1 -11    2.77    0.32
  -1  -1 -11    2.39    0.39
  -1  -1 -11    3.05    0.36
   1   1  11    2.68    0.29
   1   1  11    2.80    0.34
   1   1  11    2.65    0.40
  -2  -1 -11    0.27    0.22
  -2  -1 -11    0.16    0.19
  -2  -1 -11    0.31    0.18
   2   1  11    0.32    0.16
   2   1  11    0.24    0.18
   2   1  11    0.68    0.23
  -3  -1 -11   -0.13    0.21
  -3  -1 -11   -0.07    0.17
   3   1  11    0.08    0.17
   3   1  11    0.02    0.14
  -4  -1 -11    0.22    0.22
  -4  -1 -11    0.42    0.19
   4   1  11    0.21    0.15
   4   1  11    0.20    0.17
  -5  -1 -11    1.83    0.31
  -5  -1 -11    1.54    0.27
   5   1  11    1.18    0.20
   5   1  11    1.29    0.22
  -6  -1 -11    3.03    0.34
   6   1  11    2.79    0.30
  -7  -1 -11    0.57    0.25
   7   1  11   -0.02    0.14
  -1  -2 -11    2.97    0.34
  -1  -2 -11    2.56    0.32
  -1  -2 -11    2.56    0.40
   1   2  11    2.43    0.30
   1   2  11    1.95    0.29
   1   2  11    2.46    0.40
  -2  -2 -11    0.52    0.20
  -2  -2 -11    0.43    0.24
   2   2  11    0.33    0.18
   2   2  11    0.30    0.16
  -3  -2 -11    0.18    0.22
  -3  -2 -11    0.01    0.17
   3   2  11   -0.09    0.14
   3   2  11   -0.01    0.16
  -4  -2 -11    0.53    0.23
  -4  -2 -11    0.17    0.17
   4   2  11    0.08    0.16
   4   2  11    0.16    0.15
  -5  -2 -11    1.38    0.26
  -5  -2 -11    1.22    0.20
   5   2  11    1.33    0.23
   5   2  11    1.60    0.29
  -6  -2 -11    0.47    0.21
   6   2  11    0.49    0.18
  -7  -2 -11    0.72    0.25
   7   2  11    0.53    0.17
  -1  -3 -11    1.57    0.32
  -1  -3 -11    2.18    0.32
   1   3  11    1.64    0.27
   1   3  11    1.99    0.28
   1   3  11    1.71    0.29
  -2  -3 -11    7.63    0.45
  -2  -3 -11    8.06    0.50
   2   3  11    8.08    0.45
   2   3  11    7.67    0.47
  -3  -3 -11    2.04    0.34
  -3  -3 -11    1.47    0.24
   3   3  11    1.62    0.29
   3   3  11    1.80    0.25
  -4  -3 -11    7.90    0.50
  -4  -3 -11    8.34    0.45
   4   3  11    7.99    0.47
   4   3  11    8.04    0.44
  -5  -3 -11    1.47    0.26
   5   3  11    1.22    0.22
  -6  -3 -11   -0.11    0.20
   6   3  11   -0.31    0.16
  -7  -3 -11    0.21    0.20
   7   3  11    0.09    0.13
  -1  -4 -11    0.65    0.25
  -1  -4 -11    0.37    0.19
   1   4  11    0.24    0.18
   1   4  11    0.50    0.21
   1   4  11    0.38    0.18
  -2  -4 -11    3.67    0.35
  -2  -4 -11    4.37    0.41
   2   4  11    3.92    0.36
   2   4  11    3.80    0.39
  -3  -4 -11    9.93    0.55
  -3  -4 -11    9.80    0.51
   3   4  11    9.76    0.51
   3   4  11   11.20    0.55
  -4  -4 -11    0.31    0.18
  -4  -4 -11    0.55    0.22
   4   4  11   -0.03    0.18
   4   4  11    0.09    0.15
  -5  -4 -11    1.10    0.24
   5   4  11    0.76    0.20
  -6  -4 -11    0.88    0.27
   6   4  11    0.41    0.18
  -2  -5 -11    2.26    0.30
  -2  -5 -11    2.30    0.40
   2   5  11    1.98    0.28
   2   5  11    1.93    0.31
  -3  -5 -11    5.05    0.40
   3   5  11    4.38    0.38
   3   5  11    4.74    0.39
  -4  -5 -11    6.98    0.43
  -4  -5 -11    6.72    0.48
   4   5  11    6.73    0.44
   4   5  11    6.65    0.43
  -5  -5 -11    3.19    0.39
   5   5  11    2.25    0.29
   0   0   0    0.00    0.00
;
_shelx_hkl_checksum              88087
#END Tags that were not found in dictionaries
loop_
_space_group_symop_operation_xyz
'x, y, z'
'-x, -y, -z'
loop_
_atom_site_label
_atom_site_type_symbol
_atom_site_fract_x
_atom_site_fract_y
_atom_site_fract_z
_atom_site_U_iso_or_equiv
_atom_site_adp_type
_atom_site_occupancy
_atom_site_site_symmetry_order
_atom_site_calc_flag
_atom_site_refinement_flags_posn
F1 F 0.05913(16) 0.64549(12) 0.92406(11) 0.0302(3) Uani 1 1 d .
F2 F 0.23543(17) 0.84341(12) 0.81587(10) 0.0263(3) Uani 1 1 d .
F3 F -0.04004(15) 0.88063(13) 0.94151(11) 0.0298(3) Uani 1 1 d .
N1 N 0.1429(2) 0.75199(16) 0.45404(14) 0.0180(4) Uani 1 1 d .
N2 N 0.1739(2) 0.75404(16) 0.58502(14) 0.0186(4) Uani 1 1 d .
N3 N -0.1241(2) 0.83765(16) 0.71150(14) 0.0190(4) Uani 1 1 d .
C1 C 0.0363(2) 0.79705(18) 0.70076(17) 0.0172(4) Uani 1 1 d .
C2 C -0.1570(3) 0.82442(18) 0.58180(17) 0.0181(4) Uani 1 1 d .
C3 C -0.3246(3) 0.85339(19) 0.58220(18) 0.0207(4) Uani 1 1 d .
H3 H -0.4144 0.8867 0.6695 0.025 Uiso 1 1 calc R
C4 C -0.3618(3) 0.83419(19) 0.45677(19) 0.0221(4) Uani 1 1 d .
H4 H -0.4769 0.8537 0.4582 0.027 Uiso 1 1 calc R
C5 C -0.2297(3) 0.78608(19) 0.32791(18) 0.0233(5) Uani 1 1 d .
H5 H -0.2562 0.7730 0.2420 0.028 Uiso 1 1 calc R
C6 C -0.0620(3) 0.75730(19) 0.32317(17) 0.0211(4) Uani 1 1 d .
H6 H 0.0264 0.7237 0.2352 0.025 Uiso 1 1 calc R
C7 C -0.0229(2) 0.77800(18) 0.44933(17) 0.0177(4) Uani 1 1 d .
C8 C 0.2926(2) 0.70792(19) 0.32721(17) 0.0179(4) Uani 1 1 d .
C9 C 0.3499(3) 0.8069(2) 0.18463(18) 0.0217(4) Uani 1 1 d .
H9 H 0.2913 0.9032 0.1700 0.026 Uiso 1 1 calc R
C10 C 0.4944(3) 0.7620(2) 0.06402(18) 0.0238(5) Uani 1 1 d .
H10 H 0.5352 0.8280 -0.0344 0.029 Uiso 1 1 calc R
C11 C 0.5795(3) 0.6217(2) 0.08613(19) 0.0241(5) Uani 1 1 d .
H11 H 0.6781 0.5917 0.0029 0.029 Uiso 1 1 calc R
C12 C 0.5213(3) 0.5247(2) 0.2293(2) 0.0251(5) Uani 1 1 d .
H12 H 0.5800 0.4286 0.2439 0.030 Uiso 1 1 calc R
C13 C 0.3772(3) 0.56784(19) 0.35148(18) 0.0217(4) Uani 1 1 d .
H13 H 0.3373 0.5023 0.4501 0.026 Uiso 1 1 calc R
C14 C 0.0736(3) 0.7935(2) 0.84591(17) 0.0196(5) Uani 1 1 d .
loop_
_atom_site_aniso_label
_atom_site_aniso_U_11
_atom_site_aniso_U_22
_atom_site_aniso_U_33
_atom_site_aniso_U_23
_atom_site_aniso_U_13
_atom_site_aniso_U_12
F1 0.0422(9) 0.0254(5) 0.0246(5) 0.0043(4) -0.0172(5) -0.0060(5)
F2 0.0228(9) 0.0355(6) 0.0232(5) -0.0035(4) -0.0114(5) -0.0049(5)
F3 0.0294(8) 0.0410(6) 0.0226(5) -0.0159(4) -0.0103(4) 0.0069(5)
N1 0.0156(11) 0.0220(7) 0.0159(6) -0.0048(5) -0.0051(6) 0.0012(7)
N2 0.0176(10) 0.0215(7) 0.0173(6) -0.0034(5) -0.0073(6) 0.0001(6)
N3 0.0191(11) 0.0196(7) 0.0177(6) -0.0040(5) -0.0063(6) 0.0014(7)
C1 0.0187(13) 0.0146(7) 0.0169(7) -0.0016(6) -0.0056(7) -0.0010(8)
C2 0.0203(13) 0.0149(7) 0.0178(7) -0.0018(6) -0.0064(7) -0.0001(8)
C3 0.0191(13) 0.0186(8) 0.0222(8) -0.0034(6) -0.0060(7) 0.0023(8)
C4 0.0181(13) 0.0203(8) 0.0280(8) 0.0005(6) -0.0106(7) -0.0022(8)
C5 0.0279(14) 0.0229(9) 0.0207(8) -0.0015(6) -0.0119(8) -0.0016(9)
C6 0.0217(13) 0.0228(8) 0.0175(7) -0.0035(6) -0.0059(7) -0.0010(8)
C7 0.0164(13) 0.0160(8) 0.0188(7) -0.0010(6) -0.0056(7) -0.0010(8)
C8 0.0122(12) 0.0227(8) 0.0189(7) -0.0072(6) -0.0040(7) -0.0027(8)
C9 0.0223(13) 0.0222(8) 0.0211(8) -0.0046(6) -0.0082(7) -0.0011(8)
C10 0.0207(14) 0.0309(9) 0.0188(8) -0.0054(7) -0.0050(7) -0.0069(8)
C11 0.0156(13) 0.0314(9) 0.0252(8) -0.0152(7) -0.0026(7) -0.0029(8)
C12 0.0210(14) 0.0216(8) 0.0326(9) -0.0104(7) -0.0078(8) 0.0015(8)
C13 0.0212(13) 0.0206(8) 0.0224(8) -0.0042(6) -0.0068(7) -0.0028(8)
C14 0.0169(15) 0.0219(8) 0.0187(8) -0.0030(6) -0.0052(7) -0.0019(8)
loop_
_atom_type_symbol
_atom_type_description
_atom_type_scat_dispersion_real
_atom_type_scat_dispersion_imag
_atom_type_scat_source
C C 0.0033 0.0016 'International Tables Vol C Tables 4.2.6.8 and 6.1.1.4'
H H 0.0000 0.0000 'International Tables Vol C Tables 4.2.6.8 and 6.1.1.4'
N N 0.0061 0.0033 'International Tables Vol C Tables 4.2.6.8 and 6.1.1.4'
F F 0.0171 0.0103 'International Tables Vol C Tables 4.2.6.8 and 6.1.1.4'
loop_
_geom_angle_atom_site_label_1
_geom_angle_atom_site_label_2
_geom_angle_atom_site_label_3
_geom_angle
N2 N1 C7 122.31(13)
N2 N1 C8 114.26(14)
C7 N1 C8 123.24(13)
C1 N2 N1 114.01(15)
C1 N3 C2 113.96(13)
N2 C1 C14 112.63(16)
N3 C1 N2 131.29(15)
N3 C1 C14 116.06(14)
N3 C2 C3 119.75(14)
N3 C2 C7 121.03(17)
C3 C2 C7 119.20(15)
C2 C3 H3 119.7
C4 C3 C2 120.59(15)
C4 C3 H3 119.7
C3 C4 H4 120.1
C3 C4 C5 119.83(18)
C5 C4 H4 120.1
C4 C5 H5 119.4
C6 C5 C4 121.14(16)
C6 C5 H5 119.4
C5 C6 H6 120.3
C5 C6 C7 119.36(15)
C7 C6 H6 120.3
N1 C7 C2 116.99(14)
N1 C7 C6 123.13(15)
C6 C7 C2 119.86(17)
C9 C8 N1 119.59(14)
C13 C8 N1 118.77(14)
C13 C8 C9 121.63(15)
C8 C9 H9 120.7
C10 C9 C8 118.61(15)
C10 C9 H9 120.7
C9 C10 H10 119.8
C11 C10 C9 120.44(15)
C11 C10 H10 119.8
C10 C11 H11 119.9
C10 C11 C12 120.23(16)
C12 C11 H11 119.9
C11 C12 H12 119.9
C11 C12 C13 120.17(16)
C13 C12 H12 119.9
C8 C13 C12 118.93(15)
C8 C13 H13 120.5
C12 C13 H13 120.5
F1 C14 C1 110.44(14)
F2 C14 F1 106.44(15)
F2 C14 C1 113.13(14)
F3 C14 F1 106.92(13)
F3 C14 F2 107.95(15)
F3 C14 C1 111.63(15)
loop_
_geom_bond_atom_site_label_1
_geom_bond_atom_site_label_2
_geom_bond_distance
F1 C14 1.3432(18)
F2 C14 1.334(2)
F3 C14 1.3282(19)
N1 N2 1.3695(18)
N1 C7 1.390(2)
N1 C8 1.440(2)
N2 C1 1.327(2)
N3 C1 1.318(2)
N3 C2 1.387(2)
C1 C14 1.523(2)
C2 C3 1.389(3)
C2 C7 1.420(2)
C3 H3 0.9500
C3 C4 1.381(2)
C4 H4 0.9500
C4 C5 1.396(2)
C5 H5 0.9500
C5 C6 1.376(3)
C6 H6 0.9500
C6 C7 1.401(2)
C8 C9 1.390(2)
C8 C13 1.385(2)
C9 H9 0.9500
C9 C10 1.388(2)
C10 H10 0.9500
C10 C11 1.385(2)
C11 H11 0.9500
C11 C12 1.386(2)
C12 H12 0.9500
C12 C13 1.389(2)
C13 H13 0.9500
loop_
_geom_torsion_atom_site_label_1
_geom_torsion_atom_site_label_2
_geom_torsion_atom_site_label_3
_geom_torsion_atom_site_label_4
_geom_torsion
N1 N2 C1 N3 0.1(3)
N1 N2 C1 C14 178.35(13)
N1 C8 C9 C10 180.00(17)
N1 C8 C13 C12 179.83(17)
N2 N1 C7 C2 6.8(2)
N2 N1 C7 C6 -171.86(15)
N2 N1 C8 C9 -125.55(17)
N2 N1 C8 C13 53.7(2)
N2 C1 C14 F1 -80.7(2)
N2 C1 C14 F2 38.50(19)
N2 C1 C14 F3 160.50(15)
N3 C1 C14 F1 97.82(17)
N3 C1 C14 F2 -142.99(15)
N3 C1 C14 F3 -21.0(2)
N3 C2 C3 C4 -177.18(15)
N3 C2 C7 N1 -2.1(2)
N3 C2 C7 C6 176.55(15)
C1 N3 C2 C3 175.69(14)
C1 N3 C2 C7 -2.8(2)
C2 N3 C1 N2 4.1(3)
C2 N3 C1 C14 -174.05(14)
C2 C3 C4 C5 -0.4(2)
C3 C2 C7 N1 179.36(14)
C3 C2 C7 C6 -2.0(2)
C3 C4 C5 C6 -0.1(3)
C4 C5 C6 C7 -0.6(3)
C5 C6 C7 N1 -179.84(15)
C5 C6 C7 C2 1.6(2)
C7 N1 N2 C1 -5.9(2)
C7 N1 C8 C9 59.4(2)
C7 N1 C8 C13 -121.33(18)
C7 C2 C3 C4 1.4(2)
C8 N1 N2 C1 179.03(14)
C8 N1 C7 C2 -178.57(14)
C8 N1 C7 C6 2.8(2)
C8 C9 C10 C11 -0.2(3)
C9 C8 C13 C12 -0.9(3)
C9 C10 C11 C12 -0.2(3)
C10 C11 C12 C13 0.0(3)
C11 C12 C13 C8 0.5(3)
C13 C8 C9 C10 0.7(3)
