#------------------------------------------------------------------------------
#$Date: 2016-02-13 14:50:18 +0200 (Sat, 13 Feb 2016) $
#$Revision: 176428 $
#$URL: svn://www.crystallography.net/cod/cif/4/12/36/4123690.cif $
#------------------------------------------------------------------------------
#
# This file is available in the Crystallography Open Database (COD),
# http://www.crystallography.net/
#
# All data on this site have been placed in the public domain by the
# contributors.
#
data_4123690
loop_
_publ_author_name
'Wang, Xueqiang'
'Liu, Yu'
'Martin, Ruben'
_publ_section_title
;
 Ni-Catalyzed Divergent Cyclization/Carboxylation of Unactivated Primary
 and Secondary Alkyl Halides with CO2.
;
_journal_issue                   20
_journal_name_full               'Journal of the American Chemical Society'
_journal_page_first              6476
_journal_page_last               6479
_journal_paper_doi               10.1021/jacs.5b03340
_journal_volume                  137
_journal_year                    2015
_chemical_formula_sum            'C17 H14 O2'
_chemical_formula_weight         250.28
_chemical_name_systematic
;
 ?
;
_space_group_IT_number           2
_space_group_name_Hall           '-P 1'
_symmetry_cell_setting           triclinic
_symmetry_space_group_name_Hall  '-P 1'
_symmetry_space_group_name_H-M   'P -1'
_atom_sites_solution_hydrogens   geom
_audit_creation_method           SHELXL-2014
_cell_angle_alpha                91.607(5)
_cell_angle_beta                 95.157(4)
_cell_angle_gamma                90.745(5)
_cell_formula_units_Z            2
_cell_length_a                   5.6858(12)
_cell_length_b                   7.8358(17)
_cell_length_c                   14.314(3)
_cell_measurement_reflns_used    3714
_cell_measurement_temperature    100(2)
_cell_measurement_theta_max      35.69
_cell_measurement_theta_min      2.86
_cell_volume                     634.8(2)
_computing_cell_refinement       'Bruker APEX2 v2011.4-0'
_computing_data_collection       'Bruker APEX2 v2011.4-0'
_computing_data_reduction        'Bruker SAINT V7.60A'
_computing_molecular_graphics    'Bruker SHELXTL'
_computing_publication_material  'Bruker SHELXTL'
_computing_structure_refinement  'SHELXL-2014 (Sheldrick, 2014)'
_computing_structure_solution    Sir2011
_diffrn_ambient_temperature      100(2)
_diffrn_detector_area_resol_mean 512
_diffrn_detector_type            '4K CCD area detector APEX II'
_diffrn_measured_fraction_theta_full 0.987
_diffrn_measured_fraction_theta_max 0.919
_diffrn_measurement_device_type  'APEX DUO Kappa 4-axis goniometer'
_diffrn_measurement_method
;
 Fullsphere data collection, phi and omega scans
;
_diffrn_measurement_specimen_support 'magnetic support with MicroMount'
_diffrn_radiation_monochromator  'Quazar MX Multilayer Optics'
_diffrn_radiation_type           MoK\a
_diffrn_radiation_wavelength     0.71073
_diffrn_reflns_av_R_equivalents  0.0248
_diffrn_reflns_av_unetI/netI     0.0394
_diffrn_reflns_Laue_measured_fraction_full 0.987
_diffrn_reflns_Laue_measured_fraction_max 0.919
_diffrn_reflns_limit_h_max       8
_diffrn_reflns_limit_h_min       -9
_diffrn_reflns_limit_k_max       12
_diffrn_reflns_limit_k_min       -6
_diffrn_reflns_limit_l_max       22
_diffrn_reflns_limit_l_min       -23
_diffrn_reflns_number            9944
_diffrn_reflns_point_group_measured_fraction_full 0.987
_diffrn_reflns_point_group_measured_fraction_max 0.919
_diffrn_reflns_theta_full        25.242
_diffrn_reflns_theta_max         35.771
_diffrn_reflns_theta_min         2.601
_diffrn_source                   'Microfocus source E025 IuS'
_diffrn_source_current           0.6
_diffrn_source_power             50
_diffrn_source_size              '0.2 mm x 0.2 mm fine focus'
_diffrn_source_type              'Bruker APEX DUO'
_exptl_absorpt_coefficient_mu    0.085
_exptl_absorpt_correction_T_max  0.997
_exptl_absorpt_correction_T_min  0.811
_exptl_absorpt_correction_type   empirical
_exptl_absorpt_process_details
; 
 SADABS Version 2008/1 Bruker-Nonius
 Blessing, Acta Cryst. (1995) A51 33-38
;
_exptl_crystal_colour            colourless
_exptl_crystal_density_diffrn    1.309
_exptl_crystal_description       plate
_exptl_crystal_F_000             264
_exptl_crystal_size_max          0.25
_exptl_crystal_size_mid          0.25
_exptl_crystal_size_min          0.03
_refine_diff_density_max         0.607
_refine_diff_density_min         -0.225
_refine_diff_density_rms         0.062
_refine_ls_extinction_method     none
_refine_ls_goodness_of_fit_ref   1.046
_refine_ls_hydrogen_treatment    mixed
_refine_ls_matrix_type           full
_refine_ls_number_parameters     174
_refine_ls_number_reflns         5433
_refine_ls_number_restraints     0
_refine_ls_restrained_S_all      1.046
_refine_ls_R_factor_all          0.0716
_refine_ls_R_factor_gt           0.0505
_refine_ls_shift/su_max          0.000
_refine_ls_shift/su_mean         0.000
_refine_ls_structure_factor_coef Fsqd
_refine_ls_weighting_details
'w=1/[\s^2^(Fo^2^)+(0.0801P)^2^+0.1151P] where P=(Fo^2^+2Fc^2^)/3'
_refine_ls_weighting_scheme      calc
_refine_ls_wR_factor_gt          0.1326
_refine_ls_wR_factor_ref         0.1468
_reflns_Friedel_coverage         0.000
_reflns_number_gt                4096
_reflns_number_total             5433
_reflns_threshold_expression     'I > 2\s(I)'
_cod_data_source_file            ja5b03340_si_001.cif
_cod_data_source_block           mo_JW4_109_0m
_cod_depositor_comments
;
The following automatic conversions were performed:

'_symmetry_cell_setting' value 'Triclinic' changed to 'triclinic'
according to
/usr/data/users/saulius/crontab/automatic-downloads/rss-feeds/ACS/lib/dictionaries/cif_core.dic
dictionary named 'cif_core.dic' version 2.4.2 from 2011-04-26.

Automatic conversion script
Id: cif_fix_values 3271 2015-04-21 07:52:19Z andrius 

 Adding full bibliography for 4123690--4123692.cif.
;
_cod_original_sg_symbol_H-M      P-1
_cod_database_code               4123690
#BEGIN Tags that were not found in dictionaries:
_shelx_space_group_comment
;
The symmetry employed for this shelxl refinement is uniquely defined
by the following loop, which should always be used as a source of
symmetry information in preference to the above space-group names.
They are only intended as comments.
;
_shelx_estimated_absorpt_t_min   0.979
_shelx_estimated_absorpt_t_max   0.997
_shelxl_version_number           2014-3
_shelx_res_file
;
TITL mo_JW4_109_0m in P-1
CELL 0.71073   5.68580   7.83580  14.31350  91.6073  95.1571  90.7452
ZERR    2.00   0.00120   0.00170   0.00300   0.0048   0.0043   0.0047
LATT  1
SFAC C H O
UNIT 34 28 4
LIST 4
TEMP -173.140
SIZE 0.03 0.25 0.25
ACTA
CONF
L.S. 12
BOND
FMAP 2
PLAN 20
WGHT    0.080100    0.115100
FVAR       0.26841
O1    3    0.862715    0.090929    0.394532    11.00000    0.02793    0.02332 =
         0.02116    0.00595   -0.01246   -0.01056
AFIX 148
H1    2    0.984608    0.105074    0.443415    11.00000   -1.50000
AFIX   0
O2    3    0.781379   -0.138940    0.476567    11.00000    0.03060    0.02674 =
         0.02126    0.00905   -0.01391   -0.00998
C1    1    0.414476   -0.232395    0.330908    11.00000    0.01450    0.01565 =
         0.01288    0.00159   -0.00155    0.00012
C2    1    0.393836   -0.350335    0.412595    11.00000    0.02449    0.02179 =
         0.01515    0.00639   -0.00223   -0.00454
AFIX  23
H2A   2    0.398564   -0.283650    0.472532    11.00000   -1.20000
H2B   2    0.524788   -0.432600    0.416668    11.00000   -1.20000
AFIX   0
C3    1    0.153894   -0.444833    0.392146    11.00000    0.02689    0.02201 =
         0.01747    0.00478    0.00194   -0.00631
AFIX  23
H3A   2    0.170048   -0.568429    0.403275    11.00000   -1.20000
H3B   2    0.035387   -0.397758    0.432048    11.00000   -1.20000
AFIX   0
C4    1    0.084693   -0.413828    0.290114    11.00000    0.01659    0.01553 =
         0.01738    0.00073    0.00226   -0.00194
C5    1   -0.104574   -0.486379    0.232917    11.00000    0.01681    0.01822 =
         0.02477    0.00029    0.00183   -0.00470
AFIX  43
H5    2   -0.212797   -0.562343    0.257877    11.00000   -1.20000
AFIX   0
C6    1   -0.131478   -0.445221    0.138703    11.00000    0.01625    0.01652 =
         0.02504   -0.00218   -0.00413   -0.00271
AFIX  43
H6    2   -0.262037   -0.490905    0.099393    11.00000   -1.20000
AFIX   0
C7    1    0.031415   -0.337392    0.101194    11.00000    0.01833    0.01533 =
         0.01684   -0.00099   -0.00386   -0.00085
AFIX  43
H7    2    0.015454   -0.315949    0.035951    11.00000   -1.20000
AFIX   0
C8    1    0.216652   -0.261106    0.158303    11.00000    0.01352    0.01454 =
         0.01466    0.00044   -0.00116   -0.00068
AFIX  43
H8    2    0.325689   -0.186604    0.132731    11.00000   -1.20000
AFIX   0
C9    1    0.239779   -0.296038    0.254341    11.00000    0.01223    0.01311 =
         0.01424    0.00018   -0.00007   -0.00009
C10   1    0.558237   -0.092678    0.329051    11.00000    0.01356    0.01554 =
         0.01271    0.00119   -0.00298   -0.00047
C11   1    0.545412    0.021314    0.247054    11.00000    0.01107    0.01232 =
         0.01327    0.00021   -0.00240   -0.00027
C12   1    0.355972    0.131697    0.230821    11.00000    0.01385    0.01712 =
         0.01785    0.00092   -0.00034    0.00331
AFIX  43
H12   2    0.243472    0.143777    0.275685    11.00000   -1.20000
AFIX   0
C13   1    0.332064    0.224367    0.148513    11.00000    0.01864    0.01708 =
         0.02268    0.00354   -0.00459    0.00393
AFIX  43
H13   2    0.204267    0.300407    0.137926    11.00000   -1.20000
AFIX   0
C14   1    0.494246    0.205664    0.082286    11.00000    0.02251    0.01753 =
         0.01718    0.00431   -0.00461   -0.00422
AFIX  43
H14   2    0.473403    0.264718    0.025139    11.00000   -1.20000
AFIX   0
C15   1    0.687685    0.100254    0.099611    11.00000    0.01737    0.02159 =
         0.01731    0.00129    0.00191   -0.00399
AFIX  43
H15   2    0.801230    0.089668    0.055072    11.00000   -1.20000
AFIX   0
C16   1    0.714256    0.010496    0.182289    11.00000    0.01168    0.01784 =
         0.01791    0.00103   -0.00057    0.00063
AFIX  43
H16   2    0.848654   -0.058818    0.194760    11.00000   -1.20000
AFIX   0
C17   1    0.740377   -0.050533    0.406865    11.00000    0.01835    0.01758 =
         0.01538    0.00170   -0.00500   -0.00204
HKLF 4
REM  mo_JW4_109_0m in P-1
REM R1 =  0.0505 for    4096 Fo > 4sig(Fo)  and  0.0716 for all    5433 data
REM    174 parameters refined using      0 restraints
END
WGHT      0.0801      0.1151
REM Highest difference peak  0.607,  deepest hole -0.225,  1-sigma level  0.062
Q1    1   0.4543  0.0796  0.2391  11.00000  0.05    0.61
Q2    1   0.5927  0.1587  0.0950  11.00000  0.05    0.55
Q3    1   0.1662 -0.3633  0.2710  11.00000  0.05    0.53
Q4    1   0.4297  0.1987  0.1214  11.00000  0.05    0.49
Q5    1   0.4873 -0.1619  0.3331  11.00000  0.05    0.49
Q6    1   0.3963 -0.2873  0.3734  11.00000  0.05    0.48
Q7    1   0.6336  0.0121  0.2170  11.00000  0.05    0.47
Q8    1   0.3455  0.1747  0.1911  11.00000  0.05    0.45
Q9    1  -0.1112 -0.4643  0.1893  11.00000  0.05    0.45
Q10   1   0.1336 -0.3026  0.1319  11.00000  0.05    0.45
Q11   1   0.6969  0.0543  0.1443  11.00000  0.05    0.44
Q12   1   0.0013 -0.4598  0.2658  11.00000  0.05    0.43
Q13   1   0.5441 -0.0264  0.2898  11.00000  0.05    0.41
Q14   1  -0.0231 -0.3979  0.1274  11.00000  0.05    0.41
Q15   1   0.2150 -0.2814  0.2020  11.00000  0.05    0.40
Q16   1   0.6414 -0.0678  0.3690  11.00000  0.05    0.37
Q17   1   0.2804 -0.3961  0.4044  11.00000  0.05    0.37
Q18   1   0.8251 -0.1124  0.4369  11.00000  0.05    0.35
Q19   1   0.7118 -0.0829  0.4525  11.00000  0.05    0.33
Q20   1   0.3106 -0.2568  0.2873  11.00000  0.05    0.31
;
_shelx_res_checksum              76009
_shelx_hkl_file
;
  -1   0   0    4.05    0.11
   1   0   0    4.01    0.11
  -2   0   0   25.54    0.56
  -2   0   0   25.10    0.56
   2   0   0   24.72    0.58
  -3   0   0   13.05    0.31
  -3   0   0   12.74    0.33
   3   0   0   13.00    0.35
  -4   0   0    0.10    0.05
   4   0   0    0.12    0.06
  -5   0   0    1.01    0.11
  -5   0   0    1.01    0.10
   5   0   0    0.96    0.12
  -6   0   0    1.25    0.13
  -6   0   0    1.53    0.15
   6   0   0    1.31    0.15
  -7   0   0    0.50    0.12
  -8   0   0    0.31    0.15
  -9   0   0    1.79    0.23
  -9   1   0    0.91    0.19
  -8   1   0    4.30    0.29
  -7   1   0    3.37    0.23
  -7   1   0    3.08    0.22
  -6   1   0    0.23    0.10
  -6   1   0    0.26    0.09
   5  -1   0    3.96    0.20
  -5   1   0    3.95    0.18
  -5   1   0    4.01    0.19
   4  -1   0   15.72    0.43
  -4   1   0   15.85    0.39
  -4   1   0   15.71    0.40
  -4   1   0   15.97    0.42
   3  -1   0    0.46    0.07
  -3   1   0    0.39    0.06
  -3   1   0    0.26    0.05
  -3   1   0    0.47    0.06
   2  -1   0   55.47    1.21
  -2   1   0   54.59    1.21
  -2   1   0   56.08    1.10
  -1   1   0  292.19    6.07
  -1   1   0  277.24    5.54
   0   1   0   47.29    1.00
   1   1   0   80.57    1.70
   2   1   0    7.15    0.20
  -3  -1   0   10.32    0.26
   3   1   0   10.53    0.30
  -4  -1   0    7.95    0.23
   4   1   0    7.79    0.27
  -5  -1   0    1.06    0.11
   5   1   0    1.22    0.13
  -6  -1   0    1.69    0.15
   6   1   0    1.71    0.17
  -7  -1   0    0.08    0.10
   7   1   0    0.09    0.11
  -8  -1   0   -0.02    0.13
  -9  -1   0    0.30    0.16
  -9   2   0    0.08    0.16
  -8   2   0    1.44    0.20
  -7   2   0    4.49    0.25
  -7   2   0    4.32    0.27
  -6   2   0    4.48    0.22
  -6   2   0    4.81    0.25
  -5   2   0    1.37    0.14
  -5   2   0    1.26    0.11
  -5   2   0    1.47    0.13
   4  -2   0    8.44    0.28
  -4   2   0    8.57    0.27
  -4   2   0    8.91    0.25
  -4   2   0    8.64    0.28
   3  -2   0    6.55    0.21
  -3   2   0    6.26    0.21
  -3   2   0    6.27    0.19
  -2   2   0    9.13    0.22
  -2   2   0    9.16    0.25
  -2   2   0    9.18    0.21
  -1   2   0  168.99    3.72
  -1   2   0  174.97    3.43
  -1   2   0  183.55    3.68
   0   2   0   11.99    0.28
   0   2   0   11.86    0.27
   0   2   0   12.14    0.24
   1   2   0    0.17    0.04
   1   2   0    0.18    0.03
   2   2   0    4.70    0.15
   3   2   0    6.24    0.21
   4   2   0    1.89    0.14
   5   2   0   38.46    0.95
   6   2   0   10.58    0.38
  -7  -2   0    8.22    0.32
   7   2   0    8.74    0.37
  -8  -2   0    0.31    0.15
  -9  -2   0    0.48    0.17
  -9   3   0    0.13    0.16
  -8   3   0    0.26    0.15
  -8   3   0    0.44    0.15
  -7   3   0    0.58    0.13
  -7   3   0    0.36    0.09
  -7   3   0    0.48    0.15
  -6   3   0    0.35    0.12
  -6   3   0    0.41    0.10
  -6   3   0    0.23    0.08
  -5   3   0   13.73    0.38
  -5   3   0   13.30    0.41
  -5   3   0   13.96    0.43
  -4   3   0    0.00    0.05
  -4   3   0    0.10    0.06
  -4   3   0    0.05    0.07
  -4   3   0    0.05    0.04
  -2   3   0    1.32    0.07
  -2   3   0    1.51    0.05
  -2   3   0    1.33    0.10
  -1   3   0    0.83    0.04
  -1   3   0    0.78    0.04
  -1   3   0    0.76    0.08
  -1   3   0    0.83    0.06
   0   3   0    4.21    0.12
   0   3   0    3.91    0.09
   0   3   0    3.92    0.13
   1   3   0    4.54    0.14
   1   3   0    4.46    0.12
   1   3   0    4.34    0.11
   2   3   0   13.95    0.34
   3   3   0   24.53    0.59
   4   3   0   42.81    1.01
   5   3   0    2.57    0.18
   6   3   0    9.93    0.37
   7   3   0    7.05    0.34
  -8  -3   0    0.06    0.13
   8   3   0    0.13    0.14
  -8   4   0    0.37    0.15
  -8   4   0    0.29    0.16
  -7   4   0    0.08    0.14
  -7   4   0   -0.07    0.11
  -6   4   0    1.06    0.16
  -6   4   0    1.09    0.14
  -6   4   0    0.79    0.12
  -6   4   0    1.03    0.09
  -5   4   0    0.11    0.08
  -5   4   0    0.19    0.05
  -5   4   0    0.23    0.08
  -5   4   0    0.12    0.10
  -4   4   0    1.08    0.12
  -4   4   0    0.88    0.07
  -4   4   0    1.34    0.11
  -4   4   0    1.23    0.13
  -3   4   0    1.69    0.07
  -3   4   0    1.70    0.10
  -3   4   0    1.81    0.14
  -2   4   0    0.80    0.09
  -2   4   0    1.02    0.05
  -2   4   0    1.03    0.08
  -2   4   0    0.97    0.06
  -1   4   0   41.00    0.94
  -1   4   0   41.13    0.91
  -1   4   0   42.57    0.89
  -1   4   0   42.25    0.82
   0   4   0    0.05    0.03
   0   4   0    0.09    0.04
   0   4   0    0.03    0.02
   1   4   0    2.90    0.08
   1   4   0    2.81    0.12
   1   4   0    2.67    0.09
   2   4   0    0.14    0.04
   3   4   0    1.73    0.11
   4   4   0    4.25    0.19
   5   4   0    4.42    0.22
   6   4   0    0.57    0.12
   7   4   0    0.83    0.15
  -8  -4   0    0.17    0.14
   8   4   0   -0.03    0.13
  -8   5   0    0.31    0.15
  -8   5   0    0.33    0.18
  -7   5   0   -0.06    0.15
  -7   5   0   -0.06    0.10
  -7   5   0    0.00    0.11
  -6   5   0   -0.01    0.10
  -6   5   0    0.00    0.09
  -6   5   0   -0.27    0.12
  -5   5   0    2.46    0.22
  -5   5   0    1.82    0.19
  -5   5   0    2.30    0.16
  -5   5   0    2.34    0.11
  -4   5   0    5.85    0.20
  -4   5   0    5.98    0.27
  -4   5   0    6.09    0.17
  -3   5   0    2.33    0.11
  -3   5   0    2.55    0.09
  -3   5   0    2.25    0.17
  -2   5   0    4.26    0.16
  -2   5   0    4.26    0.13
  -2   5   0    4.57    0.13
  -2   5   0    4.45    0.19
  -1   5   0   22.03    0.55
  -1   5   0   22.83    0.51
  -1   5   0   22.12    0.46
   0   5   0    6.94    0.16
   0   5   0    7.23    0.21
   0   5   0    6.96    0.21
   1   5   0    0.59    0.07
   1   5   0    0.54    0.05
   1   5   0    0.64    0.04
   2   5   0   11.58    0.30
   3   5   0    0.80    0.08
   4   5   0    2.66    0.16
   5   5   0    1.04    0.13
   6   5   0    1.18    0.15
   7   5   0    0.13    0.12
  -8  -5   0    2.53    0.23
   8   5   0    2.12    0.23
  -8   6   0    0.30    0.15
  -8   6   0    0.03    0.18
  -7   6   0   -0.09    0.11
  -7   6   0   -0.19    0.15
  -7   6   0    0.06    0.11
  -6   6   0    0.09    0.09
  -6   6   0    0.00    0.15
  -6   6   0    0.09    0.12
  -5   6   0    0.05    0.10
  -5   6   0    0.01    0.07
  -5   6   0   -0.01    0.11
  -4   6   0    5.44    0.19
  -4   6   0    5.70    0.28
  -4   6   0    5.35    0.28
  -3   6   0    3.07    0.11
  -3   6   0    3.42    0.20
  -3   6   0    3.23    0.13
  -2   6   0    2.50    0.09
  -2   6   0    2.53    0.10
  -2   6   0    2.38    0.12
  -2   6   0    2.49    0.17
  -1   6   0    0.06    0.02
  -1   6   0    0.04    0.04
  -1   6   0    0.06    0.06
   0   6   0    5.38    0.19
   0   6   0    5.25    0.13
   0   6   0    5.24    0.18
   1   6   0    0.33    0.05
   1   6   0    0.29    0.07
   1   6   0    0.23    0.03
   3   6   0   22.76    0.56
   4   6   0    0.56    0.09
   5   6   0    0.15    0.09
   6   6   0    0.06    0.10
   7   6   0    0.32    0.13
   8   6   0    0.04    0.14
  -7   7   0    2.60    0.26
  -7   7   0    3.34    0.31
  -7   7   0    3.13    0.24
  -6   7   0    0.10    0.17
  -6   7   0    0.16    0.10
  -6   7   0    0.11    0.14
  -5   7   0    0.16    0.12
  -5   7   0    0.27    0.09
  -5   7   0    0.39    0.15
  -4   7   0    1.36    0.11
  -4   7   0    1.19    0.17
  -4   7   0    1.17    0.17
  -3   7   0    1.88    0.17
  -3   7   0    1.75    0.10
  -2   7   0    0.46    0.10
  -2   7   0    0.41    0.05
  -2   7   0    0.33    0.06
  -1   7   0    6.95    0.26
  -1   7   0    7.19    0.17
  -1   7   0    6.93    0.22
   0   7   0    0.10    0.05
   0   7   0    0.10    0.03
   0   7   0    0.05    0.06
   1   7   0    0.11    0.04
   1   7   0    0.08    0.03
   1   7   0    0.10    0.06
   3   7   0    0.49    0.07
   4   7   0   -0.07    0.06
   5   7   0    1.95    0.17
   6   7   0    0.06    0.10
   7   7   0    0.28    0.13
  -7   8   0    0.57    0.13
  -7   8   0    0.60    0.23
  -7   8   0    0.41    0.17
  -6   8   0    1.26    0.20
  -6   8   0    1.15    0.13
  -6   8   0    1.45    0.25
  -5   8   0    0.15    0.14
  -5   8   0    0.42    0.17
  -5   8   0    0.32    0.09
  -4   8   0    0.26    0.13
  -4   8   0    0.28    0.07
  -4   8   0    0.40    0.14
  -3   8   0    1.16    0.09
  -3   8   0    1.16    0.16
  -2   8   0    0.66    0.06
  -2   8   0    0.54    0.12
  -1   8   0    2.58    0.14
  -1   8   0    2.55    0.17
  -1   8   0    2.65    0.10
   0   8   0    0.81    0.10
   0   8   0    0.67    0.06
   0   8   0    0.59    0.09
   1   8   0    2.75    0.11
   1   8   0    3.00    0.13
   1   8   0    3.00    0.17
   4   8   0    0.03    0.06
   5   8   0    4.50    0.22
   6   8   0    2.45    0.21
   7   8   0    0.42    0.13
  -6   9   0    3.05    0.20
  -6   9   0    2.85    0.28
  -6   9   0    3.43    0.34
  -5   9   0    2.91    0.29
  -5   9   0    2.33    0.16
  -5   9   0    2.09    0.25
  -4   9   0    0.50    0.16
  -4   9   0    0.42    0.16
  -4   9   0    0.42    0.07
  -3   9   0    0.03    0.12
  -3   9   0    0.02    0.05
  -2   9   0    8.24    0.33
  -2   9   0    8.23    0.22
  -1   9   0   -0.06    0.03
  -1   9   0   -0.01    0.08
   0   9   0   10.78    0.33
   0   9   0   10.32    0.25
   0   9   0   10.16    0.35
   1   9   0    5.80    0.21
   4   9   0    9.93    0.29
   5   9   0    1.07    0.12
   6   9   0    1.48    0.15
  -5  10   0   11.14    0.51
  -5  10   0    9.16    0.29
  -5  10   0    8.75    0.46
  -4  10   0    0.74    0.19
  -4  10   0    0.95    0.10
  -4  10   0    1.14    0.21
  -3  10   0    3.01    0.13
  -3  10   0    2.97    0.28
  -3  10   0    3.14    0.28
  -2  10   0    0.00    0.05
  -2  10   0    0.17    0.12
  -1  10   0   -0.02    0.09
   0  10   0    0.13    0.08
   5  10   0    0.33    0.08
  -4  11   0    0.14    0.17
  -4  11   0    0.23    0.18
  -3  11   0    0.21    0.17
  -3  11   0    0.15    0.15
  -2  11   0    0.23    0.16
  -2  11   0   -0.01    0.11
  -1  11   0   -0.08    0.13
  -1  11   0    0.02    0.10
   0  11   0    0.08    0.13
  -3  12   0    0.31    0.19
  -3  12   0    0.63    0.17
  -2  12   0    1.07    0.22
  -2  12   0    1.63    0.18
  -1  12   0    1.04    0.20
   0  12   0   -0.05    0.13
   0  12  -1    0.26    0.14
  -1  12  -1    0.87    0.15
  -1  12  -1    1.35    0.21
  -2  12  -1    0.18    0.13
  -2  12  -1    0.12    0.17
  -3  12  -1    0.08    0.14
  -3  12  -1   -0.13    0.16
   0  11  -1    4.38    0.30
  -1  11  -1    0.30    0.11
  -1  11  -1    0.16    0.14
  -2  11  -1    0.93    0.20
  -2  11  -1    1.09    0.16
  -3  11  -1    0.62    0.19
  -3  11  -1    0.90    0.19
  -4  11  -1    1.91    0.25
  -4  11  -1    1.25    0.23
   1  10  -1   12.60    0.43
   0  10  -1    5.24    0.30
   0  10  -1    5.16    0.22
  -1  10  -1    2.62    0.25
  -1  10  -1    1.95    0.11
  -1  10  -1    2.08    0.18
  -2  10  -1    7.26    0.21
  -2  10  -1    7.97    0.34
  -2  10  -1    7.84    0.39
  -3  10  -1    2.97    0.27
  -3  10  -1    2.48    0.26
  -3  10  -1    2.72    0.13
  -4  10  -1    0.08    0.16
  -4  10  -1    0.08    0.15
  -4  10  -1    0.05    0.07
  -5  10  -1    1.70    0.23
  -5  10  -1    2.13    0.28
  -5  10  -1    1.28    0.12
   6   9  -1    0.63    0.12
   5   9  -1    2.54    0.18
   4   9  -1    3.52    0.16
   1   9  -1    0.03    0.04
   1   9  -1   -0.04    0.07
   1   9  -1    0.02    0.05
   0   9  -1    2.44    0.15
   0   9  -1    2.51    0.11
   0   9  -1    2.25    0.16
  -1   9  -1    1.54    0.09
  -1   9  -1    1.74    0.16
  -2   9  -1    0.62    0.15
  -2   9  -1    0.80    0.07
  -2   9  -1    0.81    0.14
  -3   9  -1    2.25    0.22
  -3   9  -1    1.88    0.11
  -3   9  -1    1.96    0.22
  -4   9  -1    0.48    0.08
  -4   9  -1    0.32    0.15
  -4   9  -1    0.82    0.18
  -5   9  -1    0.92    0.19
  -5   9  -1    1.16    0.12
  -5   9  -1    1.09    0.22
  -6   9  -1    0.77    0.23
  -6   9  -1    0.63    0.11
  -6   9  -1    0.52    0.18
   7   8  -1    0.17    0.12
   6   8  -1    0.08    0.11
   5   8  -1    1.12    0.13
   4   8  -1    6.10    0.23
   1   8  -1    0.52    0.09
   1   8  -1    0.45    0.07
   1   8  -1    0.42    0.05
   0   8  -1    0.19    0.04
   0   8  -1    0.22    0.07
   0   8  -1    0.14    0.06
  -1   8  -1    7.99    0.29
  -1   8  -1    7.81    0.25
  -1   8  -1    8.10    0.20
  -2   8  -1    3.07    0.21
  -2   8  -1    2.99    0.12
  -3   8  -1    0.10    0.11
  -3   8  -1    0.07    0.11
  -3   8  -1    0.04    0.05
  -4   8  -1    0.56    0.14
  -4   8  -1    0.75    0.09
  -4   8  -1    0.83    0.16
  -5   8  -1    4.20    0.20
  -5   8  -1    4.29    0.33
  -5   8  -1    3.95    0.30
  -6   8  -1    1.62    0.22
  -6   8  -1    2.43    0.28
  -6   8  -1    2.44    0.19
  -7   8  -1    4.56    0.26
  -7   8  -1    4.54    0.41
  -7   8  -1    3.85    0.33
   7   7  -1    0.04    0.12
   6   7  -1    3.08    0.23
   5   7  -1    2.26    0.18
   4   7  -1    0.65    0.09
   3   7  -1    0.11    0.05
   2   7  -1   11.95    0.37
   1   7  -1    2.19    0.09
   1   7  -1    2.13    0.14
   1   7  -1    2.18    0.11
   0   7  -1    1.08    0.06
   0   7  -1    1.14    0.11
   0   7  -1    1.08    0.11
  -1   7  -1   11.69    0.26
  -1   7  -1   11.29    0.31
  -1   7  -1   11.22    0.35
  -2   7  -1    0.74    0.07
  -2   7  -1    0.62    0.11
  -2   7  -1    0.68    0.06
  -3   7  -1    0.74    0.13
  -3   7  -1    0.71    0.07
  -3   7  -1    0.45    0.11
  -4   7  -1    0.66    0.14
  -4   7  -1    0.54    0.08
  -4   7  -1    0.70    0.14
  -5   7  -1    0.36    0.14
  -5   7  -1    0.47    0.15
  -5   7  -1    0.47    0.10
  -6   7  -1    8.38    0.42
  -6   7  -1    8.21    0.40
  -6   7  -1    8.21    0.30
  -7   7  -1    3.47    0.30
  -7   7  -1    4.66    0.27
  -7   7  -1    4.94    0.39
   8   6  -1    3.66    0.30
   7   6  -1    1.85    0.21
   6   6  -1    0.86    0.15
   5   6  -1    7.10    0.29
   4   6  -1    0.74    0.10
   3   6  -1    7.57    0.24
   2   6  -1    8.04    0.27
   1   6  -1    0.14    0.04
   1   6  -1    0.13    0.06
   1   6  -1    0.12    0.03
   0   6  -1   12.53    0.34
   0   6  -1   12.58    0.28
   0   6  -1   12.78    0.34
  -1   6  -1    9.98    0.23
  -1   6  -1    9.60    0.30
  -1   6  -1   10.33    0.27
  -2   6  -1    0.09    0.03
  -2   6  -1    0.04    0.07
  -2   6  -1    0.07    0.04
  -2   6  -1    0.11    0.04
  -3   6  -1    5.12    0.16
  -3   6  -1    5.27    0.17
  -3   6  -1    5.30    0.25
  -4   6  -1    1.29    0.12
  -4   6  -1    1.45    0.17
  -4   6  -1    1.40    0.16
  -4   6  -1    1.32    0.08
  -5   6  -1    0.13    0.12
  -5   6  -1   -0.11    0.09
  -5   6  -1   -0.02    0.07
  -6   6  -1    0.09    0.15
  -6   6  -1    0.05    0.11
  -6   6  -1    0.10    0.10
  -7   6  -1    1.06    0.17
  -7   6  -1    1.22    0.17
  -7   6  -1    1.43    0.23
  -8   6  -1    1.64    0.25
  -8   6  -1    1.28    0.19
   8   5  -1    0.24    0.15
   7   5  -1    0.47    0.14
   6   5  -1    0.04    0.10
   5   5  -1    1.12    0.13
   4   5  -1    5.82    0.23
   3   5  -1    2.72    0.14
   2   5  -1    0.52    0.06
   2   5  -1    0.44    0.07
   1   5  -1    9.27    0.24
   1   5  -1    9.41    0.21
   1   5  -1    9.50    0.27
   0   5  -1    0.87    0.08
   0   5  -1    0.84    0.08
   0   5  -1    0.91    0.05
  -1   5  -1    1.75    0.08
  -1   5  -1    1.76    0.11
  -1   5  -1    1.74    0.07
  -2   5  -1    6.76    0.21
  -2   5  -1    7.11    0.18
  -2   5  -1    6.99    0.25
  -2   5  -1    7.42    0.19
  -3   5  -1    5.73    0.18
  -3   5  -1    6.15    0.25
  -3   5  -1    5.95    0.16
  -4   5  -1    0.60    0.06
  -4   5  -1    0.44    0.10
  -4   5  -1    0.31    0.10
  -4   5  -1    0.45    0.07
  -5   5  -1    0.24    0.10
  -5   5  -1    0.14    0.11
  -5   5  -1    0.34    0.06
  -5   5  -1    0.26    0.08
  -6   5  -1    3.25    0.21
  -6   5  -1    3.14    0.22
  -6   5  -1    3.11    0.27
  -7   5  -1    1.53    0.17
  -7   5  -1    1.24    0.21
  -8   5  -1    0.30    0.18
  -8   5  -1    0.12    0.14
   8   4  -1    0.11    0.14
  -8  -4   1    0.40    0.14
   7   4  -1    1.93    0.20
   6   4  -1    0.04    0.09
   5   4  -1    0.48    0.10
   4   4  -1   16.17    0.45
   3   4  -1   36.43    0.84
   2   4  -1    0.61    0.06
   2   4  -1    0.68    0.08
   1   4  -1   29.95    0.69
   1   4  -1   30.69    0.61
   1   4  -1   29.97    0.67
   0   4  -1   40.29    0.85
   0   4  -1   37.53    0.86
   0   4  -1   38.52    0.76
  -1   4  -1    0.12    0.02
  -1   4  -1    0.15    0.05
  -1   4  -1    0.13    0.03
  -2   4  -1    0.04    0.03
  -2   4  -1    0.09    0.05
  -2   4  -1    0.07    0.04
  -2   4  -1    0.05    0.02
  -3   4  -1    4.82    0.14
  -3   4  -1    4.81    0.16
  -3   4  -1    4.62    0.20
  -3   4  -1    4.74    0.21
  -4   4  -1    2.48    0.13
  -4   4  -1    2.21    0.10
  -4   4  -1    2.28    0.16
  -4   4  -1    2.20    0.17
  -5   4  -1    3.89    0.23
  -5   4  -1    3.67    0.14
  -5   4  -1    3.73    0.18
  -5   4  -1    3.74    0.21
  -6   4  -1   -0.01    0.09
  -6   4  -1   -0.03    0.05
  -6   4  -1    0.07    0.12
  -6   4  -1   -0.04    0.08
  -7   4  -1    0.15    0.14
  -7   4  -1    0.10    0.08
  -7   4  -1    0.16    0.12
  -8   4  -1    0.56    0.17
  -8   4  -1    0.45    0.16
  -9  -3   1   -0.04    0.15
   8   3  -1    0.31    0.15
  -8  -3   1    0.65    0.16
   7   3  -1    0.35    0.12
   6   3  -1    0.68    0.12
   5   3  -1   27.24    0.71
   4   3  -1    7.93    0.27
   3   3  -1    2.30    0.12
   2   3  -1   31.69    0.72
   2   3  -1   31.55    0.71
   1   3  -1   15.09    0.31
   1   3  -1   14.57    0.34
   1   3  -1   15.20    0.36
   0   3  -1    0.80    0.06
   0   3  -1    0.82    0.04
   0   3  -1    0.82    0.06
  -1   3  -1    2.82    0.08
  -1   3  -1    2.72    0.12
  -1   3  -1    2.72    0.08
  -1   3  -1    2.63    0.09
  -2   3  -1   10.26    0.23
  -2   3  -1    9.87    0.28
  -2   3  -1    9.98    0.24
  -3   3  -1    2.02    0.08
  -3   3  -1    1.89    0.13
  -3   3  -1    2.01    0.13
  -3   3  -1    1.84    0.10
  -4   3  -1    2.94    0.14
  -4   3  -1    3.15    0.12
  -4   3  -1    2.92    0.17
  -4   3  -1    2.88    0.16
  -5   3  -1    0.90    0.08
  -5   3  -1    0.77    0.12
  -5   3  -1    0.94    0.10
  -5   3  -1    0.73    0.10
  -6   3  -1    1.40    0.11
  -6   3  -1    1.24    0.14
  -6   3  -1    1.49    0.17
  -7   3  -1    0.54    0.15
  -7   3  -1    0.37    0.12
  -7   3  -1    0.50    0.10
  -8   3  -1   -0.07    0.14
  -8   3  -1    0.18    0.10
  -9   3  -1    0.65    0.18
  -9  -2   1    0.67    0.18
  -8  -2   1    0.58    0.16
   7   2  -1   -0.10    0.09
   6   2  -1    1.27    0.15
   5   2  -1    4.76    0.23
   4   2  -1   14.06    0.40
   3   2  -1    0.02    0.05
   2   2  -1    0.70    0.06
   1   2  -1   15.39    0.31
   1   2  -1   15.40    0.34
   1   2  -1   15.33    0.36
   0   2  -1   58.52    1.27
   0   2  -1   60.27    1.25
   0   2  -1   59.86    1.16
  -1   2  -1   84.23    1.83
  -1   2  -1   85.73    1.65
  -1   2  -1   85.92    1.80
  -2   2  -1    3.23    0.11
  -2   2  -1    3.18    0.13
  -2   2  -1    3.06    0.13
  -2   2  -1    3.32    0.10
  -3   2  -1   23.48    0.56
  -3   2  -1   22.45    0.56
  -3   2  -1   22.69    0.50
   3  -2   1   22.61    0.55
  -4   2  -1   11.15    0.30
  -4   2  -1   11.14    0.34
  -4   2  -1   11.71    0.33
   4  -2   1   11.10    0.33
  -5   2  -1    0.23    0.09
  -5   2  -1    0.18    0.06
  -5   2  -1    0.23    0.08
  -6   2  -1    1.44    0.14
  -6   2  -1    1.39    0.15
  -7   2  -1    0.03    0.11
  -7   2  -1    0.20    0.12
  -8   2  -1    0.14    0.13
  -9   2  -1    0.42    0.17
  -9  -1   1    0.40    0.16
  -8  -1   1    3.01    0.26
   7   1  -1    1.11    0.16
  -7  -1   1    1.24    0.15
   6   1  -1   36.04    0.93
   5   1  -1   14.85    0.45
  -5  -1   1   14.69    0.40
   4   1  -1    0.77    0.10
  -4  -1   1    0.83    0.08
   3   1  -1   -0.02    0.05
  -3  -1   1    0.04    0.03
   2   1  -1   11.39    0.29
   1   1  -1  194.86    4.06
   1   1  -1  190.82    4.04
   0   1  -1   95.76    2.14
   0   1  -1  100.43    2.12
   0   1  -1  101.12    1.95
   0   1  -1  103.76    2.10
  -1   1  -1    3.44    0.09
  -1   1  -1    3.49    0.11
  -1   1  -1    3.62    0.11
  -1   1  -1    3.43    0.09
  -2   1  -1    3.72    0.13
  -2   1  -1    3.84    0.13
  -2   1  -1    3.77    0.12
   2  -1   1    3.98    0.13
  -3   1  -1   72.05    1.56
  -3   1  -1   71.85    1.57
  -3   1  -1   70.94    1.43
   3  -1   1   70.50    1.56
  -4   1  -1   13.14    0.36
  -4   1  -1   12.73    0.33
   4  -1   1   12.97    0.37
  -5   1  -1    5.80    0.22
  -5   1  -1    5.09    0.21
   5  -1   1    5.41    0.23
  -6   1  -1    2.21    0.17
  -6   1  -1    2.51    0.18
  -7   1  -1    0.12    0.11
  -8   1  -1    0.17    0.14
  -9   1  -1    0.99    0.20
  -9   0   1    0.23    0.15
  -8   0   1    0.83    0.16
  -7   0   1    1.63    0.16
   6   0  -1   47.56    1.17
  -6   0   1   45.21    1.04
  -6   0   1   49.55    1.12
   5   0  -1    8.79    0.31
  -5   0   1    8.65    0.28
   4   0  -1    5.98    0.22
  -4   0   1    5.77    0.17
  -4   0   1    5.90    0.20
   3   0  -1   12.76    0.35
  -3   0   1   13.37    0.32
  -3   0   1   13.32    0.34
   2   0  -1    1.28    0.08
  -2   0   1    1.14    0.07
   1   0  -1    0.89    0.06
  -1   0  -1    7.50    0.17
  -1   0  -1    7.14    0.16
   1   0   1    7.34    0.18
  -2   0  -1   31.29    0.69
   2   0   1   31.38    0.71
  -3   0  -1   19.85    0.46
   3   0   1   19.17    0.48
  -4   0  -1    1.52    0.11
  -4   0  -1    1.69    0.11
   4   0   1    1.38    0.12
  -5   0  -1    3.79    0.17
  -5   0  -1    3.27    0.17
   5   0   1    3.49    0.19
  -6   0  -1    5.36    0.24
  -6   0  -1    5.75    0.23
   6   0   1    5.70    0.27
  -7   0  -1   -0.07    0.09
  -8   0  -1    0.01    0.14
  -9   0  -1    0.14    0.16
  -9   1   1   -0.02    0.15
  -8   1   1    0.74    0.16
  -7   1   1    2.08    0.18
  -7   1   1    2.06    0.19
  -6   1   1    2.23    0.17
  -6   1   1    2.40    0.18
   5  -1  -1    9.19    0.32
  -5   1   1    9.44    0.27
  -5   1   1    8.68    0.28
  -5   1   1    9.34    0.31
   4  -1  -1    1.43    0.12
  -4   1   1    1.72    0.12
  -4   1   1    1.71    0.10
   3  -1  -1   22.72    0.55
  -3   1   1   21.92    0.54
   2  -1  -1   -0.09    0.04
  -2   1   1   -0.08    0.03
  -1   1   1   82.29    1.76
   0   1   1   14.75    0.35
   0   1   1   16.66    0.34
   1   1   1   37.51    0.81
   2   1   1    4.82    0.15
   3   1   1   17.93    0.45
   4   1   1    0.10    0.06
   5   1   1   39.93    0.97
  -6  -1  -1    6.29    0.25
   6   1   1    5.98    0.28
  -7  -1  -1    2.44    0.21
  -8  -1  -1    0.03    0.13
  -9  -1  -1    0.21    0.17
  -9   2   1    0.32    0.17
  -8   2   1    0.22    0.14
  -7   2   1    5.96    0.31
  -7   2   1    5.96    0.28
  -6   2   1   -0.03    0.06
  -6   2   1   -0.06    0.09
  -6   2   1   -0.07    0.07
  -5   2   1    0.96    0.12
  -5   2   1    0.90    0.09
  -5   2   1    0.82    0.10
   4  -2  -1    6.21    0.23
  -4   2   1    6.38    0.24
  -4   2   1    6.66    0.23
  -4   2   1    6.29    0.21
   3  -2  -1    2.71    0.13
  -3   2   1    2.57    0.11
  -3   2   1    2.82    0.14
  -2   2   1   16.31    0.36
  -2   2   1   16.22    0.41
  -1   2   1  583.76   12.24
  -1   2   1  565.74   11.10
   0   2   1  301.86    6.38
   0   2   1  332.82    6.84
   0   2   1  332.20    6.70
   1   2   1  237.40    5.00
   2   2   1   21.64    0.51
   3   2   1    0.63    0.07
   4   2   1    1.45    0.12
   5   2   1   17.40    0.50
   6   2   1   11.75    0.41
  -7  -2  -1    0.22    0.11
   7   2   1    0.04    0.10
  -8  -2  -1    2.94    0.26
  -9  -2  -1    0.36    0.16
  -9   3   1    0.27    0.16
  -8   3   1    0.64    0.16
  -8   3   1    0.62    0.17
  -7   3   1    1.62    0.18
  -7   3   1    1.69    0.20
  -6   3   1    1.68    0.15
  -6   3   1    1.41    0.14
  -6   3   1    1.66    0.18
  -5   3   1    4.20    0.20
  -5   3   1    3.74    0.22
  -5   3   1    4.19    0.19
  -4   3   1    0.11    0.05
  -4   3   1    0.12    0.08
  -3   3   1    0.93    0.08
  -3   3   1    1.08    0.05
  -3   3   1    1.11    0.11
  -2   3   1  169.23    3.30
  -2   3   1  172.80    3.57
  -2   3   1  169.74    3.65
  -1   3   1   26.08    0.53
  -1   3   1   26.44    0.59
  -1   3   1   27.57    0.56
  -1   3   1   25.60    0.61
   0   3   1    0.92    0.03
   0   3   1    0.86    0.05
   0   3   1    0.87    0.06
   1   3   1   57.42    1.22
   2   3   1   77.46    1.67
   3   3   1   17.29    0.44
   4   3   1    1.43    0.13
   5   3   1    1.76    0.15
   6   3   1    0.96    0.14
  -7  -3  -1    5.01    0.27
   7   3   1    5.16    0.29
  -8  -3  -1    0.71    0.16
   8   3   1    0.78    0.17
  -8   4   1    0.18    0.16
  -8   4   1    0.28    0.14
  -7   4   1    2.70    0.22
  -7   4   1    2.65    0.21
  -7   4   1    2.77    0.27
  -6   4   1    1.49    0.15
  -6   4   1    1.01    0.14
  -6   4   1    1.30    0.17
  -6   4   1    1.30    0.11
  -5   4   1    1.16    0.13
  -5   4   1    1.13    0.08
  -5   4   1    1.08    0.15
  -5   4   1    1.10    0.12
  -4   4   1   -0.02    0.05
  -4   4   1    0.09    0.08
  -4   4   1    0.03    0.03
  -3   4   1    5.01    0.21
  -3   4   1    5.24    0.13
  -3   4   1    5.09    0.16
  -2   4   1    9.48    0.23
  -2   4   1    9.28    0.29
  -2   4   1    9.57    0.22
  -2   4   1    9.48    0.26
  -1   4   1   28.89    0.63
  -1   4   1   28.39    0.56
  -1   4   1   28.65    0.61
  -1   4   1   26.97    0.66
   0   4   1   21.24    0.43
   0   4   1   21.59    0.49
   0   4   1   21.85    0.51
   1   4   1    1.43    0.06
   1   4   1    1.34    0.09
   1   4   1    1.38    0.05
   2   4   1    5.89    0.18
   3   4   1    1.37    0.10
   4   4   1   41.10    0.97
   5   4   1    6.77    0.27
   6   4   1    4.72    0.26
  -7  -4  -1    1.88    0.18
   7   4   1    2.07    0.21
  -8  -4  -1    1.30    0.18
   8   4   1    0.65    0.17
  -8   5   1    0.97    0.17
  -8   5   1    1.28    0.23
  -7   5   1    0.11    0.16
  -7   5   1    0.15    0.11
  -7   5   1    0.11    0.12
  -6   5   1    2.06    0.18
  -6   5   1    1.90    0.21
  -6   5   1    1.94    0.19
  -5   5   1    4.09    0.25
  -5   5   1    3.99    0.19
  -5   5   1    3.72    0.23
  -4   5   1    0.39    0.10
  -4   5   1    0.30    0.07
  -4   5   1    0.41    0.04
  -3   5   1    2.42    0.11
  -3   5   1    2.67    0.09
  -3   5   1    2.31    0.17
  -2   5   1    6.26    0.24
  -2   5   1    6.39    0.17
  -2   5   1    6.59    0.20
  -2   5   1    6.40    0.17
  -1   5   1    3.25    0.09
  -1   5   1    3.24    0.11
  -1   5   1    2.97    0.15
   0   5   1   20.25    0.47
   0   5   1   20.51    0.41
   0   5   1   19.56    0.49
   1   5   1    4.87    0.17
   1   5   1    4.67    0.12
   1   5   1    4.86    0.14
   2   5   1   31.16    0.70
   3   5   1   56.26    1.26
   4   5   1    2.51    0.15
   5   5   1    2.78    0.19
   6   5   1    0.43    0.12
   7   5   1    0.33    0.13
   8   5   1    1.26    0.20
  -8   6   1    0.43    0.14
  -8   6   1    0.09    0.19
  -7   6   1    1.98    0.26
  -7   6   1    1.79    0.21
  -7   6   1    2.03    0.19
  -6   6   1    0.64    0.14
  -6   6   1    0.71    0.12
  -6   6   1    0.72    0.18
  -5   6   1    0.21    0.12
  -5   6   1    0.10    0.07
  -5   6   1   -0.04    0.10
  -4   6   1    2.38    0.13
  -4   6   1    2.17    0.20
  -3   6   1    2.82    0.12
  -3   6   1    2.80    0.19
  -2   6   1    0.14    0.04
  -2   6   1   -0.01    0.07
  -2   6   1    0.09    0.04
  -1   6   1   -0.04    0.04
  -1   6   1    0.03    0.02
  -1   6   1   -0.04    0.05
   0   6   1    0.78    0.08
   0   6   1    0.78    0.08
   0   6   1    0.85    0.05
   1   6   1    2.81    0.14
   1   6   1    3.02    0.11
   1   6   1    2.85    0.09
   2   6   1   17.43    0.41
   3   6   1    4.78    0.18
   4   6   1    0.16    0.07
   5   6   1    0.43    0.10
   6   6   1    1.70    0.17
   7   6   1   -0.01    0.12
   8   6   1    0.01    0.13
  -7   7   1   -0.18    0.12
  -7   7   1   -0.11    0.18
  -7   7   1   -0.05    0.11
  -6   7   1    0.19    0.10
  -6   7   1    0.11    0.13
  -6   7   1    0.41    0.18
  -5   7   1    0.43    0.15
  -5   7   1    0.19    0.13
  -5   7   1    0.40    0.09
  -4   7   1    5.58    0.30
  -4   7   1    5.99    0.20
  -3   7   1    0.37    0.11
  -3   7   1    0.40    0.06
  -2   7   1    0.12    0.09
  -2   7   1    0.01    0.03
  -1   7   1    8.22    0.28
  -1   7   1    7.90    0.19
  -1   7   1    7.95    0.23
   0   7   1    0.01    0.02
   0   7   1    0.01    0.05
   0   7   1    0.06    0.05
   1   7   1    0.03    0.04
   1   7   1    0.01    0.03
   3   7   1    2.64    0.13
   4   7   1    4.06    0.19
   5   7   1    0.00    0.08
   6   7   1   -0.09    0.10
   7   7   1    3.94    0.27
  -7   8   1    0.29    0.16
  -7   8   1    0.42    0.12
  -7   8   1    0.56    0.22
  -6   8   1    1.60    0.21
  -6   8   1    1.28    0.24
  -6   8   1    1.70    0.15
  -5   8   1    2.81    0.27
  -5   8   1    2.77    0.27
  -5   8   1    2.47    0.16
  -4   8   1    1.10    0.18
  -4   8   1    1.17    0.10
  -3   8   1    1.15    0.16
  -3   8   1    1.17    0.09
  -2   8   1   19.88    0.56
  -2   8   1   18.35    0.41
  -1   8   1   -0.06    0.07
  -1   8   1    0.05    0.03
   0   8   1    0.00    0.05
   0   8   1    0.03    0.03
   0   8   1   -0.04    0.05
   1   8   1    9.34    0.26
   1   8   1    9.00    0.23
   3   8   1    0.13    0.05
   4   8   1    0.05    0.06
   5   8   1    1.67    0.15
   6   8   1    0.37    0.12
   7   8   1    2.74    0.23
  -6   9   1    1.89    0.16
  -6   9   1    1.81    0.24
  -6   9   1    3.01    0.32
  -5   9   1    2.29    0.16
  -5   9   1    3.39    0.33
  -5   9   1    2.15    0.25
  -4   9   1    1.00    0.19
  -4   9   1    1.29    0.20
  -4   9   1    1.14    0.10
  -3   9   1    4.82    0.30
  -3   9   1    5.10    0.16
  -2   9   1    5.41    0.16
  -2   9   1    5.29    0.28
  -1   9   1    0.00    0.03
  -1   9   1    0.13    0.09
   0   9   1    0.14    0.07
   4   9   1    0.04    0.06
   5   9   1    0.00    0.07
   6   9   1    0.02    0.09
  -5  10   1   -0.28    0.18
  -5  10   1    0.11    0.15
  -5  10   1    0.26    0.08
  -4  10   1   -0.03    0.16
  -4  10   1    0.02    0.14
  -4  10   1    0.04    0.06
  -3  10   1    0.41    0.15
  -2  10   1    0.10    0.11
  -1  10   1    0.18    0.10
   0  10   1    0.21    0.08
   5  10   1   -0.02    0.07
  -4  11   1   -0.02    0.16
  -4  11   1    0.38    0.19
  -3  11   1    2.59    0.25
  -3  11   1    2.00    0.26
  -2  11   1    0.14    0.12
  -1  11   1    0.15    0.10
  -3  12   1    1.11    0.23
  -3  12   1    1.16    0.20
  -2  12   1    0.41    0.14
  -2  12   1    0.57    0.19
  -1  12   1    0.17    0.15
   0  12   1    0.07    0.14
   0  12  -2    0.86    0.17
  -1  12  -2    0.30    0.12
  -1  12  -2    0.37    0.16
  -2  12  -2    0.78    0.20
  -2  12  -2    1.32    0.18
  -3  12  -2   -0.11    0.16
  -3  12  -2    0.24    0.16
   0  11  -2    1.73    0.16
   0  11  -2    1.78    0.20
  -1  11  -2    1.64    0.21
  -1  11  -2    2.02    0.18
  -2  11  -2    0.09    0.15
  -2  11  -2    0.18    0.12
  -3  11  -2    0.28    0.17
  -3  11  -2    0.22    0.16
  -3  11  -2    0.15    0.07
  -4  11  -2    0.14    0.18
  -4  11  -2   -0.27    0.15
  -4  11  -2    0.02    0.08
   1  10  -2    2.99    0.20
   1  10  -2    2.60    0.21
   0  10  -2    0.02    0.08
   0  10  -2    0.14    0.12
   0  10  -2    0.05    0.05
  -1  10  -2    0.11    0.05
  -1  10  -2    0.08    0.09
  -1  10  -2    0.15    0.13
  -2  10  -2    0.03    0.05
  -2  10  -2    0.03    0.13
  -2  10  -2    0.13    0.12
  -3  10  -2    0.59    0.08
  -3  10  -2    0.48    0.16
  -3  10  -2    0.49    0.17
  -4  10  -2   -0.09    0.14
  -4  10  -2    0.17    0.16
  -4  10  -2   -0.10    0.07
  -5  10  -2    2.51    0.28
  -5  10  -2    2.99    0.18
  -5  10  -2    3.10    0.31
   6   9  -2    0.93    0.14
   5   9  -2    0.00    0.08
   2   9  -2    0.05    0.09
   1   9  -2    0.18    0.05
   1   9  -2    0.20    0.06
   1   9  -2    0.19    0.08
   1   9  -2    0.22    0.10
   0   9  -2    0.06    0.04
   0   9  -2    0.06    0.10
   0   9  -2    0.05    0.07
   0   9  -2   -0.04    0.07
  -1   9  -2    6.29    0.32
  -1   9  -2    6.97    0.27
  -1   9  -2    6.49    0.19
  -1   9  -2    6.55    0.25
  -2   9  -2    0.84    0.14
  -2   9  -2    0.76    0.07
  -2   9  -2    0.66    0.15
  -3   9  -2    1.08    0.18
  -3   9  -2    1.35    0.18
  -3   9  -2    1.04    0.09
  -4   9  -2    7.58    0.39
  -4   9  -2    7.99    0.25
  -4   9  -2    7.88    0.39
  -5   9  -2    1.37    0.12
  -5   9  -2    1.54    0.24
  -5   9  -2    1.28    0.21
  -6   9  -2    2.43    0.30
  -6   9  -2    2.04    0.25
  -6   9  -2    2.34    0.19
   7   8  -2    0.25    0.13
   6   8  -2    0.03    0.11
   5   8  -2    6.29    0.27
   4   8  -2   -0.01    0.07
   2   8  -2    0.10    0.08
   2   8  -2    0.17    0.07
   1   8  -2    3.57    0.19
   1   8  -2    3.57    0.13
   1   8  -2    3.81    0.15
   1   8  -2    3.61    0.20
   0   8  -2    4.26    0.13
   0   8  -2    4.22    0.18
   0   8  -2    3.87    0.22
   0   8  -2    4.13    0.19
  -1   8  -2   40.33    1.03
  -1   8  -2   40.13    0.82
  -1   8  -2   40.29    0.97
  -1   8  -2   40.50    0.93
  -2   8  -2    2.75    0.11
  -2   8  -2    2.65    0.20
  -2   8  -2    2.70    0.14
  -2   8  -2    2.78    0.23
  -3   8  -2    0.18    0.06
  -3   8  -2    0.57    0.14
  -3   8  -2    0.08    0.11
  -4   8  -2    1.67    0.20
  -4   8  -2    1.61    0.20
  -4   8  -2    1.57    0.12
  -5   8  -2    6.00    0.35
  -5   8  -2    5.77    0.36
  -5   8  -2    6.06    0.23
  -6   8  -2    3.29    0.31
  -6   8  -2    3.18    0.21
  -6   8  -2    2.98    0.29
  -7   8  -2    0.12    0.21
  -7   8  -2    0.11    0.12
   7   7  -2    1.78    0.20
   6   7  -2    6.12    0.30
   5   7  -2    0.55    0.11
   4   7  -2    0.36    0.08
   3   7  -2    4.88    0.18
   2   7  -2    2.47    0.14
   2   7  -2    2.28    0.16
   1   7  -2    0.47    0.08
   1   7  -2    0.53    0.05
   1   7  -2    0.59    0.07
   0   7  -2    5.73    0.21
   0   7  -2    5.58    0.15
   0   7  -2    5.46    0.20
  -1   7  -2   10.43    0.30
  -1   7  -2   10.76    0.25
  -1   7  -2   10.31    0.33
  -2   7  -2    2.72    0.13
  -2   7  -2    2.72    0.21
  -2   7  -2    2.49    0.18
  -2   7  -2    2.72    0.11
  -3   7  -2    6.37    0.29
  -3   7  -2    6.47    0.20
  -3   7  -2    6.50    0.19
  -3   7  -2    6.11    0.30
  -4   7  -2    0.80    0.09
  -4   7  -2    0.60    0.14
  -4   7  -2    0.68    0.14
  -5   7  -2    0.73    0.16
  -5   7  -2    0.77    0.11
  -5   7  -2    1.08    0.18
  -6   7  -2    4.51    0.35
  -6   7  -2    4.57    0.31
  -6   7  -2    4.81    0.24
  -7   7  -2    1.99    0.18
  -7   7  -2    2.10    0.28
   8   6  -2    0.49    0.17
   7   6  -2    0.37    0.14
   6   6  -2    0.70    0.14
   5   6  -2    1.72    0.17
   4   6  -2    0.53    0.09
   3   6  -2    4.37    0.17
   2   6  -2    5.51    0.19
   2   6  -2    5.16    0.22
   1   6  -2    3.75    0.17
   1   6  -2    3.83    0.14
   1   6  -2    3.89    0.12
   0   6  -2    9.61    0.22
   0   6  -2    9.58    0.27
   0   6  -2    9.23    0.27
  -1   6  -2    0.40    0.04
  -1   6  -2    0.48    0.08
  -1   6  -2    0.44    0.06
  -2   6  -2    2.11    0.17
  -2   6  -2    1.92    0.15
  -2   6  -2    2.04    0.10
  -2   6  -2    1.88    0.11
  -2   6  -2    2.10    0.09
  -3   6  -2    1.46    0.14
  -3   6  -2    1.39    0.15
  -3   6  -2    1.54    0.10
  -3   6  -2    1.45    0.09
  -4   6  -2    0.58    0.08
  -4   6  -2    0.34    0.11
  -4   6  -2    0.36    0.06
  -4   6  -2    0.27    0.11
  -5   6  -2    0.05    0.12
  -5   6  -2   -0.10    0.10
  -5   6  -2    0.01    0.07
  -6   6  -2    5.20    0.31
  -6   6  -2    5.56    0.35
  -6   6  -2    5.64    0.25
  -7   6  -2   -0.06    0.11
  -7   6  -2    0.08    0.17
  -8   6  -2   -0.05    0.18
  -8   6  -2    0.11    0.14
   8   5  -2   -0.05    0.13
   7   5  -2    0.38    0.14
   6   5  -2    0.05    0.10
   5   5  -2    3.33    0.20
   4   5  -2    6.93    0.26
   3   5  -2    3.24    0.15
   2   5  -2    1.26    0.08
   2   5  -2    1.17    0.11
   1   5  -2   10.90    0.30
   1   5  -2   10.78    0.24
   1   5  -2   10.74    0.27
   0   5  -2    0.28    0.03
   0   5  -2    0.23    0.05
   0   5  -2    0.34    0.05
  -1   5  -2    2.85    0.09
  -1   5  -2    2.84    0.14
  -1   5  -2    2.75    0.11
  -2   5  -2    0.14    0.07
  -2   5  -2    0.16    0.04
  -2   5  -2    0.18    0.08
  -2   5  -2    0.11    0.04
  -2   5  -2    0.18    0.04
  -3   5  -2   13.24    0.31
  -3   5  -2   12.49    0.31
  -3   5  -2   12.83    0.39
  -3   5  -2   12.72    0.41
  -4   5  -2    0.07    0.09
  -4   5  -2   -0.05    0.04
  -4   5  -2    0.13    0.09
  -4   5  -2    0.06    0.06
  -5   5  -2    2.56    0.16
  -5   5  -2    2.28    0.20
  -5   5  -2    2.51    0.13
  -5   5  -2    2.42    0.22
  -6   5  -2   -0.06    0.13
  -6   5  -2    0.05    0.10
  -6   5  -2    0.01    0.06
  -6   5  -2   -0.13    0.09
  -7   5  -2    0.52    0.17
  -7   5  -2    0.44    0.13
  -8   5  -2    1.61    0.24
  -8   5  -2    1.32    0.19
   8   4  -2    0.35    0.15
   7   4  -2    0.66    0.15
   6   4  -2    1.12    0.15
   5   4  -2    1.05    0.13
   4   4  -2    0.00    0.06
   3   4  -2    8.28    0.25
   2   4  -2    2.63    0.13
   2   4  -2    2.67    0.10
   2   4  -2    2.67    0.11
   1   4  -2   16.19    0.34
   1   4  -2   15.99    0.37
   1   4  -2   15.81    0.40
   0   4  -2   64.39    1.36
   0   4  -2   64.25    1.24
   0   4  -2   61.70    1.38
  -1   4  -2    5.30    0.15
  -1   4  -2    5.65    0.18
  -1   4  -2    5.28    0.15
  -1   4  -2    5.51    0.13
  -2   4  -2    0.47    0.04
  -2   4  -2    0.45    0.05
  -2   4  -2    0.26    0.06
  -2   4  -2    0.41    0.06
  -2   4  -2    0.45    0.08
  -3   4  -2    4.07    0.15
  -3   4  -2    4.50    0.13
  -3   4  -2    4.24    0.19
  -3   4  -2    4.39    0.20
  -4   4  -2    3.19    0.12
  -4   4  -2    2.86    0.14
  -4   4  -2    2.92    0.19
  -4   4  -2    3.30    0.19
  -5   4  -2   -0.09    0.09
  -5   4  -2   -0.02    0.05
  -5   4  -2   -0.05    0.07
  -5   4  -2   -0.04    0.07
  -6   4  -2    2.37    0.23
  -6   4  -2    2.35    0.14
  -6   4  -2    2.25    0.19
  -7   4  -2    0.10    0.08
  -7   4  -2    0.01    0.14
  -7   4  -2    0.17    0.12
  -8   4  -2    1.51    0.22
  -8   4  -2    1.13    0.19
  -9  -3   2    1.05    0.20
   8   3  -2   -0.04    0.12
   7   3  -2    0.31    0.12
   6   3  -2    0.64    0.13
   5   3  -2    0.04    0.08
   4   3  -2    4.51    0.20
   3   3  -2   26.05    0.62
   2   3  -2    6.21    0.20
   2   3  -2    5.99    0.18
   1   3  -2    6.50    0.15
   1   3  -2    6.39    0.16
   1   3  -2    6.44    0.19
   1   3  -2    6.57    0.18
   0   3  -2    0.37    0.04
   0   3  -2    0.34    0.04
   0   3  -2    0.39    0.03
  -1   3  -2    0.87    0.05
  -1   3  -2    0.84    0.05
  -1   3  -2    0.70    0.06
  -1   3  -2    0.76    0.07
  -1   3  -2    0.82    0.06
  -2   3  -2    7.21    0.18
  -2   3  -2    7.30    0.18
  -2   3  -2    6.87    0.22
  -2   3  -2    6.85    0.23
  -3   3  -2    7.67    0.25
  -3   3  -2    7.65    0.21
  -3   3  -2    7.93    0.26
  -3   3  -2    7.75    0.20
  -4   3  -2    0.13    0.06
  -4   3  -2    0.11    0.08
  -4   3  -2    0.07    0.04
  -4   3  -2    0.13    0.07
  -5   3  -2    0.30    0.07
  -5   3  -2    0.29    0.08
  -5   3  -2    0.26    0.08
  -5   3  -2    0.31    0.10
  -6   3  -2    1.68    0.18
  -6   3  -2    1.51    0.14
  -6   3  -2    1.47    0.14
  -7   3  -2    0.06    0.12
  -7   3  -2    0.22    0.13
  -7   3  -2    0.34    0.10
  -8   3  -2    1.15    0.18
  -8   3  -2    0.75    0.13
  -9  -2   2    0.27    0.16
  -8  -2   2   -0.02    0.13
   7   2  -2    1.81    0.19
   6   2  -2    0.10    0.09
   5   2  -2    3.67    0.20
  -5  -2   2    3.61    0.16
   4   2  -2    9.84    0.31
  -4  -2   2    9.39    0.26
   3   2  -2   44.59    1.01
   2   2  -2   91.96    1.98
   2   2  -2   94.05    1.99
   1   2  -2   63.83    1.37
   1   2  -2   64.26    1.26
   1   2  -2   65.15    1.39
   1   2  -2   64.99    1.37
   0   2  -2    0.25    0.04
   0   2  -2    0.23    0.03
   0   2  -2    0.22    0.04
   0   2  -2    0.30    0.02
  -1   2  -2    4.67    0.12
  -1   2  -2    4.48    0.11
  -1   2  -2    4.59    0.15
  -1   2  -2    4.78    0.14
  -2   2  -2    1.50    0.07
  -2   2  -2    1.71    0.07
  -2   2  -2    1.53    0.09
  -2   2  -2    1.63    0.10
  -3   2  -2    0.38    0.07
  -3   2  -2    0.43    0.06
  -3   2  -2    0.41    0.06
   3  -2   2    0.38    0.06
  -4   2  -2   14.78    0.41
  -4   2  -2   14.19    0.40
  -4   2  -2   15.21    0.37
   4  -2   2   14.35    0.40
  -5   2  -2    1.38    0.13
  -5   2  -2    1.24    0.12
  -6   2  -2    0.10    0.10
  -6   2  -2    0.18    0.10
  -7   2  -2    0.93    0.15
  -7   2  -2    1.13    0.15
  -8   2  -2   -0.08    0.14
  -8   2  -2    0.06    0.11
  -9   2  -2    0.53    0.17
  -9   2  -2    0.39    0.13
  -9  -1   2    1.29    0.21
  -8  -1   2    0.19    0.13
   7   1  -2    1.57    0.18
   6   1  -2    6.54    0.29
  -6  -1   2    6.24    0.25
   5   1  -2   26.16    0.69
  -5  -1   2   26.56    0.65
   4   1  -2    3.29    0.17
  -4  -1   2    2.87    0.13
   3   1  -2   41.63    0.94
  -3  -1   2   40.32    0.91
   2   1  -2    0.04    0.04
   2   1  -2    0.05    0.04
   1   1  -2    3.46    0.11
   1   1  -2    3.47    0.10
   0   1  -2   93.54    1.81
   0   1  -2   93.91    1.93
   0   1  -2   92.33    1.97
  -1   1  -2   51.37    1.10
  -1   1  -2   50.31    1.05
  -1   1  -2   49.56    0.98
  -1   1  -2   49.96    1.08
  -2   1  -2   24.58    0.56
  -2   1  -2   25.16    0.57
  -2   1  -2   24.20    0.51
   2  -1   2   24.47    0.56
  -3   1  -2   51.69    1.14
  -3   1  -2   51.00    1.04
   3  -1   2   51.28    1.15
  -4   1  -2    0.00    0.05
  -4   1  -2    0.02    0.06
   4  -1   2    0.07    0.05
  -5   1  -2    3.54    0.18
  -5   1  -2    3.50    0.18
   5  -1   2    3.69    0.19
  -6   1  -2   -0.03    0.08
  -6   1  -2   -0.04    0.08
  -7   1  -2    0.50    0.13
  -8   1  -2   -0.10    0.13
  -9   1  -2    1.21    0.20
  -9   0   2   -0.15    0.14
  -8   0   2    1.50    0.19
  -7   0   2    1.53    0.16
   6   0  -2   10.62    0.39
  -6   0   2   10.58    0.35
   5   0  -2    8.89    0.32
  -5   0   2    9.10    0.29
   4   0  -2    1.23    0.12
  -4   0   2    1.34    0.10
  -4   0   2    1.32    0.07
   3   0  -2    9.98    0.29
  -3   0   2   10.32    0.28
   2   0  -2    0.06    0.04
  -2   0   2    0.04    0.03
   1   0  -2    4.84    0.13
   1   0  -2    5.08    0.14
   0   0  -2   85.87    1.58
   0   0  -2   78.56    1.70
  -1   0  -2    4.75    0.12
  -1   0  -2    4.41    0.11
   1   0   2    4.90    0.13
  -2   0  -2    1.94    0.08
  -2   0  -2    1.93    0.08
   2   0   2    1.87    0.09
  -3   0  -2    2.74    0.11
  -3   0  -2    2.78    0.11
   3   0   2    2.81    0.13
  -4   0  -2    6.43    0.21
  -4   0  -2    6.46    0.20
   4   0   2    6.31    0.23
  -5   0  -2    0.13    0.07
  -5   0  -2    0.15    0.07
   5   0   2    0.04    0.06
  -6   0  -2    0.04    0.08
   6   0   2   -0.02    0.08
  -7   0  -2    1.41    0.16
  -8   0  -2    3.00    0.27
  -9   0  -2    5.56    0.34
  -9   1   2    0.94    0.19
  -8   1   2    0.21    0.14
  -7   1   2   10.41    0.39
  -7   1   2   10.20    0.36
  -6   1   2    1.94    0.16
  -6   1   2    1.98    0.17
   5  -1  -2    1.07    0.13
  -5   1   2    1.13    0.12
  -5   1   2    1.08    0.10
   4  -1  -2   13.51    0.39
  -4   1   2   13.63    0.38
   3  -1  -2    8.95    0.27
  -3   1   2    9.56    0.27
   2  -1  -2   19.27    0.46
  -2   1   2   19.16    0.46
  -1   1   2 1000.00   21.14
   0   1   2   56.83    1.19
   1   1   2  100.21    2.11
   2   1   2  161.35    3.41
   3   1   2   12.82    0.35
   4   1   2   23.08    0.59
  -5  -1  -2    1.89    0.14
   5   1   2    1.99    0.16
  -6  -1  -2    0.27    0.09
   6   1   2   -0.04    0.08
  -7  -1  -2    1.31    0.16
  -8  -1  -2    3.90    0.29
  -9  -1  -2    0.24    0.16
  -9   2   2    0.83    0.18
  -8   2   2    5.21    0.31
  -7   2   2    3.11    0.23
  -7   2   2    3.42    0.25
  -6   2   2    0.02    0.09
  -6   2   2    0.02    0.07
  -6   2   2    0.12    0.06
  -5   2   2   18.96    0.53
  -5   2   2   19.31    0.51
  -5   2   2   18.81    0.48
   4  -2  -2   28.78    0.71
  -4   2   2   28.27    0.71
  -4   2   2   28.36    0.64
   3  -2  -2    0.80    0.08
  -3   2   2    0.66    0.07
  -3   2   2    0.66    0.08
  -2   2   2   50.32    1.00
  -2   2   2   49.96    1.12
  -1   2   2   12.99    0.32
  -1   2   2   12.66    0.27
   0   2   2   71.65    1.60
   0   2   2   78.50    1.58
   1   2   2  116.70    2.46
   2   2   2    6.11    0.18
   3   2   2    1.00    0.09
   4   2   2    0.33    0.07
   5   2   2    0.20    0.08
  -6  -2  -2    0.97    0.12
   6   2   2    1.07    0.14
  -7  -2  -2    0.64    0.13
   7   2   2    0.41    0.13
  -8  -2  -2    0.10    0.14
  -9  -2  -2    0.46    0.17
  -9   3   2    0.16    0.15
  -8   3   2    2.83    0.25
  -8   3   2    2.36    0.24
  -7   3   2    0.21    0.14
  -7   3   2    0.24    0.12
  -6   3   2    1.56    0.15
  -6   3   2    1.70    0.15
  -6   3   2    1.64    0.18
  -5   3   2    0.13    0.08
  -5   3   2    0.31    0.08
  -5   3   2    0.08    0.09
  -4   3   2   19.49    0.53
  -4   3   2   19.45    0.47
  -3   3   2    1.16    0.05
  -3   3   2    1.08    0.08
  -3   3   2    1.01    0.10
  -2   3   2  107.85    2.35
  -2   3   2  108.55    2.11
  -1   3   2    0.18    0.05
  -1   3   2    0.12    0.02
   0   3   2    8.33    0.22
   0   3   2    9.08    0.20
   1   3   2   23.12    0.51
   2   3   2    0.33    0.05
   3   3   2    3.28    0.14
   4   3   2   53.15    1.22
   5   3   2    2.99    0.18
  -6  -3  -2    1.93    0.16
   6   3   2    1.83    0.18
  -7  -3  -2    0.10    0.11
   7   3   2    0.01    0.11
  -8  -3  -2    1.43    0.18
  -8   4   2    1.33    0.22
  -8   4   2    1.59    0.20
  -7   4   2    3.27    0.29
  -7   4   2    3.67    0.24
  -7   4   2    3.13    0.22
  -6   4   2    7.76    0.29
  -6   4   2    7.62    0.35
  -6   4   2    7.25    0.31
  -5   4   2    0.09    0.08
  -5   4   2    0.12    0.10
  -5   4   2    0.16    0.04
  -4   4   2    0.18    0.03
  -4   4   2    0.16    0.06
  -4   4   2    0.09    0.08
  -3   4   2   13.59    0.33
  -3   4   2   13.63    0.40
  -2   4   2    6.29    0.17
  -2   4   2    6.49    0.23
  -2   4   2    6.43    0.20
  -1   4   2    4.73    0.17
  -1   4   2    4.40    0.11
   0   4   2   15.02    0.29
   0   4   2   14.25    0.36
   0   4   2   14.62    0.34
   1   4   2    1.45    0.06
   2   4   2   43.12    0.95
   3   4   2   12.06    0.33
   4   4   2    6.35    0.24
   5   4   2   -0.10    0.07
   6   4   2    3.87    0.24
  -7  -4  -2    1.54    0.17
   7   4   2    1.62    0.19
  -8  -4  -2    2.74    0.22
   8   4   2    2.20    0.24
  -8   5   2    0.81    0.20
  -8   5   2    0.85    0.17
  -7   5   2    1.18    0.16
  -7   5   2    1.16    0.16
  -7   5   2    1.53    0.22
  -6   5   2    0.24    0.10
  -6   5   2    0.21    0.14
  -6   5   2    0.19    0.10
  -5   5   2    0.45    0.08
  -5   5   2    0.22    0.12
  -4   5   2    0.29    0.11
  -4   5   2    0.28    0.06
  -3   5   2    8.79    0.31
  -3   5   2    8.79    0.23
  -2   5   2   30.70    0.63
  -2   5   2   30.42    0.76
  -2   5   2   31.48    0.71
  -1   5   2    0.27    0.03
  -1   5   2    0.28    0.04
  -1   5   2    0.32    0.07
   0   5   2    4.18    0.14
   0   5   2    4.15    0.15
   0   5   2    4.40    0.10
   1   5   2    2.10    0.07
   2   5   2   14.44    0.35
   3   5   2    3.53    0.15
   4   5   2    9.53    0.31
   5   5   2    0.80    0.11
   6   5   2    0.78    0.14
   7   5   2    3.67    0.27
   8   5   2    3.99    0.30
  -8   6   2    0.28    0.14
  -8   6   2    0.31    0.20
  -7   6   2    0.31    0.12
  -7   6   2    0.11    0.12
  -7   6   2    0.02    0.18
  -6   6   2    0.54    0.11
  -6   6   2    0.58    0.14
  -6   6   2    0.60    0.17
  -5   6   2    0.91    0.16
  -5   6   2    1.16    0.12
  -4   6   2    1.33    0.16
  -4   6   2    1.37    0.11
  -3   6   2   11.60    0.29
  -3   6   2   11.84    0.39
  -2   6   2    0.19    0.04
  -2   6   2    0.15    0.08
  -1   6   2    0.02    0.06
  -1   6   2    0.02    0.02
   0   6   2    6.59    0.15
   0   6   2    6.77    0.20
   0   6   2    6.75    0.22
   1   6   2    6.40    0.18
   1   6   2    5.68    0.15
   2   6   2    0.85    0.07
   3   6   2    7.40    0.23
   4   6   2    3.11    0.17
   5   6   2    7.87    0.30
   6   6   2    0.74    0.13
   7   6   2    2.95    0.25
   8   6   2    2.99    0.27
  -7   7   2    1.14    0.25
  -7   7   2    0.83    0.18
  -7   7   2    0.94    0.15
  -6   7   2    0.72    0.12
  -6   7   2    0.72    0.19
  -6   7   2    0.27    0.15
  -5   7   2    0.42    0.09
  -5   7   2    0.48    0.16
  -4   7   2    7.95    0.24
  -4   7   2    7.75    0.35
  -3   7   2    0.00    0.04
  -3   7   2    0.01    0.10
  -2   7   2    1.06    0.06
  -2   7   2    1.20    0.14
  -1   7   2    0.55    0.04
  -1   7   2    0.48    0.09
   0   7   2    2.04    0.13
   0   7   2    1.96    0.07
   1   7   2    1.97    0.10
   2   7   2   26.96    0.60
   3   7   2    4.49    0.17
   4   7   2    0.05    0.06
   5   7   2    0.00    0.08
   6   7   2    0.73    0.13
   7   7   2    0.18    0.12
  -7   8   2   -0.10    0.14
  -7   8   2    0.08    0.21
  -7   8   2    0.07    0.11
  -6   8   2    0.47    0.20
  -6   8   2   -0.05    0.13
  -6   8   2    0.17    0.09
  -5   8   2    0.98    0.19
  -5   8   2    1.17    0.21
  -5   8   2    0.83    0.10
  -4   8   2    0.29    0.14
  -4   8   2    0.15    0.06
  -3   8   2    0.06    0.04
  -3   8   2    0.10    0.11
  -2   8   2    3.38    0.22
  -2   8   2    3.34    0.11
  -1   8   2    0.12    0.08
  -1   8   2    0.09    0.03
   0   8   2    0.62    0.09
   1   8   2   25.84    0.61
   3   8   2    0.25    0.06
   4   8   2    2.58    0.15
   5   8   2    1.11    0.12
   6   8   2   -0.13    0.09
   7   8   2    0.47    0.13
  -6   9   2   -0.13    0.14
  -6   9   2   -0.01    0.20
  -6   9   2    0.04    0.09
  -5   9   2    0.06    0.15
  -5   9   2    0.41    0.08
  -5   9   2    0.21    0.18
  -4   9   2    0.26    0.15
  -4   9   2    0.07    0.06
  -3   9   2    0.56    0.06
  -3   9   2    0.34    0.14
  -2   9   2   -0.09    0.09
  -1   9   2    0.19    0.09
   0   9   2    0.15    0.07
   3   9   2    0.98    0.08
   4   9   2    3.75    0.16
   5   9   2    2.37    0.16
   6   9   2   -0.06    0.08
  -5  10   2    0.35    0.18
  -5  10   2    0.24    0.21
  -4  10   2    4.31    0.34
  -3  10   2    7.75    0.38
  -2  10   2    3.37    0.25
  -1  10   2    0.02    0.09
   5  10   2    0.29    0.07
  -4  11   2   11.97    0.52
  -4  11   2   11.34    0.54
  -3  11   2    1.29    0.20
  -2  11   2    0.16    0.13
  -1  11   2    0.49    0.12
  -3  12   2    1.12    0.22
  -3  12   2    1.42    0.20
  -2  12   2    0.14    0.13
  -2  12   2    0.12    0.16
   0  12  -3    0.27    0.14
  -1  12  -3   -0.18    0.13
  -1  12  -3    0.11    0.12
  -2  12  -3    0.36    0.17
  -2  12  -3    0.31    0.15
  -3  12  -3    0.10    0.17
  -3  12  -3    0.50    0.17
   0  11  -3    3.07    0.26
   0  11  -3    2.75    0.19
  -1  11  -3   -0.01    0.13
  -1  11  -3    0.00    0.06
  -1  11  -3    0.00    0.10
  -2  11  -3    0.00    0.12
  -2  11  -3   -0.03    0.06
  -2  11  -3    0.10    0.14
  -3  11  -3    0.29    0.08
  -3  11  -3    0.04    0.16
  -3  11  -3    0.44    0.16
  -4  11  -3    0.27    0.17
  -4  11  -3    0.29    0.18
  -4  11  -3    0.07    0.08
   2  10  -3    0.52    0.13
   1  10  -3    0.78    0.13
   1  10  -3    0.68    0.12
   1  10  -3    0.85    0.10
   1  10  -3    0.75    0.08
   0  10  -3    0.39    0.07
   0  10  -3    0.45    0.13
   0  10  -3    0.31    0.10
   0  10  -3    0.32    0.09
  -1  10  -3   -0.01    0.05
  -1  10  -3   -0.06    0.09
  -1  10  -3   -0.01    0.12
  -2  10  -3    0.90    0.09
  -2  10  -3    0.94    0.17
  -2  10  -3    1.06    0.15
  -3  10  -3    1.46    0.21
  -3  10  -3    1.05    0.10
  -3  10  -3    1.61    0.20
  -4  10  -3    0.27    0.08
  -4  10  -3    0.21    0.17
  -4  10  -3    0.65    0.19
  -5  10  -3    0.10    0.16
  -5  10  -3    0.12    0.09
  -5  10  -3    0.26    0.21
   6   9  -3    0.12    0.11
   5   9  -3    7.24    0.28
   2   9  -3    0.58    0.12
   1   9  -3    1.94    0.17
   1   9  -3    1.80    0.11
   1   9  -3    1.71    0.12
   1   9  -3    1.70    0.15
   0   9  -3   17.02    0.47
   0   9  -3   17.59    0.53
   0   9  -3   16.76    0.39
   0   9  -3   16.57    0.48
  -1   9  -3    0.11    0.09
  -1   9  -3    0.03    0.07
  -1   9  -3   -0.04    0.10
  -1   9  -3   -0.01    0.04
  -2   9  -3    5.82    0.28
  -2   9  -3    5.23    0.17
  -2   9  -3    5.57    0.31
  -3   9  -3    1.64    0.19
  -3   9  -3    1.58    0.11
  -3   9  -3    1.24    0.19
  -4   9  -3    0.32    0.16
  -4   9  -3    0.25    0.15
  -4   9  -3    0.30    0.08
  -5   9  -3    0.04    0.17
  -5   9  -3    0.10    0.15
  -5   9  -3    0.12    0.08
  -6   9  -3    1.28    0.25
  -6   9  -3    0.84    0.13
  -6   9  -3    0.74    0.20
   7   8  -3    0.11    0.13
   6   8  -3    1.76    0.18
   5   8  -3   15.93    0.47
   4   8  -3    1.08    0.11
   2   8  -3    7.17    0.29
   1   8  -3    1.04    0.09
   1   8  -3    1.13    0.12
   1   8  -3    1.12    0.12
   1   8  -3    0.87    0.09
   0   8  -3   11.26    0.37
   0   8  -3   10.49    0.26
   0   8  -3   10.50    0.33
   0   8  -3   10.59    0.32
  -1   8  -3    1.93    0.16
  -1   8  -3    1.92    0.10
  -1   8  -3    1.85    0.14
  -1   8  -3    1.70    0.17
  -2   8  -3    1.20    0.14
  -2   8  -3    1.41    0.09
  -2   8  -3    1.20    0.12
  -2   8  -3    1.02    0.16
  -3   8  -3    0.23    0.12
  -3   8  -3    0.30    0.06
  -3   8  -3    0.28    0.12
  -4   8  -3    0.38    0.14
  -4   8  -3    0.42    0.14
  -4   8  -3    0.32    0.08
  -5   8  -3    0.28    0.15
  -5   8  -3    0.42    0.18
  -5   8  -3    0.36    0.10
  -6   8  -3    0.18    0.19
  -6   8  -3   -0.08    0.10
  -6   8  -3    0.07    0.15
  -7   8  -3    1.47    0.26
  -7   8  -3    1.08    0.15
   7   7  -3    0.82    0.16
   6   7  -3    1.60    0.18
   5   7  -3    0.82    0.12
   4   7  -3    3.93    0.19
   3   7  -3    0.11    0.09
   2   7  -3    4.67    0.18
   2   7  -3    4.72    0.22
   1   7  -3    0.46    0.08
   1   7  -3    0.43    0.06
   1   7  -3    0.38    0.05
   1   7  -3    0.37    0.08
   0   7  -3   25.81    0.63
   0   7  -3   25.57    0.63
   0   7  -3   26.28    0.68
   0   7  -3   25.97    0.54
  -1   7  -3    2.29    0.10
  -1   7  -3    2.36    0.13
  -1   7  -3    2.23    0.15
  -1   7  -3    2.06    0.18
  -2   7  -3    0.10    0.04
  -2   7  -3    0.01    0.09
  -2   7  -3    0.11    0.09
  -2   7  -3    0.10    0.05
  -3   7  -3    4.79    0.25
  -3   7  -3    4.67    0.26
  -3   7  -3    4.55    0.17
  -3   7  -3    4.87    0.16
  -4   7  -3    2.29    0.20
  -4   7  -3    2.05    0.20
  -4   7  -3    2.18    0.12
  -4   7  -3    1.88    0.14
  -5   7  -3    0.41    0.10
  -5   7  -3    0.20    0.15
  -5   7  -3    0.41    0.14
  -6   7  -3    5.08    0.25
  -6   7  -3    4.91    0.36
  -6   7  -3    4.49    0.31
  -7   7  -3    7.30    0.32
  -7   7  -3    6.76    0.44
   8   6  -3    0.24    0.14
   7   6  -3    2.89    0.25
   6   6  -3    5.52    0.29
   5   6  -3    1.39    0.15
   4   6  -3    0.26    0.08
   3   6  -3    6.72    0.27
   3   6  -3    6.84    0.23
   2   6  -3    1.94    0.11
   2   6  -3    1.69    0.14
   1   6  -3    1.37    0.09
   1   6  -3    1.48    0.11
   1   6  -3    1.44    0.07
   1   6  -3    1.45    0.12
   0   6  -3   14.21    0.31
   0   6  -3   14.39    0.38
   0   6  -3   14.70    0.41
   0   6  -3   14.18    0.38
  -1   6  -3    1.35    0.12
  -1   6  -3    1.19    0.09
  -1   6  -3    1.17    0.07
  -1   6  -3    1.10    0.12
  -2   6  -3    0.95    0.08
  -2   6  -3    0.80    0.07
  -2   6  -3    0.77    0.07
  -2   6  -3    0.77    0.12
  -2   6  -3    0.96    0.11
  -3   6  -3   12.92    0.31
  -3   6  -3   12.80    0.32
  -3   6  -3   12.75    0.42
  -3   6  -3   12.35    0.40
  -4   6  -3    3.83    0.15
  -4   6  -3    4.01    0.17
  -4   6  -3    3.67    0.24
  -4   6  -3    4.10    0.24
  -5   6  -3    0.73    0.08
  -5   6  -3    0.88    0.11
  -5   6  -3    0.56    0.13
  -5   6  -3    0.72    0.15
  -6   6  -3   14.42    0.52
  -6   6  -3   13.76    0.50
  -6   6  -3   14.10    0.42
  -7   6  -3    5.81    0.39
  -7   6  -3    6.22    0.30
  -8   6  -3    0.37    0.20
  -8   6  -3    0.34    0.15
   8   5  -3    1.17    0.20
   7   5  -3    2.49    0.25
   6   5  -3    6.56    0.31
   5   5  -3    0.00    0.08
   4   5  -3    1.24    0.12
   3   5  -3    8.69    0.26
   3   5  -3    8.06    0.29
   2   5  -3    0.06    0.06
   2   5  -3    0.06    0.04
   1   5  -3   26.46    0.60
   1   5  -3   25.86    0.62
   1   5  -3   26.49    0.54
   1   5  -3   26.24    0.63
   0   5  -3    2.65    0.12
   0   5  -3    2.84    0.14
   0   5  -3    2.60    0.09
   0   5  -3    2.68    0.12
  -1   5  -3    1.77    0.07
  -1   5  -3    1.62    0.13
  -1   5  -3    1.81    0.12
  -1   5  -3    1.72    0.09
  -2   5  -3    7.09    0.22
  -2   5  -3    7.17    0.27
  -2   5  -3    7.47    0.26
  -2   5  -3    7.66    0.19
  -2   5  -3    7.78    0.20
  -3   5  -3    0.07    0.08
  -3   5  -3    0.04    0.05
  -3   5  -3    0.03    0.08
  -3   5  -3    0.09    0.04
  -4   5  -3    1.82    0.12
  -4   5  -3    1.67    0.16
  -4   5  -3    1.82    0.10
  -4   5  -3    1.67    0.16
  -5   5  -3    8.25    0.24
  -5   5  -3    7.26    0.33
  -5   5  -3    8.19    0.27
  -5   5  -3    7.59    0.32
  -6   5  -3    1.97    0.16
  -6   5  -3    2.26    0.23
  -6   5  -3    2.05    0.14
  -7   5  -3    8.48    0.41
  -7   5  -3    8.58    0.35
  -8   5  -3   -0.03    0.14
  -8   5  -3    0.55    0.19
   8   4  -3    0.96    0.19
   7   4  -3    1.41    0.18
   6   4  -3    0.06    0.10
   5   4  -3    0.33    0.10
   4   4  -3    0.62    0.09
   3   4  -3    2.08    0.12
   3   4  -3    2.17    0.14
   2   4  -3    5.93    0.18
   2   4  -3    5.92    0.20
   1   4  -3    3.91    0.11
   1   4  -3    3.92    0.15
   1   4  -3    4.24    0.14
   1   4  -3    3.98    0.13
   0   4  -3    5.47    0.17
   0   4  -3    5.65    0.19
   0   4  -3    5.27    0.17
   0   4  -3    5.64    0.13
  -1   4  -3    2.22    0.13
  -1   4  -3    2.17    0.09
  -1   4  -3    2.16    0.11
  -1   4  -3    2.33    0.09
  -1   4  -3    2.13    0.07
  -2   4  -3   16.31    0.43
  -2   4  -3   16.69    0.36
  -2   4  -3   16.08    0.41
  -2   4  -3   16.81    0.38
  -2   4  -3   16.45    0.45
  -3   4  -3    1.57    0.14
  -3   4  -3    1.77    0.09
  -3   4  -3    1.52    0.13
  -3   4  -3    1.70    0.10
  -4   4  -3    4.15    0.17
  -4   4  -3    4.09    0.20
  -4   4  -3    4.17    0.14
  -4   4  -3    3.70    0.20
  -5   4  -3   11.22    0.33
  -5   4  -3   11.23    0.30
  -5   4  -3   10.87    0.38
  -5   4  -3   10.71    0.37
  -6   4  -3    1.43    0.14
  -6   4  -3    1.75    0.16
  -6   4  -3    1.58    0.18
  -7   4  -3    0.05    0.12
  -7   4  -3    0.17    0.09
  -7   4  -3    0.06    0.14
  -8   4  -3    3.12    0.28
  -9  -3   3    3.28    0.28
   8   3  -3    0.56    0.15
   7   3  -3    0.03    0.11
   6   3  -3    3.06    0.22
   5   3  -3    3.15    0.20
  -5  -3   3    3.19    0.14
   4   3  -3   13.81    0.40
   3   3  -3    3.84    0.16
   3   3  -3    4.02    0.17
   2   3  -3   10.92    0.30
   2   3  -3   10.80    0.28
   1   3  -3   86.36    1.85
   1   3  -3   88.09    1.85
   1   3  -3   87.46    1.89
   1   3  -3   86.47    1.69
   0   3  -3    6.12    0.17
   0   3  -3    5.80    0.14
   0   3  -3    5.80    0.18
   0   3  -3    5.99    0.16
  -1   3  -3    1.47    0.07
  -1   3  -3    1.38    0.06
  -1   3  -3    1.33    0.09
  -1   3  -3    1.46    0.06
  -1   3  -3    1.39    0.09
  -2   3  -3   17.91    0.39
  -2   3  -3   16.97    0.45
  -2   3  -3   17.49    0.38
  -2   3  -3   17.15    0.44
  -3   3  -3    1.06    0.08
  -3   3  -3    1.06    0.07
  -3   3  -3    1.09    0.11
  -3   3  -3    1.03    0.10
  -4   3  -3    4.54    0.17
  -4   3  -3    4.36    0.20
  -4   3  -3    4.45    0.20
  -4   3  -3    4.37    0.15
  -5   3  -3    0.03    0.09
  -5   3  -3   -0.18    0.06
  -5   3  -3   -0.01    0.06
  -6   3  -3    1.36    0.15
  -6   3  -3    1.53    0.15
  -6   3  -3    1.61    0.17
  -7   3  -3    1.43    0.17
  -7   3  -3    1.34    0.18
  -7   3  -3    1.62    0.15
  -8   3  -3   -0.18    0.13
  -8   3  -3    0.25    0.11
  -9  -2   3    0.44    0.17
  -8  -2   3    1.91    0.20
   7   2  -3    0.08    0.10
   6   2  -3   12.24    0.43
   5   2  -3    0.64    0.11
  -5  -2   3    0.63    0.08
   4   2  -3    8.67    0.29
  -4  -2   3    8.69    0.25
   3   2  -3   10.06    0.29
   2   2  -3    9.16    0.24
   2   2  -3    8.92    0.25
   1   2  -3   14.94    0.35
   1   2  -3   15.13    0.31
   0   2  -3   36.19    0.81
   0   2  -3   36.84    0.79
   0   2  -3   36.45    0.72
   0   2  -3   38.98    0.78
   0   2  -3   36.88    0.83
  -1   2  -3    1.52    0.08
  -1   2  -3    1.57    0.08
  -1   2  -3    1.55    0.06
  -1   2  -3    1.74    0.06
  -2   2  -3    0.45    0.06
  -2   2  -3    0.40    0.06
  -2   2  -3    0.47    0.04
  -2   2  -3    0.45    0.04
  -3   2  -3    0.71    0.08
  -3   2  -3    0.56    0.06
  -3   2  -3    0.62    0.06
  -3   2  -3    0.61    0.07
   3  -2   3    0.70    0.07
  -4   2  -3    1.22    0.11
  -4   2  -3    1.12    0.10
   4  -2   3    1.26    0.10
  -5   2  -3    0.19    0.08
  -5   2  -3    0.41    0.10
  -6   2  -3    2.30    0.18
  -6   2  -3    2.22    0.19
  -7   2  -3   -0.03    0.11
  -7   2  -3    0.08    0.09
  -8   2  -3    0.10    0.15
  -8   2  -3    0.06    0.11
  -9   2  -3    0.15    0.13
  -9   2  -3    0.02    0.16
  -9  -1   3    0.46    0.17
  -8  -1   3    0.12    0.12
   7   1  -3    0.35    0.13
   6   1  -3    0.66    0.12
  -6  -1   3    0.63    0.10
   5   1  -3    1.87    0.16
  -5  -1   3    1.88    0.13
   4   1  -3    1.05    0.11
  -4  -1   3    0.98    0.09
   3   1  -3   10.19    0.29
   2   1  -3    0.42    0.05
   2   1  -3    0.51    0.06
   1   1  -3   28.84    0.63
   0   1  -3    2.86    0.08
   0   1  -3    2.91    0.07
   0   1  -3    2.87    0.09
  -1   1  -3   10.77    0.23
  -1   1  -3   10.78    0.26
  -2   1  -3   36.32    0.80
  -2   1  -3   36.28    0.73
   2  -1   3   36.20    0.80
  -3   1  -3   44.00    0.97
  -3   1  -3   43.02    0.89
   3  -1   3   43.46    0.98
  -4   1  -3    0.13    0.06
  -4   1  -3    0.03    0.06
   4  -1   3    0.05    0.05
  -5   1  -3    5.89    0.22
  -5   1  -3    5.86    0.22
   5  -1   3    5.41    0.23
  -6   1  -3    0.48    0.10
  -6   1  -3    0.46    0.11
  -7   1  -3    0.01    0.11
  -8   1  -3    1.20    0.18
  -9   1  -3    2.07    0.22
  -9   1  -3    1.95    0.20
  -9   0   3    0.56    0.17
  -8   0   3    0.11    0.13
  -7   0   3    5.41    0.26
  -7   0   3    5.24    0.26
   6   0  -3    3.02    0.21
  -6   0   3    3.15    0.19
   5   0  -3    2.16    0.16
  -5   0   3    1.90    0.14
   4   0  -3   10.15    0.32
  -4   0   3   10.05    0.30
   3   0  -3    8.39    0.26
  -3   0   3    8.47    0.24
   2   0  -3   54.06    1.15
   2   0  -3   53.96    1.18
   1   0  -3   89.47    1.86
   0   0  -3   44.18    0.97
   0   0  -3   48.48    0.89
  -1   0  -3   11.55    0.24
  -1   0  -3   11.92    0.26
   1   0   3   11.78    0.27
  -2   0  -3  106.64    2.10
  -2   0  -3  110.75    2.29
   2   0   3  106.94    2.30
  -3   0  -3   52.83    1.06
  -3   0  -3   52.74    1.14
   3   0   3   51.66    1.17
  -4   0  -3   -0.01    0.05
  -4   0  -3    0.07    0.05
   4   0   3    0.02    0.05
  -5   0  -3    0.03    0.07
  -5   0  -3    0.09    0.06
   5   0   3   -0.04    0.06
  -6   0  -3    2.39    0.18
  -7   0  -3    0.19    0.11
  -8   0  -3    1.20    0.18
  -9   0  -3    0.53    0.17
  -9   1   3    0.16    0.16
  -8   1   3    0.27    0.14
  -7   1   3    4.03    0.24
  -7   1   3    4.03    0.25
  -6   1   3    0.72    0.12
  -6   1   3    0.59    0.10
   5  -1  -3   34.67    0.88
  -5   1   3   35.48    0.87
  -5   1   3   36.21    0.84
   4  -1  -3   10.70    0.34
  -4   1   3   11.01    0.33
   3  -1  -3    1.13    0.10
  -3   1   3    1.30    0.10
   2  -1  -3    6.30    0.19
  -2   1   3    6.32    0.19
   1  -1  -3  140.49    2.96
  -1   1   3  140.18    2.96
   0  -1  -3    2.65    0.07
   0   1   3    2.82    0.08
  -1  -1  -3  179.73    3.53
   1   1   3  189.21    3.89
  -2  -1  -3   48.33    0.98
   2   1   3   50.91    1.09
  -3  -1  -3    2.63    0.11
   3   1   3    2.74    0.13
  -4  -1  -3    1.13    0.09
   4   1   3    1.15    0.11
  -5  -1  -3    0.22    0.08
   5   1   3    0.17    0.08
  -6  -1  -3   -0.09    0.08
   6   1   3    0.04    0.08
  -7  -1  -3   -0.18    0.11
  -8  -1  -3    1.70    0.19
  -9  -1  -3    0.54    0.17
  -9   2   3    1.69    0.23
  -8   2   3    0.56    0.16
  -8   2   3    0.55    0.15
  -7   2   3   10.34    0.37
  -7   2   3   10.47    0.41
  -6   2   3    9.34    0.32
  -6   2   3    9.77    0.36
  -6   2   3    9.55    0.31
  -5   2   3    4.22    0.19
  -5   2   3    4.00    0.21
   4  -2  -3    0.68    0.09
  -4   2   3    0.63    0.09
  -4   2   3    0.56    0.07
   3  -2  -3    6.17    0.21
  -3   2   3    6.01    0.22
  -2   2   3   17.74    0.44
  -1   2   3    1.82    0.06
  -1   2   3    1.90    0.07
  -1   2   3    1.85    0.09
   0   2   3   10.11    0.26
   0   2   3   11.09    0.24
   1   2   3    1.16    0.06
   2   2   3   32.98    0.74
   3   2   3    4.68    0.17
   4   2   3    9.80    0.31
  -5  -2  -3    0.01    0.06
   5   2   3   -0.03    0.06
  -6  -2  -3    1.59    0.14
   6   2   3    1.69    0.16
  -7  -2  -3    9.74    0.36
   7   2   3    9.92    0.39
  -8  -2  -3    0.08    0.13
  -9   3   3    0.25    0.16
  -8   3   3    5.86    0.35
  -8   3   3    5.60    0.32
  -7   3   3    0.92    0.15
  -7   3   3    0.81    0.17
  -6   3   3    0.07    0.10
  -6   3   3    0.16    0.08
  -6   3   3    0.14    0.08
  -5   3   3    3.34    0.20
  -5   3   3    3.29    0.17
  -4   3   3    0.88    0.11
  -4   3   3    0.89    0.09
  -3   3   3    6.04    0.22
  -3   3   3    5.64    0.18
  -2   3   3  146.94    2.89
  -2   3   3  150.66    3.20
  -1   3   3   16.54    0.34
  -1   3   3   16.66    0.38
  -1   3   3   16.68    0.41
   0   3   3   18.39    0.45
   0   3   3   20.57    0.42
   1   3   3    5.25    0.14
   2   3   3   71.70    1.55
   3   3   3   15.92    0.41
   4   3   3    1.93    0.14
   5   3   3   -0.03    0.07
  -6  -3  -3    0.07    0.09
   6   3   3    0.08    0.09
  -7  -3  -3   13.16    0.42
   7   3   3   12.70    0.46
  -8  -3  -3    0.23    0.14
  -8   4   3    1.20    0.18
  -8   4   3    1.56    0.22
  -7   4   3    0.15    0.15
  -7   4   3    0.20    0.11
  -6   4   3    6.31    0.26
  -6   4   3    6.06    0.28
  -6   4   3    6.07    0.32
  -5   4   3    0.12    0.09
  -5   4   3    0.12    0.07
  -4   4   3    2.97    0.19
  -4   4   3    3.09    0.10
  -4   4   3    3.20    0.15
  -3   4   3   19.41    0.53
  -3   4   3   19.31    0.44
  -2   4   3   27.08    0.67
  -2   4   3   27.22    0.56
  -1   4   3   25.98    0.51
  -1   4   3   25.36    0.57
  -1   4   3   25.03    0.61
   0   4   3    3.64    0.13
   0   4   3    3.75    0.10
   1   4   3  118.03    2.49
   2   4   3   15.29    0.37
   3   4   3    0.62    0.07
   4   4   3    3.16    0.17
   5   4   3    3.42    0.20
  -6  -4  -3    1.91    0.17
   6   4   3    1.98    0.19
  -7  -4  -3    3.63    0.24
   7   4   3    3.09    0.25
   8   4   3    2.60    0.24
  -8   5   3    0.62    0.20
  -8   5   3    0.61    0.16
  -7   5   3    0.76    0.15
  -7   5   3    0.88    0.20
  -7   5   3    0.74    0.14
  -6   5   3    0.28    0.14
  -6   5   3    0.20    0.09
  -6   5   3    0.33    0.11
  -5   5   3    1.31    0.12
  -5   5   3    1.28    0.17
  -4   5   3    0.59    0.12
  -4   5   3    0.62    0.08
  -3   5   3   48.02    0.97
  -3   5   3   46.89    1.13
  -2   5   3   11.45    0.26
  -2   5   3   11.46    0.35
  -1   5   3   25.27    0.50
  -1   5   3   24.17    0.56
  -1   5   3   25.44    0.61
   0   5   3    5.43    0.18
   1   5   3    9.63    0.23
   2   5   3    1.38    0.08
   3   5   3    5.47    0.19
   4   5   3    6.25    0.24
   5   5   3    2.01    0.17
   6   5   3    0.97    0.14
   7   5   3    0.68    0.15
   8   5   3    1.13    0.19
  -8   6   3    0.48    0.15
  -8   6   3    0.41    0.20
  -7   6   3    0.57    0.14
  -7   6   3    0.58    0.20
  -7   6   3    0.63    0.15
  -6   6   3    3.06    0.25
  -6   6   3    3.21    0.29
  -6   6   3    3.61    0.21
  -5   6   3    0.48    0.14
  -5   6   3    0.45    0.09
  -4   6   3    6.44    0.30
  -4   6   3    6.80    0.22
  -3   6   3    9.44    0.25
  -3   6   3    9.82    0.35
  -2   6   3    0.19    0.08
  -2   6   3    0.21    0.04
  -1   6   3   13.53    0.29
  -1   6   3   13.76    0.39
   0   6   3    6.88    0.17
   0   6   3    6.69    0.22
   1   6   3    8.78    0.21
   1   6   3    7.98    0.23
   2   6   3   27.77    0.63
   4   6   3    0.18    0.07
   5   6   3    0.08    0.08
   6   6   3    0.65    0.13
   7   6   3    0.13    0.12
  -7   7   3    0.68    0.17
  -7   7   3    0.70    0.13
  -7   7   3    0.76    0.23
  -6   7   3    0.05    0.13
  -6   7   3    0.20    0.17
  -6   7   3    0.08    0.09
  -5   7   3    1.40    0.13
  -5   7   3    1.33    0.19
  -4   7   3    0.05    0.05
  -4   7   3    0.00    0.11
  -3   7   3    0.15    0.10
  -3   7   3    0.21    0.05
  -2   7   3    0.17    0.09
  -2   7   3    0.15    0.03
  -1   7   3    0.07    0.02
  -1   7   3    0.08    0.07
   0   7   3    0.97    0.10
   1   7   3    5.91    0.19
   2   7   3    3.16    0.11
   3   7   3    3.95    0.16
   4   7   3    1.30    0.13
   5   7   3    1.34    0.14
   6   7   3    4.89    0.26
   7   7   3   -0.02    0.11
  -7   8   3    0.12    0.11
  -7   8   3   -0.03    0.13
  -7   8   3    0.04    0.21
  -6   8   3   -0.02    0.14
  -6   8   3    0.01    0.18
  -6   8   3    0.26    0.09
  -5   8   3    0.51    0.09
  -5   8   3    0.48    0.18
  -4   8   3    0.63    0.08
  -4   8   3    0.52    0.15
  -3   8   3    2.47    0.22
  -3   8   3    2.24    0.10
  -2   8   3    2.14    0.09
  -2   8   3    2.00    0.19
  -1   8   3   -0.04    0.07
   0   8   3    0.06    0.06
   3   8   3    0.69    0.07
   4   8   3    0.96    0.10
   5   8   3    2.49    0.17
   6   8   3    4.68    0.24
  -6   9   3    0.71    0.19
  -6   9   3    1.29    0.26
  -6   9   3    0.63    0.11
  -5   9   3    5.72    0.39
  -5   9   3    5.15    0.20
  -4   9   3    0.46    0.17
  -4   9   3    0.51    0.07
  -3   9   3    5.67    0.32
  -2   9   3    1.88    0.19
  -1   9   3    0.57    0.11
   0   9   3   10.44    0.33
   3   9   3    0.43    0.06
   4   9   3    0.02    0.06
   5   9   3   -0.02    0.07
   6   9   3    1.73    0.17
  -5  10   3    0.56    0.19
  -5  10   3    0.70    0.22
  -4  10   3    0.13    0.15
  -3  10   3    2.78    0.27
  -2  10   3    0.56    0.14
  -1  10   3    1.61    0.16
   4  10   3    0.87    0.08
   5  10   3    0.13    0.07
  -4  11   3    0.59    0.20
  -4  11   3    0.62    0.20
  -3  11   3    0.27    0.15
  -2  11   3    0.13    0.12
  -3  12   3    1.37    0.21
  -3  12   3    1.16    0.24
  -2  12   3    0.08    0.13
   0  12  -4   -0.05    0.13
  -1  12  -4   -0.12    0.13
  -1  12  -4    0.12    0.12
  -2  12  -4    0.01    0.13
  -2  12  -4   -0.10    0.15
  -3  12  -4    2.12    0.24
  -3  12  -4    1.24    0.23
   1  11  -4    0.98    0.15
   0  11  -4    3.64    0.21
   0  11  -4    3.57    0.17
   0  11  -4    3.69    0.27
  -1  11  -4    0.18    0.14
  -1  11  -4    0.16    0.12
  -1  11  -4    0.02    0.07
  -2  11  -4    3.09    0.26
  -2  11  -4    2.81    0.15
  -2  11  -4    3.26    0.30
  -3  11  -4    1.85    0.14
  -3  11  -4    1.32    0.22
  -3  11  -4    1.96    0.22
  -4  11  -4    0.70    0.20
  -4  11  -4    0.47    0.10
  -4  11  -4    1.04    0.21
   2  10  -4    1.07    0.15
   1  10  -4    2.04    0.18
   1  10  -4    1.90    0.13
   1  10  -4    1.95    0.19
   1  10  -4    1.96    0.14
   0  10  -4    0.01    0.11
   0  10  -4   -0.02    0.08
   0  10  -4   -0.04    0.05
   0  10  -4    0.06    0.08
  -1  10  -4    0.14    0.06
  -1  10  -4    0.01    0.12
  -1  10  -4    0.09    0.10
  -2  10  -4    0.97    0.09
  -2  10  -4    1.08    0.16
  -2  10  -4    1.07    0.18
  -3  10  -4    3.13    0.29
  -3  10  -4    3.36    0.28
  -3  10  -4    2.79    0.15
  -4  10  -4    0.20    0.16
  -4  10  -4   -0.12    0.14
  -4  10  -4   -0.03    0.07
  -5  10  -4    0.46    0.18
  -5  10  -4    0.62    0.11
  -5  10  -4    0.76    0.22
   6   9  -4    7.54    0.32
   5   9  -4    0.83    0.12
   2   9  -4    0.16    0.10
   1   9  -4    2.03    0.18
   1   9  -4    1.92    0.17
   1   9  -4    2.10    0.14
   1   9  -4    2.03    0.12
   0   9  -4    3.02    0.21
   0   9  -4    3.12    0.17
   0   9  -4    2.86    0.13
   0   9  -4    2.98    0.19
  -1   9  -4    3.31    0.13
  -1   9  -4    3.26    0.18
  -1   9  -4    3.39    0.20
  -1   9  -4    3.69    0.25
  -2   9  -4    0.78    0.08
  -2   9  -4    0.52    0.15
  -2   9  -4    0.87    0.14
  -2   9  -4    0.67    0.10
  -3   9  -4    0.96    0.09
  -3   9  -4    1.18    0.17
  -3   9  -4    0.96    0.18
  -4   9  -4    1.29    0.21
  -4   9  -4    0.45    0.16
  -4   9  -4    0.88    0.10
  -5   9  -4    0.73    0.11
  -5   9  -4    0.63    0.18
  -5   9  -4    0.65    0.20
  -6   9  -4    0.01    0.10
  -6   9  -4    0.22    0.20
   7   8  -4    0.47    0.15
   6   8  -4    0.71    0.14
   5   8  -4    2.49    0.19
   4   8  -4    0.35    0.09
   3   8  -4    0.03    0.10
   2   8  -4    0.76    0.12
   1   8  -4    2.51    0.12
   1   8  -4    2.40    0.17
   1   8  -4    2.49    0.14
   1   8  -4    2.46    0.17
   0   8  -4    5.20    0.16
   0   8  -4    5.54    0.23
   0   8  -4    5.85    0.26
   0   8  -4    5.13    0.21
  -1   8  -4    0.07    0.07
  -1   8  -4    0.25    0.09
  -1   8  -4   -0.09    0.09
  -1   8  -4    0.11    0.04
  -2   8  -4    0.23    0.11
  -2   8  -4    0.19    0.05
  -2   8  -4    0.04    0.10
  -2   8  -4    0.06    0.07
  -3   8  -4    4.11    0.27
  -3   8  -4    4.07    0.16
  -3   8  -4    4.11    0.26
  -3   8  -4    4.22    0.19
  -4   8  -4    0.19    0.07
  -4   8  -4    0.13    0.12
  -4   8  -4    0.07    0.13
  -5   8  -4    0.10    0.13
  -5   8  -4    0.30    0.09
  -5   8  -4    0.34    0.17
  -6   8  -4    2.04    0.16
  -6   8  -4    2.43    0.27
  -7   8  -4    1.00    0.24
  -7   8  -4    1.11    0.16
   7   7  -4   -0.02    0.12
   6   7  -4    4.53    0.27
   5   7  -4    1.11    0.14
   4   7  -4    0.24    0.09
   3   7  -4    1.12    0.14
   2   7  -4    0.20    0.05
   2   7  -4    0.35    0.07
   2   7  -4    0.27    0.09
   1   7  -4   -0.03    0.06
   1   7  -4   -0.05    0.04
   1   7  -4   -0.01    0.05
   1   7  -4    0.00    0.07
   0   7  -4   31.61    0.76
   0   7  -4   31.63    0.66
   0   7  -4   32.35    0.80
   0   7  -4   31.36    0.75
  -1   7  -4   28.87    0.60
  -1   7  -4   28.93    0.68
  -1   7  -4   27.92    0.74
  -1   7  -4   27.96    0.70
  -2   7  -4    3.60    0.16
  -2   7  -4    3.47    0.20
  -2   7  -4    3.90    0.23
  -2   7  -4    3.75    0.13
  -3   7  -4    2.19    0.13
  -3   7  -4    2.13    0.20
  -3   7  -4    2.44    0.12
  -3   7  -4    2.03    0.19
  -4   7  -4    0.03    0.07
  -4   7  -4   -0.10    0.10
  -4   7  -4   -0.12    0.05
  -4   7  -4    0.07    0.12
  -5   7  -4    0.08    0.14
  -5   7  -4    0.00    0.08
  -5   7  -4    0.12    0.12
  -6   7  -4    0.37    0.11
  -6   7  -4    0.15    0.18
  -7   7  -4    0.06    0.19
  -7   7  -4    0.43    0.14
   8   6  -4   -0.09    0.14
   7   6  -4    5.64    0.32
   6   6  -4    0.24    0.12
   5   6  -4    0.44    0.11
   4   6  -4   -0.04    0.07
   3   6  -4   16.29    0.42
   3   6  -4   16.58    0.48
   2   6  -4    1.00    0.11
   2   6  -4    0.97    0.09
   2   6  -4    0.96    0.08
   1   6  -4    3.66    0.17
   1   6  -4    3.53    0.16
   1   6  -4    3.52    0.14
   1   6  -4    3.45    0.12
   0   6  -4   14.08    0.40
   0   6  -4   14.24    0.32
   0   6  -4   14.02    0.38
   0   6  -4   14.32    0.38
  -1   6  -4   24.27    0.50
  -1   6  -4   23.11    0.59
  -1   6  -4   23.39    0.56
  -1   6  -4   24.34    0.63
  -2   6  -4    0.19    0.05
  -2   6  -4    0.21    0.04
  -2   6  -4    0.14    0.08
  -2   6  -4    0.08    0.08
  -2   6  -4    0.11    0.05
  -3   6  -4    0.10    0.05
  -3   6  -4    0.06    0.05
  -3   6  -4    0.11    0.09
  -3   6  -4   -0.02    0.09
  -4   6  -4    0.70    0.09
  -4   6  -4    0.70    0.07
  -4   6  -4    0.78    0.13
  -4   6  -4    0.61    0.12
  -5   6  -4    0.61    0.08
  -5   6  -4    0.69    0.10
  -5   6  -4    0.50    0.13
  -5   6  -4    0.54    0.14
  -6   6  -4    0.94    0.13
  -6   6  -4    0.74    0.18
  -7   6  -4    5.26    0.37
  -7   6  -4    4.99    0.28
  -8   6  -4    2.91    0.27
  -8   6  -4    2.29    0.22
   8   5  -4    0.54    0.17
   7   5  -4    1.19    0.19
   6   5  -4    0.72    0.14
   5   5  -4    1.86    0.17
   4   5  -4    1.82    0.15
   3   5  -4    0.25    0.08
   3   5  -4    0.31    0.07
   2   5  -4    9.19    0.24
   2   5  -4    9.28    0.29
   2   5  -4    8.75    0.23
   1   5  -4   41.36    0.93
   1   5  -4   42.42    0.95
   1   5  -4   43.00    0.96
   1   5  -4   41.20    0.84
   0   5  -4    0.62    0.07
   0   5  -4    0.56    0.08
   0   5  -4    0.59    0.05
   0   5  -4    0.53    0.07
  -1   5  -4    2.32    0.13
  -1   5  -4    2.34    0.08
  -1   5  -4    2.25    0.14
  -1   5  -4    2.34    0.10
  -1   5  -4    2.19    0.10
  -2   5  -4   21.02    0.48
  -2   5  -4   19.80    0.50
  -2   5  -4   20.71    0.56
  -2   5  -4   21.27    0.44
  -2   5  -4   20.04    0.53
  -3   5  -4    3.71    0.20
  -3   5  -4    3.76    0.14
  -3   5  -4    4.00    0.14
  -3   5  -4    3.75    0.21
  -4   5  -4   -0.09    0.06
  -4   5  -4    0.02    0.08
  -4   5  -4   -0.04    0.09
  -4   5  -4   -0.02    0.05
  -5   5  -4    4.72    0.27
  -5   5  -4    5.06    0.21
  -5   5  -4    4.98    0.19
  -6   5  -4    2.19    0.19
  -6   5  -4    2.13    0.15
  -6   5  -4    2.13    0.22
  -7   5  -4   -0.05    0.09
  -7   5  -4    0.27    0.16
  -7   5  -4   -0.06    0.12
  -8   5  -4    0.12    0.14
  -8   5  -4    0.07    0.17
   8   4  -4    0.14    0.14
   7   4  -4    0.02    0.11
   6   4  -4    8.09    0.34
   5   4  -4    1.14    0.14
   4   4  -4    7.80    0.28
   3   4  -4    1.63    0.12
   3   4  -4    1.80    0.13
   2   4  -4   16.41    0.40
   2   4  -4   16.54    0.43
   1   4  -4    1.67    0.09
   1   4  -4    1.53    0.10
   1   4  -4    1.58    0.08
   1   4  -4    1.51    0.07
   0   4  -4    1.77    0.07
   0   4  -4    1.85    0.11
   0   4  -4    1.83    0.09
   0   4  -4    1.84    0.09
  -1   4  -4    1.04    0.05
  -1   4  -4    1.14    0.10
  -1   4  -4    1.02    0.09
  -1   4  -4    1.15    0.07
  -1   4  -4    1.04    0.06
  -2   4  -4   44.77    0.95
  -2   4  -4   45.67    0.89
  -2   4  -4   43.29    0.99
  -2   4  -4   43.30    1.01
  -2   4  -4   43.60    1.04
  -3   4  -4    3.71    0.13
  -3   4  -4    3.63    0.14
  -3   4  -4    3.88    0.19
  -3   4  -4    3.72    0.18
  -4   4  -4    0.51    0.08
  -4   4  -4    0.51    0.10
  -4   4  -4    0.54    0.10
  -4   4  -4    0.54    0.06
  -5   4  -4    7.43    0.31
  -5   4  -4    7.73    0.24
  -5   4  -4    7.90    0.26
  -6   4  -4    0.10    0.08
  -6   4  -4   -0.12    0.11
  -6   4  -4    0.05    0.09
  -7   4  -4    3.83    0.26
  -7   4  -4    3.57    0.21
  -7   4  -4    3.97    0.28
  -8   4  -4    0.97    0.14
  -8   4  -4    1.35    0.19
  -9  -3   4    0.16    0.16
   8   3  -4   -0.30    0.11
   7   3  -4    4.34    0.29
   6   3  -4    0.11    0.10
   5   3  -4    4.31    0.22
  -5  -3   4    4.12    0.17
   4   3  -4    0.70    0.10
   3   3  -4    0.41    0.07
   3   3  -4    0.51    0.08
   2   3  -4    9.41    0.25
   2   3  -4    9.29    0.27
   1   3  -4   43.63    0.88
   1   3  -4   44.28    0.95
   1   3  -4   45.48    0.98
   0   3  -4    0.68    0.06
   0   3  -4    0.70    0.07
   0   3  -4    0.72    0.03
   0   3  -4    0.70    0.06
   0   3  -4    0.72    0.04
  -1   3  -4    0.69    0.05
  -1   3  -4    0.73    0.05
  -1   3  -4    0.81    0.05
  -1   3  -4    0.65    0.07
  -1   3  -4    0.80    0.08
  -2   3  -4    0.18    0.06
  -2   3  -4    0.24    0.06
  -2   3  -4    0.25    0.04
  -2   3  -4    0.16    0.04
  -3   3  -4    0.04    0.06
  -3   3  -4    0.00    0.05
  -3   3  -4    0.06    0.04
  -3   3  -4    0.07    0.04
  -4   3  -4    1.34    0.10
  -4   3  -4    1.27    0.12
  -4   3  -4    1.40    0.11
  -5   3  -4    9.17    0.32
  -5   3  -4    8.73    0.28
  -5   3  -4    9.06    0.27
  -6   3  -4    2.25    0.17
  -6   3  -4    2.44    0.21
  -6   3  -4    2.16    0.16
  -7   3  -4    2.09    0.20
  -7   3  -4    2.12    0.19
  -7   3  -4    1.93    0.16
  -8   3  -4    0.77    0.14
  -8   3  -4    0.84    0.17
  -9  -2   4    0.29    0.16
   7   2  -4    3.87    0.27
   6   2  -4    0.15    0.10
  -6  -2   4    0.30    0.08
   5   2  -4   -0.06    0.07
  -5  -2   4    0.04    0.05
   4   2  -4   16.51    0.46
   3   2  -4    0.96    0.09
   3   2  -4    0.84    0.08
   2   2  -4    4.20    0.15
   2   2  -4    4.23    0.14
   1   2  -4    1.62    0.06
   1   2  -4    1.57    0.08
   0   2  -4    0.44    0.03
   0   2  -4    0.41    0.04
   0   2  -4    0.34    0.03
   0   2  -4    0.42    0.03
  -1   2  -4    5.88    0.14
  -1   2  -4    6.30    0.18
  -2   2  -4   13.14    0.34
  -2   2  -4   13.30    0.30
  -3   2  -4    2.87    0.11
  -3   2  -4    3.14    0.12
  -3   2  -4    2.93    0.14
   3  -2   4    2.84    0.12
  -4   2  -4    1.03    0.09
  -4   2  -4    0.97    0.09
  -4   2  -4    0.89    0.10
  -5   2  -4    4.22    0.18
  -5   2  -4    4.03    0.20
  -5   2  -4    3.64    0.18
  -6   2  -4    0.21    0.10
  -6   2  -4    0.22    0.09
  -6   2  -4    0.11    0.09
  -7   2  -4    4.37    0.26
  -7   2  -4    4.17    0.24
  -8   2  -4    2.39    0.22
  -8   2  -4    1.98    0.19
  -9  -1   4    0.00    0.14
  -8  -1   4    2.17    0.21
   7   1  -4    2.96    0.24
   6   1  -4    0.22    0.10
  -6  -1   4    0.16    0.08
   5   1  -4    9.01    0.33
  -5  -1   4    9.12    0.29
   4   1  -4    3.04    0.17
  -4  -1   4    3.34    0.15
   3   1  -4   78.13    1.70
   3   1  -4   80.08    1.73
   2   1  -4    3.63    0.13
   2   1  -4    3.53    0.13
   1   1  -4    9.79    0.24
   0   1  -4    2.08    0.06
   0   1  -4    2.10    0.07
  -1   1  -4    9.98    0.22
  -1   1  -4   10.39    0.25
  -1   1  -4   10.55    0.24
  -2   1  -4    1.24    0.07
  -2   1  -4    1.30    0.08
  -2   1  -4    1.27    0.07
   2  -1   4    1.26    0.07
  -3   1  -4    0.73    0.07
  -3   1  -4    0.79    0.07
   3  -1   4    0.73    0.07
  -4   1  -4    4.71    0.18
  -4   1  -4    4.46    0.17
   4  -1   4    4.38    0.18
  -5   1  -4    1.86    0.14
  -5   1  -4    1.88    0.14
  -6   1  -4    8.10    0.28
  -6   1  -4    7.68    0.29
  -7   1  -4    0.00    0.12
  -8   1  -4    0.14    0.13
  -8   1  -4    0.23    0.14
  -9   1  -4    0.59    0.16
  -9   0   4    0.58    0.18
  -8   0   4    1.60    0.20
  -7   0   4   11.01    0.39
   6   0  -4    8.44    0.34
  -6   0   4    8.89    0.32
   5   0  -4    4.27    0.22
  -5   0   4    3.82    0.19
   4   0  -4    9.57    0.31
  -4   0   4    9.71    0.29
   3   0  -4    0.05    0.05
  -3   0   4    0.03    0.04
   2   0  -4   41.78    0.92
   2   0  -4   40.32    0.89
   1   0  -4    2.20    0.08
  -1   0   4    2.22    0.08
   0   0  -4   64.35    1.27
   0   0   4   67.56    1.39
  -1   0  -4   12.80    0.29
  -1   0  -4   12.10    0.26
  -1   0  -4   12.55    0.29
   1   0   4   13.16    0.29
  -2   0  -4   28.57    0.62
  -2   0  -4   27.91    0.57
   2   0   4   27.84    0.64
  -3   0  -4    0.05    0.04
  -3   0  -4    0.02    0.04
   3   0   4    0.04    0.04
  -4   0  -4    0.70    0.07
  -4   0  -4    0.86    0.09
   4   0   4    0.76    0.09
  -5   0  -4    1.35    0.12
  -5   0  -4    1.44    0.11
   5   0   4    1.33    0.13
  -6   0  -4    0.79    0.12
  -7   0  -4    1.06    0.15
  -8   0  -4    1.01    0.18
  -9   0  -4    0.65    0.18
  -9   1   4   -0.03    0.14
  -8   1   4    1.44    0.19
  -7   1   4    0.25    0.11
  -7   1   4    0.45    0.12
  -6   1   4    3.54    0.21
   5  -1  -4    2.49    0.18
  -5   1   4    2.29    0.16
   4  -1  -4   12.92    0.38
  -4   1   4   12.25    0.36
   3  -1  -4    1.87    0.12
  -3   1   4    1.85    0.11
   2  -1  -4   20.73    0.51
  -2   1   4   21.79    0.51
  -1   1   4   37.27    0.81
   0  -1  -4    0.01    0.02
   0   1   4    0.10    0.02
   1   1   4   50.89    1.09
  -2  -1  -4   11.18    0.25
   2   1   4   11.38    0.29
  -3  -1  -4   15.46    0.36
   3   1   4   15.72    0.40
  -4  -1  -4    0.03    0.05
   4   1   4    0.07    0.05
  -5  -1  -4    7.43    0.25
   5   1   4    7.09    0.27
  -6  -1  -4    0.27    0.10
   6   1   4    0.19    0.09
  -7  -1  -4    2.13    0.19
  -8  -1  -4    5.73    0.31
  -9   2   4    1.04    0.19
  -8   2   4    4.22    0.29
  -8   2   4    4.47    0.31
  -7   2   4    1.60    0.16
  -7   2   4    1.75    0.19
  -6   2   4    0.30    0.09
  -6   2   4    0.30    0.08
  -6   2   4    0.44    0.11
  -5   2   4    0.13    0.08
  -5   2   4    0.28    0.08
   4  -2  -4    0.25    0.07
  -4   2   4    0.19    0.07
   3  -2  -4    6.24    0.21
  -3   2   4    6.03    0.22
   2  -2  -4   91.33    1.99
  -2   2   4   93.39    2.01
  -1   2   4   15.18    0.35
  -1   2   4   15.00    0.37
   0   2   4    2.30    0.07
   0   2   4    2.21    0.09
   1   2   4  285.77    6.04
  -2  -2  -4    4.67    0.13
   2   2   4    4.97    0.15
  -3  -2  -4   14.33    0.34
   3   2   4   15.10    0.39
  -4  -2  -4   23.28    0.53
   4   2   4   24.28    0.61
  -5  -2  -4    7.15    0.25
   5   2   4    7.55    0.28
  -6  -2  -4    0.53    0.11
   6   2   4    0.44    0.11
  -7  -2  -4    2.48    0.20
   7   2   4    1.80    0.19
  -8  -2  -4    0.21    0.14
  -9   3   4    1.75    0.22
  -8   3   4   -0.03    0.13
  -8   3   4    0.12    0.15
  -7   3   4    1.34    0.19
  -7   3   4    1.17    0.15
  -6   3   4    0.00    0.07
  -6   3   4    0.00    0.07
  -6   3   4    0.04    0.10
  -5   3   4    8.95    0.34
  -5   3   4    8.76    0.28
  -4   3   4   17.44    0.43
  -4   3   4   17.90    0.50
  -3   3   4   39.15    0.93
  -3   3   4   39.28    0.82
  -2   3   4    4.59    0.14
  -2   3   4    4.65    0.18
  -1   3   4    3.90    0.12
  -1   3   4    3.45    0.09
  -1   3   4    3.70    0.14
   0   3   4    0.15    0.03
   0   3   4    0.08    0.04
   1   3   4   45.56    0.98
   2   3   4   20.71    0.49
   3   3   4    2.67    0.13
  -4  -3  -4    7.16    0.22
   4   3   4    7.20    0.25
  -5  -3  -4   -0.03    0.07
   5   3   4    0.13    0.07
  -6  -3  -4    1.50    0.14
   6   3   4    1.27    0.15
  -7  -3  -4    2.32    0.19
   7   3   4    1.96    0.20
  -8  -3  -4    1.26    0.18
  -8   4   4    1.45    0.19
  -8   4   4    1.51    0.24
  -7   4   4    3.92    0.31
  -7   4   4    3.97    0.25
  -6   4   4    0.88    0.12
  -6   4   4    0.74    0.15
  -5   4   4    5.43    0.27
  -5   4   4    5.62    0.22
  -4   4   4    6.23    0.21
  -4   4   4    6.15    0.27
  -3   4   4    0.82    0.07
  -3   4   4    0.78    0.11
  -2   4   4    5.30    0.21
  -2   4   4    4.91    0.14
  -1   4   4    1.95    0.06
  -1   4   4    1.98    0.08
  -1   4   4    2.07    0.12
   0   4   4    1.02    0.05
   0   4   4    0.94    0.08
   1   4   4    0.55    0.05
   2   4   4   61.54    1.34
   3   4   4   43.34    0.99
   4   4   4    3.63    0.18
  -5  -4  -4    0.06    0.07
   5   4   4    0.07    0.08
  -6  -4  -4    6.01    0.25
   6   4   4    6.12    0.29
   7   4   4    3.76    0.26
   8   4   4    1.44    0.19
  -8   5   4    1.67    0.20
  -8   5   4    2.03    0.26
  -7   5   4    1.52    0.18
  -7   5   4    1.56    0.24
  -7   5   4    1.06    0.15
  -6   5   4    2.21    0.18
  -6   5   4    2.21    0.23
  -5   5   4    0.85    0.15
  -5   5   4    0.65    0.09
  -4   5   4    4.23    0.24
  -4   5   4    3.95    0.16
  -3   5   4    0.06    0.08
  -3   5   4    0.04    0.04
  -2   5   4    2.37    0.09
  -2   5   4    2.55    0.16
  -1   5   4    6.49    0.22
  -1   5   4    6.46    0.14
  -1   5   4    6.17    0.18
   0   5   4   -0.03    0.04
   0   5   4    0.00    0.03
   1   5   4    0.02    0.03
   2   5   4    5.46    0.17
   3   5   4    0.06    0.05
   4   5   4    0.65    0.09
   5   5   4    0.01    0.08
   6   5   4    0.49    0.12
   7   5   4    2.01    0.21
   8   5   4    3.31    0.28
  -8   6   4   -0.05    0.12
  -8   6   4   -0.21    0.18
  -7   6   4    0.67    0.15
  -7   6   4    0.86    0.21
  -7   6   4    0.70    0.14
  -6   6   4    0.01    0.14
  -6   6   4    0.05    0.09
  -5   6   4    1.25    0.12
  -5   6   4    1.23    0.18
  -4   6   4    2.68    0.14
  -4   6   4    2.52    0.22
  -3   6   4   10.21    0.36
  -3   6   4    9.63    0.25
  -2   6   4    5.31    0.23
  -2   6   4    5.18    0.14
  -1   6   4    0.15    0.07
  -1   6   4    0.17    0.02
  -1   6   4    0.23    0.05
   0   6   4   21.12    0.53
   0   6   4   22.19    0.49
   1   6   4    3.16    0.10
   2   6   4    9.82    0.26
   3   6   4    0.09    0.05
   4   6   4    3.15    0.17
   5   6   4    3.33    0.20
   6   6   4   -0.01    0.10
   7   6   4    0.30    0.13
  -7   7   4    0.30    0.14
  -7   7   4    0.44    0.21
  -7   7   4    0.49    0.13
  -6   7   4    0.11    0.16
  -6   7   4   -0.06    0.08
  -5   7   4    0.19    0.14
  -5   7   4    0.34    0.08
  -4   7   4   13.04    0.47
  -4   7   4   12.91    0.33
  -3   7   4    7.11    0.19
  -3   7   4    6.83    0.31
  -2   7   4    2.25    0.18
  -2   7   4    2.10    0.08
  -1   7   4    5.26    0.22
  -1   7   4    4.60    0.12
   0   7   4    5.03    0.20
   0   7   4    5.31    0.15
   1   7   4    0.00    0.04
   1   7   4    0.00    0.03
   2   7   4    1.27    0.08
   3   7   4    1.61    0.11
   4   7   4    1.59    0.13
   5   7   4    0.61    0.11
   6   7   4   -0.07    0.09
   7   7   4    1.96    0.19
  -7   8   4    0.21    0.21
  -7   8   4    0.21    0.11
  -7   8   4    0.15    0.15
  -6   8   4    0.44    0.16
  -6   8   4    0.07    0.19
  -6   8   4    0.45    0.10
  -5   8   4    7.63    0.41
  -5   8   4    7.00    0.24
  -4   8   4    3.09    0.27
  -4   8   4    2.50    0.13
  -3   8   4    2.04    0.20
  -3   8   4    1.71    0.09
  -2   8   4    0.13    0.10
  -1   8   4    0.74    0.11
   0   8   4    2.70    0.15
   2   8   4    2.33    0.10
   3   8   4    0.04    0.05
   4   8   4    0.96    0.10
   5   8   4    2.05    0.16
   6   8   4    0.28    0.10
  -6   9   4    2.66    0.32
  -6   9   4    2.41    0.28
  -5   9   4    0.48    0.19
  -4   9   4    1.18    0.20
  -3   9   4    0.44    0.15
  -2   9   4    0.01    0.10
  -1   9   4    0.57    0.11
   0   9   4   10.95    0.34
   2   9   4    0.32    0.05
   3   9   4    1.89    0.11
   4   9   4    4.17    0.17
   5   9   4    0.91    0.11
   6   9   4    0.99    0.13
  -5  10   4   -0.03    0.19
  -4  10   4    0.14    0.16
  -3  10   4    0.10    0.13
  -2  10   4    0.34    0.13
  -1  10   4    1.71    0.17
   3  10   4    0.76    0.07
   4  10   4    0.23    0.06
   5  10   4    0.36    0.08
  -4  11   4    5.00    0.37
  -3  11   4    0.15    0.15
  -2  11   4    0.33    0.13
  -3  12   4    1.49    0.21
   0  12  -5    0.91    0.14
  -1  12  -5    0.12    0.15
  -1  12  -5    0.40    0.13
  -2  12  -5   -0.29    0.14
  -2  12  -5   -0.10    0.08
  -2  12  -5    0.20    0.14
   2  11  -5    1.29    0.18
   1  11  -5    0.05    0.07
   1  11  -5    0.08    0.11
   0  11  -5    0.01    0.07
   0  11  -5    0.11    0.10
   0  11  -5    0.22    0.12
  -1  11  -5    0.77    0.16
  -1  11  -5    0.78    0.14
  -1  11  -5    0.56    0.09
  -2  11  -5    3.61    0.27
  -2  11  -5    3.30    0.30
  -2  11  -5    2.72    0.16
  -3  11  -5    1.21    0.21
  -3  11  -5    1.09    0.11
  -3  11  -5    1.30    0.20
  -4  11  -5    0.18    0.09
  -4  11  -5    0.26    0.18
  -4  11  -5    0.14    0.17
   2  10  -5    0.80    0.14
   1  10  -5    2.80    0.15
   1  10  -5    3.04    0.22
   1  10  -5    2.84    0.17
   1  10  -5    2.82    0.22
   0  10  -5    0.23    0.10
   0  10  -5    0.33    0.12
   0  10  -5    0.30    0.07
   0  10  -5    0.35    0.10
  -1  10  -5    0.06    0.12
  -1  10  -5   -0.09    0.08
  -1  10  -5    0.00    0.06
  -1  10  -5    0.00    0.10
  -2  10  -5    1.74    0.18
  -2  10  -5    1.47    0.12
  -2  10  -5    1.17    0.19
  -3  10  -5    2.77    0.27
  -3  10  -5    2.42    0.15
  -3  10  -5    2.39    0.25
  -4  10  -5    0.17    0.16
  -4  10  -5   -0.27    0.14
  -4  10  -5   -0.10    0.08
  -5  10  -5    0.43    0.11
  -5  10  -5    1.14    0.23
   6   9  -5    0.04    0.11
   5   9  -5    0.77    0.12
   3   9  -5    1.27    0.17
   2   9  -5   -0.06    0.09
   1   9  -5    0.88    0.13
   1   9  -5    0.86    0.12
   1   9  -5    0.71    0.08
   1   9  -5    0.70    0.09
   0   9  -5   -0.01    0.08
   0   9  -5    0.15    0.08
   0   9  -5   -0.02    0.09
   0   9  -5    0.12    0.06
  -1   9  -5    0.64    0.07
  -1   9  -5    0.66    0.11
  -1   9  -5    0.49    0.11
  -1   9  -5    0.64    0.13
  -2   9  -5    4.10    0.28
  -2   9  -5    4.14    0.16
  -2   9  -5    3.65    0.24
  -2   9  -5    3.87    0.20
  -3   9  -5    0.08    0.07
  -3   9  -5    0.11    0.13
  -3   9  -5    0.14    0.13
  -4   9  -5    1.34    0.20
  -4   9  -5    1.40    0.12
  -4   9  -5    1.59    0.21
  -5   9  -5    0.06    0.18
  -5   9  -5    0.13    0.09
  -6   9  -5    0.00    0.19
  -6   9  -5    0.04    0.11
   7   8  -5    0.16    0.13
   6   8  -5    1.77    0.18
   5   8  -5    1.53    0.15
   4   8  -5    0.98    0.11
   3   8  -5    0.16    0.10
   2   8  -5    0.34    0.07
   2   8  -5    0.36    0.10
   1   8  -5    4.50    0.18
   1   8  -5    5.00    0.17
   1   8  -5    4.43    0.22
   1   8  -5    4.56    0.21
   0   8  -5   -0.02    0.07
   0   8  -5   -0.05    0.06
   0   8  -5   -0.01    0.08
   0   8  -5    0.03    0.05
  -1   8  -5    2.15    0.11
  -1   8  -5    2.27    0.17
  -1   8  -5    2.37    0.20
  -1   8  -5    2.32    0.16
  -2   8  -5    6.87    0.31
  -2   8  -5    6.69    0.24
  -2   8  -5    6.66    0.28
  -2   8  -5    6.44    0.20
  -3   8  -5    6.78    0.21
  -3   8  -5    7.03    0.31
  -3   8  -5    6.48    0.24
  -3   8  -5    6.84    0.33
  -4   8  -5    7.74    0.37
  -4   8  -5    7.86    0.25
  -4   8  -5    8.27    0.37
  -5   8  -5    0.18    0.09
  -5   8  -5    0.19    0.17
  -6   8  -5    0.61    0.21
  -6   8  -5    0.36    0.12
   7   7  -5   -0.14    0.12
   6   7  -5    3.78    0.26
   5   7  -5    8.10    0.32
   4   7  -5    9.53    0.31
   3   7  -5    0.50    0.11
   2   7  -5    0.22    0.09
   2   7  -5    0.26    0.06
   1   7  -5    0.06    0.07
   1   7  -5    0.07    0.05
   1   7  -5    0.07    0.06
   1   7  -5   -0.01    0.04
   0   7  -5    0.73    0.10
   0   7  -5    0.94    0.08
   0   7  -5    0.88    0.10
   0   7  -5    0.87    0.10
  -1   7  -5    7.73    0.27
  -1   7  -5    7.83    0.21
  -1   7  -5    8.09    0.26
  -1   7  -5    7.77    0.30
  -2   7  -5    9.88    0.30
  -2   7  -5   10.40    0.34
  -2   7  -5    9.83    0.25
  -2   7  -5    9.79    0.36
  -3   7  -5   -0.03    0.06
  -3   7  -5    0.06    0.05
  -3   7  -5    0.01    0.10
  -3   7  -5   -0.01    0.09
  -4   7  -5    3.17    0.25
  -4   7  -5    3.59    0.17
  -4   7  -5    3.39    0.25
  -4   7  -5    3.39    0.16
  -5   7  -5    0.57    0.11
  -5   7  -5    0.56    0.16
  -5   7  -5    0.40    0.08
  -6   7  -5    6.24    0.38
  -6   7  -5    6.44    0.27
  -7   7  -5    1.64    0.25
  -7   7  -5    1.21    0.16
   8   6  -5    0.05    0.14
   7   6  -5    0.01    0.12
   6   6  -5    1.12    0.17
   5   6  -5    2.41    0.19
   4   6  -5    6.17    0.24
   4   6  -5    6.46    0.29
   3   6  -5    0.98    0.13
   3   6  -5    0.97    0.10
   2   6  -5    6.08    0.24
   2   6  -5    5.86    0.18
   1   6  -5   10.45    0.29
   1   6  -5   10.66    0.26
   1   6  -5   10.96    0.31
   1   6  -5   10.47    0.32
   0   6  -5    0.47    0.07
   0   6  -5    0.46    0.05
   0   6  -5    0.45    0.08
   0   6  -5    0.23    0.07
  -1   6  -5    5.25    0.23
  -1   6  -5    5.08    0.18
  -1   6  -5    5.26    0.20
  -1   6  -5    4.97    0.15
  -2   6  -5   21.47    0.59
  -2   6  -5   20.29    0.55
  -2   6  -5   20.84    0.51
  -2   6  -5   21.70    0.46
  -3   6  -5    0.57    0.12
  -3   6  -5    0.72    0.08
  -3   6  -5    0.69    0.08
  -3   6  -5    0.81    0.12
  -4   6  -5    0.54    0.08
  -4   6  -5    0.49    0.07
  -4   6  -5    0.61    0.13
  -4   6  -5    0.48    0.12
  -5   6  -5    0.31    0.13
  -5   6  -5    0.17    0.09
  -5   6  -5    0.25    0.08
  -6   6  -5   13.13    0.50
  -6   6  -5   13.63    0.40
  -6   6  -5   12.89    0.37
  -7   6  -5    0.13    0.13
  -7   6  -5    0.09    0.16
   8   5  -5    0.26    0.16
   7   5  -5    5.40    0.32
   6   5  -5    0.78    0.14
   5   5  -5    0.07    0.09
   4   5  -5   14.14    0.42
   4   5  -5   14.57    0.44
   3   5  -5    0.40    0.07
   3   5  -5    0.33    0.08
   2   5  -5    5.37    0.21
   2   5  -5    5.25    0.17
   2   5  -5    5.42    0.16
   1   5  -5   11.27    0.32
   1   5  -5   11.31    0.29
   1   5  -5   10.80    0.26
   0   5  -5    3.52    0.15
   0   5  -5    3.71    0.16
   0   5  -5    3.49    0.11
   0   5  -5    3.78    0.14
  -1   5  -5    0.09    0.03
  -1   5  -5    0.04    0.04
  -1   5  -5    0.08    0.06
  -1   5  -5    0.11    0.04
  -1   5  -5    0.04    0.05
  -2   5  -5   35.84    0.78
  -2   5  -5   35.75    0.87
  -2   5  -5   33.07    0.80
  -2   5  -5   35.38    0.72
  -2   5  -5   34.74    0.83
  -3   5  -5    0.57    0.11
  -3   5  -5    0.61    0.06
  -3   5  -5    0.47    0.10
  -3   5  -5    0.68    0.07
  -4   5  -5    0.14    0.10
  -4   5  -5    0.20    0.06
  -4   5  -5    0.15    0.09
  -4   5  -5    0.14    0.07
  -5   5  -5   12.98    0.45
  -5   5  -5   12.94    0.37
  -5   5  -5   13.41    0.36
  -6   5  -5    0.63    0.13
  -6   5  -5    0.57    0.17
  -6   5  -5    0.54    0.10
  -7   5  -5    0.77    0.12
  -7   5  -5    1.03    0.19
  -7   5  -5    0.85    0.16
  -8   5  -5    3.30    0.28
   8   4  -5    2.93    0.27
   7   4  -5    1.55    0.20
   6   4  -5    0.26    0.11
   5   4  -5    1.26    0.14
   4   4  -5    5.90    0.24
   4   4  -5    5.50    0.24
   3   4  -5    0.24    0.06
   3   4  -5    0.38    0.08
   2   4  -5    1.00    0.09
   2   4  -5    0.97    0.08
   1   4  -5    3.05    0.11
   1   4  -5    3.07    0.10
   1   4  -5    3.16    0.09
   1   4  -5    3.06    0.13
   0   4  -5    1.25    0.08
   0   4  -5    1.41    0.06
   0   4  -5    1.45    0.09
   0   4  -5    1.38    0.05
   0   4  -5    1.46    0.10
  -1   4  -5   19.02    0.40
  -1   4  -5   18.94    0.46
  -1   4  -5   18.25    0.43
  -1   4  -5   19.05    0.49
  -1   4  -5   18.41    0.43
  -2   4  -5    5.13    0.20
  -2   4  -5    5.09    0.21
  -2   4  -5    5.39    0.16
  -2   4  -5    5.36    0.18
  -3   4  -5    4.28    0.15
  -3   4  -5    4.25    0.20
  -3   4  -5    4.39    0.15
  -3   4  -5    4.32    0.20
  -4   4  -5    3.93    0.21
  -4   4  -5    4.24    0.15
  -4   4  -5    4.13    0.17
  -5   4  -5    0.71    0.10
  -5   4  -5    0.59    0.13
  -5   4  -5    0.66    0.09
  -6   4  -5    0.01    0.10
  -6   4  -5   -0.01    0.08
  -6   4  -5    0.09    0.12
  -7   4  -5    1.14    0.13
  -7   4  -5    1.37    0.17
  -7   4  -5    1.38    0.18
  -8   4  -5    8.54    0.36
  -8   4  -5    6.76    0.30
   8   3  -5    1.63    0.22
   7   3  -5    0.03    0.11
   6   3  -5   -0.07    0.09
   5   3  -5    2.16    0.18
  -5  -3   5    2.26    0.14
   4   3  -5    2.70    0.17
   3   3  -5    1.04    0.10
   3   3  -5    0.98    0.10
   2   3  -5    0.05    0.05
   2   3  -5    0.05    0.04
   1   3  -5    3.00    0.12
   1   3  -5    3.02    0.09
   1   3  -5    2.96    0.09
   0   3  -5   23.88    0.51
   0   3  -5   23.59    0.53
   0   3  -5   23.38    0.54
   0   3  -5   23.47    0.48
  -1   3  -5   84.91    1.64
  -1   3  -5   85.00    1.82
  -1   3  -5   82.49    1.79
  -1   3  -5   85.22    1.78
  -2   3  -5   22.47    0.50
  -2   3  -5   22.32    0.54
  -2   3  -5   22.37    0.47
  -3   3  -5    0.02    0.06
  -3   3  -5    0.09    0.05
  -3   3  -5    0.11    0.04
  -4   3  -5    7.09    0.22
  -4   3  -5    7.00    0.22
  -4   3  -5    7.08    0.26
  -5   3  -5    0.43    0.11
  -5   3  -5    0.32    0.08
  -5   3  -5    0.45    0.09
  -6   3  -5   -0.12    0.09
  -6   3  -5    0.09    0.11
  -6   3  -5   -0.04    0.08
  -7   3  -5    3.98    0.22
  -7   3  -5    4.02    0.26
  -7   3  -5    3.77    0.25
  -8   3  -5    1.86    0.21
  -8   3  -5    1.86    0.17
  -9  -2   5    1.48    0.22
   7   2  -5    1.08    0.17
   6   2  -5   -0.03    0.10
  -6  -2   5   -0.02    0.06
   5   2  -5    0.00    0.08
  -5  -2   5   -0.02    0.05
   4   2  -5    0.08    0.07
   3   2  -5    0.34    0.07
   3   2  -5    0.38    0.06
   2   2  -5   45.11    0.99
   2   2  -5   43.84    0.98
   1   2  -5    0.87    0.05
   1   2  -5    0.89    0.07
   0   2  -5  101.06    2.17
   0   2  -5  103.88    1.97
   0   2  -5  100.54    2.13
  -1   2  -5   41.80    0.83
  -1   2  -5   42.36    0.93
  -1   2  -5   42.72    0.90
  -2   2  -5    3.46    0.13
  -2   2  -5    3.29    0.11
  -3   2  -5    0.84    0.08
  -3   2  -5    0.81    0.07
  -3   2  -5    0.91    0.08
   3  -2   5    0.81    0.07
  -4   2  -5    1.48    0.14
  -4   2  -5    1.55    0.12
  -4   2  -5    1.33    0.11
  -5   2  -5    1.04    0.12
  -5   2  -5    1.22    0.13
  -5   2  -5    1.01    0.11
  -6   2  -5    1.14    0.13
  -6   2  -5    1.26    0.14
  -6   2  -5    1.16    0.14
  -7   2  -5    0.11    0.11
  -7   2  -5    0.02    0.12
  -8   2  -5    0.21    0.15
  -8   2  -5    0.25    0.13
  -9  -1   5    0.73    0.18
   7   1  -5    0.08    0.11
   6   1  -5    1.08    0.15
  -6  -1   5    0.92    0.12
   5   1  -5    3.11    0.20
  -5  -1   5    3.19    0.17
   4   1  -5    2.60    0.16
  -4  -1   5    2.82    0.14
   3   1  -5    0.85    0.08
   3   1  -5    0.65    0.08
   2   1  -5   14.44    0.36
   2   1  -5   14.73    0.37
   1   1  -5    2.79    0.09
   1   1  -5    2.76    0.10
   0   1  -5    5.81    0.13
   0   1  -5    5.60    0.14
  -1   1  -5    0.28    0.03
  -1   1  -5    0.34    0.04
  -1   1  -5    0.21    0.03
  -2   1  -5    1.16    0.07
  -2   1  -5    1.08    0.08
  -2   1  -5    1.04    0.07
   2  -1   5    1.18    0.07
  -3   1  -5    0.04    0.05
  -3   1  -5    0.02    0.04
  -3   1  -5    0.05    0.04
   3  -1   5    0.01    0.03
  -4   1  -5    1.54    0.12
  -4   1  -5    1.67    0.12
   4  -1   5    1.40    0.11
  -5   1  -5    0.58    0.09
  -5   1  -5    0.43    0.09
  -6   1  -5    0.15    0.10
  -7   1  -5    1.11    0.16
  -8   1  -5    0.77    0.17
  -8   1  -5    0.50    0.14
  -9   0   5    0.45    0.17
  -8   0   5    4.08    0.28
  -7   0   5   -0.01    0.09
   6   0  -5    0.17    0.10
  -6   0   5    0.00    0.07
   5   0  -5    0.48    0.10
  -5   0   5    0.34    0.08
   4   0  -5    1.76    0.14
  -4   0   5    1.63    0.12
   3   0  -5    0.23    0.06
   2   0  -5   21.57    0.51
   2   0  -5   21.62    0.49
   1   0  -5    0.14    0.03
  -1   0   5    0.18    0.03
   0   0  -5    0.20    0.02
   0   0   5    0.20    0.02
  -1   0  -5   12.63    0.29
   1   0   5   12.55    0.29
  -2   0  -5   13.92    0.31
  -2   0  -5   14.44    0.33
   2   0   5   14.18    0.34
  -3   0  -5    3.77    0.13
  -3   0  -5    3.58    0.13
   3   0   5    3.56    0.14
  -4   0  -5   18.35    0.44
  -4   0  -5   18.18    0.43
   4   0   5   18.27    0.48
  -5   0  -5    0.40    0.09
  -5   0  -5    0.39    0.07
   5   0   5    0.36    0.08
  -6   0  -5    0.44    0.11
  -7   0  -5    4.14    0.25
  -8   0  -5    0.23    0.14
  -9   1   5    0.99    0.20
  -8   1   5    1.50    0.20
  -8   1   5    1.34    0.19
  -7   1   5    0.02    0.08
  -7   1   5   -0.03    0.10
  -6   1   5    0.30    0.10
   5  -1  -5    3.46    0.20
  -5   1   5    3.71    0.19
   4  -1  -5   22.38    0.59
  -4   1   5   22.74    0.58
   3  -1  -5   16.33    0.43
  -3   1   5   16.57    0.43
   2  -1  -5   42.91    0.94
   2  -1  -5   41.21    0.90
   1  -1  -5   30.15    0.64
  -1   1   5   30.40    0.67
   0  -1  -5    0.33    0.03
   0   1   5    0.30    0.03
  -1  -1  -5   75.97    1.49
   1   1   5   78.70    1.64
  -2  -1  -5    2.91    0.09
   2   1   5    3.12    0.11
  -3  -1  -5    2.82    0.11
   3   1   5    2.94    0.13
  -4  -1  -5   10.19    0.28
   4   1   5   10.06    0.31
  -5  -1  -5    2.46    0.16
   5   1   5    2.23    0.16
  -6  -1  -5    1.04    0.13
   6   1   5    0.87    0.12
  -7  -1  -5    0.24    0.12
  -8  -1  -5    0.37    0.15
  -9   2   5    2.89    0.26
  -8   2   5    2.84    0.24
  -8   2   5    2.79    0.26
  -7   2   5    2.10    0.20
  -7   2   5    2.08    0.21
  -6   2   5    0.88    0.14
  -6   2   5    1.15    0.13
  -5   2   5   13.44    0.42
   4  -2  -5    2.71    0.16
  -4   2   5    2.61    0.16
   3  -2  -5   13.79    0.38
  -3   2   5   13.89    0.39
   2  -2  -5   95.89    2.07
  -2   2   5   96.11    2.09
  -1   2   5   40.69    0.93
  -1   2   5   42.24    0.90
   0  -2  -5   15.71    0.35
   0   2   5   16.39    0.36
   1   2   5    3.69    0.11
  -2  -2  -5    5.81    0.14
   2   2   5    6.04    0.18
  -3  -2  -5    0.85    0.07
   3   2   5    0.96    0.09
  -4  -2  -5    0.10    0.06
   4   2   5    0.03    0.06
  -5  -2  -5    3.12    0.17
   5   2   5    3.28    0.19
  -6  -2  -5    0.12    0.10
   6   2   5    0.04    0.08
  -7  -2  -5    1.77    0.17
  -8  -2  -5    0.14    0.13
  -9   3   5    4.39    0.33
  -8   3   5    0.46    0.17
  -8   3   5    0.42    0.15
  -7   3   5    1.24    0.16
  -7   3   5    1.11    0.18
  -6   3   5    1.10    0.13
  -6   3   5    0.76    0.14
  -5   3   5    1.65    0.13
  -5   3   5    1.51    0.16
  -4   3   5   37.31    0.93
  -4   3   5   37.97    0.82
   3  -3  -5   15.72    0.42
  -3   3   5   15.15    0.44
  -3   3   5   15.78    0.37
  -2   3   5    7.45    0.25
  -2   3   5    7.74    0.19
  -1   3   5    1.39    0.10
  -1   3   5    1.34    0.07
   0   3   5    4.03    0.11
   0   3   5    4.06    0.14
   1   3   5   27.90    0.62
   2   3   5    3.28    0.12
  -3  -3  -5    3.90    0.13
   3   3   5    4.42    0.17
  -4  -3  -5    1.63    0.11
   4   3   5    1.77    0.13
  -5  -3  -5    0.55    0.09
   5   3   5    0.47    0.09
  -6  -3  -5    9.41    0.32
   6   3   5    9.81    0.36
  -7  -3  -5    0.25    0.12
   7   3   5    0.19    0.12
  -8   4   5    4.18    0.29
  -8   4   5    4.17    0.35
  -7   4   5    0.79    0.19
  -7   4   5    1.02    0.15
  -6   4   5    0.41    0.10
  -6   4   5    0.32    0.13
  -5   4   5    0.88    0.11
  -5   4   5    0.55    0.13
  -4   4   5   10.22    0.29
  -4   4   5   10.53    0.37
  -3   4   5   32.95    0.69
  -3   4   5   32.13    0.81
  -2   4   5    0.40    0.08
  -2   4   5    0.41    0.04
  -1   4   5    1.27    0.10
  -1   4   5    1.19    0.07
   0   4   5   13.72    0.31
   0   4   5   13.30    0.35
   1   4   5   18.38    0.42
   2   4   5   28.33    0.65
   3   4   5   34.59    0.80
  -4  -4  -5    0.79    0.08
   4   4   5    0.69    0.09
  -5  -4  -5    2.63    0.16
   5   4   5    2.62    0.18
   6   4   5    1.57    0.16
   7   4   5   -0.11    0.10
  -8   5   5    0.22    0.19
  -8   5   5   -0.07    0.12
  -7   5   5    1.52    0.18
  -7   5   5    1.97    0.20
  -7   5   5    2.08    0.26
  -6   5   5    1.17    0.20
  -6   5   5    1.35    0.15
  -5   5   5    0.42    0.12
  -5   5   5    0.51    0.09
  -4   5   5    4.46    0.17
  -4   5   5    4.31    0.24
  -3   5   5   11.15    0.38
  -3   5   5   11.51    0.28
  -2   5   5    0.20    0.07
  -2   5   5    0.24    0.04
  -1   5   5    2.20    0.13
  -1   5   5    1.85    0.09
   0   5   5    8.99    0.27
   0   5   5    9.47    0.23
   1   5   5    0.91    0.06
   2   5   5   12.44    0.31
   3   5   5   44.56    1.01
   4   5   5    0.49    0.08
   5   5   5    2.11    0.17
   6   5   5    0.13    0.10
   7   5   5    6.46    0.32
   8   5   5    0.43    0.15
  -8   6   5    0.09    0.12
  -8   6   5    0.02    0.19
  -7   6   5    0.14    0.18
  -7   6   5    0.02    0.11
  -7   6   5    0.08    0.11
  -6   6   5    1.78    0.16
  -6   6   5    2.01    0.25
  -5   6   5    1.64    0.20
  -5   6   5    1.82    0.14
  -4   6   5   11.13    0.30
  -4   6   5   11.14    0.41
  -3   6   5    0.13    0.04
  -3   6   5    0.09    0.09
  -2   6   5    0.04    0.03
  -2   6   5    0.06    0.07
  -1   6   5   -0.09    0.06
  -1   6   5    0.00    0.04
   0   6   5    0.39    0.07
   0   6   5    0.61    0.05
   1   6   5   12.74    0.31
   2   6   5    0.99    0.08
   3   6   5   30.29    0.71
   4   6   5    4.10    0.19
   5   6   5    2.74    0.18
   6   6   5    2.40    0.20
   7   6   5    0.89    0.15
  -7   7   5    0.14    0.14
  -7   7   5    0.49    0.12
  -7   7   5    0.54    0.22
  -6   7   5    0.35    0.09
  -6   7   5    0.26    0.18
  -5   7   5    0.78    0.17
  -5   7   5    0.81    0.10
  -4   7   5    5.65    0.31
  -4   7   5    5.74    0.19
  -3   7   5    0.35    0.05
  -3   7   5    0.52    0.13
  -2   7   5    0.49    0.04
  -2   7   5    0.53    0.11
  -1   7   5    0.10    0.07
  -1   7   5    0.09    0.04
   0   7   5    0.88    0.08
   0   7   5    0.98    0.10
   1   7   5    9.72    0.25
   2   7   5    0.79    0.08
   3   7   5    1.87    0.11
   4   7   5    0.04    0.06
   5   7   5    0.87    0.11
   6   7   5   -0.12    0.09
   7   7   5    1.27    0.16
  -7   8   5    0.30    0.16
  -7   8   5    0.07    0.22
  -7   8   5    0.12    0.10
  -6   8   5    0.37    0.10
  -6   8   5    0.67    0.21
  -5   8   5    1.95    0.14
  -5   8   5    1.96    0.24
  -4   8   5    0.78    0.08
  -4   8   5    0.56    0.16
  -3   8   5    0.11    0.12
  -2   8   5    0.09    0.09
  -1   8   5    0.87    0.12
   0   8   5    0.61    0.09
   0   8   5    0.58    0.07
   1   8   5    0.89    0.08
   2   8   5    2.25    0.11
   3   8   5    1.39    0.10
   4   8   5    0.19    0.07
   5   8   5    0.86    0.11
   6   8   5   -0.08    0.09
  -6   9   5    0.23    0.17
  -6   9   5    0.07    0.21
  -5   9   5    1.40    0.24
  -4   9   5    1.95    0.24
  -3   9   5    0.08    0.13
  -2   9   5    0.67    0.13
  -1   9   5   -0.05    0.08
   0   9   5    2.83    0.13
   1   9   5    0.16    0.05
   2   9   5    1.81    0.10
   3   9   5    2.22    0.12
   4   9   5    0.62    0.08
   5   9   5    0.14    0.08
  -5  10   5    2.18    0.29
  -4  10   5   -0.12    0.15
  -3  10   5    0.13    0.14
  -2  10   5    1.43    0.18
  -1  10   5    6.62    0.29
   3  10   5    0.24    0.06
   4  10   5    0.65    0.08
   5  10   5    0.82    0.10
  -4  11   5    0.67    0.20
  -3  11   5    0.05    0.14
  -2  11   5    1.77    0.20
   2  12  -6    0.79    0.17
   0  12  -6    1.84    0.17
   0  12  -6    1.71    0.16
  -1  12  -6    0.01    0.09
  -1  12  -6    0.24    0.13
  -2  12  -6   -0.09    0.09
  -2  12  -6    0.08    0.14
   2  11  -6    0.32    0.14
   1  11  -6    0.34    0.13
   1  11  -6    0.49    0.09
   0  11  -6    0.09    0.10
   0  11  -6    0.12    0.11
   0  11  -6    0.10    0.08
  -1  11  -6    0.14    0.08
  -1  11  -6    0.15    0.11
  -2  11  -6    1.73    0.19
  -2  11  -6    1.45    0.12
  -2  11  -6    1.49    0.21
  -3  11  -6    2.57    0.24
  -3  11  -6    2.09    0.16
  -4  11  -6    0.21    0.18
  -4  11  -6    0.06    0.09
   3  10  -6    1.06    0.17
   2  10  -6    2.13    0.21
   1  10  -6    1.60    0.17
   1  10  -6    1.32    0.12
   1  10  -6    1.43    0.13
   0  10  -6   -0.04    0.06
   0  10  -6    0.06    0.10
   0  10  -6   -0.05    0.08
   0  10  -6   -0.01    0.10
  -1  10  -6    1.69    0.16
  -1  10  -6    1.71    0.17
  -1  10  -6    1.74    0.19
  -1  10  -6    1.80    0.13
  -2  10  -6    6.46    0.35
  -2  10  -6    6.48    0.32
  -2  10  -6    6.44    0.22
  -3  10  -6    3.58    0.29
  -3  10  -6    2.88    0.16
  -3  10  -6    2.92    0.29
  -4  10  -6    0.09    0.17
  -4  10  -6    0.13    0.09
  -5  10  -6    0.28    0.20
  -5  10  -6    0.04    0.10
   6   9  -6    2.50    0.23
   5   9  -6   -0.02    0.10
   3   9  -6    0.62    0.14
   2   9  -6    0.52    0.12
   1   9  -6    1.45    0.12
   1   9  -6    1.30    0.15
   1   9  -6    1.44    0.13
   0   9  -6    0.04    0.06
   0   9  -6   -0.02    0.09
   0   9  -6    0.12    0.09
   0   9  -6    0.00    0.07
  -1   9  -6   11.75    0.38
  -1   9  -6   11.30    0.30
  -1   9  -6   10.86    0.37
  -1   9  -6   11.12    0.41
  -2   9  -6    6.93    0.28
  -2   9  -6    7.61    0.35
  -2   9  -6    7.56    0.23
  -2   9  -6    7.43    0.32
  -3   9  -6    1.69    0.19
  -3   9  -6    1.29    0.14
  -3   9  -6    1.32    0.19
  -3   9  -6    1.56    0.13
  -4   9  -6    0.81    0.18
  -4   9  -6    0.49    0.10
  -5   9  -6    0.12    0.09
  -5   9  -6    0.37    0.18
  -6   9  -6    0.16    0.19
  -6   9  -6    0.05    0.11
   7   8  -6    0.10    0.13
   6   8  -6   -0.14    0.11
   5   8  -6    0.00    0.10
   4   8  -6    9.67    0.32
   3   8  -6    0.02    0.10
   2   8  -6   13.51    0.35
   2   8  -6   13.72    0.44
   1   8  -6    1.15    0.10
   1   8  -6    1.07    0.10
   1   8  -6    1.16    0.13
   0   8  -6    8.89    0.31
   0   8  -6    9.09    0.25
   0   8  -6    9.68    0.34
   0   8  -6    9.52    0.30
  -1   8  -6    3.09    0.19
  -1   8  -6    3.01    0.18
  -1   8  -6    3.17    0.13
  -1   8  -6    3.58    0.22
  -2   8  -6    1.00    0.11
  -2   8  -6    0.89    0.08
  -2   8  -6    1.03    0.15
  -2   8  -6    0.96    0.13
  -3   8  -6   -0.06    0.10
  -3   8  -6    0.10    0.08
  -3   8  -6    0.11    0.06
  -3   8  -6    0.02    0.12
  -4   8  -6    0.02    0.14
  -4   8  -6    0.20    0.08
  -4   8  -6    0.14    0.08
  -5   8  -6    0.04    0.16
  -5   8  -6    0.15    0.09
  -6   8  -6    2.46    0.21
  -6   8  -6    2.63    0.27
   7   7  -6    0.11    0.14
   6   7  -6    0.32    0.13
   5   7  -6    6.46    0.28
   4   7  -6    4.86    0.27
   4   7  -6    4.80    0.22
   3   7  -6    0.12    0.10
   3   7  -6    0.04    0.06
   2   7  -6    0.46    0.07
   2   7  -6    0.49    0.10
   1   7  -6    6.07    0.21
   1   7  -6    6.14    0.25
   1   7  -6    6.24    0.19
   0   7  -6    0.29    0.08
   0   7  -6    0.27    0.08
   0   7  -6    0.32    0.05
   0   7  -6    0.16    0.08
  -1   7  -6    0.76    0.12
  -1   7  -6    0.74    0.09
  -1   7  -6    0.98    0.08
  -1   7  -6    0.96    0.11
  -2   7  -6    0.95    0.12
  -2   7  -6    0.76    0.12
  -2   7  -6    0.75    0.08
  -2   7  -6    0.71    0.09
  -3   7  -6    0.57    0.07
  -3   7  -6    0.55    0.09
  -3   7  -6    0.46    0.12
  -3   7  -6    0.51    0.12
  -4   7  -6    0.11    0.08
  -4   7  -6    0.07    0.07
  -4   7  -6   -0.07    0.12
  -5   7  -6    0.48    0.16
  -5   7  -6    0.42    0.10
  -5   7  -6    0.37    0.09
  -6   7  -6    2.68    0.21
  -6   7  -6    3.03    0.27
  -7   7  -6   -0.06    0.13
  -7   7  -6   -0.17    0.17
   8   6  -6    0.06    0.15
   7   6  -6    0.08    0.14
   6   6  -6    1.95    0.19
   5   6  -6    1.33    0.15
   4   6  -6    0.22    0.10
   4   6  -6    0.22    0.09
   3   6  -6    2.38    0.18
   3   6  -6    2.39    0.14
   2   6  -6    0.17    0.06
   2   6  -6    0.25    0.08
   1   6  -6   18.68    0.50
   1   6  -6   18.86    0.46
   1   6  -6   18.92    0.42
   0   6  -6   16.01    0.44
   0   6  -6   15.15    0.40
   0   6  -6   15.60    0.35
   0   6  -6   15.03    0.41
  -1   6  -6    0.13    0.07
  -1   6  -6    0.11    0.07
  -1   6  -6    0.10    0.04
  -1   6  -6    0.13    0.04
  -1   6  -6    0.16    0.06
  -2   6  -6    8.85    0.27
  -2   6  -6    8.99    0.30
  -2   6  -6    9.17    0.23
  -2   6  -6    9.12    0.33
  -3   6  -6    3.11    0.20
  -3   6  -6    2.95    0.14
  -3   6  -6    2.92    0.21
  -3   6  -6    2.87    0.13
  -4   6  -6    2.65    0.14
  -4   6  -6    2.60    0.15
  -4   6  -6    2.70    0.22
  -5   6  -6    8.59    0.28
  -5   6  -6    8.66    0.38
  -5   6  -6    8.84    0.29
  -6   6  -6    0.68    0.13
  -6   6  -6    0.57    0.18
  -6   6  -6    0.64    0.11
  -7   6  -6    5.21    0.28
  -7   6  -6    4.70    0.34
   8   5  -6    1.79    0.23
   7   5  -6    0.58    0.16
   6   5  -6    0.19    0.11
   5   5  -6    0.03    0.09
   4   5  -6   12.25    0.40
   4   5  -6   12.27    0.37
   3   5  -6    2.59    0.14
   3   5  -6    2.28    0.16
   2   5  -6    0.29    0.04
   2   5  -6    0.23    0.08
   2   5  -6    0.19    0.05
   2   5  -6    0.16    0.05
   1   5  -6    9.63    0.29
   1   5  -6    9.70    0.26
   1   5  -6    9.71    0.24
   0   5  -6    0.60    0.07
   0   5  -6    0.53    0.07
   0   5  -6    0.53    0.05
  -1   5  -6    1.95    0.14
  -1   5  -6    1.74    0.09
  -1   5  -6    1.85    0.08
  -1   5  -6    1.89    0.11
  -1   5  -6    1.67    0.12
  -2   5  -6   15.85    0.44
  -2   5  -6   16.64    0.37
  -2   5  -6   16.46    0.47
  -2   5  -6   16.22    0.40
  -3   5  -6    5.61    0.24
  -3   5  -6    5.69    0.18
  -3   5  -6    5.59    0.18
  -4   5  -6   -0.03    0.06
  -4   5  -6    0.01    0.06
  -4   5  -6    0.00    0.10
  -5   5  -6    8.01    0.35
  -5   5  -6    9.23    0.28
  -5   5  -6    9.12    0.29
  -6   5  -6    4.79    0.22
  -6   5  -6    4.54    0.30
  -6   5  -6    4.72    0.24
  -7   5  -6    6.41    0.35
  -7   5  -6    5.66    0.26
  -7   5  -6    6.67    0.31
  -8   5  -6    0.55    0.16
   8   4  -6    0.04    0.15
   7   4  -6    0.32    0.15
   6   4  -6    1.93    0.19
   5   4  -6   -0.13    0.08
   4   4  -6    1.59    0.16
   4   4  -6    1.63    0.15
   3   4  -6    2.69    0.15
   3   4  -6    2.57    0.16
   2   4  -6    4.75    0.19
   2   4  -6    4.86    0.15
   2   4  -6    5.08    0.15
   2   4  -6    5.05    0.17
   1   4  -6   14.83    0.32
   1   4  -6   13.75    0.37
   1   4  -6   13.66    0.31
   0   4  -6    8.66    0.20
   0   4  -6    8.67    0.24
   0   4  -6    8.17    0.20
   0   4  -6    8.47    0.24
  -1   4  -6   10.31    0.29
  -1   4  -6    9.95    0.26
  -1   4  -6   10.86    0.27
  -1   4  -6   10.08    0.24
  -2   4  -6   21.89    0.57
  -2   4  -6   23.33    0.57
  -2   4  -6   23.43    0.53
  -2   4  -6   24.39    0.50
  -3   4  -6   15.85    0.38
  -3   4  -6   15.59    0.36
  -3   4  -6   15.31    0.43
  -4   4  -6    7.03    0.22
  -4   4  -6    7.07    0.23
  -4   4  -6    7.30    0.28
  -5   4  -6    6.16    0.28
  -5   4  -6    6.64    0.23
  -5   4  -6    6.44    0.24
  -6   4  -6    2.70    0.18
  -6   4  -6    2.80    0.20
  -6   4  -6    2.93    0.25
  -7   4  -6    0.96    0.15
  -7   4  -6    0.91    0.17
  -7   4  -6    0.83    0.13
  -8   4  -6    1.39    0.18
  -8   4  -6    0.79    0.15
   8   3  -6    0.10    0.15
   7   3  -6    3.08    0.27
   6   3  -6    2.23    0.21
  -6  -3   6    2.31    0.16
   5   3  -6   12.64    0.41
   4   3  -6    0.52    0.10
   4   3  -6    0.44    0.10
   3   3  -6    5.68    0.21
   3   3  -6    5.85    0.21
   2   3  -6    1.42    0.10
   2   3  -6    1.37    0.08
   2   3  -6    1.34    0.09
   1   3  -6   13.04    0.29
   1   3  -6   12.28    0.32
   1   3  -6   11.95    0.28
   0   3  -6    1.33    0.06
   0   3  -6    1.72    0.09
   0   3  -6    1.57    0.06
   0   3  -6    1.60    0.08
  -1   3  -6   81.52    1.74
  -1   3  -6   80.16    1.57
  -1   3  -6   79.08    1.69
  -2   3  -6    3.19    0.11
  -2   3  -6    3.11    0.14
  -3   3  -6    1.01    0.09
  -3   3  -6    0.86    0.09
  -3   3  -6    1.16    0.09
  -4   3  -6   37.34    0.79
  -4   3  -6   37.58    0.83
  -4   3  -6   35.77    0.88
  -5   3  -6    4.25    0.22
  -5   3  -6    4.24    0.19
  -5   3  -6    4.25    0.20
  -6   3  -6    1.23    0.15
  -6   3  -6    1.22    0.14
  -6   3  -6    1.03    0.12
  -7   3  -6    0.26    0.11
  -7   3  -6    0.19    0.13
  -8   3  -6    1.23    0.19
  -8   3  -6    1.33    0.16
  -9  -2   6    0.08    0.16
   7   2  -6    0.11    0.13
   6   2  -6    8.54    0.35
  -6  -2   6    8.24    0.30
   5   2  -6    0.12    0.09
  -5  -2   6    0.09    0.06
   4   2  -6    0.94    0.11
   4   2  -6    0.96    0.11
   3   2  -6    1.34    0.11
   3   2  -6    1.39    0.11
   2   2  -6    7.66    0.23
   1   2  -6    0.63    0.06
   1   2  -6    0.71    0.05
   0   2  -6   13.15    0.31
   0   2  -6   13.56    0.28
  -1   2  -6    3.00    0.10
  -1   2  -6    2.92    0.12
  -2   2  -6    0.84    0.08
  -2   2  -6    0.84    0.07
  -2   2  -6    0.68    0.06
  -3   2  -6    1.52    0.09
  -3   2  -6    1.42    0.11
  -3   2  -6    1.33    0.09
   3  -2   6    1.51    0.09
  -4   2  -6    0.03    0.07
  -4   2  -6    0.17    0.08
  -4   2  -6    0.03    0.06
  -5   2  -6    2.08    0.16
  -5   2  -6    2.03    0.16
  -5   2  -6    1.98    0.17
  -6   2  -6    1.16    0.14
  -6   2  -6    1.08    0.13
  -6   2  -6    1.16    0.14
  -7   2  -6    0.18    0.13
  -7   2  -6    0.14    0.11
  -8   2  -6    0.13    0.14
  -8   2  -6    0.03    0.12
  -9  -1   6    1.85    0.24
   7   1  -6    0.60    0.14
  -7  -1   6    0.32    0.10
   6   1  -6   -0.09    0.08
  -6  -1   6   -0.05    0.07
   5   1  -6    6.44    0.28
  -5  -1   6    6.84    0.25
   4   1  -6    0.58    0.09
   3   1  -6    0.02    0.05
   3   1  -6    0.01    0.05
   2   1  -6    4.25    0.15
   1   1  -6    2.12    0.09
   1   1  -6    2.02    0.08
   0   1  -6   42.67    0.82
   0   1  -6   40.92    0.89
  -1   1  -6   69.48    1.50
  -1   1  -6   68.24    1.36
  -1   1  -6   69.42    1.47
   1  -1   6   72.55    1.49
  -2   1  -6    5.56    0.17
  -2   1  -6    5.58    0.15
  -2   1  -6    5.46    0.16
   2  -1   6    5.63    0.16
  -3   1  -6    2.10    0.11
  -3   1  -6    2.08    0.11
  -3   1  -6    2.00    0.10
   3  -1   6    1.90    0.10
  -4   1  -6    0.08    0.06
  -4   1  -6   -0.12    0.06
  -4   1  -6   -0.05    0.07
   4  -1   6    0.02    0.05
  -5   1  -6    0.16    0.08
  -5   1  -6    0.21    0.08
  -5   1  -6    0.14    0.08
  -6   1  -6   12.29    0.37
  -6   1  -6   11.73    0.38
  -7   1  -6   -0.05    0.11
  -7   1  -6    0.13    0.12
  -8   1  -6    2.15    0.21
  -8   1  -6    2.27    0.21
  -9   0   6    0.78    0.19
  -8   0   6    1.68    0.20
  -7   0   6    1.43    0.17
   6   0  -6    0.24    0.11
  -6   0   6    0.08    0.08
   5   0  -6   -0.02    0.08
  -5   0   6    0.04    0.07
   4   0  -6    5.20    0.22
  -4   0   6    4.64    0.20
   3   0  -6    0.82    0.09
   3   0  -6    1.00    0.08
   2   0  -6   16.32    0.39
   2   0  -6   16.89    0.42
   1   0  -6    6.45    0.17
  -1   0   6    6.36    0.17
   0   0  -6   54.70    1.18
   0   0  -6   57.10    1.09
   0   0   6   56.99    1.20
  -1   0  -6    0.05    0.02
  -1   0  -6    0.05    0.03
   1   0   6    0.04    0.03
  -2   0  -6    0.11    0.03
  -2   0  -6    0.14    0.04
  -2   0  -6    0.09    0.04
   2   0   6    0.10    0.03
  -3   0  -6    3.31    0.12
  -3   0  -6    3.18    0.12
   3   0   6    3.21    0.13
  -4   0  -6    3.48    0.15
  -4   0  -6    3.72    0.14
   4   0   6    3.46    0.16
  -5   0  -6    7.93    0.26
   5   0   6    8.06    0.29
  -6   0  -6    2.05    0.16
  -7   0  -6    0.13    0.12
  -8   0  -6    3.25    0.27
  -8   0  -6    3.70    0.27
  -9   1   6    0.32    0.15
  -8   1   6    2.69    0.24
  -8   1   6    2.71    0.25
  -7   1   6    1.92    0.20
  -6   1   6    0.11    0.09
   5  -1  -6    2.21    0.18
  -5   1   6    2.36    0.17
   4  -1  -6    4.70    0.21
  -4   1   6    4.55    0.20
   3  -1  -6    5.91    0.22
  -3   1   6    6.47    0.22
   2  -1  -6    0.88    0.09
   2  -1  -6    0.85    0.06
   1  -1  -6    2.22    0.07
  -1   1   6    2.10    0.09
   0  -1  -6    8.58    0.20
   0   1   6    8.80    0.21
  -1  -1  -6    6.61    0.14
  -1  -1  -6    6.57    0.18
   1   1   6    6.89    0.17
  -2  -1  -6    0.27    0.03
   2   1   6    0.25    0.04
  -3  -1  -6    1.89    0.10
   3   1   6    1.87    0.11
  -4  -1  -6    3.44    0.15
   4   1   6    3.61    0.17
  -5  -1  -6    1.06    0.11
   5   1   6    0.96    0.11
  -6  -1  -6    2.65    0.19
  -7  -1  -6   -0.12    0.11
  -8  -1  -6    0.33    0.14
  -9   2   6    2.73    0.27
  -8   2   6    0.01    0.13
  -8   2   6    0.14    0.13
  -7   2   6    3.30    0.26
  -7   2   6    3.22    0.22
  -6   2   6    0.95    0.12
  -6   2   6    1.11    0.15
  -5   2   6    6.37    0.27
   4  -2  -6    0.23    0.07
  -4   2   6    0.29    0.08
   3  -2  -6    4.42    0.18
  -3   2   6    4.57    0.19
   2  -2  -6   10.15    0.28
  -2   2   6    9.12    0.28
  -1   2   6    3.73    0.12
   0  -2  -6   33.44    0.72
   0   2   6   34.46    0.74
   1   2   6    0.63    0.05
   2   2   6    6.92    0.20
  -3  -2  -6   10.97    0.27
   3   2   6   11.93    0.32
  -4  -2  -6   12.38    0.31
   4   2   6   12.20    0.36
  -5  -2  -6    1.07    0.11
   5   2   6    0.90    0.11
  -6  -2  -6    1.60    0.14
   6   2   6    1.54    0.15
  -7  -2  -6    3.46    0.23
  -8  -2  -6    1.52    0.18
  -8   3   6    0.01    0.15
  -8   3   6   -0.04    0.12
  -7   3   6    0.15    0.11
  -7   3   6    0.10    0.13
  -6   3   6    0.26    0.12
  -6   3   6    0.22    0.09
  -5   3   6    1.78    0.14
  -5   3   6    1.79    0.17
  -4   3   6    5.69    0.25
  -4   3   6    5.35    0.20
   3  -3  -6   19.20    0.53
  -3   3   6   22.73    0.56
  -2   3   6    0.61    0.08
  -1   3   6    2.16    0.12
  -1   3   6    2.33    0.09
   0   3   6   28.32    0.61
   0   3   6   27.39    0.64
   1   3   6    0.67    0.05
   2   3   6    2.24    0.10
  -3  -3  -6   12.00    0.28
   3   3   6   12.32    0.33
  -4  -3  -6   11.35    0.29
   4   3   6   11.78    0.35
  -5  -3  -6    2.23    0.15
   5   3   6    1.92    0.16
  -6  -3  -6    8.08    0.28
   6   3   6    7.89    0.32
   7   3   6    0.25    0.12
  -8   4   6    0.16    0.13
  -8   4   6    0.09    0.17
  -7   4   6    0.06    0.15
  -7   4   6   -0.01    0.10
  -6   4   6    0.00    0.11
  -6   4   6    0.00    0.08
  -5   4   6    2.68    0.21
  -5   4   6    2.75    0.16
  -4   4   6    8.09    0.25
  -4   4   6    8.65    0.33
  -3   4   6   45.82    0.96
  -3   4   6   47.00    1.11
  -2   4   6    0.88    0.10
  -2   4   6    0.78    0.06
  -1   4   6    5.15    0.16
  -1   4   6    4.89    0.19
   0   4   6    7.57    0.19
   0   4   6    7.48    0.23
   1   4   6    3.85    0.12
   2   4   6   10.01    0.27
   3   4   6    0.05    0.05
   4   4   6    0.28    0.07
   5   4   6    0.65    0.10
   6   4   6    0.18    0.10
   7   4   6    0.22    0.11
  -8   5   6   -0.10    0.17
  -8   5   6    0.02    0.12
  -7   5   6    0.21    0.12
  -7   5   6    0.57    0.19
  -7   5   6    0.29    0.12
  -6   5   6    0.40    0.10
  -6   5   6    0.30    0.15
  -5   5   6    4.33    0.27
  -5   5   6    4.87    0.21
  -4   5   6    2.62    0.20
  -4   5   6    2.56    0.14
  -3   5   6   19.50    0.45
  -3   5   6   20.12    0.57
  -2   5   6    2.90    0.10
  -2   5   6    3.07    0.18
  -1   5   6    0.06    0.04
  -1   5   6    0.04    0.06
   0   5   6   11.22    0.27
   0   5   6   10.87    0.31
   1   5   6   21.70    0.49
   2   5   6   46.41    1.02
   3   5   6    3.17    0.15
   4   5   6    0.05    0.06
   5   5   6    7.02    0.27
   6   5   6    4.15    0.24
   7   5   6    0.44    0.13
  -8   6   6    1.16    0.25
  -8   6   6    1.02    0.16
  -7   6   6   -0.13    0.17
  -7   6   6    0.14    0.12
  -7   6   6    0.28    0.11
  -6   6   6    4.94    0.23
  -6   6   6    4.74    0.34
  -5   6   6    5.64    0.32
  -5   6   6    5.72    0.22
  -4   6   6    0.10    0.11
  -4   6   6    0.11    0.05
  -3   6   6    5.26    0.16
  -3   6   6    5.34    0.26
  -2   6   6   14.58    0.32
  -2   6   6   14.75    0.45
  -1   6   6    0.05    0.04
  -1   6   6    0.05    0.06
   0   6   6    1.77    0.12
   0   6   6    1.91    0.09
   1   6   6    6.36    0.18
   2   6   6    8.87    0.24
   3   6   6    4.09    0.16
   4   6   6   -0.03    0.06
   5   6   6    0.05    0.08
   6   6   6    0.06    0.09
   7   6   6    0.10    0.11
  -7   7   6    0.15    0.10
  -7   7   6    0.01    0.13
  -7   7   6   -0.13    0.19
  -6   7   6    0.61    0.11
  -6   7   6    0.59    0.19
  -5   7   6    2.03    0.14
  -5   7   6    2.62    0.26
  -4   7   6    1.81    0.11
  -4   7   6    1.81    0.20
  -3   7   6   -0.05    0.09
  -3   7   6    0.10    0.04
  -2   7   6    0.15    0.09
  -1   7   6    8.51    0.25
  -1   7   6    9.34    0.31
   0   7   6    2.94    0.15
   0   7   6    2.65    0.12
   1   7   6    0.33    0.05
   2   7   6    2.31    0.11
   3   7   6    7.15    0.23
   4   7   6    3.13    0.17
   5   7   6   -0.08    0.07
   6   7   6    3.09    0.22
   7   7   6    0.35    0.12
  -7   8   6    0.00    0.14
  -7   8   6   -0.02    0.21
  -7   8   6    0.19    0.10
  -6   8   6   -0.02    0.18
  -5   8   6    4.10    0.34
  -4   8   6    1.81    0.22
  -3   8   6    1.02    0.17
  -2   8   6    1.02    0.15
  -1   8   6    1.93    0.16
   0   8   6    0.29    0.06
   0   8   6    0.48    0.09
   1   8   6    3.44    0.13
   2   8   6    0.10    0.05
   3   8   6    0.22    0.06
   4   8   6    7.70    0.26
   5   8   6    0.04    0.08
   6   8   6    1.51    0.15
  -6   9   6    4.23    0.41
  -5   9   6    2.10    0.27
  -4   9   6    1.54    0.22
  -3   9   6    0.22    0.13
  -2   9   6    0.20    0.11
  -1   9   6    0.25    0.10
   0   9   6    0.23    0.06
   1   9   6    1.83    0.11
   2   9   6    0.57    0.07
   3   9   6    0.81    0.08
   4   9   6    0.15    0.07
   5   9   6    0.56    0.10
  -5  10   6    1.24    0.25
  -4  10   6   -0.11    0.16
  -3  10   6    0.28    0.15
  -2  10   6   -0.07    0.11
   1  10   6    0.06    0.06
   2  10   6    0.35    0.07
   3  10   6    2.84    0.14
   4  10   6    0.21    0.07
  -4  11   6    0.11    0.17
  -3  11   6    0.33    0.15
  -2  11   6    0.15    0.11
   2  12  -7    0.14    0.14
   1  12  -7    0.50    0.17
   1  12  -7    0.77    0.11
   0  12  -7   -0.04    0.09
   0  12  -7   -0.10    0.11
  -1  12  -7    0.40    0.14
  -1  12  -7    0.35    0.10
  -2  12  -7    0.20    0.14
  -2  12  -7    0.24    0.10
   3  11  -7    1.11    0.18
   2  11  -7    0.18    0.13
   1  11  -7    0.18    0.09
   1  11  -7   -0.04    0.11
   0  11  -7   -0.08    0.08
   0  11  -7    0.02    0.11
   0  11  -7    0.08    0.10
  -1  11  -7    0.40    0.09
  -1  11  -7    0.65    0.14
  -2  11  -7    5.83    0.32
  -2  11  -7    4.94    0.22
  -3  11  -7    0.11    0.16
  -3  11  -7   -0.02    0.09
   3  10  -7    3.81    0.28
   2  10  -7    0.42    0.13
   1  10  -7    1.86    0.15
   1  10  -7    1.81    0.19
   0  10  -7    2.66    0.16
   0  10  -7    2.20    0.21
   0  10  -7    2.73    0.19
  -1  10  -7    4.39    0.25
  -1  10  -7    4.18    0.18
  -1  10  -7    4.58    0.26
  -2  10  -7    2.27    0.20
  -2  10  -7    1.83    0.14
  -2  10  -7    1.72    0.17
  -3  10  -7   -0.02    0.14
  -3  10  -7   -0.06    0.08
  -4  10  -7    0.23    0.18
  -4  10  -7    0.26    0.10
  -5  10  -7    1.90    0.26
  -5  10  -7    1.76    0.15
   6   9  -7    1.00    0.15
   5   9  -7    6.12    0.27
   3   9  -7    0.10    0.11
   2   9  -7   -0.01    0.07
   2   9  -7    0.04    0.10
   1   9  -7    0.63    0.13
   1   9  -7    0.76    0.09
   0   9  -7    0.18    0.09
   0   9  -7    0.04    0.06
   0   9  -7   -0.01    0.08
  -1   9  -7    1.36    0.11
  -1   9  -7    1.08    0.14
  -1   9  -7    1.20    0.14
  -2   9  -7    2.28    0.19
  -2   9  -7    2.59    0.14
  -2   9  -7    2.86    0.22
  -3   9  -7    0.71    0.16
  -3   9  -7    0.63    0.12
  -3   9  -7    0.46    0.09
  -4   9  -7    1.47    0.21
  -4   9  -7    1.80    0.15
  -5   9  -7    0.21    0.18
  -5   9  -7    0.12    0.10
   6   8  -7    0.02    0.12
   5   8  -7    0.07    0.10
   4   8  -7    1.01    0.12
   4   8  -7    0.78    0.16
   3   8  -7    0.13    0.11
   2   8  -7    0.58    0.08
   2   8  -7    0.53    0.12
   1   8  -7    0.42    0.10
   1   8  -7    0.39    0.08
   1   8  -7    0.36    0.07
   0   8  -7    0.50    0.09
   0   8  -7    0.52    0.10
   0   8  -7    0.48    0.07
  -1   8  -7    6.78    0.27
  -1   8  -7    6.99    0.21
  -1   8  -7    7.31    0.28
  -2   8  -7    1.59    0.16
  -2   8  -7    2.04    0.19
  -2   8  -7    1.80    0.12
  -3   8  -7    1.47    0.12
  -3   8  -7    1.17    0.13
  -3   8  -7    1.24    0.16
  -4   8  -7    1.39    0.12
  -4   8  -7    1.72    0.20
  -4   8  -7    1.20    0.13
  -5   8  -7    0.19    0.10
  -5   8  -7    0.06    0.16
  -6   8  -7    0.35    0.13
  -6   8  -7    0.26    0.19
   7   7  -7    3.15    0.28
   6   7  -7    0.48    0.14
   5   7  -7    0.48    0.11
   4   7  -7    0.12    0.08
   4   7  -7    0.28    0.12
   3   7  -7   -0.01    0.06
   3   7  -7    0.07    0.09
   2   7  -7    3.38    0.15
   2   7  -7    3.40    0.20
   1   7  -7    3.48    0.16
   1   7  -7    3.65    0.14
   1   7  -7    3.54    0.19
   0   7  -7   24.11    0.52
   0   7  -7   24.06    0.60
   0   7  -7   23.77    0.61
  -1   7  -7   33.36    0.82
  -1   7  -7   34.26    0.81
  -1   7  -7   33.93    0.71
  -2   7  -7    3.59    0.14
  -2   7  -7    3.44    0.20
  -2   7  -7    3.18    0.17
  -3   7  -7   11.53    0.30
  -3   7  -7   11.37    0.39
  -3   7  -7   11.46    0.34
  -4   7  -7    0.31    0.09
  -4   7  -7    0.19    0.08
  -4   7  -7    0.40    0.14
  -5   7  -7    0.72    0.17
  -5   7  -7    0.56    0.11
  -5   7  -7    0.37    0.10
  -6   7  -7    1.41    0.16
  -6   7  -7    1.66    0.22
  -7   7  -7    0.23    0.19
  -7   7  -7    0.22    0.13
   7   6  -7    0.85    0.18
   6   6  -7    1.16    0.17
   5   6  -7    0.63    0.12
   4   6  -7    1.71    0.16
   4   6  -7    1.65    0.17
   3   6  -7   17.72    0.51
   3   6  -7   17.49    0.46
   2   6  -7    0.17    0.06
   2   6  -7    0.08    0.06
   2   6  -7    0.30    0.09
   2   6  -7    0.12    0.04
   1   6  -7   39.82    0.94
   1   6  -7   39.92    0.83
   0   6  -7    2.54    0.14
   0   6  -7    2.61    0.15
   0   6  -7    2.60    0.11
  -1   6  -7    6.14    0.20
  -1   6  -7    6.53    0.24
  -1   6  -7    6.64    0.23
  -1   6  -7    6.73    0.18
  -2   6  -7    5.20    0.23
  -2   6  -7    5.36    0.17
  -2   6  -7    5.18    0.20
  -3   6  -7   -0.04    0.05
  -3   6  -7    0.09    0.09
  -3   6  -7   -0.03    0.06
  -4   6  -7    2.46    0.15
  -4   6  -7    2.17    0.20
  -4   6  -7    2.32    0.14
  -5   6  -7    0.82    0.11
  -5   6  -7    1.30    0.12
  -5   6  -7    1.32    0.18
  -6   6  -7    3.14    0.22
  -6   6  -7    3.09    0.20
  -6   6  -7    3.43    0.28
  -7   6  -7    0.28    0.14
  -7   6  -7    0.36    0.17
  -7   6  -7   -0.21    0.11
   8   5  -7    0.97    0.21
   7   5  -7   -0.02    0.13
   6   5  -7    2.47    0.23
   5   5  -7    1.62    0.16
   4   5  -7   10.89    0.35
   4   5  -7   10.47    0.37
   3   5  -7    1.53    0.13
   3   5  -7    1.96    0.16
   2   5  -7   13.58    0.32
   2   5  -7   13.33    0.38
   2   5  -7   12.92    0.34
   2   5  -7   12.35    0.32
   1   5  -7    0.34    0.07
   1   5  -7    0.28    0.05
   1   5  -7    0.25    0.03
   0   5  -7    3.37    0.12
   0   5  -7    3.42    0.15
   0   5  -7    3.39    0.15
   0   5  -7    3.28    0.10
  -1   5  -7   22.58    0.48
  -1   5  -7   21.66    0.52
  -1   5  -7   23.21    0.54
  -1   5  -7   21.67    0.55
  -2   5  -7   10.89    0.34
  -2   5  -7   11.32    0.30
  -2   5  -7   11.71    0.28
  -3   5  -7    0.54    0.10
  -3   5  -7    0.45    0.07
  -3   5  -7    0.49    0.07
  -4   5  -7    0.21    0.10
  -4   5  -7    0.12    0.07
  -4   5  -7    0.19    0.07
  -5   5  -7   24.10    0.55
  -5   5  -7   22.25    0.56
  -5   5  -7   22.01    0.64
  -6   5  -7    0.61    0.13
  -6   5  -7    0.98    0.17
  -6   5  -7    0.87    0.12
  -7   5  -7    1.39    0.19
  -7   5  -7    1.10    0.16
  -7   5  -7    0.90    0.14
   8   4  -7   -0.05    0.15
   7   4  -7    2.85    0.27
   6   4  -7    0.63    0.14
   5   4  -7    4.62    0.25
   4   4  -7    0.10    0.08
   4   4  -7   -0.01    0.07
   3   4  -7   26.83    0.67
   3   4  -7   26.89    0.65
   2   4  -7   29.93    0.67
   2   4  -7   31.65    0.75
   2   4  -7   33.44    0.71
   1   4  -7    1.32    0.11
   1   4  -7    1.30    0.07
   1   4  -7    1.37    0.06
   0   4  -7    0.78    0.07
   0   4  -7    0.75    0.07
   0   4  -7    0.81    0.05
   0   4  -7    0.93    0.06
  -1   4  -7    7.99    0.20
  -1   4  -7    7.74    0.24
  -1   4  -7    7.66    0.21
  -1   4  -7    8.39    0.23
  -2   4  -7    1.81    0.13
  -2   4  -7    2.07    0.10
  -2   4  -7    2.00    0.09
  -3   4  -7    0.08    0.05
  -3   4  -7   -0.04    0.05
  -3   4  -7    0.11    0.08
  -4   4  -7   42.42    0.93
  -4   4  -7   41.45    0.88
  -4   4  -7   40.05    0.98
  -5   4  -7    1.90    0.16
  -5   4  -7    1.42    0.12
  -5   4  -7    1.71    0.16
  -6   4  -7    1.86    0.19
  -6   4  -7    2.14    0.19
  -6   4  -7    1.78    0.15
  -7   4  -7    3.05    0.22
  -7   4  -7    3.48    0.25
  -7   4  -7    3.32    0.26
  -8   4  -7    2.39    0.21
  -8   4  -7    1.94    0.18
   8   3  -7    0.00    0.14
   7   3  -7   -0.16    0.11
   6   3  -7    0.37    0.13
  -6  -3   7    0.33    0.09
   5   3  -7    0.65    0.12
   4   3  -7    0.96    0.12
   4   3  -7    0.71    0.10
   3   3  -7    1.54    0.13
   3   3  -7    1.34    0.12
   2   3  -7    1.23    0.10
   1   3  -7    1.72    0.10
   1   3  -7    1.58    0.08
   1   3  -7    1.78    0.07
   0   3  -7    1.05    0.06
   0   3  -7    1.06    0.08
   0   3  -7    1.12    0.08
   0   3  -7    0.99    0.05
  -1   3  -7    1.04    0.06
  -1   3  -7    1.08    0.09
  -1   3  -7    1.09    0.07
  -2   3  -7    3.18    0.14
  -2   3  -7    3.32    0.11
  -2   3  -7    3.45    0.12
  -3   3  -7    5.30    0.17
  -3   3  -7    5.11    0.21
  -3   3  -7    5.25    0.17
  -4   3  -7    3.92    0.17
  -4   3  -7    4.05    0.20
  -4   3  -7    3.98    0.17
  -5   3  -7    2.95    0.17
  -5   3  -7    2.89    0.19
  -5   3  -7    2.89    0.17
  -6   3  -7    2.38    0.19
  -6   3  -7    2.26    0.20
  -6   3  -7    2.23    0.18
  -7   3  -7    3.32    0.24
  -7   3  -7    2.93    0.22
  -8   3  -7    7.90    0.35
  -8   3  -7    7.37    0.32
   7   2  -7   -0.04    0.12
   6   2  -7    0.72    0.14
  -6  -2   7    0.66    0.11
   5   2  -7    0.60    0.11
   4   2  -7    1.02    0.11
   4   2  -7    0.79    0.11
   3   2  -7    0.03    0.05
   3   2  -7    0.00    0.05
   2   2  -7   17.85    0.44
   1   2  -7    2.07    0.08
   1   2  -7    2.11    0.10
   0   2  -7  120.63    2.57
   0   2  -7  125.10    2.37
  -1   2  -7    0.02    0.04
  -1   2  -7   -0.02    0.02
  -1   2  -7   -0.02    0.03
  -2   2  -7   -0.01    0.04
  -2   2  -7   -0.02    0.03
  -2   2  -7    0.02    0.04
  -3   2  -7    0.01    0.06
  -3   2  -7    0.02    0.05
  -3   2  -7    0.01    0.05
  -4   2  -7    2.41    0.15
  -4   2  -7    2.39    0.15
  -4   2  -7    2.48    0.14
  -5   2  -7    2.75    0.17
  -5   2  -7    2.86    0.17
  -5   2  -7    2.84    0.18
  -6   2  -7    0.26    0.11
  -6   2  -7    0.16    0.10
  -6   2  -7   -0.03    0.10
  -7   2  -7    0.10    0.12
  -7   2  -7   -0.04    0.12
  -8   2  -7    3.01    0.25
  -8   2  -7    2.96    0.26
  -9  -1   7    0.26    0.16
   7   1  -7    0.05    0.12
  -7  -1   7    0.19    0.11
   6   1  -7    0.16    0.11
  -6  -1   7    0.28    0.09
   5   1  -7   -0.01    0.08
  -5  -1   7    0.02    0.07
   4   1  -7    0.10    0.07
   3   1  -7    9.01    0.26
   3   1  -7    9.14    0.28
   2   1  -7    1.20    0.09
   1   1  -7   35.27    0.72
   1   1  -7   35.93    0.78
   0   1  -7   77.45    1.47
   0   1  -7   73.85    1.59
  -1   1  -7    0.66    0.04
  -1   1  -7    0.68    0.06
   1  -1   7    0.74    0.05
  -2   1  -7    4.54    0.15
  -2   1  -7    4.51    0.15
  -2   1  -7    4.59    0.13
   2  -1   7    4.68    0.14
  -3   1  -7    4.51    0.16
  -3   1  -7    4.43    0.16
  -3   1  -7    4.01    0.14
   3  -1   7    4.32    0.15
  -4   1  -7   13.18    0.35
  -4   1  -7   13.39    0.37
  -4   1  -7   13.44    0.34
  -5   1  -7    0.24    0.08
  -5   1  -7    0.25    0.09
  -5   1  -7    0.24    0.09
  -6   1  -7    0.63    0.12
  -6   1  -7    0.69    0.13
  -7   1  -7    0.42    0.13
  -7   1  -7    0.27    0.13
  -8   1  -7    1.00    0.18
  -8   1  -7    1.18    0.17
  -9   0   7    0.29    0.16
  -7   0   7   -0.09    0.09
   6   0  -7    5.66    0.29
  -6   0   7    5.21    0.25
   5   0  -7    0.29    0.09
  -5   0   7    0.30    0.09
   4   0  -7    0.05    0.07
  -4   0   7    0.12    0.06
   3   0  -7    5.61    0.21
   3   0  -7    5.89    0.19
   2   0  -7    2.87    0.11
   1   0  -7    5.71    0.16
  -1   0   7    5.81    0.16
   0   0  -7    4.20    0.10
   0   0  -7    4.04    0.12
   0   0   7    3.93    0.12
  -1   0  -7   14.65    0.34
  -1   0  -7   14.88    0.30
   1   0   7   15.02    0.34
  -2   0  -7    8.70    0.24
  -2   0  -7    8.92    0.20
   2   0   7    9.12    0.24
  -3   0  -7    2.19    0.10
  -3   0  -7    1.90    0.12
  -3   0  -7    2.28    0.11
   3   0   7    2.47    0.12
  -4   0  -7    1.95    0.11
  -4   0  -7    1.67    0.12
   4   0   7    1.92    0.12
  -5   0  -7    1.01    0.11
  -6   0  -7    1.81    0.15
  -7   0  -7    0.16    0.13
  -7   0  -7    0.21    0.12
  -8   0  -7    0.57    0.16
  -8   0  -7    0.58    0.15
  -9   1   7    1.11    0.20
  -8   1   7    0.40    0.14
  -8   1   7    0.34    0.14
  -7   1   7    2.34    0.22
  -6   1   7    1.29    0.15
   5  -1  -7    0.55    0.12
  -5   1   7    0.63    0.11
   4  -1  -7    0.21    0.08
  -4   1   7    0.07    0.07
   3  -1  -7    0.27    0.05
   3  -1  -7    0.27    0.07
  -3   1   7    0.25    0.07
   2  -1  -7    0.43    0.06
   2  -1  -7    0.50    0.05
   1  -1  -7    5.34    0.14
  -1   1   7    5.25    0.16
   0  -1  -7    0.78    0.04
   0  -1  -7    0.82    0.05
   0   1   7    0.83    0.05
  -1  -1  -7    2.10    0.09
  -1  -1  -7    2.00    0.06
   1   1   7    2.05    0.08
  -2  -1  -7    0.76    0.05
   2   1   7    0.69    0.06
  -3  -1  -7    5.38    0.16
   3   1   7    5.36    0.18
  -4  -1  -7    0.06    0.06
   4   1   7    0.06    0.05
  -5  -1  -7    2.10    0.15
   5   1   7    1.87    0.15
  -6  -1  -7    2.28    0.18
  -7  -1  -7    1.35    0.16
  -8  -1  -7    4.83    0.28
  -9   2   7    0.04    0.15
  -8   2   7    0.23    0.13
  -8   2   7    0.69    0.18
  -7   2   7   -0.01    0.12
  -7   2   7    0.08    0.09
  -6   2   7    0.06    0.10
  -5   2   7    3.02    0.20
   4  -2  -7    1.10    0.12
  -4   2   7    1.00    0.12
   3  -2  -7    2.40    0.14
  -3   2   7    2.26    0.15
   2  -2  -7   12.90    0.35
  -2   2   7   12.79    0.36
  -1   2   7    0.09    0.04
   0  -2  -7   90.78    1.95
   0   2   7   96.42    1.98
   1   2   7    1.42    0.07
   2   2   7    0.76    0.07
  -3  -2  -7   10.21    0.25
   3   2   7   10.71    0.29
  -4  -2  -7    3.30    0.14
   4   2   7    2.94    0.16
  -5  -2  -7    1.29    0.11
   5   2   7    1.27    0.12
  -6  -2  -7    0.94    0.12
   6   2   7    0.77    0.12
  -7  -2  -7    3.89    0.24
  -8   3   7    0.14    0.13
  -8   3   7    0.41    0.18
  -7   3   7   -0.07    0.13
  -7   3   7    0.09    0.10
  -6   3   7    0.13    0.11
  -6   3   7    0.16    0.09
  -5   3   7    0.41    0.08
  -5   3   7    0.33    0.10
  -4   3   7   10.22    0.35
  -3   3   7    8.14    0.29
   2  -3  -7    0.51    0.07
  -2   3   7    0.41    0.08
  -1   3   7    7.49    0.21
  -1   3   7    7.44    0.24
   0  -3  -7   25.90    0.56
   0   3   7   26.24    0.58
   0   3   7   26.06    0.61
   1   3   7    0.37    0.04
   2   3   7    3.88    0.14
   3   3   7    3.21    0.14
  -4  -3  -7    8.01    0.22
   4   3   7    7.69    0.26
  -5  -3  -7    0.60    0.09
   5   3   7    0.66    0.10
   6   3   7    0.03    0.09
  -8   4   7    3.74    0.28
  -8   4   7    3.77    0.35
  -7   4   7    0.04    0.10
  -7   4   7   -0.09    0.14
  -6   4   7   10.09    0.42
  -6   4   7    9.51    0.33
  -5   4   7    3.78    0.24
  -5   4   7    3.63    0.18
  -4   4   7    6.70    0.29
  -4   4   7    6.89    0.22
  -3   4   7    1.37    0.14
  -3   4   7    1.42    0.09
  -2   4   7    6.18    0.24
  -2   4   7    6.12    0.16
  -1   4   7    0.89    0.07
  -1   4   7    0.80    0.09
   0   4   7    0.93    0.09
   0   4   7    0.84    0.06
   2   4   7    0.88    0.08
   3   4   7    6.39    0.21
   4   4   7    0.21    0.07
   5   4   7    9.52    0.33
   6   4   7    0.44    0.11
   7   4   7    0.28    0.12
  -8   5   7    1.89    0.27
  -8   5   7    1.99    0.20
  -7   5   7    0.08    0.10
  -7   5   7    0.09    0.17
  -6   5   7   -0.26    0.12
  -6   5   7   -0.02    0.08
  -5   5   7    1.20    0.12
  -5   5   7    1.07    0.16
  -4   5   7   10.95    0.30
  -4   5   7   10.63    0.40
  -3   5   7    7.57    0.30
  -3   5   7    7.35    0.21
  -2   5   7    0.16    0.03
  -2   5   7    0.14    0.08
  -1   5   7    2.39    0.12
  -1   5   7    2.57    0.15
   0   5   7    2.79    0.11
   0   5   7    2.65    0.14
   1   5   7    1.12    0.08
   2   5   7   38.68    0.87
   3   5   7    0.13    0.05
   4   5   7    0.21    0.07
   5   5   7    0.83    0.11
   6   5   7    2.70    0.21
   7   5   7    0.01    0.11
  -8   6   7    1.75    0.29
  -8   6   7    1.79    0.19
  -7   6   7    1.43    0.16
  -7   6   7    1.69    0.26
  -6   6   7    0.49    0.11
  -6   6   7    0.39    0.18
  -5   6   7    1.35    0.12
  -5   6   7    1.30    0.20
  -4   6   7    0.49    0.13
  -4   6   7    0.71    0.08
  -3   6   7    1.35    0.08
  -3   6   7    1.40    0.16
  -2   6   7    1.19    0.14
  -1   6   7    9.16    0.26
  -1   6   7    9.52    0.31
   0   6   7    7.94    0.22
   0   6   7    7.83    0.26
   1   6   7    0.14    0.04
   2   6   7   11.69    0.31
   3   6   7    2.34    0.13
   4   6   7    0.45    0.08
   5   6   7    0.15    0.09
   6   6   7    0.09    0.10
   7   6   7    0.34    0.12
  -7   7   7    0.29    0.22
  -7   7   7    0.20    0.10
  -6   7   7    0.17    0.08
  -6   7   7   -0.05    0.17
  -5   7   7    0.03    0.06
  -5   7   7   -0.03    0.13
  -4   7   7    0.25    0.13
  -3   7   7    0.51    0.12
  -2   7   7    9.08    0.34
  -1   7   7    1.48    0.11
  -1   7   7    1.55    0.15
   0   7   7   11.65    0.34
   0   7   7   11.44    0.30
   1   7   7    5.04    0.16
   2   7   7    6.70    0.20
   3   7   7   12.45    0.34
   4   7   7    1.31    0.13
   5   7   7    6.15    0.26
   6   7   7    0.06    0.10
  -7   8   7    1.00    0.20
  -7   8   7    1.06    0.26
  -6   8   7    0.28    0.20
  -5   8   7    3.20    0.30
  -4   8   7    1.69    0.22
  -3   8   7    0.48    0.14
  -2   8   7    2.85    0.22
  -1   8   7    0.04    0.05
  -1   8   7    0.14    0.09
   0   8   7    2.75    0.17
   0   8   7    2.47    0.13
   1   8   7    1.31    0.10
   2   8   7    1.75    0.11
   3   8   7    0.76    0.08
   4   8   7    6.23    0.23
   5   8   7    0.76    0.11
   6   8   7    1.66    0.16
  -6   9   7    0.17    0.22
  -5   9   7    0.90    0.22
  -4   9   7    1.14    0.20
  -3   9   7    0.09    0.13
  -2   9   7    0.56    0.13
  -1   9   7    1.10    0.14
   0   9   7    0.13    0.06
   1   9   7    1.19    0.10
   2   9   7    0.06    0.06
   3   9   7    0.77    0.08
   4   9   7    0.08    0.07
   5   9   7    0.68    0.10
  -5  10   7    0.54    0.21
  -4  10   7   -0.24    0.14
  -3  10   7    1.40    0.20
  -2  10   7    1.34    0.18
   0  10   7    0.37    0.08
   1  10   7    0.75    0.09
   2  10   7    0.04    0.06
   3  10   7    0.73    0.09
   4  10   7    0.12    0.07
  -4  11   7   -0.04    0.16
  -3  11   7    1.17    0.19
   3  11   7    0.12    0.07
   1  12  -8    1.32    0.20
   1  12  -8    1.61    0.15
   0  12  -8    4.31    0.23
  -1  12  -8   -0.02    0.09
  -1  12  -8    0.15    0.13
   3  11  -8    1.11    0.19
   2  11  -8    5.05    0.31
   1  11  -8    2.46    0.18
   1  11  -8    2.75    0.25
   0  11  -8   -0.19    0.10
   0  11  -8   -0.12    0.12
   0  11  -8    0.03    0.09
  -1  11  -8    0.03    0.09
  -1  11  -8   -0.05    0.11
  -1  11  -8    0.10    0.12
  -2  11  -8    1.55    0.19
  -2  11  -8    1.34    0.13
  -3  11  -8    1.35    0.20
  -3  11  -8    1.06    0.12
   3  10  -8    2.58    0.24
   2  10  -8    1.63    0.19
   1  10  -8    0.74    0.15
   1  10  -8    0.84    0.11
   0  10  -8    0.16    0.10
   0  10  -8    0.19    0.08
   0  10  -8   -0.02    0.11
  -1  10  -8    0.12    0.11
  -1  10  -8    0.37    0.12
  -1  10  -8    0.18    0.08
  -2  10  -8    1.13    0.17
  -2  10  -8    1.05    0.11
  -2  10  -8    0.98    0.15
  -3  10  -8    0.02    0.14
  -3  10  -8    0.04    0.08
  -4  10  -8    0.04    0.09
  -4  10  -8   -0.02    0.17
   6   9  -8    0.00    0.12
   5   9  -8    1.60    0.16
   4   9  -8    0.05    0.13
   3   9  -8    0.25    0.13
   2   9  -8    0.43    0.09
   2   9  -8    0.52    0.13
   1   9  -8    0.13    0.10
   1   9  -8    0.09    0.07
   0   9  -8   -0.01    0.09
   0   9  -8    0.07    0.07
   0   9  -8    0.09    0.09
  -1   9  -8    7.33    0.30
  -1   9  -8    6.80    0.30
  -1   9  -8    7.31    0.23
  -2   9  -8    1.70    0.17
  -2   9  -8    1.43    0.15
  -2   9  -8    1.61    0.13
  -3   9  -8   -0.09    0.07
  -3   9  -8   -0.10    0.10
  -3   9  -8    0.05    0.13
  -4   9  -8    0.27    0.16
  -4   9  -8    0.10    0.09
  -5   9  -8    0.65    0.20
  -5   9  -8    0.51    0.12
   6   8  -8    1.89    0.20
   5   8  -8    0.74    0.13
   4   8  -8    0.14    0.12
   4   8  -8    0.17    0.09
   3   8  -8    0.47    0.13
   2   8  -8    0.21    0.07
   2   8  -8    0.18    0.10
   1   8  -8    0.41    0.08
   1   8  -8    0.42    0.11
   0   8  -8    5.71    0.23
   0   8  -8    5.72    0.19
   0   8  -8    5.74    0.26
  -1   8  -8    7.16    0.29
  -1   8  -8    7.68    0.29
  -1   8  -8    7.63    0.22
  -2   8  -8    0.16    0.07
  -2   8  -8    0.14    0.09
  -2   8  -8    0.23    0.11
  -3   8  -8    0.33    0.10
  -3   8  -8    0.25    0.07
  -3   8  -8    0.26    0.13
  -4   8  -8    0.71    0.12
  -4   8  -8    0.78    0.17
  -4   8  -8    0.68    0.10
  -5   8  -8    1.26    0.14
  -5   8  -8    1.32    0.21
  -5   8  -8    1.10    0.14
  -6   8  -8    0.87    0.14
  -6   8  -8    0.91    0.21
   7   7  -8    1.05    0.19
   6   7  -8    1.63    0.19
   5   7  -8    7.05    0.31
   4   7  -8    0.27    0.12
   4   7  -8    0.34    0.10
   3   7  -8    0.39    0.11
   3   7  -8    0.46    0.08
   2   7  -8    3.30    0.21
   2   7  -8    3.02    0.15
   1   7  -8    0.22    0.09
   1   7  -8    0.37    0.07
   0   7  -8    0.55    0.07
   0   7  -8    0.45    0.09
   0   7  -8    0.52    0.10
  -1   7  -8    1.16    0.10
  -1   7  -8    1.05    0.12
  -1   7  -8    1.09    0.12
  -2   7  -8    2.37    0.18
  -2   7  -8    2.82    0.13
  -2   7  -8    2.64    0.17
  -3   7  -8    0.60    0.12
  -3   7  -8    0.81    0.09
  -3   7  -8    0.46    0.10
  -4   7  -8    4.69    0.20
  -4   7  -8    4.10    0.21
  -4   7  -8    4.72    0.28
  -5   7  -8    1.30    0.14
  -5   7  -8    1.60    0.20
  -5   7  -8    1.62    0.14
  -6   7  -8    0.68    0.13
  -6   7  -8    0.89    0.14
  -6   7  -8    0.96    0.20
   7   6  -8    1.69    0.21
   6   6  -8    0.52    0.14
   5   6  -8    0.00    0.10
   4   6  -8    6.37    0.29
   4   6  -8    6.30    0.26
   3   6  -8    5.74    0.26
   3   6  -8    5.83    0.22
   2   6  -8    2.86    0.14
   2   6  -8    2.87    0.19
   2   6  -8    2.98    0.14
   1   6  -8    0.90    0.08
   1   6  -8    0.76    0.05
   1   6  -8    0.84    0.11
   0   6  -8    0.21    0.07
   0   6  -8    0.15    0.04
   0   6  -8    0.22    0.08
   0   6  -8    0.26    0.05
  -1   6  -8    0.38    0.06
  -1   6  -8    0.39    0.09
  -1   6  -8    0.40    0.08
  -2   6  -8    0.17    0.09
  -2   6  -8    0.13    0.07
  -2   6  -8    0.21    0.05
  -3   6  -8    0.01    0.10
  -3   6  -8   -0.01    0.06
  -3   6  -8    0.07    0.07
  -4   6  -8    0.21    0.11
  -4   6  -8    0.05    0.07
  -4   6  -8    0.01    0.07
  -5   6  -8    3.35    0.19
  -5   6  -8    3.75    0.27
  -5   6  -8    3.36    0.19
  -6   6  -8    0.52    0.12
  -6   6  -8    0.26    0.11
  -6   6  -8    0.51    0.17
  -7   6  -8    0.23    0.13
  -7   6  -8    0.42    0.14
  -7   6  -8    0.31    0.17
   8   5  -8    1.92    0.25
   7   5  -8    1.01    0.19
   6   5  -8    1.52    0.19
   5   5  -8   -0.03    0.10
   4   5  -8    8.52    0.33
   4   5  -8    8.31    0.30
   3   5  -8    6.45    0.26
   3   5  -8    5.94    0.23
   2   5  -8   14.94    0.36
   2   5  -8   15.59    0.44
   1   5  -8   18.09    0.40
   1   5  -8   17.52    0.40
   1   5  -8   18.10    0.47
   0   5  -8   19.97    0.49
   0   5  -8   19.81    0.50
   0   5  -8   19.57    0.43
   0   5  -8   19.11    0.45
  -1   5  -8   15.61    0.41
  -1   5  -8   16.03    0.36
  -1   5  -8   16.08    0.42
  -2   5  -8    6.17    0.21
  -2   5  -8    5.90    0.23
  -2   5  -8    6.22    0.18
  -3   5  -8    1.05    0.09
  -3   5  -8    0.95    0.09
  -3   5  -8    1.03    0.12
  -4   5  -8    9.18    0.34
  -4   5  -8    9.27    0.27
  -4   5  -8    9.58    0.29
  -5   5  -8    3.82    0.20
  -5   5  -8    4.10    0.20
  -5   5  -8    3.77    0.26
  -6   5  -8   -0.01    0.10
  -6   5  -8    0.10    0.11
  -6   5  -8    0.09    0.14
  -7   5  -8    0.00    0.12
  -7   5  -8    0.11    0.15
  -7   5  -8    0.21    0.12
   8   4  -8    2.08    0.24
   7   4  -8   -0.05    0.13
   6   4  -8    0.26    0.13
   5   4  -8    1.54    0.16
   4   4  -8    0.32    0.09
   4   4  -8    0.53    0.11
   3   4  -8    4.94    0.20
   3   4  -8    4.90    0.22
   2   4  -8   49.37    1.10
   2   4  -8   47.46    0.99
   1   4  -8   11.91    0.34
   1   4  -8   11.76    0.28
   1   4  -8   12.40    0.28
   0   4  -8    0.71    0.07
   0   4  -8    0.89    0.07
   0   4  -8    0.57    0.05
   0   4  -8    0.69    0.07
  -1   4  -8    0.01    0.04
  -1   4  -8    0.10    0.05
  -1   4  -8    0.05    0.06
  -2   4  -8    6.38    0.18
  -2   4  -8    6.04    0.22
  -2   4  -8    6.45    0.20
  -3   4  -8   17.96    0.44
  -3   4  -8   17.72    0.41
  -3   4  -8   17.55    0.48
  -4   4  -8    3.21    0.20
  -4   4  -8    3.55    0.16
  -4   4  -8    3.56    0.17
  -5   4  -8    0.04    0.10
  -5   4  -8    0.02    0.08
  -5   4  -8   -0.03    0.08
  -6   4  -8    0.24    0.11
  -6   4  -8    0.08    0.11
  -6   4  -8    0.40    0.13
  -7   4  -8   -0.05    0.11
  -7   4  -8    0.05    0.13
  -8   4  -8    1.02    0.16
  -8   4  -8    1.42    0.18
   8   3  -8    0.02    0.15
   7   3  -8    0.11    0.13
   6   3  -8    0.37    0.13
  -6  -3   8    0.28    0.09
   5   3  -8    0.56    0.12
   4   3  -8    1.50    0.15
   4   3  -8    1.51    0.14
   3   3  -8    1.98    0.14
   3   3  -8    1.76    0.14
   2   3  -8    0.06    0.05
   1   3  -8    3.88    0.13
   1   3  -8    4.41    0.16
   0   3  -8    7.16    0.18
   0   3  -8    6.98    0.21
  -1   3  -8    1.71    0.09
  -1   3  -8    1.50    0.07
  -1   3  -8    1.55    0.10
  -2   3  -8   28.19    0.67
  -2   3  -8   28.43    0.59
  -2   3  -8   28.58    0.64
  -3   3  -8   51.57    1.19
  -3   3  -8   53.17    1.15
  -3   3  -8   52.46    1.06
  -4   3  -8   37.92    0.85
  -4   3  -8   35.72    0.88
  -4   3  -8   37.65    0.79
  -5   3  -8    9.00    0.29
  -5   3  -8    8.79    0.31
  -5   3  -8    8.92    0.28
  -6   3  -8   -0.25    0.10
  -6   3  -8   -0.09    0.10
  -6   3  -8    0.03    0.10
  -7   3  -8    1.34    0.15
  -7   3  -8    1.14    0.16
  -8   3  -8    0.18    0.13
  -8   3  -8    0.23    0.15
   7   2  -8    0.87    0.16
  -7  -2   8    1.09    0.14
   6   2  -8    6.54    0.32
  -6  -2   8    7.55    0.29
   5   2  -8    1.14    0.14
   4   2  -8   12.92    0.38
   4   2  -8   12.77    0.39
   3   2  -8    0.10    0.06
   3   2  -8    0.13    0.06
   2   2  -8    7.95    0.24
   1   2  -8    2.21    0.09
   1   2  -8    2.22    0.11
   0   2  -8   26.35    0.53
   0   2  -8   26.08    0.59
  -1   2  -8   13.27    0.32
  -1   2  -8   13.43    0.29
  -1   2  -8   13.22    0.33
  -2   2  -8    1.60    0.10
  -2   2  -8    1.63    0.08
  -2   2  -8    1.58    0.09
  -3   2  -8  128.59    2.82
  -3   2  -8  131.58    2.56
  -3   2  -8  133.57    2.77
  -4   2  -8    8.99    0.26
  -4   2  -8    8.90    0.28
  -4   2  -8    9.29    0.29
  -5   2  -8    0.42    0.09
  -5   2  -8    0.53    0.10
  -5   2  -8    0.37    0.10
  -6   2  -8    1.64    0.16
  -6   2  -8    1.33    0.14
  -7   2  -8    0.11    0.12
  -7   2  -8    0.24    0.13
  -8   2  -8    0.20    0.15
  -8   2  -8    0.50    0.15
   7   1  -8    3.65    0.28
  -7  -1   8    3.17    0.22
   6   1  -8    0.08    0.11
  -6  -1   8    0.07    0.09
   5   1  -8    7.12    0.30
  -5  -1   8    7.48    0.28
   4   1  -8    1.29    0.13
   4   1  -8    1.42    0.13
   3   1  -8    1.49    0.11
   3   1  -8    1.79    0.13
   2   1  -8    0.74    0.07
   1   1  -8   10.22    0.24
   1   1  -8   10.70    0.27
  -1  -1   8   10.71    0.27
   0   1  -8    2.41    0.08
   0   1  -8    2.40    0.09
   0  -1   8    2.51    0.09
  -1   1  -8    3.95    0.11
   1  -1   8    4.04    0.12
  -2   1  -8    4.68    0.16
  -2   1  -8    4.93    0.16
  -2   1  -8    4.62    0.13
   2  -1   8    4.94    0.15
  -3   1  -8    6.63    0.20
  -3   1  -8    6.52    0.21
  -3   1  -8    6.42    0.19
   3  -1   8    6.34    0.20
  -4   1  -8   -0.01    0.06
  -4   1  -8    0.17    0.08
  -4   1  -8    0.08    0.06
  -5   1  -8    0.00    0.07
  -5   1  -8    0.06    0.09
  -5   1  -8    0.15    0.08
  -6   1  -8    0.35    0.12
  -6   1  -8    0.28    0.11
  -7   1  -8    2.99    0.25
  -7   1  -8    3.14    0.23
  -8   1  -8    1.23    0.18
  -8   1  -8    1.34    0.17
  -9   0   8    0.38    0.17
  -8   0   8    0.74    0.16
  -7   0   8   -0.09    0.09
   6   0  -8    0.82    0.15
  -6   0   8    0.75    0.13
   5   0  -8    0.00    0.08
  -5   0   8    0.02    0.07
   4   0  -8    1.94    0.16
   3   0  -8    4.39    0.16
   3   0  -8    4.25    0.19
   2   0  -8    4.04    0.14
   1   0  -8   47.08    1.01
  -1   0   8   47.55    1.03
   0   0  -8   21.65    0.49
   0   0  -8   22.66    0.45
   0   0   8   21.74    0.49
  -1   0  -8    1.06    0.05
  -1   0  -8    1.06    0.07
   1   0   8    1.01    0.06
  -2   0  -8    3.56    0.11
  -2   0  -8    3.63    0.13
   2   0   8    3.62    0.13
  -3   0  -8    0.08    0.05
  -3   0  -8    0.24    0.07
  -3   0  -8    0.25    0.05
   3   0   8    0.24    0.05
  -4   0  -8    0.34    0.07
  -4   0  -8    0.34    0.06
  -4   0  -8    0.23    0.08
   4   0   8    0.42    0.07
  -5   0  -8    0.32    0.10
  -5   0  -8    0.19    0.08
  -6   0  -8    0.02    0.10
  -6   0  -8   -0.01    0.11
  -7   0  -8    0.49    0.15
  -7   0  -8    0.46    0.13
  -8   0  -8    8.85    0.39
  -8   0  -8    8.95    0.35
  -8   1   8    0.02    0.13
  -8   1   8    0.16    0.13
  -7   1   8    0.73    0.15
  -6   1   8    0.69    0.13
   5  -1  -8    0.21    0.10
  -5   1   8    0.28    0.09
   4  -1  -8    0.08    0.07
  -4   1   8    0.04    0.07
   3  -1  -8    0.01    0.04
   3  -1  -8    0.05    0.06
   2  -1  -8    7.29    0.20
   1  -1  -8   25.12    0.55
  -1   1   8   25.23    0.57
   0  -1  -8    1.40    0.06
   0  -1  -8    1.38    0.06
   0   1   8    1.46    0.07
  -1  -1  -8    0.15    0.04
  -1  -1  -8    0.15    0.02
   1   1   8    0.13    0.03
  -2  -1  -8   13.06    0.33
  -2  -1  -8   13.43    0.28
   2   1   8   13.17    0.33
  -3  -1  -8    0.12    0.05
   3   1   8    0.03    0.04
  -4  -1  -8    0.11    0.06
   4   1   8   -0.01    0.05
  -5  -1  -8    0.06    0.08
   5   1   8   -0.03    0.06
  -6  -1  -8    0.30    0.10
  -7  -1  -8   13.22    0.40
  -8  -1  -8    0.56    0.18
  -8   2   8    0.40    0.14
  -8   2   8    0.54    0.18
  -7   2   8    0.15    0.10
  -7   2   8    0.06    0.12
  -6   2   8    5.34    0.28
  -5   2   8    0.48    0.11
   4  -2  -8    0.01    0.07
  -4   2   8    0.04    0.07
   3  -2  -8    3.99    0.18
  -3   2   8    4.01    0.19
   2  -2  -8    8.56    0.26
  -2   2   8    7.53    0.23
   1  -2  -8   12.71    0.29
  -1   2   8   12.52    0.31
   0  -2  -8    4.25    0.12
   0   2   8    4.08    0.13
  -1  -2  -8   -0.01    0.04
   1   2   8    0.03    0.03
   2   2   8   17.99    0.43
  -3  -2  -8    0.13    0.04
   3   2   8    0.05    0.05
  -4  -2  -8    0.10    0.06
   4   2   8    0.06    0.06
  -5  -2  -8    3.04    0.16
   5   2   8    2.95    0.17
  -6  -2  -8    0.37    0.10
  -8   3   8    1.09    0.21
  -8   3   8    0.92    0.16
  -7   3   8    1.84    0.24
  -7   3   8    1.76    0.18
  -6   3   8    1.00    0.16
  -6   3   8    0.71    0.11
  -5   3   8    1.10    0.14
  -4   3   8   -0.02    0.08
  -3   3   8    4.37    0.21
   2  -3  -8    1.54    0.12
  -2   3   8    1.26    0.10
  -2   3   8    1.48    0.13
  -1   3   8   16.16    0.44
  -1   3   8   16.73    0.40
   0  -3  -8    0.28    0.04
   0   3   8    0.29    0.06
   0   3   8    0.30    0.04
   1   3   8    0.20    0.04
   2   3   8    8.70    0.24
   3   3   8    3.26    0.15
   4   3   8    0.00    0.06
   5   3   8    0.45    0.09
   6   3   8    1.46    0.15
  -8   4   8    0.45    0.14
  -8   4   8    0.40    0.19
  -7   4   8    0.00    0.11
  -7   4   8    0.21    0.16
  -6   4   8    0.10    0.08
  -6   4   8    0.03    0.12
  -5   4   8    2.49    0.16
  -5   4   8    2.16    0.21
  -4   4   8    3.29    0.15
  -4   4   8    3.71    0.22
  -3   4   8    0.34    0.05
  -3   4   8    0.40    0.09
  -2   4   8    0.09    0.03
  -2   4   8    0.04    0.05
  -2   4   8    0.12    0.07
  -1   4   8   14.62    0.41
  -1   4   8   14.89    0.37
   0  -4  -8    1.55    0.07
   0   4   8    1.44    0.08
   0   4   8    1.50    0.11
   1   4   8    0.16    0.04
   2   4   8    6.41    0.20
   3   4   8    4.39    0.17
   4   4   8    0.42    0.08
   5   4   8    8.20    0.30
   6   4   8    7.20    0.30
   7   4   8    1.31    0.16
  -8   5   8    0.21    0.13
  -8   5   8    0.12    0.19
  -7   5   8    0.17    0.10
  -7   5   8    0.16    0.17
  -6   5   8    0.83    0.18
  -6   5   8    0.85    0.12
  -5   5   8    0.07    0.07
  -5   5   8    0.04    0.12
  -4   5   8   13.15    0.34
  -4   5   8   12.82    0.45
  -3   5   8    1.22    0.14
  -3   5   8    1.22    0.08
  -2   5   8    2.94    0.18
  -1   5   8    0.99    0.08
  -1   5   8    1.00    0.11
   0   5   8    0.96    0.08
   0   5   8    1.12    0.10
   1   5   8    5.92    0.18
   2   5   8    2.96    0.13
   3   5   8   11.01    0.31
   4   5   8    0.20    0.07
   5   5   8    6.08    0.26
   6   5   8   -0.07    0.09
   7   5   8   -0.03    0.11
  -7   6   8    3.64    0.35
  -7   6   8    3.72    0.24
  -6   6   8    3.29    0.30
  -6   6   8    3.38    0.20
  -5   6   8   -0.04    0.13
  -5   6   8   -0.01    0.06
  -4   6   8    0.17    0.12
  -4   6   8    0.18    0.06
  -3   6   8    5.07    0.27
  -2   6   8    5.45    0.26
  -1   6   8    0.45    0.09
  -1   6   8    0.34    0.06
   0   6   8    0.41    0.06
   0   6   8    0.26    0.07
   1   6   8    1.13    0.09
   2   6   8    4.70    0.17
   3   6   8    2.25    0.13
   4   6   8   11.59    0.35
   5   6   8    1.41    0.14
   6   6   8    2.98    0.22
   7   6   8    0.90    0.14
  -7   7   8    0.16    0.10
  -7   7   8    0.14    0.20
  -6   7   8    0.25    0.19
  -6   7   8    0.42    0.10
  -5   7   8    3.38    0.32
  -4   7   8    0.40    0.14
  -3   7   8    9.38    0.38
  -2   7   8    7.35    0.31
  -1   7   8    5.14    0.19
  -1   7   8    5.47    0.24
   0   7   8    3.59    0.15
   0   7   8    3.39    0.17
   1   7   8    8.49    0.24
   2   7   8    4.65    0.17
   3   7   8    3.30    0.16
   4   7   8    0.24    0.08
   5   7   8    0.43    0.10
   6   7   8   -0.08    0.09
  -6   8   8    0.07    0.20
  -5   8   8    0.09    0.17
  -4   8   8   -0.08    0.13
  -3   8   8    0.41    0.14
  -2   8   8    6.76    0.31
  -1   8   8    1.63    0.15
  -1   8   8    1.23    0.12
   0   8   8    1.99    0.13
   1   8   8    0.39    0.07
   2   8   8    0.06    0.06
   3   8   8    1.65    0.13
   4   8   8    0.61    0.09
   5   8   8    0.15    0.09
   6   8   8    0.11    0.10
  -6   9   8    0.63    0.24
  -5   9   8    0.32    0.19
  -4   9   8    0.34    0.17
  -3   9   8    1.85    0.21
  -2   9   8    2.23    0.22
  -1   9   8    2.19    0.19
   0   9   8   -0.04    0.06
   1   9   8    1.73    0.12
   2   9   8    1.18    0.11
   3   9   8    0.96    0.10
   4   9   8    1.70    0.14
   5   9   8    0.79    0.11
  -5  10   8    0.05    0.19
  -4  10   8    0.80    0.20
  -3  10   8    0.13    0.14
  -2  10   8    0.42    0.13
   0  10   8    0.21    0.08
   1  10   8    0.70    0.09
   2  10   8    0.57    0.09
   3  10   8    0.52    0.08
   4  10   8    4.63    0.20
  -3  11   8    0.21    0.15
   1  11   8    0.02    0.07
   0  12  -9    0.02    0.10
   3  11  -9    0.09    0.15
   2  11  -9    0.85    0.17
   1  11  -9    0.21    0.10
   1  11  -9    0.12    0.14
   0  11  -9    2.48    0.23
   0  11  -9    2.40    0.18
  -1  11  -9    0.16    0.13
  -1  11  -9   -0.02    0.09
  -1  11  -9    0.11    0.13
  -2  11  -9    0.26    0.15
  -2  11  -9    0.07    0.10
  -3  11  -9    0.23    0.10
  -3  11  -9    0.09    0.16
   4  10  -9    1.58    0.22
   3  10  -9    0.11    0.14
   2  10  -9    0.08    0.13
   1  10  -9    1.36    0.13
   1  10  -9    1.44    0.18
   0  10  -9    2.23    0.16
   0  10  -9    2.28    0.22
   0  10  -9    2.55    0.20
  -1  10  -9    4.79    0.28
  -1  10  -9    4.97    0.21
  -1  10  -9    5.17    0.27
  -2  10  -9   -0.06    0.08
  -2  10  -9    0.09    0.13
  -2  10  -9    0.04    0.12
  -3  10  -9    0.07    0.10
  -3  10  -9    0.09    0.13
  -3  10  -9    0.40    0.16
  -4  10  -9    0.41    0.11
  -4  10  -9    0.22    0.18
   5   9  -9    0.67    0.13
   4   9  -9    2.02    0.22
   3   9  -9    3.35    0.26
   2   9  -9    1.10    0.16
   2   9  -9    1.11    0.12
   1   9  -9    6.98    0.24
   1   9  -9    7.03    0.32
   0   9  -9    2.91    0.22
   0   9  -9    2.78    0.16
   0   9  -9    2.66    0.19
  -1   9  -9    3.90    0.18
  -1   9  -9    4.07    0.24
  -1   9  -9    3.79    0.24
  -2   9  -9    1.73    0.17
  -2   9  -9    1.63    0.14
  -2   9  -9    1.76    0.18
  -3   9  -9    0.16    0.11
  -3   9  -9    0.02    0.08
  -3   9  -9    0.20    0.14
  -4   9  -9    0.18    0.16
  -4   9  -9    0.27    0.10
  -4   9  -9    0.26    0.13
  -5   9  -9    0.42    0.12
  -5   9  -9    1.05    0.21
   6   8  -9    0.57    0.15
   5   8  -9   12.81    0.43
   4   8  -9    4.49    0.23
   4   8  -9    4.51    0.29
   3   8  -9    0.13    0.12
   3   8  -9    0.26    0.09
   2   8  -9    6.97    0.31
   2   8  -9    6.51    0.23
   1   8  -9    0.34    0.08
   1   8  -9    0.17    0.10
   0   8  -9    1.27    0.14
   0   8  -9    1.08    0.12
   0   8  -9    1.31    0.11
  -1   8  -9    0.11    0.06
  -1   8  -9    0.20    0.10
  -1   8  -9    0.14    0.09
  -2   8  -9    0.50    0.08
  -2   8  -9    0.52    0.13
  -2   8  -9    0.33    0.11
  -3   8  -9    4.32    0.19
  -3   8  -9    4.36    0.27
  -3   8  -9    4.53    0.24
  -4   8  -9    0.47    0.12
  -4   8  -9    0.67    0.16
  -4   8  -9    0.52    0.10
  -5   8  -9    0.05    0.16
  -5   8  -9   -0.06    0.10
  -5   8  -9    0.18    0.12
  -6   8  -9    1.38    0.16
  -6   8  -9    2.00    0.25
   7   7  -9    0.74    0.17
   6   7  -9    4.88    0.30
   5   7  -9    3.10    0.23
   4   7  -9    0.00    0.09
   4   7  -9   -0.01    0.10
   3   7  -9    1.07    0.11
   3   7  -9    1.01    0.14
   2   7  -9    0.85    0.09
   2   7  -9    0.73    0.09
   2   7  -9    0.67    0.12
   1   7  -9    1.36    0.11
   1   7  -9    1.34    0.14
   0   7  -9    2.33    0.12
   0   7  -9    2.07    0.17
   0   7  -9    2.33    0.16
  -1   7  -9    0.66    0.08
  -1   7  -9    0.66    0.11
  -1   7  -9    0.90    0.12
  -2   7  -9    0.07    0.06
  -2   7  -9    0.11    0.09
  -2   7  -9    0.05    0.09
  -3   7  -9    0.08    0.08
  -3   7  -9    0.10    0.11
  -3   7  -9    0.10    0.07
  -4   7  -9   -0.05    0.09
  -4   7  -9    0.14    0.09
  -4   7  -9    0.18    0.13
  -5   7  -9    0.38    0.16
  -5   7  -9    0.39    0.12
  -5   7  -9    0.46    0.11
  -6   7  -9    0.11    0.12
  -6   7  -9   -0.29    0.10
  -6   7  -9    0.08    0.16
   7   6  -9    1.67    0.22
   6   6  -9    1.41    0.18
   5   6  -9    0.51    0.14
   5   6  -9    0.46    0.12
   4   6  -9    0.48    0.10
   4   6  -9    0.40    0.12
   3   6  -9    0.54    0.09
   3   6  -9    0.38    0.11
   2   6  -9    1.69    0.16
   2   6  -9    1.72    0.12
   2   6  -9    1.65    0.12
   1   6  -9   19.67    0.44
   1   6  -9   18.75    0.52
   0   6  -9   24.81    0.63
   0   6  -9   25.01    0.55
   0   6  -9   25.66    0.62
  -1   6  -9    9.48    0.30
  -1   6  -9    9.33    0.25
  -1   6  -9    9.90    0.31
  -2   6  -9    7.49    0.28
  -2   6  -9    7.42    0.26
  -2   6  -9    7.76    0.22
  -3   6  -9    1.22    0.14
  -3   6  -9    1.41    0.12
  -3   6  -9    1.19    0.11
  -4   6  -9    0.53    0.13
  -4   6  -9    0.33    0.08
  -4   6  -9    0.27    0.09
  -5   6  -9    0.63    0.16
  -5   6  -9    0.71    0.12
  -5   6  -9    0.75    0.12
  -6   6  -9    0.14    0.15
  -6   6  -9    0.02    0.11
  -6   6  -9    0.02    0.11
  -7   6  -9    0.14    0.16
  -7   6  -9   -0.06    0.13
  -7   6  -9   -0.40    0.11
   8   5  -9    0.44    0.19
   7   5  -9    0.31    0.16
   6   5  -9    0.06    0.12
   5   5  -9    0.12    0.11
   5   5  -9    0.10    0.11
   4   5  -9    7.00    0.28
   4   5  -9    7.39    0.31
   3   5  -9    5.61    0.25
   3   5  -9    5.46    0.22
   2   5  -9   20.80    0.55
   2   5  -9   20.22    0.47
   1   5  -9    3.83    0.14
   1   5  -9    3.63    0.18
   0   5  -9    2.49    0.14
   0   5  -9    2.37    0.15
   0   5  -9    2.37    0.11
  -1   5  -9    2.32    0.15
  -1   5  -9    2.27    0.11
  -1   5  -9    2.46    0.14
  -2   5  -9    2.82    0.17
  -2   5  -9    2.75    0.14
  -2   5  -9    2.61    0.12
  -3   5  -9    2.50    0.18
  -3   5  -9    2.63    0.14
  -3   5  -9    2.54    0.13
  -4   5  -9    0.06    0.07
  -4   5  -9   -0.04    0.10
  -4   5  -9   -0.03    0.07
  -5   5  -9    5.61    0.23
  -5   5  -9    5.68    0.24
  -5   5  -9    5.46    0.29
  -6   5  -9    0.67    0.16
  -6   5  -9    0.32    0.11
  -6   5  -9    0.76    0.13
  -7   5  -9    0.11    0.17
  -7   5  -9   -0.12    0.12
  -7   5  -9    0.20    0.13
   8   4  -9    1.81    0.23
   7   4  -9    0.07    0.14
   6   4  -9    0.45    0.14
   5   4  -9    0.28    0.12
   5   4  -9    0.30    0.11
   4   4  -9    0.37    0.10
   4   4  -9    0.48    0.10
   3   4  -9   27.49    0.67
   3   4  -9   26.93    0.69
   2   4  -9   16.23    0.38
   2   4  -9   16.49    0.45
   1   4  -9    5.76    0.21
   1   4  -9    5.66    0.17
   0   4  -9    0.21    0.05
   0   4  -9    0.18    0.06
  -1   4  -9    4.25    0.16
  -1   4  -9    4.04    0.13
  -1   4  -9    3.82    0.17
  -2   4  -9    3.76    0.13
  -2   4  -9    3.50    0.15
  -2   4  -9    3.49    0.17
  -3   4  -9    0.87    0.09
  -3   4  -9    0.77    0.08
  -3   4  -9    0.85    0.11
  -4   4  -9    8.34    0.30
  -4   4  -9    8.40    0.27
  -4   4  -9    8.77    0.26
  -5   4  -9    0.36    0.10
  -5   4  -9    0.40    0.12
  -5   4  -9    0.41    0.10
  -6   4  -9    7.99    0.30
  -6   4  -9    7.19    0.29
  -6   4  -9    8.14    0.33
  -7   4  -9    2.03    0.18
  -7   4  -9    1.74    0.17
   8   3  -9    0.10    0.15
   7   3  -9    3.18    0.28
   6   3  -9    0.00    0.11
  -6  -3   9    0.12    0.09
   5   3  -9    6.01    0.28
   4   3  -9    8.24    0.30
   4   3  -9    8.89    0.31
   3   3  -9   68.24    1.53
   3   3  -9   68.75    1.53
   2   3  -9   19.92    0.51
   1   3  -9    0.63    0.08
   1   3  -9    0.67    0.06
   0   3  -9    0.17    0.05
   0   3  -9    0.26    0.04
  -1   3  -9    0.06    0.05
  -1   3  -9    0.03    0.05
  -1   3  -9    0.01    0.04
  -2   3  -9    0.03    0.04
  -2   3  -9    0.05    0.06
  -2   3  -9    0.10    0.05
  -3   3  -9   31.04    0.76
  -3   3  -9   32.25    0.68
  -3   3  -9   32.61    0.73
  -4   3  -9    3.09    0.17
  -4   3  -9    3.24    0.16
  -4   3  -9    3.13    0.18
  -5   3  -9    0.60    0.11
  -5   3  -9    0.51    0.10
  -5   3  -9    0.57    0.10
  -6   3  -9    1.32    0.14
  -6   3  -9    1.01    0.14
  -6   3  -9    1.21    0.14
  -7   3  -9    0.16    0.13
  -7   3  -9    0.19    0.13
  -8   3  -9    0.23    0.15
  -8   3  -9    0.30    0.15
   7   2  -9    1.65    0.21
  -7  -2   9    1.38    0.16
   6   2  -9    0.06    0.12
  -6  -2   9   -0.03    0.08
   5   2  -9   -0.10    0.08
   4   2  -9    3.16    0.18
   4   2  -9    3.12    0.19
   3   2  -9    7.54    0.26
   3   2  -9    7.22    0.25
   2   2  -9    3.29    0.15
   1   2  -9    1.25    0.09
   1   2  -9    1.21    0.08
   0   2  -9   13.20    0.29
   0   2  -9   13.38    0.33
  -1   2  -9    0.19    0.04
  -1   2  -9    0.18    0.05
  -2   2  -9    0.12    0.05
  -2   2  -9    0.04    0.06
  -2   2  -9    0.18    0.04
  -3   2  -9    8.97    0.27
  -3   2  -9    9.32    0.27
  -3   2  -9    9.04    0.24
  -4   2  -9    0.88    0.09
  -4   2  -9    1.00    0.10
  -4   2  -9    0.96    0.11
  -5   2  -9    1.65    0.15
  -5   2  -9    1.46    0.13
  -5   2  -9    1.83    0.17
  -6   2  -9    0.06    0.10
  -6   2  -9    0.14    0.11
  -7   2  -9    0.12    0.12
  -7   2  -9    0.12    0.13
  -8   2  -9    1.32    0.18
  -8   2  -9    1.45    0.18
  -7  -1   9    0.15    0.10
   6   1  -9    0.09    0.12
  -6  -1   9    0.02    0.09
   5   1  -9    0.03    0.09
  -5  -1   9    0.21    0.09
   4   1  -9    0.08    0.07
   4   1  -9    0.11    0.08
   3   1  -9   15.44    0.41
   3   1  -9   15.70    0.43
   2   1  -9    4.36    0.16
   1   1  -9    1.06    0.07
   1   1  -9    1.11    0.08
  -1  -1   9    1.18    0.07
   0   1  -9    1.04    0.06
   0   1  -9    1.11    0.07
   0  -1   9    1.09    0.07
  -1   1  -9   28.75    0.64
  -1   1  -9   29.71    0.59
   1  -1   9   29.04    0.65
  -2   1  -9   16.62    0.40
  -2   1  -9   16.42    0.36
   2  -1   9   16.65    0.40
  -3   1  -9    4.11    0.14
  -3   1  -9    4.13    0.16
  -3   1  -9    4.22    0.17
  -4   1  -9   40.70    0.91
  -4   1  -9   39.75    0.83
  -4   1  -9   38.29    0.90
  -5   1  -9    2.22    0.18
  -5   1  -9    2.47    0.16
  -6   1  -9    1.46    0.14
  -6   1  -9    1.43    0.16
  -7   1  -9    0.43    0.13
  -7   1  -9    0.73    0.16
  -8   1  -9   12.48    0.46
  -8   1  -9   12.93    0.42
  -8   0   9    0.25    0.14
  -7   0   9    0.42    0.13
   6   0  -9    0.07    0.11
  -6   0   9    0.24    0.10
   5   0  -9    0.12    0.10
  -5   0   9    0.13    0.08
   4   0  -9    0.81    0.11
   4   0  -9    0.90    0.10
   3   0  -9    2.84    0.13
   3   0  -9    2.64    0.16
   2   0  -9    3.77    0.14
   1   0  -9    4.29    0.14
  -1   0   9    4.05    0.14
   0   0  -9    2.61    0.08
   0   0  -9    2.49    0.09
   0   0   9    2.33    0.09
  -1   0  -9   24.55    0.54
  -1   0  -9   24.07    0.48
   1   0   9   23.46    0.54
  -2   0  -9   52.75    1.04
  -2   0  -9   52.21    1.15
   2   0   9   53.88    1.16
  -3   0  -9   45.81    1.02
  -3   0  -9   45.38    0.92
   3   0   9   45.34    1.02
  -4   0  -9    5.81    0.23
  -4   0  -9    5.72    0.19
   4   0   9    5.95    0.23
  -5   0  -9    1.18    0.14
  -5   0  -9    1.03    0.11
  -6   0  -9    0.51    0.11
  -6   0  -9    0.51    0.13
  -7   0  -9    0.29    0.15
  -7   0  -9    0.40    0.12
  -8   0  -9    1.18    0.16
  -8   0  -9    1.14    0.19
  -8   1   9    0.08    0.12
  -8   1   9    0.11    0.14
  -7   1   9    3.43    0.27
  -6   1   9    0.14    0.10
   5  -1  -9    0.98    0.14
  -5   1   9    1.03    0.13
   4  -1  -9    4.08    0.21
  -4   1   9    4.55    0.22
   3  -1  -9    1.81    0.14
   3  -1  -9    2.00    0.11
   2  -1  -9    4.50    0.14
  -2   1   9    3.93    0.16
   1  -1  -9    7.12    0.19
  -1   1   9    6.99    0.20
   0  -1  -9    2.34    0.09
   0  -1  -9    2.29    0.08
   0   1   9    2.27    0.09
  -1  -1  -9   39.25    0.77
  -1  -1  -9   40.23    0.86
   1   1   9   39.15    0.87
  -2  -1  -9   11.43    0.30
  -2  -1  -9   11.82    0.25
   2   1   9   11.53    0.30
  -3  -1  -9   13.62    0.37
  -3  -1  -9   13.79    0.31
   3   1   9   14.04    0.36
  -4  -1  -9   -0.01    0.08
  -4  -1  -9    0.17    0.06
   4   1   9    0.13    0.06
  -5  -1  -9    5.08    0.19
  -6  -1  -9    1.88    0.16
  -6  -1  -9    1.60    0.17
  -7  -1  -9    0.23    0.15
  -8  -1  -9    0.36    0.17
  -8   2   9    1.34    0.22
  -8   2   9    1.07    0.18
  -7   2   9    0.93    0.14
  -7   2   9    1.02    0.19
  -6   2   9    0.55    0.13
  -5   2   9   -0.08    0.08
  -4   2   9    0.50    0.10
   3  -2  -9    0.07    0.07
  -3   2   9   -0.03    0.06
  -2   2   9    2.13    0.12
   1  -2  -9    4.78    0.13
  -1   2   9    4.97    0.16
   0  -2  -9    1.18    0.07
   0   2   9    1.43    0.08
  -1  -2  -9    2.70    0.11
   1   2   9    2.90    0.11
  -2  -2  -9    1.04    0.09
   2   2   9    1.18    0.08
  -3  -2  -9    0.20    0.04
   3   2   9    0.17    0.06
  -4  -2  -9    0.69    0.07
   4   2   9    0.63    0.08
  -5  -2  -9    0.20    0.08
   5   2   9    0.01    0.07
  -8  -2  -9    5.21    0.33
  -8   3   9    0.01    0.16
  -8   3   9   -0.04    0.11
  -7   3   9    0.01    0.14
  -7   3   9    0.15    0.10
  -6   3   9    0.41    0.14
  -6   3   9    0.41    0.10
  -5   3   9    0.00    0.08
  -4   3   9    2.68    0.20
  -3   3   9    2.80    0.18
  -2   3   9    9.07    0.27
  -2   3   9    9.45    0.31
  -1   3   9   35.90    0.85
  -1   3   9   35.54    0.80
   0  -3  -9    6.48    0.17
   0   3   9    6.61    0.19
  -1  -3  -9    0.87    0.08
   1   3   9    0.84    0.07
   2   3   9   10.90    0.29
   3   3   9    2.27    0.13
   4   3   9    0.05    0.06
   5   3   9    0.68    0.11
   6   3   9   14.28    0.45
  -8   4   9    0.13    0.12
  -8   4   9   -0.23    0.17
  -7   4   9    0.77    0.21
  -7   4   9    0.82    0.15
  -6   4   9    0.11    0.13
  -6   4   9    0.18    0.09
  -5   4   9    0.57    0.14
  -5   4   9    0.56    0.09
  -4   4   9    5.79    0.28
  -4   4   9    5.80    0.21
  -3   4   9    5.44    0.18
  -3   4   9    5.53    0.25
  -2   4   9    1.32    0.11
  -2   4   9    1.38    0.13
  -1   4   9   13.88    0.40
  -1   4   9   13.83    0.36
   0   4   9    6.59    0.19
   0   4   9    6.81    0.23
   1   4   9   -0.02    0.04
   1   4   9    0.01    0.04
   2   4   9    0.56    0.06
   3   4   9    2.39    0.13
   4   4   9    0.74    0.10
   5   4   9    0.84    0.11
   6   4   9    5.97    0.28
  -8   5   9    3.00    0.33
  -8   5   9    3.46    0.27
  -7   5   9    0.05    0.10
  -7   5   9   -0.01    0.17
  -6   5   9    0.02    0.14
  -6   5   9    0.07    0.08
  -5   5   9    2.14    0.15
  -5   5   9    1.95    0.21
  -4   5   9    0.03    0.09
  -4   5   9    0.09    0.05
  -3   5   9    3.80    0.14
  -3   5   9    3.83    0.23
  -2   5   9    9.42    0.33
  -2   5   9    8.49    0.27
  -1   5   9    0.66    0.10
  -1   5   9    0.67    0.08
   0   5   9    3.31    0.13
   0   5   9    3.22    0.16
   1   5   9    1.81    0.10
   2   5   9    5.32    0.18
   3   5   9    0.15    0.06
   4   5   9    6.07    0.24
   5   5   9    3.85    0.21
   6   5   9   -0.04    0.09
   7   5   9   -0.11    0.10
  -7   6   9    3.07    0.23
  -7   6   9    3.29    0.32
  -6   6   9    0.53    0.19
  -6   6   9    0.55    0.11
  -5   6   9    0.27    0.08
  -5   6   9    0.07    0.13
  -4   6   9    0.54    0.15
  -3   6   9    2.84    0.22
  -2   6   9    5.67    0.27
  -1   6   9    0.08    0.06
  -1   6   9    0.06    0.07
   0   6   9    2.86    0.16
   0   6   9    2.70    0.13
   1   6   9   25.46    0.59
   2   6   9    1.15    0.10
   3   6   9    0.36    0.07
   4   6   9    6.13    0.24
   5   6   9    0.35    0.10
   6   6   9    4.08    0.24
  -7   7   9    2.53    0.32
  -6   7   9    1.27    0.25
  -5   7   9    0.49    0.18
  -4   7   9    0.27    0.14
  -3   7   9   -0.01    0.10
  -2   7   9    2.18    0.20
  -1   7   9    0.61    0.11
  -1   7   9    0.68    0.09
   0   7   9    3.37    0.15
   0   7   9    2.94    0.17
   1   7   9    0.08    0.06
   2   7   9    1.75    0.12
   3   7   9    0.41    0.08
   4   7   9    5.12    0.22
   5   7   9    0.12    0.09
   6   7   9    0.29    0.11
  -6   8   9    0.40    0.21
  -5   8   9   -0.16    0.16
  -4   8   9    0.83    0.19
  -3   8   9    0.95    0.17
  -2   8   9    1.49    0.17
  -1   8   9    0.48    0.10
  -1   8   9    0.24    0.07
   0   8   9    0.81    0.09
   1   8   9    0.06    0.07
   2   8   9    0.00    0.06
   3   8   9    0.58    0.09
   4   8   9    8.46    0.29
   5   8   9    3.69    0.21
  -5   9   9    0.54    0.21
  -4   9   9    2.54    0.27
  -3   9   9    0.20    0.14
  -2   9   9    1.04    0.16
   0   9   9    0.01    0.07
   1   9   9    1.27    0.12
   2   9   9    0.63    0.09
   3   9   9    2.81    0.16
   4   9   9    0.71    0.10
   5   9   9    4.43    0.22
  -4  10   9    0.78    0.20
  -3  10   9    1.45    0.21
  -2  10   9    0.74    0.15
   0  10   9    0.45    0.09
   1  10   9    0.55    0.09
   2  10   9    0.81    0.10
   3  10   9   -0.08    0.07
   4  10   9    0.01    0.08
  -3  11   9    0.25    0.16
   1  11   9    0.02    0.08
   2  11   9    0.13    0.08
   3  11 -10    0.04    0.15
   2  11 -10    0.00    0.14
   1  11 -10    1.66    0.15
   1  11 -10    1.71    0.21
   0  11 -10   -0.20    0.13
   0  11 -10    0.10    0.10
  -1  11 -10    0.00    0.10
  -1  11 -10   -0.01    0.13
  -1  11 -10   -0.03    0.13
  -2  11 -10    0.48    0.16
  -2  11 -10    0.15    0.11
   4  10 -10    0.26    0.16
   3  10 -10    3.37    0.29
   2  10 -10    1.04    0.17
   1  10 -10    1.04    0.13
   1  10 -10    0.77    0.16
   0  10 -10    0.08    0.09
   0  10 -10    0.04    0.12
  -1  10 -10    0.04    0.12
  -1  10 -10   -0.16    0.09
  -1  10 -10    0.17    0.12
  -2  10 -10    0.42    0.14
  -2  10 -10    0.74    0.12
  -2  10 -10    0.91    0.17
  -3  10 -10    1.63    0.14
  -3  10 -10    2.06    0.22
  -3  10 -10    1.47    0.18
  -4  10 -10    7.99    0.41
  -4  10 -10    7.66    0.29
   5   9 -10    0.63    0.13
   4   9 -10    2.87    0.27
   3   9 -10    2.75    0.26
   2   9 -10    1.77    0.19
   2   9 -10    1.70    0.14
   1   9 -10    0.40    0.13
   1   9 -10    0.46    0.10
   0   9 -10    1.82    0.18
   0   9 -10    1.93    0.15
  -1   9 -10    0.04    0.11
  -1   9 -10    0.08    0.11
  -1   9 -10    0.10    0.08
  -2   9 -10    1.29    0.17
  -2   9 -10    1.53    0.17
  -2   9 -10    1.76    0.15
  -3   9 -10   -0.03    0.09
  -3   9 -10    0.05    0.14
  -3   9 -10    0.28    0.13
  -4   9 -10    0.10    0.16
  -4   9 -10   -0.15    0.12
  -4   9 -10    0.01    0.10
  -5   9 -10    0.47    0.13
  -5   9 -10    0.78    0.20
   6   8 -10    0.28    0.14
   5   8 -10   -0.09    0.11
   4   8 -10    0.12    0.13
   4   8 -10    0.06    0.10
   3   8 -10    0.15    0.09
   3   8 -10    0.15    0.12
   2   8 -10    0.08    0.11
   2   8 -10    0.10    0.08
   1   8 -10    3.35    0.22
   1   8 -10    3.32    0.17
   0   8 -10    2.67    0.20
   0   8 -10    2.44    0.18
   0   8 -10    2.68    0.15
  -1   8 -10   -0.05    0.09
  -1   8 -10   -0.05    0.09
  -1   8 -10   -0.01    0.07
  -2   8 -10    1.06    0.10
  -2   8 -10    1.00    0.14
  -2   8 -10    1.03    0.14
  -3   8 -10    0.37    0.14
  -3   8 -10    0.36    0.12
  -3   8 -10    0.23    0.09
  -4   8 -10    0.29    0.16
  -4   8 -10    0.21    0.12
  -4   8 -10    0.16    0.10
  -5   8 -10    0.24    0.13
  -5   8 -10    0.57    0.18
  -5   8 -10    0.26    0.12
   7   7 -10    1.04    0.19
   6   7 -10    0.79    0.17
   5   7 -10    0.17    0.14
   5   7 -10    0.10    0.12
   4   7 -10    1.87    0.18
   4   7 -10    1.51    0.19
   3   7 -10    0.51    0.13
   3   7 -10    0.68    0.10
   2   7 -10    2.54    0.20
   2   7 -10    2.49    0.15
   2   7 -10    2.61    0.15
   1   7 -10    0.48    0.08
   1   7 -10    0.31    0.10
   0   7 -10    4.60    0.23
   0   7 -10    4.82    0.18
   0   7 -10    4.85    0.21
  -1   7 -10    0.00    0.08
  -1   7 -10    0.02    0.08
  -1   7 -10    0.08    0.06
  -2   7 -10    0.01    0.08
  -2   7 -10    0.10    0.10
  -2   7 -10   -0.01    0.06
  -3   7 -10    1.50    0.13
  -3   7 -10    1.27    0.14
  -3   7 -10    1.50    0.16
  -4   7 -10    1.18    0.12
  -4   7 -10    1.11    0.14
  -4   7 -10    1.15    0.17
  -5   7 -10   -0.11    0.14
  -5   7 -10   -0.08    0.11
  -5   7 -10    0.00    0.10
  -6   7 -10    0.71    0.14
  -6   7 -10    0.57    0.14
  -6   7 -10    0.84    0.19
   7   6 -10    0.00    0.15
   6   6 -10    2.23    0.22
   5   6 -10    4.83    0.30
   5   6 -10    4.64    0.27
   4   6 -10   -0.03    0.10
   4   6 -10    0.00    0.09
   3   6 -10    0.23    0.10
   3   6 -10    0.22    0.08
   2   6 -10   -0.06    0.06
   2   6 -10   -0.05    0.08
   1   6 -10    2.64    0.18
   1   6 -10    2.51    0.13
   0   6 -10    8.19    0.29
   0   6 -10    8.65    0.24
  -1   6 -10    0.12    0.08
  -1   6 -10    0.02    0.07
  -1   6 -10   -0.02    0.05
  -2   6 -10    3.65    0.19
  -2   6 -10    3.62    0.15
  -2   6 -10    3.49    0.20
  -3   6 -10    7.11    0.22
  -3   6 -10    6.86    0.26
  -3   6 -10    6.86    0.29
  -4   6 -10    0.12    0.08
  -4   6 -10    0.08    0.12
  -4   6 -10    0.10    0.09
  -5   6 -10   -0.12    0.10
  -5   6 -10    0.01    0.10
  -5   6 -10    0.03    0.14
  -6   6 -10    1.36    0.15
  -6   6 -10    1.57    0.20
  -6   6 -10    1.28    0.15
   7   5 -10    2.03    0.23
   6   5 -10    8.73    0.39
   5   5 -10    0.64    0.14
   5   5 -10    0.41    0.13
   4   5 -10    1.13    0.13
   4   5 -10    1.34    0.15
   3   5 -10   -0.04    0.07
   3   5 -10   -0.09    0.08
   2   5 -10    1.57    0.12
   2   5 -10    1.83    0.16
   1   5 -10    0.93    0.08
   1   5 -10    0.59    0.10
   0   5 -10    3.73    0.14
   0   5 -10    3.87    0.18
  -1   5 -10    0.43    0.06
  -1   5 -10    0.29    0.08
  -1   5 -10    0.24    0.08
  -2   5 -10    0.09    0.07
  -2   5 -10    0.05    0.08
  -2   5 -10    0.03    0.05
  -3   5 -10    0.76    0.12
  -3   5 -10    0.75    0.08
  -3   5 -10    0.85    0.10
  -4   5 -10    0.51    0.09
  -4   5 -10    0.40    0.12
  -4   5 -10    0.27    0.09
  -5   5 -10    1.88    0.18
  -5   5 -10    1.93    0.17
  -5   5 -10    1.91    0.18
  -6   5 -10    0.53    0.13
  -6   5 -10    0.61    0.13
  -6   5 -10    0.83    0.16
  -7   5 -10    1.02    0.15
  -7   5 -10    1.01    0.16
   8   4 -10    6.50    0.39
   7   4 -10    1.08    0.19
   6   4 -10    0.11    0.13
   5   4 -10   -0.05    0.10
   5   4 -10    0.14    0.11
   4   4 -10    2.53    0.19
   4   4 -10    2.50    0.18
   3   4 -10    0.57    0.09
   3   4 -10    0.49    0.10
   2   4 -10    1.94    0.15
   2   4 -10    2.00    0.12
   1   4 -10   19.57    0.44
   1   4 -10   19.69    0.51
   0   4 -10   23.13    0.51
   0   4 -10   24.23    0.58
  -1   4 -10    5.98    0.17
  -1   4 -10    5.86    0.21
  -1   4 -10    5.92    0.21
  -2   4 -10    8.04    0.25
  -2   4 -10    8.16    0.27
  -3   4 -10    4.26    0.20
  -3   4 -10    4.29    0.16
  -3   4 -10    4.54    0.18
  -4   4 -10    0.15    0.08
  -4   4 -10    0.08    0.09
  -4   4 -10    0.16    0.08
  -5   4 -10    1.13    0.13
  -5   4 -10    1.27    0.12
  -5   4 -10    1.13    0.14
  -6   4 -10    2.25    0.21
  -6   4 -10    2.15    0.20
  -6   4 -10    2.36    0.22
  -7   4 -10    1.73    0.17
  -7   4 -10    1.18    0.16
   8   3 -10    0.60    0.18
   7   3 -10    1.48    0.21
   6   3 -10    1.79    0.20
  -6  -3  10    1.50    0.16
   5   3 -10    0.39    0.12
   5   3 -10    0.23    0.11
   4   3 -10    1.11    0.13
   4   3 -10    1.20    0.13
   3   3 -10   24.28    0.63
   3   3 -10   25.14    0.63
   2   3 -10   14.05    0.39
   1   3 -10   11.28    0.32
   1   3 -10   11.30    0.28
   0   3 -10    0.67    0.06
   0   3 -10    0.59    0.07
  -1   3 -10    3.73    0.13
  -1   3 -10    3.78    0.15
  -2   3 -10    4.03    0.18
  -2   3 -10    4.30    0.16
  -2   3 -10    4.17    0.14
  -3   3 -10    0.10    0.07
  -3   3 -10    0.05    0.06
  -3   3 -10    0.08    0.08
  -4   3 -10    1.69    0.15
  -4   3 -10    1.76    0.13
  -4   3 -10    1.36    0.13
  -5   3 -10    1.42    0.12
  -5   3 -10    1.13    0.13
  -5   3 -10    1.13    0.13
  -6   3 -10    3.31    0.22
  -6   3 -10    3.87    0.22
  -7   3 -10   -0.31    0.12
  -7   3 -10    0.08    0.12
   7   2 -10    0.10    0.14
  -7  -2  10    0.09    0.10
   6   2 -10   -0.08    0.11
  -6  -2  10    0.11    0.09
   5   2 -10    0.32    0.11
   4   2 -10    0.44    0.10
   4   2 -10    0.56    0.10
   3   2 -10    5.58    0.22
   3   2 -10    5.45    0.23
   2   2 -10   48.92    1.10
   1   2 -10    0.51    0.07
   1   2 -10    0.42    0.05
   0   2 -10   10.90    0.25
   0   2 -10   11.16    0.29
  -1   2 -10    2.56    0.12
  -1   2 -10    2.56    0.10
  -2   2 -10   24.38    0.56
  -2   2 -10   24.07    0.51
  -2   2 -10   24.30    0.58
  -3   2 -10   34.53    0.71
  -3   2 -10   34.04    0.78
  -3   2 -10   34.01    0.79
  -4   2 -10    1.64    0.14
  -4   2 -10    1.67    0.15
  -4   2 -10    1.67    0.13
  -5   2 -10    5.92    0.22
  -5   2 -10    5.94    0.24
  -5   2 -10    6.22    0.25
  -6   2 -10    0.01    0.10
  -6   2 -10    0.00    0.12
  -7   2 -10    4.69    0.27
  -7   2 -10    4.56    0.25
  -7  -1  10    0.10    0.11
   6   1 -10    0.65    0.14
  -6  -1  10    0.59    0.13
   5   1 -10   15.14    0.49
   4   1 -10   14.67    0.41
   4   1 -10   14.60    0.45
   3   1 -10    9.01    0.30
   3   1 -10    9.25    0.28
   2   1 -10   15.40    0.40
   1   1 -10   51.79    1.13
   1   1 -10   51.85    1.04
  -1  -1  10   51.97    1.14
   0   1 -10    0.04    0.03
   0   1 -10   -0.01    0.04
   0  -1  10   -0.01    0.03
  -1   1 -10    0.26    0.04
  -1   1 -10    0.27    0.05
   1  -1  10    0.23    0.04
  -2   1 -10   73.29    1.51
  -2   1 -10   70.28    1.38
   2  -1  10   67.79    1.52
  -3   1 -10    4.79    0.19
  -3   1 -10    4.82    0.16
  -4   1 -10    6.40    0.20
  -4   1 -10    6.76    0.24
  -4   1 -10    6.19    0.21
  -5   1 -10    5.87    0.22
  -5   1 -10    5.96    0.26
  -6   1 -10    0.83    0.12
  -6   1 -10    0.91    0.15
  -7   1 -10    1.46    0.15
  -7   1 -10    1.33    0.18
  -8   1 -10    0.88    0.15
  -8   1 -10    0.52    0.17
  -8   0  10    0.78    0.18
  -7   0  10    0.51    0.14
  -6   0  10    2.92    0.23
   5   0 -10    3.95    0.24
  -5   0  10    3.87    0.23
   4   0 -10   -0.03    0.06
   4   0 -10    0.00    0.08
   3   0 -10   -0.10    0.07
   3   0 -10   -0.11    0.05
   2   0 -10    8.64    0.25
   1   0 -10   13.11    0.32
  -1   0  10   13.09    0.33
   0   0 -10    3.28    0.12
   0   0 -10    3.43    0.10
   0   0  10    3.27    0.12
  -1   0 -10    0.89    0.08
  -1   0 -10    0.84    0.06
   1   0  10    0.79    0.07
  -2   0 -10    8.39    0.20
  -2   0 -10    8.72    0.24
   2   0  10    8.34    0.23
  -3   0 -10    2.57    0.11
  -3   0 -10    2.88    0.16
   3   0  10    2.69    0.13
  -4   0 -10    0.27    0.07
  -4   0 -10    0.26    0.09
  -5   0 -10    0.02    0.10
  -5   0 -10    0.06    0.08
  -6   0 -10    1.12    0.12
  -6   0 -10    1.14    0.16
  -7   0 -10    2.08    0.19
  -7   0 -10    1.45    0.19
  -8   0 -10    0.41    0.17
  -8   1  10    0.24    0.16
  -8   1  10    0.05    0.12
  -7   1  10   -0.07    0.12
  -6   1  10    0.04    0.11
  -5   1  10    0.67    0.12
   4  -1 -10    0.79    0.12
  -4   1  10    0.72    0.11
   3  -1 -10    7.63    0.27
   3  -1 -10    7.18    0.22
   2  -1 -10    5.36    0.17
  -2   1  10    4.99    0.18
   1  -1 -10    2.17    0.09
  -1   1  10    2.13    0.11
   0  -1 -10    1.82    0.07
   0  -1 -10    1.78    0.08
   0   1  10    1.86    0.09
  -1  -1 -10    8.92    0.19
  -1  -1 -10    8.63    0.23
   1   1  10    8.21    0.23
  -2  -1 -10    7.76    0.18
  -2  -1 -10    7.82    0.23
   2   1  10    7.69    0.22
  -3  -1 -10    4.00    0.18
  -3  -1 -10    3.95    0.13
   3   1  10    4.01    0.16
  -4  -1 -10    0.21    0.09
  -4  -1 -10    0.25    0.06
   4   1  10    0.28    0.07
  -5  -1 -10    6.80    0.22
  -5  -1 -10    6.90    0.29
  -6  -1 -10    0.52    0.11
  -6  -1 -10    0.44    0.14
  -7  -1 -10   14.76    0.50
  -8  -1 -10    4.37    0.32
  -8   2  10   -0.15    0.15
  -8   2  10    0.11    0.12
  -7   2  10    0.13    0.15
  -6   2  10    0.10    0.10
  -5   2  10    0.22    0.10
  -4   2  10    3.17    0.20
   3  -2 -10    3.19    0.18
  -3   2  10    3.24    0.19
   2  -2 -10    4.58    0.14
  -2   2  10    4.32    0.17
   1  -2 -10    1.15    0.07
  -1   2  10    1.14    0.09
   0  -2 -10    6.95    0.18
   0   2  10    7.40    0.20
  -1  -2 -10    2.83    0.12
   1   2  10    2.46    0.11
  -2  -2 -10   11.63    0.32
   2   2  10   11.93    0.31
  -3  -2 -10    0.59    0.05
  -3  -2 -10    0.60    0.09
   3   2  10    0.60    0.07
   4   2  10    0.08    0.06
   5   2  10    5.54    0.23
  -7  -2 -10    0.11    0.15
  -8   3  10    0.63    0.21
  -8   3  10    0.77    0.16
  -7   3  10    1.34    0.22
  -7   3  10    1.23    0.16
  -6   3  10    1.94    0.22
  -6   3  10    1.71    0.15
  -5   3  10    0.13    0.10
  -4   3  10    0.38    0.10
  -3   3  10    1.74    0.16
  -2   3  10    2.80    0.17
  -2   3  10    2.49    0.14
  -1   3  10    2.44    0.12
  -1   3  10    2.42    0.15
   0  -3 -10    0.88    0.07
   0   3  10    0.80    0.08
  -1  -3 -10   23.94    0.54
   1   3  10   23.50    0.55
  -2  -3 -10    1.54    0.12
   2   3  10    1.79    0.10
   3   3  10    3.55    0.16
   4   3  10    5.23    0.21
   5   3  10    0.31    0.09
  -8   4  10    0.25    0.19
  -8   4  10   -0.17    0.10
  -7   4  10   -0.01    0.16
  -7   4  10    0.17    0.10
  -6   4  10    2.11    0.18
  -6   4  10    2.05    0.24
  -5   4  10    1.97    0.15
  -5   4  10    1.78    0.19
  -4   4  10    0.08    0.09
  -4   4  10    0.15    0.06
  -3   4  10   -0.02    0.04
  -3   4  10    0.01    0.08
  -2   4  10    0.25    0.09
  -2   4  10    0.30    0.07
  -1   4  10    0.19    0.07
  -1   4  10    0.24    0.06
   0  -4 -10   11.55    0.27
   0   4  10   11.72    0.34
   0   4  10   11.94    0.31
  -1  -4 -10   -0.02    0.05
   1   4  10   -0.05    0.04
   1   4  10   -0.07    0.04
   2   4  10    0.29    0.06
   3   4  10    1.57    0.12
   4   4  10    0.11    0.07
   5   4  10    0.87    0.12
   6   4  10    1.98    0.19
  -7   5  10    0.41    0.21
  -7   5  10    0.50    0.13
  -6   5  10    1.10    0.21
  -6   5  10    1.22    0.14
  -5   5  10    5.87    0.23
  -5   5  10    6.57    0.35
  -4   5  10    0.38    0.07
  -4   5  10    0.55    0.13
  -3   5  10    1.12    0.15
  -2   5  10    8.25    0.27
  -2   5  10    8.76    0.32
  -1   5  10    1.36    0.12
  -1   5  10    1.74    0.15
   0   5  10    2.30    0.14
   0   5  10    2.02    0.12
  -1  -5 -10    0.72    0.07
   1   5  10    0.71    0.07
   2   5  10    2.32    0.13
   3   5  10    0.15    0.07
   4   5  10    3.18    0.18
   5   5  10   10.53    0.35
   6   5  10    5.27    0.27
   7   5  10    0.23    0.12
  -7   6  10    0.07    0.19
  -7   6  10    0.24    0.11
  -6   6  10    0.89    0.22
  -5   6  10    3.54    0.30
  -4   6  10    0.74    0.16
  -3   6  10    3.25    0.24
  -2   6  10    0.41    0.08
  -2   6  10    0.49    0.12
  -1   6  10    0.04    0.08
  -1   6  10   -0.03    0.06
   0   6  10    3.41    0.18
   0   6  10    3.45    0.15
   1   6  10   12.34    0.33
   2   6  10    0.85    0.08
   3   6  10    0.74    0.09
   4   6  10    7.29    0.27
   5   6  10    5.03    0.24
   6   6  10    1.55    0.16
  -7   7  10    0.18    0.23
  -6   7  10    0.42    0.21
  -5   7  10    0.97    0.21
  -4   7  10   -0.09    0.14
  -3   7  10    0.05    0.11
  -2   7  10    4.61    0.26
  -1   7  10    4.46    0.23
  -1   7  10    4.21    0.19
   0   7  10    0.59    0.08
   1   7  10    0.00    0.06
   2   7  10    0.38    0.08
   3   7  10    3.97    0.18
   4   7  10    2.35    0.17
   5   7  10    4.16    0.22
   6   7  10    1.76    0.16
  -6   8  10    0.06    0.21
  -5   8  10   -0.15    0.17
  -4   8  10    0.20    0.15
  -3   8  10    0.92    0.17
  -2   8  10    4.92    0.28
  -1   8  10   16.24    0.49
  -1   8  10   15.91    0.45
   0   8  10   13.12    0.37
   1   8  10    8.10    0.26
   2   8  10    0.32    0.08
   3   8  10    1.58    0.14
   4   8  10    0.61    0.10
   5   8  10    0.47    0.11
  -5   9  10    0.22    0.20
  -4   9  10    0.20    0.16
  -3   9  10    0.44    0.15
  -2   9  10    0.23    0.12
   0   9  10    0.06    0.08
   1   9  10    0.11    0.08
   2   9  10    0.04    0.08
   3   9  10    0.09    0.08
   4   9  10   -0.03    0.08
  -4  10  10    0.26    0.18
  -3  10  10    0.47    0.17
   0  10  10    0.22    0.09
   1  10  10    0.20    0.09
   2  10  10    0.34    0.09
   3  10  10   -0.15    0.08
   1  11  10    0.08    0.08
   2  11 -11    8.62    0.41
   1  11 -11    1.82    0.22
   1  11 -11    2.18    0.20
   0  11 -11    0.12    0.11
   0  11 -11    0.14    0.15
  -1  11 -11    0.09    0.11
  -1  11 -11    0.08    0.13
  -2  11 -11   -0.09    0.15
  -2  11 -11   -0.07    0.11
  -2  11 -11   -0.10    0.14
   4  10 -11   -0.02    0.15
   3  10 -11    0.80    0.18
   2  10 -11    2.11    0.22
   1  10 -11    0.36    0.11
   1  10 -11    0.31    0.14
   0  10 -11    0.28    0.10
   0  10 -11    0.05    0.13
  -1  10 -11    2.10    0.21
  -1  10 -11    2.69    0.19
  -1  10 -11    2.62    0.24
  -2  10 -11   -0.22    0.12
  -2  10 -11   -0.04    0.10
  -2  10 -11    0.01    0.14
  -3  10 -11    0.35    0.11
  -3  10 -11    0.39    0.15
  -3  10 -11    0.58    0.18
   5   9 -11    1.47    0.17
   4   9 -11    1.13    0.14
   4   9 -11    0.80    0.18
   3   9 -11    0.13    0.14
   2   9 -11    3.65    0.27
   2   9 -11    3.56    0.20
   1   9 -11    1.90    0.17
   1   9 -11    1.48    0.18
   0   9 -11    1.07    0.12
   0   9 -11    1.05    0.16
  -1   9 -11    0.33    0.12
  -1   9 -11    0.17    0.09
  -1   9 -11    0.21    0.12
  -2   9 -11    1.50    0.18
  -2   9 -11    1.79    0.19
  -2   9 -11    1.29    0.13
  -3   9 -11    2.49    0.23
  -3   9 -11    2.63    0.18
  -3   9 -11    2.84    0.25
  -4   9 -11    0.99    0.14
  -4   9 -11    0.91    0.17
  -4   9 -11    1.11    0.20
   6   8 -11    0.55    0.15
   5   8 -11    0.04    0.12
   5   8 -11    0.28    0.16
   4   8 -11    2.11    0.18
   4   8 -11    2.07    0.22
   3   8 -11   -0.06    0.09
   3   8 -11   -0.01    0.12
   2   8 -11    6.88    0.25
   2   8 -11    6.80    0.25
   2   8 -11    7.33    0.33
   1   8 -11    0.03    0.08
   1   8 -11    0.07    0.11
   0   8 -11    2.09    0.20
   0   8 -11    2.46    0.15
  -1   8 -11    4.10    0.24
  -1   8 -11    3.46    0.18
  -1   8 -11    4.22    0.23
  -2   8 -11    2.43    0.16
  -2   8 -11    2.56    0.22
  -2   8 -11    2.67    0.23
  -3   8 -11    0.25    0.12
  -3   8 -11    0.41    0.10
  -3   8 -11    0.52    0.15
  -4   8 -11    2.72    0.19
  -4   8 -11    2.80    0.27
  -4   8 -11    2.85    0.24
  -5   8 -11    0.42    0.13
  -5   8 -11    0.50    0.15
  -5   8 -11    0.52    0.18
   6   7 -11   10.25    0.42
   5   7 -11    1.02    0.18
   5   7 -11    1.24    0.17
   4   7 -11    0.07    0.12
   4   7 -11    0.04    0.10
   3   7 -11    9.64    0.33
   3   7 -11    9.69    0.38
   2   7 -11   -0.02    0.07
   2   7 -11    0.08    0.07
   2   7 -11   -0.16    0.09
   1   7 -11    0.39    0.11
   1   7 -11    0.59    0.09
   0   7 -11    0.58    0.11
   0   7 -11    0.55    0.08
  -1   7 -11    0.03    0.09
  -1   7 -11    0.05    0.09
  -1   7 -11    0.10    0.07
  -2   7 -11    6.91    0.29
  -2   7 -11    7.02    0.30
  -2   7 -11    7.11    0.23
  -3   7 -11    0.14    0.12
  -3   7 -11   -0.16    0.10
  -3   7 -11   -0.11    0.07
  -4   7 -11    1.07    0.17
  -4   7 -11    0.65    0.11
  -4   7 -11    0.83    0.14
  -5   7 -11   -0.14    0.12
  -5   7 -11    0.07    0.11
  -5   7 -11    0.03    0.15
  -6   7 -11   -0.02    0.13
  -6   7 -11   -0.15    0.12
  -6   7 -11    0.01    0.17
   7   6 -11    3.55    0.31
   6   6 -11   -0.08    0.13
   5   6 -11    3.21    0.26
   5   6 -11    3.09    0.24
   4   6 -11   -0.11    0.09
   4   6 -11    0.12    0.11
   3   6 -11    3.78    0.20
   3   6 -11    4.11    0.24
   2   6 -11   -0.07    0.06
   2   6 -11    0.02    0.08
   1   6 -11    0.82    0.12
   1   6 -11    0.95    0.09
   0   6 -11    0.02    0.06
   0   6 -11    0.06    0.08
  -1   6 -11    0.37    0.07
  -1   6 -11    0.36    0.09
  -1   6 -11    0.32    0.09
  -2   6 -11    0.86    0.11
  -2   6 -11    0.92    0.12
  -2   6 -11    0.66    0.08
  -3   6 -11    1.94    0.14
  -3   6 -11    2.03    0.20
  -3   6 -11    1.66    0.17
  -4   6 -11    0.36    0.11
  -4   6 -11    0.45    0.14
  -4   6 -11    0.45    0.10
  -5   6 -11    0.46    0.15
  -5   6 -11    0.47    0.12
  -5   6 -11    0.39    0.12
  -6   6 -11   -0.03    0.13
  -6   6 -11    0.03    0.12
  -6   6 -11    0.11    0.15
   7   5 -11    2.90    0.29
   6   5 -11    3.71    0.29
   5   5 -11    0.52    0.14
   5   5 -11    0.84    0.16
   4   5 -11    0.72    0.12
   4   5 -11    0.77    0.14
   3   5 -11    5.72    0.27
   3   5 -11    5.98    0.24
   2   5 -11    2.14    0.17
   2   5 -11    2.07    0.13
   1   5 -11   12.31    0.31
   1   5 -11   12.40    0.38
   0   5 -11    5.98    0.23
   0   5 -11    5.90    0.19
  -1   5 -11    5.19    0.17
  -1   5 -11    5.54    0.22
  -1   5 -11    5.47    0.22
  -2   5 -11    2.61    0.18
  -2   5 -11    2.62    0.16
  -2   5 -11    2.78    0.13
  -3   5 -11    0.06    0.07
  -3   5 -11   -0.01    0.08
  -3   5 -11   -0.11    0.09
  -4   5 -11    0.38    0.12
  -4   5 -11    0.23    0.09
  -4   5 -11    0.33    0.09
  -5   5 -11   -0.21    0.09
  -5   5 -11   -0.13    0.10
  -5   5 -11   -0.10    0.12
  -6   5 -11   -0.08    0.13
  -6   5 -11   -0.02    0.12
  -6   5 -11   -0.08    0.12
  -7   5 -11    0.80    0.15
  -7   5 -11    0.55    0.15
   8   4 -11    1.10    0.21
   7   4 -11    0.12    0.15
   6   4 -11    0.69    0.16
   5   4 -11    0.45    0.13
   5   4 -11    0.54    0.13
   4   4 -11    0.09    0.09
   4   4 -11    0.08    0.09
   3   4 -11    6.76    0.26
   3   4 -11    6.80    0.28
   2   4 -11    4.70    0.21
   2   4 -11    4.32    0.17
   1   4 -11    0.15    0.06
   1   4 -11    0.25    0.08
   0   4 -11    9.82    0.30
   0   4 -11    9.73    0.25
  -1   4 -11    3.16    0.13
  -1   4 -11    2.98    0.16
  -2   4 -11    2.13    0.15
  -2   4 -11    1.80    0.14
  -2   4 -11    1.91    0.11
  -3   4 -11    0.00    0.09
  -3   4 -11   -0.02    0.06
  -3   4 -11    0.04    0.07
  -4   4 -11   -0.02    0.08
  -4   4 -11   -0.03    0.09
  -4   4 -11    0.00    0.07
  -5   4 -11    1.85    0.17
  -5   4 -11    1.86    0.14
  -5   4 -11    1.93    0.19
  -6   4 -11    1.12    0.14
  -6   4 -11    0.83    0.14
  -6   4 -11    0.69    0.14
  -7   4 -11    1.34    0.16
  -7   4 -11    0.70    0.15
   8   3 -11    0.13    0.17
   7   3 -11    3.49    0.30
  -7  -3  11    4.13    0.27
   6   3 -11    0.44    0.15
   5   3 -11    0.38    0.12
   5   3 -11    0.67    0.13
   4   3 -11    1.52    0.15
   4   3 -11    1.48    0.15
   3   3 -11    8.07    0.29
   3   3 -11    8.29    0.29
   2   3 -11    1.20    0.11
   1   3 -11    6.76    0.20
   1   3 -11    6.78    0.23
   0   3 -11   -0.01    0.04
   0   3 -11    0.01    0.06
  -1   3 -11    0.73    0.06
  -1   3 -11    0.95    0.09
  -2   3 -11    5.72    0.20
  -2   3 -11    5.61    0.21
  -2   3 -11    5.71    0.17
  -3   3 -11    0.30    0.07
  -3   3 -11    0.33    0.08
  -3   3 -11    0.30    0.09
  -4   3 -11    3.66    0.20
  -4   3 -11    3.70    0.19
  -4   3 -11    3.46    0.16
  -5   3 -11   13.61    0.41
  -5   3 -11   13.62    0.41
  -5   3 -11   14.07    0.37
  -6   3 -11    6.01    0.28
  -6   3 -11    6.29    0.26
  -7   3 -11    0.10    0.12
  -7   3 -11    0.35    0.14
   7   2 -11    1.08    0.19
  -7  -2  11    1.05    0.16
   6   2 -11   -0.17    0.11
  -6  -2  11    0.03    0.09
   5   2 -11    0.32    0.12
   5   2 -11    0.06    0.10
   4   2 -11   10.54    0.35
   4   2 -11   10.48    0.37
   3   2 -11    8.16    0.29
   3   2 -11    7.96    0.28
   2   2 -11    9.65    0.30
   1   2 -11   17.18    0.43
   1   2 -11   16.70    0.38
   0   2 -11    0.41    0.07
   0   2 -11    0.57    0.06
  -1   2 -11   15.74    0.35
  -1   2 -11   15.55    0.39
  -2   2 -11   22.97    0.55
  -2   2 -11   23.59    0.50
  -3   2 -11    6.27    0.22
  -3   2 -11    6.72    0.19
  -3   2 -11    6.37    0.22
  -4   2 -11    0.48    0.10
  -4   2 -11    0.43    0.08
  -4   2 -11    0.34    0.09
  -5   2 -11    1.66    0.16
  -5   2 -11    1.68    0.15
  -5   2 -11    1.70    0.15
  -6   2 -11    0.01    0.10
  -6   2 -11   -0.23    0.12
  -7   2 -11    1.57    0.18
  -7   2 -11    1.83    0.17
  -8  -1  11    0.23    0.14
   6   1 -11    1.41    0.18
  -6  -1  11    1.47    0.17
   5   1 -11    2.04    0.19
   4   1 -11    0.25    0.09
   4   1 -11    0.30    0.09
   3   1 -11    3.15    0.18
   3   1 -11    3.37    0.17
   2   1 -11   21.48    0.53
   1   1 -11    3.63    0.13
   1   1 -11    3.46    0.15
  -1  -1  11    3.72    0.14
   0   1 -11    0.24    0.05
   0   1 -11    0.29    0.06
   0  -1  11    0.38    0.05
  -1   1 -11    1.77    0.10
  -1   1 -11    1.94    0.09
   1  -1  11    1.72    0.09
  -2   1 -11    2.86    0.11
  -2   1 -11    2.82    0.14
  -3   1 -11    0.30    0.06
  -3   1 -11    0.15    0.08
  -4   1 -11    3.16    0.15
  -4   1 -11    3.25    0.18
  -5   1 -11    3.03    0.17
  -5   1 -11    3.03    0.20
  -6   1 -11    0.36    0.10
  -6   1 -11    0.23    0.13
  -7   1 -11    0.32    0.15
  -7   1 -11    0.15    0.11
  -8   0  11    0.20    0.15
  -7   0  11    0.13    0.13
  -6   0  11    0.59    0.14
   5   0 -11    0.32    0.12
  -5   0  11    0.62    0.12
   4   0 -11   13.07    0.42
   4   0 -11   13.43    0.38
   3   0 -11   19.40    0.53
   3   0 -11   19.83    0.49
   2   0 -11    1.44    0.11
  -2   0  11    1.29    0.10
   1   0 -11    6.63    0.20
  -1   0  11    6.45    0.20
   0   0 -11   14.39    0.34
   0   0 -11   14.51    0.31
   0   0  11   13.68    0.35
  -1   0 -11   19.65    0.40
  -1   0 -11   18.59    0.44
   1   0  11   18.55    0.45
  -2   0 -11    0.29    0.05
  -2   0 -11    0.26    0.07
   2   0  11    0.38    0.05
  -3   0 -11    5.57    0.21
  -3   0 -11    5.13    0.16
  -4   0 -11    9.03    0.30
  -4   0 -11    9.07    0.24
  -5   0 -11    2.85    0.16
  -5   0 -11    2.72    0.21
  -6   0 -11    6.04    0.30
  -6   0 -11    6.27    0.24
  -7   0 -11    4.03    0.29
  -8   1  11    0.11    0.15
  -7   1  11   -0.08    0.12
  -6   1  11    2.60    0.24
  -5   1  11    0.86    0.14
   4  -1 -11   14.81    0.46
  -4   1  11   14.59    0.46
   3  -1 -11    0.41    0.09
   3  -1 -11    0.48    0.07
   2  -1 -11    4.88    0.17
  -2   1  11    4.66    0.18
   1  -1 -11    5.58    0.17
  -1   1  11    5.66    0.19
   0  -1 -11    0.06    0.04
   0  -1 -11    0.07    0.04
   0   1  11    0.06    0.04
  -1  -1 -11   26.05    0.58
  -1  -1 -11   25.71    0.51
   1   1  11   24.39    0.58
  -2  -1 -11    9.03    0.26
  -2  -1 -11    8.85    0.20
   2   1  11    8.66    0.25
  -3  -1 -11    0.02    0.04
  -3  -1 -11   -0.01    0.07
   3   1  11   -0.05    0.05
  -4  -1 -11    4.68    0.16
  -4  -1 -11    4.96    0.22
  -5  -1 -11   13.08    0.41
  -6  -1 -11    3.74    0.26
  -7  -1 -11    0.08    0.15
  -8   2  11    0.87    0.16
  -8   2  11    0.48    0.20
  -7   2  11    0.74    0.19
  -6   2  11    0.01    0.11
  -5   2  11    5.67    0.29
  -4   2  11    0.36    0.11
  -3   2  11    8.50    0.32
   2  -2 -11    0.47    0.06
  -2   2  11    0.47    0.07
   1  -2 -11    0.92    0.07
  -1   2  11    0.93    0.09
   0  -2 -11    3.87    0.13
   0   2  11    3.53    0.14
  -1  -2 -11   21.72    0.50
   1   2  11   21.24    0.51
  -2  -2 -11   35.82    0.80
   2   2  11   35.28    0.81
  -3  -2 -11    2.36    0.16
   3   2  11    2.55    0.13
  -4  -2 -11    9.39    0.32
   4   2  11   10.22    0.31
  -5  -2 -11   -0.12    0.11
  -6  -2 -11    0.19    0.14
  -7  -2 -11    1.86    0.22
  -8   3  11   -0.08    0.17
  -8   3  11    0.04    0.12
  -7   3  11    0.71    0.14
  -7   3  11    0.43    0.18
  -6   3  11    0.48    0.15
  -6   3  11    0.54    0.11
  -5   3  11    0.24    0.12
  -4   3  11    0.14    0.09
  -3   3  11   -0.07    0.07
  -2   3  11    1.85    0.16
  -2   3  11    1.86    0.13
   1  -3 -11    1.60    0.08
  -1   3  11    1.49    0.11
   0  -3 -11    9.59    0.24
   0   3  11    9.79    0.27
  -1  -3 -11   12.21    0.31
   1   3  11   12.67    0.32
  -2  -3 -11    1.91    0.13
   2   3  11    2.11    0.12
  -3  -3 -11   -0.19    0.07
   3   3  11    0.04    0.06
  -4  -3 -11    0.21    0.10
   4   3  11    0.42    0.08
   5   3  11    1.81    0.16
  -6  -3 -11    5.19    0.30
  -7  -3 -11    4.28    0.32
  -8   4  11    0.08    0.13
  -8   4  11   -0.02    0.20
  -7   4  11    0.11    0.10
  -7   4  11   -0.07    0.16
  -6   4  11    0.48    0.16
  -6   4  11    0.32    0.10
  -5   4  11    1.84    0.15
  -5   4  11    1.56    0.20
  -4   4  11    0.09    0.09
  -4   4  11    0.05    0.05
  -3   4  11    5.34    0.18
  -3   4  11    5.76    0.27
  -2   4  11    5.60    0.25
  -2   4  11    5.67    0.22
  -1   4  11    4.64    0.18
  -1   4  11    5.03    0.22
   0  -4 -11    6.50    0.17
   0   4  11    6.84    0.24
   0   4  11    6.36    0.21
  -1  -4 -11    2.67    0.12
   1   4  11    2.37    0.13
   1   4  11    2.62    0.12
  -2  -4 -11    0.19    0.07
   2   4  11    0.16    0.06
   3   4  11    0.08    0.06
   4   4  11    0.45    0.09
   5   4  11   13.50    0.42
   6   4  11    1.22    0.14
  -7  -4 -11    0.86    0.19
  -7   5  11    0.58    0.13
  -7   5  11    0.46    0.21
  -6   5  11    1.11    0.22
  -6   5  11    0.66    0.11
  -5   5  11    2.36    0.24
  -5   5  11    2.39    0.16
  -4   5  11    0.99    0.16
  -3   5  11    1.51    0.17
  -2   5  11    3.59    0.18
  -2   5  11    3.79    0.22
  -1   5  11   -0.03    0.06
  -1   5  11   -0.02    0.07
   0   5  11    0.03    0.06
   0   5  11    0.12    0.06
  -1  -5 -11    1.49    0.11
   1   5  11    1.33    0.11
  -2  -5 -11    0.11    0.07
   2   5  11    0.17    0.06
   3   5  11    0.74    0.09
   4   5  11    0.54    0.10
   5   5  11    6.41    0.27
   6   5  11   -0.01    0.10
  -7   6  11    0.89    0.24
  -6   6  11    0.00    0.18
  -5   6  11    0.37    0.17
  -4   6  11    1.70    0.20
  -3   6  11    1.04    0.16
  -2   6  11    0.92    0.11
  -2   6  11    1.38    0.16
  -1   6  11    0.37    0.08
  -1   6  11    0.42    0.10
   0   6  11    6.45    0.22
   0   6  11    6.52    0.25
   1   6  11    3.18    0.15
   2   6  11    0.77    0.09
   3   6  11    5.20    0.21
   4   6  11    5.39    0.24
   5   6  11    0.07    0.09
   6   6  11    0.00    0.10
  -6   7  11    2.91    0.33
  -5   7  11    0.39    0.18
  -4   7  11    0.72    0.18
  -3   7  11    1.48    0.20
  -2   7  11    2.94    0.23
  -1   7  11    2.01    0.15
  -1   7  11    2.22    0.18
   0   7  11    6.91    0.24
   1   7  11    0.15    0.07
   2   7  11    1.38    0.13
   3   7  11    5.91    0.23
   4   7  11    0.00    0.09
   5   7  11    3.77    0.22
  -6   8  11    1.49    0.27
  -5   8  11    0.06    0.17
  -4   8  11    0.00    0.15
  -3   8  11    0.32    0.15
  -2   8  11   -0.09    0.10
  -1   8  11    1.16    0.13
  -1   8  11    1.14    0.14
   0   8  11    0.76    0.10
   1   8  11    1.46    0.14
   2   8  11    0.04    0.08
   3   8  11    1.69    0.16
   4   8  11    1.98    0.17
   5   8  11    0.86    0.12
  -5   9  11    0.44    0.21
  -4   9  11    0.33    0.18
  -3   9  11    0.11    0.14
  -2   9  11    0.07    0.12
  -1   9  11    0.04    0.08
   0   9  11    0.42    0.10
   1   9  11    0.20    0.09
   2   9  11    0.44    0.10
   3   9  11    0.04    0.09
   4   9  11   10.14    0.34
  -4  10  11    0.95    0.21
  -3  10  11    0.42    0.17
   0  10  11    8.14    0.30
   1  10  11    0.11    0.09
   2  10  11    0.28    0.10
   3  10  11    0.62    0.11
   1  11 -12    0.03    0.11
   1  11 -12   -0.05    0.15
   0  11 -12   -0.03    0.11
   0  11 -12   -0.10    0.14
  -1  11 -12    0.12    0.11
  -1  11 -12    0.44    0.16
   3  10 -12    0.07    0.15
   2  10 -12    0.27    0.16
   1  10 -12    0.10    0.11
   1  10 -12   -0.03    0.13
   0  10 -12   -0.18    0.09
   0  10 -12    0.29    0.14
  -1  10 -12   -0.12    0.13
  -1  10 -12   -0.02    0.10
  -2  10 -12   -0.18    0.13
  -2  10 -12    0.01    0.10
  -2  10 -12   -0.07    0.14
  -3  10 -12   10.00    0.43
  -3  10 -12   10.37    0.34
  -3  10 -12   10.58    0.44
   5   9 -12    1.77    0.24
   5   9 -12    1.56    0.18
   4   9 -12    2.41    0.22
   4   9 -12    2.27    0.24
   3   9 -12    2.17    0.23
   2   9 -12    0.79    0.12
   2   9 -12    0.65    0.17
   1   9 -12    1.44    0.14
   1   9 -12    0.96    0.17
   0   9 -12    3.43    0.20
   0   9 -12    3.33    0.25
  -1   9 -12    0.05    0.09
  -1   9 -12   -0.11    0.11
  -2   9 -12    0.09    0.13
  -2   9 -12   -0.18    0.12
  -2   9 -12   -0.09    0.09
  -3   9 -12    8.93    0.39
  -3   9 -12    8.21    0.38
  -3   9 -12    8.67    0.30
  -4   9 -12    3.14    0.27
  -4   9 -12    3.01    0.22
  -4   9 -12    2.66    0.24
   5   8 -12    1.01    0.20
   5   8 -12    0.95    0.16
   4   8 -12    4.82    0.26
   4   8 -12    5.08    0.32
   3   8 -12    0.21    0.13
   3   8 -12   -0.03    0.10
   2   8 -12    0.70    0.11
   2   8 -12    1.01    0.12
   2   8 -12    0.89    0.15
   1   8 -12   -0.04    0.11
   1   8 -12    0.05    0.09
   0   8 -12    2.26    0.16
   0   8 -12    2.62    0.22
  -1   8 -12    2.59    0.22
  -1   8 -12    3.00    0.22
  -1   8 -12    2.53    0.17
  -2   8 -12    2.02    0.19
  -2   8 -12    2.01    0.16
  -2   8 -12    1.91    0.18
  -3   8 -12    0.03    0.12
  -3   8 -12    0.07    0.14
  -3   8 -12    0.22    0.10
  -4   8 -12    1.54    0.19
  -4   8 -12    2.14    0.22
  -4   8 -12    1.61    0.14
  -5   8 -12   -0.19    0.14
  -5   8 -12    0.28    0.18
  -5   8 -12    0.06    0.12
   6   7 -12    0.03    0.14
   5   7 -12   -0.01    0.13
   5   7 -12    0.27    0.15
   4   7 -12    0.69    0.16
   4   7 -12    0.81    0.13
   3   7 -12   -0.05    0.09
   3   7 -12   -0.26    0.10
   2   7 -12    6.89    0.25
   2   7 -12    7.01    0.32
   1   7 -12    0.47    0.09
   1   7 -12    0.38    0.11
   0   7 -12    1.19    0.11
   0   7 -12    1.39    0.15
  -1   7 -12    2.42    0.15
  -1   7 -12    2.43    0.20
  -1   7 -12    2.30    0.19
  -2   7 -12    1.24    0.11
  -2   7 -12    1.61    0.16
  -2   7 -12    1.57    0.16
  -3   7 -12    0.85    0.15
  -3   7 -12    0.71    0.13
  -3   7 -12    0.51    0.10
  -4   7 -12    0.16    0.14
  -4   7 -12   -0.03    0.11
  -4   7 -12   -0.01    0.09
  -5   7 -12    0.69    0.16
  -5   7 -12    1.32    0.19
  -5   7 -12    1.43    0.15
   7   6 -12    0.07    0.16
   6   6 -12    0.23    0.15
   5   6 -12    0.32    0.14
   5   6 -12    0.53    0.16
   4   6 -12    0.27    0.12
   4   6 -12    0.62    0.14
   3   6 -12    9.29    0.36
   3   6 -12    9.39    0.33
   2   6 -12    0.06    0.07
   2   6 -12   -0.04    0.09
   1   6 -12   -0.07    0.08
   1   6 -12    0.05    0.07
   0   6 -12    0.73    0.12
   0   6 -12    0.61    0.08
  -1   6 -12    0.22    0.09
  -1   6 -12    0.10    0.07
  -2   6 -12    3.64    0.22
  -2   6 -12    3.49    0.16
  -2   6 -12    3.47    0.21
  -3   6 -12    0.48    0.12
  -3   6 -12    0.54    0.09
  -3   6 -12    0.61    0.13
  -4   6 -12   -0.19    0.10
  -4   6 -12   -0.15    0.12
  -4   6 -12   -0.06    0.09
  -5   6 -12    0.64    0.14
  -5   6 -12    0.80    0.13
  -5   6 -12    0.93    0.17
  -6   6 -12    1.57    0.16
  -6   6 -12    1.20    0.19
  -6   6 -12    0.88    0.16
   7   5 -12    2.98    0.30
   6   5 -12    2.72    0.24
   5   5 -12    0.03    0.13
   5   5 -12    0.09    0.12
   4   5 -12    0.68    0.13
   4   5 -12    0.60    0.13
   3   5 -12    0.97    0.12
   3   5 -12    0.89    0.13
   2   5 -12    0.04    0.08
   2   5 -12    0.01    0.06
   1   5 -12    4.50    0.22
   1   5 -12    4.66    0.18
   0   5 -12    1.15    0.10
   0   5 -12    0.99    0.11
  -1   5 -12    1.26    0.12
  -1   5 -12    1.52    0.11
  -2   5 -12    6.16    0.25
  -2   5 -12    6.30    0.20
  -2   5 -12    6.38    0.25
  -3   5 -12    0.02    0.08
  -3   5 -12    0.02    0.07
  -3   5 -12   -0.02    0.10
  -4   5 -12    0.81    0.12
  -4   5 -12    0.95    0.14
  -4   5 -12    0.75    0.11
  -5   5 -12    0.23    0.12
  -5   5 -12    0.18    0.11
  -5   5 -12    0.09    0.13
  -6   5 -12    0.08    0.13
  -6   5 -12    0.35    0.13
  -6   5 -12    0.46    0.15
   7   4 -12    1.69    0.22
   6   4 -12    0.70    0.17
   5   4 -12    1.51    0.18
   5   4 -12    1.96    0.19
   4   4 -12    9.99    0.36
   4   4 -12   10.39    0.37
   3   4 -12    4.89    0.24
   3   4 -12    4.71    0.23
   2   4 -12    2.36    0.14
   2   4 -12    2.56    0.17
   1   4 -12    7.39    0.22
   1   4 -12    7.41    0.27
   0   4 -12    0.23    0.08
   0   4 -12    0.31    0.06
  -1   4 -12    2.17    0.12
  -1   4 -12    2.34    0.15
  -2   4 -12    0.01    0.08
  -2   4 -12   -0.05    0.07
  -2   4 -12    0.08    0.06
  -3   4 -12    0.14    0.07
  -3   4 -12    0.18    0.08
  -3   4 -12    0.03    0.09
  -4   4 -12    0.55    0.09
  -4   4 -12    0.55    0.10
  -4   4 -12    0.52    0.12
  -5   4 -12   -0.04    0.10
  -5   4 -12   -0.11    0.11
  -5   4 -12    0.06    0.11
  -6   4 -12    1.25    0.16
  -6   4 -12    1.21    0.14
  -7   4 -12    0.15    0.13
  -7   4 -12    0.14    0.14
   8   3 -12    0.09    0.17
   7   3 -12    7.57    0.40
  -7  -3  12    8.07    0.37
   6   3 -12   -0.06    0.13
   5   3 -12    3.41    0.25
   5   3 -12    3.79    0.24
   4   3 -12    4.99    0.25
   4   3 -12    4.83    0.25
   3   3 -12    0.41    0.10
   3   3 -12    0.32    0.09
   2   3 -12   16.96    0.47
   1   3 -12    6.61    0.20
   1   3 -12    6.78    0.24
   0   3 -12    9.82    0.25
   0   3 -12    9.70    0.29
  -1   3 -12    3.06    0.15
  -1   3 -12    2.89    0.12
  -2   3 -12    1.18    0.10
  -2   3 -12    0.78    0.09
  -3   3 -12    0.17    0.09
  -3   3 -12    0.28    0.08
  -3   3 -12    0.17    0.07
  -4   3 -12    0.34    0.10
  -4   3 -12    0.32    0.10
  -4   3 -12    0.41    0.08
  -5   3 -12    2.77    0.20
  -5   3 -12    2.64    0.20
  -5   3 -12    3.05    0.18
  -6   3 -12    1.35    0.16
  -6   3 -12    1.23    0.14
  -7   3 -12    0.79    0.16
  -7   3 -12    0.88    0.15
   7   2 -12    0.37    0.16
  -7  -2  12    0.63    0.16
   6   2 -12    0.54    0.15
  -6  -2  12    0.66    0.14
   5   2 -12    2.01    0.19
   5   2 -12    2.23    0.20
   4   2 -12   14.18    0.43
   4   2 -12   14.76    0.46
   3   2 -12    9.99    0.33
   3   2 -12    9.57    0.32
   2   2 -12    1.45    0.14
   1   2 -12    0.05    0.06
   1   2 -12    0.03    0.05
   0   2 -12    2.05    0.13
   0   2 -12    1.75    0.10
  -1   2 -12    0.05    0.05
  -1   2 -12    0.00    0.06
  -2   2 -12    3.28    0.15
  -2   2 -12    3.16    0.13
  -3   2 -12    0.38    0.08
  -3   2 -12    0.30    0.07
  -4   2 -12    8.16    0.29
  -4   2 -12    9.04    0.25
  -5   2 -12    0.68    0.10
  -5   2 -12    0.62    0.13
  -6   2 -12    0.22    0.11
  -6   2 -12    0.12    0.13
  -7   2 -12    0.65    0.16
  -7   2 -12    0.84    0.14
  -8  -1  12    0.19    0.14
  -7  -1  12   -0.04    0.12
   6   1 -12    0.02    0.13
  -6  -1  12    0.12    0.11
   5   1 -12    0.00    0.10
   4   1 -12    7.21    0.27
   4   1 -12    7.16    0.30
   3   1 -12   10.60    0.35
   3   1 -12   10.30    0.32
   2   1 -12   -0.01    0.06
   1   1 -12    0.00    0.05
   1   1 -12    0.03    0.06
   0   1 -12    8.12    0.21
   0   1 -12    7.69    0.23
  -1   1 -12   12.58    0.28
  -1   1 -12   12.19    0.32
  -2   1 -12    1.06    0.08
  -2   1 -12    1.05    0.09
  -3   1 -12    1.53    0.10
  -3   1 -12    1.51    0.14
  -4   1 -12   27.70    0.67
  -4   1 -12   26.67    0.59
  -5   1 -12    2.20    0.20
  -5   1 -12    2.61    0.16
  -6   1 -12    8.54    0.28
  -7   1 -12    3.23    0.22
  -8   0  12    0.04    0.15
  -7   0  12    0.59    0.15
  -6   0  12    1.53    0.19
   5   0 -12    7.13    0.33
  -5   0  12    6.75    0.32
   4   0 -12    1.18    0.11
   4   0 -12    1.37    0.15
   3   0 -12    0.30    0.09
   3   0 -12    0.38    0.08
   2   0 -12   17.77    0.45
   1   0 -12   23.16    0.54
  -1   0  12   22.58    0.55
   0   0 -12   29.12    0.60
   0   0 -12   29.86    0.66
   0   0  12   28.48    0.67
  -1   0 -12   20.99    0.48
  -1   0 -12   20.66    0.43
   1   0  12   19.40    0.48
  -2   0 -12   15.02    0.33
  -2   0 -12   15.00    0.38
  -3   0 -12    2.00    0.15
  -3   0 -12    1.97    0.10
  -4   0 -12   12.89    0.38
  -4   0 -12   13.24    0.32
  -5   0 -12    0.52    0.13
  -5   0 -12    0.66    0.09
  -7   0 -12    2.11    0.21
  -8   1  12    0.24    0.17
  -7   1  12    0.75    0.17
  -6   1  12    0.30    0.13
  -5   1  12    2.77    0.22
   4  -1 -12    1.63    0.16
  -4   1  12    2.06    0.18
   3  -1 -12    0.32    0.09
   3  -1 -12    0.36    0.07
   2  -1 -12   13.63    0.34
  -2   1  12   12.73    0.37
   1  -1 -12    4.38    0.15
  -1   1  12    4.42    0.17
   0  -1 -12    6.32    0.17
   0  -1 -12    6.58    0.19
   0   1  12    6.33    0.20
  -1  -1 -12    1.04    0.10
  -1  -1 -12    1.22    0.07
   1   1  12    0.98    0.09
  -2  -1 -12    0.02    0.07
  -2  -1 -12    0.01    0.04
   2   1  12    0.03    0.04
  -3  -1 -12    0.70    0.06
  -3  -1 -12    0.78    0.10
   3   1  12    0.70    0.08
  -4  -1 -12    1.57    0.14
  -5  -1 -12    2.85    0.22
  -6  -1 -12    2.38    0.21
  -7  -1 -12    0.13    0.16
  -8   2  12    0.25    0.13
  -8   2  12    0.23    0.18
  -7   2  12    0.00    0.15
  -6   2  12    1.12    0.18
  -5   2  12    0.72    0.14
  -4   2  12   10.92    0.40
  -3   2  12    0.19    0.09
   2  -2 -12   -0.01    0.05
  -2   2  12    0.02    0.06
   1  -2 -12    1.53    0.09
  -1   2  12    1.63    0.11
   0  -2 -12    2.59    0.11
   0   2  12    2.60    0.12
  -1  -2 -12    4.66    0.16
   1   2  12    4.29    0.16
  -2  -2 -12    1.49    0.13
   2   2  12    1.38    0.10
  -3  -2 -12    2.70    0.17
   3   2  12    2.77    0.14
  -4  -2 -12    2.39    0.18
   4   2  12    2.58    0.16
  -5  -2 -12    2.13    0.18
  -6  -2 -12    2.12    0.21
  -7  -2 -12    5.40    0.33
  -8   3  12    0.01    0.11
  -8   3  12   -0.27    0.17
  -7   3  12   -0.04    0.17
  -7   3  12    0.14    0.10
  -6   3  12    0.34    0.15
  -5   3  12    7.26    0.35
  -4   3  12   -0.04    0.09
  -3   3  12    0.21    0.10
  -2   3  12    0.49    0.08
  -2   3  12    0.46    0.10
  -1   3  12    2.58    0.14
   0  -3 -12    0.01    0.04
   0   3  12   -0.02    0.05
  -1  -3 -12    0.83    0.08
   1   3  12    0.74    0.08
  -2  -3 -12    0.99    0.10
   2   3  12    0.89    0.08
  -3  -3 -12    1.89    0.16
   3   3  12    1.66    0.12
  -4  -3 -12   -0.14    0.10
   4   3  12   -0.07    0.06
  -5  -3 -12    0.02    0.12
  -6  -3 -12    3.54    0.28
  -7  -3 -12    0.27    0.17
  -7   4  12   -0.11    0.18
  -7   4  12    0.08    0.10
  -6   4  12    1.35    0.23
  -6   4  12    1.04    0.13
  -5   4  12    0.81    0.17
  -5   4  12    0.95    0.11
  -4   4  12    0.12    0.10
  -4   4  12    0.13    0.06
  -3   4  12    1.74    0.18
  -2   4  12    0.60    0.11
  -2   4  12    0.69    0.10
  -1   4  12    0.20    0.08
  -1   4  12    0.24    0.07
   0   4  12    9.68    0.32
   0   4  12    9.81    0.28
  -1  -4 -12   14.48    0.36
   1   4  12   14.33    0.40
   1   4  12   14.85    0.38
  -2  -4 -12    1.94    0.14
   2   4  12    1.96    0.13
  -3  -4 -12   15.46    0.43
   3   4  12   16.25    0.43
  -4  -4 -12    0.35    0.12
   4   4  12    0.10    0.08
  -5  -4 -12    1.26    0.17
   5   4  12    1.01    0.13
  -6  -4 -12    0.42    0.16
  -7   5  12   -0.01    0.20
  -6   5  12    2.23    0.27
  -5   5  12    0.61    0.17
  -4   5  12    1.86    0.21
  -3   5  12    0.21    0.11
  -2   5  12   -0.10    0.08
  -2   5  12   -0.03    0.07
  -1   5  12   11.55    0.38
  -1   5  12   11.07    0.33
   0   5  12    5.43    0.23
   0   5  12    5.46    0.20
   1   5  12    1.58    0.12
  -2  -5 -12    3.85    0.18
   2   5  12    3.67    0.17
  -3  -5 -12    0.12    0.10
   3   5  12    0.02    0.07
   4   5  12    0.15    0.09
   5   5  12    0.00    0.09
  -6  -5 -12    0.09    0.15
   6   5  12   -0.07    0.09
  -7   6  12   -0.32    0.19
  -6   6  12    2.30    0.28
  -5   6  12    1.12    0.21
  -4   6  12   -0.09    0.12
  -3   6  12    5.50    0.31
  -2   6  12    3.59    0.20
  -2   6  12    3.66    0.24
  -1   6  12    7.17    0.26
  -1   6  12    7.08    0.30
   0   6  12    1.66    0.13
   0   6  12    1.71    0.15
   1   6  12    0.30    0.08
   2   6  12    0.35    0.08
  -3  -6 -12    3.23    0.20
   3   6  12    2.54    0.17
   4   6  12    3.98    0.21
   5   6  12    3.66    0.22
   6   6  12    0.47    0.12
  -6   7  12    0.56    0.22
  -5   7  12   -0.12    0.17
  -4   7  12    3.12    0.30
  -3   7  12    0.49    0.15
  -2   7  12    1.19    0.17
  -1   7  12    0.11    0.10
  -1   7  12    0.24    0.09
   0   7  12    3.59    0.19
   1   7  12    0.02    0.07
   2   7  12   -0.11    0.07
   3   7  12    6.32    0.25
   4   7  12    6.86    0.27
   5   7  12    1.68    0.16
  -5   8  12    0.58    0.20
  -4   8  12    0.96    0.21
  -3   8  12    0.20    0.15
  -2   8  12    2.00    0.20
  -1   8  12    3.07    0.20
   0   8  12    0.25    0.10
   1   8  12    0.41    0.09
   2   8  12    0.10    0.09
   3   8  12    1.45    0.13
   4   8  12    4.51    0.23
  -5   9  12   -0.10    0.17
  -4   9  12    0.29    0.17
  -3   9  12    0.23    0.15
  -2   9  12    7.99    0.37
  -1   9  12    9.68    0.35
   0   9  12    0.01    0.09
   1   9  12    0.17    0.09
   2   9  12    0.42    0.10
   3   9  12    4.20    0.22
  -3  10  12    0.07    0.14
   0  10  12    1.01    0.14
   1  10  12    0.15    0.10
   2  10  12    0.18    0.09
   3  10 -13    4.67    0.34
   2  10 -13    4.85    0.34
   1  10 -13    4.94    0.25
   1  10 -13    4.39    0.32
   0  10 -13   -0.23    0.13
   0  10 -13    0.06    0.11
  -1  10 -13    0.71    0.17
  -1  10 -13    0.83    0.13
  -2  10 -13    0.28    0.12
  -2  10 -13    0.41    0.17
   4   9 -13   -0.05    0.12
   4   9 -13    0.08    0.15
   3   9 -13    0.45    0.12
   3   9 -13    0.35    0.16
   2   9 -13    0.86    0.17
   1   9 -13    2.71    0.25
   1   9 -13    2.53    0.20
   0   9 -13    0.47    0.15
   0   9 -13    0.71    0.12
  -1   9 -13    0.41    0.15
  -1   9 -13    0.21    0.10
  -2   9 -13    0.43    0.16
  -2   9 -13    0.45    0.16
  -2   9 -13    0.44    0.11
  -3   9 -13    0.22    0.15
  -3   9 -13   -0.10    0.16
  -3   9 -13    0.25    0.12
  -4   9 -13    0.77    0.19
  -4   9 -13    0.63    0.18
  -4   9 -13    0.53    0.13
   5   8 -13    1.69    0.23
   5   8 -13    1.61    0.19
   4   8 -13    0.26    0.12
   4   8 -13    0.02    0.15
   3   8 -13    3.52    0.22
   3   8 -13    3.64    0.28
   2   8 -13    0.10    0.10
   2   8 -13    0.04    0.09
   2   8 -13    0.11    0.13
   1   8 -13    1.05    0.16
   1   8 -13    1.45    0.14
   0   8 -13    1.08    0.16
   0   8 -13    1.36    0.13
  -1   8 -13    0.17    0.13
  -1   8 -13    0.05    0.09
  -2   8 -13    8.74    0.37
  -2   8 -13    9.05    0.36
  -2   8 -13    8.75    0.29
  -3   8 -13   -0.02    0.13
  -3   8 -13    0.09    0.10
  -3   8 -13   -0.02    0.14
  -4   8 -13    0.86    0.13
  -4   8 -13    0.61    0.17
  -4   8 -13    0.85    0.18
   6   7 -13    1.01    0.18
   5   7 -13    0.93    0.16
   5   7 -13    0.78    0.18
   4   7 -13    0.19    0.14
   4   7 -13    0.44    0.13
   3   7 -13    2.52    0.21
   3   7 -13    2.69    0.24
   2   7 -13    0.35    0.10
   2   7 -13    0.30    0.12
   1   7 -13    3.46    0.24
   1   7 -13    3.47    0.18
   0   7 -13   -0.03    0.10
   0   7 -13    0.03    0.07
  -1   7 -13    2.49    0.16
  -1   7 -13    2.65    0.22
  -2   7 -13    1.29    0.12
  -2   7 -13    1.24    0.16
  -2   7 -13    1.56    0.16
  -3   7 -13   -0.05    0.12
  -3   7 -13   -0.02    0.13
  -3   7 -13   -0.29    0.09
  -4   7 -13    0.85    0.17
  -4   7 -13    0.86    0.16
  -4   7 -13    1.01    0.13
  -5   7 -13    9.42    0.32
  -5   7 -13    8.91    0.40
  -5   7 -13    8.68    0.38
   6   6 -13    0.13    0.15
   5   6 -13    0.09    0.14
   5   6 -13    0.07    0.13
   4   6 -13    7.75    0.33
   4   6 -13    7.85    0.36
   3   6 -13    0.31    0.11
   3   6 -13    0.11    0.12
   2   6 -13    0.91    0.11
   2   6 -13    0.60    0.13
   1   6 -13    0.13    0.08
   1   6 -13    0.06    0.09
   0   6 -13    0.67    0.12
   0   6 -13    0.69    0.09
  -1   6 -13    0.78    0.09
  -1   6 -13    0.55    0.11
  -2   6 -13    0.35    0.08
  -2   6 -13    0.40    0.11
  -2   6 -13    0.69    0.13
  -3   6 -13    4.73    0.26
  -3   6 -13    5.45    0.21
  -3   6 -13    5.15    0.28
  -4   6 -13   -0.02    0.10
  -4   6 -13   -0.03    0.11
  -4   6 -13    0.16    0.13
  -5   6 -13    0.03    0.13
  -5   6 -13    0.06    0.14
  -5   6 -13    0.11    0.11
  -6   6 -13    0.24    0.15
  -6   6 -13    0.62    0.14
  -6   6 -13    0.39    0.17
   7   5 -13   -0.03    0.16
   6   5 -13    1.33    0.20
   5   5 -13    1.82    0.20
   5   5 -13    2.20    0.22
   4   5 -13    0.63    0.13
   4   5 -13    0.73    0.14
   3   5 -13    0.24    0.10
   3   5 -13    0.06    0.10
   2   5 -13    2.13    0.15
   2   5 -13    2.37    0.19
   1   5 -13    1.25    0.13
   1   5 -13    1.25    0.11
   0   5 -13    0.52    0.10
   0   5 -13    0.60    0.08
  -1   5 -13    3.13    0.15
  -1   5 -13    3.02    0.19
  -2   5 -13    3.24    0.19
  -2   5 -13    2.84    0.15
  -3   5 -13    1.04    0.10
  -3   5 -13    1.01    0.14
  -3   5 -13    1.08    0.13
  -4   5 -13    7.04    0.31
  -4   5 -13    7.48    0.26
  -4   5 -13    7.35    0.29
  -5   5 -13    0.38    0.14
  -5   5 -13    0.08    0.11
  -5   5 -13    0.10    0.12
  -6   5 -13   -0.01    0.14
  -6   5 -13   -0.23    0.12
  -6   5 -13    0.21    0.12
   7   4 -13   -0.12    0.15
   6   4 -13    1.50    0.20
   5   4 -13    0.02    0.12
   5   4 -13    0.11    0.12
   4   4 -13    2.43    0.22
   4   4 -13    2.51    0.21
   3   4 -13    0.18    0.10
   3   4 -13    0.17    0.10
   2   4 -13    0.92    0.12
   1   4 -13    1.12    0.09
   1   4 -13    1.08    0.12
   0   4 -13    0.27    0.06
   0   4 -13    0.20    0.08
  -1   4 -13    5.30    0.18
  -1   4 -13    5.03    0.22
  -2   4 -13    0.31    0.09
  -2   4 -13    0.42    0.08
  -3   4 -13    0.71    0.09
  -3   4 -13    0.54    0.11
  -3   4 -13    0.41    0.09
  -4   4 -13   -0.03    0.09
  -4   4 -13   -0.01    0.10
  -4   4 -13    0.08    0.11
  -5   4 -13   -0.22    0.11
  -5   4 -13    0.12    0.10
  -5   4 -13    0.18    0.12
  -6   4 -13    2.19    0.19
  -6   4 -13    1.78    0.18
   7   3 -13    0.14    0.16
  -7  -3  13    0.07    0.13
   6   3 -13    0.26    0.14
   5   3 -13    0.27    0.13
   5   3 -13   -0.01    0.11
   4   3 -13    0.32    0.11
   4   3 -13    0.15    0.11
   3   3 -13    0.32    0.10
   3   3 -13    0.33    0.10
   2   3 -13    0.31    0.09
   1   3 -13    2.65    0.13
   1   3 -13    2.84    0.17
   0   3 -13    2.88    0.13
   0   3 -13    3.13    0.17
  -1   3 -13   -0.09    0.07
  -1   3 -13    0.05    0.05
  -2   3 -13    0.22    0.07
  -2   3 -13    0.33    0.07
  -3   3 -13    0.10    0.08
  -3   3 -13    0.17    0.07
  -4   3 -13    1.37    0.14
  -4   3 -13    1.46    0.11
  -5   3 -13   -0.11    0.11
  -5   3 -13    0.07    0.09
  -6   3 -13    0.96    0.13
  -6   3 -13    0.96    0.16
  -7   3 -13    0.05    0.14
  -7   3 -13   -0.13    0.12
   7   2 -13    0.41    0.17
  -7  -2  13    0.36    0.15
   6   2 -13    0.60    0.16
  -6  -2  13    0.38    0.14
   5   2 -13    2.21    0.21
   5   2 -13    2.63    0.21
   4   2 -13    3.20    0.20
   4   2 -13    3.47    0.23
   3   2 -13    0.30    0.09
   2   2 -13   10.63    0.33
   1   2 -13    1.87    0.14
   1   2 -13    1.51    0.11
   0   2 -13   -0.02    0.06
   0   2 -13    0.03    0.05
  -1   2 -13   15.99    0.36
  -1   2 -13   15.77    0.41
  -2   2 -13    0.54    0.07
  -2   2 -13    0.50    0.08
  -3   2 -13   -0.01    0.08
  -3   2 -13   -0.01    0.06
  -4   2 -13    5.01    0.23
  -4   2 -13    5.19    0.19
  -5   2 -13    4.54    0.25
  -5   2 -13    5.48    0.21
  -6   2 -13    0.43    0.11
  -6   2 -13    0.10    0.13
  -7   2 -13    1.07    0.18
  -7   2 -13    1.61    0.15
  -8  -1  13    0.37    0.17
  -7  -1  13    2.46    0.25
   6   1 -13    7.49    0.37
  -6  -1  13    7.27    0.36
   5   1 -13    2.26    0.21
   5   1 -13    1.90    0.19
   4   1 -13    0.60    0.12
   4   1 -13    0.34    0.09
   3   1 -13    0.10    0.07
   2   1 -13   16.02    0.43
   1   1 -13   23.41    0.56
   1   1 -13   22.90    0.51
   0   1 -13    6.78    0.22
   0   1 -13    6.65    0.19
  -1   1 -13   21.09    0.51
  -1   1 -13   21.42    0.46
  -2   1 -13    0.80    0.09
  -2   1 -13    0.77    0.07
  -3   1 -13    0.08    0.08
  -3   1 -13    0.04    0.06
  -4   1 -13    2.42    0.14
  -4   1 -13    2.45    0.18
  -5   1 -13    0.79    0.14
  -5   1 -13    0.72    0.10
  -6   1 -13    0.60    0.11
  -6   1 -13    0.66    0.15
  -7   1 -13    0.13    0.15
  -8   0  13    1.69    0.24
  -6   0  13   10.50    0.44
   5   0 -13    2.58    0.23
  -5   0  13    2.40    0.22
   4   0 -13    6.16    0.24
   4   0 -13    6.37    0.29
   3   0 -13    1.47    0.15
   3   0 -13    1.66    0.13
   2   0 -13   -0.01    0.07
   1   0 -13    1.86    0.12
   0   0 -13    7.60    0.20
   0   0 -13    7.82    0.23
  -1   0 -13    6.15    0.17
  -1   0 -13    6.05    0.20
  -2   0 -13    0.45    0.08
  -2   0 -13    0.48    0.06
  -3   0 -13    9.42    0.24
  -3   0 -13    9.45    0.30
  -4   0 -13    0.46    0.07
  -4   0 -13    0.50    0.11
  -5   0 -13    0.12    0.12
  -6   0 -13    0.59    0.15
  -7   0 -13    0.49    0.17
  -8   1  13    0.18    0.18
  -7   1  13    1.44    0.22
  -6   1  13    0.78    0.17
  -5   1  13    3.32    0.25
   3  -1 -13    3.42    0.21
   3  -1 -13    3.70    0.16
   2  -1 -13    1.21    0.11
  -2   1  13    1.05    0.10
   1  -1 -13   20.47    0.48
  -1   1  13   20.04    0.51
   0  -1 -13    5.60    0.18
   0   1  13    5.70    0.19
  -1  -1 -13    1.96    0.09
  -1  -1 -13    1.92    0.12
   1   1  13    1.92    0.11
  -2  -1 -13    2.22    0.14
   2   1  13    2.13    0.12
  -3  -1 -13    0.12    0.09
  -4  -1 -13    1.23    0.14
  -5  -1 -13   20.94    0.58
  -6  -1 -13    7.59    0.34
  -7  -1 -13    0.19    0.17
  -8   2  13    0.04    0.11
  -8   2  13    0.57    0.21
  -7   2  13    1.15    0.21
  -6   2  13    0.89    0.18
  -5   2  13    8.31    0.37
  -4   2  13    0.65    0.13
  -2   2  13    2.48    0.15
   1  -2 -13    0.05    0.05
  -1   2  13    0.07    0.06
   0  -2 -13    0.32    0.06
   0   2  13    0.21    0.06
  -1  -2 -13   10.79    0.29
   1   2  13   10.73    0.30
  -2  -2 -13    0.07    0.08
   2   2  13    0.11    0.05
  -3  -2 -13    0.75    0.11
   3   2  13    0.53    0.08
  -4  -2 -13    6.18    0.27
  -5  -2 -13   11.06    0.39
  -6  -2 -13    7.99    0.35
  -7  -2 -13    0.15    0.17
  -7   3  13   -0.09    0.16
  -7   3  13    0.07    0.10
  -6   3  13    4.07    0.32
  -5   3  13    1.87    0.21
  -4   3  13    3.55    0.25
  -3   3  13    2.00    0.19
  -2   3  13    0.30    0.08
  -2   3  13    0.29    0.09
  -1   3  13    0.14    0.07
   0  -3 -13   24.87    0.56
   0   3  13   24.57    0.59
  -1  -3 -13    1.47    0.11
   1   3  13    1.81    0.11
  -2  -3 -13    0.49    0.08
   2   3  13    0.54    0.08
  -3  -3 -13    0.40    0.10
   3   3  13    0.43    0.08
  -4  -3 -13    2.47    0.20
   4   3  13    2.20    0.16
  -5  -3 -13    0.78    0.15
  -6  -3 -13    9.89    0.40
  -7   4  13    1.00    0.24
  -7   4  13    0.91    0.14
  -6   4  13    0.60    0.20
  -6   4  13    0.22    0.09
  -5   4  13    0.03    0.12
  -5   4  13    0.03    0.07
  -4   4  13    0.10    0.11
  -3   4  13    0.77    0.14
  -2   4  13    1.95    0.16
  -2   4  13    1.95    0.18
  -1   4  13    2.96    0.19
  -1   4  13    2.58    0.15
   0   4  13    5.41    0.20
   0   4  13    5.83    0.24
  -1  -4 -13   -0.06    0.06
   1   4  13    0.03    0.06
  -2  -4 -13    0.07    0.08
   2   4  13   -0.06    0.06
  -3  -4 -13    0.06    0.09
   3   4  13    0.04    0.07
  -4  -4 -13    4.51    0.24
   4   4  13    5.02    0.22
  -5  -4 -13   -0.03    0.13
   5   4  13    0.04    0.09
  -6  -4 -13    3.55    0.28
  -7   5  13    0.00    0.20
  -6   5  13    0.85    0.23
  -5   5  13    0.52    0.17
  -4   5  13    0.96    0.18
  -3   5  13    0.34    0.12
  -2   5  13    0.61    0.12
  -2   5  13    0.87    0.12
  -1   5  13    8.31    0.32
  -1   5  13    8.35    0.28
   0   5  13    1.36    0.13
   0   5  13    1.12    0.13
   1   5  13    0.34    0.08
  -2  -5 -13    0.28    0.08
   2   5  13   -0.02    0.07
  -3  -5 -13    0.35    0.10
   3   5  13    0.32    0.09
  -4  -5 -13    2.35    0.21
   4   5  13    2.15    0.18
  -5  -5 -13    1.62    0.18
   5   5  13    1.09    0.14
  -6  -5 -13    2.29    0.23
  -6   6  13   -0.12    0.18
  -5   6  13   -0.02    0.15
  -4   6  13    0.46    0.15
  -3   6  13    2.09    0.22
  -2   6  13    0.77    0.15
  -2   6  13    0.62    0.11
  -1   6  13    0.05    0.09
  -1   6  13    0.06    0.08
   0   6  13    1.60    0.14
   1   6  13    0.20    0.08
   2   6  13    0.40    0.09
   3   6  13    0.01    0.09
  -4  -6 -13    4.91    0.25
   4   6  13    4.39    0.23
  -5  -6 -13    0.58    0.15
   5   6  13    0.48    0.11
  -6   7  13   -0.21    0.19
  -5   7  13    0.57    0.21
  -4   7  13    0.77    0.19
  -3   7  13   -0.07    0.13
  -2   7  13    0.40    0.13
  -1   7  13    3.79    0.24
  -1   7  13    4.38    0.22
   0   7  13    0.18    0.09
   1   7  13    0.47    0.10
   2   7  13    6.80    0.26
   3   7  13    3.88    0.21
   4   7  13   -0.02    0.10
   5   7  13    1.46    0.15
  -5   8  13    0.06    0.18
  -4   8  13   -0.18    0.15
  -3   8  13   -0.07    0.13
  -2   8  13    6.48    0.34
  -1   8  13    0.10    0.10
   0   8  13    0.12    0.10
   1   8  13    3.29    0.20
   2   8  13    6.18    0.26
   3   8  13   -0.11    0.09
   4   8  13    0.68    0.12
  -4   9  13    0.04    0.17
  -3   9  13    2.39    0.25
  -1   9  13    0.77    0.14
   0   9  13    0.28    0.11
   1   9  13   -0.12    0.09
   2   9  13    0.82    0.13
   3   9  13    3.02    0.21
   0  10  13    0.40    0.12
   1  10  13   -0.03    0.10
   2  10 -14    0.33    0.17
   1  10 -14    2.48    0.22
   1  10 -14    1.78    0.23
   0  10 -14    0.48    0.13
   0  10 -14    0.42    0.17
  -1  10 -14    1.56    0.16
  -1  10 -14    1.21    0.20
  -2  10 -14   -0.04    0.12
  -2  10 -14   -0.24    0.14
   4   9 -14    0.03    0.12
   4   9 -14    0.08    0.17
   3   9 -14    0.02    0.15
   3   9 -14    0.13    0.12
   2   9 -14    0.67    0.17
   2   9 -14    0.53    0.13
   1   9 -14    0.26    0.12
   1   9 -14   -0.03    0.13
   0   9 -14    0.36    0.12
   0   9 -14    0.07    0.13
  -1   9 -14    0.11    0.15
  -1   9 -14    0.25    0.11
  -2   9 -14    3.52    0.30
  -2   9 -14    3.90    0.23
  -3   9 -14    1.80    0.22
  -3   9 -14    1.78    0.17
  -3   9 -14    2.06    0.23
   5   8 -14    0.58    0.16
   5   8 -14    0.50    0.18
   4   8 -14    1.17    0.20
   4   8 -14    1.49    0.17
   3   8 -14    0.47    0.16
   3   8 -14    0.71    0.14
   2   8 -14    0.15    0.14
   2   8 -14    0.04    0.10
   1   8 -14   10.86    0.42
   1   8 -14   10.86    0.34
   0   8 -14    1.56    0.14
   0   8 -14    1.37    0.18
  -1   8 -14    0.43    0.11
  -1   8 -14    0.10    0.13
  -2   8 -14    3.63    0.21
  -2   8 -14    4.04    0.28
  -3   8 -14    0.34    0.11
  -3   8 -14    0.25    0.16
  -3   8 -14    0.19    0.16
  -4   8 -14   -0.17    0.16
  -4   8 -14    0.23    0.16
  -4   8 -14    0.30    0.13
   6   7 -14    0.06    0.15
   5   7 -14    1.08    0.20
   5   7 -14    1.30    0.19
   4   7 -14    0.08    0.12
   4   7 -14   -0.13    0.13
   3   7 -14    0.06    0.13
   3   7 -14    0.14    0.11
   2   7 -14    0.07    0.10
   2   7 -14    0.08    0.12
   1   7 -14    4.76    0.28
   1   7 -14    5.47    0.23
   0   7 -14    0.45    0.13
   0   7 -14    0.42    0.10
  -1   7 -14    0.28    0.13
  -1   7 -14    0.54    0.10
  -2   7 -14    1.33    0.17
  -2   7 -14    1.24    0.12
  -3   7 -14    0.69    0.12
  -3   7 -14    1.22    0.17
  -3   7 -14    0.86    0.16
  -4   7 -14    0.33    0.15
  -4   7 -14    0.26    0.11
  -4   7 -14    0.22    0.16
  -5   7 -14    3.48    0.29
  -5   7 -14    4.13    0.24
  -5   7 -14    3.77    0.30
   6   6 -14    0.12    0.15
   5   6 -14    0.47    0.16
   5   6 -14    0.62    0.16
   4   6 -14   -0.04    0.12
   4   6 -14    0.12    0.13
   3   6 -14    5.93    0.31
   3   6 -14    6.08    0.28
   2   6 -14    2.20    0.17
   2   6 -14    2.28    0.21
   1   6 -14    2.26    0.21
   1   6 -14    2.30    0.16
   0   6 -14    0.07    0.07
   0   6 -14   -0.07    0.10
  -1   6 -14    1.52    0.16
  -1   6 -14    2.01    0.15
  -2   6 -14    0.05    0.11
  -2   6 -14    0.05    0.08
  -3   6 -14   -0.11    0.11
  -3   6 -14    0.15    0.13
  -3   6 -14   -0.03    0.09
  -4   6 -14    2.13    0.20
  -4   6 -14    1.79    0.18
  -4   6 -14    2.31    0.18
  -5   6 -14    0.38    0.16
  -5   6 -14    0.55    0.13
  -5   6 -14    0.64    0.16
   7   5 -14   -0.22    0.15
   6   5 -14    0.13    0.15
   5   5 -14    0.65    0.16
   5   5 -14    0.45    0.15
   4   5 -14    8.62    0.36
   4   5 -14    8.45    0.37
   3   5 -14    0.69    0.14
   3   5 -14    0.54    0.12
   2   5 -14    1.93    0.19
   2   5 -14    2.28    0.16
   1   5 -14    0.25    0.10
   1   5 -14    0.33    0.08
   0   5 -14    2.35    0.14
   0   5 -14    2.44    0.18
  -1   5 -14    3.64    0.17
  -1   5 -14    3.65    0.21
  -2   5 -14    0.07    0.10
  -2   5 -14   -0.04    0.07
  -3   5 -14    0.33    0.11
  -3   5 -14    0.48    0.10
  -4   5 -14    3.97    0.20
  -4   5 -14    3.54    0.25
  -4   5 -14    3.52    0.24
  -5   5 -14    3.55    0.21
  -5   5 -14    2.74    0.25
  -5   5 -14    3.19    0.24
  -6   5 -14   -0.10    0.14
  -6   5 -14   -0.16    0.12
   7   4 -14    0.02    0.16
   6   4 -14    0.10    0.15
   5   4 -14    2.43    0.22
   5   4 -14    1.73    0.20
   4   4 -14    1.10    0.16
   4   4 -14    1.23    0.16
   3   4 -14    0.49    0.12
   3   4 -14    0.24    0.11
   2   4 -14    3.38    0.21
   1   4 -14   -0.12    0.08
   1   4 -14   -0.02    0.07
   0   4 -14    0.11    0.07
   0   4 -14    0.14    0.09
  -1   4 -14    1.04    0.12
  -1   4 -14    1.00    0.09
  -2   4 -14   -0.13    0.08
  -2   4 -14   -0.04    0.07
  -3   4 -14    1.89    0.14
  -3   4 -14    1.87    0.18
  -4   4 -14   -0.06    0.09
  -4   4 -14   -0.09    0.10
  -5   4 -14    1.02    0.13
  -5   4 -14    0.96    0.15
  -6   4 -14    0.22    0.14
  -6   4 -14    0.05    0.11
   7   3 -14    0.91    0.20
  -7  -3  14    0.84    0.18
   6   3 -14   -0.03    0.13
   5   3 -14   12.69    0.46
   5   3 -14   11.54    0.43
   4   3 -14    0.01    0.10
   4   3 -14    0.12    0.11
   3   3 -14   -0.03    0.09
   2   3 -14    4.65    0.23
   1   3 -14    0.41    0.09
   1   3 -14    0.33    0.07
   0   3 -14    0.12    0.08
   0   3 -14    0.11    0.06
  -1   3 -14    1.06    0.09
  -1   3 -14    0.91    0.11
  -2   3 -14    2.24    0.16
  -2   3 -14    1.94    0.12
  -3   3 -14    0.18    0.09
  -3   3 -14    0.20    0.07
  -4   3 -14    3.18    0.21
  -4   3 -14    3.47    0.17
  -5   3 -14    0.28    0.10
  -5   3 -14    0.41    0.13
  -6   3 -14    0.18    0.14
  -6   3 -14    0.08    0.11
  -7  -2  14    2.43    0.25
   6   2 -14    0.54    0.17
  -6  -2  14    0.40    0.14
   5   2 -14    2.75    0.25
   5   2 -14    2.59    0.22
   4   2 -14    0.96    0.15
   4   2 -14    1.35    0.15
   3   2 -14    0.17    0.09
   2   2 -14    0.12    0.08
   1   2 -14    1.15    0.11
   1   2 -14    1.07    0.09
   0   2 -14    0.86    0.08
   0   2 -14    0.80    0.10
  -1   2 -14    0.83    0.08
  -1   2 -14    0.76    0.10
  -2   2 -14    0.25    0.06
  -2   2 -14    0.31    0.08
  -3   2 -14    1.13    0.09
  -3   2 -14    1.22    0.12
  -4   2 -14    3.87    0.22
  -4   2 -14    4.33    0.18
  -5   2 -14    0.43    0.10
  -5   2 -14    0.12    0.12
  -6   2 -14    1.34    0.13
  -6   2 -14    1.15    0.17
  -7  -1  14    2.28    0.25
  -6  -1  14    0.83    0.17
   5   1 -14    3.27    0.22
   5   1 -14    3.28    0.26
   4   1 -14    1.13    0.15
   4   1 -14    0.91    0.12
   3   1 -14    0.40    0.09
   2   1 -14    0.05    0.07
   1   1 -14    2.74    0.16
   0   1 -14    0.05    0.07
   0   1 -14    0.02    0.06
  -1   1 -14    5.41    0.17
  -1   1 -14    5.46    0.20
  -2   1 -14    0.05    0.05
  -2   1 -14    0.23    0.08
  -3   1 -14    2.78    0.17
  -3   1 -14    2.83    0.13
  -4   1 -14    0.51    0.12
  -4   1 -14    0.66    0.09
  -5   1 -14    0.19    0.08
  -5   1 -14    0.05    0.12
  -6   1 -14   -0.04    0.13
  -7   0  14    1.45    0.22
  -6   0  14    1.05    0.19
  -5   0  14   -0.04    0.11
   4   0 -14    1.22    0.12
   4   0 -14    1.23    0.15
   3   0 -14    0.97    0.13
   3   0 -14    0.90    0.10
   2   0 -14    2.59    0.15
   1   0 -14    4.76    0.19
   0   0 -14   15.40    0.35
   0   0 -14   15.56    0.39
  -1   0 -14    2.13    0.11
  -1   0 -14    2.01    0.13
  -2   0 -14   -0.04    0.05
  -2   0 -14    0.03    0.07
  -3   0 -14    6.37    0.25
  -3   0 -14    6.86    0.19
  -4   0 -14    1.28    0.14
  -5   0 -14    2.20    0.21
  -6   0 -14   -0.11    0.14
  -7   1  14    1.99    0.25
  -6   1  14    0.46    0.16
  -5   1  14    1.52    0.20
   3  -1 -14    0.07    0.10
   2  -1 -14    0.81    0.09
   1  -1 -14   42.79    0.95
   0  -1 -14   33.80    0.76
   0   1  14   33.97    0.80
  -1  -1 -14   -0.02    0.06
  -2  -1 -14    0.45    0.09
  -3  -1 -14    0.37    0.10
  -4  -1 -14    0.44    0.12
  -5  -1 -14    1.46    0.17
  -6  -1 -14    1.21    0.18
  -7   2  14    0.01    0.17
  -6   2  14    3.74    0.32
  -5   2  14    1.52    0.20
  -4   2  14   -0.10    0.09
  -2   2  14    0.27    0.08
   1  -2 -14    3.23    0.14
  -1   2  14    3.27    0.16
   0  -2 -14   16.69    0.40
   0   2  14   16.57    0.43
  -1  -2 -14    2.70    0.14
   1   2  14    2.75    0.14
  -2  -2 -14    4.03    0.18
   2   2  14    3.64    0.16
  -3  -2 -14    0.43    0.11
  -4  -2 -14    4.70    0.24
  -6  -2 -14    0.13    0.16
  -7   3  14   -0.03    0.19
  -7   3  14    0.15    0.10
  -6   3  14    1.41    0.22
  -5   3  14    0.44    0.15
  -4   3  14    1.10    0.17
  -3   3  14    1.17    0.15
  -2   3  14   11.77    0.36
  -2   3  14   11.77    0.41
  -1   3  14    0.05    0.07
   0  -3 -14    8.50    0.24
   0   3  14    8.54    0.27
  -1  -3 -14    0.33    0.07
   1   3  14    0.47    0.08
  -2  -3 -14    2.19    0.16
   2   3  14    2.35    0.14
  -3  -3 -14    0.13    0.10
   3   3  14    0.06    0.07
  -4  -3 -14    8.79    0.32
  -5  -3 -14    2.38    0.23
  -6  -3 -14    3.59    0.28
  -7   4  14    0.50    0.22
  -6   4  14    4.85    0.37
  -5   4  14    1.38    0.20
  -4   4  14    0.68    0.16
  -3   4  14    3.31    0.24
  -2   4  14    0.35    0.11
  -2   4  14    0.33    0.09
  -1   4  14    0.65    0.10
  -1   4  14    0.57    0.11
   0   4  14    0.01    0.06
   0   4  14    0.05    0.08
   1   4  14    0.33    0.08
  -2  -4 -14    0.04    0.08
   2   4  14    0.11    0.07
  -3  -4 -14    1.67    0.14
   3   4  14    1.91    0.15
  -4  -4 -14    1.92    0.17
   4   4  14    1.62    0.14
  -5  -4 -14    0.12    0.14
  -6  -4 -14    3.36    0.28
  -7   5  14    2.57    0.34
  -6   5  14    1.79    0.26
  -5   5  14    0.80    0.19
  -4   5  14    0.04    0.13
  -3   5  14   -0.18    0.10
  -2   5  14   -0.02    0.08
  -2   5  14    0.08    0.10
  -1   5  14    4.16    0.24
  -1   5  14    4.16    0.21
   0   5  14    5.68    0.23
   0   5  14    5.86    0.25
   1   5  14    0.44    0.09
   2   5  14    2.37    0.16
  -3  -5 -14    0.51    0.11
   3   5  14    0.43    0.10
  -4  -5 -14    1.03    0.14
   4   5  14    0.90    0.12
  -5  -5 -14    2.40    0.23
   5   5  14    2.11    0.20
  -6   6  14    0.31    0.21
  -5   6  14    0.72    0.20
  -4   6  14    0.30    0.16
  -3   6  14    0.04    0.13
  -2   6  14    4.84    0.29
  -2   6  14    5.39    0.26
  -1   6  14    3.00    0.19
  -1   6  14    2.90    0.22
   0   6  14    1.32    0.13
   1   6  14    0.92    0.11
   2   6  14    1.49    0.13
   3   6  14    0.04    0.09
   4   6  14    2.48    0.19
  -5  -6 -14    0.00    0.14
   5   6  14   -0.09    0.10
  -5   7  14   -0.07    0.18
  -4   7  14    3.72    0.34
  -3   7  14    3.91    0.31
  -2   7  14    4.30    0.28
  -1   7  14    3.51    0.22
   0   7  14   -0.06    0.09
   1   7  14    0.29    0.10
   2   7  14    1.31    0.14
   3   7  14    0.01    0.10
   4   7  14    1.29    0.14
  -5   8  14    1.19    0.25
  -4   8  14    1.33    0.23
  -3   8  14    1.26    0.21
  -2   8  14    1.68    0.21
  -1   8  14    0.90    0.14
   0   8  14    0.07    0.10
   1   8  14    0.01    0.10
   2   8  14    1.34    0.14
   3   8  14    2.45    0.20
  -4   9  14    0.72    0.21
  -3   9  14    0.43    0.18
  -1   9  14    0.12    0.11
   0   9  14    0.51    0.12
   1   9  14    0.48    0.12
   2   9  14    0.17    0.11
   0  10  14    1.69    0.18
   1  10 -15    0.22    0.13
   1  10 -15    0.11    0.16
   0  10 -15    0.26    0.13
   0  10 -15    0.26    0.17
   3   9 -15    0.22    0.13
   3   9 -15   -0.03    0.14
   2   9 -15    1.41    0.21
   2   9 -15    1.72    0.17
   1   9 -15    3.69    0.24
   1   9 -15    3.35    0.29
   0   9 -15    1.28    0.15
   0   9 -15    1.22    0.20
  -1   9 -15    0.01    0.15
  -1   9 -15    0.05    0.12
  -2   9 -15    8.88    0.32
  -2   9 -15    7.67    0.40
   4   8 -15    0.11    0.14
   4   8 -15   -0.03    0.15
   3   8 -15   -0.11    0.14
   3   8 -15   -0.03    0.12
   2   8 -15    0.33    0.15
   2   8 -15    0.18    0.12
   1   8 -15    0.89    0.13
   1   8 -15    1.06    0.17
   0   8 -15    8.67    0.30
   0   8 -15    8.13    0.38
  -1   8 -15    0.04    0.14
  -1   8 -15    0.08    0.10
  -2   8 -15    2.69    0.20
  -2   8 -15    2.72    0.27
  -3   8 -15    1.12    0.14
  -3   8 -15    1.30    0.20
  -4   8 -15    1.09    0.20
  -4   8 -15    1.12    0.15
   5   7 -15    0.40    0.15
   5   7 -15    0.25    0.16
   4   7 -15    1.44    0.18
   4   7 -15    1.57    0.21
   3   7 -15    1.98    0.18
   3   7 -15    1.84    0.21
   2   7 -15    0.37    0.14
   1   7 -15    4.10    0.27
   1   7 -15    4.18    0.22
   0   7 -15    0.45    0.14
   0   7 -15    0.53    0.11
  -1   7 -15   11.81    0.43
  -1   7 -15   11.55    0.35
  -2   7 -15    0.22    0.11
  -2   7 -15    0.45    0.15
  -3   7 -15    0.36    0.12
  -3   7 -15    0.42    0.15
  -4   7 -15    0.02    0.15
  -4   7 -15   -0.19    0.11
   6   6 -15    0.25    0.16
   5   6 -15    0.09    0.15
   5   6 -15    0.09    0.14
   4   6 -15    0.27    0.13
   4   6 -15    0.04    0.13
   3   6 -15    0.49    0.15
   3   6 -15    0.44    0.13
   2   6 -15    5.71    0.30
   1   6 -15    0.25    0.12
   1   6 -15    0.25    0.09
   0   6 -15    4.51    0.21
   0   6 -15    4.07    0.26
  -1   6 -15    0.44    0.13
  -1   6 -15    0.01    0.09
  -2   6 -15    0.03    0.12
  -2   6 -15    0.11    0.09
  -3   6 -15    0.06    0.10
  -3   6 -15    0.11    0.13
  -4   6 -15    1.79    0.15
  -4   6 -15    1.67    0.19
  -5   6 -15    0.22    0.12
  -5   6 -15    0.28    0.16
   6   5 -15    0.46    0.17
   5   5 -15    2.02    0.22
   5   5 -15    1.87    0.21
   4   5 -15    0.53    0.15
   4   5 -15    0.57    0.15
   3   5 -15    1.87    0.19
   3   5 -15    1.74    0.18
   2   5 -15    0.00    0.10
   1   5 -15    0.03    0.08
   1   5 -15    0.06    0.10
   0   5 -15    0.29    0.08
   0   5 -15    0.31    0.11
  -1   5 -15    2.62    0.16
  -1   5 -15    1.83    0.17
  -2   5 -15    0.36    0.12
  -2   5 -15    0.22    0.09
  -3   5 -15    2.80    0.22
  -3   5 -15    2.79    0.18
  -4   5 -15    1.97    0.17
  -4   5 -15    1.35    0.17
  -5   5 -15   -0.13    0.14
  -5   5 -15    0.19    0.11
   7   4 -15   -0.10    0.16
   6   4 -15    0.38    0.17
   5   4 -15    0.25    0.14
   5   4 -15    0.11    0.14
   4   4 -15   -0.16    0.12
   4   4 -15   -0.14    0.11
   3   4 -15    0.61    0.13
   3   4 -15    0.51    0.12
   2   4 -15    0.26    0.11
   1   4 -15    1.01    0.13
   1   4 -15    0.89    0.10
   0   4 -15    1.28    0.11
   0   4 -15    1.11    0.13
  -1   4 -15    0.16    0.07
  -1   4 -15    0.23    0.10
  -2   4 -15    0.78    0.12
  -2   4 -15    0.90    0.10
  -3   4 -15   13.56    0.35
  -3   4 -15   12.88    0.41
  -4   4 -15    0.08    0.10
  -4   4 -15    0.12    0.12
  -5   4 -15    0.34    0.14
  -5   4 -15    0.49    0.12
  -6   4 -15   -0.16    0.14
  -6   4 -15   -0.10    0.12
   7   3 -15   -0.10    0.17
  -7  -3  15   -0.09    0.13
   6   3 -15    0.37    0.15
   5   3 -15    0.79    0.17
   5   3 -15    1.01    0.16
   4   3 -15    2.46    0.22
   4   3 -15    2.86    0.24
   3   3 -15    0.72    0.13
   2   3 -15    0.00    0.09
   1   3 -15    0.10    0.07
   1   3 -15   -0.04    0.08
   0   3 -15    8.06    0.29
   0   3 -15    8.34    0.25
  -1   3 -15    0.53    0.08
  -1   3 -15    0.31    0.10
  -2   3 -15    3.22    0.19
  -2   3 -15    3.14    0.15
  -3   3 -15    0.45    0.09
  -3   3 -15    0.16    0.10
  -4   3 -15   -0.10    0.08
  -4   3 -15    0.07    0.11
  -5   3 -15    2.37    0.23
  -5   3 -15    2.52    0.18
  -6   3 -15    0.10    0.14
  -6   3 -15    0.25    0.12
  -7  -2  15    0.14    0.17
   6   2 -15    0.29    0.15
  -6  -2  15    0.43    0.16
   5   2 -15    0.99    0.15
   5   2 -15    1.01    0.17
   4   2 -15    0.22    0.12
   4   2 -15    0.29    0.11
   3   2 -15    2.21    0.18
   2   2 -15    2.45    0.18
   1   2 -15    0.51    0.10
   1   2 -15    0.40    0.08
   0   2 -15    0.01    0.06
   0   2 -15    0.09    0.08
  -1   2 -15    0.48    0.09
  -1   2 -15    0.27    0.07
  -2   2 -15    0.03    0.08
  -2   2 -15    0.02    0.06
  -3   2 -15    2.50    0.18
  -3   2 -15    2.49    0.14
  -4   2 -15    1.45    0.11
  -4   2 -15    1.62    0.15
  -5   2 -15    0.02    0.09
  -5   2 -15    0.16    0.13
  -6   2 -15    0.81    0.17
  -7  -1  15   -0.17    0.14
  -6  -1  15    3.24    0.30
   5   1 -15    2.23    0.22
   4   1 -15   -0.06    0.11
   4   1 -15    0.08    0.09
   3   1 -15    0.31    0.09
   2   1 -15    0.02    0.08
   1   1 -15    0.13    0.08
   0   1 -15    1.28    0.11
   0   1 -15    0.85    0.10
  -1   1 -15    0.12    0.08
  -1   1 -15    0.18    0.06
  -2   1 -15    4.61    0.16
  -2   1 -15    4.86    0.20
  -3   1 -15    3.17    0.19
  -3   1 -15    3.33    0.14
  -4   1 -15    4.71    0.24
  -4   1 -15    4.59    0.18
  -5   1 -15    0.23    0.13
  -7   0  15    4.12    0.35
  -6   0  15    1.44    0.21
  -5   0  15    1.57    0.20
   4   0 -15    0.15    0.11
   3   0 -15    0.22    0.08
   2   0 -15    4.07    0.19
   1   0 -15    0.06    0.07
   0   0 -15    1.75    0.11
   0   0 -15    1.65    0.14
  -1   0 -15    2.68    0.12
  -1   0 -15    2.73    0.15
  -2   0 -15    0.64    0.10
  -3   0 -15   21.32    0.55
  -4   0 -15    0.71    0.13
  -5   0 -15    0.93    0.16
  -6   0 -15    0.00    0.15
  -7   1  15    1.89    0.26
  -6   1  15   10.27    0.47
  -5   1  15    1.82    0.22
   2  -1 -15    1.00    0.10
   1  -1 -15    8.34    0.26
   0  -1 -15    0.46    0.08
  -1  -1 -15    1.36    0.13
  -2  -1 -15    0.62    0.10
  -3  -1 -15    0.26    0.11
  -4  -1 -15    0.13    0.12
  -5  -1 -15    0.09    0.13
  -6  -1 -15    0.11    0.15
  -7   2  15    0.21    0.19
  -6   2  15    0.62    0.19
  -5   2  15    6.95    0.37
  -4   2  15    0.39    0.13
  -1   2  15    5.35    0.22
   0  -2 -15   -0.04    0.06
   0   2  15    0.01    0.06
  -1  -2 -15    2.66    0.15
   1   2  15    2.47    0.15
  -2  -2 -15    0.87    0.10
  -3  -2 -15    0.01    0.10
  -4  -2 -15    6.60    0.28
  -5  -2 -15    3.32    0.24
  -6  -2 -15    2.66    0.23
  -7   3  15   -0.13    0.18
  -7   3  15    0.18    0.10
  -6   3  15    4.89    0.36
  -5   3  15    0.11    0.14
  -4   3  15    0.74    0.15
  -3   3  15    3.36    0.25
  -2   3  15    4.35    0.26
  -2   3  15    4.70    0.22
  -1   3  15    0.30    0.08
   0   3  15    3.09    0.16
  -1  -3 -15    5.01    0.18
   1   3  15    4.80    0.20
  -2  -3 -15    0.22    0.09
   2   3  15    0.25    0.08
  -3  -3 -15    0.35    0.11
  -4  -3 -15   -0.06    0.12
  -5  -3 -15   13.19    0.44
  -6  -3 -15    0.20    0.16
  -7   4  15    2.09    0.30
  -6   4  15    0.42    0.20
  -5   4  15    0.49    0.17
  -4   4  15    0.09    0.13
  -3   4  15    0.47    0.14
  -2   4  15    0.97    0.12
  -2   4  15    0.98    0.15
  -1   4  15    0.24    0.09
  -1   4  15    0.19    0.10
   0   4  15    1.47    0.15
   0   4  15    1.41    0.12
   1   4  15    7.19    0.25
  -2  -4 -15    3.66    0.18
   2   4  15    3.77    0.19
  -3  -4 -15    8.24    0.29
   3   4  15    8.57    0.30
  -4  -4 -15    0.04    0.12
  -5  -4 -15    4.65    0.27
  -6   5  15    0.11    0.19
  -5   5  15    0.11    0.17
  -4   5  15    0.88    0.18
  -3   5  15   -0.05    0.12
  -2   5  15    1.10    0.17
  -2   5  15    0.96    0.13
  -1   5  15    4.51    0.25
  -1   5  15    4.40    0.22
   0   5  15    0.21    0.09
   1   5  15    1.31    0.13
   2   5  15    0.42    0.09
   3   5  15    4.16    0.22
  -4  -5 -15    0.13    0.13
   4   5  15    0.14    0.10
  -5  -5 -15    2.56    0.24
  -6   6  15    1.20    0.26
  -5   6  15    0.07    0.17
  -4   6  15    1.08    0.21
  -3   6  15    0.04    0.14
  -2   6  15    4.59    0.29
  -2   6  15    4.63    0.25
  -1   6  15   -0.04    0.10
  -1   6  15    0.21    0.10
   0   6  15    0.99    0.13
   1   6  15    0.15    0.10
   2   6  15    0.77    0.12
   3   6  15    0.72    0.12
   4   6  15   -0.06    0.10
  -5   7  15    0.13    0.19
  -4   7  15    0.52    0.19
  -3   7  15    0.58    0.17
  -2   7  15   -0.10    0.11
  -1   7  15    0.18    0.11
   0   7  15    0.09    0.10
   1   7  15    1.00    0.13
   2   7  15    0.05    0.10
   3   7  15   -0.18    0.10
   4   7  15    0.32    0.12
  -4   8  15    0.05    0.17
  -3   8  15    0.14    0.16
  -1   8  15    0.57    0.13
   0   8  15   -0.09    0.10
   1   8  15    5.47    0.27
   2   8  15    0.49    0.13
   3   8  15    0.08    0.11
  -1   9  15    0.20    0.12
   0   9  15    2.89    0.23
   1   9  15    2.41    0.22
   2   9 -16    1.93    0.24
   2   9 -16    1.90    0.18
   1   9 -16    0.51    0.14
   1   9 -16    0.36    0.16
   0   9 -16    0.05    0.16
   0   9 -16    0.12    0.12
  -1   9 -16    0.02    0.16
  -1   9 -16   -0.26    0.11
  -2   9 -16    0.18    0.17
  -2   9 -16    0.27    0.13
   4   8 -16   -0.04    0.16
   4   8 -16    0.04    0.13
   3   8 -16    0.04    0.13
   3   8 -16    0.08    0.16
   2   8 -16   -0.08    0.14
   2   8 -16   -0.07    0.12
   1   8 -16    1.38    0.20
   1   8 -16    1.59    0.16
   0   8 -16    0.27    0.15
   0   8 -16    0.34    0.12
  -1   8 -16    2.61    0.24
  -1   8 -16    2.70    0.21
  -2   8 -16    0.42    0.13
  -2   8 -16    0.44    0.17
  -3   8 -16    0.20    0.13
  -3   8 -16    0.00    0.16
   5   7 -16    1.30    0.20
   5   7 -16    1.24    0.22
   4   7 -16    0.12    0.14
   4   7 -16    0.31    0.16
   3   7 -16    0.07    0.14
   3   7 -16   -0.01    0.12
   2   7 -16    1.07    0.17
   1   7 -16    0.30    0.12
   1   7 -16    0.35    0.14
   0   7 -16    3.27    0.27
   0   7 -16    3.15    0.21
  -1   7 -16   14.46    0.50
  -1   7 -16   14.63    0.41
  -2   7 -16    0.26    0.12
  -2   7 -16    0.24    0.15
  -3   7 -16    6.83    0.27
  -3   7 -16    6.49    0.35
  -4   7 -16    3.34    0.30
  -4   7 -16    3.15    0.23
   5   6 -16    0.70    0.17
   5   6 -16    0.71    0.18
   4   6 -16    0.05    0.14
   4   6 -16    0.37    0.15
   3   6 -16   -0.09    0.13
   3   6 -16   -0.01    0.12
   2   6 -16    0.01    0.12
   1   6 -16    0.14    0.10
   1   6 -16    0.11    0.13
   0   6 -16    8.95    0.30
   0   6 -16    8.99    0.37
  -1   6 -16    3.36    0.20
  -1   6 -16    3.57    0.26
  -2   6 -16    3.97    0.21
  -2   6 -16    3.56    0.27
  -3   6 -16   -0.19    0.10
  -3   6 -16   -0.07    0.14
  -4   6 -16   -0.10    0.14
  -4   6 -16   -0.02    0.11
   6   5 -16   -0.08    0.15
   5   5 -16    0.50    0.16
   5   5 -16    0.33    0.16
   4   5 -16   -0.05    0.13
   4   5 -16   -0.05    0.13
   3   5 -16    5.03    0.30
   3   5 -16    4.62    0.28
   2   5 -16    6.81    0.32
   1   5 -16   -0.07    0.08
   1   5 -16   -0.03    0.11
   0   5 -16    0.56    0.13
   0   5 -16    0.37    0.10
  -1   5 -16    0.51    0.13
  -1   5 -16    0.73    0.11
  -2   5 -16    4.08    0.20
  -2   5 -16    3.73    0.25
  -3   5 -16    0.06    0.10
  -3   5 -16    0.06    0.13
  -4   5 -16   -0.21    0.10
  -4   5 -16   -0.18    0.13
  -5   5 -16    1.76    0.20
  -5   5 -16    2.22    0.19
   6   4 -16    0.34    0.17
   5   4 -16    1.81    0.21
   5   4 -16    2.30    0.23
   4   4 -16    2.77    0.25
   4   4 -16    2.77    0.25
   3   4 -16    3.84    0.25
   3   4 -16    4.06    0.26
   2   4 -16    0.31    0.12
   1   4 -16    7.60    0.26
   1   4 -16    8.17    0.32
   0   4 -16    2.99    0.21
   0   4 -16    2.91    0.17
  -1   4 -16    0.56    0.09
  -1   4 -16    0.65    0.13
  -2   4 -16    0.27    0.12
  -2   4 -16    0.29    0.09
  -3   4 -16    2.53    0.22
  -3   4 -16    2.66    0.17
  -4   4 -16    1.13    0.12
  -4   4 -16    0.78    0.15
  -5   4 -16    0.18    0.14
  -5   4 -16    0.01    0.11
   7   3 -16   -0.37    0.15
  -7  -3  16    0.15    0.16
   6   3 -16    1.51    0.21
   5   3 -16    0.31    0.15
   5   3 -16    0.14    0.13
   4   3 -16    0.25    0.13
   4   3 -16    0.45    0.14
   3   3 -16    3.59    0.24
   2   3 -16    2.15    0.20
   1   3 -16    0.13    0.10
   1   3 -16    0.15    0.09
   0   3 -16    0.33    0.11
   0   3 -16    0.45    0.09
  -1   3 -16    0.77    0.09
  -1   3 -16    0.66    0.12
  -2   3 -16   -0.07    0.10
  -2   3 -16    0.00    0.07
  -3   3 -16    0.43    0.12
  -3   3 -16    0.27    0.09
  -4   3 -16    2.18    0.21
  -4   3 -16    1.79    0.16
  -5   3 -16    0.59    0.15
  -5   3 -16    0.83    0.12
  -7  -2  16   -0.06    0.15
   6   2 -16    1.68    0.22
  -6  -2  16    1.76    0.24
   5   2 -16    0.11    0.12
   5   2 -16    0.05    0.13
   4   2 -16    0.71    0.15
   4   2 -16    0.78    0.13
   3   2 -16    3.09    0.22
   2   2 -16   -0.09    0.09
   1   2 -16    0.80    0.12
   1   2 -16    0.66    0.09
   0   2 -16    0.66    0.11
   0   2 -16    0.73    0.09
  -1   2 -16    0.18    0.09
  -1   2 -16    0.25    0.07
  -2   2 -16    1.37    0.13
  -2   2 -16    1.45    0.12
  -3   2 -16    4.04    0.17
  -3   2 -16    4.24    0.22
  -4   2 -16    0.09    0.12
  -4   2 -16   -0.01    0.08
  -5   2 -16    0.49    0.14
  -6   2 -16   -0.01    0.15
  -7  -1  16    0.14    0.17
  -6  -1  16   -0.10    0.14
   5   1 -16   -0.07    0.12
   4   1 -16    1.71    0.19
   4   1 -16    1.93    0.19
   3   1 -16    4.39    0.23
   2   1 -16    0.88    0.12
   1   1 -16    0.55    0.10
   0   1 -16    0.25    0.07
   0   1 -16    0.27    0.09
  -1   1 -16    0.32    0.09
  -1   1 -16    0.30    0.07
  -2   1 -16    7.57    0.27
  -2   1 -16    7.79    0.22
  -3   1 -16    3.34    0.21
  -4   1 -16   -0.14    0.11
  -5   1 -16    1.94    0.19
  -6   1 -16    0.00    0.15
  -7   0  16    0.37    0.19
  -6   0  16    0.49    0.19
  -5   0  16   -0.01    0.13
   3   0 -16    4.72    0.22
   2   0 -16   -0.18    0.07
   1   0 -16    0.00    0.08
   0   0 -16    9.82    0.26
   0   0 -16    9.60    0.30
  -1   0 -16    0.98    0.11
  -2   0 -16    1.80    0.16
  -3   0 -16    1.84    0.18
  -4   0 -16    0.02    0.12
  -5   0 -16    1.13    0.17
  -6   0 -16   -0.30    0.15
  -7   1  16    0.93    0.21
  -6   1  16    0.09    0.17
  -5   1  16    1.02    0.20
   1  -1 -16    1.03    0.11
   0  -1 -16    0.05    0.08
  -1  -1 -16    0.97    0.10
  -2  -1 -16    2.26    0.17
  -3  -1 -16   -0.08    0.10
  -4  -1 -16    2.76    0.21
  -5  -1 -16   -0.05    0.14
  -6  -1 -16    1.74    0.20
  -7   2  16   -0.17    0.17
  -6   2  16    0.39    0.19
  -5   2  16    0.03    0.14
  -4   2  16    0.03    0.12
   0  -2 -16    3.39    0.16
  -1  -2 -16    0.73    0.09
  -2  -2 -16    1.83    0.16
  -3  -2 -16    8.83    0.31
  -4  -2 -16    0.72    0.14
  -5  -2 -16    1.64    0.18
  -6  -2 -16    0.08    0.16
  -7   3  16    0.34    0.21
  -6   3  16    0.52    0.20
  -5   3  16    3.22    0.32
  -4   3  16    2.50    0.25
  -3   3  16    0.43    0.14
  -2   3  16    0.96    0.15
  -1   3  16    4.96    0.22
   0   3  16    2.84    0.17
  -1  -3 -16    2.66    0.15
   1   3  16    3.01    0.17
  -2  -3 -16   -0.11    0.09
  -3  -3 -16    0.80    0.13
  -4  -3 -16    0.13    0.13
  -5  -3 -16   -0.03    0.14
  -6   4  16   -0.08    0.18
  -5   4  16    4.11    0.34
  -4   4  16    2.03    0.23
  -3   4  16    7.86    0.37
  -2   4  16    0.25    0.12
  -2   4  16    0.19    0.10
  -1   4  16    0.19    0.09
  -1   4  16    0.13    0.11
   0   4  16    2.30    0.17
   0   4  16    2.15    0.18
   1   4  16    6.06    0.24
   2   4  16    1.59    0.16
  -3  -4 -16    4.40    0.23
  -4  -4 -16    1.11    0.15
  -5  -4 -16    0.12    0.15
  -6   5  16    0.36    0.22
  -5   5  16    0.07    0.18
  -4   5  16    0.88    0.19
  -3   5  16   -0.18    0.12
  -2   5  16    0.06    0.11
  -2   5  16    0.10    0.10
  -1   5  16    0.07    0.09
  -1   5  16    0.11    0.10
   0   5  16    3.35    0.20
   1   5  16    0.10    0.09
   2   5  16    0.10    0.09
   3   5  16    0.65    0.12
  -4  -5 -16    2.71    0.25
  -5  -5 -16    2.05    0.20
  -5   6  16   -0.11    0.16
  -4   6  16   -0.02    0.15
  -3   6  16    0.09    0.14
  -2   6  16    0.25    0.11
  -2   6  16    0.21    0.13
  -1   6  16   -0.12    0.10
  -1   6  16    0.16    0.10
   0   6  16    0.07    0.10
   1   6  16    0.15    0.10
   2   6  16    6.07    0.27
   3   6  16    0.55    0.12
   4   6  16    1.38    0.16
  -5   7  16    0.29    0.20
  -4   7  16    0.07    0.17
  -3   7  16    0.24    0.16
  -2   7  16    0.46    0.15
  -1   7  16    1.00    0.15
   0   7  16    1.58    0.16
   1   7  16    2.34    0.20
   2   7  16    1.12    0.15
   3   7  16    0.20    0.11
  -3   8  16    0.69    0.19
  -1   8  16    0.41    0.13
   0   8  16    0.04    0.12
   1   8  16    0.59    0.13
   2   8  16    0.13    0.12
  -1   9  16    0.05    0.12
   0   9  16    0.14    0.12
   1   9 -17    0.91    0.20
   1   9 -17    1.21    0.16
   0   9 -17    0.04    0.16
   0   9 -17    0.02    0.13
   3   8 -17    0.71    0.16
   3   8 -17    0.46    0.18
   2   8 -17    1.07    0.17
   2   8 -17    0.87    0.19
   1   8 -17    1.82    0.22
   1   8 -17    1.85    0.18
   0   8 -17    1.38    0.16
   0   8 -17    1.24    0.20
  -1   8 -17    2.27    0.24
  -1   8 -17    2.48    0.21
  -2   8 -17    5.31    0.35
  -2   8 -17    5.42    0.26
   4   7 -17    0.03    0.16
   4   7 -17   -0.10    0.14
   3   7 -17   -0.05    0.13
   3   7 -17    0.01    0.15
   2   7 -17    0.50    0.16
   1   7 -17    3.94    0.24
   1   7 -17    3.69    0.29
   0   7 -17    4.55    0.25
   0   7 -17    4.66    0.31
  -1   7 -17    0.05    0.15
  -1   7 -17    0.13    0.11
  -2   7 -17    1.67    0.21
  -2   7 -17    1.76    0.16
  -3   7 -17    0.31    0.13
  -3   7 -17    0.46    0.17
   5   6 -17    0.87    0.18
   5   6 -17    0.51    0.18
   4   6 -17   -0.05    0.14
   4   6 -17    0.05    0.14
   3   6 -17   -0.07    0.12
   3   6 -17   -0.02    0.14
   2   6 -17    0.04    0.13
   1   6 -17    0.76    0.16
   1   6 -17    0.83    0.13
   0   6 -17   18.86    0.59
   0   6 -17   18.76    0.49
  -1   6 -17    8.18    0.29
  -1   6 -17    7.50    0.36
  -2   6 -17    0.15    0.15
  -2   6 -17    0.54    0.12
  -3   6 -17    0.04    0.11
  -3   6 -17   -0.03    0.15
  -4   6 -17    0.00    0.16
  -4   6 -17   -0.25    0.11
   5   5 -17    0.02    0.15
   5   5 -17    0.04    0.16
   4   5 -17    2.06    0.22
   4   5 -17    2.15    0.22
   3   5 -17    1.69    0.19
   3   5 -17    1.62    0.19
   2   5 -17    0.52    0.15
   1   5 -17    5.31    0.29
   1   5 -17    5.34    0.24
   0   5 -17    3.64    0.26
   0   5 -17    3.59    0.21
  -1   5 -17    0.58    0.15
  -1   5 -17    0.68    0.11
  -2   5 -17    1.64    0.18
  -2   5 -17    1.95    0.17
  -3   5 -17   -0.13    0.10
  -3   5 -17   -0.16    0.13
  -4   5 -17   -0.14    0.11
  -4   5 -17    0.09    0.15
   6   4 -17    0.59    0.19
   5   4 -17    1.06    0.18
   5   4 -17    1.22    0.20
   4   4 -17    0.73    0.16
   4   4 -17    0.39    0.15
   3   4 -17    0.57    0.14
   3   4 -17    0.48    0.14
   2   4 -17    0.52    0.14
   1   4 -17    0.74    0.14
   1   4 -17    0.40    0.11
   0   4 -17    2.65    0.22
   0   4 -17    2.89    0.18
  -1   4 -17    4.35    0.26
  -1   4 -17    4.26    0.20
  -2   4 -17    0.82    0.11
  -2   4 -17    0.66    0.14
  -3   4 -17   -0.06    0.13
  -3   4 -17   -0.23    0.09
  -4   4 -17    1.83    0.15
  -4   4 -17    2.11    0.20
  -5   4 -17    0.26    0.16
  -5   4 -17    0.44    0.12
   6   3 -17   -0.14    0.14
   5   3 -17    0.12    0.13
   5   3 -17    0.07    0.15
   4   3 -17    0.40    0.15
   4   3 -17    0.55    0.14
   3   3 -17    0.39    0.13
   2   3 -17    1.13    0.15
   1   3 -17    1.25    0.15
   1   3 -17    1.60    0.13
   0   3 -17    0.00    0.10
   0   3 -17   -0.05    0.08
  -1   3 -17    2.31    0.16
  -1   3 -17    2.42    0.21
  -2   3 -17    0.13    0.12
  -2   3 -17    0.28    0.09
  -3   3 -17   -0.13    0.12
  -3   3 -17   -0.08    0.09
  -4   3 -17    4.53    0.27
  -4   3 -17    4.57    0.21
  -5   3 -17    0.92    0.17
  -6  -2  17    1.44    0.23
   5   2 -17    0.25    0.15
   4   2 -17    0.83    0.16
   4   2 -17    0.71    0.14
   3   2 -17    0.57    0.13
   2   2 -17    0.23    0.11
   1   2 -17   10.71    0.36
   0   2 -17    1.06    0.13
   0   2 -17    1.04    0.10
  -1   2 -17    0.55    0.12
  -1   2 -17    0.57    0.09
  -2   2 -17    0.01    0.11
  -2   2 -17    0.00    0.07
  -3   2 -17   -0.05    0.08
  -3   2 -17   -0.09    0.11
  -4   2 -17    3.16    0.24
  -5   2 -17    1.32    0.17
  -7  -1  17    0.88    0.21
  -6  -1  17    0.05    0.17
   4   1 -17    4.18    0.28
   3   1 -17    1.11    0.13
   2   1 -17    0.32    0.10
   1   1 -17   -0.07    0.09
   0   1 -17    0.64    0.09
   0   1 -17    0.47    0.11
  -1   1 -17    0.06    0.07
  -1   1 -17    0.06    0.10
  -2   1 -17    1.26    0.13
  -3   1 -17    3.38    0.22
  -4   1 -17    0.62    0.14
  -5   1 -17    3.88    0.26
  -7   0  17    0.69    0.22
  -6   0  17    1.72    0.25
  -5   0  17    0.73    0.19
   2   0 -17    1.13    0.12
   1   0 -17   -0.03    0.09
   0   0 -17    0.28    0.09
  -1   0 -17    2.35    0.17
  -2   0 -17    0.46    0.11
  -3   0 -17    2.76    0.20
  -4   0 -17    0.27    0.13
  -5   0 -17    0.20    0.15
  -7   1  17    0.07    0.18
  -6   1  17    0.39    0.19
  -5   1  17    0.27    0.17
   1  -1 -17    2.65    0.17
   0  -1 -17    0.01    0.08
  -1  -1 -17    1.20    0.12
  -2  -1 -17   25.83    0.64
  -3  -1 -17    0.67    0.13
  -4  -1 -17    0.32    0.14
  -5  -1 -17   -0.13    0.14
  -6   2  17    1.81    0.27
  -5   2  17    1.68    0.24
  -4   2  17    0.79    0.18
   0  -2 -17   10.24    0.32
  -1  -2 -17    0.02    0.08
  -2  -2 -17    0.24    0.10
  -3  -2 -17    0.57    0.13
  -4  -2 -17    0.06    0.13
  -5  -2 -17    0.04    0.14
  -6   3  17    1.24    0.25
  -5   3  17    3.61    0.34
  -4   3  17    0.04    0.15
  -3   3  17    2.12    0.22
  -2   3  17    0.11    0.12
  -2  -3 -17    0.06    0.10
  -3  -3 -17    3.59    0.22
  -4  -3 -17    0.95    0.15
  -5  -3 -17    0.90    0.17
  -6   4  17    0.22    0.21
  -5   4  17    1.43    0.23
  -4   4  17    4.15    0.33
  -3   4  17    2.12    0.23
  -2   4  17    0.91    0.16
  -1   4  17   -0.19    0.10
  -1   4  17    0.11    0.09
   0   4  17    0.50    0.10
   0   4  17    0.48    0.11
   1   4  17    0.72    0.11
  -3  -4 -17    0.00    0.12
  -4  -4 -17    3.48    0.24
  -5  -4 -17    1.99    0.20
  -5   5  17    0.40    0.20
  -4   5  17    0.20    0.15
  -3   5  17   -0.01    0.14
  -2   5  17    0.27    0.14
  -2   5  17    0.37    0.12
  -1   5  17   -0.04    0.10
  -1   5  17   -0.01    0.09
   0   5  17    0.75    0.13
   1   5  17    6.49    0.28
   2   5  17    0.31    0.11
  -5   6  17   -0.13    0.18
  -4   6  17    2.39    0.28
  -3   6  17    0.09    0.15
  -2   6  17    0.24    0.14
  -2   6  17    0.51    0.13
  -1   6  17    2.24    0.21
   0   6  17    0.05    0.09
   1   6  17    0.40    0.12
   2   6  17    0.40    0.12
   3   6  17   -0.01    0.11
  -4   7  17   -0.01    0.18
  -3   7  17    0.23    0.16
  -2   7  17   -0.02    0.13
  -1   7  17    3.00    0.24
   0   7  17    0.07    0.11
   1   7  17    0.18    0.11
   2   7  17    0.03    0.11
   3   7  17   -0.09    0.11
  -3   8  17    0.11    0.17
  -1   8  17    0.06    0.12
   0   8  17    0.62    0.14
   1   8  17    0.24    0.12
   2   8 -18    3.21    0.26
   2   8 -18    3.36    0.32
   1   8 -18    1.91    0.23
   1   8 -18    1.99    0.18
   0   8 -18    0.65    0.18
   0   8 -18    0.26    0.14
  -1   8 -18    0.40    0.14
  -1   8 -18    0.34    0.18
   4   7 -18    0.39    0.17
   4   7 -18    0.44    0.18
   3   7 -18    3.98    0.29
   3   7 -18    3.75    0.33
   2   7 -18    2.61    0.25
   1   7 -18    0.21    0.16
   1   7 -18   -0.05    0.12
   0   7 -18    0.77    0.18
   0   7 -18    0.59    0.14
  -1   7 -18   -0.02    0.16
  -1   7 -18    0.11    0.12
  -2   7 -18   -0.12    0.16
  -2   7 -18   -0.27    0.11
   4   6 -18    0.25    0.16
   4   6 -18    0.58    0.17
   3   6 -18    0.02    0.14
   3   6 -18    0.03    0.14
   2   6 -18    0.70    0.17
   1   6 -18    0.54    0.16
   1   6 -18    0.71    0.14
   0   6 -18    9.84    0.41
   0   6 -18    9.10    0.33
  -1   6 -18    2.03    0.16
  -1   6 -18    2.13    0.21
  -2   6 -18    4.10    0.23
  -2   6 -18    4.23    0.30
  -3   6 -18    2.24    0.20
  -3   6 -18    1.78    0.22
   5   5 -18    0.20    0.16
   5   5 -18    0.10    0.16
   4   5 -18    0.05    0.14
   4   5 -18    0.01    0.15
   3   5 -18    1.36    0.19
   3   5 -18    1.64    0.20
   2   5 -18    0.52    0.15
   1   5 -18    0.98    0.14
   1   5 -18    0.86    0.17
   0   5 -18    5.69    0.25
   0   5 -18    5.61    0.31
  -1   5 -18    0.33    0.12
  -1   5 -18    0.33    0.15
  -2   5 -18    7.18    0.27
  -2   5 -18    7.07    0.35
  -3   5 -18    1.67    0.19
  -3   5 -18    1.64    0.15
  -4   5 -18   -0.02    0.12
  -4   5 -18    0.00    0.16
   5   4 -18    0.21    0.16
   5   4 -18    0.02    0.15
   4   4 -18    0.13    0.14
   4   4 -18   -0.10    0.13
   3   4 -18    0.87    0.16
   3   4 -18    0.89    0.16
   2   4 -18    1.35    0.18
   1   4 -18    4.80    0.29
   1   4 -18    5.09    0.23
   0   4 -18    0.15    0.13
   0   4 -18    0.43    0.11
  -1   4 -18   25.81    0.59
  -1   4 -18   24.46    0.69
  -2   4 -18    2.68    0.25
  -2   4 -18    2.59    0.18
  -3   4 -18   -0.16    0.10
  -3   4 -18   -0.36    0.14
  -4   4 -18    1.76    0.15
  -4   4 -18    1.41    0.19
   6   3 -18    0.93    0.21
   5   3 -18    1.94    0.21
   5   3 -18    2.04    0.24
   4   3 -18    0.14    0.13
   4   3 -18    0.35    0.15
   3   3 -18   -0.08    0.11
   2   3 -18   10.89    0.40
   1   3 -18    0.22    0.12
   0   3 -18    3.94    0.20
   0   3 -18    4.28    0.26
  -1   3 -18    0.84    0.15
  -1   3 -18    0.79    0.11
  -2   3 -18    3.85    0.19
  -2   3 -18    3.69    0.25
  -3   3 -18   -0.09    0.13
  -3   3 -18    0.01    0.09
  -4   3 -18    0.03    0.11
  -4   3 -18    0.09    0.14
  -5   3 -18    1.99    0.21
  -6  -2  18    1.90    0.25
   5   2 -18    0.20    0.16
   4   2 -18    1.62    0.18
   4   2 -18    1.91    0.21
   3   2 -18    3.15    0.23
   2   2 -18    0.03    0.11
   1   2 -18    1.04    0.14
   0   2 -18    0.81    0.14
   0   2 -18    1.04    0.11
  -1   2 -18    0.60    0.10
  -1   2 -18    0.65    0.14
  -2   2 -18    0.08    0.08
  -2   2 -18   -0.13    0.12
  -3   2 -18    0.00    0.13
  -4   2 -18    0.43    0.15
  -5   2 -18    0.12    0.15
  -6  -1  18   -0.27    0.16
   3   1 -18    0.03    0.10
   2   1 -18    0.20    0.11
   1   1 -18   -0.03    0.10
   0   1 -18    0.49    0.09
   0   1 -18    0.44    0.12
  -1   1 -18   -0.05    0.11
  -2   1 -18    0.06    0.12
  -3   1 -18    0.27    0.13
  -4   1 -18    0.02    0.13
  -5   1 -18    2.01    0.20
  -6   0  18    0.02    0.17
  -5   0  18    0.48    0.19
   2   0 -18   -0.03    0.09
   1   0 -18   -0.04    0.09
   0   0 -18    0.24    0.10
  -1   0 -18    3.51    0.21
  -2   0 -18    1.59    0.15
  -3   0 -18    0.19    0.12
  -4   0 -18    1.88    0.18
  -5   0 -18    1.17    0.18
  -6   1  18    0.72    0.22
  -5   1  18    0.63    0.21
   0  -1 -18    0.66    0.11
  -1  -1 -18    0.50    0.11
  -2  -1 -18    1.29    0.14
  -3  -1 -18    0.17    0.12
  -4  -1 -18    5.10    0.27
  -5  -1 -18    0.56    0.17
  -6   2  18    1.66    0.27
  -5   2  18    0.46    0.19
  -4   2  18    0.40    0.17
  -3   2  18    2.05    0.23
  -1  -2 -18    0.96    0.12
  -2  -2 -18    0.13    0.10
  -3  -2 -18   -0.02    0.11
  -4  -2 -18    1.57    0.17
  -5  -2 -18    0.08    0.15
  -6   3  18    0.14    0.20
  -5   3  18    0.61    0.21
  -4   3  18   -0.35    0.14
  -3   3  18    1.73    0.22
  -2   3  18    3.58    0.27
  -3  -3 -18    4.22    0.23
  -4  -3 -18    3.97    0.26
  -5   4  18    1.15    0.24
  -4   4  18    2.59    0.27
  -3   4  18    0.53    0.17
  -2   4  18    0.09    0.13
  -1   4  18    2.54    0.23
  -4  -4 -18    1.41    0.18
  -5   5  18    1.42    0.26
  -4   5  18   -0.14    0.15
  -3   5  18    1.16    0.20
  -2   5  18    0.59    0.16
  -1   5  18   -0.09    0.10
  -1   5  18   -0.02    0.11
   0   5  18    0.32    0.11
   1   5  18    7.66    0.33
  -4   6  18    1.08    0.22
  -3   6  18    0.47    0.17
  -2   6  18    0.06    0.14
  -1   6  18    0.41    0.13
   0   6  18    0.91    0.14
   1   6  18    0.90    0.14
   2   6  18    2.51    0.23
  -3   7  18    0.13    0.16
  -1   7  18    0.28    0.12
   0   7  18    0.26    0.12
   1   7  18    0.86    0.14
   2   7  18    0.65    0.14
   3   7 -19    2.13    0.22
   3   7 -19    2.16    0.25
   2   7 -19    0.02    0.16
   1   7 -19    0.29    0.17
   1   7 -19    0.31    0.13
   0   7 -19    0.93    0.19
   0   7 -19    0.96    0.15
  -1   7 -19   -0.12    0.16
  -1   7 -19    0.09    0.13
   4   6 -19    2.80    0.26
   4   6 -19    2.20    0.24
   3   6 -19   -0.03    0.15
   3   6 -19   -0.22    0.14
   2   6 -19    0.80    0.19
   1   6 -19   -0.01    0.15
   1   6 -19    0.26    0.13
   0   6 -19   -0.23    0.14
   0   6 -19    0.19    0.12
  -1   6 -19    6.35    0.28
  -1   6 -19    6.39    0.36
  -2   6 -19    0.17    0.17
  -2   6 -19    0.28    0.12
  -3   6 -19   -0.07    0.16
  -3   6 -19    0.12    0.13
   4   5 -19    4.43    0.33
   4   5 -19    4.19    0.32
   3   5 -19    0.50    0.16
   3   5 -19    0.92    0.18
   2   5 -19    0.12    0.15
   1   5 -19    2.81    0.27
   1   5 -19    3.42    0.22
   0   5 -19    6.13    0.27
   0   5 -19    6.20    0.34
  -1   5 -19    1.74    0.21
  -1   5 -19    1.66    0.15
  -2   5 -19    2.88    0.21
  -2   5 -19    2.43    0.23
  -3   5 -19   -0.16    0.16
  -3   5 -19   -0.26    0.11
   5   4 -19    4.39    0.32
   5   4 -19    3.81    0.33
   4   4 -19    1.54    0.20
   4   4 -19    1.49    0.21
   3   4 -19    1.10    0.18
   3   4 -19    1.05    0.18
   2   4 -19    1.84    0.20
   1   4 -19    2.17    0.21
   0   4 -19   -0.07    0.13
   0   4 -19    0.06    0.11
  -1   4 -19    0.39    0.11
  -1   4 -19   -0.02    0.15
  -2   4 -19    0.31    0.11
  -2   4 -19    0.18    0.15
  -3   4 -19   -0.05    0.15
  -3   4 -19   -0.22    0.10
  -4   4 -19    1.19    0.20
  -4   4 -19    1.09    0.14
   5   3 -19    0.22    0.17
   4   3 -19    0.61    0.15
   4   3 -19    0.32    0.15
   3   3 -19   -0.01    0.12
   2   3 -19    0.41    0.14
   1   3 -19    0.88    0.16
   0   3 -19    2.27    0.18
   0   3 -19    1.90    0.19
  -1   3 -19    2.04    0.20
  -1   3 -19    2.28    0.18
  -2   3 -19    6.03    0.31
  -2   3 -19    6.01    0.24
  -3   3 -19    0.02    0.14
  -4   3 -19    3.34    0.28
  -6  -2  19    0.21    0.19
   4   2 -19    0.57    0.16
   3   2 -19    0.06    0.11
   2   2 -19   -0.02    0.11
   1   2 -19    0.06    0.12
   0   2 -19   16.75    0.44
   0   2 -19   18.22    0.53
  -1   2 -19    1.17    0.16
  -1   2 -19    0.93    0.12
  -2   2 -19    1.29    0.17
  -3   2 -19    1.29    0.17
  -4   2 -19    0.83    0.17
  -6  -1  19    0.18    0.18
   2   1 -19    3.40    0.23
   1   1 -19    9.31    0.35
   0   1 -19    0.24    0.12
  -1   1 -19    0.91    0.15
  -2   1 -19    0.15    0.13
  -3   1 -19   -0.04    0.13
  -4   1 -19    0.33    0.15
  -6   0  19    0.19    0.20
  -5   0  19    1.36    0.24
   1   0 -19   -0.16    0.10
   0   0 -19    1.33    0.15
  -1   0 -19    0.08    0.11
  -2   0 -19    0.76    0.14
  -3   0 -19    0.77    0.14
  -4   0 -19    3.12    0.25
  -6   1  19    0.34    0.21
  -5   1  19    0.21    0.19
  -4   1  19    0.49    0.18
   0  -1 -19   -0.09    0.10
  -1  -1 -19   -0.12    0.11
  -2  -1 -19   -0.08    0.11
  -3  -1 -19    0.61    0.14
  -4  -1 -19    0.68    0.15
  -5   2  19    1.04    0.24
  -4   2  19    0.06    0.16
  -3   2  19    0.50    0.17
  -2  -2 -19    0.62    0.13
  -3  -2 -19    0.95    0.15
  -4  -2 -19    0.51    0.15
  -5   3  19    1.14    0.25
  -4   3  19    0.34    0.18
  -3   3  19    1.11    0.20
  -2   3  19    5.97    0.34
  -1   3  19    0.74    0.16
  -3  -3 -19   -0.01    0.13
  -4  -3 -19    1.02    0.16
  -5   4  19    0.84    0.23
  -4   4  19    4.76    0.37
  -3   4  19    0.23    0.16
  -2   4  19    0.08    0.13
  -1   4  19    0.29    0.13
  -4   5  19    4.05    0.35
  -3   5  19    2.32    0.25
  -2   5  19    0.23    0.14
  -3   6  19    0.00    0.16
  -2   6  19    0.13    0.15
   0   6  19    0.41    0.14
  -1   7  19    0.15    0.14
   0   7  19    2.48    0.24
   1   7 -20   -0.13    0.15
   0   7 -20    0.21    0.17
   0   7 -20    0.15    0.13
   3   6 -20    3.40    0.30
   3   6 -20    4.06    0.33
   2   6 -20    1.55    0.22
   1   6 -20    3.48    0.32
   0   6 -20    2.81    0.23
   0   6 -20    1.90    0.23
  -1   6 -20    0.97    0.15
  -1   6 -20    0.71    0.20
  -2   6 -20    2.10    0.18
  -2   6 -20    2.12    0.24
   4   5 -20    6.46    0.38
   4   5 -20    6.48    0.38
   3   5 -20    0.36    0.16
   3   5 -20    0.13    0.16
   2   5 -20    2.12    0.23
   1   5 -20    2.19    0.23
   0   5 -20    0.38    0.13
   0   5 -20    0.20    0.16
  -1   5 -20    0.57    0.18
  -1   5 -20    0.82    0.14
  -2   5 -20    2.37    0.21
  -2   5 -20    2.35    0.24
   4   4 -20    2.27    0.23
   4   4 -20    2.40    0.25
   3   4 -20    0.17    0.15
   3   4 -20    0.08    0.15
   2   4 -20    0.20    0.15
   1   4 -20    0.39    0.16
   0   4 -20    1.98    0.16
   0   4 -20    2.04    0.21
  -1   4 -20    6.64    0.35
  -1   4 -20    6.94    0.28
  -2   4 -20   -0.15    0.15
  -2   4 -20   -0.19    0.11
  -3   4 -20   -0.33    0.15
  -3   4 -20    0.00    0.12
   5   3 -20    0.23    0.17
   4   3 -20    0.02    0.15
   4   3 -20    0.17    0.15
   3   3 -20    0.00    0.14
   3   3 -20   -0.05    0.13
   2   3 -20    1.24    0.17
   1   3 -20    5.78    0.32
   0   3 -20    6.67    0.34
   0   3 -20    7.02    0.27
  -1   3 -20    1.22    0.19
  -1   3 -20    1.16    0.13
  -2   3 -20    5.23    0.32
  -3   3 -20   10.27    0.42
   3   2 -20    0.28    0.16
   3   2 -20    0.78    0.15
   2   2 -20    0.03    0.12
   1   2 -20    1.39    0.17
   0   2 -20    0.28    0.15
  -1   2 -20    3.98    0.28
  -2   2 -20    3.10    0.26
  -3   2 -20    3.02    0.27
  -4   2 -20    0.29    0.17
   2   1 -20    1.91    0.18
   1   1 -20    2.47    0.22
   0   1 -20    1.49    0.17
  -1   1 -20    0.43    0.14
  -2   1 -20    0.04    0.14
  -3   1 -20   -0.23    0.14
  -4   1 -20   -0.06    0.15
  -5   0  20   -0.18    0.17
   0   0 -20    1.11    0.15
  -1   0 -20    0.11    0.12
  -2   0 -20    0.96    0.15
  -3   0 -20   -0.12    0.13
  -4   0 -20    0.59    0.16
  -5   1  20    0.31    0.20
  -4   1  20    0.21    0.19
  -1  -1 -20    0.06    0.12
  -2  -1 -20   -0.26    0.12
  -3  -1 -20    0.21    0.14
  -4  -1 -20   -0.19    0.14
  -5   2  20    0.40    0.21
  -4   2  20   -0.14    0.16
  -3   2  20    0.06    0.16
  -3  -2 -20    3.88    0.25
  -5   3  20    1.06    0.24
  -4   3  20   -0.04    0.17
  -3   3  20    0.53    0.18
  -2   3  20    0.35    0.16
  -1   3  20    0.88    0.17
  -4   4  20    0.25    0.19
  -3   4  20    1.63    0.24
  -2   4  20   -0.10    0.13
  -1   4  20   -0.09    0.13
  -3   5  20    0.46    0.18
  -2   5  20    0.81    0.17
   1   6 -21    1.69    0.23
   0   6 -21    0.66    0.15
   0   6 -21    0.59    0.19
   3   5 -21   -0.05    0.16
   3   5 -21   -0.02    0.16
   2   5 -21   -0.05    0.16
   1   5 -21    1.18    0.20
   0   5 -21    0.22    0.13
   0   5 -21    0.08    0.16
  -1   5 -21    0.85    0.20
  -1   5 -21    1.30    0.16
   3   4 -21    4.62    0.34
   3   4 -21    4.41    0.33
   2   4 -21    1.24    0.20
   1   4 -21    0.65    0.18
   0   4 -21    0.18    0.16
   0   4 -21    0.27    0.12
  -1   4 -21    9.03    0.41
  -1   4 -21    9.29    0.33
  -2   4 -21    1.03    0.20
   4   3 -21    8.72    0.44
   3   3 -21    8.07    0.41
   3   3 -21    8.07    0.38
   2   3 -21    0.73    0.18
   1   3 -21    0.25    0.15
   0   3 -21    0.28    0.15
  -1   3 -21    0.29    0.16
  -2   3 -21    0.09    0.16
  -3   3 -21    1.30    0.20
   2   2 -21   -0.01    0.13
   1   2 -21    1.25    0.17
   0   2 -21    1.46    0.19
  -1   2 -21    1.87    0.20
  -2   2 -21   -0.19    0.15
  -3   2 -21    0.79    0.19
   1   1 -21   11.72    0.42
   0   1 -21    0.44    0.15
  -1   1 -21    0.03    0.14
  -2   1 -21    1.28    0.18
  -3   1 -21    0.49    0.17
   0   0 -21    4.38    0.27
  -1   0 -21    0.92    0.16
  -2   0 -21   -0.05    0.14
  -3   0 -21    1.13    0.18
  -4   1  21    1.31    0.24
  -2  -1 -21    0.10    0.14
  -3  -1 -21    1.13    0.17
  -4   2  21    0.16    0.19
  -3   2  21    0.81    0.21
  -4   3  21    0.29    0.20
  -3   3  21    0.65    0.19
  -2   3  21    0.36    0.17
  -1   3  21    0.31    0.15
  -3   4  21   -0.10    0.16
  -2   4  21    0.26    0.16
  -2   5  21   -0.02    0.15
   2   4 -22    0.76    0.19
   1   4 -22    0.14    0.16
   0   4 -22   -0.20    0.16
  -1   4 -22    0.30    0.19
   3   3 -22   -0.13    0.15
   2   3 -22    0.35    0.17
   1   3 -22    0.05    0.15
   0   3 -22   -0.29    0.15
  -1   3 -22    0.00    0.16
   1   2 -22    0.01    0.14
   0   2 -22    0.99    0.18
  -1   2 -22    0.93    0.19
  -2   2 -22   13.24    0.49
   0   1 -22    0.28    0.15
  -1   1 -22    0.31    0.16
  -2   1 -22    7.89    0.37
  -1   0 -22    0.39    0.16
  -2   0 -22   -0.29    0.15
  -3   2  22    1.71    0.25
  -3   3  22    1.76    0.26
  -2   3  22    0.10    0.16
  -1   3  22    0.39    0.16
   1   3 -23   -0.43    0.15
   1   2 -23   -0.08    0.15
   0   2 -23    0.55    0.18
  -1   1 -23    0.12    0.17
   0   0   0    0.00    0.00
;
_shelx_hkl_checksum              57209
#END Tags that were not found in dictionaries
loop_
_space_group_symop_operation_xyz
'x, y, z'
'-x, -y, -z'
loop_
_atom_site_label
_atom_site_type_symbol
_atom_site_fract_x
_atom_site_fract_y
_atom_site_fract_z
_atom_site_U_iso_or_equiv
_atom_site_adp_type
_atom_site_occupancy
_atom_site_site_symmetry_order
_atom_site_calc_flag
_atom_site_refinement_flags_posn
_atom_site_refinement_flags_adp
O1 O 0.86272(15) 0.09093(10) 0.39453(6) 0.02502(18) Uani 1 1 d . .
H1 H 0.985(3) 0.1051(12) 0.4434(11) 0.038 Uiso 1 1 calc R U
O2 O 0.78138(15) -0.13894(10) 0.47657(6) 0.0271(2) Uani 1 1 d . .
C1 C 0.41448(16) -0.23239(11) 0.33091(6) 0.01449(16) Uani 1 1 d . .
C2 C 0.39384(19) -0.35033(13) 0.41260(7) 0.0207(2) Uani 1 1 d . .
H2A H 0.3986 -0.2836 0.4725 0.025 Uiso 1 1 calc R U
H2B H 0.5248 -0.4326 0.4167 0.025 Uiso 1 1 calc R U
C3 C 0.1539(2) -0.44483(14) 0.39215(7) 0.0221(2) Uani 1 1 d . .
H3A H 0.1700 -0.5684 0.4033 0.027 Uiso 1 1 calc R U
H3B H 0.0354 -0.3978 0.4320 0.027 Uiso 1 1 calc R U
C4 C 0.08469(17) -0.41383(12) 0.29011(7) 0.01647(17) Uani 1 1 d . .
C5 C -0.10457(18) -0.48638(13) 0.23292(7) 0.01999(19) Uani 1 1 d . .
H5 H -0.2128 -0.5623 0.2579 0.024 Uiso 1 1 calc R U
C6 C -0.13148(18) -0.44522(12) 0.13870(7) 0.01971(19) Uani 1 1 d . .
H6 H -0.2620 -0.4909 0.0994 0.024 Uiso 1 1 calc R U
C7 C 0.03142(17) -0.33739(12) 0.10119(7) 0.01720(18) Uani 1 1 d . .
H7 H 0.0155 -0.3159 0.0360 0.021 Uiso 1 1 calc R U
C8 C 0.21665(16) -0.26111(11) 0.15830(6) 0.01440(16) Uani 1 1 d . .
H8 H 0.3257 -0.1866 0.1327 0.017 Uiso 1 1 calc R U
C9 C 0.23978(15) -0.29604(11) 0.25434(6) 0.01328(16) Uani 1 1 d . .
C10 C 0.55824(16) -0.09268(11) 0.32905(6) 0.01418(16) Uani 1 1 d . .
C11 C 0.54541(15) 0.02131(11) 0.24705(6) 0.01244(15) Uani 1 1 d . .
C12 C 0.35597(16) 0.13170(12) 0.23082(7) 0.01635(17) Uani 1 1 d . .
H12 H 0.2435 0.1438 0.2757 0.020 Uiso 1 1 calc R U
C13 C 0.33206(18) 0.22437(13) 0.14851(7) 0.01977(19) Uani 1 1 d . .
H13 H 0.2043 0.3004 0.1379 0.024 Uiso 1 1 calc R U
C14 C 0.49425(19) 0.20566(12) 0.08229(7) 0.01943(19) Uani 1 1 d . .
H14 H 0.4734 0.2647 0.0251 0.023 Uiso 1 1 calc R U
C15 C 0.68769(18) 0.10025(13) 0.09961(7) 0.01876(18) Uani 1 1 d . .
H15 H 0.8012 0.0897 0.0551 0.023 Uiso 1 1 calc R U
C16 C 0.71426(16) 0.01050(12) 0.18229(7) 0.01591(17) Uani 1 1 d . .
H16 H 0.8487 -0.0588 0.1948 0.019 Uiso 1 1 calc R U
C17 C 0.74038(17) -0.05053(12) 0.40686(7) 0.01750(18) Uani 1 1 d . .
loop_
_atom_site_aniso_label
_atom_site_aniso_U_11
_atom_site_aniso_U_22
_atom_site_aniso_U_33
_atom_site_aniso_U_23
_atom_site_aniso_U_13
_atom_site_aniso_U_12
O1 0.0279(4) 0.0233(4) 0.0212(4) 0.0059(3) -0.0125(3) -0.0106(3)
O2 0.0306(4) 0.0267(4) 0.0213(4) 0.0090(3) -0.0139(3) -0.0100(3)
C1 0.0145(4) 0.0156(4) 0.0129(4) 0.0016(3) -0.0016(3) 0.0001(3)
C2 0.0245(5) 0.0218(5) 0.0151(4) 0.0064(3) -0.0022(3) -0.0045(3)
C3 0.0269(5) 0.0220(5) 0.0175(4) 0.0048(3) 0.0019(4) -0.0063(4)
C4 0.0166(4) 0.0155(4) 0.0174(4) 0.0007(3) 0.0023(3) -0.0019(3)
C5 0.0168(4) 0.0182(4) 0.0248(5) 0.0003(3) 0.0018(3) -0.0047(3)
C6 0.0163(4) 0.0165(4) 0.0250(5) -0.0022(3) -0.0041(3) -0.0027(3)
C7 0.0183(4) 0.0153(4) 0.0168(4) -0.0010(3) -0.0039(3) -0.0008(3)
C8 0.0135(4) 0.0145(4) 0.0147(4) 0.0004(3) -0.0012(3) -0.0007(3)
C9 0.0122(3) 0.0131(4) 0.0142(4) 0.0002(3) -0.0001(3) -0.0001(3)
C10 0.0136(4) 0.0155(4) 0.0127(4) 0.0012(3) -0.0030(3) -0.0005(3)
C11 0.0111(3) 0.0123(3) 0.0133(4) 0.0002(3) -0.0024(3) -0.0003(3)
C12 0.0139(4) 0.0171(4) 0.0179(4) 0.0009(3) -0.0003(3) 0.0033(3)
C13 0.0186(4) 0.0171(4) 0.0227(5) 0.0035(3) -0.0046(3) 0.0039(3)
C14 0.0225(4) 0.0175(4) 0.0172(4) 0.0043(3) -0.0046(3) -0.0042(3)
C15 0.0174(4) 0.0216(4) 0.0173(4) 0.0013(3) 0.0019(3) -0.0040(3)
C16 0.0117(4) 0.0178(4) 0.0179(4) 0.0010(3) -0.0006(3) 0.0006(3)
C17 0.0183(4) 0.0176(4) 0.0154(4) 0.0017(3) -0.0050(3) -0.0020(3)
loop_
_atom_type_symbol
_atom_type_description
_atom_type_scat_dispersion_real
_atom_type_scat_dispersion_imag
_atom_type_scat_source
C C 0.0033 0.0016 'International Tables Vol C Tables 4.2.6.8 and 6.1.1.4'
H H 0.0000 0.0000 'International Tables Vol C Tables 4.2.6.8 and 6.1.1.4'
O O 0.0106 0.0060 'International Tables Vol C Tables 4.2.6.8 and 6.1.1.4'
loop_
_geom_angle_atom_site_label_1
_geom_angle_atom_site_label_2
_geom_angle_atom_site_label_3
_geom_angle
C10 C1 C9 126.46(8)
C10 C1 C2 127.14(8)
C9 C1 C2 106.37(8)
C1 C2 C3 105.84(7)
C4 C3 C2 104.12(8)
C5 C4 C9 120.82(9)
C5 C4 C3 127.97(9)
C9 C4 C3 111.21(8)
C6 C5 C4 118.70(9)
C5 C6 C7 120.75(9)
C8 C7 C6 120.77(9)
C7 C8 C9 118.92(9)
C8 C9 C4 119.80(8)
C8 C9 C1 130.69(8)
C4 C9 C1 109.47(8)
C1 C10 C17 121.38(8)
C1 C10 C11 121.62(7)
C17 C10 C11 116.96(8)
C16 C11 C12 119.22(8)
C16 C11 C10 120.20(8)
C12 C11 C10 120.44(8)
C11 C12 C13 119.98(9)
C14 C13 C12 120.24(9)
C13 C14 C15 119.96(9)
C16 C15 C14 119.85(10)
C15 C16 C11 120.62(8)
O2 C17 O1 122.13(8)
O2 C17 C10 124.21(9)
O1 C17 C10 113.64(8)
loop_
_geom_bond_atom_site_label_1
_geom_bond_atom_site_label_2
_geom_bond_distance
O1 C17 1.3254(12)
O2 C17 1.2372(11)
C1 C10 1.3600(13)
C1 C9 1.4823(12)
C1 C2 1.5223(13)
C2 C3 1.5443(15)
C3 C4 1.5053(14)
C4 C5 1.3968(14)
C4 C9 1.4065(13)
C5 C6 1.3909(15)
C6 C7 1.3980(15)
C7 C8 1.3915(13)
C8 C9 1.4041(13)
C10 C17 1.4782(12)
C10 C11 1.4919(12)
C11 C16 1.3949(14)
C11 C12 1.3974(12)
C12 C13 1.3984(13)
C13 C14 1.3868(16)
C14 C15 1.3927(14)
C15 C16 1.3911(13)
loop_
_geom_torsion_atom_site_label_1
_geom_torsion_atom_site_label_2
_geom_torsion_atom_site_label_3
_geom_torsion_atom_site_label_4
_geom_torsion
C10 C1 C2 C3 160.46(10)
C9 C1 C2 C3 -17.48(11)
C1 C2 C3 C4 15.23(11)
C2 C3 C4 C5 172.24(10)
C2 C3 C4 C9 -7.69(12)
C9 C4 C5 C6 2.57(15)
C3 C4 C5 C6 -177.35(10)
C4 C5 C6 C7 1.87(15)
C5 C6 C7 C8 -3.65(15)
C6 C7 C8 C9 0.91(14)
C7 C8 C9 C4 3.48(13)
C7 C8 C9 C1 -179.05(9)
C5 C4 C9 C8 -5.28(14)
C3 C4 C9 C8 174.65(8)
C5 C4 C9 C1 176.75(9)
C3 C4 C9 C1 -3.31(11)
C10 C1 C9 C8 17.54(16)
C2 C1 C9 C8 -164.51(9)
C10 C1 C9 C4 -164.79(10)
C2 C1 C9 C4 13.16(10)
C9 C1 C10 C17 -174.57(9)
C2 C1 C10 C17 7.89(16)
C9 C1 C10 C11 3.17(15)
C2 C1 C10 C11 -174.37(9)
C1 C10 C11 C16 -102.50(11)
C17 C10 C11 C16 75.33(11)
C1 C10 C11 C12 73.18(12)
C17 C10 C11 C12 -108.99(10)
C16 C11 C12 C13 2.64(14)
C10 C11 C12 C13 -173.09(8)
C11 C12 C13 C14 0.77(15)
C12 C13 C14 C15 -2.94(15)
C13 C14 C15 C16 1.69(15)
C14 C15 C16 C11 1.76(15)
C12 C11 C16 C15 -3.91(14)
C10 C11 C16 C15 171.83(8)
C1 C10 C17 O2 2.41(16)
C11 C10 C17 O2 -175.43(10)
C1 C10 C17 O1 -179.10(9)
C11 C10 C17 O1 3.06(13)
