#------------------------------------------------------------------------------
#$Date: 2015-06-05 08:03:28 +0300 (Fri, 05 Jun 2015) $
#$Revision: 138250 $
#$URL: svn://www.crystallography.net/cod/cif/4/12/36/4123677.cif $
#------------------------------------------------------------------------------
#
# This file is available in the Crystallography Open Database (COD),
# http://www.crystallography.net/
#
# All data on this site have been placed in the public domain by the
# contributors.
#
data_4123677
loop_
_publ_author_name
'Sanz Camacho, Paula'
'Athukorala Arachchige, Kasun S.'
'Slawin, Alexandra M. Z.'
'Green, Timothy F. G.'
'Yates, Jonathan R.'
'Dawson, Daniel M.'
'Woollins, J. Derek'
'Ashbrook, Sharon E.'
_publ_section_title
;
 Unusual intermolecular &quot;through-space&quot; j couplings in p-se
 heterocycles.
;
_journal_issue                   19
_journal_name_full               'Journal of the American Chemical Society'
_journal_page_first              6172
_journal_page_last               6175
_journal_paper_doi               10.1021/jacs.5b03353
_journal_volume                  137
_journal_year                    2015
_chemical_formula_moiety         'C14 H15 P Se2'
_chemical_formula_sum            'C14 H15 P Se2'
_chemical_formula_weight         372.17
_space_group_crystal_system      triclinic
_space_group_IT_number           2
_space_group_name_Hall           '-P 1'
_space_group_name_H-M_alt        'P -1'
_symmetry_space_group_name_Hall  '-P 1'
_symmetry_space_group_name_H-M   'P -1'
_atom_sites_solution_hydrogens   geom
_atom_sites_solution_primary     direct
_atom_sites_solution_secondary   difmap
_cell_angle_alpha                107.355(8)
_cell_angle_beta                 107.255(8)
_cell_angle_gamma                106.126(8)
_cell_formula_units_Z            2
_cell_length_a                   7.3880(15)
_cell_length_b                   10.3745(19)
_cell_length_c                   10.8099(19)
_cell_measurement_reflns_used    4347
_cell_measurement_temperature    125
_cell_measurement_theta_max      25.47
_cell_measurement_theta_min      2.17
_cell_volume                     691.6(2)
_computing_cell_refinement       'CrystalClear-SM Expert 2.0 r5'
_computing_data_collection
'CrystalClear-SM Expert 2.0 r5 (Rigaku, 2010)'
_computing_data_reduction        'CrystalClear-SM Expert 2.0 r5'
_computing_molecular_graphics    'CrystalStructure 4.1'
_computing_publication_material  'CrystalStructure 4.1 (Rigaku, 2014)'
_computing_structure_refinement  'SHELXL2013 (Sheldrick, 2008)'
_computing_structure_solution    'SHELXS97 (Sheldrick, 2008)'
_diffrn_ambient_temperature      125
_diffrn_detector_area_resol_mean 14.286
_diffrn_measured_fraction_theta_full 0.997
_diffrn_measured_fraction_theta_max 0.997
_diffrn_measurement_device_type  'Rigaku Saturn70'
_diffrn_measurement_method       \w
_diffrn_radiation_type           'Mo K\a'
_diffrn_radiation_wavelength     0.71075
_diffrn_reflns_av_R_equivalents  0.0356
_diffrn_reflns_laue_measured_fraction_full 0.997
_diffrn_reflns_laue_measured_fraction_max 0.997
_diffrn_reflns_limit_h_max       8
_diffrn_reflns_limit_h_min       -8
_diffrn_reflns_limit_k_max       12
_diffrn_reflns_limit_k_min       -12
_diffrn_reflns_limit_l_max       12
_diffrn_reflns_limit_l_min       -11
_diffrn_reflns_number            5346
_diffrn_reflns_point_group_measured_fraction_full 0.997
_diffrn_reflns_point_group_measured_fraction_max 0.997
_diffrn_reflns_theta_full        24.999
_diffrn_reflns_theta_max         24.999
_diffrn_reflns_theta_min         2.246
_diffrn_standards_number         0
_exptl_absorpt_coefficient_mu    5.438
_exptl_absorpt_correction_T_max  0.849
_exptl_absorpt_correction_T_min  0.629
_exptl_absorpt_correction_type   multi-scan
_exptl_absorpt_process_details   'REQAB (Rigaku, 1998)'
_exptl_crystal_colour            colorless
_exptl_crystal_density_diffrn    1.787
_exptl_crystal_density_method    'not measured'
_exptl_crystal_description       platelet
_exptl_crystal_F_000             364.00
_exptl_crystal_size_max          0.120
_exptl_crystal_size_mid          0.060
_exptl_crystal_size_min          0.030
_refine_diff_density_max         0.51
_refine_diff_density_min         -0.66
_refine_ls_extinction_method     none
_refine_ls_goodness_of_fit_ref   0.983
_refine_ls_hydrogen_treatment    constr
_refine_ls_number_parameters     154
_refine_ls_number_reflns         2422
_refine_ls_number_restraints     0
_refine_ls_R_factor_all          0.0481
_refine_ls_R_factor_gt           0.0326
_refine_ls_shift/su_max          0.000
_refine_ls_structure_factor_coef Fsqd
_refine_ls_weighting_details
'w = 1/[\s^2^(Fo^2^)+(0.0267P)^2^+0.6478P] where P=(Fo^2^+2Fc^2^)/3'
_refine_ls_weighting_scheme      calc
_refine_ls_wR_factor_gt          0.0652
_refine_ls_wR_factor_ref         0.0707
_reflns_number_gt                1928
_reflns_number_total             2422
_reflns_threshold_expression     F^2^>2.0\s(F^2^)
_cod_data_source_file            ja5b03353_si_002.cif
_cod_data_source_block           1
_cod_depositor_comments
'Adding full bibliography for 4123677--4123678.cif.'
_cod_database_code               4123677
_shelx_res_file
;

    shelxl.res created by SHELXL-2014/7

TITL PSC21-1-FS
CELL  0.71075 7.38800 10.37450 10.80990 107.35500 107.25500 106.12600
ZERR  2 0.00152 0.00187 0.00187 0.00760 0.00750 0.00750
LATT 1
SFAC C H P SE
UNIT 28 30 2 4
SHEL 99999.000000 0.840885
OMIT     0   0   1
OMIT     0  -6   9
L.S. 10
FMAP 2
PLAN -10
WPDB -2
HTAB
BOND $H
CONF
LIST 4
TEMP -148.0
ACTA
SIZE 0.120 0.060 0.030
WGHT    0.026700    0.647800
FVAR       1.43669
SE1   4    0.422396    0.877595    0.314264    11.00000    0.02349    0.03519 =
         0.02423    0.01129    0.01357    0.01601
SE2   4    0.862284    0.959712    0.260878    11.00000    0.01737    0.02364 =
         0.02369    0.01006    0.00734    0.00552
P1    3    0.734436    0.873502    0.396699    11.00000    0.01957    0.02281 =
         0.01979    0.00788    0.00806    0.00890
C1    1    0.316344    0.794860    0.110338    11.00000    0.02011    0.02316 =
         0.02515    0.01014    0.00896    0.01268
C2    1    0.104088    0.721896    0.047924    11.00000    0.01905    0.03554 =
         0.03815    0.01406    0.01372    0.01387
AFIX  43
H2    2    0.033377    0.705043    0.105754    11.00000   -1.20000
AFIX   0
C3    1   -0.010571    0.671782   -0.098641    11.00000    0.01628    0.03227 =
         0.03959    0.00995    0.00398    0.01033
AFIX  43
H3    2   -0.157036    0.622157   -0.139329    11.00000   -1.20000
AFIX   0
C4    1    0.089575    0.694849   -0.181451    11.00000    0.02750    0.02745 =
         0.02570    0.00681    0.00498    0.01662
AFIX  43
H4    2    0.011636    0.663861   -0.280218    11.00000   -1.20000
AFIX   0
C5    1    0.306491    0.763687   -0.124473    11.00000    0.02185    0.02371 =
         0.02455    0.00875    0.00839    0.01451
C6    1    0.403983    0.781708   -0.216621    11.00000    0.03283    0.02614 =
         0.01980    0.00755    0.00931    0.01669
AFIX  43
H6    2    0.321902    0.751800   -0.314501    11.00000   -1.20000
AFIX   0
C7    1    0.612727    0.841063   -0.166605    11.00000    0.03879    0.02809 =
         0.02632    0.01474    0.01880    0.01859
AFIX  43
H7    2    0.677324    0.852990   -0.228813    11.00000   -1.20000
AFIX   0
C8    1    0.731860    0.884456   -0.023271    11.00000    0.02097    0.02136 =
         0.02839    0.01131    0.01240    0.00842
AFIX  43
H8    2    0.878275    0.922505    0.010052    11.00000   -1.20000
AFIX   0
C9    1    0.646534    0.874530    0.071787    11.00000    0.02452    0.01960 =
         0.02380    0.01125    0.01032    0.01266
C10   1    0.426969    0.813820    0.024119    11.00000    0.02253    0.01574 =
         0.02022    0.00563    0.00688    0.00988
C11   1    0.697318    0.674862    0.336652    11.00000    0.02569    0.02216 =
         0.01948    0.00835    0.00908    0.01004
C12   1    0.582740    0.614043    0.417389    11.00000    0.04133    0.03288 =
         0.03343    0.01827    0.01895    0.01339
AFIX  33
H12A  2    0.660329    0.675590    0.519802    11.00000   -1.20000
H12B  2    0.444451    0.614931    0.386095    11.00000   -1.20000
H12C  2    0.570139    0.512698    0.397921    11.00000   -1.20000
AFIX   0
C13   1    0.581695    0.582323    0.177696    11.00000    0.02894    0.01938 =
         0.02539    0.00821    0.00973    0.00779
AFIX  33
H13A  2    0.442121    0.580912    0.145410    11.00000   -1.20000
H13B  2    0.655906    0.624767    0.128247    11.00000   -1.20000
H13C  2    0.572237    0.481407    0.156569    11.00000   -1.20000
AFIX   0
C14   1    0.915761    0.678608    0.389407    11.00000    0.03190    0.02524 =
         0.02895    0.00973    0.00738    0.01384
AFIX  33
H14A  2    0.988663    0.738793    0.492291    11.00000   -1.20000
H14B  2    0.907490    0.578036    0.369034    11.00000   -1.20000
H14C  2    0.991159    0.721396    0.340713    11.00000   -1.20000
AFIX   0
HKLF 4
 
REM  PSC21-1-FS
REM R1 =  0.0326 for    1928 Fo > 4sig(Fo)  and  0.0481 for all    2422 data
REM    154 parameters refined using      0 restraints
 
END  
     
WGHT      0.0248      0.1883 

REM Instructions for potential hydrogen bonds
HTAB C12 Se1
HTAB C13 Se1
HTAB C13 Se2
EQIV $1 -x+2, -y+2, -z+1
HTAB C14 Se2_$1
HTAB C14 Se2

REM Highest difference peak  0.506,  deepest hole -0.656,  1-sigma level  0.107
Q1    1   0.3110  1.0378  0.2256  11.00000  0.05    0.51
Q2    1   0.8310  0.9577  0.3257  11.00000  0.05    0.48
Q3    1   0.2593  0.7726  0.1601  11.00000  0.05    0.46
Q4    1   0.3496  0.7533  0.2663  11.00000  0.05    0.45
Q5    1   0.3692  0.7578  0.3165  11.00000  0.05    0.42
Q6    1   0.3762  0.8342 -0.3234  11.00000  0.05    0.41
Q7    1   0.5676  0.7376 -0.3656  11.00000  0.05    0.39
Q8    1   0.7983  0.8656  0.2135  11.00000  0.05    0.38
Q9    1   0.9038  1.0643  0.3210  11.00000  0.05    0.38
Q10   1   0.2161  0.7333  0.0489  11.00000  0.05    0.38
;
_shelx_res_checksum              19927
_shelx_hkl_file
;
   0   0   1  -12.55    6.49
   0   0   1    0.64    8.40
   0   0  -1  -16.21   11.35
   0  -1   026918.14  981.83
   0   1  -111182.49  324.64
   0   1  -111392.43  316.44
   0  -1   111644.31  330.68
  -1   0   1 5230.69  146.05
   1   0  -1 5210.53  158.08
  -1   0   1 5229.37  169.94
   1   0  -1 5404.70  161.76
   1  -1   0    5.08   15.07
   1  -1   0   -9.75   28.53
   1  -1   0    2.54   17.42
   1   0   0 4118.76  117.72
  -1   0   0 4333.02  154.93
   1  -1  -115186.38  523.00
  -1   1   115353.24  503.34
   1  -1  -115720.27  519.32
  -1   1   115212.97  512.20
   0   1   1 6163.41  220.33
   0   1   1 5865.93  180.45
   0  -1  -1 5897.12  226.39
  -1   1  -1  956.45   59.81
   1  -1   1  836.69   64.45
   1   1  -1 2284.71  119.00
  -1  -1   1 2167.63  117.10
   1   1  -1 2392.36  123.47
  -1  -1   1 2215.06   92.90
   0   1  -2  442.42   20.98
   0  -1   2  418.99   27.04
   0  -1   2  442.79   56.88
   0   1  -2  543.13   57.54
   0  -2   121632.41  731.93
   0  -2   124135.05  925.72
   0   2  -124479.47  940.59
   1   0  -2 2016.61   87.67
  -1   0   2 2085.52  112.84
  -1   0   2 1958.52   77.23
   1   0  -2 1993.18   80.01
  -1   2   0 2986.67  113.66
  -1   2   0 2786.80  113.63
   1  -2   0 2927.28  116.75
   1  -2   0 2726.92   85.48
   1  -2   0 2620.67  111.85
   0   0   213032.10  444.82
   0   0   213499.71  444.84
   0   0  -212241.49  434.67
   0   0  -214018.69  459.53
   1   1  -2 2857.59  131.00
  -1  -1   2 3041.99  138.84
  -1  -1   2 2891.11  112.89
   1   1  -2 3007.24  140.44
   0   2   0  412.73   57.65
   0  -2   0  385.38   58.83
   1   0   110528.28  355.12
  -1   0  -110228.87  343.77
  -1  -1   0  885.09   89.31
   1   1   0 1024.57   94.49
   1  -2   1 5303.16  188.18
  -1   2  -1 4947.49  184.35
   0   2  -2  314.32   48.15
   0  -2   2  252.55   55.24
   0  -2   2  241.38   49.13
   0   2  -2  342.62   46.37
  -1   1   2  449.03   56.17
   1  -1  -2  595.22   55.64
   1  -1  -2  631.20   64.93
  -1   1   2  416.91   75.68
  -1   1   2  492.23   68.90
  -1   2   1  919.54   91.05
   1  -2  -1  967.43   56.10
  -1   2   1  936.89   57.57
   1  -2  -1  943.89   65.27
  -1   2   1  969.53   88.63
   1  -2  -1  810.56   67.41
   2  -1  -127531.85 1089.28
   2  -1  -126333.13 1056.72
  -2   1   128918.75 1140.17
  -2   1   127473.50 1070.99
  -1   1  -2 1209.83   57.40
   1  -1   2 1282.94   56.32
   0   1   238110.95 1596.89
   0  -1  -240511.77 1684.01
   0  -1  -239749.79 1655.62
   0   1   240139.20 1715.63
   1   2  -1 2160.25  111.74
   1   2  -1 2209.95   88.45
  -1  -2   1 2407.99  133.72
   1  -2   2 8920.99  272.05
   1  -2   2 8918.14  289.41
   1   2  -221299.33  802.44
   1   2  -221293.15  760.62
  -1  -2   220734.60  758.52
  -1  -2   220375.12  721.13
   0   2   1 3948.44  157.35
   0  -2  -1 3950.71  186.94
   2   0  -117008.69  655.32
  -2   0   116928.10  585.40
   2   0  -116347.94  619.54
   2  -1   0  358.63   48.89
  -2   1   0  337.88   44.85
  -1  -1   3   79.64   30.83
   1   1  -3  107.26   32.61
  -1  -1   3  127.40   37.85
   1   1  -3   78.59   34.70
  -1  -1  -1  633.93   51.08
   1   1   1  684.83   81.76
   0  -1   3 3702.43  154.45
   0  -1   3 3650.06  173.28
   0   1  -3 3875.20  137.67
   1   0  -3  518.19   72.18
   1   0  -3  630.21   47.24
  -1   0   3  562.79   78.67
   1   0  -3  580.28   48.38
   2   0  -2  927.32   84.59
   2   0  -2  923.40   65.16
  -2   0   2  700.50   69.79
  -2   0   2  831.55   74.32
   1  -3   128652.82 1146.56
  -1   3  -129787.14 1139.29
   2  -2   010509.85  377.59
   2  -2   011476.43  414.13
   2  -2   011415.96  414.12
   2  -1  -2 3159.68  148.03
  -2   1   2 3329.76  125.79
   2  -1  -2 3227.32  147.67
  -2   1   2 3180.14  113.50
   0   3  -125940.65 1007.93
   0  -3   126332.94 1063.04
   0  -2   3 3035.12   93.52
   0   2  -3 3131.61  127.17
   0   2  -3 3184.29  102.51
   0  -2   3 3188.80  110.31
   1  -3   064933.00 2908.36
  -1   3   063313.36 3025.50
  -1   3   064091.99 2879.66
   1  -3   066322.58 3200.90
   1  -3   062877.55 3006.73
   2  -2  -1 6608.67  224.96
   2  -2  -1 6668.81  252.62
   2  -2  -1 6468.07  224.19
  -2   2   1 6005.06  223.08
   2   0   0  361.42   50.94
  -2   0   0  346.45   46.12
   0  -3   2  569.44   44.68
   0   3  -2  680.77   38.50
   0   3  -2  637.28   76.75
   0  -3   2  731.28   75.77
   1   0   2  785.83   65.25
  -1   0  -2  760.81   55.49
   1   2   0  454.18   77.74
  -1  -2   0  181.61   68.99
   0   0  -3 7884.71  264.99
   0   0   3 7479.98  267.38
   0   0   3 7553.56  262.60
   0   0  -3 7940.41  294.45
   0   0  -3 8174.59  225.00
  -1   2   2  837.35   90.78
  -1   2   2  879.06   83.49
  -1   2   2  876.29   74.11
   1  -2  -2  825.63   64.64
   1  -2  -2 1054.17   97.54
   1  -2  -2  759.21   73.77
  -1  -2   3 6104.57  197.36
   1   2  -3 5931.72  209.59
  -1  -2   3 5888.37  217.90
   1  -3   211001.28  339.15
   1  -3   210862.61  355.13
  -1   3  -211142.54  376.10
   2   1  -2 5278.52  214.27
  -2  -1   2 5300.26  204.57
   2   1  -2 5025.04  176.21
  -2  -1   2 5045.91  226.72
  -2   2  -1  505.44   43.23
   2  -2   1  495.41   66.45
  -2   1  -1 9476.27  323.90
   2  -1   1 9051.75  328.99
   0   3   0  149.56   70.87
   0  -3   0  127.11   45.04
   2   1  -114472.18  500.88
  -2  -1   114532.37  530.86
   2   1  -113530.44  480.06
  -1   1   3  235.92   42.63
  -1   1   3  275.11   64.82
   1  -1  -3  298.27   56.85
   1  -1  -3  369.05   41.37
  -1   1   3  299.94   65.96
  -2   0   313730.63  537.58
  -2   0   315266.98  518.33
   2   0  -315526.74  562.26
   2   0  -315038.87  520.80
   1  -3  -1 3506.44  112.30
   1  -3  -1 3607.87  165.04
   1  -3  -1 3529.02  178.28
  -1   3   1 3692.37  146.81
  -1   3   1 3630.08  120.82
  -2   2   2 4039.62  165.12
   2  -2  -2 4327.37  174.32
   2  -2  -2 4227.28  160.57
  -2   2   2 4090.35  179.24
  -2   3   0 4277.61  149.48
  -2   3   0 4742.30  198.72
   2  -3   0 4594.49  163.55
   2  -3   0 4484.01  141.24
   0  -3   3  443.60   58.64
   0   3  -3  562.46   53.71
   0  -3   3  514.97   61.13
   0   3  -3  607.84   53.66
   2   1  -3 5671.46  211.64
  -2  -1   3 6193.69  212.13
   2   1  -3 6067.49  201.61
  -2  -1   3 5782.93  203.84
   1  -2   3 1102.50   90.68
   1  -2   3 1006.21   52.59
   2  -1  -320132.62  733.02
   2  -1  -320768.81  747.90
   2  -1  -320591.92  772.31
  -2   1   320514.52  742.01
  -2   3  -1  380.64   62.74
  -2   3  -1  372.30   24.09
   2  -3   1  288.21   42.57
   0   2   215028.16  553.95
   0   2   214814.80  562.24
   0  -2  -214262.07  533.04
   0  -2  -214664.90  589.99
   1   3  -2 5121.72  237.01
  -1  -3   2 5427.34  217.80
   1   3  -2 5268.01  172.48
  -2   0  -114626.12  525.50
   2   0   114637.08  543.37
   2   1   0 6142.06  257.53
  -2  -1   0 6430.50  244.70
   1  -1   3 2886.26  101.65
  -1   1  -3 2760.06   93.64
  -1   1  -3 2881.13  127.10
  -2   3   1  137.37   36.18
  -2   3   1  184.51   60.55
   2  -3  -1  215.13   41.78
  -2   3   1  175.10   45.58
   2  -3  -1  211.64   56.05
   1   1  -411640.73  418.77
   1   1  -411770.03  344.84
  -1  -1   411816.95  344.92
  -1  -1   411290.33  388.75
   1   1   2  307.48   59.03
  -1  -1  -2  348.85   50.90
   1   3  -1 2319.80  120.13
  -1  -3   1 2094.33  130.86
   0  -1  -311724.40  390.00
   0   1   311003.31  427.68
   0  -1  -311409.45  446.56
   0   1   311419.11  412.79
   1   2   1  275.45   71.41
  -1  -2  -1  243.04   57.07
   1  -3   3  109.38   28.42
  -1   3  -3  118.10   30.51
   1  -3   3   74.35   34.57
  -1  -3   321170.75  789.15
   1   3  -320106.76  741.52
  -1  -3   321337.36  781.64
   1   3  -320877.99  794.83
   1   2  -4 9700.07  292.76
  -1  -2   4 9671.93  299.55
  -1  -2   4 9766.32  357.62
   1   2  -410004.17  349.03
  -1   4  -1  118.93   59.15
   1  -4   1  135.08   37.24
   0  -3  -115587.07  603.50
   0   3   116645.45  653.46
   2  -2   2 9283.28  308.40
  -2   2  -2 9083.59  298.95
   1   0  -4 8775.82  292.06
   1   0  -4 8845.97  249.55
   1   0  -4 8674.50  259.74
  -1   0   4 8570.95  317.90
  -1   0   4 8501.35  338.61
   2   2  -2 7779.91  273.42
   2   2  -2 8193.37  296.76
  -2  -2   2 7906.92  296.29
   0  -2   4  434.19   15.55
   0   2  -4  491.38   56.71
   0  -2   4  532.02   67.13
   0   1  -4  -20.30   26.42
   0  -1   4   19.29   42.55
   0  -1   4   18.35   26.31
   1  -4   2 4078.09  139.92
   1  -4   2 3997.18  101.06
  -1   4  -2 4000.11  173.41
  -2   1  -2 8158.52  270.56
   2  -1   2 8031.91  277.14
  -2  -2   3 1596.02   72.64
  -2  -2   3 1600.81  112.24
   2   2  -3 1724.24  106.80
   2   2  -3 1680.29   75.62
   0  -4   2  909.12   87.44
   0   4  -2  893.01   96.72
  -1   4   026499.00 1053.49
   1  -4   027977.29 1130.36
   1  -4   026680.07 1079.37
  -1   4   027724.89  962.46
  -2  -2   1 3397.07  129.20
   2   2  -1 3183.17  171.45
   2  -3   2  434.49   44.69
  -2   3  -2  400.18   14.93
   2  -3   2  489.36   48.36
   1  -2  -3  499.40   58.92
   1  -2  -3  634.66   91.08
  -1   2   3  591.63   53.06
   1  -2  -3  449.11   56.98
  -1   2   3  520.98   70.52
  -1   2   3  574.73   63.31
  -3   1   1 1571.13   79.60
   3  -1  -1 1454.74  113.48
   3  -1  -1 1672.26   86.85
  -1   0  -3 3151.78  116.90
  -1   0  -3 3041.72  145.95
   1   0   3 2994.73  119.26
   0   4  -1  352.22   61.62
   0  -4   1  382.67   52.97
   2   0  -4 3430.21  152.49
  -2   0   4 3140.79  160.86
   2   0  -4 3103.91  115.65
   2  -2  -3 6214.54  197.61
   2  -2  -3 6248.93  224.83
  -2   2   3 6179.29  234.48
  -2   2   3 6146.40  213.94
  -2   2   3 6132.53  230.32
  -2  -1   4 8163.18  318.96
   2   1  -4 8137.63  269.10
  -2  -1   4 7976.89  258.75
   1  -3  -2  845.70   77.32
   1  -3  -2  858.68   72.96
   1  -3  -2  735.48   56.92
  -1   3   2  739.06   63.64
  -1   3   2  896.35   89.32
   3  -1  -2  364.68   71.96
   3  -1  -2  402.95   68.06
  -3   1   2  352.06   61.01
  -3   1   2  518.77   59.15
  -3   2   1  200.34   53.05
   3  -2  -1  203.99   55.29
   3  -2  -1  250.01   65.63
   2  -3  -2 2118.99  114.89
  -2   3   2 1844.32  119.10
  -2   3   2 1997.89   94.22
  -2   3   2 1944.29  111.07
   2  -3  -2 2037.77   87.29
   0  -3   4  611.18   40.63
   0   3  -4  547.77   53.62
   0   3  -4  597.06   46.98
   0  -3   4  786.39   60.09
  -1  -3   0 1862.26   95.51
   1   3   0 1733.03  108.65
  -3   0   2   50.18   39.75
  -3   0   2  -28.44   40.00
   3   0  -2   47.84   47.66
   3   0  -2   30.85   33.95
   0   4  -3   28.90   20.26
   0  -4   3   26.27   40.29
   0  -4   3   37.23   22.49
   0   4  -3   84.65   42.86
   2  -4   1  805.07   74.50
   2  -4   1  665.60   41.18
  -2   4  -1  735.62   59.11
  -2   4   0  657.73   57.76
   2  -4   0  511.79   35.68
   2  -4   0  667.15   58.81
   2  -4   0  525.11   70.16
  -2   4   0  546.14   35.50
  -2   4   0  618.71   59.55
   0   0  -4   98.48   46.43
   0   0  -4   22.18   15.38
   0   0   4   80.43   39.46
   0   0   4   44.62   26.71
   0   0   4   65.00   39.15
   3  -2   032475.39 1322.90
  -3   2   036560.23 1492.05
   3  -2   033921.71 1423.35
   2   1   117113.55  662.13
  -2  -1  -117270.00  635.77
  -3   2   2 6160.09  249.87
   3  -2  -2 5807.52  236.40
   3  -2  -2 6056.37  231.97
   3  -2  -2 5904.63  230.57
   1   3  -4   69.17   34.65
   1   3  -4   19.23   36.09
  -1  -3   4   43.17   38.46
  -1  -3   4   52.00   28.92
   3   0  -1 2010.71   99.16
   3   0  -1 1861.61  126.39
  -3   0   1 1907.36  110.51
   3  -1   015186.75  574.99
  -3   1   014767.50  547.15
   1  -1  -4   36.17   25.88
  -1   1   4   71.81   31.48
  -1   1   4  -20.92   51.29
   1  -1  -4   38.90   41.76
  -1   1   4   20.89   28.11
   1  -4   3  769.15   38.12
  -1   4  -3  824.76   64.12
   1  -4   3  779.67   65.77
  -2   1   4   92.34   38.56
   2  -1  -4   57.11   41.24
   2  -1  -4   59.64   42.78
   2  -1  -4   58.38   34.74
  -2  -2   432129.34 1260.35
   2   2  -431761.91 1290.94
   2   2  -431914.97 1272.47
  -2  -2   431915.26 1318.52
   0   4   0 5576.97  257.05
   0  -4   0 4961.15  223.49
  -3   0   3  106.44   44.04
   3   0  -3   89.49   38.61
  -3   0   3  104.03   42.92
   3   0  -3   83.71   37.29
  -3   1   3 1024.96   76.25
   3  -1  -3 1134.80   90.26
  -3   1   3 1049.92   98.94
   3  -1  -3 1016.27   87.19
  -2   0  -2 5694.22  200.38
   2   0   2 5765.71  221.13
   2   2   011470.73  454.17
  -2  -2   011190.50  384.16
   1  -4  -1 1940.52  138.25
  -1   4   1 1967.05   86.06
  -1   4   1 2074.58  134.67
   1  -4  -1 1806.73   92.69
   3  -3  -1 9392.19  321.53
   3  -3  -1 9164.04  313.06
   3  -3  -1 9385.32  369.38
  -3   3   1 9366.32  337.72
   3  -3   0 4619.10  171.79
   3  -3   0 4263.88  196.25
   3  -3   0 4385.12  184.55
  -2   4  -2  217.32   54.26
   2  -4   2  228.51   48.86
   1  -2   428657.81 1021.77
   1  -2   428330.59 1017.39
   1  -2   428456.59 1124.19
   2  -4  -1  591.10   74.89
  -2   4   1  657.14   70.19
  -2   4   1  596.02   52.20
  -2   4   1  691.42   64.77
   2  -4  -1  577.06   45.17
   2  -4  -1  675.99   76.19
   0  -2  -3  138.49   51.65
   0   2   3  166.21   51.38
   0   2   3  156.71   43.02
   0  -2  -3  129.46   47.27
   1  -3   4 9291.82  281.08
   1  -3   4 9427.82  336.81
   1  -3   4 8935.25  256.33
   1  -3   4 9689.35  293.73
   1   2   2   38.41   53.72
  -1  -2  -2   47.98   41.24
   3   1  -2   63.48   61.72
   3   1  -2  130.69   56.25
  -3  -1   2  149.23   51.34
   0   3   2 5954.35  231.96
   0   3   2 5966.53  224.49
   0  -3  -2 5921.34  234.73
  -1  -4   2   53.99   36.92
   1   4  -2   49.23   35.24
   1   4  -2  103.16   63.08
   3  -2   111466.11  427.12
  -3   2  -111736.87  411.41
   2  -2   3  358.59   42.18
  -2   2  -3  363.89   39.67
  -3   0   0   91.85   34.70
   3   0   0  120.99   58.48
   1   1  -510349.59  284.44
   1   1  -510967.76  365.09
   1   1  -510273.54  280.23
  -1  -1   510696.63  410.50
   1   4  -316117.56  588.82
  -1  -4   315388.40  548.24
  -1  -4   315414.75  543.62
   1   4  -315558.10  520.70
  -1  -2   520625.48  792.31
   1   2  -521102.70  785.32
  -1  -2   519887.04  650.71
   1   2  -520339.92  673.60
  -3  -1   3 3555.78  157.43
  -3  -1   3 3845.30  158.76
   3   1  -3 3511.37  164.96
   3   1  -3 3889.72  176.01
   2  -3   3  298.66   38.97
   2  -3   3  274.64   36.91
   1  -1   4 5687.54  176.13
   1  -1   4 5425.74  250.05
  -1   1  -4 5023.19  188.21
  -1   1  -4 5587.23  156.25
   3  -2  -3  269.29   41.45
   3  -2  -3  392.73   46.61
   3  -2  -3  326.08   40.03
  -3   2   3  328.16   65.82
   2   3  -2 9863.69  354.14
   2   3  -210466.45  427.75
  -2  -3   210056.85  377.42
   0  -4   4 1255.34   84.84
   0  -4   4 1423.02   72.03
   0   4  -4 1418.94   74.69
   0   4  -4 1431.79   66.45
  -2  -3   3  881.40   85.15
  -2  -3   3  904.75   72.11
   2   3  -3  794.47   92.25
   2   3  -3  713.37   66.26
  -1  -1  -3 5921.92  202.11
   1   1   3 5724.82  224.69
   3  -3  -211273.92  384.93
  -3   3   210610.61  387.82
   3  -3  -210589.94  413.57
   3  -3  -211409.25  414.36
   3  -3   122468.89  853.71
   3  -3   120808.52  810.85
  -1  -3  -1  553.35   76.50
   1   3   1  552.69   93.59
   3  -1   1   82.22   51.44
  -3   1  -1   77.70   41.77
  -3  -1   1 2603.54  108.92
   3   1  -1 2671.09  157.91
  -2   3   3 2258.44  125.67
  -2   3   3 2366.17  128.26
   2  -3  -3 2350.92   95.53
   2  -3  -3 2170.24   97.98
  -2   3   3 2305.84  117.49
   1   4  -1 7924.24  349.32
  -1  -4   1 7424.24  266.95
   0   1   418351.36  731.16
   0  -1  -418495.76  668.08
   0   1   418066.51  633.18
   0  -1  -418338.95  674.85
   3   0  -4   51.67   41.81
   3   0  -4   40.87   32.58
  -3   0   4   55.55   35.20
  -3   0   4    6.62   54.50
   2   1  -5  831.77   50.20
  -2  -1   5  942.14   93.71
  -2  -1   5  937.33   55.00
   2   1  -5  815.70   79.03
   0  -2   5  835.47   68.78
   0  -2   5  781.86   84.64
   0   2  -5  905.32   59.50
  -1   5  -2 7109.59  287.50
   1  -5   2 6912.66  268.90
  -2   1  -3   18.01   24.83
   2  -1   3    1.56   31.89
  -1   5  -111304.40  455.53
   1  -5   110979.49  386.57
  -1   0   5  353.70   61.48
   1   0  -5  331.19   61.18
  -1   0   5  433.93   76.58
   2  -2  -4 2265.91  100.42
  -2   2   4 2355.54  103.09
   2  -2  -4 2414.01   93.21
  -2   2   4 2263.41  132.26
  -2   2   4 2449.80  116.42
   1  -3  -3 2397.31  162.42
  -1   3   3 2473.25  134.97
  -1   3   3 2454.64  122.30
   1  -3  -3 2409.95  110.90
   1  -3  -3 2144.43  116.96
  -2  -3   1  -15.52   38.96
   2   3  -1   20.57   51.44
   2   0  -5 3357.28  151.88
  -2   0   5 2947.27  165.69
   2   0  -5 3295.78  110.69
   2   0  -5 3152.16  105.89
  -2  -3   4 5327.54  195.94
  -2  -3   4 5589.75  217.59
   2   3  -4 5293.63  171.73
   2   3  -4 5461.05  223.06
   3  -1  -4 3943.67  151.25
   3  -1  -4 4227.41  173.55
  -3   1   4 3749.39  192.80
   3  -1  -4 4101.94  142.56
  -1  -3   513238.23  483.20
   1   3  -513862.46  490.47
   1   3  -513228.69  433.77
   1  -4   4 5979.71  184.99
  -1   4  -4 5733.31  183.01
   1  -4   4 5923.77  194.25
   1   4  -4 4933.04  166.94
  -1  -4   4 4902.47  191.89
   1   4  -4 4818.76  210.00
  -1  -4   4 4966.87  185.02
   0  -4  -1 9024.44  324.42
   0   4   1 9723.23  405.91
   3  -4   0  558.98   68.93
   3  -4   0  615.07   48.14
  -3   4   0  514.29   47.81
  -3   4   0  382.72   34.70
   0   3  -5   64.31   16.85
   0   3  -5   91.68   39.85
   0  -3   5   47.71   15.72
   0  -3   5  156.81   45.79
   0  -1   5 3102.41  164.17
   0  -1   5 2929.69  119.56
   0   1  -5 2976.47  121.49
   2  -4   3  157.95   36.37
   2  -4   3  198.15   34.97
   3   1  -4 1615.76   80.07
  -3  -1   4 1709.96  123.81
  -3  -1   4 1737.71   89.87
   3   1  -4 1577.19   84.38
   2   2  -5   20.73   35.84
  -2  -2   5   10.50   25.66
  -2  -2   5   49.96   47.62
   2   2  -5   48.19   38.46
   2  -4  -2 2018.10   89.05
   2  -4  -2 1999.89  132.83
   2  -4  -2 2011.45   91.07
  -2   4   2 1964.47   89.37
  -2   4   2 1985.16  104.17
  -2   4   2 2083.93  121.58
  -1   2   4  773.43   82.88
  -1   2   4  580.44   61.58
  -1   2   4  669.81   62.56
   1  -2  -4  744.98   51.77
   1  -2  -4  637.36   70.68
   1  -2  -4  898.74  101.72
   0  -5   2 3069.25  129.58
   0   5  -2 3244.92  181.40
   2  -5   1   42.30   14.11
   2  -5   1   81.79   45.60
  -2   5  -1  104.25   40.26
   2  -5   1  165.41   42.54
  -2  -1  -2  150.78   33.07
   2   1   2  195.58   59.61
   3  -4  -120870.89  733.69
  -3   4   120441.77  757.00
  -3   4   120248.29  761.64
  -3   4   121017.85  759.93
   3  -4  -118104.37  728.18
  -1   5  -3 4382.96  180.29
   1  -5   3 4196.49  171.59
   1  -5   3 4190.39  111.78
   2   2   1 7154.41  307.63
  -2  -2  -1 7011.24  269.80
   3  -4   114537.93  551.39
   3  -4   115094.01  520.80
  -3   4  -115021.68  489.42
   3  -4   114701.61  550.66
  -1   5   0  418.37   67.81
   1  -5   0  662.14   54.52
  -1   5   0  467.34   31.81
  -1   4   2 9837.31  396.01
  -1   4   2 9714.90  330.84
   1  -4  -2 9536.40  329.17
   1  -4  -2 9203.17  404.31
   1   0   4   20.70   41.85
   1   0   4   34.54   30.43
  -1   0  -4   16.90   23.11
  -1   0  -4   15.78   44.33
   0  -5   3    2.24   42.29
   0   5  -3   12.00   47.72
   0  -5   3   26.02   23.54
  -2   5   0 1437.57   92.25
   2  -5   0 1498.00   79.47
   2  -5   0 1468.93   94.91
   2  -5   0 1469.46   48.33
  -2   5   0 1530.81   54.88
   2  -5   2   44.93   40.32
   2  -5   2   43.18   26.57
  -2   5  -2   27.12   46.28
   0   5  -1  266.17   62.07
   0  -5   1  286.81   66.87
  -3  -2   3 1395.13   91.64
   3   2  -3 1283.93  109.68
   3   2  -3 1287.64   74.11
   3   0   1   29.68   48.77
  -3   0  -1   28.24   38.76
   3  -3  -3  228.87   59.05
   3  -3  -3  276.68   48.14
  -3   3   3  332.13   48.28
  -3   3   3  324.88   60.57
  -3   3   3  288.16   59.42
  -3  -1   0  147.47   49.14
   3   1   0  139.60   45.71
   3  -2   2 2658.15  128.73
  -3   2  -2 2508.09  109.65
   3  -3   2 1101.84   83.77
   3  -3   2 1155.67   58.74
  -3  -2   2  811.56   60.05
   3   2  -2  943.28  104.09
   3   2  -2  934.19   85.79
  -1  -4   0 1212.14  108.07
   1   4   0 1441.48   98.06
   2  -1  -515015.90  560.99
  -2   1   515257.88  594.55
  -2   1   514820.02  567.31
   2  -1  -515204.46  521.83
   2  -1  -515678.17  543.40
   3  -2  -4  654.77   62.78
   3  -2  -4  643.27   50.81
   3  -2  -4  676.18   69.75
  -3   2   4  669.04   81.44
  -2   0  -3 6179.31  208.51
   2   0   3 6197.51  228.41
   0  -4   5 1143.47   73.57
   0   4  -5 1195.09   54.99
   0  -4   5 1242.74   53.99
   0   4  -5 1139.94   83.95
   0   0   5 1303.71   56.30
   0   0  -5 1208.92   76.59
   0   0   5 1299.03   85.73
   0   0   5 1376.91  116.00
   3   2  -4 5287.66  208.26
  -3  -2   4 4748.26  219.88
  -3  -2   4 4692.20  184.15
   3   2  -4 4796.99  205.87
  -1   1   5 1447.43   93.21
  -1   1   5 1281.87   73.55
   1  -1  -5 1466.02   92.96
  -1   1   5 1179.89  114.20
   1  -1  -5 1259.80   61.73
  -3   4   2 3858.69  147.98
  -3   4   2 3639.31  135.91
   3  -4  -2 4130.61  156.39
   3  -4  -2 4007.86  177.02
  -3   4   2 4017.57  156.46
   2   3   0 2628.43  169.20
  -2  -3   0 2619.25  135.71
   2   3  -5 1872.49  113.51
  -2  -3   5 1818.24   82.72
  -2  -3   5 1866.62  113.99
   2   3  -5 1903.61   97.11
   0   5  -4 2421.53   80.23
   0  -5   4 2174.70  112.18
   0   5  -4 2309.70  122.93
   1   4  -5 5266.17  199.43
  -1  -4   5 5178.93  191.45
   1   4  -5 5409.27  186.50
  -1  -4   5 5018.19  188.93
   3  -1   215958.07  598.75
  -3   1  -216066.00  576.43
  -3   0   5 3314.92  145.02
   3   0  -5 3449.72  153.07
  -3   0   5 3205.11  121.45
   3   0  -5 3444.71  139.59
   3  -4   2 3518.89  156.38
  -3   4  -2 3508.37   91.75
   3  -4   2 3464.95  143.07
   2  -5  -1  486.75   37.52
   2  -5  -1  548.97   66.69
   2  -5  -1  526.03   77.73
  -2   5   1  522.37   43.21
  -2   5   1  552.63   62.30
   4  -1  -2 6862.39  277.82
  -4   1   2 7230.28  270.29
   4  -1  -2 6732.85  288.67
   2  -3   4 1415.16   58.23
   2  -3   4 1368.67   72.05
  -4   2   2  548.26   66.66
   4  -2  -2  568.14   61.08
   4  -2  -2  448.39   64.86
  -3  -2   1 1863.40  114.11
   3   2  -1 1748.57  138.14
   1  -3   5 1006.16   43.78
   1  -3   5  974.73   49.96
   1  -3   5  809.73   87.25
  -4   2   1   36.35   31.35
   4  -2  -1   79.69   45.42
   4  -2  -1   32.61   40.02
   3   1  -5  697.51   62.80
   3   1  -5  634.88   72.70
  -3  -1   5  629.05   54.58
  -3  -1   5  602.43   65.84
   0  -3  -3 5012.09  258.56
   0   3   3 5162.03  226.14
   0   3   3 5088.02  227.18
   0  -3  -3 5095.05  206.41
   1  -2   5 2918.81  130.64
   1  -2   5 3044.45   87.46
   1  -2   5 2853.41   81.37
   2  -5   3 3269.45  117.62
   2  -5   3 3251.37  132.87
  -2   5  -3 3222.18  139.91
   1  -5   4 2164.09   72.45
  -1   5  -4 2294.50  101.71
   1  -5   4 2127.37  111.44
   1   2   3  480.47   71.55
  -1  -2  -3  379.29   54.70
  -2   2  -4  257.94   38.65
  -2   2  -4  206.22   41.63
   2  -2   4  290.52   42.45
   2   4  -3  465.48   52.85
   2   4  -3  430.29   86.19
  -2  -4   3  522.87   65.47
   0  -5   0 1770.32  125.49
   0   5   0 1917.40  115.51
  -1  -3  -2  847.51   77.36
   1   3   2  703.81   73.56
  -1   5   1  468.57   84.56
   1  -5  -1  489.11   71.20
   1  -5  -1  413.75   89.51
  -1   5   1  390.19   45.58
   4  -1  -1 6815.70  247.46
  -4   1   1 6473.29  226.54
   4  -1  -1 6463.27  262.08
   0   2   418316.29  690.63
   0  -2  -418949.96  780.66
   0   2   418605.33  746.24
   0  -2  -418600.10  690.70
  -4   1   3 1769.14  101.08
   4  -1  -3 1720.30   96.11
  -4   1   3 1773.98  104.67
   4  -1  -3 1603.43  110.96
   1   2  -6  629.72   65.15
  -1  -2   6  489.73   78.82
   1   5  -310802.49  458.90
   1   5  -311462.55  378.02
  -1  -5   310964.71  426.98
  -2   3   4 5262.49  205.27
  -2   3   4 5520.52  224.85
  -2   3   4 5468.62  218.15
   2  -3  -4 5374.32  199.20
   2  -3  -4 5285.05  197.03
   2   4  -2 5660.64  213.71
   2   4  -2 6172.92  279.55
  -2  -4   2 6505.76  259.78
  -3   5   0 3430.01  133.76
   3  -5   0 3387.30  115.42
   3  -5   0 3500.91  161.01
  -3   5   0 3514.08  175.04
  -3   1   5 1255.38   80.18
   3  -1  -5 1210.93   85.38
   3  -1  -5 1205.45   71.39
   3  -1  -5 1211.20   98.04
   4  -3  -1   32.53   28.20
   4  -3  -1  -37.31   33.24
   4  -3  -1   14.30   35.74
   2  -4   4   25.38   24.93
   2  -4   4  -20.43   38.45
   2  -4   4   33.96   30.40
  -2  -4   4   44.27   37.78
   2   4  -4  -14.70   31.84
  -2  -4   4   44.04   39.98
   2   4  -4   45.80   47.37
   1   5  -2 2165.81  126.70
  -1  -5   2 2156.24  134.76
   1   5  -2 2345.17   85.22
  -3   5  -1 8245.24  336.40
   3  -5   1 8917.72  272.69
   3  -5   1 8508.27  294.97
  -3   5  -1 8561.73  284.99
  -1  -1   6 3220.88  136.31
  -1  -1   6 3244.95  168.73
   1   1  -6 2937.86   68.38
   1   1  -6 3495.09  126.58
   2  -4  -3   88.64   45.29
  -2   4   3  -43.63   27.63
  -2   4   3   31.69   29.10
  -2   4   3   -3.60   42.21
   2  -4  -3  -10.48   32.32
   2  -4  -3   -9.96   23.89
   0  -4  -2 1586.89  106.16
   0   4   2 1543.29   96.80
   0   4   2 1438.18   95.37
  -4   2   3 7144.29  299.81
   4  -2  -3 7078.47  274.54
   4  -2  -3 6753.05  233.81
   4  -2  -3 6939.72  281.20
   4   0  -219943.47  814.42
   4   0  -220108.49  801.51
  -4   0   220438.81  758.39
   1  -4   5 9659.39  293.19
   1  -4   5 9571.99  276.78
   1  -4   5 9456.18  338.75
   2   1  -611027.58  383.20
   2   1  -611475.55  355.80
  -2  -1   610707.28  433.44
   2   1  -610658.61  336.44
   4   0  -3  649.56   57.78
   4   0  -3  475.89   61.75
  -4   0   3  675.18   71.51
  -4   0   3  531.38   50.71
   4  -2   0  694.02   55.67
  -4   2   0  541.13   51.19
   4  -2   0  585.93   60.54
  -4   3   2  224.63   62.40
   4  -3  -2  203.28   67.17
   4  -3  -2  185.19   37.23
   4  -3  -2  228.21   42.05
  -1  -1  -4   88.81   37.72
   1   1   4   68.99   39.71
  -1  -1  -4    8.46   41.34
   1   1   4   36.24   64.22
   1  -1   5 8431.94  270.84
  -1   1  -5 9063.65  312.86
   1  -1   5 8644.68  369.87
  -1  -3   6 6645.91  186.78
  -1  -3   6 6419.82  260.27
   1   3  -6 6865.41  199.01
   1   3  -6 6754.20  248.74
  -2  -2   6 1726.24  115.33
   2   2  -6 1776.24  102.67
   2   2  -6 1781.65   78.21
  -2  -2   6 1770.89   73.50
  -3  -2   5  125.74   54.55
  -3  -2   5   65.79   35.81
   3   2  -5   66.37   31.15
   3   2  -5   35.81   42.53
   4  -3   0  128.45   59.06
   4  -3   0  117.64   47.82
   1   5  -416785.27  586.02
  -1  -5   416552.78  645.04
  -1  -5   417595.20  633.96
   1   5  -417557.10  707.80
  -3  -1  -1 1902.79  105.27
   3   1   1 1876.50  101.12
  -2   1  -4 1660.52   69.63
  -2   1  -4 1406.63  106.06
   2  -1   4 1605.21   81.08
  -3   5   117548.13  646.30
  -3   5   117390.38  700.49
   3  -5  -117043.00  634.50
   3  -5  -117216.73  590.75
  -3   5   117464.06  600.79
  -2   2   515695.44  577.58
  -2   2   515126.92  558.77
   2  -2  -515841.33  555.61
   2  -2  -515758.73  591.40
  -2   2   515280.48  586.23
   1  -6   2 5446.35  227.45
  -1   6  -2 5408.78  215.61
   1  -3  -4  684.41   67.17
  -1   3   4  755.91   77.28
  -1   3   4  741.36   80.39
   1  -3  -4  726.10  109.91
  -3   3   4  677.04   74.89
  -3   3   4  696.05   73.31
   3  -3  -4  494.57   64.08
  -3   3   4  487.97   71.52
   3  -3  -4  512.52   61.44
   1   4   1 1895.13  143.24
  -1  -4  -1 1676.11  114.31
  -2  -2  -2 3572.53  153.92
   2   2   2 3510.36  185.81
  -3   3  -311993.19  408.41
   3  -3   311529.22  405.70
   0   2  -6  -22.38   36.70
   0  -2   6   28.39   25.94
   0  -2   6  -10.22   31.33
  -3  -3   3  577.02   67.19
   3   3  -3  613.15   48.72
   3   3  -3  433.03   64.04
  -4   0   1 2514.99  129.88
   4   0  -1 2522.05  156.00
   4   0  -1 2536.92  146.93
  -2   0   6 9683.63  395.70
   2   0  -6 9658.32  315.97
   2   0  -610177.63  379.98
   2   0  -610390.85  319.83
   4  -1   0  410.03   76.38
  -4   1   0  437.29   46.33
   1  -4  -313179.73  473.65
   1  -4  -312940.00  495.32
  -1   4   312944.48  475.71
  -1   4   313484.67  536.10
  -3   4   3 4999.83  188.13
   3  -4  -3 5186.78  185.87
   3  -4  -3 5197.89  214.82
  -3   4   3 5277.95  211.31
  -3   4   3 5117.10  193.22
   0  -3   6  660.70   57.73
   0   3  -6  521.55   64.18
   4  -1  -417345.73  669.71
  -4   1   417375.06  658.25
  -4   1   416939.58  604.46
   4  -1  -417544.83  675.01
   3   0   212153.77  463.83
  -3   0  -211834.33  430.86
   3  -5   210079.82  344.20
   3  -5   210072.84  369.27
   0  -5   5 1908.90   89.84
   0   5  -5 1994.37   94.84
   0  -5   5 2100.53   84.11
   0   5  -5 1992.18   78.48
   0   1   5 1609.04   85.89
   0  -1  -5 1654.48   97.73
   0  -1  -5 1671.12   81.57
   0   1   5 1611.36  130.60
   2   4  -1 1919.75  148.56
  -2  -4   1 1649.23  114.85
   1   5  -112123.12  522.72
  -1  -5   111467.28  457.39
   1  -6   1 9305.71  373.21
  -1   6  -1 9543.40  360.44
   4   0  -415985.38  581.06
  -4   0   415380.35  576.76
  -4   0   415005.29  566.92
   4   0  -415697.98  605.14
   3   2   0   -5.94   57.00
  -3  -2   0   51.59   31.10
   1  -6   3 5780.48  230.69
  -1   6  -3 6009.82  251.98
   3  -2   315766.35  572.35
  -3   2  -315769.74  559.32
  -2  -1  -310617.84  372.02
   2   1   310679.49  435.29
  -2   6  -1 9283.33  386.30
   2  -6   1 9252.18  337.37
   2  -6   1 9175.42  354.22
  -3  -3   4 5894.36  255.50
   3   3  -4 5653.52  246.81
   3   3  -4 5840.09  223.23
  -3  -3   4 5590.11  219.16
  -1   0   6 8402.37  358.05
  -1   0   6 8301.54  309.16
   1   0  -6 8601.97  296.04
   2  -5  -2  728.98   47.81
  -2   5   2  734.39   70.61
   2  -5  -2  792.41   72.16
  -2   5   2  835.42   53.94
   2  -5  -2  849.48   78.19
   2  -6   2   71.67   32.13
  -2   6  -2   10.13   53.25
   2  -6   2   75.51   31.64
  -2  -4   5  419.31   64.26
   2   4  -5  469.60   52.14
  -2  -4   5  484.12   52.80
   2   4  -5  421.84   65.26
   3  -4   3 3438.08  144.73
   3  -4   3 3388.67  144.32
  -3  -3   2 4742.84  171.92
   3   3  -2 4355.95  189.52
   3   3  -2 4678.86  192.62
   4  -4  -1   26.95   33.15
   4  -4  -1   61.51   55.00
   4  -4  -1   60.36   33.25
  -4   3   3 5182.38  229.92
   4  -3  -3 4784.76  194.72
   4  -3  -3 5168.69  223.92
   4  -3  -3 5347.19  187.16
   2   3   1 2657.51  132.46
  -2  -3  -1 2448.81  128.53
  -2  -3   6 1121.94   65.11
   2   3  -6 1132.66   75.54
  -2  -3   6  978.61   91.00
   2   3  -6 1098.41   62.58
  -1   2   5  214.11   42.51
   1  -2  -5  187.92   38.39
   1  -2  -5   78.87   54.69
   1  -2  -5  220.84   51.44
  -1   2   5  236.57   64.67
  -1   2   5  219.47   56.01
   3  -2  -5   20.98   39.77
   3  -2  -5  -33.00   32.36
  -3   2   5   11.68   38.85
   3  -2  -5   30.95   28.74
  -3   2   5  -26.67   41.50
   2  -5   4 4710.38  165.02
   2  -5   4 5277.28  169.97
  -2   5  -4 4918.17  179.02
   4  -4   0  786.06   65.84
   4  -4   0  773.43   75.54
   4  -4   0  765.51   90.70
  -4  -1   310235.69  358.33
   4   1  -310364.98  400.61
   4   1  -310407.46  376.32
   0  -1   6  615.56   56.98
   0  -1   6  493.01   66.33
  -4   2   4 8202.28  341.91
   4  -2  -4 8924.03  334.16
   4  -2  -4 8955.91  298.65
   4  -2  -4 8786.24  340.61
   0   5   1 1301.76   97.72
   0  -5  -1 1111.55  101.10
   0   5   1 1390.53   75.63
   0   6  -3 3073.72   77.60
   0   6  -3 3006.23  143.73
   0  -6   3 2961.96  150.47
  -4   3  -1 1116.13   77.38
   4  -3   1  885.91   91.00
  -1  -4   610063.91  319.81
  -1  -4   6 9437.92  350.33
   1   4  -610039.47  352.98
   1   4  -6 9880.86  339.17
   0  -6   2 2451.80  116.16
   0   6  -2 2704.79   70.53
   0   6  -2 2688.09  170.17
   4   1  -213196.88  511.68
  -4  -1   212817.39  501.28
   4   1  -213563.11  498.90
   1  -5   511859.40  418.57
  -1   5  -511618.07  381.63
   1  -5   511553.78  375.58
   1   5  -5 3545.23  163.45
  -1  -5   5 3628.47  152.05
   1   5  -5 3728.32  127.50
  -1  -5   5 3365.21  138.48
   4  -2   1  -50.76   43.69
  -4   2  -1   15.44   33.67
   0  -4   6 1517.60   51.95
   0   4  -6 1401.93   84.07
   0   4  -6 1509.28   55.26
   0  -4   6 1383.34   75.04
  -2   6   0 1954.96   58.07
   2  -6   0 2395.61  129.97
  -2   6   0 2479.74  117.33
   2  -6   0 2235.17  100.53
   4  -4  -2  940.24   62.98
   4  -4  -2  794.70   60.23
   4  -4  -2  882.16   93.91
  -4   4   2  933.70   81.61
   3   1  -6 3012.90  149.12
  -3  -1   6 3127.23  171.03
   3   1  -6 3141.68  122.10
  -3  -1   6 3115.91  108.50
   4   1  -4 1878.88  113.37
  -4  -1   4 1737.99  100.84
  -4  -1   4 1732.10  139.95
   4   1  -4 1726.31  117.89
  -3   5   2  237.83   68.99
  -3   5   2  228.41   48.58
  -3   5   2  234.98   41.05
   3  -5  -2  205.56   43.20
   3  -5  -2  205.14   33.23
   1  -5  -212284.81  536.34
  -1   5   213007.52  534.40
  -1   5   212790.88  441.89
   1  -5  -212434.45  487.32
   1   0   5 2946.62  146.35
  -1   0  -5 2889.94  103.93
   1   0   5 2797.26  124.39
  -1   0  -5 2914.06  143.81
   2  -6   3 4903.00  133.42
  -2   6  -3 4922.43  207.30
   2  -6   3 4929.53  150.00
   2  -6   3 4767.05  188.92
   3   0  -6   17.00   31.08
  -3   0   6   52.21   52.55
   3   0  -6    9.06   33.27
   3   0  -6   37.13   40.85
  -1   6   0 1564.38  137.90
  -1   6   0 1665.54   56.57
   1  -6   0 1729.56   90.75
  -3  -3   5    5.68   33.34
  -3  -3   5  -38.29   30.60
   3   3  -5   37.52   25.31
   3   3  -5   14.89   40.64
   1  -6   4   96.07   40.49
  -1   6  -4   84.87   46.19
   1  -6   4   72.95   19.95
   3  -1   313399.54  486.88
  -3   1  -312685.89  443.75
  -4   0   0 5881.86  237.71
   4   0   0 6087.28  266.69
   2  -1  -6 5572.69  174.75
   2  -1  -6 5529.50  188.30
  -2   1   6 5130.75  191.56
   2  -1  -6 5487.42  192.05
  -2   1   6 5321.67  244.13
   0   6  -4  945.29   90.56
   0  -6   4  881.37   79.14
   0  -6   4  889.86   49.13
   4  -4   1  310.86   38.12
   4  -4   1  412.26   43.60
   4  -4   1  292.02   68.91
   2   0   4 3597.86  157.61
  -2   0  -4 3885.20  132.33
  -3  -3   1 4358.78  192.02
   3   3  -1 4450.43  192.40
   0   6  -1   46.48   43.78
   0  -6   1  -21.25   45.43
  -3  -2   6 4484.09  173.99
   3   2  -6 4529.19  160.50
   3   2  -6 4665.94  171.72
  -3  -2   6 4319.85  209.78
   3  -5   3  189.63   46.89
   3  -5   3  119.64   41.80
  -4   0   5 8740.44  367.16
  -4   0   5 8670.54  311.75
   4   0  -5 8472.68  322.56
   4   0  -5 8856.16  338.50
  -1  -5   0   70.81   50.41
   1   5   0   18.31   48.76
   2  -3   5 2191.04  139.13
   2  -3   5 2113.48   82.67
   2  -3   5 2134.67   71.66
   4  -1   1   29.80   32.78
  -4   1  -1    1.38   26.55
   4   1  -1  357.08   81.98
   4   1  -1  329.49   51.12
  -4  -1   1  371.06   46.15
   4  -1  -5 1695.35  107.13
  -4   1   5 1896.67  102.95
   4  -1  -5 1786.62   77.17
   4  -1  -5 1820.51  109.95
  -2  -4   0 2508.12  141.45
   2   4   0 2768.89  145.28
   3  -6   1   96.78   21.70
  -3   6  -1  119.58   58.89
   3  -6   1  122.82   50.79
  -1  -3  -3  724.56   67.50
   1   3   3  574.03   89.48
   2  -4   5 8821.95  274.97
   2  -4   5 9012.78  354.47
   2  -4   5 8641.44  283.52
   3  -6   013498.03  520.73
   3  -6   013020.37  402.02
  -3   6   012832.07  520.81
   1  -3   6 7302.53  299.25
   1  -3   6 7318.14  182.81
   1  -3   6 7361.71  190.57
   1  -1  -6 3111.83  104.91
  -1   1   6 3268.12  149.06
  -1   1   6 2885.00  105.96
   1  -1  -6 3462.01  154.14
  -1   1   6 3366.71  152.41
   3  -1  -6    0.17   24.07
   3  -1  -6   31.31   28.59
   3  -1  -6  -47.43   35.97
  -3   1   6  -25.29   43.96
   0  -3  -4 3239.93  145.07
   0  -3  -4 3359.81  200.65
   0   3   4 3351.38  163.14
   0   3   4 3446.12  174.50
   0   0   6  166.53   30.46
   0   0   6  219.32   72.80
  -4   3   4 1533.31  111.91
   4  -3  -4 1544.77  115.40
   4  -3  -4 1600.19   96.94
   4  -3  -4 1504.71   91.71
  -2   4   4 3880.56  180.90
   2  -4  -4 3871.42  172.84
  -2   4   4 3764.87  154.81
   2  -4  -4 3754.42  147.39
   2  -4  -4 3836.53  163.01
  -2   4   4 3630.06  163.02
   2   4  -6   -0.66   34.57
   2   4  -6   62.32   32.77
  -2  -4   6   29.24   41.10
  -2  -4   6  -10.72   32.41
   2   5  -3  566.93   48.00
   2   5  -3  340.20   95.41
  -2  -5   3  556.47   54.25
  -2   6   1  146.10   51.66
   2  -6  -1  154.71   53.22
   2  -6  -1  210.94   60.83
  -2   6   1  103.24   28.20
  -2   2  -5  140.93   30.95
  -2   2  -5  168.43   36.19
   2  -2   5  110.34   69.32
   2  -2   5  189.59   38.11
  -4  -1   514833.67  516.88
   4   1  -514584.95  565.89
  -4  -1   514853.23  617.54
   4   1  -514919.16  573.89
   4  -5   0 9352.69  310.09
   4  -5   0 8905.35  327.16
  -4   5   0 9076.85  303.72
   4  -5   0 9182.21  328.21
   0  -4  -311750.81  454.27
   0  -4  -311910.25  529.03
   0   4   311909.84  483.28
   0   4   311915.19  456.56
   4  -4  -3  132.11   43.04
  -4   4   3  142.93   48.45
   4  -4  -3  138.93   50.23
  -4   4   3   77.84   51.04
   4  -4  -3  100.12   39.02
   1   2   4  502.33   68.60
  -1  -2  -4  483.07   52.82
  -1  -2  -4  439.26   69.42
   1   2   4  484.21   69.08
   2   5  -4  426.14   47.25
   2   5  -4  331.80   83.07
  -2  -5   4  475.40   65.37
  -3  -1  -2 4822.64  166.01
   3   1   2 4964.58  222.08
  -2   3   5 6144.64  230.90
  -2   3   5 6238.56  262.25
   2  -3  -5 5982.77  221.03
   2  -3  -5 5933.95  229.38
  -2   3   5 6091.72  253.59
   3  -6   2 4922.87  207.78
   3  -6   2 5322.50  159.40
  -3   6  -2 4782.80  221.79
   1  -2   611136.56  447.09
   1  -2   611422.22  324.81
   1  -2   610014.23  287.04
   3   2   1 1547.48  129.50
  -3  -2  -1 1623.34   99.90
  -4   5   1  904.12   67.39
   4  -5  -1  898.12   97.12
   4  -5  -1  827.47   64.10
   4  -5  -1  779.85   54.26
  -3   4   4 2300.15  103.25
   3  -4  -4 2138.52   98.02
  -3   4   4 2012.38  116.15
  -3   4   4 2200.09  128.80
   3  -4  -4 2178.61  117.76
   1  -4   6 3039.93  144.78
   1  -4   6 3006.84   86.45
   1  -4   6 2985.15   92.36
   1  -4   6 2760.85   91.17
   0   5  -6  850.43   57.62
   0   5  -6  852.79   72.22
   0  -5   6  741.33   64.44
   0  -5   6  834.71   56.50
   4   2  -314453.04  553.52
  -4  -2   313340.08  493.63
   4   2  -313911.44  562.86
  -1  -2   7 7575.78  253.68
   1   2  -7 8827.95  329.02
  -1  -2   7 8943.07  359.05
  -1  -4  -2  245.31   43.78
   1   4   2  257.59   57.37
   4  -3   2 1341.05   98.32
  -4   3  -2 1315.14   83.91
   2  -6   4 5351.04  131.92
  -2   6  -4 5983.86  220.16
   2  -6   4 5684.47  180.02
   2  -6   4 5536.79  203.22
  -3   3   5  187.81   39.92
   3  -3  -5  127.92   44.06
  -3   3   5  111.92   57.57
  -3   3   5  135.25   50.78
   3  -3  -5  152.52   32.90
   4   2  -4  109.42   53.48
  -4  -2   4  148.68   51.04
   4   2  -4  155.62   45.43
   2   2  -7 2193.71   75.39
  -2  -2   7 2036.50  138.13
   2   2  -7 2168.75   94.04
   0   6  -5 4590.93  184.23
   0  -6   5 4122.09  138.69
   0   6  -5 4242.71  146.05
   0  -6   5 4294.73  171.68
  -2   5   3   50.22   55.98
   2  -5  -3   54.65   28.92
  -2   5   3   57.31   35.30
   2  -5  -3    3.52   44.74
   2  -5  -3   85.01   64.76
   0   2   5   39.40   47.57
   0  -2  -5   57.09   34.77
   0  -2  -5   64.53   63.05
   0   2   5   19.39   58.30
  -3   3  -4 1247.46   66.80
  -3   3  -4 1171.43   59.96
   3  -3   4 1106.81   71.39
   1   6  -3 1190.51  130.08
  -1  -6   3 1257.86   80.51
   1   6  -3 1343.73   59.17
  -1  -3   7 2051.00  125.03
   1   3  -7 1963.64   90.11
   4  -5   1   32.33   30.85
   4  -5   1   12.47   48.80
  -4   5  -1   36.38   26.49
   4  -5   1   20.45   39.70
  -4   2   5  186.12   50.72
   4  -2  -5  215.91   57.40
   4  -2  -5  171.22   51.92
   4  -2  -5  207.79   46.84
   2   5  -2 1194.63  125.98
  -2  -5   2  857.60   90.39
   2   5  -2 1029.38   72.76
   1   5  -6 6051.30  227.23
  -1  -5   6 6522.18  232.17
  -1  -5   6 6323.12  231.81
   1   5  -6 6455.23  223.63
  -2  -1   7 3298.45  147.05
   2   1  -7 3142.76  154.04
   2   1  -7 3119.26   95.12
   3  -4   4 3848.94  156.66
   3  -4   4 3457.62  128.60
   4  -4   2 3300.20  138.59
   4  -4   2 2999.56  154.17
  -3   6   1 5435.69  257.93
   3  -6  -1 5589.10  169.57
   3  -6  -1 5486.17  231.95
  -3   6   1 5391.04  180.03
  -1   6   1 4153.23  146.45
  -1   6   1 3891.63  184.61
   1  -6  -1 4032.65  193.17
   1  -6  -1 4442.50  233.15
  -3  -3   6 6061.23  218.32
   3   3  -6 6481.11  242.14
   3   3  -6 6667.60  257.02
  -3  -3   6 6699.15  275.01
  -3  -4   4 5885.49  213.03
   3   4  -4 5800.91  274.88
   3   4  -4 5862.65  219.96
   1   6  -415951.52  546.53
  -1  -6   414980.79  597.35
   1   6  -416049.70  662.15
   3   4  -3  732.54   67.50
  -3  -4   3  570.30   73.78
   3   4  -3  533.73   98.09
  -4   2  -2  941.02   72.72
   4  -2   2  937.93   87.80
   0  -6   0   11.16   44.17
   0   6   0  -37.46   57.31
   1  -6   5 3322.28  109.68
  -1   6  -5 3432.30  138.70
   1  -6   5 3418.40  134.56
   2  -5   5 9888.87  360.95
   2  -5   510196.76  337.92
   2  -5   5 9636.01  315.87
  -4  -2   2 3200.38  156.37
   4   2  -2 3345.65  160.46
   4   2  -2 3362.89  155.20
  -3   5   3 6889.96  248.16
  -3   5   3 6575.76  287.82
   3  -5  -3 7231.85  282.08
   3  -5  -3 6712.84  225.18
  -3   5   3 7049.45  250.88
   3   0   3 2142.77  120.76
  -3   0  -3 2103.32  101.84
  -2  -5   5  429.00   53.88
   2   5  -5  210.63   69.80
  -2  -5   5  315.45   57.23
   2   5  -5  318.21   45.50
  -1  -1   715672.87  580.89
   1   1  -714915.66  557.13
  -1  -1   714760.74  612.18
   2   2   314027.03  564.82
  -2  -2  -313585.08  512.47
   1   6  -210575.18  463.52
   1   6  -210124.47  332.33
  -1  -6   2 9965.15  403.79
  -2  -3  -2 8122.60  315.96
   2   3   2 8493.62  369.71
   1  -4  -4  406.97   55.91
  -1   4   4  330.18   65.98
   1  -4  -4  311.71   92.70
  -1   4   4  267.05   69.53
  -4   5   2   23.67   36.54
  -4   5   2   12.60   22.90
  -4   5   2   61.48   36.67
   4  -5  -2   29.05   35.17
   4  -5  -2    9.82   43.01
   0  -5  -2 1667.79  115.51
   0   5   2 1779.85  100.99
   0   5   2 1714.70  138.19
   2   3  -7  -40.13   19.36
  -2  -3   7   18.07   42.61
   2   3  -7    2.00   33.67
  -2  -3   7   28.08   19.15
   3   3   0  542.71   73.85
  -3  -3   0  531.16   53.34
   3  -2   4  666.33   62.09
  -3   2  -4  575.09   49.85
   4   0   1  778.58   97.75
  -4   0  -1  888.87   58.41
  -1  -1  -5 3417.09  181.19
   1   1   5 3215.94  142.75
  -1  -1  -5 3275.57  131.32
   1   1   5 3484.59  204.77
  -4  -1   0 6803.57  270.33
   4   1   0 6693.57  300.24
  -2   2   6  245.73   53.69
  -2   2   6  219.85   62.72
  -2   2   6  349.91   55.60
   2  -2  -6  223.94   39.95
   2  -2  -6  292.01   39.07
   2  -1   5 1030.33   78.91
  -2   1  -5 1169.10   55.14
  -2   1  -5 1176.43   84.54
  -1   3   5  275.08   54.74
   1  -3  -5  332.06   85.90
   1  -3  -5  183.44   46.86
  -1   3   5  210.05   66.23
  -1   1  -610069.01  362.27
   1  -1   6 9302.45  294.07
   1  -1   6 9185.81  362.82
  -4  -2   5 5207.93  182.69
  -4  -2   5 5557.58  257.97
   4   2  -5 5287.88  228.46
   4   2  -5 5233.57  189.73
  -3   6  -3  329.65   74.16
   3  -6   3  838.80   66.69
  -1   5  -6   91.86   29.99
   1  -5   6  103.88   41.58
   1  -5   6   92.53   31.37
   5  -2  -2 1181.76   96.12
   5  -2  -2 1140.32   84.12
  -5   2   2 1196.38   90.07
   3   4  -5 3403.51  186.95
   3   4  -5 3579.20  154.49
  -3  -4   5 3704.99  152.94
  -3  -4   5 3918.95  161.82
   1  -7   2    5.23   45.06
  -1   7  -2   76.79   60.74
   0   3  -7  142.82   49.54
   0  -3   7  136.84   60.71
   0  -3   7   84.94   34.94
  -2   0   7  -38.40   40.17
  -2   0   7   35.05   38.16
   2   0  -7  -12.26   22.35
   2   0  -7   52.71   28.63
   2   0  -7   13.93   14.84
   3   4  -2 7664.69  344.16
   3   4  -2 7098.62  276.39
  -3  -4   2 6777.74  285.35
  -1  -4   7  146.28   21.51
  -1  -4   7  166.14   53.98
   1   4  -7  142.61   32.03
   1   4  -7   85.05   27.82
   3  -2  -6  593.12   59.69
   3  -2  -6  575.19   54.25
  -3   2   6  424.52   83.12
   3  -2  -6  559.41   65.63
  -3   2   6  585.16   77.58
   1  -7   3 3752.73  177.04
  -1   7  -3 3962.84  205.27
   2  -7   2 1880.70  112.55
  -2   7  -2 1804.88  106.93
   2  -7   2 1932.53  102.67
   4   0  -6 1260.65   98.52
   4   0  -6 1239.78   90.72
  -4   0   6 1326.72   77.92
  -4   0   6 1438.10  117.61
   3  -5   4 1927.02   95.00
   3  -5   4 2016.00   88.98
   2   1   4 3236.32  148.15
  -2  -1  -4 3032.97  140.02
   5  -2  -3 6787.20  249.45
   5  -2  -3 6864.68  264.24
  -5   2   3 7320.57  276.50
   1  -5  -3 3534.22  220.34
  -1   5   3 3382.60  149.56
  -1   5   3 3476.55  193.65
   1  -5  -3 3505.55  168.32
  -1  -6   5  870.45   76.56
   1   6  -5  987.00   95.42
   1   6  -5  921.75   53.64
  -1  -6   5  960.89   65.11
   0  -2   7  752.28   61.83
   0  -2   7  856.85   96.77
   5  -1  -3 5227.28  251.60
   5  -1  -3 5295.16  231.00
  -5   1   3 5042.62  184.15
  -3  -1   7  821.88   95.15
   3   1  -7  589.86   74.33
   3   1  -7  707.48   59.88
   3   1  -7  671.18   44.44
   5  -3  -2 6864.95  281.23
   5  -3  -2 7413.14  290.78
   5  -3  -2 7192.86  272.71
  -4   5  -2 3552.28   98.65
   4  -5   2 3598.73  172.85
   4  -5   2 3286.77  151.13
   2  -7   1 4359.34  170.03
   2  -7   1 3956.27  185.91
  -2   7  -1 4270.67  222.57
   1   5   1 3196.35  164.33
  -1  -5  -1 3099.31  137.34
  -5   1   2  -14.92   40.95
   5  -1  -2   14.53   43.54
   5  -1  -2   38.93   51.65
  -2  -5   1  174.46   62.40
   2   5  -1  202.37   85.22
  -4  -1   6   70.19   35.68
  -4  -1   6   34.45   58.52
   4   1  -6   15.96   33.97
   4   1  -6   63.16   43.13
   5  -2  -1 4810.76  181.26
   5  -2  -1 4708.77  231.55
  -5   2   1 4450.84  199.07
   5  -3  -1 2556.45  156.70
   5  -3  -1 2649.91  135.75
  -5   3   1 2533.57  110.17
   4  -1   2  998.10   93.49
  -4   1  -2 1036.25   58.39
  -2   6   2  465.84   97.81
   2  -6  -2  533.81   75.34
   2  -6  -2  563.49   95.09
  -2   6   2  655.90   56.02
   0  -4   7  561.23   79.02
   0   4  -7  759.82   67.74
   4  -4  -4  120.37   53.43
  -4   4   4  219.46   43.27
  -4   4   4  147.69   54.67
   4  -4  -4  158.58   42.90
   4  -4  -4  171.42   63.14
  -2  -4  -1   56.72   50.98
   2   4   1  125.49   69.81
   0  -1  -6 1419.37  119.15
   0  -1  -6 1212.61   68.25
   0   1   6 1297.78  123.38
   0   1   6 1173.95   77.03
  -4  -2   1 4104.70  184.52
   4   2  -1 4280.19  188.33
  -2   7  -3 1116.07  104.43
   2  -7   3 1188.59   87.41
   2  -7   3 1179.33   65.30
  -3  -2   7  336.01   37.24
   3   2  -7  226.86   58.11
  -3  -2   7  214.66   74.36
   3   2  -7  302.04   51.34
   4  -1  -6 7233.92  288.00
   4  -1  -6 7703.33  287.81
  -4   1   6 7530.21  336.89
   4  -1  -6 7495.42  266.21
  -1   7  -1 5197.32  227.03
   1  -7   1 5203.28  235.70
   1   6  -1 4595.60  215.11
  -1  -6   1 4308.20  209.70
  -1   0   7 5203.12  212.06
  -1   0   7 5047.70  260.84
   1   0  -7 5575.95  152.64
   1   0  -7 5079.26  144.95
   1   0  -7 5244.41  199.66
   3   0  -7 1347.39   94.44
   3   0  -7 1168.47   67.48
  -3   0   7 1214.50  117.66
   3   0  -7 1271.78   62.40
  -4   3   5 6491.70  285.85
   4  -3  -5 6615.18  261.38
   4  -3  -5 6984.21  274.58
   4  -3  -5 7040.32  273.38
  -4   3   5 6816.77  279.36
   1  -7   4  177.99   51.54
  -1   7  -4  118.33   60.62
  -3   6   2  855.46   64.72
  -3   6   2  890.30   77.41
   3  -6  -2  913.23   63.93
   3  -6  -2  817.12   46.77
   5  -3  -3 5360.85  213.69
   5  -3  -3 5220.76  194.15
   5  -3  -3 5079.15  223.66
  -5   3   3 5532.16  260.31
  -1   2   6 1633.84   85.05
  -1   2   6 1582.22  137.69
   1  -2  -6 1790.31   84.41
   2   5  -6  572.38   73.72
  -2  -5   6  661.09   57.51
  -2  -5   6  574.73   64.98
   2   5  -6  625.07   55.09
  -5   1   4  933.56  106.25
  -5   1   4  673.63   58.32
   5  -1  -4  682.66   70.92
   5  -1  -4  879.44   84.80
  -2  -4   7  761.23   49.87
   2   4  -7  987.28   73.61
   2   4  -7  822.82   70.12
  -2  -4   7  798.62   86.59
  -4   6   0 5707.92  203.61
   4  -6   0 5663.93  240.27
   4  -6   0 5486.09  175.34
  -4   6   0 5528.05  222.91
   3  -1   4 2268.29  115.79
  -3   1  -4 2435.42   99.26
   0   7  -3 5337.28  143.52
   0  -7   3 5413.76  237.97
   0   7  -3 5704.36  279.21
   0  -6   6   17.90   35.06
   0   6  -6   42.00   32.29
   0   6  -6   20.65   41.16
   0  -6   6   19.44   29.14
   5  -1  -1 3904.77  165.96
   5  -1  -1 3615.85  151.15
  -5   1   1 3772.31  149.67
   5   0  -3 2493.20  141.44
   5   0  -3 2472.64  128.15
  -5   0   3 2621.31  135.76
  -2   6  -5  571.66   54.11
   2  -6   5  494.87   57.72
   2  -6   5  483.01   53.99
  -5   2   4  231.53   56.74
   5  -2  -4  209.63   57.67
   5  -2  -4  184.65   70.01
  -4   5   3  214.37   51.94
  -4   5   3  126.40   52.37
   4  -5  -3  100.88   58.39
  -4   5   3  169.39   48.93
   4  -5  -3  230.66   38.10
   4  -6   1 5389.31  189.50
   4  -6   1 4769.74  183.89
   4  -6   1 4919.03  232.09
  -4   6  -1 5337.61  172.18
   0  -1   7  780.10  102.10
   0  -1   7  757.74   64.20
   2  -7   0 1281.71   81.29
  -2   7   0 1320.73   99.39
   2  -7   0 1192.21  110.17
   5  -4  -1   21.91   40.62
   5  -4  -1   39.44   43.66
   5  -4  -1   -0.89   37.87
  -5   3   0 8864.25  339.99
   5  -3   0 8670.41  361.83
   5  -3   0 8108.18  332.28
   3   4  -6 5365.63  210.34
  -3  -4   6 5536.47  205.14
   3   4  -6 5408.48  231.16
  -3  -4   6 5698.57  246.13
   4   3  -4 2402.02  105.44
   4   3  -4 2324.45  156.31
  -4  -3   4 2431.02  130.38
   0  -7   4  335.79   66.12
   0   7  -4  366.79   24.88
   0   7  -4  255.85   78.05
   0   7  -2  710.22   97.84
   0  -7   2  436.47   77.79
   0   7  -2  489.11   27.96
  -4  -2   6  744.13   66.57
   4   2  -6  850.49   79.44
   4   2  -6  869.39   82.51
  -4  -2   6  923.53  102.62
   5  -4  -2 7899.87  323.73
   5  -4  -2 8132.46  352.88
   5  -4  -2 7568.04  295.98
   4  -3   3  146.93   53.61
  -4   3  -3  144.61   40.79
  -3  -4   1  492.86   76.40
   3   4  -1  590.43  106.25
   4  -6  -1  152.52   36.74
  -4   6   1   95.20   68.12
  -4   6   1  175.90   43.87
   4  -6  -1   88.65   42.20
   4  -4   3  348.08   52.17
   4  -4   3  349.44   63.38
   5   0  -4 4831.12  212.26
   5   0  -4 4556.41  219.61
  -5   0   4 4345.15  168.92
   3  -7   1 1282.05   62.16
  -3   7  -1 1367.87   93.97
   3  -7   1 1214.17   97.82
   3  -7   1 1292.33   32.48
   0  -6  -1  -11.12   47.72
   0   6   1   56.51   46.81
   0   6   1   29.53   39.57
  -5   0   2  531.63   76.23
   5   0  -2  610.06   71.40
   5   0  -2  678.29   62.61
   4   3  -3 9242.47  361.34
   4   3  -3 9791.21  383.82
  -4  -3   3 9257.63  373.87
   5  -2   0 2254.50  110.08
   5  -2   0 2373.70  150.61
  -5   2   0 2336.53  126.82
   3   2   2 2074.73  115.07
  -3  -2  -2 2033.85  110.73
  -3  -3   7  563.58   50.88
   3   3  -7  653.82   70.18
   3   3  -7  679.80   71.23
  -3  -3   7  619.51   88.77
  -2   1   7 2783.84  141.90
   2  -1  -7 2668.20  141.56
  -2   1   7 2902.28  145.35
   2  -1  -7 2813.27  101.94
   2  -1  -7 2999.88  111.27
  -1   0  -6 2922.88  153.94
   1   0   6 2545.87  142.48
   1   0   6 2590.33  113.73
  -1   0  -6 2758.14   95.44
   3  -7   2   85.39   15.51
  -3   7  -2  121.55   60.53
   3  -7   2  168.55   49.72
  -1   6   2 6923.03  331.44
  -1   6   2 6760.70  239.14
   1  -6  -2 6867.14  257.58
   1  -6  -2 6929.26  339.54
   1   5  -7  546.70   57.30
  -1  -5   7  482.15   46.89
   1   5  -7  601.19   55.20
  -1  -5   7  601.19   65.10
  -2   0  -5    9.05   49.59
   2   0   5   37.85   36.26
  -2   0  -5   52.68   33.54
   2  -7   4 7308.88  224.22
   2  -7   4 7061.90  275.73
  -2   7  -4 7350.91  291.99
   2  -7   4 7027.56  195.93
   3  -6   4  130.61   37.04
   3  -6   4   20.27   41.44
   0   5  -7 2402.95  120.65
   0  -5   7 2780.87  128.51
   0   5  -7 2694.65   87.55
   0  -5   7 2399.45   82.01
   2  -4   6 2704.04   92.71
   2  -4   6 2518.66  148.41
   2  -4   6 2636.46   92.56
   1  -6   6  908.71   66.84
   1  -6   6  970.15   62.64
  -1   6  -6  888.22   57.81
   5  -4   0 8373.64  305.10
   5  -4   0 8558.24  325.93
   5  -4   0 8634.34  368.33
  -3   4   5  490.58   74.79
   3  -4  -5  564.36   60.39
   3  -4  -5  575.48   61.27
  -3   4   5  621.90   79.37
  -3   4   5  604.02   75.45
   2  -3   6  -19.90   58.65
   2  -3   6   47.55   19.77
   2  -3   6   18.07   22.07
  -1  -6   6  939.68   74.15
   1   6  -6  908.74  100.14
   1   6  -6  801.89   67.73
  -1  -6   6  765.43   63.89
  -4   2   610701.57  411.77
   4  -2  -610866.11  403.74
   4  -2  -610057.82  402.28
   4  -2  -610824.81  394.23
  -4  -3   5 2830.26  176.49
  -4  -3   5 2560.97  112.19
   4   3  -5 2922.74  144.53
   4   3  -5 2970.31  160.81
  -2   4   5   22.88   45.70
   2  -4  -5   -6.48   28.72
  -2   4   5   44.24   48.48
   2  -4  -5   94.54   37.83
   2  -4  -5   34.12   37.43
   3   1   3  378.45   75.90
  -3  -1  -3  393.51   52.92
   3  -7   0 4549.81  120.41
   3  -7   0 4784.24  209.76
  -3   7   0 5165.23  243.55
   3  -7   0 4570.85  196.89
   3  -1  -7  483.98   72.02
  -3   1   7  720.59   72.63
   3  -1  -7  685.34   55.33
  -3   1   7  663.66   62.62
   3  -1  -7  697.37   50.67
  -1   7   0  153.82   77.81
   1  -7   0  147.89   43.44
   1  -7   0  181.38   72.89
  -1   7   0  120.12   22.50
   4   1   1  332.91   59.14
  -4  -1  -1  245.59   58.83
  -3   5   4 1364.79  113.56
  -3   5   4 1356.52   83.58
   3  -5  -4 1216.92   73.59
  -3   5   4 1376.52   87.65
   3  -5  -4 1270.30   75.07
  -1  -3  -4  121.03   80.80
   1   3   4  138.16   52.63
  -1  -3  -4  148.52   46.95
   1   3   4  142.07   63.32
   5  -3  -4 2224.64  123.19
   5  -3  -4 2090.09  114.13
  -5   3   4 2078.70  147.49
   5  -3  -4 2044.96  118.46
   4  -2   3   21.47   39.70
  -4   2  -3   -2.52   31.06
   4  -6   2  409.01   75.03
   4  -6   2  369.15   44.51
   4  -6   2  453.95   65.89
   2  -5  -4  382.94   49.74
   2  -5  -4  373.49   61.68
  -2   5   4  433.99   61.60
  -2   5   4  353.83   78.40
   2  -5  -4  420.40   70.61
   3   3   1   72.97   60.14
  -3  -3  -1    6.20   31.44
   0  -4  -4 3369.72  157.86
   0  -4  -4 3448.11  223.13
   0   4   4 3409.98  181.22
   0   4   4 3621.00  186.97
   4  -5   3 2644.05  123.58
   4  -5   3 2578.14  137.62
   1   4   3 1639.09  129.41
  -1  -4  -3 1334.47  103.17
   5  -4  -3  778.14   82.39
   5  -4  -3  703.03   70.13
   5  -4  -3  979.68  102.27
  -5   4   3  845.41   91.81
   5  -1  -5 1230.08   82.24
   5  -1  -5 1100.46   95.33
  -5   1   5 1092.30   66.41
  -5   1   5 1169.59   91.85
   1  -7   5 1263.33   89.01
  -1   7  -5 1394.51   94.16
   1  -7   5 1185.65   55.19
   4   3  -2   79.25   57.87
   4   3  -2  -37.06   44.43
  -4  -3   2  -39.41   42.53
  -2  -6   4   -0.95   38.68
   2   6  -4  -11.99   53.86
   2   6  -4   -3.50   25.55
  -2  -5   0 1813.26  120.58
   2   5   0 1788.92  160.40
   4   0   2  795.38   71.42
  -4   0  -2  752.13   73.44
   0  -7   5 2910.27  142.63
   0   7  -5 3285.68  166.43
   0  -7   5 3041.39   97.60
   0   7  -5 2717.53   84.76
   1  -3   7 7239.26  325.53
   3  -4   5  275.51   40.87
   3  -4   5  260.41   37.73
   0  -3  -5   66.29   52.42
   0  -3  -5  106.11   50.37
   0   3   5   71.22   46.24
   0   3   5   32.60   60.34
   0   7  -1  593.46   75.81
   0  -7   1  380.91   57.35
  -3   3   6 1279.34  102.07
  -3   3   6 1111.47   86.31
  -3   3   6 1345.63  110.44
   3  -3  -6 1190.41   75.52
   3  -3  -6 1141.13   85.54
  -5   0   5  163.53   49.91
   5   0  -5  137.59   63.47
  -5   0   5  123.36   55.74
   5   0  -5  161.94   42.69
  -4  -2   0 6575.00  278.87
   4   2   0 7358.15  335.18
   1  -4   7 6668.35  214.32
   1  -4   7 6445.71  279.91
  -5   0   1 2677.73  144.99
   5   0  -1 2961.28  161.72
   5   0  -1 2583.18  176.44
   2  -5   6 5705.67  238.03
   2  -5   6 6086.20  206.90
   2  -5   6 6178.65  202.92
   5  -1   0  565.91   65.82
  -5   1   0  431.86   50.98
  -2   3   6 2734.97  132.32
   2  -3  -6 2803.84  118.00
   2  -3  -6 2810.40  118.93
  -2   3   6 2879.93  128.81
  -2   3   6 2919.01  169.60
  -2  -6   3  193.49   47.62
   2   6  -3  331.41   65.40
   2   6  -3  189.91   38.84
   3  -3   5 2099.73   95.81
  -3   3  -5 2066.12   84.25
  -3   3  -5 2080.64   95.71
   3  -7   3  381.93   30.20
   3  -7   3  423.71   37.10
   3  -7   3  352.62   62.73
  -3   7  -3  380.28   73.56
  -1  -6   0  103.09   42.38
   1   6   0   78.01   59.12
   2  -2   6 1286.15   68.99
   2  -2   6 1052.10  124.08
  -2   2  -6 1265.13   58.12
  -2   2  -6 1215.35   76.01
  -4   6   2 3433.14  129.59
   4  -6  -2 3164.84  118.13
  -4   6   2 3182.88  189.47
  -4   6   2 3442.15  154.32
   4  -6  -2 3130.22  136.00
  -5  -1   3  -16.09   42.89
   5   1  -3   49.85   40.76
   5   1  -3   18.19   34.14
   3   5  -4 1663.50   90.50
   3   5  -4 1527.95  142.67
  -3  -5   4 1505.25  110.76
  -1  -2  -5  377.53   49.58
  -1  -2  -5  288.19   90.35
   1   2   5  327.35   61.12
   1   2   5  385.99   90.07
   5   1  -4 1319.25  119.72
  -5  -1   4 1170.32   73.42
   5  -2  -5 4364.87  174.28
  -5   2   5 4322.57  230.22
   5  -2  -5 3968.75  188.67
   5  -2  -5 4367.89  182.99
  -1   1   7 1512.09  132.15
   1  -1  -7 1421.13   71.80
  -1   1   7 1690.18  108.25
  -1   1   7 1373.18   70.33
   2   2  -8  971.64   36.73
  -2  -2   8  990.60   81.43
   2   2  -8  761.05   82.95
   2   2  -8  870.74   32.05
   5  -5  -1  304.32   48.30
   5  -5  -1  198.32   76.84
  -2   7   1  792.21   44.78
   2  -7  -1  735.52  103.28
  -2   7   1  879.42  116.78
   0   5   3 9561.28  372.06
   0  -5  -3 8478.61  440.14
   0  -5  -3 8872.43  364.66
   0   5   3 9454.21  416.66
  -2  -6   5  197.39   54.97
   2   6  -5  296.42   76.53
   2   6  -5  250.62   48.08
  -5   3  -1  689.93   72.55
   5  -3   1  717.73   91.65
   0   0   7 1069.99   52.54
   0   0  -7 1323.14   43.13
   0   0   7  996.89   98.78
  -4  -1   7 2427.09  165.36
  -4  -1   7 2466.78  104.23
   4   1  -7 2461.03  120.62
   4   0  -7 5824.10  217.45
   4   0  -7 5735.78  221.73
  -4   0   7 5571.07  235.38
   1   3  -8 4277.73  164.29
  -1  -3   8 4579.19  186.62
   3  -5   5    8.87   43.08
   3  -5   5   16.98   27.98
   3  -5   5   13.00   32.90
   3   5  -3 4910.52  267.51
   3   5  -3 5311.07  204.59
  -3  -5   3 4555.20  215.48
   2   3   3 8891.34  392.30
  -2  -3  -3 8390.05  308.88
   1  -2   7 1101.46  127.38
   5  -4   1  287.24   45.32
   5  -4   1  315.52   57.67
   5  -4   1  328.90   74.71
   5  -5   0 1212.65   79.66
   5  -5   0 1166.52   75.23
   5  -5   0 1160.56  116.32
   2   5  -7 1883.15  100.82
  -2  -5   7 1849.89   85.30
  -2  -5   7 2076.07  117.56
   2   5  -7 1831.77  124.16
   1   2  -8 1587.55   92.84
  -1  -2   8 1889.59  138.31
  -1  -2   8 1892.93  100.67
  -3  -5   5 4583.73  199.93
   3   5  -5 4605.43  178.45
   3   5  -5 4301.39  227.24
  -3   0  -411617.70  417.16
   3   0   411133.56  442.18
   2   3  -8  421.78   64.67
  -2  -3   8  464.02   77.16
   2   3  -8  506.03   37.47
  -2  -3   8  367.03   26.83
  -3   6   3 7819.29  278.51
  -3   6   3 7747.80  344.27
   3  -6  -3 7314.77  252.42
   3  -6  -3 7414.35  309.32
  -3   7   1  791.19   77.93
  -3   7   1  524.88   37.66
   3  -7  -1  833.63   85.07
   3  -7  -1  623.26   37.05
   4   3  -6  857.38   86.23
   4   3  -6  580.79   76.47
  -4  -3   6  781.34   98.38
  -4  -3   6  714.29   68.66
   4  -4  -5 7546.52  310.02
   4  -4  -5 7047.44  274.92
   4  -4  -5 7403.06  290.71
  -4   4   5 7049.22  306.96
  -4   4   5 7175.28  295.52
   2  -6  -3   -4.81   32.01
   2  -6  -3   66.55   64.34
  -2   6   3    7.72   59.64
  -2   6   3   37.75   33.11
   2   1  -8 4084.99  108.45
  -2  -1   8 3996.67  179.55
  -2  -1   8 3934.22  178.88
   2   1  -8 3889.06  108.15
  -5   5   2 3874.33  163.42
   5  -5  -2 4077.01  216.29
   5  -5  -2 4007.32  160.16
  -1  -5  -2    4.75   46.59
   1   5   2   70.56   62.45
   2   2   4  366.48   78.61
  -2  -2  -4  527.78   57.63
   5   1  -2 1221.03  124.40
   1  -5   7 2892.21   95.79
   1  -5   7 2835.57   94.80
   1  -5   7 3114.78  144.97
   1  -5   7 2759.93   85.58
  -1  -7   4 1589.84  112.28
   1   7  -4 1509.36  111.07
   1   7  -4 1691.59   75.12
  -5   2  -1 3127.61  124.54
   5  -2   1 3078.61  166.57
   3   4  -7 4101.79  171.64
  -3  -4   7 3990.41  151.92
  -3  -4   7 3764.60  193.20
   3   4  -7 3981.54  170.37
  -4   5   4  855.85   68.59
   4  -5  -4  859.67   67.09
  -4   5   4  910.65   78.69
   4  -5  -4  870.03   65.49
  -4   5   4 1018.39   99.91
   2   6  -2  253.78   48.45
   2   6  -2  375.90   96.34
   1   7  -3  461.12   45.11
  -1  -7   3  456.39   79.68
   1   7  -3  637.25  106.04
   3  -2   5 3972.67  170.72
  -3   2  -5 3844.20  165.21
  -3   2  -5 3652.73  131.70
  -5  -1   5   24.39   63.52
   5   1  -5   14.97   39.47
  -5  -1   5   26.90   30.20
   0   2   6 4538.95  200.70
   0  -2  -6 4962.79  200.67
   0   2   6 4713.50  251.28
   0  -2  -6 5427.97  266.92
  -1   4   5  584.23   64.91
   1  -4  -5  689.40   69.00
   1  -4  -5  791.04   88.61
  -1   4   5  657.70   83.05
   3   4   0 1418.62  112.13
   4  -1   3 1189.88   98.58
  -4   1  -3 1064.57   78.82
  -1  -4   8 9491.84  387.92
   1   4  -8 9001.77  360.19
  -2  -4  -2 6463.69  249.28
   2   4   2 6867.62  331.92
   2  -7   5 2028.55  105.62
  -2   7  -5 2134.41  111.44
   2  -7   5 1954.31   52.30
   2  -7   5 1998.83   79.81
  -4  -2   7  567.04   89.98
   4   2  -7  442.97   63.42
  -4  -2   7  480.47   64.92
  -1   5   4 6156.02  260.97
   1  -5  -4 6277.17  267.58
   1  -5  -4 6669.98  283.25
  -1   5   4 6736.76  301.52
   4  -6   3 4323.16  190.21
   4  -6   3 4799.74  205.82
   4  -1  -7 4960.61  200.15
   4  -1  -7 4740.02  195.28
  -4   1   7 4583.94  239.36
   5  -4  -4 8241.83  321.59
   5  -4  -4 8257.25  335.87
   5  -4  -4 8570.56  361.33
  -5   4   4 8238.88  353.69
   0  -6   7 3119.42  135.42
   0   6  -7 3158.49  131.76
   0  -6   7 3462.90  133.25
   0   6  -7 3465.06  136.05
   4  -3  -6 5401.09  212.23
   4  -3  -6 5294.17  223.17
  -4   3   6 5353.34  252.07
   4  -3  -6 5635.58  233.41
   4   3  -1 8629.61  352.81
   3  -2  -7  804.71   62.16
  -3   2   7  811.66  102.46
   3  -2  -7  789.25   57.54
  -1  -1   8  -47.79   43.14
  -1  -1   8  -46.22   64.73
  -3  -2   8 8152.91  356.92
   3   2  -8 8141.05  257.87
  -3  -2   8 7080.09  240.84
   3   1  -8 2684.66  100.82
  -3  -1   8 2667.63  139.28
   3   1  -8 2800.85  111.85
  -1   7   1 4662.78  263.87
   1  -7  -1 4753.36  216.59
  -1   7   1 4750.68  171.29
   2  -6   6 8847.85  304.24
   2  -6   6 8526.60  315.61
   2  -6   6 8740.68  305.18
   1   7  -5 3095.57  191.42
   1   7  -5 3362.14  125.91
  -1  -7   5 2936.49  153.35
  -2   2   713905.31  505.32
  -2   2   712999.05  511.62
   2  -2  -713160.12  464.14
   5  -5   1 2096.15  101.36
   5  -5   1 2196.60  116.93
   5  -5   1 2354.59  134.94
  -5   3   5 7043.39  322.88
   5  -3  -5 7407.30  308.84
   5  -3  -5 6674.04  285.03
   5  -3  -5 7134.85  282.81
   3   5  -2 5138.46  234.42
   3   5  -2 4951.72  209.40
  -2  -6   6  769.92   70.73
  -2  -6   6  834.78   76.20
   2   6  -6  818.70   59.95
   2   6  -6  702.20   93.00
   4  -7   1 4086.87  128.83
  -4   7  -1 3853.67  214.60
   2  -1   6   93.00   73.72
  -2   1  -6   69.00   25.44
  -2   1  -6  157.67   49.09
   2  -1   6  107.69   42.41
  -1   3   6   42.86   65.28
   1  -3  -6  124.89   81.42
  -1   3   6  144.46   48.20
   1  -3  -6  106.15   48.27
   0   7  -6  895.84   58.56
   0  -7   6  666.66   69.12
   0  -7   6  844.74   52.62
   0   7  -6  948.41   95.76
  -1  -6   7  834.76   75.37
   1   6  -7  907.81   75.59
   1   6  -7  849.88   72.01
  -1  -6   7  865.26   59.74
   4  -7   0 1320.52   59.20
  -4   7   0 1119.37   91.60
  -2  -4   8  275.03   68.14
   2   4  -8  214.27   44.40
   2   4  -8  298.22   53.80
  -2  -4   8  258.57   32.97
  -3  -5   6  772.47   87.57
   3   5  -6  654.44   92.74
  -3  -5   6  703.10   69.51
   3   5  -6  766.82   66.88
   3  -7   4   52.28   35.92
  -3   7  -4   -9.62   40.45
   3  -7   4   -0.97   20.91
   0   7   0 1169.50  127.49
   0   7   0  906.14   58.18
   1   7  -212843.03  539.56
   1   7  -212884.70  450.53
   5   0  -6   41.87   44.74
  -5   0   6  -31.07   24.98
  -5   0   6   24.30   57.73
  -1  -1  -6  -58.30   51.21
  -1  -1  -6   33.36   28.00
   1   1   6   25.16   58.55
   1   1   6   -8.52   31.93
   2  -8   2 8047.21  323.50
  -2   8  -2 8577.69  339.86
   5   0   0   -0.63   34.97
   5  -1  -6  789.84   55.26
   5  -1  -6  839.70   67.39
  -5   1   6  769.91  115.59
   0   6   2 2245.65  165.39
   0   6   2 1756.42  104.90
   0  -3   8  910.20  104.31
   0  -3   8  788.44   73.76
   1  -8   3  550.62   85.47
  -1   8  -3  829.12   78.83
   4  -4   4 6239.30  226.34
   4  -4   4 6013.15  235.05
   3  -6   5   75.02   30.20
   3  -6   5   18.02   33.98
   3  -6   5   29.90   37.26
  -2   0   8 5061.51  219.05
   2   0  -8 4986.43  155.31
  -2   0   8 4969.69  217.55
   2   0  -8 5168.74  143.84
   5  -5  -3  340.11   51.30
   5  -5  -3  359.27   80.78
  -5   5   3  352.39   70.02
  -5   5   3  401.65   62.59
   2   1   5  891.74   79.92
  -2  -1  -5  722.64  102.88
  -2  -1  -5  755.46   57.05
  -1   7  -6  484.13   58.67
   1  -7   6  305.03   49.08
   1  -7   6  476.75   65.07
   4   4  -4 4570.21  200.55
   4   4  -4 4368.33  248.00
  -2   8  -3  257.83   77.33
   2  -8   3  248.30   62.71
   2  -8   3  176.49   59.37
   1  -1   7  276.38   32.33
   1  -1   7  458.12   92.05
  -1   1  -7  365.04   26.70
  -4   6   3  417.59   67.75
   4  -6  -3  406.40   44.70
  -4   6   3  459.09   66.74
  -4   6   3  327.89   55.56
   0  -4   8 2310.16  107.83
   0   4  -8 2072.67   99.34
   0  -4   8 2307.17  143.02
  -1   8  -2   15.42   62.74
   4  -3   4 3621.71  180.03
  -4   3  -4 3252.54  133.10
   5  -1   1 5758.17  271.40
  -5   1  -1 5575.23  207.01
   3   3  -8 5898.90  218.79
  -3  -3   8 5936.76  280.27
  -3  -3   8 5912.37  204.89
   5   1  -1 2258.02  134.09
  -4  -4   5  109.65   39.39
   4   4  -5  115.98   51.92
   4   4  -5  229.68   70.80
   4  -7   2   19.15   26.99
   4  -7   2   22.12   42.41
  -3   0   8  485.79  100.22
   3   0  -8  535.67   54.18
   3   0  -8  644.19   41.55
   5   2  -4 1835.27  144.26
   2  -8   1  173.46   72.44
  -2   8  -1  479.14   93.42
  -1   6   3 1146.76  104.12
  -1   6   3 1436.74   86.83
   1  -6  -3 1117.99   80.52
   1  -6  -3 1590.32  115.11
  -1   8  -4  903.51  102.89
   1  -8   4  784.69   82.28
   4  -5   4 1466.12   98.32
   4  -5   4 1533.27   83.09
   0  -2   8  325.48   50.81
   0  -2   8  348.33   66.98
   4   4  -3 2362.72  111.65
   4   4  -3 2412.49  178.89
  -5  -1   6 2711.47  136.10
  -5  -1   6 2720.90  183.78
   5   1  -6 2885.02  157.56
   4  -7  -1 3654.86  126.53
  -4   7   1 3454.74  206.52
   1  -6   7  225.91   59.18
   1  -6   7  211.00   37.15
  -1   6  -7  146.44   34.70
   5  -4   2 4627.09  199.01
   5  -4   2 4984.01  235.25
  -1  -5   8 1012.64   51.02
   1   5  -8 1048.05   79.21
  -1  -5   8 1284.56   94.57
   1   5  -8 1132.65   55.71
  -3   7   2 5205.59  280.23
   3  -7  -2 5488.63  182.84
  -3   7   2 5777.92  205.41
   3  -7  -2 5024.07  261.66
   5   2  -3  198.15   80.34
   2   6  -1  210.48   67.84
  -4  -1  -2 1638.11  108.56
   4   1   2 1826.23  137.42
   2   5   1  870.61   94.72
  -5   6   0  671.82   53.40
   5  -6   0  783.73   59.08
   5  -6   0  829.11   77.39
  -3   1  -5 6205.14  255.97
  -3   1  -5 6637.73  225.23
   3  -1   5 6489.74  251.36
   5  -3   2 9199.06  374.54
  -5   3  -2 8808.88  338.63
  -5   2   6 1115.56  120.54
   5  -2  -6 1139.43   86.22
   5  -2  -6 1033.28   75.30
   4   3  -7  119.38   52.19
  -4  -3   7   96.44   68.51
  -4  -3   7  108.33   42.10
   5  -6  -1  861.39   78.42
   5  -6  -1  785.34   57.12
  -5   6   1  761.84   67.80
   2  -7  -2  254.65   62.87
  -2   7   2  371.64   91.01
  -2   7   2  215.33   45.30
   4   2   1  588.36  104.10
   1   6   1 4528.53  261.80
   5   2  -5  113.56   66.80
   3   2   3 4242.39  223.35
  -3  -2  -3 4162.86  181.75
   4  -2  -7  924.54   82.09
  -4   2   7  885.86  111.48
   4  -2  -7 1001.70   84.24
  -1  -7   6   65.43   33.18
   1   7  -6   48.04   54.31
  -1  -7   6   18.10   40.85
   1   7  -6   38.28   34.54
   2  -8   4 7509.13  313.51
  -2   8  -4 8220.76  344.42
   2  -8   4 7404.41  249.98
  -3  -3  -2   -7.70   42.66
   3   3   2   71.64   60.23
   0   1   7 1338.98  137.86
   0   1   7 1284.31   76.64
   0  -1  -7 1329.32   61.91
   0  -1  -7 1547.69  102.12
   3  -8   2  -23.54   32.62
  -3   8  -2  -44.15   56.64
   3  -5  -5 2305.31  114.88
   3  -5  -5 2331.98  108.45
  -3   5   5 2388.09  149.36
  -3   5   5 2447.25  137.45
  -3   8  -1  976.48   85.18
   3  -8   1  822.23   79.61
  -1   8  -1 1056.71  135.47
   0   5  -8  559.64   67.79
   0  -5   8  594.53   76.89
  -1   0   8 1559.15  143.23
  -1   0   8 1762.54  104.91
   1   0  -8 1473.09   48.68
   1   0  -8 1347.51   46.70
  -1   2   7  -10.46   66.74
  -1   2   7  101.06   33.94
   1  -2  -7   -0.16   35.35
   3  -4  -6 1544.63   96.43
   3  -4  -6 1394.14   92.55
  -3   4   6 1449.80  109.94
  -3   4   6 1523.78  118.34
  -4   2  -4   47.42   37.20
   4  -2   4  102.09   47.12
   4   4  -6   28.64   59.47
   4   4  -6  137.20   42.60
  -4  -4   6   30.41   42.23
  -4  -4   6  -23.58   64.31
   5  -5   2 1050.93   91.00
   5  -5   2 1147.78  107.16
   1   7  -1  660.69  118.87
  -5   6  -1 4701.99  164.31
   5  -6   1 4827.78  181.29
   5  -6   1 4695.18  235.16
   0   8  -3 4599.76  123.63
   0   8  -3 4894.92  266.04
   3   5  -1  296.01   76.78
   0  -8   4 1369.70  108.97
   0   8  -4 1409.30  132.77
   0   8  -4 1227.64   40.42
  -4   0  -3   20.25   37.16
   4   0   3   46.30   50.77
   5  -6  -2 1526.93   84.72
  -5   6   2 1606.78   99.82
   5  -6  -2 1393.32  137.26
   3   1   4 2380.00  142.35
  -3  -1  -4 2073.44  106.83
  -5   2  -2 6646.92  242.82
   5  -2   2 7365.56  309.13
   2  -5  -5   -4.56   47.18
  -2   5   5  151.49   52.27
  -2   5   5   92.24   57.07
   2  -5  -5    9.95   59.28
   3   5  -7 4714.23  198.67
  -3  -5   7 4834.15  191.02
   3   5  -7 5065.72  224.09
  -3  -5   7 5272.81  231.71
   2   6  -7  878.22   95.91
  -2  -6   7 1179.76   87.09
  -2  -6   7 1033.41   76.52
   2   6  -7  938.75   84.48
   2  -4   7 2337.23   73.84
   2  -4   7 2392.87   78.50
   2  -4   7 2051.40  150.32
  -1   8  -5    3.29   52.87
   1  -8   5   49.84   14.27
   1  -8   5   41.12   45.65
  -2  -5   8 2464.33  104.89
   2   5  -8 2579.67  119.24
  -2  -5   8 2646.73  147.22
   2   5  -8 2540.99  128.29
   5   2  -2  277.29   89.54
   2  -8   0  160.02   69.60
  -2   8   0  112.41   85.04
   4   4  -2 1140.52   80.16
   4   4  -2 1434.95  147.27
   3  -8   3  152.18   57.51
  -3   8  -3  282.50   68.87
   4  -7   3 3323.76  171.81
   4  -7   3 3336.06  119.48
   4  -7   3 3402.95  144.33
   5  -4  -5 5299.89  246.22
  -5   4   5 5177.58  244.14
   5  -4  -5 4793.81  186.82
   4   3   0 2833.74  160.59
   4  -6   4  743.86   80.12
   4  -6   4  734.64   68.30
   3  -6  -4  171.13   41.77
  -3   6   4  243.03   49.79
  -3   6   4  222.46   76.68
   2  -4  -6 3961.95  189.81
  -2   4   6 4426.13  223.36
  -2   4   6 4348.90  197.95
   2  -4  -6 4268.57  205.86
   0  -1   8   27.93   62.79
  -3  -4   8 1656.61  126.59
  -3  -4   8 1568.34   75.30
   3   4  -8 1674.54   93.65
   4   1  -8   89.74   27.80
  -4  -1   8  105.50   76.35
   4   1  -8  138.99   41.06
   6  -2  -3  461.22   98.51
   2  -7   6 7586.39  284.30
  -2   7  -6 8681.21  325.97
   2  -7   6 8097.86  274.07
   3  -1  -8  -17.26   24.45
  -3   1   8  140.66   57.44
   3  -1  -8   22.96   32.65
  -5   5   4 6947.84  299.62
   5  -5  -4 6961.18  269.58
   5  -5  -4 7220.43  283.06
   2  -3   7 5843.84  296.28
   2  -3   7 6386.83  189.68
   2  -3   7 5536.57  172.33
  -3   8   0 2290.68  139.61
   3  -8   0 2327.59  139.37
   6  -3  -2  176.23   79.00
   1   4   4  576.26   94.04
   1   4   4  504.95   89.35
  -1  -4  -4  610.58  113.60
  -1  -4  -4  325.77   64.63
   3  -4   6 1954.00   93.98
   3  -4   6 2220.72   88.84
   3  -4   6 1914.71  153.01
   2  -1  -8 2243.99   91.76
  -2   1   8 2284.64  167.54
   2  -1  -8 2199.82   91.58
   3   4   1  926.15   97.87
   5   2  -6  916.26  102.39
  -5  -2   6  975.07   83.83
  -5  -2   6 1015.89  124.19
   6  -2  -2 1441.31  107.64
  -4   5   5 1504.13  110.49
   4  -5  -5 1603.01   88.74
   4  -5  -5 1514.97   92.96
  -4   5   5 1776.53  122.74
   2   0   6   98.00   78.73
  -2   0  -6  101.92   60.19
   2   0   6  123.40   52.61
  -2   0  -6   73.21   37.19
   0   8  -2  -64.24   61.20
   0   8  -2    6.35   14.01
   4  -7  -2 4402.18  158.81
  -4   7   2 4787.84  172.98
  -4   7   2 4730.81  252.45
   2  -5   7   35.53   25.13
   2  -5   7   12.92   51.24
   2  -5   7   55.01   24.68
   6  -3  -3   61.61   67.45
   3  -7   5  618.15   63.27
   3  -7   5  759.14   64.67
   3  -7   5  634.45   54.47
   0   8  -5 3813.16  222.94
   0   8  -5 4158.43  122.62
   0  -8   5 3574.95  186.83
  -4   0   8   81.84   44.82
   4   0  -8    3.58   27.70
   4   0  -8    9.72   34.08
  -1  -3  -5   98.38   64.14
   1   3   5    0.12   46.17
   1   3   5   76.11   60.05
  -1  -3  -5  -32.60   35.36
   0  -4  -5 1137.18   90.56
   0   4   5 1169.15  111.12
   0   4   5 1174.44  118.86
   0  -4  -5 1403.89  155.46
   4  -4  -6 1802.38  118.63
   4  -4  -6 1621.92  102.88
  -4   4   6 1707.64  125.91
   4  -4  -6 1597.71   99.59
   0  -7   7 3045.60  147.55
   0   7  -7 3324.17  129.60
   0   7  -7 3433.59  147.95
   0  -7   7 3284.29  133.34
   4   2  -8  687.02   80.39
  -4  -2   8  807.46   80.18
  -4  -2   8  681.51   55.12
   1   0   7 4618.60  262.50
   1   0   7 4626.32  159.92
  -1   0  -7 4757.06  141.14
  -1   0  -7 5291.09  237.99
   3  -5   6  183.38   71.54
   3  -5   6  252.80   39.20
   3  -5   6  275.42   47.79
   2  -6  -4  322.37   72.24
  -2   6   4  437.35   83.44
  -2   6   4  262.28   59.30
  -3   3   7  181.53   71.56
   3  -3  -7  153.35   40.50
  -3   3   7   87.99   48.71
   0   7   1   38.01   78.70
   0   7   1   88.58   44.93
  -5   3   6  569.54   95.51
   5  -3  -6  557.76   68.62
   5  -3  -6  706.26   85.39
   5   0  -7  146.83   58.44
  -5   0   7  230.23   82.74
  -5   0   7  237.66   47.91
   6  -1  -3 7542.15  357.09
  -1   7   2 3982.17  243.53
  -1   7   2 3853.83  153.01
   1  -7  -2 4337.66  260.80
   6  -2  -4  223.35   80.50
   5   0   1 3632.00  206.54
   5   1   0  250.02   87.71
  -3   3  -6  742.36   59.00
   3  -3   6  813.64   56.99
   3  -3   6  626.99  111.96
   0  -5  -4   79.28   58.16
   0   5   4  166.69   73.31
   0  -5  -4  178.00   73.67
   0   5   4  270.76   62.78
   2   7  -4  361.76   41.77
   2   7  -4  276.81   95.81
   6  -3  -1  101.58   70.43
   3   6  -4  135.75   63.63
   3   6  -4  136.82   44.49
   2  -8   5 7249.13  227.90
  -2   8  -5 7619.35  306.18
   2  -8   5 6901.40  200.21
   2  -8   5 7089.43  298.42
   6  -1  -4  468.02   68.53
   1   5   3 1286.64  101.61
   1   5   3 1324.88  116.16
   1  -4   8  614.03   94.54
   3   6  -5 3803.28  227.67
   3   6  -5 3820.57  155.68
   6  -4  -2   88.02   43.41
   6  -4  -2  -21.47   47.05
   5  -1  -7  926.09   87.87
  -5   1   7  722.91   84.13
   5  -1  -7  718.84   69.76
   4  -6  -4 1054.34   71.41
  -4   6   4 1190.15  118.01
  -4   6   4 1221.97   90.21
  -5  -1   7  956.55   80.36
   5   1  -7 1150.62   99.05
  -5  -1   7 1219.89  130.19
   2   7  -5  625.70   60.13
   2   7  -5  516.19  104.02
  -5   6  -2  150.48   27.32
   5  -6   2   85.33   43.79
   5  -6   2   95.67   47.23
  -2   3   712084.95  450.45
   2  -3  -711434.28  434.10
  -2   3   712040.19  468.89
  -1   8   0  222.12   94.34
  -1   8   0  207.01   27.49
   1  -8   0  325.59   90.75
   1   6  -8   18.12   33.71
  -1  -6   8   16.41   39.85
  -1  -6   8   21.01   22.45
   1   6  -8    3.19   32.04
   0   3   6 4150.32  189.16
   0   3   6 4205.45  234.15
   0  -3  -6 4235.16  175.82
   0  -3  -6 4668.58  260.75
   1  -3   8  653.64  106.21
   6  -1  -2 1149.32   98.79
  -2  -3  -4 3112.54  152.36
   2   3   4 3037.22  190.10
   6  -2  -1   79.02   70.96
   0   6  -8  375.18   34.21
   0   6  -8  200.95   65.52
   0  -6   8  229.78   59.32
   0  -6   8  318.06   33.76
   6  -3  -4  128.58   74.62
  -6   3   4  163.62   57.03
   6  -4  -1   18.05   43.72
  -2  -2   9  855.57   82.55
  -2  -2   9 1001.40   92.15
  -2  -3   9  814.83  104.01
   1  -7   7  134.13   37.94
  -1   7  -7  171.85   45.97
   1  -7   7  107.39   38.85
   3  -8   4  516.18   31.70
  -3   8  -4  615.62   62.86
   3  -8   4  487.60   72.95
   3  -8   4  553.35   34.34
  -4  -4   7  206.27   49.73
  -4  -4   7  201.67   76.92
   4   4  -7  187.03   66.45
   5  -6  -3 1574.19  111.45
  -5   6   3 1654.07  108.99
  -5   6   3 1490.59  105.61
   5  -6  -3 1677.14   86.18
   2   6   0 1170.09  150.07
   1   7  -7   12.42   43.69
  -1  -7   7   35.32   32.02
  -1  -7   7  -13.97   40.32
   1   7  -7   19.72   27.55
   2   7  -3   81.09   64.73
   2   7  -3  -27.24   33.51
   2  -2   7 3191.39  120.07
   2  -2   7 2696.11  196.68
   2   4   3  171.58   82.44
  -4   1  -4    7.19   34.55
   4  -1   4   63.65   48.13
   6  -4  -3   32.30   62.41
   3   0   5 2369.68  133.12
  -3   0  -5 2264.62  108.87
  -3   0  -5 2123.89  142.98
   3   6  -3 5539.97  223.43
   3   6  -3 5735.74  324.53
   1  -5   8  313.08   69.76
   1  -5   8  222.65   32.88
   5  -1   2 1630.59  131.88
   5   3  -4  824.45   83.91
   2  -6   7 1077.07   91.27
   2  -6   7 1090.08   55.85
   2  -6   7 1111.58   67.43
   4  -3  -7   97.85   46.50
  -4   3   7  103.46   60.65
   4  -3  -7    5.38   39.29
  -1  -3   9 1547.97  134.82
  -1  -3   9 1641.01   95.23
  -1  -2  -6  286.37   47.17
   1   2   6  465.35   70.83
  -1  -2  -6  511.69   68.20
   1   2   6  236.06   61.55
  -3   7   3 4362.93  205.38
   3  -7  -3 4394.70  171.78
  -3   7   3 4425.02  167.00
   3  -7  -3 4649.33  255.45
   4  -1  -8 1587.81   97.89
   4  -1  -8 1713.57  111.79
  -4   1   8 1594.12  111.41
   5   2  -1  736.57  115.48
   5  -4   3  454.73   65.43
   5  -4   3  642.87   84.62
   3  -6   6   89.69   51.07
   3  -6   6   35.49   43.26
   3  -6   6  114.27   33.50
   5   3  -5   94.81   72.56
  -4   8  -1 5137.26  257.61
   4  -8   1 4748.11  136.17
   0   8  -1 4158.93  254.32
   0   8  -1 3977.59  137.43
   3   6  -6   -9.04   62.82
   3   6  -6   54.37   36.59
  -3  -6   6   57.79   45.47
  -4  -3   8    5.12   29.16
  -4  -3   8   33.89   40.56
   4   3  -8  -18.13   46.23
   3  -8  -1  848.61   98.57
  -3   8   1  538.95   89.03
   5  -7   0  274.35   77.29
  -5   7   0  299.41   44.75
   5  -7   0  128.64   36.63
   1  -8   6    1.05   50.99
  -1   8  -6   61.79   46.15
   1  -8   6   40.34   26.15
   4   4  -1 8445.75  373.62
  -6   1   5 2611.38  149.36
   6  -1  -5 2263.20  167.62
   0   6   3 1296.73  140.52
   0   6   3 1210.17   98.49
   0  -6  -3 1459.10  165.47
   1   7   0 3185.00  224.55
   6   0  -4  131.10   55.37
   2   2   5 3614.91  188.31
   2   2   5 3734.30  222.79
  -2  -2  -5 3090.43  142.58
  -2  -2  -5 3318.42  213.25
  -1   1   8 2353.67   93.55
  -1   1   8 2530.33  179.37
  -2   8   1  388.10   34.75
  -2   8   1  350.25   78.01
   2  -8  -1  662.35  101.68
  -1  -4   9 1678.48  127.46
  -6   2   5 4372.26  207.15
   6  -2  -5 4602.68  238.50
  -1   5   5 2751.79  178.91
   1  -5  -5 2843.82  225.46
  -1   5   5 3051.54  167.76
   1  -5  -5 2890.34  149.47
  -3   2  -6  181.99   40.87
  -3   2  -6  146.40   47.88
   3  -2   6  202.83   52.35
   0  -8   6  614.58   45.81
   0   8  -6  334.44   32.07
   0  -8   6  422.38   68.73
   0   8  -6  597.80   80.79
   6   0  -3 5172.73  271.66
   2   7  -6 5796.53  210.84
   2   7  -6 5510.34  288.56
  -2  -7   6 5333.11  243.35
   4  -4   5  169.30   42.05
   4  -4   5  167.99   61.48
  -4   4  -5  215.86   25.55
  -1  -2   9  315.46   58.65
  -1  -2   9  469.37   94.75
  -2  -1   9  -50.56   49.37
   5  -5   3 1986.57  118.49
   5  -5   3 2244.28  136.61
   3   2  -9  445.90   43.64
  -3  -2   9  324.76   96.71
  -4   8  -2  116.34   70.05
   4  -8   2  121.76   23.54
   5  -3   3  939.26   87.26
  -5   3  -3  527.80   68.00
   4  -7   4  -14.08   42.75
   4  -7   4   45.97   39.80
  -2  -4   9  572.96   85.08
  -2  -4   9  394.21   28.49
   2   4  -9  444.53   35.65
  -4   8   0   34.67   47.52
   4  -8   0   31.59   18.09
  -1   4   6  462.65   83.92
  -1   4   6  282.83   73.84
   1  -4  -6  318.85   57.10
   1  -4  -6  424.16   81.93
   5   3  -3  624.68   82.87
   1  -2   8 5396.36  289.15
   2  -7  -3  479.43  111.83
  -2   7   3  637.11   79.51
  -2   7   3  448.98   54.31
  -5   2   7   -9.39   52.55
   5  -2  -7   -1.31   34.38
   5  -2  -7   -7.36   42.63
   6  -3   0  425.97   94.51
   3   5   0 5025.52  289.17
   0   0  -8    9.98   14.74
   0   0   8   39.01   19.01
   0   0   8   59.68   46.81
   4  -5   5 3022.78  126.37
   4  -5   5 3056.92  137.69
   5  -7   1 1421.90  136.96
   5  -7   1 1762.41   92.77
  -5   7  -1 1652.16   77.96
   5  -7  -1 2340.50  135.57
   5  -7  -1 2484.76  111.28
  -5   7   1 2519.32  126.34
  -5  -2   7 4532.40  192.92
   5   2  -7 4730.79  222.19
  -5  -2   7 4652.87  210.75
   1   8  -4  335.58   30.19
   1   8  -4  281.65   72.10
   6  -4   0 1015.52  115.76
   4   5  -5  537.70  103.21
   4   5  -4   53.57   71.95
   3   1  -9  474.91   42.74
  -3  -1   9  364.99   99.01
   6  -1  -1 1338.79  137.11
   6  -5  -1 1451.33  107.06
   6  -5  -1 1291.09   93.88
   1   6   2   68.00   54.91
   1   6   2   67.40   52.33
  -3  -5   8   15.34   56.69
  -3  -5   8   41.67   33.77
   3   5  -8   61.39   43.85
   6  -5  -2  400.81   91.01
   6  -5  -2  341.52   62.15
   2   5   2 5315.59  301.90
   4   2   2 2532.72  182.24
  -3  -3   9 6832.53  315.51
  -3  -3   9 5913.81  195.91
   3   3  -9 6446.93  224.16
  -3   2   8  363.83   89.69
   3  -2  -8  263.94   50.77
   3  -2  -8  418.14   53.93
   6   0  -5  122.36   74.15
   1   8  -5  710.47  103.50
   1   8  -5  552.61   48.40
  -5  -3   6  835.44   88.58
   5   3  -6  555.13  100.17
  -6   4   4  150.65   56.39
   6  -4  -4  171.79   75.13
  -2  -6   8 6113.64  228.33
  -2  -6   8 6791.25  269.91
   2   6  -8 6193.84  251.88
   2   6  -8 6337.74  291.55
   4  -7  -3   55.18   26.40
  -4   7   3   25.23   63.40
  -4   7   3  -33.60   35.17
   2   7  -2  204.95   95.10
   2   7  -2  208.21   49.19
  -4   3  -5  835.98   63.58
   4  -3   5  982.35   77.64
  -4   3  -5  832.22   72.91
   1   8  -3 1870.30  170.77
   1   8  -3 1705.70   73.00
  -1   6   4 4216.88  242.03
   1  -6  -4 4480.36  278.99
  -1   6   4 4111.40  191.56
   0  -2  -7  223.04   45.93
   0   2   7  367.07   91.79
   0   2   7  265.35   50.31
   0  -2  -7  570.60   95.57
   6   0  -2   41.19   51.77
   4   1   3  937.43  113.99
  -6   3   5 1130.02  126.85
   6  -3  -5 1171.69  118.06
   5  -5  -5  986.27  108.25
   5  -5  -5  879.33   75.36
  -5   5   5  901.10   99.84
   1  -6   8   61.58   22.37
   1  -6   8   60.62   50.95
   1  -6   8   70.21   21.65
   1  -6   8   68.96   20.77
   6  -2   0   69.36   49.73
   3   6  -2 1123.20  111.27
   3   6  -2  998.51   91.46
   4   5  -6  104.09   70.23
   5  -4  -6  662.85   65.23
  -5   4   6  490.65   89.97
   4   3   1 2112.83  179.42
  -2   2   8 2927.69  128.77
   2  -2  -8 2507.24  106.65
  -2   2   8 2725.53  150.85
   1   5  -9   37.81    7.95
  -1  -5   9  111.76   53.46
   4   5  -3   95.59   82.62
  -4   8  -3 3562.10  160.39
   4  -8   3 3483.22  119.46
  -2   9  -3 2625.68  145.63
   2  -9   3 2402.66  153.06
   6  -5   0  145.83   70.26
   6  -5   0   59.93   49.73
   4  -6   5 4471.53  183.91
   4  -6   5 4133.63  170.60
   5  -6   3 1431.52  114.51
  -1   3   7  582.79   67.57
   1  -3  -7  729.78   72.42
  -1   3   7  598.75   78.28
   1  -3  -7  778.12   92.34
  -4   8   1 4875.42  267.54
   4  -8  -1 4744.84  149.91
  -1  -1   9 3532.95  182.37
  -1  -1   9 3293.51  164.69
   6  -5  -3   60.80   41.59
   6  -5  -3   -8.49   63.86
   5  -2   3  151.84   65.47
   2  -9   2 9569.69  401.63
  -2   9  -210155.28  420.97
   2  -1   7  458.02   88.19
  -2   1  -7  594.92   82.06
   2  -1   7  627.22   50.94
  -2   1  -7  554.62   44.72
   2  -8   6 1092.32   58.97
   2  -8   6 1221.59   82.76
   2  -8   6  942.36   32.70
  -2   8  -6 1186.92  102.70
  -3  -6   7 4303.06  203.72
   3   6  -7 4175.62  179.78
   3   6  -7 4025.46  218.14
  -3  -6   7 3813.96  179.25
   5  -7   2  389.74   45.77
   5  -7   2  342.17   81.67
   5  -7  -2  154.02   53.36
  -5   7   2   66.82   48.51
   5  -7  -2  104.84   32.54
   3   3   3 2336.91  173.08
   0  -4   9 1380.18   99.55
   0  -4   9 1311.29   75.65
   3  -8   5 2220.05  120.14
   3  -8   5 2199.52   90.18
  -3   8  -5 2266.29  133.35
   0  -3   9   54.05   58.56
   0  -3   9  -35.24   39.37
   5   3  -2  -22.14   50.50
  -3   0   9  482.71  108.81
   3   0  -9  721.24   42.06
   3   0  -9  613.01   50.50
  -1   9  -3  338.21   99.18
   2   1   6  355.08   84.74
   2   1   6  639.83  109.05
  -2  -1  -6  505.23   95.01
  -2  -1  -6  521.04   48.31
  -4   2   8 3274.15  207.25
   4  -2  -8 3743.69  149.82
   4  -2  -8 4044.50  166.96
   5  -6  -4 4004.96  181.90
   5  -6  -4 3690.60  159.67
  -5   6   4 3936.72  195.37
   6  -1  -6  463.63   92.24
  -6   1   6  548.12   82.17
   3  -7   6  137.06   45.55
   3  -7   6  236.69   54.43
   3  -7   6  249.41   50.72
   1  -8  -1 3705.93  195.78
  -1   8   1 3692.02  243.94
  -1   8   1 3489.48  136.59
   2   0  -9   44.11   18.87
  -2   0   9    4.52   68.40
   2   0  -9   61.40   20.29
   2  -7   7 3782.68  158.24
   2  -7   7 3927.27  163.74
   2  -7   7 3963.94  141.53
   3  -5  -6 1479.40  108.25
  -3   5   6 1610.02  128.44
  -3   5   6 1782.15  124.93
   5   1   1 2262.73  172.71
  -1  -1  -7 5824.88  289.10
  -1  -1  -7 5435.95  189.62
   1   1   7 5393.39  300.36
   1   1   7 5676.64  228.93
   3   2   4 1319.82  122.30
  -3  -2  -4 1248.26   91.04
   1   8  -6  805.56   95.50
   1   8  -6  537.19   52.80
  -1  -8   6  419.54   75.33
  -1   9  -4  127.28   76.08
  -2  -7   7  137.47   47.82
   2   7  -7  196.52   52.11
   2   7  -7   49.31   66.97
  -2  -7   7  179.31   50.30
  -2  -5   9  714.93   64.52
   2   5  -9  470.63   51.56
  -2  -5   9  438.37   33.75
   6   1  -4 2595.67  183.49
   2  -9   4 1508.59  104.80
  -2   9  -4 1499.13  134.99
  -3  -4   9 7252.09  328.47
   3   4  -9 6529.67  244.50
  -3  -4   9 5955.03  213.94
   1   8  -2 3899.72  249.58
   1   8  -2 3663.20  138.54
   4   4  -8  208.85   57.12
  -4  -4   8  152.66   75.73
  -4  -4   8  125.75   54.79
   0   7  -8 2757.80  109.83
   0  -7   8 2412.63  111.90
   0   7  -8 2175.66  134.25
   0  -7   8 2670.25  124.50
  -3   6   5 4006.87  185.67
   3  -6  -5 3350.51  160.56
  -3   6   5 3921.96  217.96
   0   7   2   85.47   65.55
   0   7   2  145.15   49.26
   0  -7  -2  360.14   78.43
   0   8   0  637.27   56.86
   0   8   0  450.97   89.28
   5   0  -8 2812.44  140.57
   5   0  -8 2579.23  124.02
  -5   0   8 2650.59  146.46
   1  -1   8 4602.43  128.96
   1  -1   8 5843.36  308.44
   6   0  -6 3465.66  165.05
  -6   0   6 3491.95  230.77
   3   4   2  311.43  101.97
   6  -2  -6 1073.09  114.02
  -6   2   6  951.90   93.85
   5   0   2    9.62   40.65
  -4   2  -5  399.32   49.12
   4  -2   5  286.96   62.96
  -5  -1   8 1785.48   99.85
   5   1  -8 1938.20  120.60
  -5  -1   8 1960.52  162.74
  -3   1  -6   42.53   49.62
  -3   1  -6   33.30   29.25
   3  -1   6  110.58   50.72
   6  -4   1 4247.22  233.38
  -3   9  -2  643.76   96.36
   3  -9   2  435.80   62.74
   6   1  -5 2098.40  125.66
  -1   9  -2   12.97   69.54
  -4   0  -4  207.53   49.83
   4   0   4  312.93   70.26
   0  -5   9 3334.14  129.57
   0  -5   9 3507.60  184.04
   6   1  -3 1582.90  116.14
  -3   8   2 4536.06  154.92
   3  -8  -2 4528.01  257.55
  -3   8   2 4765.52  275.98
   5   2   0 1028.23  100.21
  -2   9  -1  656.26  119.15
   2  -9   1  618.23   97.84
   5  -3  -7 1140.82  103.63
   5  -3  -7  891.62   87.27
  -5   3   7 1104.19   89.93
  -4   5   6  -40.20   55.50
  -4   5   6  -48.70   41.53
  -1  -7   8  237.89   53.20
  -1  -7   8  279.56   41.91
   1   7  -8  196.61   59.70
   1   7  -8  192.56   45.26
  -3   4   7  520.52   77.57
   3  -4  -7  463.64   61.65
  -3   4   7  547.75   94.23
   5   3  -7 7103.14  325.36
  -5  -3   7 7461.35  311.00
   0  -8   7 1597.55  104.49
   0   8  -7 1724.70  115.59
   0   8  -7 1746.05   92.50
   0  -8   7 2143.18   96.60
   6  -3   1  459.05   92.67
  -1   7   3 3159.54  217.90
  -1   7   3 2986.56  143.51
   1  -7  -3 3063.83  182.87
  -4  -1   9 1194.29  140.18
   4   1  -9 1427.44   78.59
   4   1  -9 1289.18   65.27
   0  -2   9  -44.91   66.59
   0  -2   9  -15.61   36.71
   6   0  -1 3585.25  183.27
   3  -9   3  750.95   68.50
  -3   9  -3  695.04  102.22
   6  -1   0  298.25   65.64
   4   2  -9  937.90   74.51
  -4  -2   9  672.91   89.55
  -4  -5   7  916.66  106.41
   4   5  -7  804.27  103.93
   6  -6  -1 4599.07  211.59
   6  -6  -1 4689.38  197.51
  -6   6   1 4315.36  199.17
  -4   6   5   31.45   47.26
   4  -6  -5   33.18   36.32
  -4   6   5   74.59   60.46
  -3   9  -1  285.76   70.22
   3  -9   1  257.33   65.71
   2   6   1  190.90   99.94
  -6   4   5  191.87   79.19
   6  -4  -5  217.69   78.81
   4   4   0  454.43  116.51
   1  -8   7   34.28   39.02
  -1   8  -7   26.37   39.35
   1  -8   7   80.43   28.91
  -1   9  -5    9.81   53.06
   2  -5  -6 2816.20  148.50
   2  -5  -6 3069.41  185.02
  -2   5   6 2971.67  175.58
  -2   5   6 2785.24  174.20
   6  -5   1 5655.62  281.51
   2   7  -1  103.72   34.75
   2   7  -1  127.26   88.09
   5  -1  -8   11.98   43.07
  -5   1   8   52.31   63.82
   5  -1  -8   11.34   45.69
   4   5  -2 2479.31  207.61
  -2   8   2  664.28   57.21
  -2   8   2  490.09   92.03
   2  -8  -2  689.62  114.27
   6  -5  -4  -23.40   65.58
  -6   5   4  -51.64   59.99
  -4   4   7 2129.69  151.70
   4  -4  -7 2002.75  115.95
   4  -4  -7 2528.70  139.93
   6  -6  -2   90.18   48.90
  -6   6   2   24.50   42.34
   6  -6  -2   96.77   71.10
   3   1   5 1622.62  124.83
  -3  -1  -5 1540.84   95.31
   6  -6   0  794.30   85.35
   6  -6   0  703.46   71.51
  -6   6   0  893.22   61.84
  -2   6   5  206.32   80.41
  -2   6   5  257.43   64.12
   2  -6  -5  216.11  105.38
  -5  -2   8   32.48   68.78
   5   2  -8    6.14   46.55
  -5  -2   8   42.95   36.22
   1   7   1 2387.84  206.85
   4  -7   5 5492.03  220.07
   4  -7   5 5230.55  222.09
   4  -7   5 5596.62  226.46
   4   0  -9 2690.55  118.47
  -4   0   9 2538.62  150.04
   4   0  -9 2604.39  108.24
   4  -8   4 1161.68  109.35
   4  -8   4 1375.53   66.83
   3   6  -1 3498.37  255.10
   2  -4   8 3947.33  104.95
   2  -4   8 4152.71  227.88
   2  -4   8 3581.51   98.66
   1  -7   8  165.54   46.99
  -1   7  -8  161.38   36.68
   1  -7   8  170.17   37.11
   1   6  -9  196.63   53.07
  -1  -6   9  195.86   28.83
   1   6  -9  226.39   33.20
  -1  -6   9  400.35   62.74
   3  -7  -4  778.32   62.12
  -3   7   4 1014.28  125.44
  -3   7   4  920.99   76.61
   3  -4   7  503.60   41.20
   3  -4   7  351.45   45.77
   3  -4   7  443.38  101.25
   3  -5   7    7.00   29.52
   3  -5   7   21.74   22.15
   3  -5   7   14.98   54.40
  -4   8   2 1313.31   80.73
  -4   8   2 1286.06  138.32
   4  -8  -2 1274.11   66.74
   5   4  -5 3610.24  186.37
  -2   9  -5 4527.72  228.01
   2  -9   5 4297.64  163.99
  -6  -1   6 4706.13  225.25
   6   1  -6 4384.30  196.38
   0   1   8  776.85  122.87
   0  -1  -8  795.31   46.67
   0   1   8  765.71   57.43
   0   9  -4 3591.20  226.17
   2  -5   8 4479.63  135.01
   2  -5   8 4542.38  243.76
   2  -5   8 4673.43  131.52
   5  -7   3  -26.55   39.54
   5  -7   3  -13.82   44.79
  -5   7   3  663.83   89.33
  -5   7   3  628.13   82.25
   5  -7  -3  655.91   55.01
  -1   2   8 2161.11  109.91
  -1   2   8 2301.82  179.12
   1  -2  -8 1961.66  104.42
  -6   3   6 1110.46  128.66
   6  -3  -6 1047.96  113.98
   5  -4   4  181.09   52.60
   5  -4   4  298.13   63.88
  -2   4   7 3367.28  205.43
  -2   4   7 3451.74  194.24
   2  -4  -7 3169.40  174.49
   6   1  -2 2276.18  182.71
   5  -5   4  396.19   63.92
   5  -5   4  655.21   78.68
   1   0  -9 2005.15   49.58
  -1   0   9 3064.24  191.42
   5  -1   3 3579.03  164.02
  -1  -4  -5  235.47   59.07
  -1  -4  -5  218.91  104.24
   1   4   5  389.32   87.42
   1   4   5  268.12   77.72
   6  -2   1  -38.49   62.88
   5   4  -4    7.29   64.20
  -4  -3   9  109.60   75.71
  -4  -3   9  160.45   34.05
   4   3  -9   85.38   44.70
  -1   9  -1  443.67  115.44
   0   9  -3 2753.46  213.16
   3  -1  -9 3636.92  142.22
  -3   1   9 3811.79  230.76
   3  -1  -9 3679.83  150.53
  -3   9  -4  436.90   64.48
  -1  -8   7  165.59   48.40
   1   8  -7  151.38   34.53
  -1  -8   7  151.07   49.41
   1   8  -7   93.76   64.05
   3   5   1  420.10  113.16
  -1  -5  -4  168.30   78.75
   1   5   4  215.76   83.08
   1   5   4  350.56   80.96
   5   3  -1  117.85   86.70
   5  -8   0    0.06   23.53
   5  -8   0   -8.26   39.46
   0  -6   9 3442.53   87.31
   0  -6   9 2995.24   76.87
   0   9  -5 1467.88  132.92
   0   9  -5 1024.37   33.61
   5  -8   1  287.11   41.74
   5  -8   1  331.25   85.04
  -3   9   0  439.53  112.65
   3  -9   0  640.83   89.90
   3   6  -8  817.62   91.06
  -3  -6   8  896.93   72.01
  -3  -6   8  969.24   99.10
   0  -5  -5 3272.40  249.73
   0   5   5 3058.75  155.81
   0   5   5 3267.39  190.98
  -4   7   4  420.62   94.89
  -4   7   4  338.99   61.82
   4  -7  -4  325.44   57.11
   1   8  -1   87.19   38.22
   1   8  -1  192.62   68.11
   2  -3   8 1349.83   48.17
   2  -3   8 1768.91  120.10
   2  -3   8 1661.56   55.02
   5   4  -6  927.23  119.89
   3  -3  -8 1102.61   89.06
  -3   3   8 1202.69   98.05
   2  -9   0 1319.98  142.09
  -2   9   0 1493.31  124.71
   0  -4  -6 1710.55  112.17
   0  -4  -6 2135.36  143.40
   0   4   6 1951.40  154.59
   0   4   6 1961.18  135.43
  -3  -5   9 5532.54  255.14
   3   5  -9 4753.15  216.48
  -3  -5   9 4968.46  200.20
   3   7  -5 3403.72  146.58
   3   7  -5 3619.36  187.51
   6  -6  -3  776.30   70.48
   6  -6  -3  918.36  115.47
   3  -3   7 1204.61   76.18
   3  -3   7  957.42  137.59
   3  -3   7 1100.39   67.15
   3  -6   7  275.92   43.60
   3  -6   7  328.03   71.07
   3  -6   7  371.68   41.46
   5  -3   4 2353.89  140.03
   1   3   6  157.08   63.54
   1   3   6  213.61   86.69
  -1  -3  -6  199.89   93.25
  -1  -3  -6  181.82   49.82
  -2   1   9  847.47  125.76
   2  -1  -9  851.09   54.40
   6  -6   1 3787.00  178.38
   6  -6   1 4472.17  238.33
  -6   6  -1 4003.95  149.63
   2   0   7   21.07   36.46
  -2   0  -7    7.94   24.73
   2   0   7  126.41   71.24
  -2   0  -7    9.13   53.76
   0  -1   9   47.61   73.58
  -6   1   7 3884.54  258.13
   6  -1  -7 4054.17  213.84
   3   7  -4  213.99   49.03
   3   7  -4  254.73   74.07
  -2  -6   9 1132.73   98.74
  -2  -6   9  859.74   64.97
   2   6  -9  956.43   71.83
  -2   7   4   51.52   57.72
  -2   7   4  140.38   44.88
   2  -7  -4   32.23   89.91
   6   0  -7 3166.98  184.75
  -6   0   7 3057.19  220.36
   2  -6   8 3697.95  130.89
   2  -6   8 4099.96  198.41
   2  -6   8 3979.81  125.70
   2   7  -8 4787.78  222.77
   2   7  -8 4607.85  196.13
  -2  -7   8 4394.02  215.58
  -2  -7   8 4722.27  210.48
   5  -6   4    9.78   46.12
   5  -2  -8  115.10   56.64
   5  -2  -8  129.45   45.46
  -5   2   8  145.00   78.80
   2   4   4 3382.34  221.26
  -4   1  -5  515.20   56.49
   4  -1   5  411.82   73.32
   5   4  -3  372.88   81.09
   1  -9   6  226.44   19.50
  -1   9  -6  301.63   85.13
   5  -8  -1  573.93   42.24
  -5   8   1  552.76  106.86
   3  -8   6  157.13   61.57
   3  -8   6  287.16   37.69
   3  -8   6  185.74   50.64
   2   8  -5  312.70   40.34
   2   8  -5  286.31   98.42
   4  -3  -8 2502.61  130.70
  -4   3   8 2485.69  178.99
   4  -3  -8 2799.03  134.42
   5  -5  -6 5109.79  248.33
  -5   5   6 4796.59  242.27
   6   2  -4 5861.82  257.91
   6   2  -5  736.34  113.75
  -4   9  -1 3440.59  217.18
   3   7  -6  158.19   85.59
   3   7  -6  233.51   46.64
   0   6   4  650.82  102.16
   0   6   4  451.81   81.45
   0  -6  -4  670.15  132.19
   2   3   5 6164.75  295.17
  -2  -3  -5 5920.37  324.22
   2   3   5 6022.24  321.87
  -2  -3  -5 5446.47  250.04
  -4   9  -2 2105.42  164.46
   1  -4   9  228.18   81.94
   2   8  -4 1980.02  100.25
   2   8  -4 2034.35  144.83
   5  -8   2  142.76   49.88
   5  -8   2   75.44   29.24
   0   9  -2 1394.54  149.61
   0   9  -2 1050.44   38.47
   0   9  -2 1286.10   44.63
  -4   1   9 2384.54  186.17
   4  -1  -9 2500.28  108.59
   4  -1  -9 2716.49  117.17
   2  -8   7 3436.93  155.66
   2  -8   7 3449.36  148.87
  -2   8  -7 3769.94  170.37
  -2  -3  10 2425.92  141.57
   4  -5   6  849.27   80.92
   4  -5   6  805.21   75.24
   1   0   8 5817.86  266.80
   1   0   8 5234.14  181.84
   6  -4   2    9.88   54.38
  -5   6   5 1018.27   91.43
   5  -6  -5  810.85   74.00
   5  -6  -5  795.88  110.52
   4  -4   6 2314.89  110.94
   4  -4   6 2660.64  120.36
  -5  -3   8 2179.99  176.57
   5   3  -8 2219.72  142.41
   4   5  -8   46.63   46.76
  -4  -5   8   33.17   56.10
  -4  -5   8  -20.24   37.21
   1  -5   9  -11.01   52.87
   6   0   0 1364.19  142.42
   1   6   3 3261.28  228.33
   1   6   3 3367.81  185.17
  -2   3   8   -9.51   68.86
  -2   3   8   98.21   39.54
   2  -3  -8   43.09   42.88
  -2  -2  10  452.23  103.38
   6  -2  -7 4502.91  224.29
  -6   2   7 4268.90  255.64
   4   2   3   63.77   70.32
   6  -5   2 2268.14  159.57
  -1   8   2  158.52   89.54
  -1   8   2  142.80   39.46
   1  -8  -2  105.07   95.39
   0   9  -6 1894.48   67.66
   0   9  -6 2062.28  152.17
   2   5   3 1253.96  113.20
   0   8   1  101.55   63.92
   0   8   1  106.32   39.13
   4   6  -5  -57.28   75.42
  -3   0  -6  886.01   67.80
   3   0   6 1002.01   90.38
  -3   0  -6 1105.06  110.11
   3   0   6 1142.19  109.79
   0   3   7   62.06   51.10
   0  -3  -7  142.99   88.62
   0  -3  -7  138.05   41.78
   0   3   7  121.79   79.05
   4   5  -1 4673.01  309.72
  -5   4   7 5410.02  277.62
   5  -4  -7 5555.09  251.52
   1  -3   9 2971.66  165.32
   4   3   2 1247.35  144.97
   2   8  -6 3931.73  228.36
   2   8  -6 3689.52  148.80
  -2  -4  10 3423.90  161.05
   6   1  -7  703.99   97.79
  -6  -1   7  629.05  126.15
   6  -5  -5  132.67   77.95
  -6   5   5  188.30   71.82
  -5  -4   7 4472.40  252.70
   5   4  -7 4206.35  226.30
  -4  -4   9  140.85   73.20
  -4  -4   9  149.75   40.68
   4   4  -9   85.26   49.50
   6   2  -3  625.95   86.64
   3   7  -3 3036.65  150.36
   3   7  -3 3250.00  233.58
  -4   9   0 1821.32  162.37
   6  -3   2 1299.65  124.83
   6  -1   1  298.38   68.89
   6   2  -6 4398.42  242.32
   3   2 -10 5206.93  157.13
  -3  -2  10 5882.51  298.92
   3   2 -10 6019.81  171.37
   4  -6   6   -5.56   37.81
   4  -6   6   -0.05   32.92
   4  -6   6  -11.06   48.97
   6   1  -1 2708.59  197.74
   4  -9   3  846.48   27.43
  -4   9  -3 1250.53   86.46
   2  -2   8   40.39   70.33
   2  -2   8   19.59   23.95
  -3   8   3  344.39   46.12
  -3   8   3  185.72   97.21
   3  -8  -3  207.88   74.49
   1  -5  -6  -10.39   74.33
  -1   5   6    2.18   51.59
  -1   5   6  -12.21   49.38
   6  -4  -6  404.18   80.25
  -6   4   6  227.75   85.81
  -1  -3  10 1579.71   99.47
  -1  -3  10 1786.82  150.32
   4   6  -4  139.21   91.27
   2  -9   6  183.37   31.00
   2  -9   6  122.84   71.26
  -2   9  -6  268.63   59.46
   2  -9   6  175.23   23.86
  -3   9  -5  262.62   64.64
   3  -9   5  169.99   20.53
   2   8  -3    9.98   26.87
   2   8  -3  -45.65   48.21
   6  -7  -1 2978.74  211.16
   6  -7  -1 3029.48  134.31
  -6   7   1 3152.75  163.26
   0  -8   8 3372.02  156.78
   0   8  -8 3489.72  168.58
   0   8  -8 3237.85  150.29
   0  -8   8 2897.25  143.75
   4   6  -6  358.14  100.29
   3   3 -10 1387.65   59.90
  -3  -3  10 1637.40  105.61
   3   3 -10 1139.05   50.00
  -1  -4  10  528.29   60.17
  -1  -4  10  273.07   93.33
   5   1   2  387.29   94.97
   6  -7   0 5190.13  205.24
   6  -7   0 5646.40  290.69
  -6   7   0 5456.23  205.78
   5   2   1  366.36  104.15
   2   7   0  498.08   95.41
   1  -9   0  210.56   56.81
  -1   9   0   12.00   19.22
  -1   9   0   36.27   82.22
   5  -2   4 9471.87  399.28
   1  -6  -5 1098.89  158.82
  -1   6   5  894.98  102.93
  -1   6   5 1153.67  122.22
   1   2   7 2186.32  124.04
  -1  -2  -7 1981.06  103.11
  -1  -2  -7 2139.53  173.34
   1   2   7 2345.49  184.00
   3  -2   7  966.43  147.84
  -3   2  -7 1041.19   69.07
  -3   2  -7 1347.26   87.29
   3  -2   7 1092.79   74.50
   3  -7   7  287.39   54.68
   3  -7   7  286.22   63.38
   3  -7   7  454.26   54.77
   2   2   6 1392.64  113.15
  -2  -2  -6 1261.44  144.52
  -2  -2  -6 1320.95   88.39
   2   2   6 1516.39  150.95
  -4   3  -6 2848.33  115.68
   4  -3   6 2963.54  137.70
  -4   3  -6 2709.55  121.40
   3  -9  -1 1250.44  131.96
  -3   9   1 1172.48  115.94
   4   1   4 2427.15  170.03
   4  -8   5 2373.27  125.01
   4  -8   5 2407.45  138.78
   3   7  -7 1983.47  158.93
   3   7  -7 2022.59  130.75
   5  -8  -2    2.98   22.49
  -5   8   2   22.42   60.58
   1  -6   9  115.02   27.20
   1  -6   9   81.05   60.38
   6  -6  -4   -8.71   59.24
  -6   6   4  -23.41   48.71
  -4   8   3  706.19   66.39
  -4   8   3  820.14   93.00
   4  -8  -3  788.68   53.98
  -3  -1  10 5427.35  247.86
   3   1 -10 5426.90  163.10
   3   1 -10 5000.76  155.06
   5  -7   4  872.69   96.85
   5  -7  -4 1295.23   80.75
  -5   7   4 1614.31  108.31
  -5   7   4 1497.20  103.90
   5   1  -9 3686.38  172.18
   5   1  -9 3777.07  166.17
  -5  -1   9 3373.71  223.26
   1  -4  -7   95.35   91.63
  -1   4   7   94.18   56.73
  -1   4   7  193.40   75.29
   1  -4  -7  135.94   46.64
   1   7  -9  152.30   36.50
  -1  -7   9  174.42   54.12
  -1  -7   9   73.32   37.34
   1   7  -9  209.83   55.75
   2  -7   8  462.64   45.31
   2  -7   8  478.65   69.07
   2  -7   8  290.94   48.85
   7  -3  -3 4408.99  212.52
   6  -6   2 6516.21  308.29
  -2  -1  10  817.51  128.20
   5   4  -2  295.34   82.48
   0  -7   9 6065.17  206.86
   0   7  -9 7003.16  225.98
   0  -7   9 7152.68  281.72
   3   6   0 4066.79  280.67
   6  -7  -2  357.18   55.49
  -6   7   2  492.28   67.85
   6  -7  -2  623.12   99.62
   5  -8   3  172.32   45.47
   5  -8   3  108.66   48.97
   4   4   1 3868.81  260.47
  -1  -2  10 1874.11  165.12
   0   7   3  190.33   64.89
   0   7   3  221.96   56.83
   0  -7  -3  204.61  114.24
   5   0  -9 1638.28  102.56
  -5   0   9 1384.14  152.54
   5   0  -9 1419.13  102.95
   1  -8   8  962.76   71.83
   1  -8   8 1193.53   78.84
  -1   8  -8 1211.75   73.36
   7  -2  -3  196.77   87.13
   1   8  -8  190.85   63.48
  -1  -8   8  316.52   49.44
   1   8  -8  310.94   54.63
  -1  -8   8  238.65   51.27
  -1   1   9 1914.93  128.53
   1  -1  -9 1641.96   68.83
  -1   1   9 1528.77   71.76
   5   0   3 3416.85  205.54
  -2   9   1   17.23   52.17
   2  -9  -1  -50.91   65.40
  -2   9   1   14.40   19.38
  -1  -5  10  -10.93   51.86
  -3   2   9 1542.09  155.61
   3  -2  -9 1797.25   99.22
   3  -2  -9 1714.74   83.62
   6  -7   1  766.11   85.10
   6  -7   1 1104.00  121.62
  -6   7  -1 1097.99   66.34
   7  -2  -4 7148.57  357.55
   7  -3  -2 1416.68  156.45
   1   9  -4  -13.13   51.22
   1   9  -4  -19.27   14.80
   0   9  -1 2219.80   91.76
   0   9  -1 2993.85  214.33
   0   9  -1 2845.54   99.72
   2  -8  -3 2120.52  137.54
  -2   8   3 1508.37  131.24
  -2   8   3 1573.94   92.21
   1   9  -5  189.88   50.62
   1   9  -5    2.44   14.25
   3   4 -10   43.44   33.64
  -3  -4  10   45.32   25.17
  -3  -4  10   93.44   64.52
   3   3   4 1698.16  150.77
   2   5 -10 3238.36   95.42
  -2  -5  10 3006.04   90.68
  -2  -5  10 4490.77  179.32
   1  -2   9 2397.58  153.80
   7  -3  -4 2244.77  140.99
   1   8   0 6345.46  362.64
  -6   3   7 1037.84  134.14
   6  -3  -7 1230.43  114.00
   2   8  -7 3199.39  154.85
   2   8  -7 3315.51  198.85
   4   6  -3  -38.17   80.27
   5   2  -9 3038.00  146.82
  -5  -2   9 2832.70  130.84
  -5  -2   9 2869.30  207.14
   5   3   0   83.67   82.91
   4   6  -7 2426.97  175.89
   2   6   2  826.14  134.16
  -5   3   8  761.51  125.14
   5  -3  -8 1031.39   91.17
   3   4   3  109.72   59.78
   6  -2   2 1816.16  145.05
   7  -4  -2   54.46   54.32
   7  -4  -310577.12  495.11
   0   0   9  124.61   18.02
   0   0   9  233.56   86.92
   0   0  -9  102.30   16.92
   6   2  -2 4141.89  254.48
  -4   9   1 3613.19  235.87
  -3   6   6  180.47   66.50
  -3   6   6  226.44   76.77
   4  -7   6 1472.16   94.87
   4  -7   6 1596.98   94.08
   4  -7   6 1465.49  114.57
  -6  -2   7  281.84  103.56
   6   2  -7  264.70   81.49
   1  -9   7  323.80   60.34
   1  -9   7  375.65   32.92
  -1   9  -7  436.24   69.77
  -4   6   6  356.74   75.46
  -4   6   6  474.29   88.72
   4  -9   4 2130.89   73.63
   4  -9   4 1956.79   69.94
  -4   9  -4 2054.58  114.79
   1  -7  -4 3902.64  263.07
  -1   7   4 3458.23  178.41
  -1   7   4 3657.81  234.20
   7  -2  -2 6141.77  321.93
  -3   5   7 1428.72  117.04
  -3   5   7 1301.86  131.41
  -3  -6   9 1182.67  106.10
  -3  -6   9  934.43   84.09
   3   6  -9  992.66   91.66
   4  -2  -9  659.50   60.28
   4  -2  -9  439.13   65.12
  -4   2   9  271.97  101.45
   1   7   2 1015.75  148.70
   1   7   2 1103.06   98.60
   0   9  -7   37.60   52.06
   0  -9   7   49.56   29.19
   3   7  -2  -81.25   61.06
   3   7  -2    2.37   44.50
  -4   5   7 1243.62  108.85
  -4   5   7  873.96   86.95
   7  -1  -4 3218.35  218.26
   2   8  -2  229.15   64.24
   2   8  -2  333.39  107.95
  -2  10  -3 4967.89  286.69
   2 -10   3 4987.99  226.50
   0  -2  -8  866.34   75.77
   0   2   8 1079.53   98.74
   0  -2  -8  944.32  102.78
   0   2   8  809.35   85.20
   1   9  -3 1477.16  167.75
   3   2   5  552.57   92.11
   1   9  -6   93.06   66.64
   1   9  -6   54.20   25.47
  -6   0   8 5585.44  314.74
   6   0  -8 5689.52  260.52
   7  -2  -5  258.37   65.86
  -5   1   9   78.06   73.15
   5  -1  -9   21.63   37.66
   5  -1  -9   40.10   51.51
   4   2 -10  234.20   44.83
  -4  -2  10  192.30   63.95
   4   2 -10  118.06   31.12
   7  -1  -3  752.30  120.22
  -5  -4   8 6401.57  327.52
   5   4  -8 6003.39  288.61
  -2   2   9  101.53   80.08
   2  -2  -9  110.06   34.58
   0  -4  10 1119.04  127.50
   0  -4  10 1020.00   75.63
   2 -10   4  126.87   57.87
  -2  10  -4  -20.92   73.99
   7  -4  -1 4348.27  254.28
   4   0   5  -16.96   51.78
   7  -4  -4  874.34  124.62
  -3   0  10 4444.30  264.62
   3   0 -10 4176.26  135.62
   3   0 -10 3994.76  143.04
   7  -3  -1 5537.85  299.41
  -4   2  -6 1080.94   87.71
  -4   2  -6 1103.91   85.12
   4  -2   6 1277.55   91.55
   4   1 -10   90.74   34.81
  -4  -1  10   45.31   67.80
   4   1 -10   -1.45   24.70
   5  -5   5 1001.13   91.17
   5  -5   5  926.39   74.50
   6  -1  -8  866.78   96.71
  -6   1   8  888.53   99.14
  -1   3   8  811.97   75.63
   1  -3  -8  792.96   67.19
  -1   3   8  723.39  121.72
  -2  -7   9 3659.53  173.37
   2   7  -9 3830.58  183.63
  -2  -7   9 4126.90  189.31
  -2  10  -2 1961.53  148.71
   2 -10   2 2148.27  150.07
  -3   7   5 2288.74  136.52
  -3   7   5 2323.80  175.94
   6  -7  -3 1557.89  111.37
   6  -7  -3 1901.65  127.55
   5   5  -5 6183.70  338.68
   7  -1  -5  928.50  124.90
   2  -1   8   -6.32   47.35
  -2   1  -8   -5.42   12.45
   2  -1   8    8.95   26.68
  -2   1  -8   38.86   32.03
   6   3  -5  232.40   93.28
  -4   7   5  332.62   59.00
   4  -7  -5  123.67   58.93
  -4   7   5   87.24   82.09
   7  -3  -5  350.96   96.50
   5  -4   5 1765.09  112.60
   5  -4   5 1695.19  112.84
  -5   4  -5 1637.58   82.84
  -1  10  -4   56.32   75.11
  -1  -1  10  622.44   91.07
   7  -5  -2 2048.51  136.82
   6   1  -8 6225.35  287.43
  -6  -1   8 6809.58  354.92
   2   1   7  123.30   59.21
   2   1   7   23.17   58.03
  -2  -1  -7   53.09   38.81
  -2  -1  -7  118.72   69.29
   3   5   2  197.09   99.16
  -4  -5   9   93.46   53.19
  -4  -5   9  232.81   75.15
   4   5  -9   98.24   56.42
   0  -5  10  228.13   73.09
   0  -5  10  106.56   46.88
   0  -3  10 1422.70   94.83
   0  -3  10 1674.27  152.59
   1  -7   9   -4.28   18.30
   1  -7   9    2.93   19.14
   1  -7   9    5.00   17.22
   1  -7   9   49.13   40.40
   3   7  -8  659.87   97.08
  -3  -7   8  852.38   93.24
   5   5  -6 2818.72  163.66
   3 -10   2  -22.54   40.93
  -3  10  -2   37.88   63.14
   3 -10   3  845.91   84.01
  -3  10  -3  583.07  115.35
  -4  -3  10   18.71   48.43
   4   3 -10    3.74   35.82
  -4  -3  10   32.48   25.44
  -1  10  -3  368.84  107.05
   6  -7   2 6146.96  263.43
   6  -7   2 6583.48  315.07
  -6   7  -2 6218.66  205.67
   5   3  -9 3363.48  163.19
  -5  -3   9 3272.72  212.45
  -5  -3   9 3019.26  148.16
  -3   4   8   82.85   59.25
  -3   4   8  -19.97   41.79
   3  -4  -8  -38.25   35.65
   6   0   1   86.10   74.41
   6  -5   3 2565.36  165.89
  -2   0  10  148.15   77.54
   2   0 -10   57.87   11.38
  -1  -6  10  973.95   82.23
   6   1   0   51.74   75.99
   5  -6   5 1437.05  106.01
   5  -1   4 4878.99  239.59
  -3   9  -6  914.05   88.12
   3  -9   6  829.79   45.21
   6  -4   3 4777.39  240.50
  -5   9  -1   64.52   51.20
   4  -4  -8 3413.99  168.45
  -4   4   8 2937.16  197.17
   5   5  -4  629.46  129.43
   7  -5  -3 4439.91  262.78
   5  -8  -3  649.26   61.31
  -5   8   3  734.82   67.71
  -5   8   3  453.50  118.74
  -3   1  -7 2001.60   91.70
   3  -1   7 1970.02  188.82
   3  -1   7 2182.24  133.57
  -3   1  -7 2482.91  141.78
   6   3  -6 1737.38  160.01
   3  -8   7   85.10   47.43
   3  -8   7   94.95   50.13
   3  -8   7   95.26   37.71
   4   5   0  605.13  137.39
   1   1   8 1911.88  171.61
   1   1   8 1657.58  101.19
  -1  -1  -8 1478.61   83.53
  -1  -1  -8 1872.50  148.93
   7  -5  -1  808.36  124.93
   3   5 -10 1169.35   76.52
  -3  -5  10 1005.99   63.72
  -3  -5  10 1277.76  122.68
   7  -1  -2 7666.55  330.91
  -2   6   6 1357.94  132.58
   2  -6  -6 1640.46  138.75
  -2   6   6 1401.97  128.62
   6  -5  -6    6.57   67.64
  -6   5   6   91.87   47.08
   7  -2  -1 2271.04  178.82
   2  -9   7  739.02   83.35
   2  -9   7  917.85   57.11
  -2   9  -7 1108.79   80.39
  -5   9   0  114.29   80.34
  -1  10  -5  120.26   58.44
  -2   5   7  262.36   70.44
  -2   5   7  209.02   79.53
  -3   9   2 1942.06   89.38
  -3   9   2 2192.76  190.88
   3  -9  -2 2128.19  171.63
   4   6  -2 1128.11  119.48
  -2  10  -5 1691.53  140.01
   2 -10   5 1570.57   90.53
   5  -8   4 1225.77   79.90
   5  -8   4 1144.90  112.02
   1  -9  -1  827.39  129.48
  -1   9   1  407.95   96.51
  -1   9   1  573.14   53.20
   4   0 -10  -19.77   23.30
   4   0 -10   33.99   25.06
  -4   0  10    8.23   44.21
  -4  -6   8  151.56   73.80
   4   6  -8  180.07   69.65
   5   4  -1  249.56  105.51
  -6   6   5   58.61   59.97
   6  -6  -5   64.84   69.24
   6  -2  -8    3.74   35.60
  -6   2   8  -42.65   62.31
   5  -9   2  175.71   78.89
   7   0  -4   28.62   68.29
  -2  -6  10 4201.03  217.95
   2   6 -10 3909.65  143.27
   2  -8   8  -32.56   26.58
   2  -8   8   74.80   38.28
   2  -8   8  -13.14   26.28
   5  -6  -6 4810.34  254.56
  -5   6   6 4904.33  240.85
   3 -10   1  918.84  101.83
  -3  10  -1  814.92  137.84
   1   9  -2  356.28  114.99
   1   9  -2  277.14   45.23
   3 -10   4  654.54   60.19
  -3  10  -4  698.06  101.15
   1  -1   9 2383.99  192.42
   3  -5   8   85.32   71.21
   3  -5   8   82.01   28.84
   2   8  -8  647.86   69.00
  -2  -8   8  612.32   90.77
   2   8  -8  741.16   93.50
   1   9  -7   13.91   58.48
   1   9  -7   35.66   31.17
   6  -6   3  160.33   71.00
  -2  10  -1 1491.72  133.63
   2 -10   1 1596.98  144.51
   5  -5  -7 4752.65  234.44
  -5   5   7 4279.31  199.41
   0   8   2  -26.95   78.99
   0   8   2   57.14   41.03
   0  -8  -2  156.14   93.86
   7   0  -5  496.43  106.46
  -1  10  -2  157.12   97.19
   5  -3   5 1313.26  105.43
  -3  -1  -6 2458.51  164.36
  -3  -1  -6 1962.15  112.97
   3   1   6 2171.14  150.78
   3   1   6 2277.35  191.71
   6  -1   2  198.51   82.96
   6  -8   0 4027.24  153.89
  -6   8   0 4036.44  168.59
   6  -8   0 4233.74  245.10
   7  -2  -6 1820.90  150.07
  -7   2   6 1704.99  134.37
   5   5  -7  210.37   82.51
  -6   4   7   98.22   76.95
   6  -4  -7  175.59   68.20
   7  -1  -6  110.44   75.70
   7  -4   0  297.46   70.56
   6  -3   3 3490.01  198.96
   0   9   0  226.01   43.45
   0   9   0  312.86  105.63
   7  -4  -5  871.77  127.25
  -7   4   5 1037.31   97.17
   6   2  -1 1769.08  134.65
  -4   9   2  130.93   34.68
  -4   9   2  142.12   88.84
   3  -4   8  967.96   60.56
   3  -4   8  867.27  128.07
   0  -6  10 1144.79  110.35
   0  -6  10 1109.15   65.55
   0  -2  10 1032.79  143.52
  -1   8   3 5892.44  246.16
  -1   8   3 5735.08  295.65
   1  -8  -3 6423.24  368.85
   6   3  -3    1.00   46.64
  -2   7   5  152.10   79.91
  -2   7   5  120.58   56.07
   2  -7  -5  225.02  103.63
   2  -5   9  -17.04   60.38
   7   0  -3 2242.71  185.50
  -6   8   1  571.44   84.44
   6  -8  -1  585.43   54.84
   6  -8  -1  637.17  110.09
   5  -2  -9  -59.88   35.50
   5  -2  -9   75.91   39.71
  -5   2   9   87.83   65.77
   4  -8   6 2983.94  137.91
   4  -8   6 2639.45  138.67
   4  -8   6 2882.52  129.86
  -6  -2   8 2372.43  158.53
   6   2  -8 2465.04  158.03
   2   7   1  213.74   76.06
   3  -6   8   61.22   56.49
   3  -6   8   21.58   26.70
   1   5   5  466.37   98.23
   1   5   5  581.48   98.42
  -1  -5  -5  495.09  127.83
   7  -5  -4  136.33   60.73
   4  -9   5  190.36   64.68
   4  -9   5  200.47   31.35
   2  -4   9  208.94   87.75
   3  -8  -4 1688.58  168.94
  -3   8   4 1408.69  105.70
  -3   8   4 1619.50  157.33
   0   8  -9  299.68   51.07
   0  -8   9  196.93   47.97
   0  -8   9  374.45   53.57
   7  -3   0  258.70   90.32
  -4  -4  10  -22.88   60.84
  -4  -4  10   45.74   26.42
   4   4 -10   -7.57   34.23
   6   3  -7 1618.70  109.79
   5   5  -3 1133.74  121.03
   1   4   6   78.95   56.78
  -1  -4  -6  -49.07   80.62
   1   4   6   54.72   52.76
   6  -8   1  777.90  116.19
   6  -8   1  906.77   73.19
  -5   9   1    0.96   59.24
  -4   8   4 1502.22   98.49
   4  -8  -4 1501.86   85.50
  -4   8   4 1675.55  123.07
   7  -5   0  164.97   88.21
   5  -7   5 1792.19  119.50
  -5   7   5 2136.25  136.85
  -5   7   5 2239.13  175.21
  -2   4   8  537.77   81.55
  -2   4   8  736.28   84.11
   2  -4  -8  629.12   68.97
   2   8  -1   73.06   45.82
   2   8  -1   32.30   90.03
  -2   9   2 1399.69   71.33
   2  -9  -2 1616.17  169.86
  -2   9   2 1605.79  170.32
   3   7  -1 4444.80  307.86
   0   5   6  709.39  105.78
   0   5   6  754.38  105.97
   0  -5  -6  814.22  139.53
   5   2   2  532.68  113.95
  -7   3   6 4198.38  265.48
   7  -3  -6 3989.44  235.63
  -1  -8   9   74.39   38.16
   1   8  -9   11.19   33.37
   1   8  -9   -9.99   35.08
  -1  -8   9  -22.63   35.42
   2  -6   9 1089.92  112.32
   7  -6  -2 2360.19  185.66
   0  10  -4 1756.00  147.60
  -1  10  -6  131.69   68.92
   3  -1 -10  190.39   33.87
  -3   1  10  272.17   95.42
   0   9  -8 2107.45  120.62
   0  -9   8 1531.36  111.74
   0  -9   8 1829.21   86.17
   7   0  -6   67.05   70.57
   6  -7  -4  176.61   62.13
  -6   7   4  152.80   61.82
   4  -5   7 3749.72  244.93
   4  -5   7 4490.23  168.82
   4  -5   7 4261.43  168.42
   7  -6  -1   20.99   66.45
   5  -9   3   99.50   50.92
  -4  10  -2 1153.78  139.48
   4   3   3  532.23  114.81
   5  -4  -8  595.87   83.07
  -5   4   8  596.08  107.84
   3   6   1  134.69   72.66
   3   8  -5  122.47   96.71
   3   8  -5  204.14   46.56
   0  10  -5  331.81  102.38
   0   6   5 2126.03  149.99
   0   6   5 1788.58  164.76
   0  -6  -5 2449.33  206.05
  -1  -6  -4  165.45   66.64
   1   6   4   43.01   60.29
   1   6   4  -12.87   72.43
  -3   3   9   45.73   69.04
   3  -3  -9   37.80   35.35
   3  -3  -9    3.38   41.22
   2   4   5 4147.71  248.77
  -2  -4  -5 4910.81  294.49
   2   4   5 4732.23  279.84
   1   8   1  367.05   61.55
   1   8   1  357.95  117.19
   5   1   3 3154.85  203.97
   7  -1  -1  448.97   80.73
  -1   2   9  498.94   48.15
  -1   2   9  384.35  113.76
   4  -1   6  212.02   65.16
  -4   1  -6  269.22   47.38
  -4   1  -6  187.60   83.26
   3   8  -6 1148.95  140.41
   3   8  -6 1040.53   74.52
   0   1   9  744.43  100.38
   0   1   9  723.72   52.65
  -4   3   9  256.37   73.97
   4  -3  -9  278.90   52.69
   4  -3  -9  521.09   57.86
   1  -9   8  311.75   54.58
   1  -9   8  312.46   49.66
  -1   9  -8  303.14   54.51
   4   2   4 2348.86  173.84
  -4  10  -1  -12.85   49.46
   6  -8  -2 1662.30   86.58
   6  -8  -2 1720.13  156.52
   4  -6   7 4396.80  185.48
   4  -6   7 3792.06  228.00
   4  -6   7 4079.66  166.81
   3 -10   0   11.32   58.82
  -3  10   0  -46.40   54.28
   3  -3   8  802.68   55.21
   3  -3   8  649.75  127.42
  -1   0  10  -17.45   72.74
  -3  10  -5  -77.22   59.92
  -5  -4   9  151.38   89.60
   5   4  -9  222.21   63.13
   2   5   4 1956.88  173.79
   2   5   4 2104.76  175.23
   0  -4  -7 1146.61  107.82
   0   4   7  707.89   95.93
   0   4   7  772.51  120.19
   5   3   1  -13.63   52.49
   4  -4   7 2760.69  141.45
   4  -4   7 3169.60  134.17
   4  -4   7 2675.74  214.34
   2  -3   9  404.79  104.95
  -4  10  -3  -19.53   61.13
   2 -10   6  311.86   46.69
  -2  10  -6  290.47   70.90
   6  -7   3  354.46   84.80
   0  10  -3  238.54  103.09
  -4   1  10  215.38   69.42
   4  -1 -10  319.52   52.73
   7  -6  -3  182.70   86.81
   7   0  -2 2953.04  178.09
   3   8  -4  204.77   78.85
   3   8  -4  302.17   63.93
  -6   3   8  839.22  129.80
   6  -3  -8 1031.44  107.10
   4   4   2  886.95  136.24
   1   3   7  412.88  109.54
  -1  -3  -7  319.56   59.15
   1   3   7  480.55   74.28
  -1  -3  -7  470.25  107.61
   7  -2   0  364.92   99.12
   1 -10   1  138.31   59.83
  -1  10  -1    3.52   68.87
   3  -7   8  150.33   64.92
   3  -7   8  199.77   36.16
  -1  -7  10 1160.67   93.28
   1   7 -10  790.54   52.61
   1  -8   9  995.34   85.42
   4   7  -5  655.30  131.56
   5   1 -10  287.47   52.42
  -5  -1  10  428.99   94.57
   5   1 -10  171.39   55.44
  -2  -3  -6  213.57  103.92
   2   3   6  337.07  109.01
   2   3   6  448.87   82.17
   4   7  -6   66.51   58.05
   6  -8   2 2653.86  144.33
   6  -8   2 2421.01  120.95
   6  -2   3  915.41  113.66
   3   7  -9   21.35   39.43
  -3  -7   9  -24.49   43.11
   7  -6   0  218.13   90.90
  -5  -5   8 5524.95  287.66
   5   5  -8 4386.45  255.10
   2   9  -5  946.39  140.31
   5  -2   5  431.77   81.71
  -2  -3  11  498.04  110.48
  -2  10   0 2086.73  214.32
   2 -10   0 2527.71  152.20
   2  -1 -10  754.18   47.01
  -2   1  10 1092.12  129.25
  -2   8   4  307.81   56.81
   2  -8  -4  389.63  120.45
  -2   8   4  287.27   73.42
   7   1  -5  -25.28   70.35
   2   0   8  149.26   90.87
  -2   0  -8  122.26   70.10
   2   0   8  127.65   40.90
   0  10  -6 1981.15  167.71
  -3  -6  10 1394.03  127.76
   3   6 -10 1602.46  102.39
  -5  -2  10 2387.98  182.80
   5   2 -10 1844.29   88.57
   5   2 -10 2410.66  133.95
   6   3  -2 3361.66  199.41
   1  -5  10  108.62   58.04
   7   1  -4   25.94   53.32
   1   9  -1  117.43   96.00
  -2  -4  11   33.61   64.75
   1  -4  10   90.74   82.02
  -6   0   9  488.42  111.42
   6   0  -9  366.01   74.94
  -7   1   7   29.11   87.01
   7  -1  -7  131.37   68.59
   2   9  -6  674.79   90.17
   3   8  -7  299.38   53.44
   3   8  -7  468.58   93.83
   1   9  -8  566.90  107.40
  -1  -9   8  632.30   58.25
   0  -7  10 1481.09  115.32
   7  -5  -5 8127.97  399.98
  -7   5   5 7916.56  383.01
   0  -1  10  178.38   98.27
  -3  -3  11 4715.17  269.11
   4   6  -1  178.04   78.87
   5  -8  -4    4.09   24.07
  -5   8   4    9.03   41.60
  -5   8   4  -19.88   39.85
   2   9  -4 1443.77  167.67
   2  -7   9 1922.82  137.61
   0   7   4  119.18   84.41
   0   7   4  177.20   61.76
   0  -7  -4  160.82   79.64
  -5   0  10  741.09  130.43
   5   0 -10  795.42   72.54
   5   0 -10  855.49   76.59
  -6  -1   9  474.14   88.32
   6   1  -9  627.61   82.71
  -4  10   0 2552.46  200.10
  -5   9   2   26.89   70.97
   4   6  -9 1343.84  120.91
  -4  -6   9 1553.60  132.72
   7  -4   1   22.40   65.17
   5   0   4 2097.86  159.65
   7  -4  -6 3110.58  201.98
  -7   4   6 3123.40  174.73
   4   7  -4  -51.41   88.32
  -3  -2  11 3777.52  202.18
  -7   2   7  361.88   77.43
   7  -2  -7  208.57   85.88
   4  -7   7 2652.89  117.72
   4  -7   7 2470.65  136.78
   4  -7   7 2229.70  151.59
   4   1   5   76.76   62.99
  -6  -3   8  372.52  105.64
   6   3  -8  261.80   83.24
   7  -5   1   16.63   64.32
  -2  -2  11 1213.68  111.06
   1  -6  -6 1223.52  123.13
  -1   6   6 1061.46  117.55
  -1   6   6  763.39  110.64
   5   5  -2  175.52   75.21
   3   0   7 2629.46  212.43
   3   0   7 2383.91  135.19
  -3   0  -7 2486.16  160.69
  -3   0  -7 1882.80  106.43
   2   6   3 1259.83  152.55
   3  -9   7  141.37   33.34
   3  -9   7  118.50   46.46
  -2   3   9 3461.26  191.85
  -2   3   9 3410.96  152.15
   7   1  -6   81.90   54.96
   4   7  -7 1704.72  160.51
   6   1   1 2029.45  178.42
  -1   5   7   40.59   63.38
   1  -5  -7   40.91   60.65
  -1   5   7    8.60   53.38
  -4  10  -4 1792.85  143.26
   4  -3   7  257.55  104.33
   4  -3   7  306.01   51.56
  -4   3  -7  272.85   57.51
   7   0  -7  -29.76   54.64
  -7   0   7   63.08   69.60
  -6   1   9 1496.14  121.03
   6  -1  -9 1594.11  117.16
   4   5 -10  102.21   44.86
  -4  -5  10   59.01   69.83
  -2  -7  10  569.56   76.12
   2   7 -10  355.75   58.30
   5  -8   5  122.80   59.04
   1   7   3  805.47   98.10
  -1  -7  -3 1198.43  155.98
   1   7   3  758.87  138.29
   2   8  -9 3947.95  211.06
  -2  -8   9 4830.02  209.25
   1  -6  10  326.70   63.57
   1   0   9  119.75   67.26
   6   4  -5  259.76   78.07
  -1  -4  11  157.64   81.32
   0  10  -2 3617.44  217.29
  -3  -4  11 1745.45  120.12
   5   4   0  107.16   68.56
   7   1  -3 1571.38  125.44
   3   8  -3 1364.01  171.29
   0   3   8 1577.96  117.16
   0  -3  -8 2596.98  153.09
   0   3   8 2030.88  180.45
   0  -3  -8 1736.28  123.33
   6  -5   4 4825.91  235.68
   7  -6  -4  110.04   58.81
   6   4  -6  508.47  112.22
   1  -3  10  328.56  105.19
  -5   3   9  -26.86   58.67
   5  -3  -9   17.00   38.70
   5  -9   4 1658.43   96.37
   5  -9   4 1522.45  129.12
   6   0   2  118.33   79.05
  -1  10  -7 2144.18  147.03
  -2  -5  11  375.95   67.29
  -3   9   3  -32.42   34.22
  -3   9   3   35.90   53.40
   3  -9  -3    4.72   71.97
   6  -8  -3 1376.96  143.77
   7  -3   1 1868.38  160.64
  -5  -3  10 3501.00  226.74
   5   3 -10 3523.34  160.68
  -6   6   6   29.66   55.38
   6  -6  -6    7.89   58.76
  -1  -3  11  143.77   85.86
  -4   6   7  359.74   84.15
  -4   6   7  306.04   77.27
   6   2   0  811.27  126.52
   3   4   4  395.30   77.24
  -4   9   3 1761.87   92.00
  -4   9   3 1837.90  170.06
   2  -9   8    9.02   27.31
  -2   9  -8  -27.07   30.25
   4   5   1 4013.55  285.01
   2  -2   9 2379.56  200.03
   2   9  -7 3883.54  243.38
   6  -5  -7   -0.81   61.05
  -6   5   7  -54.79   58.09
   3  -2   8  486.95   86.08
   3  -2   8  337.29   56.84
  -3   2  -8  428.32   48.16
   1  -9  -2 1404.80  163.04
  -1   9   2 1366.47  126.02
  -1   9   2 1013.77   83.34
  -1   7   5  -14.86   50.14
  -1   7   5  -59.82   68.89
   1  -7  -5  -24.98   88.10
   6  -4   4 1758.51  131.44
   6  -6   4 4363.47  221.19
   7  -7  -1  275.28   97.36
   6   2  -9 1781.25  132.85
  -6  -2   9 1907.87  177.62
  -2  -2  -7  179.02   76.33
   2   2   7   50.24   67.89
   2   2   7  133.41   83.11
  -1  -5  11  294.28   87.59
   3   3   5  445.36  101.37
  -3  -3  -5  603.96  120.06
  -3  -1  11  897.30  131.20
   4  -9   6 1558.69   81.37
   4  -9   6 1748.14  112.26
   7  -6   1   40.21   69.92
   0  -9  -1 1212.60  116.13
   0   9   1  678.46   61.48
   0   9   1  826.85  143.47
   6   4  -4 1357.37  159.54
  -3   6   7 2553.52  166.02
  -3   6   7 2501.05  170.19
   2   9  -3  124.71   72.98
   5  -5   6  330.69   59.97
  -4   7   6  167.17   59.66
  -4   7   6  179.30   82.00
  -7   3   7   28.83   82.80
   7  -3  -7  120.80   68.78
   3 -10  -1  193.05   89.76
  -3  10   1  275.59  107.60
   7  -7  -2  578.63  117.23
  -3  10  -6 2428.11  147.56
   0  10  -7   10.29   53.43
   7   0  -1  149.17   85.83
   7  -1   0 2648.79  201.48
   1   2   8   93.04   49.85
   1   2   8  247.40   68.33
  -1  -2  -8  138.12   85.94
  -5   1  10 1022.93  113.88
   5  -1 -10 1161.82   77.20
   5  -1 -10 1297.98   99.93
   5  -6   6  319.74   60.79
  -4   5   8 1678.71  143.92
  -1   4   8  508.60   76.69
  -1   4   8  334.17   67.55
   2   8   0  319.43  117.19
   3  -8   8  367.46   48.96
   3  -8   8  507.01   64.51
  -3   7   6  216.07   61.52
  -3   7   6  169.62   62.83
   6   4  -7 1497.27  141.46
   6  -8   3 2005.86  122.74
   5   6  -6 4174.05  223.17
   3   5   3  174.43   95.17
   4   7  -3  -29.90   83.43
   6  -7  -5  557.32   99.78
  -6   7   5  338.51   78.85
   3   8  -8  673.23  104.42
   7  -7   0  119.19   78.09
   5   6  -5  488.33  120.40
   4   2 -11   68.63   33.84
  -4  -2  11  108.49   59.16
   3   7   0 1334.10  177.06
  -2  -1  11  432.49   80.51
   7   1  -7  -21.79   61.57
  -3   2  10  616.25  118.31
   3  -2 -10  609.34   61.06
  -3   5   8  386.47   77.06
  -3   5   8  294.78   90.56
  -2  10  -7  243.47   61.93
   5  -4   6   22.57   42.63
  -1  10   0   82.06   60.42
   1 -10   0  -29.36   55.08
   6  -2  -9 3311.92  175.17
  -6   2   9 3181.17  219.80
  -4   2  10 1162.72  141.30
   4  -2 -10 1244.33   79.47
  -4  10   1 1955.32  195.66
   1  10  -5  103.74   81.71
   4   7  -8  758.11  111.97
   6  -9   0 2483.14  193.84
  -1  -2  11  764.64  128.14
  -4  -3  11   53.72   67.69
   4   3 -11   13.20   24.47
  -6   4   8  629.17  111.58
   6  -4  -8  670.14   94.49
   6  -1   3   66.79   69.64
  -3  -5  11  315.01   92.75
  -5  10  -1   15.47   68.38
   1  -7  10 1177.90  110.39
   5   5  -9  341.66   76.40
  -5  -5   9  314.72   97.66
   6  -9   1 2849.33  201.65
  -5   6   7  538.88   94.11
   5  -6  -7  764.96   99.55
   0  -9   9 1172.16   88.86
   0   9  -9  717.04   73.73
   0   8   3  -37.47   64.98
   0  -8  -3    6.48   76.55
   0   8   3   11.18   45.32
   1  10  -4  116.68   67.31
   4  -8   7   47.27   47.74
   4  -8   7   65.61   44.94
  -4  -1  11  143.52   66.23
  -5  10  -2  484.35   79.50
   6  -3   4  393.02   85.33
   2  -8   9  289.36   61.93
   7   1  -2  295.58  107.19
  -1   1  10  592.92  125.71
   5   6  -7  641.49   85.91
   3   2   6 1725.52  139.59
   3   2   6 1734.73  138.05
  -3  -2  -6 1787.63  161.54
  -2   9   3   80.82   86.65
  -2   9   3   47.39   43.28
   2  -9  -3  176.08   68.77
   7  -2   1 3202.81  213.66
   7  -7  -3   53.61   77.50
   5  -1   5    4.60   47.08
   6  -7   4  230.22   73.72
  -4   0  -6  -12.37   49.80
   4   0   6   -7.13   46.25
   1  10  -6  243.18   87.05
   6   3  -1 1253.92  156.28
   2 -10  -1   38.16   84.08
  -2  10   1  153.34   92.08
  -4  10  -5   52.89   41.82
   2   7   2  105.32   91.12
   1  -2  10  177.70   96.57
  -1  -6  11   -5.80   49.72
   5  -7   6 1390.02  125.81
   5  -7   6 1410.80  101.02
  -5   7   6 3539.67  186.42
  -5   7   6 3616.64  186.77
   5   6  -4 2928.31  228.03
   7   2  -5   97.00   59.99
  -4   8   5  -47.78   64.89
  -4   8   5   39.62   40.93
  -4   2  -7   90.13   45.94
   4  -2   7  134.45   87.34
   4  -2   7   12.44   46.81
   6  -9  -1   32.12   54.03
   7  -5  -6 1045.23  104.93
  -7   5   6 1420.95  131.26
   6   4  -3  800.10  106.76
  -2  -6  11 1785.25  144.43
  -5   9   3  432.88   76.33
  -5   9   3  190.69   48.84
  -2  11  -4  592.63  124.04
   2 -11   4  734.24   87.96
   2 -11   3 2920.05  184.78
  -2  11  -3 2770.90  230.98
  -5  10   0  201.07   92.95
   7  -1  -8   66.90   59.13
  -7   1   8   22.07   58.02
  -5  -4  10 2694.65  160.96
   5   4 -10 2548.92  168.74
  -1  -8  10  220.49   58.31
   1   8 -10  142.22   36.44
  -5   5   8  264.05   66.85
   5  -5  -8  396.89   76.26
   0  10  -1 1825.08  152.41
   3   8  -2  314.34  118.91
  -1   8   4 2015.42  157.56
  -1   8   4 2558.90  199.67
   1  -8  -4 2559.40  226.35
   0  -8  10 2323.39  135.24
   1   9   0 2840.41  137.12
   1   9   0 3092.97  240.37
   7   2  -6   64.68   76.88
  -3   8   5  868.75   80.70
  -3   8   5  763.28  132.35
   2   9  -8   -7.28   51.60
   0   0  10   92.95   93.60
   7  -6  -5 4931.03  245.60
  -7   6   5 5369.28  278.97
  -7   0   8  106.91   91.57
   7   0  -8   87.54   66.22
   7   2  -4   47.49   77.40
   7  -7   1  312.85   93.49
  -4   4   9  244.68   88.54
   4  -4  -9  284.95   62.42
   7  -5   2   38.08   63.78
  -3   0  11  140.05   91.20
  -1   9  -9 3307.68  152.64
   1  -9   9 3002.17  137.93
   6   3  -9 1360.50  122.00
  -6  -3   9 1365.35  162.23
   0  -4  11 4201.99  267.74
  -3  11  -3  391.81  100.92
   3 -11   3  248.37   77.16
   1   9  -9  -56.13   47.29
  -1  -9   9   22.28   32.54
   0  -5  11 4030.54  205.05
   4   4 -11  135.44   37.69
  -4  -4  11  243.31   85.33
   5   5  -1  169.49   98.93
   6  -9   2  788.47  112.54
   1   8   2 2542.25  154.85
   1   8   2 2885.57  226.42
  -3  -7  10  662.26  116.56
   3   7 -10 3141.64  154.90
   0   2   9 1861.33  163.63
   0   2   9 1251.45   94.39
   7  -4   2   44.86   49.72
  -2   6   7  190.38   80.83
  -2   6   7  267.87   79.95
   2   9  -2  768.36  147.16
   5 -10   3  365.59   95.51
   7  -4  -7  155.02   52.77
  -7   4   7   22.42   57.49
   3   6   2  669.96  138.90
  -5   3  -6  -24.17   35.32
   5  -3   6   29.38   39.99
   6   4  -8    3.93   51.86
  -2   2  10 1427.45  157.31
   2  -2 -10 1320.83   65.88
   1  10  -3  498.77  122.03
  -3   4   9  247.58   68.18
  -3   4   9  515.60  101.81
  -3  11  -2 2279.68  197.80
   3 -11   2 2204.91  142.70
  -7   2   8  378.50  102.70
   7  -2  -8  273.71   61.29
   6  -8  -4  497.54  100.17
  -6   8   4  299.29   68.72
   2 -11   5  559.16   85.47
  -2  11  -5  733.19  110.28
   5   2   3 1085.93  146.43
   4   6   0 1531.60  142.13
  -1   3   9   17.14   30.50
  -1   3   9  -65.37   59.66
  -3  11  -4 2420.86  183.50
   3 -11   4 2403.27  133.34
   2 -11   2   13.92   61.33
  -2  11  -2   74.21   81.99
  -1  11  -4   66.37   82.93
   5  -9   5 1227.38  100.67
   5  -9   5 1769.68  123.80
   2  -7  -6    5.75   59.80
  -2   7   6   96.34   60.32
  -2   7   6  -83.23   47.07
  -4  -6  10   49.86   65.66
   4   6 -10   53.12   49.43
   5   3   2    7.57   69.09
  -4   0  11  834.93  128.48
   7  -6   2   50.62   51.66
   1  10  -7    8.79   56.81
   2  -1   9 1527.97  175.14
  -5   2  10  741.13  125.18
   5  -2 -10  741.72   73.63
   2   1   8  -14.08   50.79
   2   1   8   43.38   41.72
  -2  -1  -8  -72.06   55.53
  -1  10  -8   15.31   40.96
   0  -3  11 1775.24  143.06
  -2   5   8 2019.12  164.98
  -2   5   8 1888.31  142.34
  -1  11  -5  500.08  114.89
   5   6  -8 2277.12  170.35
  -5   8   5 1876.14  135.03
  -5   8   5 1659.21  119.07
  -3   1  -8   76.74   51.38
   3  -1   8   51.95   81.64
   3  -1   8   14.29   38.89
   3  -5   9   -8.26   44.79
   0  10  -8 1359.70  141.37
   4   7  -2  334.09   91.65
   6  -9  -2 2968.00  218.83
  -1  -1  11 1669.74  186.38
   7   2  -7  180.98   62.04
   7   1  -8  500.03   93.70
  -7  -1   8  513.98   97.83
  -1  11  -3  276.99  108.39
   0  -6  11 1610.34  142.79
   3  -6   9  140.14   76.79
  -2   0  11 -148.85   93.10
   6  -3  -9 5161.09  264.05
  -6   3   9 4256.18  225.19
  -5  10   1  202.85  101.81
   7  -7  -4 1599.61  160.10
   5   6  -3 1092.75  125.16
   3   8  -9   77.65   62.74
  -3  -8   9  215.27   62.95
   7   2  -3  162.46   97.19
   5   1   4   68.20   56.72
   7  -3   2   25.08   64.34
   7   0   0 5109.70  250.26
   4   3   4  952.18  140.33
   5  -4  -9  159.23   60.03
  -5   4   9  133.55   83.93
   6   1 -10 1676.74  115.88
  -6  -1  10 1496.41  172.20
  -2  -8  10   91.54   51.89
   2   8 -10   50.45   43.43
   8  -3  -4  198.06   90.59
   8  -3  -3  265.26  100.94
   4   7  -9 1205.25  122.10
  -4  -7   9 1442.79  131.97
   6  -2   4  364.86   83.75
  -6   0  10 4215.96  277.21
   6   0 -10 4735.74  210.12
   7  -8  -1  -64.27   76.66
   5  -8   6 1894.68  138.47
   5  -8   6 1460.99  115.21
   1   1   9 1989.77  158.99
  -3  -6  11   -0.98   50.47
   3 -10  -2  209.97   99.03
  -3  10   2  200.62  105.98
  -1  -5  -6  187.13  103.58
   1   5   6  238.03   79.82
   1   5   6  142.12   84.11
   3   1   7 1374.00  161.33
   3   1   7  842.36  125.59
  -3  -1  -7 1374.81  128.36
   6  -8   4  114.02   66.96
  -3  11  -1  -46.97   82.78
   3 -11   1   95.30   60.14
   4   4   3  830.00  141.80
  -3  10  -7  -27.99   42.49
   8  -4  -3  867.59  133.78
   3  -4   9  137.11   63.50
   3  -9   8 1242.15   86.04
   3  -9   8 1366.25   98.01
   2  -5  10 1670.71  157.29
  -4  10   2  707.51  137.95
   1  -8  10  289.41   62.08
   7  -8   0  297.92   97.80
   4  -5   8  228.24   95.25
   8  -2  -4  -17.78   69.59
   6   1   2  311.66  101.83
   4  -6   8 1299.91  114.53
   4  -6   8 1597.16   93.27
   5   4   1  303.92   85.60
  -3  11  -5  341.61   86.72
   7  -1   1 1583.59  127.13
  -1  -7  11   79.77   58.00
  -1  -6  -5 1554.68  164.46
   1   6   5  685.65  135.21
   1   6   5 1069.25  120.36
   7   1  -1 1636.31  176.01
   6   2   1 1928.83  180.80
  -4   9   4 1527.42  166.05
  -4   9   4 1444.55   94.72
   8  -4  -4  147.72   88.61
   6   4  -2 1865.24  192.73
   2  -6  10  478.61  102.01
  -7   3   8 1395.46  167.47
   7  -3  -8 1642.51  138.14
   6  -9   3 1826.52  121.09
  -4  11  -2  664.50  125.65
  -1  11  -6  112.87   78.72
   2  -8  -5  653.37   98.22
  -2   8   5  311.46   68.73
  -2   8   5  252.07  105.39
  -5  -2  11 1227.61  122.29
   5   2 -11 1501.03   90.65
   5 -10   4  639.45   76.72
  -5  -1  11 2803.39  171.05
   5   1 -11 2755.24  125.42
   8  -4  -2 1753.38  170.04
  -2  11  -6  419.51   73.34
   7  -8  -2    2.26   63.04
   1  -1  10 1664.65  177.52
   4   2   5   16.59   57.97
   8  -2  -3  175.77   89.12
  -4  11  -3 -108.84   79.56
  -6  -2  10   38.35   74.78
   6   2 -10  -40.83   46.01
   3  -7   9   16.49   52.73
   0   6   6  -17.45   61.88
   0  -6  -6   54.58   84.34
   0   6   6   35.75   58.23
   2 -11   1 1919.75  161.43
  -2  11  -1 1595.61  194.55
   1   4   7   21.75   49.95
  -1  -4  -7   19.31   73.60
   1   4   7   13.46   69.17
  -4  -5  11 1299.42  108.01
   4   5 -11 1149.53   95.24
   2  -4  10 2519.32  208.54
   8  -3  -5   10.36   67.74
   7  -7   2   74.44   72.97
   8  -2  -5  566.30  116.93
   4  -9   7  309.35   54.09
   4  -9   7  130.71   46.86
  -1  10   1  225.36   98.36
   1 -10  -1   32.03   98.65
  -6   6   7   65.66   50.63
   6  -6  -7  -61.18   55.09
  -3   9   4 1344.73  106.30
  -3   9   4 1610.08  136.65
   3  -9  -4 1786.36  140.48
   8  -3  -2  267.51   99.56
  -2  -5  -5 1448.26  170.78
   2   5   5  949.17  142.10
   2   5   5 1296.07  149.33
   1  10  -2 -124.41   71.55
   0  -5  -7  548.35  132.35
   0   5   7  531.28   92.50
   0   5   7  427.23  104.47
   4 -10   6  538.25   79.05
  -2  10  -8   63.69   45.33
   6   5  -6   30.06   75.87
   1 -11   2   93.07   81.72
  -1  11  -2   55.14   91.66
   6  -5   5  161.01   64.09
  -2   4   9 4043.03  218.73
  -2   4   9 4248.52  227.80
   6  -1 -10 4745.02  213.33
  -6   1  10 3880.78  223.73
  -2  -7  11 2038.31  158.37
   2   4   6  309.85  107.51
   2   4   6  182.90   86.16
  -2  -4  -6  454.05   82.44
   0  -2  11  111.50   90.53
   0   9   2  236.63   52.02
   0  -9  -2  375.85  120.34
   0   9   2  340.54  111.23
   6  -6   5  156.85   66.36
   3   9  -6 1586.87  171.25
  -4   3  10 1639.73  132.18
   4  -3 -10 2006.50  112.34
   2  -9   9  369.28   66.93
   4  -4   8  549.27  122.02
   6   5  -5  462.37  123.27
  -6   7   6  112.32   60.66
   6  -7  -6   39.40   71.31
   8  -5  -3  405.18   82.40
   4  -1   7  369.75  105.99
  -4   1  -7  180.61   64.68
   4  -1   7  195.18   74.94
  -1   9   3 2774.36  226.08
   1  -9  -3 3483.40  253.59
  -1   9   3 2196.37  130.65
   6   0   3   52.65   51.92
  -4  11  -1   75.92   82.58
   5   5 -10 1070.05  102.03
  -5  -5  10 1217.00  141.96
   2   8   1  -47.42   63.29
  -5   2  -6  917.12  101.53
   5  -2   6  850.05   94.78
  -2  -9   9 2370.69  129.63
   2   9  -9 2025.76  157.43
   3   9  -5  -52.83   61.99
   4  -7   8 1859.51  156.39
   4  -7   8 2398.03  102.54
   7  -8   1 1156.41  138.35
   8  -5  -2 3155.18  230.48
   4   5   2  140.12   96.90
   4   8  -6   18.16   55.47
  -5  -3  11   23.47   78.13
   5   3 -11   65.25   48.86
   1  10  -8 1102.57  121.98
  -3   1  11 1469.47  165.45
   6  -5  -8   15.37   59.30
  -6   5   8   71.96   65.89
   3   8  -1 3600.69  234.41
   0  10   0  100.35   95.30
  -6  -4   9  137.16   64.32
   6   4  -9   84.28   67.03
   0  -7  11    4.24   47.89
   3  -3 -10   78.14   41.27
  -3   3  10  163.83   86.77
   6   3   0 3079.04  240.42
   0  11  -5  101.39   86.14
  -4   1  11 1976.40  148.32
   6   5  -7 1002.44  105.33
   8  -1  -4  171.15   93.60
   3   7   1  997.60  164.34
   7   2  -8  608.26  106.14
   5   0 -11 2034.55  103.44
  -5   0  11 1765.68  181.11
   0   7   5 1256.26  120.74
   0   7   5 1274.29  148.34
   0  -7  -5 1322.86  138.80
   4   8  -5 2799.44  198.02
   8  -4  -5  317.01  102.88
   7  -6  -6  -76.22   74.88
  -7   6   6  -42.06   65.60
   8  -1  -5  776.55  130.80
  -4  11  -4 1088.14  124.97
  -2  -6  -4 3598.41  276.44
   2   6   4 3159.81  249.15
   2   6   4 3595.70  228.32
   5   0   5 1846.97  148.20
  -2  10   2 1255.40  177.82
   2 -10  -2 1673.58  170.07
   2  -7  10  -53.52   59.46
   2   9  -1  210.85  112.62
   0  11  -4  381.00   92.69
   1   7   4  215.77   74.95
  -1  -7  -4  388.71  124.23
   1   7   4  401.41  101.56
   3  -3   9  138.66   93.47
   6  -4   5  838.61   94.30
  -7   5   7 1193.87  135.31
   7  -5  -7 1185.43  132.20
  -5   9   4 1057.65  139.88
  -5   9   4  834.52   78.08
   3   9  -7  160.12   84.43
   5   6  -9 1241.20  126.08
  -5  -6   9 1618.42  145.85
   6  -9  -3  224.85   96.59
   7  -2   2  -29.80   66.99
   8  -5  -4 1871.22  170.97
   4   8  -7  272.98   97.86
   8  -2  -2   16.51   70.00
   7   2  -2  -25.22   79.91
   8  -4  -1   96.89   82.86
   7   3  -6  971.23  106.53
   7   3  -5   -6.31   50.87
   0  -4  -8 1980.88  197.82
   0   4   8 2039.80  176.90
   0   4   8 1699.92  133.95
   8  -2  -6  464.82  107.55
   7   0  -9   31.11   53.19
  -7   0   9  -17.38   77.07
  -5  10   2  128.89   97.72
   7  -8  -3  162.58   92.76
   6  -7   5 1831.98  136.20
  -3  11   0  360.56  114.38
   3 -11   0  221.18   93.20
   7  -1  -9    7.01   51.70
  -7   1   9  -33.95   54.12
   0  11  -6 1535.11  127.61
   2  -3  10 1585.15  177.54
   6   5  -4  363.26  118.52
  -1   2  10  808.13  141.43
  -2  -4  12 2222.66  185.75
   3   9  -4   38.69   88.01
   2   3   7  867.41  102.48
   2   3   7  625.49   98.42
  -2  -3  -7 1011.12  129.69
  -3  -3  12  250.24   97.10
   8  -1  -3   98.21   86.81
   8  -5  -1   63.09   59.69
   7  -5   3   16.79   42.84
   5   6  -2  241.18  115.31
  -6  -3  10  194.33   95.26
   6   3 -10   98.62   63.45
   0  -9  10 2019.64  122.35
  -2  -3  12 1344.56  121.24
   8  -3  -6  -23.40   68.89
   1   3   8  290.80   80.37
   1   3   8  176.64   67.29
  -1  -3  -8  402.22  103.64
   0   1  10   24.88   79.46
   4   1   6   72.02   62.67
  -4  -1  -6   82.52   72.56
   7  -7  -5 1256.72  140.46
  -7   7   5 1140.21  125.08
   8  -3  -1  160.92   90.77
  -3  11  -6 2247.06  156.35
   1  -5  11   35.20   72.11
   1   9   1   42.98   43.00
   1   9   1  -71.73   52.58
  -1  11  -7 1737.88  144.96
  -1   0  11 2777.45  191.28
   5   5   0  370.78  126.41
   2  10  -6   36.87   76.06
   2  10  -5 2503.89  221.74
  -4   7   7  736.44  114.19
  -4   7   7  670.31   95.03
   6  -8  -5 1000.29  128.42
  -6   8   5  711.27   93.51
  -5   3  10   45.59   80.71
   5  -3 -10   98.94   59.64
   8  -1  -6 1690.67  169.39
  -3  -4  12 1146.95  137.72
  -4   6   8   77.21   72.07
  -4   6   8  177.16   71.51
   7  -6   3  142.32   76.50
  -1   6   7  306.20   83.55
   1  -6  -7  349.75  111.44
  -1   6   7  121.52   82.81
   5  -6   7  -12.13   59.84
   5  -6   7   12.94   42.83
   3  -8   9  346.65   76.82
   6 -10   1 2177.85  143.21
  -4  11   0 1405.52  173.65
   5  -5   7  224.55   73.44
   5  -5   7  265.51   56.50
   4   7  -1   54.96   70.25
   4   8  -4    6.81   79.31
   0  11  -3  218.24  107.34
   1   9 -10  494.99   77.18
  -1  -9  10  776.13   74.29
   7   1  -9    1.65   47.98
  -7  -1   9   -1.37   67.78
   7   3  -7  185.24   86.48
   7   3  -4  184.74  100.85
  -3  -2  12  429.21  111.57
   6 -10   0 1294.23  155.91
   7  -4   3  402.65   90.35
   4  -3   8 2361.51  211.57
  -6   2  10 1786.04  150.11
   6  -2 -10 2231.97  133.93
   1  -4  11   95.06   64.94
   8  -6  -2 1791.01  140.50
   2  -9  -4  876.22  146.37
  -2   9   4  612.25  125.55
  -2   9   4  533.70   65.03
  -2  -5  12 1338.19  142.52
   0  10  -9  980.15   90.84
   3   4   5  608.78  128.77
  -3  -4  -5 1405.39  146.16
   3   4   5  640.46  101.73
  -7   4   8  598.84   93.69
   7  -4  -8  959.37  105.93
   5  -9   6  803.28   88.35
   5  -9   6  794.41   89.80
   1  -6  11  236.35   86.49
   6   5  -8  -16.16   44.74
  -2   1  11  135.74   67.21
   1  -7  -6 1646.86  197.12
  -1   7   6 1447.60  133.22
  -1   7   6 1448.19  157.51
  -2   0  -9  391.23   67.92
   2   0   9  372.24  117.43
  -6   4   9  696.33  120.52
   6  -4  -9  961.78  100.36
   5   4 -11   96.65   48.73
  -5  -4  11  126.21   84.82
   4  -8   8 1394.79   81.69
   4  -8   8 1343.33  115.31
  -2  11  -7  -51.28   55.05
   6  -1   4  386.19   93.80
   1 -11   1  459.10  116.56
  -1  11  -1  451.66  135.36
   8  -6  -3  474.01   89.82
   7  -8   2   86.96   54.14
   5   7  -6 1863.58  195.32
  -7   2   9  161.46   98.72
   7  -2  -9  246.29   75.37
   6  -9   4  -18.08   57.95
   3   5   4   -7.95   65.97
   1  -5  -8  -72.90   60.65
  -1   5   8   33.65   62.02
  -1   5   8   61.71   49.58
  -2  11   0  774.26  150.57
   2 -11   0  886.28  136.36
   4   8  -8 1293.58  141.16
   5 -10   5 3475.05  199.76
  -1  10  -9 3959.30  190.82
   3   9  -8   88.45   71.07
  -3  -8  10  147.01   62.54
   3   8 -10   58.58   55.94
   3   0   8   84.32   75.26
  -3   0  -8  248.68   75.48
   2  10  -7 2997.26  214.50
   2  10  -4  533.34  130.38
  -4  -7  10  426.15   92.07
   4   7 -10  254.29   75.78
   6 -10   2   36.70   70.29
  -3   7   7 1383.46  115.65
  -3   7   7 1197.33  119.86
   8  -5  -5 1154.92  111.22
   5  -7   7  438.45   96.78
   5  -7   7  508.51   81.34
  -5   7   7  131.83   68.42
  -2  -2  12  418.52  119.48
  -3  -7  11   41.20   59.76
   8   0  -5   75.00   81.38
   5  -1 -11  991.05   87.88
  -5   1  11  734.44  140.63
  -4   8   6   94.25   72.12
  -4   8   6   22.53   48.95
   6  -3   5 2621.10  165.35
   0  -8  -4   55.35  122.77
   0   8   4  251.84   95.79
   0   8   4  177.51   63.22
  -4  11  -5   -0.16   45.85
   2   7   3  126.60   66.36
   2   7   3   50.81   64.59
  -3   6   8  626.17  106.94
  -3   6   8  575.45  100.54
   5  -6  -8 1215.92  115.93
  -5   6   8  654.32  117.29
   8  -6  -1  929.91  142.84
  -1  -4  12  199.38   89.45
   4   6   1  932.20  167.61
   5   7  -7 1580.35  166.98
  -2   3  10 1741.15  143.51
   8  -4  -6  146.95   85.72
  -1  -8  11   74.80   56.51
   5   7  -5   60.66   67.43
   0  -1  11  130.01   74.91
   6   4  -1  231.54  114.33
   0  11  -7   68.79   71.20
   3   3   6 1335.05  143.48
   3   3   6 1567.64  176.95
  -3  -3  -6 2022.76  172.73
   1  10  -1 1067.75  170.11
   8   0  -4 1753.00  184.00
   1  -9  10   72.46   43.35
   4   6 -11 1036.22   98.51
  -4  -6  11 1155.72  132.09
   4  -5  -9 1762.37  125.33
  -4   5   9 1735.64  128.10
   5  -4   7   38.89   58.12
   5  -4   7  172.40   64.91
  -1  -5  12   83.95   75.46
   7   0   1  493.04  113.12
   7  -7   3 1160.41  127.46
   2  -8  10   67.11   53.05
  -4  10   3 4238.43  285.79
  -3  -5  12  370.76   95.16
   7   1   0 2376.47  205.98
   8  -1  -2  105.03   87.48
   6 -10  -1 1766.87  134.86
  -5  11  -2 1182.48  146.68
   8  -2  -1  278.22  103.11
  -4  -3  12   60.22   79.44
   6  -8   5 1261.04  118.48
  -4  -2  12  -87.05   85.83
   8   0  -6 2999.68  227.47
   3   9  -3   75.40   73.27
   6   5  -3  376.69   90.57
  -5  11  -1   87.70   85.23
   8  -5   0 1021.50  142.38
   8  -4   0 1646.77  164.05
   1   8   3  -16.49   41.36
  -1  -8  -3  -50.17   66.60
   1   8   3   86.10   67.92
   8  -2  -7  268.66   92.35
   0   3   9  664.01  130.85
   8  -6  -4 1112.74  145.45
   3 -10  -3  184.68  104.93
  -3  10   3  247.89   80.80
   1  -3  11    9.16   53.84
  -1  -3  12 1765.20  178.79
   0  -8  11  747.33   87.74
   3  -2   9  572.08   98.16
  -3  -1  12 2430.43  171.00
   3 -10   8 1826.83  112.14
   1   0  10 2418.55  212.12
   7  -9   0   71.55   80.33
  -3   8   6  284.32   71.96
  -3   8   6  471.68  102.86
   1  -7  11 1029.67  113.28
  -5   8   6  760.84  118.94
  -5   8   6  472.45   99.14
   7  -8  -4 1500.65  159.32
   8  -1  -7  450.71  105.00
   1  10  -9   49.85   57.18
   7  -3   3  378.29   95.63
  -1   8   5  389.65  119.12
   1  -8  -5  624.05  113.12
  -1   8   5  461.37   83.13
   7   2  -9  140.33   69.38
  -7  -2   9   49.47   70.37
   7  -9  -1  622.94  122.75
   2   2   8  -30.32   43.10
   2   2   8  -77.74   77.31
  -2  -2  -8   24.67   69.18
   7   3  -8  624.41  106.01
   7   3  -3  108.60   94.16
   3   6   3   52.23   84.01
   2  -2  10  351.90  117.64
  -5  11  -3 1260.36  109.00
   5  -1   6 1843.38  148.26
  -5   1  -6 1754.11  165.85
  -2  -6  12  346.10   89.69
  -3   5   9  116.29   60.80
  -3   5   9  166.80   81.25
   0  11  -2 2491.76  231.26
  -5   5   9  863.50   94.71
   5  -5  -9  913.71   95.73
   4   8  -3  153.90  110.14
   4 -10   7  248.96   71.54
   7  -1   2  128.49   86.03
  -4  -4  12  271.27   98.33
  -2  -8  11 1160.49  112.05
   8   0  -3  -84.70   88.72
  -4   2  11 1162.19  152.83
   5   3   3   34.72   79.34
   5   7  -8  171.51   65.72
  -8   3   7 1210.99  125.38
   8  -3  -7 1242.37  106.29
  -1   4   9  -32.30   45.74
  -1   4   9  -30.81   53.93
   5   7  -4 2921.35  197.01
   6 -10   3  417.91   96.75
   7   2  -1 1381.72  161.28
  -4  -1  12  133.16   66.31
  -1  -6  12  -56.28   64.65
  -6  -4  10  120.88   90.77
   6   4 -10  168.45   65.40
   2   9 -10  312.57   75.90
  -2  -9  10  654.25   78.07
  -6   9   4 1062.93   94.36
   6  -9  -4 1133.29  111.19
   3 -11  -1   16.24   76.22
  -3  11   1   50.38   87.44
   8  -6   0  689.56  128.24
   8  -3   0  811.83  128.23
   7  -9   1  943.45  134.39
   2  10  -8  254.45   85.56
   2  10  -3  424.84  130.80
  -5  -6  10  389.19   94.20
   5   6 -10  208.44   72.51
  -4  11   1  -88.35   69.45
   5  -8   7 1867.99  112.78
   5  -8   7 1665.34  136.87
  -1  10   2  338.39  118.04
   1 -10  -2  306.44  125.51
  -5  11   0  193.89   74.63
  -1  -2  -9 4268.55  264.93
   1   2   9 3928.85  280.76
   5   2   4  385.29  106.65
  -7   3   9   61.43   59.10
   7  -3  -9   32.44   60.96
  -3   2  11 2408.37  209.89
  -5  10   3  138.19   94.58
  -4   0  -7  414.36   81.68
   4   0   7  266.69   76.22
   4   0   7  414.76  124.37
  -6  -1  11  962.77  158.71
   6   1 -11 1257.37   95.69
   6   5  -9   36.39   62.14
  -1  11  -8  512.91   80.54
   3   8   0  -60.84   98.90
  -2  -1  12    1.47   65.09
   6   2   2  238.69   99.61
  -4   9   5  100.50   88.15
  -4   9   5  124.13   61.45
   8  -7  -2  898.92  139.48
   7  -9  -2  398.50  111.30
   8   0  -7 1802.37  169.45
   3   2   7  123.12   67.65
   3   2   7   43.44   98.06
  -3  -2  -7  231.08   84.57
   0  10   1 1979.18  218.32
   0 -10  -1 2253.29  232.46
   1  11  -5   54.13   82.09
   4   8  -9   89.67   69.31
  -3  11  -7  399.60   76.53
   5   4   2   34.34   80.45
   3  -9   9  462.63   67.29
   2   9   0  777.32  115.48
   4  -2   8 3846.95  233.98
   1  11  -6  981.49  140.52
   5  -3   7   49.35   45.22
  -5  -5  11  321.34   75.64
   5   5 -11  319.86   79.00
   8  -7  -1 1724.36  178.34
   3   9  -9    1.44   47.57
   7  -6  -7 2909.22  196.98
  -7   6   7 2357.02  188.18
   6 -10  -2 2081.27  150.30
   6  -3 -10   14.99   44.02
  -6   3  10  -69.00   68.72
   6   2 -11  282.78   76.94
  -6  -2  11  292.58  113.07
   5   6  -1  764.63  157.38
   6   1   3   25.66   70.03
   6   0 -11  557.20   71.85
  -6   0  11  575.61   96.73
   8  -5  -6  -20.62   70.18
  -1  -2  12 2275.85  208.49
   4  -9   8   56.55   43.96
   4  -4 -10 1541.65  121.46
  -4   4  10 1346.89  151.41
   7  -8   3  994.46   96.11
   0  11  -8  145.47   75.21
  -3  -6  12  199.96   83.82
   8  -7  -3 2456.51  204.84
  -2  12  -4  527.51  132.87
   2 -12   4  652.92  114.13
   6   3   1 1749.82  183.70
   5 -11   4  -33.89   65.27
   6  -2   5 2080.81  156.96
  -2   7   7  340.96   87.57
   2  -7  -7  551.96  109.07
  -2   7   7  444.97  101.10
  -7   7   6  540.41  100.06
   7  -7  -6  643.04  121.04
  -6   7   7  148.44   69.52
   6  -7  -7  183.80   80.34
   8  -6  -5 1096.59  142.86
  -2   6   8 1771.52  155.58
  -2   6   8 1307.36  140.84
   8   1  -5  925.69  146.92
   1  11  -4   63.18   89.25
   1 -11   0   66.80   62.67
  -1  11   0   18.92   92.68
  -6   6   8    4.95   58.79
   6  -6  -8   25.07   56.92
  -5   2  11    0.58   62.24
  -3  12  -3  -58.63   76.77
   3 -12   3   72.89   61.16
   8  -1  -1   38.69   79.26
   3  -9  -5  200.30   55.65
  -3   9   5  233.18   54.56
  -3   9   5  332.39  103.45
  -5   9   5  321.13   80.96
  -5   9   5  531.59  114.93
  -7   5   8  573.25   81.76
   7  -5  -8  502.10   98.29
   2   8   2  119.01   74.08
   2   8   2  -39.63   45.37
   8   1  -6  980.78  141.15
   2 -10  -3  341.34  116.88
  -2  10   3  263.67  115.78
   0   9   3   33.66   84.17
   0  -9  -3  -16.20   96.46
   0   9   3   44.42   41.13
  -3  12  -4 1336.56  150.38
   2 -12   3  687.50  132.57
  -2  12  -3  756.51  108.87
  -1   1  11 1660.83  186.72
   0  -5  12 2057.61  148.57
  -2  11  -8   -3.75   39.22
   1  -2  11  364.87  119.28
  -7   0  10  127.04   69.07
   7   0 -10   78.82   61.52
   5   1   5 2902.01  207.14
   4   4   4  515.01  120.48
  -2  12  -5  -80.72   77.09
  -8   4   7  390.42  117.29
   8  -4  -7  509.72  106.38
   7   4  -6  508.48  100.19
  -4  -5  12  100.95   78.56
   6  -6   6  795.24  109.89
   7  -9   2  508.43  109.50
   1  11  -7  242.05   90.39
   1  -8  11 2269.84  178.35
  -3   0  12 3107.65  257.36
   2 -11  -1  491.14  119.97
  -2  11   1  464.95  138.52
   0  -4  12   14.66   54.79
   3   9  -2  598.19  114.00
   4   3   5  206.75   92.80
  -3   4  10   -8.10   67.45
   6   6  -6    2.64   50.85
   8   0  -2    8.02   70.99
   8  -5   1  880.93  126.32
   7  -2   3  470.56  103.37
   5  -4 -10  130.45   58.09
  -5   4  10  218.29   64.74
  -4   0  12  270.41   77.69
   6  -9   5  -76.93   62.53
   8   1  -4 1688.24  179.40
   8  -7   0  407.04  111.73
   6  -5   6 1661.91  124.45
   5 -10   6   -9.24   47.79
   6   5  -2  176.24   83.59
   8  -2   0  177.83   95.24
   3   7   2 1006.95  128.16
  -1   9   4  -59.28   45.64
  -1   9   4  -18.29   84.24
   1  -9  -4  -93.98   97.18
   4   7   0  158.03   87.30
  -7  -1  10  190.12   77.46
   7   1 -10  153.46   69.57
   2  -9  10   58.22   45.01
   7   4  -5  162.22   73.97
   3  -6  10   -7.41   62.35
  -5  -2  12 1374.15  133.16
   7  -6   4   89.87   66.42
   5   7  -9  555.97  106.59
  -1  -7  12   72.19   62.35
   8  -1  -8 2215.68  166.41
  -8   1   8 1847.03  158.82
   7  -1 -10    7.68   52.14
  -7   1  10   84.79   79.78
   7  -5   4  -14.71   56.78
  -5  11   1   82.63   69.68
   3 -12   2 3656.68  214.09
  -3  12  -2 3756.57  285.00
   7   4  -7  677.23  128.14
  -2   8   6  -26.59   45.61
  -2   8   6  -48.64   68.12
   2  -8  -6  252.56   85.88
   7   3  -9  267.54   87.82
  -7  -3   9  238.43   81.85
   6  -8  -6  105.94   76.45
  -6   8   6   81.95   61.04
   7   3  -2   77.40   92.50
   6   6  -7  220.11   97.74
   5   7  -3  -69.69   71.84
   0  -6  12 3214.83  219.78
  -6  -3  11   28.02   54.62
   6   3 -11    3.54   44.55
   3  -5  10  150.32   89.12
  -2  -7  12   11.05   55.18
   8  -4   1    2.88   62.63
   8  -2  -8 3261.05  203.73
  -8   2   8 3002.84  245.64
   6  -1 -11   31.70   44.50
  -6   1  11  101.09   81.58
   6   0   4  330.09   95.19
   0   0  11  139.38   78.51
   6  -7   6  343.30   70.32
   7  -9  -3   26.29   74.11
   4   5   3 1457.66  143.67
  -2   5   9 1856.17  147.15
  -2   5   9 2494.02  189.75
   5   5   1  244.30  112.91
   6 -10   4   68.70   66.85
   8  -6   1 1821.55  173.01
   4  -6   9  427.01  105.27
   6  -5  -9   -0.90   51.98
  -6   5   9   12.01   42.88
  -2   2  11  122.45   91.94
   0  11  -1  219.42  116.15
   6   6  -5  382.71  126.02
  -3  12  -5 1028.23  124.68
  -5  -1  12  493.35   96.78
   0   2  10   14.65   76.85
  -5  -3  12  996.00  111.34
   1  10   0 1195.11  176.47
  -1  12  -5 1092.30  160.50
   8   1  -7 3905.30  263.75
   8  -7  -4 1030.81  142.72
  -1  12  -4   41.32   83.84
   7  -8  -5   89.68   79.90
  -7   8   5   75.55   59.18
   1   9   2 1506.07  112.79
   1   9   2 1517.82  195.88
  -1  -9  -2 2198.25  220.08
   4   8  -2   49.78   74.05
  -1   3  10  443.17  121.44
   2  10  -9  285.05   82.88
   2  10  -2  263.62  120.40
   4  -5   9 2101.59  195.08
   2 -12   2  400.85   92.34
  -2  12  -2  182.16   86.74
   3  -7  10  396.93  100.03
  -4  -7  11  511.71  102.66
   1   6   6  182.17   81.84
   1   6   6   35.01   82.84
  -1  -6  -6  308.29   84.57
   3  -1   9 1160.77  128.68
   8   0  -8  562.31  108.25
   5  -9   7 2200.53  131.61
   5  -9   7 1938.28  120.01
   1  11  -3  -50.12   87.47
   6   4   0 3334.31  272.58
   2   1   9    9.01   92.70
  -2  -1  -9  137.64   75.29
  -3  -8  11   37.75   58.05
   7  -7   4   44.08   63.20
  -2  12  -6   25.78   64.34
  -1  -5  -7   -4.35   76.64
   1   5   7   13.94   55.96
   1   5   7   18.90   63.66
  -1  -9  11   46.72   47.44
   2  -1  10   31.02   61.44
   4  -7   9   47.02   51.31
   0  -3  12  490.43   97.55
  -4  12  -3  -22.03   70.73
   7  -4   4   64.63   67.54
   0  -9  11  242.14   64.91
   6  -4   6 1376.44  117.86
   7  -4  -9   30.61   60.55
  -7   4   9   75.13   75.88
   4   2   6  280.14   98.52
  -4  -2  -6  457.18  104.07
   4   2   6  418.81   91.13
   7   4  -4  755.84  150.04
  -4  12  -2  148.24   95.39
   6   6  -8  -39.46   69.00
   2  -6  11 1263.69  145.86
  -7  -2  10 1073.58  123.06
   7   2 -10 1112.27  115.09
   2  -5  11  187.10   95.96
   3  -4  10   19.24   72.19
   7   1   1    7.24   66.53
  -1  12  -6  102.89   80.77
   3   1   8 1752.94  190.24
  -3  -1  -8 1850.59  155.45
  -8   3   8 1215.47  122.19
   8  -3  -8 1206.93  131.54
   8   1  -3  188.55  105.57
  -2   0  12   44.29   64.23
  -2  -5  -6 1792.91  176.33
   2   5   6 1385.63  160.56
   2   5   6  999.38  148.95
  -1  -1  12  344.16   89.04
  -4  11   2 2309.04  177.28
   7   4  -8  566.60  115.41
   0   6   7  736.65  112.43
   0   6   7  422.32  112.23
   0  -6  -7  708.26  115.60
   1 -12   3  326.59   98.59
  -1  12  -3  271.44  118.86
  -4  10   4  250.46   80.11
  -7   2  10  -24.10   73.76
   7  -2 -10   -3.99   49.28
  -6  10   3   21.30   34.73
   5 -11   5 2869.45  188.00
   8  -3   1  255.19   96.99
   1  11  -8  645.29  112.97
   6   5 -10  141.17   73.79
  -6  -5  10  240.56   99.43
   5  -2   7  109.00   58.27
  -4  12  -4  314.07   96.90
  -3  12  -1 -139.61   92.05
   3 -12   1  145.27   69.39
  -1  -7  -5 1720.62  195.07
   1   7   5 1529.81  137.30
   1   7   5 1103.49  161.76
  -4  -8  10  744.63  102.71
   4   8 -10  458.86   96.30
   0  -7  12 1463.39  141.55
   7   0   2  998.00  135.72
  -2  -6  -5  -15.19   64.23
   2   6   5    1.76   71.86
   2   6   5   74.70   64.11
   3 -11  -2  268.54  104.95
  -3  11   2  160.98  112.05
  -5   0  12   93.53   68.74
   8  -7   1 1043.03  140.58
   0  -7  -6  -44.44  107.99
   0   7   6  202.31   62.62
   0   7   6  147.31   71.05
   6  -8   6  538.15   80.48
   6  -8   6  284.83   93.52
   8  -8  -1 1715.29  172.54
  -5  -4  12  805.61  131.79
   6   6  -4   36.76   64.97
   7   2   0  754.66  146.83
   6 -11   1  197.55   98.25
  -5   0  -6 1913.48  163.77
   5   0   6 2066.31  155.14
   8  -8  -2   72.69   81.97
   4   9  -6 1066.72  163.62
   8  -6  -6 1869.90  172.92
   4  -4   9 2593.13  227.64
   1   1  10 2539.06  235.71
  -3  -9  10   63.35   61.51
   3   9 -10  138.79   62.77
   0   5   8  895.59  125.42
   0   5   8  372.77  121.32
  -2  -4  -7 3087.78  219.73
   2   4   7 1852.77  173.58
   2   4   7 2560.84  218.73
  -2   9   5  308.45  111.05
  -2   9   5  297.58   62.19
   2  -9  -5  460.94  139.91
   6  -9  -5 1092.50  109.07
   1   4   8  291.59  111.56
   1   4   8  601.77  128.80
  -1  -4  -8  862.52  102.42
   7  -9   3  316.98   70.58
  -1  11  -9  934.53   90.38
   2  -7  11  563.57  106.42
  -4   3  11 1764.19  168.43
   3  10  -6  403.98  115.96
  -8   5   7   87.52   81.08
   8  -5  -7  102.16   79.03
   4   6   2   41.38   87.43
   4   9  -7   94.99   65.91
  -3  -7  12  202.46   77.21
   6 -11   2  897.34  131.26
   2  -4  11  -15.66   71.79
  -4   1  -8  567.38   89.07
   4  -1   8  417.04  100.18
   0  11  -9  386.75   76.70
  -3  12  -6  391.42   83.76
  -4  12  -1  -32.50   61.74
  -4  -6  12  367.47   71.94
   5   6 -11  230.60   68.24
  -5  -6  11  398.33   72.71
  -5  10   4  -15.95   78.40
   3 -10  -4 1297.38  138.19
  -3  10   4 1188.07  132.31
   3  -8  10  618.74  100.68
   5  -6   8 1429.85  166.44
   6 -11   0   75.32   87.92
  -6  -4  11   56.09   66.39
   6   4 -11  153.31   58.20
   8   1  -8   63.20   76.01
  -4   7   8  400.33   95.27
  -4   7   8  295.42   85.49
   7 -10   0  168.91   94.96
   3  10  -7   42.42   74.74
   4  -8   9   92.68   65.54
  -2   4  10  385.92  112.63
   6  -2 -11  996.67   85.19
  -6   2  11  676.67  112.96
   6  -4 -10 1054.42  100.44
  -6   4  10  904.25  136.10
   8  -8   0   46.39   77.66
   4   9  -5  629.25  150.17
  -2  -9  11  276.71   71.38
   3  10  -5 1449.40  176.23
  -4   1  12  -15.58   75.58
   8   0  -1   74.51   86.91
   7  -8   4  100.58   69.68
   8  -1   0  217.06  101.17
   6  -1   5  924.54  118.63
   1  -1  11  497.38  135.71
   8   2  -6   27.76   81.69
   4 -11   7   77.10   52.24
   7 -10   1 1052.85  141.73
  -5  11   2   58.68   90.47
  -2  12  -1  986.74  188.16
   2 -12   1 1736.73  161.60
   8  -7  -5  -18.26   71.44
   5  -7   8  664.08  114.07
  -5   7   8 2246.87  180.07
   5  -7  -8 2663.54  181.18
   5  -5   8 1421.24  171.44
   7  -3   4  108.52   71.70
   8   2  -5 2684.14  227.44
  -4   8   7   42.39   56.47
  -4   8   7   91.92   76.81
   8  -8  -3 1703.98  178.16
   1  -9  11 1294.86  106.81
  -1  12  -7  858.25  123.66
   7 -10  -1 1116.08  154.56
  -5  -7  10   61.80   54.60
   5   7 -10   15.67   74.34
  -3   3  11  291.41   84.15
  -3   1  12 1754.38  157.05
   7  -9  -4  112.92   87.71
  -1  -8  12  328.78   83.16
  -4   6   9  257.27   86.52
  -4   6   9  375.97   91.54
  -5   3  11  -58.36   81.58
  -2  12  -7   37.44   59.05
   0  -2  12 1486.17  191.69
   2   7   4  329.58  110.42
  -2  -7  -4 1104.43  111.71
   2   7   4  355.33  101.36
   5   7  -2  910.60  166.67
  -4  12  -5  109.43   73.85
   6  -3   6  519.88   87.95
   7  -1   3 1650.57  160.99
   6   6  -9  -34.02   66.53
  -1  12  -2  -28.57   97.04
   1 -12   2  131.47   82.54
   1 -11  -1  146.08   99.91
  -1  11   1  132.80  107.32
   4   9  -8 1280.27  155.73
   0  12  -5  142.18   71.31
   1  11  -2   24.84   64.37
   7   4  -3   -6.30   78.83
   0  -8  -5  432.97   99.47
   0   8   5  235.25   79.02
   0   8   5  216.31   73.66
;
_shelx_hkl_checksum              79869
loop_
_symmetry_equiv_pos_site_id
_space_group_symop_operation_xyz
1 +X,+Y,+Z
2 -X,-Y,-Z
loop_
_atom_site_label
_atom_site_type_symbol
_atom_site_fract_x
_atom_site_fract_y
_atom_site_fract_z
_atom_site_U_iso_or_equiv
_atom_site_adp_type
_atom_site_occupancy
_atom_site_site_symmetry_multiplicity
_atom_site_calc_flag
_atom_site_refinement_flags
Se1 Se 0.42240(7) 0.87759(5) 0.31426(4) 0.02592(14) Uani 1 2 d .
Se2 Se 0.86228(6) 0.95971(4) 0.26088(4) 0.02246(13) Uani 1 2 d .
P1 P 0.73444(17) 0.87350(12) 0.39670(11) 0.0209(2) Uani 1 2 d .
C1 C 0.3163(7) 0.7949(5) 0.1103(4) 0.0219(9) Uani 1 2 d .
C2 C 0.1041(7) 0.7219(5) 0.0479(5) 0.0300(10) Uani 1 2 d .
C3 C -0.0106(7) 0.6718(5) -0.0986(5) 0.0325(11) Uani 1 2 d .
C4 C 0.0896(7) 0.6948(5) -0.1815(4) 0.0282(10) Uani 1 2 d .
C5 C 0.3065(7) 0.7637(5) -0.1245(4) 0.0227(9) Uani 1 2 d .
C6 C 0.4040(7) 0.7817(5) -0.2166(4) 0.0260(10) Uani 1 2 d .
C7 C 0.6127(7) 0.8411(5) -0.1666(4) 0.0275(10) Uani 1 2 d .
C8 C 0.7319(7) 0.8845(4) -0.0233(4) 0.0228(9) Uani 1 2 d .
C9 C 0.6465(7) 0.8745(4) 0.0718(4) 0.0210(9) Uani 1 2 d .
C10 C 0.4270(7) 0.8138(4) 0.0241(4) 0.0200(9) Uani 1 2 d .
C11 C 0.6973(7) 0.6749(4) 0.3367(4) 0.0225(9) Uani 1 2 d .
C12 C 0.5827(8) 0.6140(5) 0.4174(5) 0.0342(11) Uani 1 2 d .
C13 C 0.5817(7) 0.5823(5) 0.1777(4) 0.0257(10) Uani 1 2 d .
C14 C 0.9158(7) 0.6786(5) 0.3894(4) 0.0299(11) Uani 1 2 d .
H2 H 0.03338 0.70504 0.10575 0.0360 Uiso 1 2 calc R
H3 H -0.15704 0.62216 -0.13933 0.0390 Uiso 1 2 calc R
H4 H 0.01164 0.66386 -0.28022 0.0338 Uiso 1 2 calc R
H6 H 0.3219 0.7518 -0.3145 0.0312 Uiso 1 2 calc R
H7 H 0.67732 0.85299 -0.22881 0.0330 Uiso 1 2 calc R
H8 H 0.87828 0.9225 0.01005 0.0273 Uiso 1 2 calc R
H12A H 0.66033 0.67559 0.5198 0.0410 Uiso 1 2 calc R
H12B H 0.44445 0.61493 0.38609 0.0410 Uiso 1 2 calc R
H12C H 0.57014 0.5127 0.39792 0.0410 Uiso 1 2 calc R
H13A H 0.44212 0.58091 0.14541 0.0309 Uiso 1 2 calc R
H13B H 0.65591 0.62477 0.12825 0.0309 Uiso 1 2 calc R
H13C H 0.57224 0.48141 0.15657 0.0309 Uiso 1 2 calc R
H14A H 0.98866 0.73879 0.49229 0.0359 Uiso 1 2 calc R
H14B H 0.90749 0.57804 0.36903 0.0359 Uiso 1 2 calc R
H14C H 0.99116 0.7214 0.34071 0.0359 Uiso 1 2 calc R
loop_
_atom_site_aniso_label
_atom_site_aniso_U_11
_atom_site_aniso_U_22
_atom_site_aniso_U_33
_atom_site_aniso_U_12
_atom_site_aniso_U_13
_atom_site_aniso_U_23
Se1 0.0235(3) 0.0352(3) 0.0242(2) 0.0160(2) 0.0136(2) 0.01129(19)
Se2 0.0174(3) 0.0236(3) 0.0237(2) 0.0055(2) 0.00734(18) 0.01006(18)
P1 0.0196(6) 0.0228(6) 0.0198(5) 0.0089(5) 0.0081(5) 0.0079(5)
C1 0.020(3) 0.023(2) 0.025(2) 0.013(2) 0.0090(19) 0.0101(18)
C2 0.019(3) 0.036(3) 0.038(3) 0.014(2) 0.014(2) 0.014(2)
C3 0.016(3) 0.032(3) 0.040(3) 0.010(2) 0.004(2) 0.010(2)
C4 0.028(3) 0.027(3) 0.026(2) 0.017(2) 0.005(2) 0.0068(19)
C5 0.022(3) 0.024(2) 0.025(2) 0.015(2) 0.0084(19) 0.0088(18)
C6 0.033(3) 0.026(3) 0.020(2) 0.017(2) 0.009(2) 0.0076(18)
C7 0.039(3) 0.028(3) 0.026(2) 0.019(2) 0.019(2) 0.015(2)
C8 0.021(2) 0.021(2) 0.028(2) 0.008(2) 0.0124(19) 0.0113(19)
C9 0.025(3) 0.020(2) 0.024(2) 0.013(2) 0.0103(19) 0.0113(18)
C10 0.023(3) 0.016(2) 0.020(2) 0.010(2) 0.0069(18) 0.0056(17)
C11 0.026(3) 0.022(2) 0.019(2) 0.010(2) 0.0091(18) 0.0083(18)
C12 0.041(3) 0.033(3) 0.033(3) 0.013(2) 0.019(2) 0.018(2)
C13 0.029(3) 0.019(2) 0.025(2) 0.008(2) 0.010(2) 0.0082(18)
C14 0.032(3) 0.025(3) 0.029(2) 0.014(2) 0.007(2) 0.0097(19)
loop_
_atom_type_symbol
_atom_type_description
_atom_type_scat_dispersion_real
_atom_type_scat_dispersion_imag
_atom_type_scat_source
C C 0.0033 0.0016
;
International Tables for Crystallography
(Vol. C, Tables 4.2.6.8 and 6.1.1.4)
;
H H 0.0000 0.0000
;
International Tables for Crystallography
(Vol. C, Table 6.1.1.4)
;
P P 0.1023 0.0942
;
International Tables for Crystallography
(Vol. C, Tables 4.2.6.8 and 6.1.1.4)
;
Se Se -0.0929 2.2259
;
International Tables for Crystallography
(Vol. C, Tables 4.2.6.8 and 6.1.1.4)
;
loop_
_geom_angle_atom_site_label_1
_geom_angle_atom_site_label_2
_geom_angle_atom_site_label_3
_geom_angle
_geom_angle_publ_flag
P1 Se1 C1 107.40(16) yes
P1 Se2 C9 108.58(15) yes
Se1 P1 Se2 98.87(6) yes
Se1 P1 C11 107.36(14) yes
Se2 P1 C11 106.74(17) yes
Se1 C1 C2 111.6(4) yes
Se1 C1 C10 128.0(3) yes
C2 C1 C10 120.0(4) yes
C1 C2 C3 121.8(5) yes
C2 C3 C4 119.3(4) yes
C3 C4 C5 121.4(4) yes
C4 C5 C6 119.1(4) yes
C4 C5 C10 120.4(5) yes
C6 C5 C10 120.5(4) yes
C5 C6 C7 120.7(4) yes
C6 C7 C8 119.4(5) yes
C7 C8 C9 122.6(4) yes
Se2 C9 C8 109.8(3) yes
Se2 C9 C10 130.1(4) yes
C8 C9 C10 120.0(4) yes
C1 C10 C5 117.0(4) yes
C1 C10 C9 126.2(4) yes
C5 C10 C9 116.8(4) yes
P1 C11 C12 105.2(3) yes
P1 C11 C13 115.4(4) yes
P1 C11 C14 105.1(3) yes
C12 C11 C13 111.0(3) yes
C12 C11 C14 109.4(4) yes
C13 C11 C14 110.4(4) yes
C1 C2 H2 119.091 no
C3 C2 H2 119.094 no
C2 C3 H3 120.362 no
C4 C3 H3 120.358 no
C3 C4 H4 119.313 no
C5 C4 H4 119.313 no
C5 C6 H6 119.674 no
C7 C6 H6 119.675 no
C6 C7 H7 120.317 no
C8 C7 H7 120.323 no
C7 C8 H8 118.694 no
C9 C8 H8 118.696 no
C11 C12 H12A 109.469 no
C11 C12 H12B 109.467 no
C11 C12 H12C 109.469 no
H12A C12 H12B 109.474 no
H12A C12 H12C 109.475 no
H12B C12 H12C 109.473 no
C11 C13 H13A 109.472 no
C11 C13 H13B 109.469 no
C11 C13 H13C 109.475 no
H13A C13 H13B 109.467 no
H13A C13 H13C 109.471 no
H13B C13 H13C 109.473 no
C11 C14 H14A 109.475 no
C11 C14 H14B 109.470 no
C11 C14 H14C 109.469 no
H14A C14 H14B 109.474 no
H14A C14 H14C 109.473 no
H14B C14 H14C 109.467 no
loop_
_geom_bond_atom_site_label_1
_geom_bond_atom_site_label_2
_geom_bond_distance
_geom_bond_publ_flag
Se1 P1 2.2291(15) yes
Se1 C1 1.919(4) yes
Se2 P1 2.2326(15) yes
Se2 C9 1.925(4) yes
P1 C11 1.878(5) yes
C1 C2 1.377(6) yes
C1 C10 1.431(7) yes
C2 C3 1.402(6) yes
C3 C4 1.352(8) yes
C4 C5 1.405(6) yes
C5 C6 1.417(8) yes
C5 C10 1.428(5) yes
C6 C7 1.352(7) yes
C7 C8 1.390(6) yes
C8 C9 1.369(7) yes
C9 C10 1.427(6) yes
C11 C12 1.532(8) yes
C11 C13 1.514(5) yes
C11 C14 1.529(7) yes
C2 H2 0.950 no
C3 H3 0.950 no
C4 H4 0.950 no
C6 H6 0.950 no
C7 H7 0.950 no
C8 H8 0.950 no
C12 H12A 0.980 no
C12 H12B 0.980 no
C12 H12C 0.980 no
C13 H13A 0.980 no
C13 H13B 0.980 no
C13 H13C 0.980 no
C14 H14A 0.980 no
C14 H14B 0.980 no
C14 H14C 0.980 no
loop_
_geom_contact_atom_site_label_1
_geom_contact_atom_site_label_2
_geom_contact_distance
_geom_contact_publ_flag
_geom_contact_site_symmetry_2
Se1 C9 3.488(5) no .
Se1 C12 3.599(6) no .
Se2 C1 3.529(4) no .
Se2 C13 3.567(4) no .
C1 C4 2.789(6) no .
C1 C13 3.428(8) no .
C2 C5 2.770(8) no .
C3 C10 2.833(6) no .
C5 C8 2.756(6) no .
C6 C9 2.792(6) no .
C7 C10 2.833(8) no .
C9 C13 3.510(7) no .
C10 C13 3.551(7) no .
Se2 P1 3.5135(12) no 2_776
P1 Se2 3.5135(12) no 2_776
P1 P1 3.5857(15) no 2_776
C1 C7 3.500(7) no 2_675
C3 C8 3.366(8) no 1_455
C5 C9 3.524(7) no 2_675
C7 C1 3.500(7) no 2_675
C7 C10 3.583(7) no 2_675
C8 C3 3.366(8) no 1_655
C9 C5 3.524(7) no 2_675
C10 C7 3.583(7) no 2_675
C12 C12 3.535(8) no 2_666
C13 C13 3.365(6) no 2_665
Se1 H2 2.7271 no .
Se1 H12B 3.0804 no .
Se1 H13A 3.1435 no .
Se2 H8 2.6657 no .
Se2 H13B 3.0402 no .
Se2 H14C 3.1396 no .
P1 H12A 2.7792 no .
P1 H12B 2.8770 no .
P1 H13A 3.0358 no .
P1 H13B 3.0197 no .
P1 H14A 2.7779 no .
P1 H14C 2.8683 no .
C1 H3 3.2803 no .
C1 H13A 2.7153 no .
C1 H13B 3.4380 no .
C2 H4 3.2360 no .
C2 H13A 3.2976 no .
C4 H2 3.2273 no .
C4 H6 2.6023 no .
C5 H3 3.2633 no .
C5 H7 3.2685 no .
C6 H4 2.5917 no .
C6 H8 3.2162 no .
C8 H6 3.2282 no .
C8 H13B 3.5488 no .
C9 H7 3.2702 no .
C9 H13A 3.4347 no .
C9 H13B 2.8477 no .
C10 H2 3.2865 no .
C10 H4 3.3114 no .
C10 H6 3.3237 no .
C10 H8 3.2752 no .
C10 H13A 3.0860 no .
C10 H13B 3.1631 no .
C12 H13A 2.6885 no .
C12 H13B 3.3542 no .
C12 H13C 2.7102 no .
C12 H14A 2.6650 no .
C12 H14B 2.7008 no .
C12 H14C 3.3466 no .
C13 H12A 3.3508 no .
C13 H12B 2.7034 no .
C13 H12C 2.7034 no .
C13 H14A 3.3420 no .
C13 H14B 2.6896 no .
C13 H14C 2.6897 no .
C14 H12A 2.6684 no .
C14 H12B 3.3461 no .
C14 H12C 2.6988 no .
C14 H13A 3.3449 no .
C14 H13B 2.6862 no .
C14 H13C 2.6862 no .
H2 H3 2.3442 no .
H2 H13A 3.5613 no .
H3 H4 2.2977 no .
H4 H6 2.4016 no .
H6 H7 2.3023 no .
H7 H8 2.3263 no .
H12A H13A 3.5807 no .
H12A H13C 3.5966 no .
H12A H14A 2.4623 no .
H12A H14B 2.9703 no .
H12A H14C 3.5579 no .
H12B H13A 2.5132 no .
H12B H13B 3.5894 no .
H12B H13C 3.0053 no .
H12B H14A 3.5562 no .
H12B H14B 3.5976 no .
H12C H13A 2.9730 no .
H12C H13B 3.6000 no .
H12C H13C 2.5365 no .
H12C H14A 2.9623 no .
H12C H14B 2.5334 no .
H12C H14C 3.5978 no .
H13A H14B 3.5825 no .
H13A H14C 3.5826 no .
H13B H14A 3.5773 no .
H13B H14B 2.9745 no .
H13B H14C 2.5074 no .
H13C H14A 3.5773 no .
H13C H14B 2.5074 no .
H13C H14C 2.9746 no .
Se1 H7 3.3895 no 2_675
Se1 H14C 3.2874 no 1_455
Se2 H2 3.4439 no 1_655
Se2 H6 3.5834 no 2_675
Se2 H7 3.5910 no 2_775
Se2 H14A 3.0790 no 2_776
P1 H14A 3.5912 no 2_776
C1 H7 3.4738 no 2_675
C2 H8 3.0518 no 1_455
C2 H14C 3.5054 no 1_455
C3 H7 3.5906 no 1_455
C3 H8 2.9591 no 1_455
C3 H12B 3.4725 no 2_565
C3 H13A 3.3020 no 2_565
C4 H13C 3.4772 no 2_665
C4 H14A 3.5763 no 1_454
C4 H14B 2.9602 no 2_665
C5 H13C 2.8831 no 2_665
C5 H14B 3.2974 no 2_665
C6 H12C 3.1909 no 2_665
C6 H13C 3.0265 no 2_665
C6 H14A 3.4917 no 1_454
C6 H14B 3.3542 no 2_665
C7 H3 3.2226 no 1_655
C7 H8 3.4126 no 2_775
C7 H12A 3.4833 no 1_554
C7 H12C 3.3636 no 2_665
C7 H13C 3.2918 no 2_665
C8 H2 3.5187 no 1_655
C8 H3 3.0770 no 1_655
C8 H8 2.9509 no 2_775
C8 H13C 3.4074 no 2_665
C9 H13C 3.3498 no 2_665
C10 H13C 3.1055 no 2_665
C12 H3 3.2630 no 2_565
C12 H4 3.5959 no 1_656
C12 H12A 3.4143 no 2_666
C12 H12C 3.0115 no 2_666
C13 H3 3.0857 no 2_565
C13 H13A 3.3226 no 2_665
C13 H13B 2.9761 no 2_665
C13 H13C 3.2414 no 2_665
C14 H2 3.4904 no 1_655
C14 H4 3.4878 no 1_656
C14 H6 3.3781 no 1_656
H2 Se2 3.4439 no 1_455
H2 C8 3.5187 no 1_455
H2 C14 3.4904 no 1_455
H2 H8 3.0981 no 1_455
H2 H13A 3.5015 no 2_565
H2 H13B 2.7862 no 1_455
H2 H14C 2.6114 no 1_455
H3 C7 3.2226 no 1_455
H3 C8 3.0770 no 1_455
H3 C12 3.2630 no 2_565
H3 C13 3.0857 no 2_565
H3 H7 3.2366 no 1_455
H3 H8 2.9464 no 1_455
H3 H12B 2.7383 no 2_565
H3 H12C 3.0528 no 2_565
H3 H13A 2.4998 no 2_565
H3 H13B 3.5528 no 1_455
H3 H13C 2.8826 no 2_565
H4 C12 3.5959 no 1_454
H4 C14 3.4878 no 1_454
H4 H12A 2.9032 no 1_454
H4 H12B 3.3694 no 2_565
H4 H12C 3.5178 no 1_454
H4 H14A 2.7652 no 1_454
H4 H14B 3.4111 no 1_454
H4 H14B 2.7042 no 2_665
H6 Se2 3.5834 no 2_675
H6 C14 3.3781 no 1_454
H6 H12C 3.0241 no 2_665
H6 H13C 3.4790 no 2_665
H6 H14A 2.6530 no 1_454
H6 H14B 3.3716 no 1_454
H6 H14B 3.1483 no 2_665
H7 Se1 3.3895 no 2_675
H7 Se2 3.5910 no 2_775
H7 C1 3.4738 no 2_675
H7 C3 3.5906 no 1_655
H7 H3 3.2366 no 1_655
H7 H8 3.1075 no 2_775
H7 H12A 2.7337 no 1_554
H7 H12C 3.3323 no 2_665
H8 C2 3.0518 no 1_655
H8 C3 2.9591 no 1_655
H8 C7 3.4126 no 2_775
H8 C8 2.9509 no 2_775
H8 H2 3.0981 no 1_655
H8 H3 2.9464 no 1_655
H8 H7 3.1075 no 2_775
H8 H8 2.1683 no 2_775
H12A C7 3.4833 no 1_556
H12A C12 3.4143 no 2_666
H12A H4 2.9032 no 1_656
H12A H7 2.7337 no 1_556
H12A H12A 3.5697 no 2_666
H12A H12B 3.4233 no 2_666
H12A H12C 2.7556 no 2_666
H12B C3 3.4725 no 2_565
H12B H3 2.7383 no 2_565
H12B H4 3.3694 no 2_565
H12B H12A 3.4233 no 2_666
H12B H12C 3.0217 no 2_666
H12C C6 3.1909 no 2_665
H12C C7 3.3636 no 2_665
H12C C12 3.0115 no 2_666
H12C H3 3.0528 no 2_565
H12C H4 3.5178 no 1_656
H12C H6 3.0241 no 2_665
H12C H7 3.3323 no 2_665
H12C H12A 2.7556 no 2_666
H12C H12B 3.0217 no 2_666
H12C H12C 2.7507 no 2_666
H13A C3 3.3020 no 2_565
H13A C13 3.3226 no 2_665
H13A H2 3.5015 no 2_565
H13A H3 2.4998 no 2_565
H13A H13A 3.5605 no 2_665
H13A H13B 2.8167 no 2_665
H13A H13C 3.0956 no 2_665
H13B C13 2.9761 no 2_665
H13B H2 2.7862 no 1_655
H13B H3 3.5528 no 1_655
H13B H13A 2.8167 no 2_665
H13B H13B 2.8831 no 2_665
H13B H13C 2.7204 no 2_665
H13C C4 3.4772 no 2_665
H13C C5 2.8831 no 2_665
H13C C6 3.0265 no 2_665
H13C C7 3.2918 no 2_665
H13C C8 3.4074 no 2_665
H13C C9 3.3498 no 2_665
H13C C10 3.1055 no 2_665
H13C C13 3.2414 no 2_665
H13C H3 2.8826 no 2_565
H13C H6 3.4790 no 2_665
H13C H13A 3.0956 no 2_665
H13C H13B 2.7204 no 2_665
H13C H13C 3.4074 no 2_665
H14A Se2 3.0790 no 2_776
H14A P1 3.5912 no 2_776
H14A C4 3.5763 no 1_656
H14A C6 3.4917 no 1_656
H14A H4 2.7652 no 1_656
H14A H6 2.6530 no 1_656
H14B C4 2.9602 no 2_665
H14B C5 3.2974 no 2_665
H14B C6 3.3542 no 2_665
H14B H4 3.4111 no 1_656
H14B H4 2.7042 no 2_665
H14B H6 3.3716 no 1_656
H14B H6 3.1483 no 2_665
H14C Se1 3.2874 no 1_655
H14C C2 3.5054 no 1_655
H14C H2 2.6114 no 1_655
loop_
_geom_torsion_atom_site_label_1
_geom_torsion_atom_site_label_2
_geom_torsion_atom_site_label_3
_geom_torsion_atom_site_label_4
_geom_torsion
_geom_torsion_publ_flag
P1 Se1 C1 C2 148.1(3) no
P1 Se1 C1 C10 -38.6(4) no
C1 Se1 P1 Se2 45.43(15) no
C1 Se1 P1 C11 -65.31(16) no
P1 Se2 C9 C8 -160.1(2) no
P1 Se2 C9 C10 22.9(4) no
C9 Se2 P1 Se1 -39.65(17) no
C9 Se2 P1 C11 71.59(17) no
Se1 P1 C11 C12 -67.3(2) no
Se1 P1 C11 C13 55.4(3) no
Se1 P1 C11 C14 177.23(18) no
Se2 P1 C11 C12 -172.51(15) no
Se2 P1 C11 C13 -49.8(3) no
Se2 P1 C11 C14 72.0(2) no
Se1 C1 C2 C3 170.3(3) no
Se1 C1 C10 C5 -168.4(3) no
Se1 C1 C10 C9 13.3(7) no
C2 C1 C10 C5 4.4(7) no
C2 C1 C10 C9 -173.9(4) no
C10 C1 C2 C3 -3.6(8) no
C1 C2 C3 C4 0.3(8) no
C2 C3 C4 C5 2.1(8) no
C3 C4 C5 C6 178.4(4) no
C3 C4 C5 C10 -1.2(7) no
C4 C5 C6 C7 -176.8(4) no
C4 C5 C10 C1 -2.0(7) no
C4 C5 C10 C9 176.4(4) no
C6 C5 C10 C1 178.4(4) no
C6 C5 C10 C9 -3.2(7) no
C10 C5 C6 C7 2.7(7) no
C5 C6 C7 C8 0.1(7) no
C6 C7 C8 C9 -2.4(7) no
C7 C8 C9 Se2 -175.5(4) no
C7 C8 C9 C10 1.8(7) no
Se2 C9 C10 C1 -4.2(7) no
Se2 C9 C10 C5 177.6(3) no
C8 C9 C10 C1 179.2(4) no
C8 C9 C10 C5 1.0(6) no
