#------------------------------------------------------------------------------
#$Date: 2016-03-22 22:13:18 +0200 (Tue, 22 Mar 2016) $
#$Revision: 179035 $
#$URL: svn://www.crystallography.net/cod/cif/4/12/33/4123369.cif $
#------------------------------------------------------------------------------
#
# This file is available in the Crystallography Open Database (COD),
# http://www.crystallography.net/
#
# All data on this site have been placed in the public domain by the
# contributors.
#
data_4123369
loop_
_publ_author_name
'Panda, Manas K.'
'Run\<cevski, Tom\<ce'
'Husain, Ahmad'
'Dinnebier, Robert E.'
'Naumov, Pan\<ce'
_publ_section_title
;
 Perpetually self-propelling chiral single crystals.
;
_journal_issue                   5
_journal_name_full               'Journal of the American Chemical Society'
_journal_page_first              1895
_journal_page_last               1902
_journal_paper_doi               10.1021/ja5111927
_journal_volume                  137
_journal_year                    2015
_chemical_formula_sum            'C5 H7 N O3'
_chemical_formula_weight         129.12
_chemical_name_common            'RecPGA 100k'
_chemical_name_systematic
;
 ?
;
_space_group_crystal_system      monoclinic
_space_group_IT_number           14
_space_group_name_Hall           '-P 2ybc'
_space_group_name_H-M_alt        'P 1 21/c 1'
_symmetry_space_group_name_Hall  '-P 2ybc'
_symmetry_space_group_name_H-M   'P 1 21/c 1'
_atom_sites_solution_hydrogens   mixed
_audit_creation_method           SHELXL-2013
_cell_angle_alpha                90
_cell_angle_beta                 115.426(2)
_cell_angle_gamma                90
_cell_formula_units_Z            4
_cell_length_a                   7.8818(14)
_cell_length_b                   8.7859(15)
_cell_length_c                   8.9967(16)
_cell_measurement_reflns_used    9902
_cell_measurement_temperature    100(2)
_cell_measurement_theta_max      32.21
_cell_measurement_theta_min      2.32
_cell_volume                     562.67(17)
_computing_cell_refinement       'Bruker SAINT'
_computing_data_collection       'Bruker APEX2'
_computing_data_reduction        'Bruker SAINT'
_computing_molecular_graphics    'Bruker SHELXTL'
_computing_publication_material  'Bruker SHELXTL'
_computing_structure_refinement  'SHELXL-2013 (Sheldrick, 2013)'
_computing_structure_solution    'SHELXS-97 (Sheldrick 2008)'
_diffrn_ambient_temperature      100(2)
_diffrn_measured_fraction_theta_full 1.000
_diffrn_measured_fraction_theta_max 0.961
_diffrn_measurement_device_type  'Bruker APEX-II CCD'
_diffrn_measurement_method       '\f and \w scans'
_diffrn_radiation_type           MoK\a
_diffrn_radiation_wavelength     0.71073
_diffrn_reflns_av_R_equivalents  0.0323
_diffrn_reflns_av_unetI/netI     0.0164
_diffrn_reflns_Laue_measured_fraction_full 1.000
_diffrn_reflns_Laue_measured_fraction_max 0.961
_diffrn_reflns_limit_h_max       11
_diffrn_reflns_limit_h_min       -11
_diffrn_reflns_limit_k_max       12
_diffrn_reflns_limit_k_min       -12
_diffrn_reflns_limit_l_max       13
_diffrn_reflns_limit_l_min       -13
_diffrn_reflns_number            15039
_diffrn_reflns_point_group_measured_fraction_full 1.000
_diffrn_reflns_point_group_measured_fraction_max 0.961
_diffrn_reflns_theta_full        25.242
_diffrn_reflns_theta_max         32.231
_diffrn_reflns_theta_min         2.862
_exptl_absorpt_coefficient_mu    0.127
_exptl_crystal_colour            colorless
_exptl_crystal_density_diffrn    1.524
_exptl_crystal_description       block
_exptl_crystal_F_000             272
_exptl_crystal_size_max          0.3
_exptl_crystal_size_mid          0.22
_exptl_crystal_size_min          0.20
_refine_diff_density_max         0.525
_refine_diff_density_min         -0.233
_refine_diff_density_rms         0.059
_refine_ls_extinction_method     none
_refine_ls_goodness_of_fit_ref   1.074
_refine_ls_hydrogen_treatment    mixed
_refine_ls_matrix_type           full
_refine_ls_number_parameters     87
_refine_ls_number_reflns         1909
_refine_ls_number_restraints     0
_refine_ls_restrained_S_all      1.074
_refine_ls_R_factor_all          0.0359
_refine_ls_R_factor_gt           0.0345
_refine_ls_shift/su_max          0.000
_refine_ls_shift/su_mean         0.000
_refine_ls_structure_factor_coef Fsqd
_refine_ls_weighting_details
'w=1/[\s^2^(Fo^2^)+(0.0523P)^2^+0.1904P] where P=(Fo^2^+2Fc^2^)/3'
_refine_ls_weighting_scheme      calc
_refine_ls_wR_factor_gt          0.0942
_refine_ls_wR_factor_ref         0.0957
_reflns_Friedel_coverage         0.000
_reflns_number_gt                1814
_reflns_number_total             1909
_reflns_threshold_expression     'I > 2\s(I)'
_cod_data_source_file            ja5111927_si_019.cif
_cod_data_source_block           RacPGA100K
_cod_depositor_comments
'Adding full bibliography for 4123369--4123385.cif.'
_cod_database_code               4123369
#BEGIN Tags that were not found in dictionaries:
_shelx_space_group_comment
;
The symmetry employed for this shelxl refinement is uniquely defined
by the following loop, which should always be used as a source of
symmetry information in preference to the above space-group names.
They are only intended as comments.
;
_shelxl_version_number           2013-4
_shelx_res_file
;
TITL RecPGA100K in P2(1)/c
CELL  0.71073   7.8818   8.7859   8.9967   90.000  115.426   90.000
ZERR     4.00   0.0014   0.0015   0.0016    0.000    0.002    0.000
LATT   1
SYMM  - X, 1/2 + Y, 1/2 - Z
SFAC  C    H    N    O
UNIT  20   28   4    12
MERG   2
FMAP   2
HTAB
PLAN   20
ACTA
BOND $H
L.S.  10
TEMP  -173.17
WGHT    0.052300    0.190400
FVAR       0.98362
O3    4   -0.032979    0.548157    0.308767    11.00000    0.01000    0.01402 =
         0.01394   -0.00222    0.00258   -0.00003
O2    4    0.619690    0.892713    0.717429    11.00000    0.01074    0.01318 =
         0.01884   -0.00628    0.00467   -0.00205
AFIX 147
H1    2    0.733582    0.901966    0.737565    11.00000   -1.50000
AFIX   0
O1    4    0.636072    0.687832    0.574764    11.00000    0.01419    0.01825 =
         0.02930   -0.01082    0.01093   -0.00160
N1    3    0.263756    0.613396    0.495633    11.00000    0.00878    0.00890 =
         0.01283   -0.00185    0.00281    0.00112
C5    1    0.078473    0.637497    0.413288    11.00000    0.00937    0.01074 =
         0.01050    0.00104    0.00435    0.00098
C1    1    0.552539    0.766564    0.633166    11.00000    0.00995    0.01020 =
         0.01106   -0.00071    0.00264    0.00039
C3    1    0.219572    0.863375    0.567158    11.00000    0.01162    0.00920 =
         0.01551   -0.00111    0.00514    0.00176
AFIX  23
H3B   2    0.220718    0.917779    0.663949    11.00000   -1.20000
H3A   2    0.250237    0.936200    0.498303    11.00000   -1.20000
AFIX   0
C2    1    0.358971    0.728482    0.620758    11.00000    0.00980    0.00903 =
         0.00998   -0.00090    0.00346    0.00031
AFIX  13
H3    2    0.372053    0.690039    0.729786    11.00000   -1.20000
AFIX   0
C4    1    0.028195    0.787088    0.467582    11.00000    0.01023    0.01144 =
         0.01727   -0.00162    0.00489    0.00240
AFIX  23
H3C   2   -0.039511    0.770039    0.536781    11.00000   -1.20000
H3D   2   -0.051051    0.850080    0.371493    11.00000   -1.20000
AFIX   0
H2    2    0.309937    0.523629    0.491156    11.00000    0.02786
HKLF    4

REM  RecPGA100K in P2(1)/c
REM R1 =  0.0345 for    1814 Fo > 4sig(Fo)  and  0.0359 for all    1909 data
REM     87 parameters refined using      0 restraints

END

WGHT      0.0519      0.1937

REM Instructions for potential hydrogen bonds
EQIV $1 x+1, -y+3/2, z+1/2
HTAB O2 O3_$1
EQIV $2 -x+1, y-1/2, -z+3/2
HTAB C2 O2_$2
EQIV $3 -x, y+1/2, -z+1/2
HTAB C4 O3_$3
EQIV $4 -x+1, -y+1, -z+1
HTAB N1 O1_$4

REM Highest difference peak  0.525,  deepest hole -0.233,  1-sigma level  0.059
Q1    1   0.4575  0.7436  0.6278  11.00000  0.05    0.52
Q2    1   0.1237  0.8236  0.5178  11.00000  0.05    0.47
Q3    1   0.0563  0.7161  0.4423  11.00000  0.05    0.47
Q4    1   0.1690  0.6195  0.4555  11.00000  0.05    0.45
Q5    1   0.2929  0.7973  0.5964  11.00000  0.05    0.42
Q6    1   0.3096  0.6665  0.5538  11.00000  0.05    0.36
Q7    1   0.0222  0.5929  0.3551  11.00000  0.05    0.34
Q8    1   0.5915  0.8231  0.6817  11.00000  0.05    0.30
Q9    1  -0.1298  0.5893  0.2855  11.00000  0.05    0.30
Q10   1   0.6010  0.7034  0.6312  11.00000  0.05    0.28
Q11   1   0.5809  0.7413  0.5748  11.00000  0.05    0.25
Q12   1   0.7152  0.7069  0.5900  11.00000  0.05    0.21
Q13   1   0.5753  0.6481  0.5241  11.00000  0.05    0.19
Q14   1   0.6458  0.6274  0.6221  11.00000  0.05    0.19
Q15   1   0.0032  0.4764  0.3169  11.00000  0.05    0.17
Q16   1   0.5464  0.9376  0.7102  11.00000  0.05    0.15
Q17   1   0.5010  0.7002  0.4156  11.00000  0.05    0.12
Q18   1  -0.0240  0.7142  0.5820  11.00000  0.05    0.12
Q19   1  -0.1369  0.4808  0.2736  11.00000  0.05    0.12
Q20   1  -0.2145  0.7750  0.5508  11.00000  0.05    0.11
;
_shelx_res_checksum              60070
_shelx_hkl_file
;
  -1   0   0    0.30    0.10
   1   0   0    0.10    0.10
   1   0   0    0.20    0.10
  -1   0   0    0.50    0.10
  -1   0   0    0.10    0.10
   2   0   0  251.07   11.20
   2   0   0  265.37   11.20
   2   0   0  280.97   11.20
  -2   0   0  273.97   11.20
  -2   0   0  257.07   11.20
  -2   0   0  264.67   11.30
   3   0   0 4670.73  194.48
   3   0   0 4559.04  194.58
   3   0   0 4398.76  191.38
  -3   0   0 4812.82  192.98
  -3   0   0 4236.08  192.98
  -3   0   0 4292.07  192.28
  -4   0   0    0.60    0.10
  -4   0   0    0.60    0.10
   4   0   0    0.60    0.10
   4   0   0    0.50    0.20
  -4   0   0    0.50    0.10
   4   0   0    0.50    0.20
   5   0   0  710.73   27.10
   5   0   0  588.64   27.00
   5   0   0  557.24   27.10
  -5   0   0  659.33   27.10
  -5   0   0  671.73   27.10
  -5   0   0  648.24   27.00
  -6   0   0   58.29    2.50
  -6   0   0   59.69    2.50
   6   0   0   47.90    2.50
   6   0   0   57.79    2.50
  -6   0   0   55.99    2.50
   7   0   0  305.77   11.90
  -7   0   0  270.27   11.70
  -7   0   0  276.07   11.70
  -7   0   0  256.77   11.70
   7   0   0  271.67   11.80
   7   0   0  268.57   11.80
   8   0   0  116.99    5.40
   8   0   0  128.09    5.40
  -8   0   0  122.99    5.40
  -9   0   0    8.70    0.70
   9   0   0    7.90    0.80
  10   0   0  147.29    6.60
   0  -1   0   -1.70    0.10
   0  -1   0   -1.60    0.10
   0   1   0   -1.60    0.10
   0   1   0   -1.90    0.10
   0   1   0   -1.30    0.10
   0   1   0   -1.50    0.10
  -1  -1   0  382.16   15.60
   1  -1   0  359.26   16.50
   1  -1   0  370.36   15.60
  -1  -1   0  387.26   15.60
   1  -1   0  408.26   15.60
   1   1   0  363.16   15.60
   1   1   0  349.57   15.60
  -1   1   0  358.36   15.60
  -1   1   0  363.96   15.60
  -1   1   0  351.56   15.60
   1   1   0  347.67   15.60
   1   1   0  361.86   15.60
  -2  -1   0 2042.10   80.09
   2  -1   0 2056.69   79.09
   2  -1   0 1763.82   78.89
  -2  -1   0 1999.10   79.09
  -2  -1   0 1747.23   80.19
   2  -1   0 1647.94   78.99
  -2   1   0 1893.21   78.99
   2   1   0 1780.12   79.09
   2   1   0 2003.60   78.99
  -2   1   0 1777.62   79.99
   2   1   0 1817.02   79.09
  -2   1   0 1864.81   79.09
  -2   1   0 1880.51   78.99
  -3  -1   0 1114.99   48.20
   3  -1   0 1235.18   48.40
  -3  -1   0 1122.99   48.20
  -3  -1   0 1131.99   48.30
   3  -1   0 1110.89   48.10
   3  -1   0 1163.68   48.40
   3   1   0 1188.38   48.40
  -3   1   0 1127.49   48.20
  -3   1   0 1158.58   48.10
  -3   1   0 1168.28   48.30
  -3   1   0 1102.09   48.20
   3   1   0  996.90   48.30
   3   1   0 1159.98   48.20
  -4  -1   0  244.48   10.30
   4  -1   0  220.38   10.30
  -4  -1   0  253.07   10.30
   4  -1   0  238.98   10.30
   4  -1   0  252.87   10.30
   4  -1   0  247.28   10.30
  -4  -1   0  248.18   10.30
  -4   1   0  243.78   10.30
  -4   1   0  250.47   10.30
  -4   1   0  250.17   10.30
   4   1   0  230.58   10.30
   4   1   0  233.58   10.30
   5  -1   0  162.68    7.70
  -5  -1   0  185.28    7.60
  -5  -1   0  187.48    7.70
  -5  -1   0  182.68    7.70
   5  -1   0  187.28    7.70
   5  -1   0  186.58    7.60
   5  -1   0  172.38    7.70
   5   1   0  184.18    7.60
  -5   1   0  192.98    7.60
  -5   1   0  176.48    7.60
  -5   1   0  174.48    7.70
   5   1   0  182.28    7.70
  -5   1   0  158.08    7.70
   5   1   0  177.48    7.70
  -6  -1   0    5.20    0.40
  -6  -1   0    4.40    0.40
  -6  -1   0    5.20    0.50
   6  -1   0    4.90    0.50
   6  -1   0    5.50    0.40
   6  -1   0    5.20    0.40
   6   1   0    4.50    0.50
   6   1   0    4.60    0.50
  -6   1   0    4.90    0.40
  -6   1   0    5.50    0.40
  -6   1   0    4.30    0.40
  -7  -1   0    1.80    0.30
   7  -1   0    2.30    0.30
   7  -1   0    2.00    0.40
  -7  -1   0    2.00    0.30
  -7   1   0    1.80    0.30
   7   1   0    2.20    0.30
  -7   1   0    2.10    0.40
  -7   1   0    1.60    0.20
   7   1   0    1.50    0.30
  -8  -1   0    0.40    0.20
   8  -1   0    1.10    0.30
  -8   1   0    0.60    0.30
   8   1   0    0.60    0.30
   8   1   0    0.80    0.40
   9  -1   0    1.40    0.40
  -9  -1   0    1.40    0.30
  -9   1   0    1.00    0.30
   9   1   0    1.00    0.40
   9   1   0    1.20    0.40
  10  -1   0    5.20    0.60
  10   1   0    5.50    0.70
   0  -2   0 2055.39   89.39
   0  -2   0 1966.40   87.69
   0   2   0 2103.59   87.69
   0   2   0 2203.98   89.79
   0   2   0 2139.69   89.39
   0   2   0 1977.00   88.09
   1  -2   0 1167.48   53.09
   1  -2   0 1260.67   52.19
  -1  -2   0 1236.08   52.19
  -1  -2   0 1292.37   52.09
  -1  -2   0 1234.48   52.19
  -1   2   0 1262.57   52.09
   1   2   0 1209.98   52.19
  -1   2   0 1302.17   53.29
  -1   2   0 1227.08   52.19
   1   2   0 1299.87   52.09
   1   2   0 1173.28   54.09
   1   2   0 1086.29   52.09
   2  -2   0  103.79    4.60
   2  -2   0  124.69    4.70
  -2  -2   0  111.79    4.60
   2  -2   0  111.99    4.60
  -2  -2   0  111.39    4.70
   2   2   0  109.39    4.60
  -2   2   0  105.69    4.60
   2   2   0  107.49    4.60
  -2   2   0  103.09    4.60
   2   2   0  111.49    4.70
   2   2   0   94.39    4.60
  -2   2   0  111.19    4.60
  -3  -2   0   91.59    3.70
  -3  -2   0   88.29    3.80
   3  -2   0   86.19    3.70
  -3  -2   0   85.79    3.70
   3  -2   0   83.49    3.80
  -3   2   0   86.99    3.70
  -3   2   0   82.49    3.70
   3   2   0   90.89    3.80
   3   2   0   81.09    3.80
   3   2   0   84.89    3.70
  -3   2   0   89.69    3.70
   4  -2   0  319.47   13.00
   4  -2   0  286.07   13.00
   4  -2   0  267.77   13.00
  -4  -2   0  316.37   13.00
  -4  -2   0  303.27   13.00
  -4  -2   0  310.57   13.00
  -4   2   0  262.77   13.00
   4   2   0  330.57   13.00
   4   2   0  301.87   13.00
  -4   2   0  322.67   13.00
  -4   2   0  313.57   13.00
   4   2   0  337.57   13.00
  -5  -2   0   17.10    0.90
   5  -2   0   19.20    0.90
  -5  -2   0   18.60    0.80
   5  -2   0   18.00    0.90
  -5  -2   0   19.20    0.90
   5  -2   0   18.70    0.90
   5   2   0   17.00    0.90
   5   2   0   19.10    1.00
  -5   2   0   17.80    0.90
  -5   2   0   18.90    0.90
   5   2   0   18.20    0.90
  -5   2   0   18.40    0.80
  -6  -2   0   15.70    0.90
  -6  -2   0   14.70    0.80
   6  -2   0   15.20    0.90
   6  -2   0   15.90    0.80
  -6   2   0   15.10    0.80
   6   2   0   15.80    0.90
  -6   2   0   17.20    0.80
  -6   2   0   16.40    0.80
   6   2   0   15.10    0.90
  -7  -2   0   44.40    2.10
   7  -2   0   42.70    2.00
  -7  -2   0   44.50    2.00
   7  -2   0   44.70    2.10
   7   2   0   42.70    2.10
   7   2   0   43.70    2.10
  -7   2   0   43.00    2.00
  -7   2   0   46.10    2.00
   8  -2   0    0.60    0.40
  -8  -2   0    1.00    0.30
  -8   2   0    1.00    0.30
   8   2   0    1.30    0.40
   8   2   0    0.70    0.30
  -8   2   0    1.00    0.30
   9  -2   0   54.49    2.60
  -9  -2   0   50.69    2.50
   9   2   0   54.79    2.60
  -9   2   0   52.69    2.50
   9   2   0   52.69    2.60
  10  -2   0   48.40    2.50
  10   2   0   50.89    2.50
   0  -3   0   -0.10    0.10
   0   3   0   -0.10    0.10
   0   3   0   -0.10    0.10
   0   3   0    0.00    0.10
  -1  -3   0  126.49    5.40
   1  -3   0  130.19    5.40
  -1  -3   0  114.69    5.40
  -1  -3   0  132.49    5.40
   1  -3   0  128.19    5.40
   1  -3   0  126.99    5.40
  -1   3   0  123.99    5.40
  -1   3   0  126.29    5.40
   1   3   0  121.69    5.40
   1   3   0  129.69    5.40
  -1   3   0  134.89    5.40
  -1   3   0  128.79    5.40
   1   3   0  128.19    5.40
   1   3   0  128.69    5.40
  -2  -3   0  128.39    6.00
   2  -3   0  134.39    6.10
   2  -3   0  133.39    6.10
   2  -3   0  152.08    6.00
  -2  -3   0  150.98    6.10
  -2   3   0  151.58    6.00
   2   3   0  150.98    6.00
  -2   3   0  146.89    6.00
   2   3   0  142.39    6.00
   2   3   0  128.59    6.00
  -2   3   0  145.69    6.00
   2   3   0  136.79    6.10
  -3  -3   0  866.01   36.20
  -3  -3   0  769.42   36.10
   3  -3   0  819.52   36.10
   3  -3   0  899.81   36.20
   3  -3   0  875.71   36.10
  -3  -3   0  873.11   36.20
   3   3   0  892.91   36.20
  -3   3   0  831.72   36.10
  -3   3   0  854.31   36.20
  -3   3   0  855.51   36.10
   3   3   0  838.92   36.20
   3   3   0  814.52   36.20
   3   3   0  892.41   36.10
  -4  -3   0  244.88   10.20
  -4  -3   0  248.18   10.20
   4  -3   0  234.48   10.20
   4  -3   0  237.88   10.20
   4  -3   0  245.88   10.30
  -4  -3   0  244.48   10.30
   4   3   0  232.68   10.20
   4   3   0  238.98   10.30
  -4   3   0  242.18   10.20
  -4   3   0  237.48   10.20
  -4   3   0  245.68   10.20
   4   3   0  232.28   10.20
  -5  -3   0  251.77   10.00
   5  -3   0  228.18   10.00
   5  -3   0  223.58   10.00
  -5  -3   0  238.78   10.10
  -5  -3   0  228.78   10.00
  -5   3   0  219.18   10.00
  -5   3   0  229.88   10.00
   5   3   0  241.78   10.10
   5   3   0  234.68   10.10
   5   3   0  253.47   10.00
  -5   3   0  240.08   10.00
   6  -3   0  556.54   22.80
  -6  -3   0  550.94   22.80
   6  -3   0  526.95   22.80
  -6  -3   0  521.75   22.80
   6  -3   0  554.14   22.80
   6   3   0  502.25   22.80
   6   3   0  536.65   22.80
  -6   3   0  545.85   22.80
  -6   3   0  540.05   22.80
  -7  -3   0   40.90    1.90
   7  -3   0   40.60    2.00
  -7  -3   0   41.40    1.90
  -7   3   0   39.10    1.90
   7   3   0   42.60    2.00
  -7   3   0   39.10    1.90
   7   3   0   42.10    2.00
  -8  -3   0  116.09    5.00
   8  -3   0   97.99    5.00
   8   3   0  110.69    5.00
  -8   3   0  116.79    5.00
  -8   3   0  116.09    5.00
   8   3   0  121.39    5.10
  -9  -3   0  101.09    4.50
   9  -3   0   96.99    4.60
   9   3   0  102.09    4.60
   9   3   0   99.79    4.60
  -9   3   0  104.09    4.50
  10  -3   0   16.30    1.30
  10   3   0   16.80    1.20
  10   3   0   15.10    1.10
   0  -4   0  432.96   17.30
   0  -4   0  402.06   17.30
   0   4   0  381.76   17.30
   0   4   0  400.86   17.30
   0   4   0  417.76   17.30
   0   4   0  417.76   17.30
  -1  -4   0    4.50    0.30
  -1  -4   0    4.40    0.40
   1  -4   0    4.50    0.30
   1  -4   0    5.10    0.30
  -1  -4   0    4.90    0.30
  -1   4   0    4.40    0.30
   1   4   0    4.30    0.30
  -1   4   0    4.80    0.30
   1   4   0    4.90    0.30
  -1   4   0    4.60    0.30
  -1   4   0    4.40    0.30
   1   4   0    5.00    0.30
   1   4   0    4.70    0.30
   2  -4   0 1115.09   51.79
  -2  -4   0 1144.09   51.89
   2  -4   0 1217.68   51.99
   2  -4   0 1233.78   51.89
  -2  -4   0 1224.28   51.79
  -2   4   0 1236.98   51.89
   2   4   0 1201.38   51.79
  -2   4   0 1259.57   51.89
   2   4   0 1233.68   55.59
  -2   4   0 1327.47   51.89
   2   4   0 1236.38   51.89
   2   4   0 1269.27   51.79
  -2   4   0 1203.98   51.89
  -3  -4   0   29.70    1.40
  -3  -4   0   31.00    1.30
   3  -4   0   28.50    1.40
   3  -4   0   32.80    1.40
   3  -4   0   30.10    1.30
  -3   4   0   28.20    1.30
   3   4   0   29.80    1.30
   3   4   0   27.10    1.30
   3   4   0   29.80    1.40
  -3   4   0   27.50    1.30
   3   4   0   29.70    1.40
  -3   4   0   29.50    1.30
   4  -4   0    1.90    0.20
  -4  -4   0    2.30    0.20
   4  -4   0    2.10    0.30
   4  -4   0    2.10    0.20
  -4  -4   0    2.30    0.20
  -4  -4   0    2.40    0.30
   4   4   0    1.80    0.30
   4   4   0    2.20    0.20
   4   4   0    2.50    0.30
  -4   4   0    2.10    0.20
  -4   4   0    2.00    0.20
  -4   4   0    1.80    0.20
   4   4   0    2.40    0.20
  -5  -4   0    4.70    0.40
  -5  -4   0    5.00    0.50
   5  -4   0    5.40    0.40
   5  -4   0    4.40    0.50
   5  -4   0    5.00    0.40
   5   4   0    4.50    0.50
  -5   4   0    4.80    0.40
  -5   4   0    5.20    0.30
   5   4   0    4.50    0.50
  -5   4   0    4.70    0.40
   5   4   0    4.80    0.40
  -6  -4   0  328.97   13.70
  -6  -4   0  326.17   13.80
   6  -4   0  290.07   13.70
   6  -4   0  322.87   13.80
   6   4   0  334.57   13.80
   6   4   0  316.07   13.80
  -6   4   0  321.77   13.80
  -6   4   0  330.97   13.80
   6   4   0  336.47   13.80
   7  -4   0   94.49    4.10
  -7  -4   0   91.09    4.10
  -7  -4   0   91.39    4.00
   7   4   0   95.89    4.10
  -7   4   0   84.09    4.00
   7   4   0   93.39    4.10
  -7   4   0   89.49    4.00
  -8  -4   0   40.70    1.90
   8  -4   0   37.20    2.00
   8   4   0   38.20    1.90
  -8   4   0   39.70    1.90
  -8   4   0   39.80    1.90
   9  -4   0   67.69    3.20
  -9  -4   0   67.69    3.10
   9   4   0   68.19    3.20
   9   4   0   68.79    3.20
  -9   4   0   65.89    3.10
  -9   4   0   65.79    3.40
  10   4   0   48.10    2.50
   0  -5   0    0.10    0.10
   0  -5   0    0.00    0.10
   0  -5   0    0.10    0.10
   0   5   0    0.00    0.10
   0   5   0    0.00    0.10
   0   5   0    0.10    0.10
  -1  -5   0   80.79    3.30
   1  -5   0   82.69    3.40
   1  -5   0   77.39    3.30
  -1  -5   0   76.29    3.30
  -1  -5   0   81.39    3.40
   1   5   0   73.99    3.30
  -1   5   0   80.99    3.30
  -1   5   0   73.09    3.30
  -1   5   0   76.59    3.30
   1   5   0   75.19    3.30
   1   5   0   72.99    3.30
  -1   5   0   74.89    3.30
   1   5   0   74.89    3.30
  -2  -5   0  584.34   23.80
   2  -5   0  563.24   23.80
   2  -5   0  565.54   23.80
   2  -5   0  491.85   23.80
  -2  -5   0  524.25   23.80
   2   5   0  557.44   23.80
  -2   5   0  551.44   23.80
  -2   5   0  592.14   23.80
   2   5   0  570.24   23.80
   2   5   0  582.44   23.80
  -2   5   0  591.04   23.80
   2   5   0  576.74   23.80
  -2   5   0  562.54   23.80
   3  -5   0    5.70    0.40
  -3  -5   0    5.50    0.40
   3  -5   0    4.70    0.30
   3  -5   0    4.60    0.40
  -3  -5   0    4.90    0.30
   3   5   0    5.30    0.40
  -3   5   0    4.70    0.30
   3   5   0    4.00    0.40
  -3   5   0    4.60    0.30
  -3   5   0    4.90    0.30
   3   5   0    4.90    0.40
   3   5   0    6.30    0.30
  -3   5   0    5.00    0.40
   4  -5   0    0.20    0.20
   4  -5   0    0.40    0.20
  -4  -5   0    0.90    0.20
  -4  -5   0    0.50    0.20
   4  -5   0    0.30    0.20
  -4   5   0    0.80    0.20
   4   5   0    0.40    0.20
  -4   5   0    0.30    0.20
   4   5   0    0.60    0.20
   4   5   0    0.40    0.20
  -5  -5   0  771.32   32.40
  -5  -5   0  728.13   32.40
   5  -5   0  767.32   32.40
   5  -5   0  791.22   32.40
   5   5   0  757.12   32.40
  -5   5   0  743.53   32.40
   5   5   0  781.32   32.40
  -5   5   0  751.22   32.40
  -5   5   0  767.52   32.30
   5   5   0  788.22   32.40
  -6  -5   0    7.00    0.60
   6  -5   0    6.80    0.60
  -6  -5   0    7.20    0.50
   6  -5   0    7.90    0.60
   6   5   0    7.30    0.60
   6   5   0    8.00    0.70
   6   5   0    7.00    0.50
  -6   5   0    7.50    0.60
  -6   5   0    7.90    0.50
  -7  -5   0   26.70    1.30
  -7  -5   0   28.00    1.40
   7  -5   0   26.70    1.40
   7   5   0   23.00    1.40
  -7   5   0   26.20    1.30
   7   5   0   26.20    1.40
  -7   5   0   26.50    1.30
  -8  -5   0    0.00    0.30
   8  -5   0   -0.10    0.30
   8   5   0    0.10    0.30
  -8   5   0    0.10    0.30
   8   5   0   -0.10    0.30
  -8   5   0    0.00    0.30
  -9  -5   0   23.20    1.20
   9  -5   0   21.20    1.40
  -9   5   0   26.80    1.50
  -9   5   0   23.10    1.30
   9   5   0   22.60    1.40
   9   5   0   22.50    1.40
   0  -6   0  213.08    9.00
   0  -6   0  218.98    9.00
   0  -6   0  208.28    8.90
   0   6   0  214.88    9.00
   0   6   0  209.08    9.00
   0   6   0  219.08    9.00
   0   6   0  190.08    8.90
  -1  -6   0   85.59    3.50
  -1  -6   0   71.99    3.50
   1  -6   0   78.59    3.60
   1  -6   0   78.99    3.60
  -1  -6   0   79.79    3.60
   1   6   0   88.39    3.60
   1   6   0   81.69    3.50
  -1   6   0   86.49    3.50
  -1   6   0   87.19    3.60
  -1   6   0   83.69    3.60
  -1   6   0   78.59    3.60
   1   6   0   85.39    3.60
   1   6   0   81.69    3.60
  -2  -6   0   30.40    1.40
  -2  -6   0   33.30    1.50
   2  -6   0   33.60    1.40
   2  -6   0   29.20    1.40
  -2   6   0   30.20    1.40
   2   6   0   30.90    1.40
   2   6   0   30.60    1.40
   2   6   0   29.20    1.40
  -2   6   0   31.70    1.40
  -2   6   0   29.30    1.40
  -2   6   0   29.50    1.40
   2   6   0   29.70    1.40
   3  -6   0   11.40    0.70
  -3  -6   0   11.70    0.70
   3  -6   0   12.20    0.60
  -3  -6   0   12.40    0.60
   3  -6   0   12.90    0.70
   3   6   0   11.90    0.70
   3   6   0   14.50    0.60
  -3   6   0   12.50    0.60
  -3   6   0   12.40    0.60
   3   6   0   12.60    0.70
  -3   6   0   13.40    0.70
  -3   6   0   12.80    0.70
   3   6   0   11.90    0.70
   4  -6   0   19.60    1.00
   4  -6   0   19.50    1.00
  -4  -6   0   17.90    0.90
  -4  -6   0   18.30    1.00
  -4   6   0   18.60    1.00
   4   6   0   19.10    1.00
   4   6   0   17.40    0.90
   4   6   0   18.10    1.00
  -4   6   0   19.00    0.90
  -4   6   0   18.60    0.90
  -5  -6   0   20.00    1.10
   5  -6   0   23.20    1.10
  -5  -6   0   21.70    1.00
   5  -6   0   21.40    1.20
   5   6   0   20.70    1.10
   5   6   0   20.70    1.10
  -5   6   0   23.10    1.00
  -5   6   0   21.90    1.10
  -5   6   0   21.80    1.10
   5   6   0   21.10    1.10
  -6  -6   0    0.80    0.20
  -6  -6   0    1.10    0.30
   6  -6   0    0.50    0.30
  -6   6   0    0.90    0.20
   6   6   0    0.90    0.30
  -6   6   0    0.60    0.30
   6   6   0    0.90    0.30
   6   6   0    1.00    0.20
   7  -6   0   52.49    2.30
  -7  -6   0   43.00    2.20
  -7  -6   0   48.10    2.20
  -7   6   0   44.50    2.20
   7   6   0   45.40    2.30
  -7   6   0   44.50    2.10
   7   6   0   45.80    2.20
   8  -6   0    8.60    0.80
  -8   6   0    8.00    0.70
   8   6   0    8.80    0.80
  -8   6   0    8.60    0.70
   8   6   0    8.50    0.80
   9  -6   0    0.80    0.40
   9   6   0    1.60    0.40
   9   6   0    1.20    0.40
   0  -7   0    0.00    0.20
   0  -7   0    0.20    0.10
   0  -7   0   -0.10    0.20
   0   7   0    0.20    0.10
   0   7   0    0.30    0.20
   0   7   0    0.30    0.20
   0   7   0    0.00    0.20
  -1  -7   0  141.49    6.10
  -1  -7   0  157.98    6.20
   1  -7   0  135.79    6.10
   1  -7   0  138.99    6.10
   1   7   0  141.99    6.10
   1   7   0  140.99    6.10
   1   7   0  143.09    6.10
  -1   7   0  141.79    6.10
  -1   7   0  142.29    6.10
   1   7   0  146.59    6.10
  -1   7   0  138.09    6.10
  -1   7   0  133.79    6.10
   2  -7   0   25.60    1.20
  -2  -7   0   24.50    1.20
   2  -7   0   24.10    1.20
  -2   7   0   23.60    1.20
   2   7   0   26.00    1.20
   2   7   0   25.50    1.20
  -2   7   0   24.60    1.20
   2   7   0   24.80    1.20
  -2   7   0   24.90    1.20
  -2   7   0   24.40    1.10
   2   7   0   25.30    1.20
   3  -7   0   57.59    2.70
  -3  -7   0   61.79    2.70
   3  -7   0   60.89    2.70
   3   7   0   62.99    2.70
  -3   7   0   59.99    2.70
  -3   7   0   58.09    2.60
  -3   7   0   60.09    2.60
   3   7   0   59.59    2.60
   3   7   0   51.59    2.60
  -4  -7   0  188.58    8.10
   4  -7   0  171.58    8.10
   4  -7   0  198.78    8.10
  -4   7   0  189.18    8.00
   4   7   0  186.78    8.00
  -4   7   0  184.78    8.00
   4   7   0  187.98    8.10
  -4   7   0  189.58    8.10
   4   7   0  190.78    8.10
   5  -7   0   14.80    0.90
  -5  -7   0   14.60    0.90
   5  -7   0   15.60    0.90
   5   7   0   15.30    0.80
   5   7   0   15.30    0.90
  -5   7   0   15.20    0.80
   5   7   0   15.10    0.90
  -5   7   0   15.90    0.90
  -5   7   0   14.80    0.80
   6  -7   0   62.59    2.80
  -6  -7   0   58.79    2.80
   6   7   0   59.09    2.80
   6   7   0   58.79    2.70
  -6   7   0   59.89    2.70
  -6   7   0   58.59    2.70
   6   7   0   59.39    2.70
   7  -7   0   -0.60    0.30
  -7  -7   0   -0.30    0.30
   7   7   0   -0.30    0.30
  -7   7   0    0.00    0.30
  -7   7   0    0.20    0.30
   7   7   0    0.00    0.30
   8  -7   0    1.80    0.40
   8   7   0    2.10    0.50
  -8   7   0    1.70    0.30
  -8   7   0    2.30    0.40
   8   7   0    1.50    0.40
   9  -7   0   65.89    3.50
   9   7   0   64.39    3.10
   0  -8   0  141.89    6.30
   0  -8   0  139.49    6.20
   0   8   0  147.29    6.30
   0   8   0  145.29    6.30
   0   8   0  153.28    6.30
   1  -8   0   48.80    2.30
   1  -8   0   49.50    2.30
  -1  -8   0   58.59    2.40
  -1  -8   0   50.09    2.30
  -1   8   0   49.80    2.30
  -1   8   0   47.80    2.30
   1   8   0   52.19    2.30
   1   8   0   49.30    2.30
  -1   8   0   50.09    2.30
   1   8   0   49.40    2.20
   1   8   0   50.19    2.30
   2  -8   0   94.79    4.20
  -2  -8   0   99.79    4.30
   2  -8   0   93.29    4.20
  -2   8   0   92.69    4.20
   2   8   0   92.59    4.10
   2   8   0   96.69    4.20
   2   8   0   99.49    4.20
   2   8   0   96.69    4.10
  -2   8   0   95.79    4.20
  -2   8   0   93.09    4.20
   3  -8   0   80.39    3.40
   3  -8   0   70.79    3.40
  -3  -8   0   78.79    3.50
   3   8   0   79.09    3.40
   3   8   0   77.49    3.40
  -3   8   0   77.89    3.40
  -3   8   0   75.19    3.40
   3   8   0   77.19    3.50
   4  -8   0    6.00    0.60
  -4  -8   0    5.70    0.60
   4  -8   0    5.40    0.60
  -4   8   0    6.20    0.60
   4   8   0    5.70    0.50
   4   8   0    5.70    0.60
  -4   8   0    6.20    0.50
   4   8   0    5.70    0.50
   5  -8   0   10.00    0.80
   5  -8   0    9.30    0.70
  -5  -8   0   10.00    0.80
   5   8   0   10.70    0.70
   5   8   0    9.20    0.80
  -5   8   0    8.90    0.60
  -5   8   0    9.60    0.70
   5   8   0    9.20    0.70
  -6  -8   0  152.48    6.70
   6  -8   0  168.48    6.70
   6   8   0  143.49    6.70
   6   8   0  144.69    6.60
  -6   8   0  150.08    6.60
   7  -8   0    7.90    0.80
  -7  -8   0    6.80    0.80
   7   8   0    6.00    0.70
  -7   8   0    6.70    0.70
   0  -9   0   -0.40    0.30
   0   9   0   -0.10    0.20
   0   9   0    0.20    0.20
   0   9   0   -0.10    0.20
   1  -9   0  162.68    7.30
  -1  -9   0  187.48    7.40
  -1   9   0  165.88    7.30
  -1   9   0  168.18    7.30
   1   9   0  170.18    7.30
  -1   9   0  163.98    7.30
   1   9   0  168.78    7.30
   1   9   0  166.18    7.30
   2  -9   0    8.00    0.70
  -2  -9   0    7.20    0.70
  -2   9   0    7.70    0.60
  -2   9   0    7.40    0.60
   2   9   0    6.40    0.50
   2   9   0    6.80    0.60
   3  -9   0    0.10    0.30
  -3  -9   0    0.40    0.30
  -3   9   0    0.50    0.30
   3   9   0    0.30    0.30
  -3   9   0    0.20    0.20
   3   9   0    0.30    0.20
  -4  -9   0    3.10    0.40
   4  -9   0    3.70    0.40
  -4   9   0    3.70    0.40
  -4   9   0    2.90    0.40
   4   9   0    3.40    0.40
   4   9   0    3.30    0.40
   5  -9   0   40.10    2.00
  -5  -9   0   38.60    2.00
   5   9   0   40.00    1.90
  -5   9   0   40.50    1.90
  -5   9   0   40.20    1.90
   5   9   0   41.30    2.00
  -6  -9   0   59.19    2.90
  -6   9   0   60.99    2.80
   6   9   0   59.79    2.90
  -7  -9   0   98.59    4.50
   7   9   0   97.29    4.50
   0 -10   0   -0.10    0.30
   0  10   0    0.10    0.20
   0  10   0    0.00    0.30
   0  10   0   -0.10    0.20
  -1 -10   0   88.79    4.00
   1 -10   0   82.49    3.90
  -1  10   0   86.99    3.90
   1  10   0   89.79    3.90
   1  10   0   93.39    3.90
  -1  10   0   83.89    3.90
   2 -10   0   41.70    2.00
  -2 -10   0   42.80    2.00
  -2  10   0   41.70    1.90
   2  10   0   39.40    2.00
  -2  10   0   39.50    1.90
   2  10   0   38.60    1.90
   3 -10   0   48.00    2.30
  -3 -10   0   47.00    2.30
  -3  10   0   49.20    2.30
   3  10   0   46.60    2.30
  -3  10   0   47.60    2.20
   3  10   0   47.50    2.20
   4 -10   0   36.30    1.80
  -4 -10   0   33.60    1.80
   4  10   0   35.30    1.80
  -4  10   0   34.50    1.70
   4  10   0   34.50    1.70
  -4  10   0   34.10    1.70
  -5 -10   0    5.50    0.60
   5  10   0    6.20    0.80
   5  10   0    7.70    0.60
  -5  10   0    6.90    0.70
  -6 -10   0    1.50    0.50
   6  10   0    0.80    0.40
   0 -11   0   -0.40    0.30
   0  11   0   -0.20    0.30
   0  11   0   -0.20    0.30
   1 -11   0    2.40    0.40
  -1 -11   0    1.80    0.40
   1  11   0    2.00    0.30
  -1  11   0    1.60    0.40
   1  11   0    2.20    0.40
  -1  11   0    2.40    0.40
  -2 -11   0   29.30    1.70
   2 -11   0   32.60    1.70
   2  11   0   31.40    1.60
   2  11   0   31.10    1.60
  -2  11   0   30.50    1.60
  -2  11   0   32.20    1.60
  -3 -11   0   25.30    1.50
   3 -11   0   25.60    1.40
   3  11   0   26.50    1.40
  -3  11   0   25.40    1.30
  -3  11   0   26.40    1.40
   4 -11   0    6.80    0.80
  -4 -11   0    7.70    0.90
   4  11   0    8.90    0.70
  -4  11   0    7.60    0.70
   4  11   0    8.00    0.80
  -4  11   0    8.70    0.80
  -5 -11   0  148.59    6.60
   5  11   0  147.79    6.60
   5  11   0  144.39    6.40
   0 -12   0  233.48   10.00
   0  12   0  224.78    9.90
  -1 -12   0   94.29    4.30
   1 -12   0   94.39    4.30
  -1  12   0   90.39    4.20
   1  12   0   92.39    4.20
  -1  12   0   94.79    4.20
  -2 -12   0    1.60    0.50
   2 -12   0    2.50    0.50
  -2  12   0    2.80    0.40
  -2  12   0    2.30    0.40
   2  12   0    2.40    0.40
   2  12   0    1.90    0.40
   3 -12   0   52.19    2.50
  -3 -12   0   50.29    2.50
  -3  12   0   47.20    2.30
   3  12   0   47.30    2.30
   3  12   0   48.00    2.40
   4 -12   0   41.20    2.20
  -4  12   0   42.70    2.10
   4  12   0   44.90    2.50
  10   0  -1    0.10    0.40
 -10   0   1    0.10    0.30
  -9   0   1    0.10    0.30
   9   0  -1    0.10    0.40
   8   0  -1   -0.10    0.20
  -8   0   1   -0.10    0.20
   8   0  -1   -0.10    0.30
   8   0  -1    0.10    0.20
  -8   0   1   -0.20    0.20
   7   0  -1    0.10    0.20
  -7   0   1   -0.30    0.20
   7   0  -1   -0.10    0.20
  -7   0   1   -0.10    0.20
  -6   0   1    0.10    0.20
   6   0  -1    0.70    0.20
  -6   0   1    0.10    0.10
  -6   0   1    0.00    0.20
   6   0  -1    0.00    0.20
   5   0  -1    0.10    0.10
  -5   0   1    0.00    0.10
   5   0  -1    0.60    0.10
   5   0  -1    0.70    0.20
  -5   0   1    0.20    0.10
   4   0  -1    0.30    0.10
  -4   0   1    0.30    0.20
  -4   0   1    0.20    0.10
   4   0  -1    0.00    0.10
  -4   0   1    0.30    0.10
   4   0  -1    0.30    0.10
   3   0  -1    0.00    0.10
  -3   0   1    0.30    0.10
  -3   0   1    0.30    0.10
   3   0  -1    0.20    0.10
  -3   0   1    0.10    0.10
   2   0  -1   -0.60    0.10
  -2   0   1   -0.40    0.10
  -2   0   1   -0.50    0.10
   2   0  -1   -0.30    0.10
   1   0  -1    0.20    0.10
  -1   0   1    0.20    0.10
  -1   0   1    0.40    0.10
  -1   0   1    0.20    0.10
  -1   0   1    0.40    0.10
   0   0  -1   -0.60    0.10
   0   0   1   -0.70    0.10
   0   0   1   -0.80    0.10
   0   0  -1   -0.50    0.10
   0   0   1   -0.80    0.10
   1   0   1   -2.40    0.10
  -1   0  -1   -1.90    0.10
   1   0   1   -2.20    0.10
  -1   0  -1   -1.90    0.10
   1   0   1   -2.10    0.10
  -2   0  -1    0.10    0.10
   2   0   1   -0.10    0.10
   2   0   1    0.10    0.10
  -2   0  -1   -0.10    0.10
  -3   0  -1   -0.10    0.10
   3   0   1    0.10    0.20
   3   0   1    0.20    0.20
  -3   0  -1    0.40    0.10
   3   0   1    0.10    0.10
  -3   0  -1    0.40    0.10
  -4   0  -1    0.00    0.10
   4   0   1    0.20    0.10
   4   0   1    0.00    0.10
  -4   0  -1   -0.10    0.10
   4   0   1    0.40    0.20
  -4   0  -1    0.20    0.10
   5   0   1    0.10    0.20
  -5   0  -1    0.20    0.10
   5   0   1    0.10    0.10
   5   0   1    0.20    0.20
  -5   0  -1   -0.10    0.20
  -5   0  -1    0.10    0.10
  -6   0  -1   -0.10    0.30
   6   0   1    0.10    0.20
  -6   0  -1   -0.10    0.20
   6   0   1    0.10    0.20
  -6   0  -1    0.00    0.20
   7   0   1    0.10    0.30
  -7   0  -1    0.00    0.20
   7   0   1    0.00    0.30
  -7   0  -1    0.30    0.20
   8   0   1    0.20    0.30
   8   0   1    0.20    0.40
  -8   0  -1   -0.10    0.20
  -9   0  -1   -0.30    0.30
   9   0   1   -0.60    0.40
  10  -1  -1    8.00    0.90
 -10  -1   1    7.60    0.70
 -10   1   1    8.10    0.90
  10   1  -1    8.10    0.80
   9  -1  -1    2.60    0.40
  -9  -1   1    2.50    0.40
   9   1  -1    2.90    0.40
   9   1  -1    3.40    0.50
  -9   1   1    2.50    0.30
   8  -1  -1  147.79    6.50
  -8  -1   1  147.19    6.50
  -8  -1   1  143.49    6.50
  -8   1   1  145.79    6.50
   8   1  -1  158.88    6.50
  -8   1   1  152.08    6.50
  -7  -1   1   17.10    1.00
  -7  -1   1   18.40    0.90
   7  -1  -1   19.50    1.00
   7  -1  -1   18.00    1.00
   7  -1  -1   17.60    1.00
  -7   1   1   18.10    0.90
   7   1  -1   18.20    1.00
   7   1  -1   18.90    1.00
  -7   1   1   16.70    0.90
  -7   1   1   20.30    1.00
  -6  -1   1   83.49    3.60
   6  -1  -1   82.09    3.60
   6  -1  -1   80.89    3.60
  -6  -1   1   81.49    3.50
  -6  -1   1   77.19    3.60
  -6   1   1   81.59    3.50
   6   1  -1   81.09    3.60
  -6   1   1   85.89    3.60
  -6   1   1   85.79    3.60
   6   1  -1   75.59    3.60
  -5  -1   1   52.49    2.40
  -5  -1   1   52.89    2.40
   5  -1  -1   48.50    2.40
   5  -1  -1   51.89    2.40
  -5  -1   1   55.39    2.30
   5   1  -1   60.79    2.30
  -5   1   1   55.89    2.30
   5   1  -1   58.59    2.40
  -5   1   1   54.39    2.40
  -5   1   1   54.19    2.40
   5   1  -1   52.19    2.40
   4  -1  -1   44.00    1.80
  -4  -1   1   40.40    1.80
  -4  -1   1   41.80    1.80
  -4  -1   1   38.80    1.80
   4  -1  -1   37.00    1.80
   4  -1  -1   41.10    1.80
   4   1  -1   38.40    1.80
  -4   1   1   43.70    1.80
   4   1  -1   39.50    1.70
  -4   1   1   40.00    1.80
  -4   1   1   42.70    1.70
   4   1  -1   41.50    1.80
  -4   1   1   41.30    1.80
   3  -1  -1 1732.63   77.29
  -3  -1   1 1825.92   78.19
   3  -1  -1 1904.41   77.39
  -3  -1   1 1752.22   77.29
   3  -1  -1 1672.63   77.19
  -3   1   1 2016.50   77.49
   3   1  -1 1900.71   77.39
  -3   1   1 1762.22   77.29
  -3   1   1 1836.22   77.29
  -3   1   1 1838.42   77.79
   3   1  -1 1661.63   77.29
   3   1  -1 1998.60   77.09
   2  -1  -1  232.28    9.30
   2  -1  -1  221.68    9.30
  -2  -1   1  226.98    9.30
   2  -1  -1  202.78    9.30
  -2  -1   1  228.28    9.30
  -2  -1   1  191.48    9.30
   2   1  -1  220.78    9.30
  -2   1   1  214.68    9.30
   2   1  -1  213.88    9.30
   2   1  -1  221.18    9.20
  -2   1   1  214.28    9.30
  -2   1   1  221.78    9.30
   2   1  -1  233.78    9.30
  -1  -1   1  240.38    9.80
  -1  -1   1  232.38    9.80
   1  -1  -1  243.58    9.90
  -1  -1   1  221.78    9.80
  -1  -1   1  224.68    9.80
   1   1  -1  227.88   10.00
  -1   1   1  244.68    9.80
   1   1  -1  240.98    9.80
   1   1  -1  222.58    9.80
   1   1  -1  209.58    9.80
   1   1  -1  231.48    9.80
  -1   1   1  237.08    9.80
   1   1  -1  227.38    9.80
  -1   1   1  231.48    9.80
   0  -1   1  731.53   32.60
   0  -1  -1  778.42   31.00
   0  -1   1  725.03   31.10
   0  -1  -1  680.73   31.00
   0  -1   1  719.03   31.00
   0  -1   1  748.03   31.00
   0  -1   1  747.03   31.00
   0   1  -1  739.63   31.00
   0   1   1  734.73   31.00
   0   1   1  733.83   31.00
   0   1   1  639.34   32.00
   0   1  -1  742.43   31.00
   0   1  -1  756.92   31.00
   0   1   1  736.53   31.10
   0   1   1  723.53   31.30
   1  -1   1   19.20    0.80
   1  -1   1   19.00    0.90
  -1  -1  -1   17.10    0.90
   1  -1   1   18.00    0.90
   1  -1   1   18.50    0.90
  -1  -1  -1   18.30    0.90
  -1   1  -1   18.30    0.90
  -1   1  -1   17.70    0.80
   1   1   1   18.40    0.90
   1   1   1   19.70    0.90
   1   1   1   19.20    0.90
  -1   1  -1   18.20    0.80
   1   1   1   19.20    0.90
  -2  -1  -1  216.98    9.90
   2  -1   1  209.88   10.00
   2  -1   1  256.27   10.00
   2  -1   1  226.38    9.90
  -2  -1  -1  236.38    9.90
   2  -1   1  235.48    9.90
  -2  -1  -1  236.68    9.90
   2   1   1  242.18   10.00
  -2   1  -1  223.48    9.90
   2   1   1  247.38    9.90
   2   1   1  259.77   10.00
   2   1   1  219.38    9.90
  -2   1  -1  231.98    9.90
  -2   1  -1  232.08    9.90
  -2   1  -1  241.68    9.90
   3  -1   1   14.20    0.70
  -3  -1  -1   14.20    0.70
   3  -1   1   13.20    0.60
  -3  -1  -1   14.00    0.70
  -3  -1  -1   14.60    0.70
   3  -1   1   13.00    0.70
   3  -1   1   15.40    0.70
   3   1   1   14.00    0.70
   3   1   1   13.00    0.70
  -3   1  -1   13.50    0.70
  -3   1  -1   14.40    0.70
  -3   1  -1   15.50    0.70
  -3   1  -1   14.10    0.60
   3   1   1   12.80    0.70
  -4  -1  -1   32.20    1.50
   4  -1   1   36.30    1.50
   4  -1   1   32.20    1.50
  -4  -1  -1   33.70    1.50
   4  -1   1   34.00    1.60
   4  -1   1   33.50    1.60
  -4  -1  -1   34.70    1.50
   4   1   1   32.00    1.60
   4   1   1   35.50    1.50
  -4   1  -1   37.10    1.50
  -4   1  -1   34.20    1.50
  -4   1  -1   33.20    1.50
  -4   1  -1   33.20    1.50
  -5  -1  -1  113.69    5.00
  -5  -1  -1  115.39    5.00
   5  -1   1  119.99    5.10
   5  -1   1  119.09    5.00
   5  -1   1  108.29    5.10
  -5  -1  -1  118.09    5.00
   5  -1   1  127.09    5.00
   5   1   1  115.49    5.00
  -5   1  -1  113.09    5.00
   5   1   1  117.89    5.10
  -5   1  -1  113.59    5.00
  -5   1  -1  115.79    5.00
  -5   1  -1  118.09    5.00
   5   1   1  115.69    5.10
   6  -1   1  193.38    8.00
   6  -1   1  178.78    8.00
  -6  -1  -1  184.68    7.90
  -6  -1  -1  197.68    8.00
  -6  -1  -1  178.48    7.90
  -6   1  -1  185.78    7.90
  -6   1  -1  181.48    7.90
   6   1   1  182.28    8.00
  -7  -1  -1    6.20    0.50
   7  -1   1    5.80    0.60
   7  -1   1    6.80    0.60
   7   1   1    5.60    0.60
  -7   1  -1    5.60    0.50
   7   1   1    6.10    0.60
  -7   1  -1    5.80    0.50
   8  -1   1   59.69    2.70
  -8  -1  -1   56.89    2.60
   8  -1   1   58.39    2.80
   8   1   1   59.49    2.70
   8   1   1   57.39    2.70
  -8   1  -1   55.39    2.60
  -9  -1  -1  174.68    7.60
   9  -1   1  167.68    7.70
   9   1   1  165.48    7.70
   9   1   1  183.88    7.70
  -9   1  -1  178.68    7.60
 -10  -2   1   94.49    4.20
  10  -2  -1   97.39    4.30
  10   2  -1   88.89    4.30
   9  -2  -1   59.89    3.00
  -9  -2   1   63.19    2.90
  -9   2   1   63.49    2.90
   9   2  -1   67.29    3.00
   9   2  -1   68.39    3.00
   8  -2  -1   16.40    1.10
  -8  -2   1   17.30    1.00
  -8  -2   1   16.50    1.00
   8   2  -1   19.30    1.00
  -8   2   1   17.10    0.90
  -8   2   1   18.10    0.90
   8   2  -1   18.10    1.10
   7  -2  -1  146.99    6.20
  -7  -2   1  128.49    6.20
  -7  -2   1  143.19    6.20
   7  -2  -1  156.88    6.20
   7   2  -1  148.59    6.20
   7   2  -1  136.79    6.20
  -7   2   1  141.69    6.20
  -7   2   1  138.29    6.10
  -7   2   1  143.79    6.20
   6  -2  -1  525.25   22.60
  -6  -2   1  542.55   22.60
   6  -2  -1  545.95   22.60
  -6  -2   1  535.65   22.60
   6  -2  -1  497.55   22.60
   6   2  -1  547.85   22.60
  -6   2   1  533.25   22.60
   6   2  -1  499.45   22.60
  -6   2   1  527.45   22.60
  -6   2   1  574.04   22.60
   5  -2  -1  308.27   15.20
  -5  -2   1  367.16   15.10
  -5  -2   1  369.06   15.20
   5  -2  -1  366.56   15.20
   5  -2  -1  351.66   15.20
  -5  -2   1  361.96   15.20
  -5   2   1  362.06   15.20
   5   2  -1  350.66   15.20
  -5   2   1  345.47   15.20
  -5   2   1  370.86   15.10
  -5   2   1  365.96   15.20
   5   2  -1  355.76   15.20
   5   2  -1  372.96   15.10
   4  -2  -1  115.69    5.10
   4  -2  -1  110.39    5.10
   4  -2  -1  124.79    5.10
  -4  -2   1  121.79    5.00
  -4  -2   1  116.09    5.10
  -4  -2   1  118.39    5.10
  -4   2   1  124.39    5.10
  -4   2   1  120.49    5.10
   4   2  -1  112.99    5.10
  -4   2   1  119.79    5.10
   4   2  -1  115.39    5.10
   4   2  -1  119.69    5.00
   3  -2  -1   66.79    2.90
  -3  -2   1   66.19    2.90
  -3  -2   1   64.39    2.80
   3  -2  -1   60.89    2.90
  -3  -2   1   67.09    2.80
  -3  -2   1   70.69    2.80
   3  -2  -1   67.49    2.80
  -3   2   1   68.89    2.80
   3   2  -1   61.99    2.90
  -3   2   1   66.69    2.80
  -3   2   1   64.99    2.80
   3   2  -1   64.79    2.90
   3   2  -1   67.09    2.80
  -3   2   1   56.59    2.90
   2  -2  -1  155.08    6.50
  -2  -2   1  146.19    6.60
  -2  -2   1  160.28    6.60
   2  -2  -1  158.18    6.60
  -2  -2   1  140.99    6.60
   2  -2  -1  155.18    6.60
  -2   2   1  162.18    6.60
   2   2  -1  145.99    6.60
  -2   2   1  154.08    6.60
   2   2  -1  154.88    6.60
  -2   2   1  166.68    6.60
   2   2  -1  158.78    6.60
   1  -2  -1  125.69    5.60
  -1  -2   1  120.49    5.60
   1  -2  -1  129.79    5.60
  -1  -2   1  116.39    5.60
  -1  -2   1  138.69    5.70
  -1   2   1  142.89    5.60
   1   2  -1  133.19    5.60
   1   2  -1  136.39    5.60
  -1   2   1  137.49    5.60
  -1   2   1  131.09    5.60
   1   2  -1  135.39    5.60
  -1   2   1  133.59    5.60
   1   2  -1  125.79    5.60
   0  -2   1 2152.88   94.69
   0  -2   1 2127.69   94.99
   0  -2   1 2099.89   94.69
   0  -2  -1 2380.36   94.69
   0  -2   1 2223.58   94.69
   0  -2  -1 2574.44   94.69
   0   2   1 2265.47   94.69
   0   2  -1 2117.39   96.39
   0   2   1 2183.98   96.79
   0   2  -1 2190.98   94.59
   0   2   1 2146.39   95.29
   0   2   1 2261.67   94.59
   0   2  -1 2179.68   94.89
   0   2  -1 2396.56   94.69
   0   2   1 2260.37   94.59
   1  -2   1   19.80    1.00
  -1  -2  -1   20.50    1.00
   1  -2   1   19.80    1.00
   1  -2   1   20.80    1.00
  -1  -2  -1   22.10    1.00
   1   2   1   21.10    1.00
   1   2   1   21.70    1.00
   1   2   1   23.40    1.00
  -1   2  -1   21.20    1.00
   1   2   1   22.70    1.00
  -1   2  -1   20.70    1.00
  -1   2  -1   21.00    0.90
   2  -2   1   21.10    0.90
   2  -2   1   20.30    1.00
  -2  -2  -1   20.10    1.00
  -2  -2  -1   17.90    0.90
  -2  -2  -1   19.20    0.90
  -2   2  -1   19.20    0.90
   2   2   1   19.90    0.90
  -2   2  -1   20.20    0.90
   2   2   1   19.10    0.90
   2   2   1   17.90    1.00
  -2   2  -1   19.10    0.90
   2   2   1   19.00    0.90
   3  -2   1   39.10    1.80
   3  -2   1   37.50    1.70
   3  -2   1   39.60    1.80
  -3  -2  -1   37.40    1.70
  -3  -2  -1   39.20    1.70
   3  -2   1   39.30    1.70
  -3  -2  -1   37.90    1.70
  -3   2  -1   38.70    1.70
   3   2   1   39.80    1.80
   3   2   1   38.20    1.70
   3   2   1   41.30    1.70
   3   2   1   38.80    1.70
  -3   2  -1   40.40    1.70
  -3   2  -1   40.80    1.70
  -4  -2  -1   72.79    3.40
  -4  -2  -1   79.09    3.40
   4  -2   1   76.49    3.30
   4  -2   1   77.09    3.40
   4  -2   1   73.19    3.40
  -4  -2  -1   77.79    3.40
   4  -2   1   83.79    3.40
  -4   2  -1   78.29    3.40
   4   2   1   77.89    3.40
   4   2   1   79.69    3.40
  -4   2  -1   79.79    3.30
   4   2   1   81.19    3.40
  -4   2  -1   76.89    3.40
  -5  -2  -1    1.60    0.20
   5  -2   1    1.40    0.20
   5  -2   1    1.40    0.20
  -5  -2  -1    1.00    0.20
   5  -2   1    0.90    0.30
  -5  -2  -1    0.90    0.20
  -5   2  -1    1.30    0.20
  -5   2  -1    1.10    0.20
   5   2   1    1.20    0.20
   5   2   1    0.60    0.20
   5   2   1    0.80    0.20
  -5   2  -1    0.80    0.20
  -6  -2  -1   41.40    1.90
  -6  -2  -1   42.70    1.90
   6  -2   1   43.70    2.00
   6  -2   1   44.10    2.00
  -6   2  -1   43.70    1.90
  -6   2  -1   42.20    1.90
   6   2   1   39.00    2.00
   6   2   1   41.20    2.00
  -7  -2  -1   13.10    0.80
   7  -2   1   12.60    0.90
   7  -2   1   13.00    0.80
  -7   2  -1   13.90    0.80
   7   2   1   13.00    0.90
  -7   2  -1   13.50    0.80
   7   2   1   13.20    0.80
   8  -2   1    3.20    0.50
  -8  -2  -1    4.70    0.40
  -8   2  -1    3.50    0.40
   8   2   1    3.10    0.50
   8   2   1    4.00    0.50
  -8   2  -1    4.70    0.50
  -9  -2  -1    0.60    0.30
   9  -2   1    0.80    0.40
   9   2   1    1.20    0.40
  -9   2  -1    0.40    0.30
   9   2   1    0.50    0.40
 -10  -3   1   28.90    1.50
  10  -3  -1   26.20    1.60
  10   3  -1   28.30    1.60
  10   3  -1   26.20    1.50
  -9  -3   1   40.00    2.00
   9  -3  -1   42.50    2.10
  -9   3   1   37.80    2.00
   9   3  -1   42.40    2.10
   9   3  -1   43.30    2.10
  -8  -3   1   31.20    1.50
   8  -3  -1   28.40    1.50
  -8  -3   1   28.80    1.50
  -8   3   1   30.60    1.50
   8   3  -1   31.60    1.60
   8   3  -1   30.90    1.60
  -8   3   1   29.70    1.50
  -7  -3   1  107.69    4.70
   7  -3  -1  112.99    4.70
  -7  -3   1  111.59    4.80
   7  -3  -1  103.99    4.80
  -7   3   1  106.79    4.70
  -7   3   1  107.79    4.70
   7   3  -1  101.29    4.70
   7   3  -1  109.89    4.80
  -6  -3   1   99.29    4.20
   6  -3  -1   99.59    4.30
   6  -3  -1   89.19    4.30
  -6  -3   1  101.39    4.30
   6   3  -1  105.39    4.30
  -6   3   1   95.99    4.30
  -6   3   1   94.29    4.20
   6   3  -1   97.39    4.30
   5  -3  -1  342.77   14.90
  -5  -3   1  319.27   15.00
  -5  -3   1  350.66   14.90
   5  -3  -1  371.46   15.00
   5  -3  -1  338.47   15.00
  -5   3   1  364.26   14.90
  -5   3   1  348.57   14.90
   5   3  -1  386.36   15.00
   5   3  -1  368.36   14.90
  -5   3   1  347.17   14.90
   5   3  -1  330.97   15.00
   4  -3  -1  864.51   40.20
  -4  -3   1  987.40   40.20
  -4  -3   1  909.11   40.30
  -4  -3   1  866.61   40.20
   4  -3  -1  917.01   40.30
   4  -3  -1 1087.39   40.30
  -4   3   1  949.01   40.20
   4   3  -1 1003.20   40.40
  -4   3   1  922.11   40.20
   4   3  -1  999.60   40.30
   4   3  -1  947.11   40.40
  -4   3   1  950.60   40.40
   3  -3  -1  114.99    4.50
  -3  -3   1  103.59    4.50
   3  -3  -1  114.69    4.60
   3  -3  -1  103.89    4.60
  -3  -3   1  103.09    4.50
  -3   3   1  106.59    4.60
   3   3  -1  106.69    4.60
   3   3  -1  103.59    4.60
   3   3  -1  112.89    4.50
   3   3  -1   99.79    4.60
  -3   3   1  107.19    4.50
  -3   3   1  103.79    4.60
  -2  -3   1 1089.19   43.30
  -2  -3   1  920.71   43.30
  -2  -3   1  996.80   43.10
   2  -3  -1 1147.19   43.30
   2  -3  -1 1034.30   43.30
   2   3  -1  946.01   43.10
  -2   3   1  935.41   43.20
  -2   3   1 1009.90   43.20
   2   3  -1 1042.30   43.10
   2   3  -1 1018.20   43.30
   2   3  -1 1054.49   43.30
  -2   3   1 1026.70   43.10
  -2   3   1 1019.90   46.00
   1  -3  -1  699.53   30.00
   1  -3  -1  719.33   30.00
  -1  -3   1  746.43   30.10
  -1  -3   1  726.63   29.90
  -1  -3   1  694.33   30.10
  -1   3   1  713.33   30.00
   1   3  -1  701.93   30.10
   1   3  -1  674.83   30.00
  -1   3   1  691.93   30.00
  -1   3   1  713.83   30.00
   1   3  -1  707.53   30.00
  -1   3   1  696.23   31.40
   0  -3   1  109.39    4.80
   0  -3  -1  114.49    4.80
   0  -3  -1  100.39    4.80
   0  -3   1  105.49    4.80
   0  -3   1  124.89    4.90
   0   3  -1  107.09    4.80
   0   3  -1  113.99    4.80
   0   3   1  120.69    4.80
   0   3  -1  110.89    4.80
   0   3   1  128.69    4.80
   0   3   1  115.19    4.80
   0   3   1  111.69    4.80
   0   3   1  113.79    4.80
   0   3  -1  110.09    4.80
   1  -3   1  160.38    8.00
  -1  -3  -1  178.18    8.00
   1  -3   1  216.88    8.00
  -1  -3  -1  179.18    8.00
   1  -3   1  189.38    8.00
  -1   3  -1  185.38    8.00
   1   3   1  190.88    8.00
   1   3   1  193.78    8.00
   1   3   1  188.68    8.00
  -1   3  -1  193.28    8.00
   1   3   1  193.38    8.00
  -1   3  -1  187.58    8.00
   2  -3   1   30.40    1.50
  -2  -3  -1   34.20    1.60
   2  -3   1   35.50    1.50
   2  -3   1   38.50    1.60
  -2  -3  -1   34.00    1.50
  -2   3  -1   35.20    1.50
  -2   3  -1   36.30    1.50
   2   3   1   34.70    1.60
   2   3   1   33.30    1.50
   2   3   1   35.10    1.50
  -2   3  -1   36.30    1.50
   2   3   1   34.30    1.50
  -3  -3  -1  110.19    4.80
  -3  -3  -1  107.29    4.80
   3  -3   1  110.19    4.80
   3  -3   1   99.79    4.80
  -3  -3  -1  104.99    4.80
   3  -3   1  117.09    4.80
  -3   3  -1  112.99    4.80
  -3   3  -1  114.19    4.80
   3   3   1  120.39    4.80
  -3   3  -1  115.09    4.80
   3   3   1  112.89    4.80
   3   3   1  111.69    4.80
   3   3   1  113.99    4.80
   4  -3   1   60.49    2.70
  -4  -3  -1   60.69    2.60
  -4  -3  -1   60.09    2.60
  -4  -3  -1   60.99    2.60
   4  -3   1   51.29    2.60
   4  -3   1   59.89    2.60
  -4   3  -1   57.59    2.60
   4   3   1   62.59    2.70
  -4   3  -1   56.59    2.60
  -4   3  -1   61.79    2.60
   4   3   1   58.89    2.60
   4   3   1   63.09    2.60
   5  -3   1    6.30    0.40
  -5  -3  -1    5.40    0.40
   5  -3   1    5.20    0.50
  -5  -3  -1    6.00    0.50
  -5  -3  -1    6.30    0.40
   5  -3   1    5.40    0.50
  -5   3  -1    6.00    0.40
  -5   3  -1    6.20    0.40
  -5   3  -1    6.30    0.40
   5   3   1    6.40    0.50
   5   3   1    5.30    0.50
   5   3   1    6.00    0.40
  -6  -3  -1    1.80    0.30
   6  -3   1    1.90    0.30
  -6  -3  -1    1.80    0.30
   6  -3   1    1.90    0.30
   6   3   1    1.70    0.30
  -6   3  -1    2.10    0.30
   6   3   1    1.80    0.30
  -6   3  -1    1.60    0.30
   6   3   1    1.70    0.30
  -7  -3  -1    5.60    0.50
   7  -3   1    6.00    0.70
  -7   3  -1    6.70    0.50
   7   3   1    7.30    0.70
   7   3   1    7.00    0.60
  -7   3  -1    6.00    0.50
  -8  -3  -1   14.80    0.80
   8  -3   1   13.70    1.00
  -8   3  -1   12.80    0.80
  -8   3  -1   14.50    0.90
   8   3   1   12.90    0.90
   8   3   1   14.30    0.90
  -9  -3  -1   38.50    1.90
   9  -3   1   37.40    2.00
   9   3   1   41.90    2.00
  -9   3  -1   36.90    2.00
   9   3   1   39.20    2.00
  10  -4  -1    7.50    0.90
  10   4  -1    8.00    0.90
  10   4  -1    9.50    0.80
   9  -4  -1    0.60    0.40
  -9  -4   1    0.80    0.30
   9   4  -1    0.80    0.40
  -9   4   1    0.70    0.30
  -9   4   1    0.90    0.40
   9   4  -1    0.80    0.40
   8  -4  -1   83.09    3.80
  -8  -4   1   84.99    3.70
  -8  -4   1   88.89    3.80
  -8   4   1   86.59    3.70
   8   4  -1   81.59    3.80
  -8   4   1   83.79    3.70
   8   4  -1   79.19    3.80
   7  -4  -1   58.09    2.60
   7  -4  -1   58.69    2.70
  -7  -4   1   58.39    2.70
  -7  -4   1   59.09    2.60
  -7   4   1   56.89    2.60
   7   4  -1   57.09    2.70
  -7   4   1   57.29    2.60
   7   4  -1   58.99    2.70
   6  -4  -1  186.58    7.90
   6  -4  -1  165.88    7.90
  -6  -4   1  190.88    7.80
  -6  -4   1  200.38    7.90
   6   4  -1  170.58    7.90
   6   4  -1  183.88    7.90
  -6   4   1  183.58    7.90
  -6   4   1  182.98    7.90
  -5  -4   1   33.20    1.40
   5  -4  -1   29.30    1.50
   5  -4  -1   30.90    1.50
  -5  -4   1   32.10    1.50
   5   4  -1   33.70    1.50
  -5   4   1   30.70    1.50
  -5   4   1   31.00    1.50
  -5   4   1   32.80    1.40
   5   4  -1   32.70    1.50
   5   4  -1   33.50    1.40
  -4  -4   1   10.20    0.60
  -4  -4   1   10.80    0.50
   4  -4  -1   12.50    0.60
  -4  -4   1   11.90    0.50
   4  -4  -1   11.30    0.60
   4  -4  -1   11.50    0.50
  -4   4   1   10.40    0.60
   4   4  -1    9.50    0.60
  -4   4   1   10.30    0.50
   4   4  -1    9.40    0.60
  -4   4   1   10.60    0.60
   4   4  -1    9.70    0.50
   3  -4  -1  639.44   25.60
   3  -4  -1  580.94   25.50
  -3  -4   1  615.14   25.60
   3  -4  -1  573.94   25.50
  -3  -4   1  586.84   25.50
  -3   4   1  545.55   25.50
  -3   4   1  623.94   25.50
   3   4  -1  590.14   25.50
  -3   4   1  649.43   25.60
  -3   4   1  607.44   25.60
   3   4  -1  572.94   25.50
   3   4  -1  627.74   25.60
   3   4  -1  624.64   25.50
   2  -4  -1    6.40    0.40
  -2  -4   1    6.10    0.30
  -2  -4   1    5.60    0.40
   2  -4  -1    5.60    0.40
  -2   4   1    5.50    0.40
   2   4  -1    5.70    0.40
   2   4  -1    6.40    0.40
  -2   4   1    6.10    0.30
   2   4  -1    6.10    0.40
   2   4  -1    6.00    0.30
  -2   4   1    5.40    0.40
  -2   4   1    5.50    0.30
   1  -4  -1  354.76   14.40
  -1  -4   1  350.56   14.40
  -1  -4   1  295.47   14.40
  -1  -4   1  348.57   14.40
   1  -4  -1  338.47   14.40
  -1   4   1  359.76   14.40
  -1   4   1  348.07   14.40
   1   4  -1  342.37   14.40
  -1   4   1  346.47   14.40
  -1   4   1  334.27   14.40
   1   4  -1  330.17   14.40
   1   4  -1  329.17   14.40
   0  -4  -1 1390.96   59.99
   0  -4   1 1535.45   59.69
   0  -4   1 1346.17   59.49
   0  -4  -1 1406.36   59.59
   0   4   1 1484.25   59.39
   0   4  -1 1407.66   59.29
   0   4  -1 1350.06   59.49
   0   4   1 1311.27   59.39
   0   4  -1 1397.56   59.59
   0   4   1 1348.86   61.79
   0   4  -1 1429.26   59.49
   0   4   1 1447.36   59.39
   0   4   1 1377.96   59.49
   1  -4   1   63.89    2.90
  -1  -4  -1   69.29    2.90
  -1  -4  -1   64.79    2.90
   1  -4   1   69.39    2.90
   1  -4   1   64.29    2.90
   1   4   1   66.29    2.90
   1   4   1   66.39    2.90
   1   4   1   64.29    2.90
  -1   4  -1   65.49    2.80
  -1   4  -1   66.49    2.90
  -1   4  -1   64.69    2.90
  -1   4  -1   65.99    2.90
   1   4   1   70.19    2.80
   2  -4   1  427.66   20.40
  -2  -4  -1  531.95   20.40
  -2  -4  -1  511.85   20.50
   2  -4   1  410.86   20.50
   2  -4   1  480.75   20.50
  -2   4  -1  484.05   20.40
   2   4   1  493.15   20.50
   2   4   1  489.95   20.40
   2   4   1  491.25   20.50
  -2   4  -1  489.95   20.50
   2   4   1  490.95   20.40
  -2   4  -1  490.45   20.40
   3  -4   1  634.54   27.10
   3  -4   1  635.24   27.20
   3  -4   1  606.74   27.20
  -3  -4  -1  604.24   27.10
  -3  -4  -1  697.33   27.20
  -3   4  -1  627.54   27.10
   3   4   1  650.13   27.10
   3   4   1  658.23   27.20
  -3   4  -1  654.43   27.10
   3   4   1  663.43   27.10
  -3   4  -1  632.44   27.10
   3   4   1  630.44   27.10
  -4  -4  -1   38.10    1.60
  -4  -4  -1   40.30    1.60
   4  -4   1   35.10    1.60
   4  -4   1   36.90    1.70
  -4  -4  -1   36.20    1.70
   4  -4   1   31.00    1.70
  -4   4  -1   36.80    1.60
   4   4   1   37.70    1.70
  -4   4  -1   36.60    1.60
   4   4   1   36.90    1.70
   4   4   1   40.10    1.60
   4   4   1   35.10    1.60
  -4   4  -1   34.60    1.70
  -5  -4  -1  222.98    9.40
   5  -4   1  228.58    9.50
   5  -4   1  205.38    9.40
  -5  -4  -1  220.68    9.50
   5  -4   1  211.58    9.50
   5   4   1  217.98    9.50
   5   4   1  220.38    9.40
  -5   4  -1  225.78    9.40
  -5   4  -1  231.58    9.40
  -5   4  -1  226.18    9.50
   5   4   1  221.88    9.50
   6  -4   1    0.80    0.30
  -6  -4  -1    1.00    0.20
  -6  -4  -1    1.00    0.30
   6   4   1    1.00    0.30
   6   4   1    0.80    0.30
  -6   4  -1    0.90    0.30
   6   4   1    0.90    0.30
  -6   4  -1    1.10    0.20
  -7  -4  -1    3.70    0.40
   7  -4   1    4.10    0.50
  -7   4  -1    5.20    0.50
   7   4   1    4.60    0.50
   7   4   1    4.80    0.50
  -7   4  -1    3.70    0.40
   8  -4   1   16.90    1.10
  -8  -4  -1   18.00    1.00
  -8   4  -1   18.80    1.00
   8   4   1   16.80    1.10
  -8   4  -1   16.50    1.00
   8   4   1   17.30    1.10
  -9  -4  -1   90.29    4.10
   9  -4   1   91.79    4.20
   9   4   1   88.59    4.20
   9   4   1   94.99    4.30
  10  -5  -1   40.70    2.30
  10   5  -1   43.80    2.20
   9  -5  -1    1.20    0.40
   9   5  -1    0.60    0.40
   9   5  -1    0.80    0.40
  -9   5   1    1.20    0.30
  -9   5   1    0.60    0.30
  -8  -5   1    3.00    0.40
  -8  -5   1    3.20    0.50
   8  -5  -1    2.70    0.40
  -8   5   1    2.70    0.40
   8   5  -1    2.90    0.40
   8   5  -1    2.70    0.40
  -8   5   1    2.70    0.40
   7  -5  -1   38.20    1.80
  -7  -5   1   36.40    1.70
   7  -5  -1   37.00    1.70
  -7  -5   1   40.20    1.80
  -7   5   1   33.70    1.70
  -7   5   1   36.70    1.70
   7   5  -1   35.90    1.80
   7   5  -1   33.00    1.80
  -6  -5   1    1.10    0.20
  -6  -5   1    1.00    0.30
   6  -5  -1    1.60    0.30
   6  -5  -1    1.00    0.30
   6   5  -1    1.20    0.30
   6   5  -1    1.00    0.30
   6   5  -1    1.40    0.30
  -6   5   1    1.40    0.30
  -6   5   1    1.30    0.30
   5  -5  -1  309.87   13.70
  -5  -5   1  312.37   13.70
  -5  -5   1  327.27   13.60
   5  -5  -1  334.67   13.70
  -5   5   1  321.07   13.70
  -5   5   1  331.27   13.60
  -5   5   1  315.47   13.70
   5   5  -1  312.07   13.60
   5   5  -1  321.27   13.70
   5   5  -1  324.07   13.70
  -4  -5   1  490.45   20.00
   4  -5  -1  492.85   20.00
  -4  -5   1  480.35   20.00
   4  -5  -1  400.76   20.00
   4   5  -1  489.25   20.00
   4   5  -1  470.85   20.00
   4   5  -1  441.36   20.00
  -4   5   1  461.15   20.00
  -4   5   1  516.95   20.00
   3  -5  -1    0.10    0.10
  -3  -5   1    0.40    0.10
   3  -5  -1    0.30    0.20
  -3  -5   1    0.10    0.20
  -3   5   1    0.20    0.10
   3   5  -1    0.60    0.10
   3   5  -1    0.40    0.20
   3   5  -1    0.30    0.10
  -3   5   1    0.10    0.10
  -3   5   1    0.20    0.20
   3   5  -1    0.40    0.20
  -3   5   1    0.30    0.10
  -2  -5   1   55.09    2.50
  -2  -5   1   58.09    2.50
   2  -5  -1   53.29    2.50
  -2  -5   1   61.89    2.60
   2  -5  -1   62.09    2.50
  -2   5   1   57.79    2.50
  -2   5   1   59.79    2.50
   2   5  -1   55.99    2.50
   2   5  -1   56.09    2.50
  -2   5   1   57.29    2.50
   2   5  -1   60.79    2.50
  -2   5   1   55.79    2.50
   2   5  -1   55.29    2.50
  -1  -5   1  732.23   30.30
   1  -5  -1  711.43   30.30
  -1  -5   1  743.63   30.30
   1  -5  -1  663.83   30.70
  -1  -5   1  670.33   30.30
   1   5  -1  735.13   30.40
  -1   5   1  672.23   30.30
  -1   5   1  707.13   30.20
   1   5  -1  736.93   30.40
   1   5  -1  748.73   30.40
  -1   5   1  721.13   30.40
  -1   5   1  744.33   31.60
   0  -5   1    1.60    0.20
   0  -5  -1    1.50    0.20
   0  -5  -1    1.30    0.20
   0  -5   1    1.70    0.20
   0  -5  -1    1.80    0.20
   0   5  -1    1.60    0.10
   0   5  -1    1.40    0.20
   0   5   1    1.30    0.20
   0   5   1    1.50    0.20
   0   5   1    1.80    0.20
   0   5  -1    2.30    0.20
   0   5   1    1.50    0.20
   0   5  -1    1.20    0.20
   0   5   1    1.00    0.20
   1  -5   1  162.28    7.10
  -1  -5  -1  165.38    7.10
   1  -5   1  179.18    7.10
  -1  -5  -1  171.98    7.00
   1  -5   1  147.79    7.10
  -1   5  -1  167.38    7.00
  -1   5  -1  162.78    7.10
  -1   5  -1  165.58    7.00
   1   5   1  166.28    7.10
  -1   5  -1  162.28    7.10
   1   5   1  168.08    7.10
   1   5   1  162.98    7.00
   1   5   1  167.48    7.10
   2  -5   1  395.16   17.00
   2  -5   1  393.36   17.00
  -2  -5  -1  402.76   17.00
   2  -5   1  395.96   17.00
  -2  -5  -1  374.46   16.90
   2   5   1  391.76   17.00
   2   5   1  397.46   17.00
  -2   5  -1  404.36   17.00
   2   5   1  392.86   17.00
  -2   5  -1  409.06   17.00
   2   5   1  411.36   17.00
  -2   5  -1  414.56   17.00
  -2   5  -1  417.16   16.90
   3  -5   1   87.59    4.00
  -3  -5  -1   95.79    4.00
   3  -5   1   97.39    4.00
  -3  -5  -1   89.39    3.90
   3  -5   1  101.69    4.00
   3   5   1   90.79    4.00
  -3   5  -1   89.29    4.00
   3   5   1   83.29    4.00
  -3   5  -1   87.99    3.90
   3   5   1   91.79    4.00
   3   5   1   94.99    4.00
  -3   5  -1   90.69    3.90
   4  -5   1  393.76   16.70
   4  -5   1  396.76   16.80
  -4  -5  -1  369.26   16.80
   4  -5   1  413.66   16.80
  -4  -5  -1  360.46   16.70
   4   5   1  417.06   16.80
  -4   5  -1  390.26   16.80
  -4   5  -1  404.06   16.70
   4   5   1  397.16   16.80
  -4   5  -1  403.36   16.70
   4   5   1  371.76   16.80
   4   5   1  415.96   16.70
  -5  -5  -1    4.90    0.40
   5  -5   1    4.00    0.50
   5  -5   1    4.40    0.50
  -5  -5  -1    4.00    0.50
   5  -5   1    5.10    0.40
  -5   5  -1    4.10    0.40
  -5   5  -1    4.00    0.40
   5   5   1    3.60    0.40
   5   5   1    3.90    0.50
  -5   5  -1    3.50    0.40
   5   5   1    4.00    0.40
  -6  -5  -1  168.38    6.90
   6  -5   1  162.38    7.00
  -6  -5  -1  166.58    6.80
   6   5   1  159.38    6.90
  -6   5  -1  155.68    6.80
   6   5   1  152.68    6.90
   6   5   1  149.59    6.80
  -6   5  -1  156.78    6.90
   7  -5   1  380.36   15.60
  -7  -5  -1  372.16   15.50
  -7   5  -1  354.96   15.50
  -7   5  -1  369.26   15.50
   7   5   1  373.26   15.60
   7   5   1  333.27   15.60
   8  -5   1   40.00    2.10
  -8  -5  -1   41.70    2.00
   8   5   1   42.50    2.10
  -8   5  -1   43.60    2.00
  -8   5  -1   42.80    2.00
   8   5   1   40.00    2.10
   9  -5   1   12.50    1.10
   9   5   1   13.30    1.10
   9   5   1   13.70    1.00
   9  -6  -1   11.40    1.00
  -9   6   1   11.00    0.80
   9   6  -1   11.90    0.90
   9   6  -1   12.30    0.90
  -9   6   1   12.60    1.10
   8  -6  -1  372.36   15.20
  -8  -6   1  341.57   15.20
   8   6  -1  336.27   15.20
   8   6  -1  358.76   15.20
  -8   6   1  358.26   15.10
  -8   6   1  354.86   15.10
   7  -6  -1  149.79    7.20
   7  -6  -1  169.38    7.00
  -7  -6   1  159.78    7.00
  -7   6   1  165.78    6.90
   7   6  -1  153.08    7.00
   7   6  -1  161.48    7.00
  -7   6   1  161.88    7.00
   6  -6  -1    5.50    0.60
   6  -6  -1    6.60    0.60
  -6  -6   1    5.40    0.60
   6   6  -1    5.30    0.60
  -6   6   1    6.40    0.50
   6   6  -1    4.90    0.50
  -6   6   1    5.70    0.50
   6   6  -1    6.10    0.50
  -5  -6   1  127.69    5.60
   5  -6  -1  112.39    5.60
  -5  -6   1  131.19    5.60
   5  -6  -1  142.59    5.60
   5   6  -1  124.19    5.60
   5   6  -1  133.49    5.60
   5   6  -1  134.49    5.60
  -5   6   1  126.49    5.60
  -5   6   1  127.29    5.50
  -5   6   1  128.39    5.60
  -4  -6   1    0.90    0.10
   4  -6  -1    0.60    0.20
   4  -6  -1    0.90    0.20
  -4  -6   1    0.50    0.20
   4   6  -1    1.10    0.20
  -4   6   1    0.80    0.20
  -4   6   1    0.60    0.20
   4   6  -1    0.40    0.20
   4   6  -1    0.70    0.20
  -4   6   1    1.10    0.20
   3  -6  -1  164.28    7.30
  -3  -6   1  174.18    7.20
  -3  -6   1  176.78    7.40
   3  -6  -1  156.78    7.30
   3   6  -1  175.38    7.30
  -3   6   1  169.88    7.30
  -3   6   1  172.38    7.30
   3   6  -1  172.68    7.20
   3   6  -1  168.58    7.30
  -3   6   1  166.68    7.30
  -3   6   1  177.38    7.30
   3   6  -1  168.08    7.30
  -2  -6   1  103.09    4.20
  -2  -6   1   94.79    4.30
   2  -6  -1   97.19    4.30
   2  -6  -1  101.79    4.30
  -2  -6   1  109.89    4.40
   2   6  -1  104.29    4.30
  -2   6   1   99.39    4.30
   2   6  -1  100.79    4.30
  -2   6   1   95.29    4.30
   2   6  -1   95.59    4.30
  -2   6   1  103.19    4.30
  -2   6   1   94.29    4.30
   2   6  -1   94.99    4.30
   1  -6  -1   17.50    0.80
  -1  -6   1   15.60    0.90
  -1  -6   1   16.70    0.70
  -1  -6   1   17.40    0.80
   1  -6  -1   17.70    0.90
   1   6  -1   17.20    0.80
  -1   6   1   16.30    0.80
  -1   6   1   17.10    0.80
   1   6  -1   16.90    0.80
   1   6  -1   15.10    0.80
  -1   6   1   16.80    0.80
  -1   6   1   15.60    0.80
   0  -6  -1  148.79    6.00
   0  -6   1  136.49    5.80
   0  -6   1  140.89    5.90
   0  -6  -1  138.39    5.90
   0  -6   1  136.09    5.90
   0   6   1  139.79    5.90
   0   6  -1  139.99    5.90
   0   6  -1  135.99    5.90
   0   6   1  135.99    5.90
   0   6  -1  116.09    5.80
   0   6  -1  142.79    5.90
   0   6   1  139.19    5.90
   0   6   1  144.89    5.90
   0   6   1  134.89    5.90
   1  -6   1  540.45   24.90
  -1  -6  -1  597.44   24.90
  -1  -6  -1  537.85   24.80
  -1   6  -1  623.04   24.80
  -1   6  -1  594.44   24.90
   1   6   1  603.74   24.90
   1   6   1  600.14   24.90
  -1   6  -1  598.74   24.90
   1   6   1  609.34   24.90
   1   6   1  586.44   24.90
  -1   6  -1  572.84   24.90
  -2  -6  -1  191.58    8.60
  -2  -6  -1  192.98    8.50
   2  -6   1  204.58    8.60
   2  -6   1  211.48    8.60
  -2   6  -1  203.78    8.50
   2   6   1  206.08    8.50
   2   6   1  190.78    8.50
   2   6   1  208.28    8.60
  -2   6  -1  189.08    8.50
  -2   6  -1  197.68    8.60
  -2   6  -1  206.08    8.60
   2   6   1  203.38    8.60
   3  -6   1    6.30    0.50
   3  -6   1    6.50    0.50
  -3  -6  -1    6.60    0.50
   3  -6   1    7.20    0.50
  -3  -6  -1    7.80    0.40
  -3   6  -1    7.20    0.50
  -3   6  -1    7.30    0.50
  -3   6  -1    7.30    0.50
   3   6   1    7.50    0.50
   3   6   1    7.60    0.60
  -3   6  -1    6.60    0.40
   3   6   1    7.70    0.50
   3   6   1    8.00    0.50
  -4  -6  -1 1044.40   43.80
   4  -6   1 1029.30   43.80
   4  -6   1 1010.90   43.80
  -4  -6  -1 1029.20   43.90
   4  -6   1 1050.99   43.90
  -4   6  -1 1064.99   43.80
  -4   6  -1 1085.49   43.90
  -4   6  -1  934.11   43.80
   4   6   1 1069.39   43.80
   4   6   1 1012.50   43.80
   4   6   1 1015.40   43.90
  -4   6  -1 1085.99   43.80
  -5  -6  -1   21.60    1.10
   5  -6   1   19.00    1.10
  -5  -6  -1   20.70    1.00
  -5   6  -1   20.30    1.00
   5   6   1   19.90    1.10
  -5   6  -1   21.10    1.00
  -5   6  -1   20.20    1.10
   5   6   1   20.20    1.00
   5   6   1   20.90    1.10
   6  -6   1   41.00    2.00
  -6  -6  -1   39.90    1.90
  -6  -6  -1   43.90    2.00
  -6   6  -1   40.70    1.90
   6   6   1   42.80    2.00
  -6   6  -1   40.30    1.90
   6   6   1   38.70    1.90
   6   6   1   40.70    2.00
   7  -6   1   93.09    4.50
  -7  -6  -1  103.09    4.40
  -7   6  -1  102.29    4.40
   7   6   1  103.89    4.50
   7   6   1   99.39    4.60
  -7   6  -1  101.49    4.50
   8  -6   1   13.50    1.00
  -8  -6  -1   11.70    0.90
   8   6   1   11.70    1.00
   8   6   1   12.50    0.90
  -8   6  -1   12.00    0.80
  -8   6  -1   12.20    0.90
   9   6   1   60.89    2.90
   9  -7  -1   27.80    1.90
   9   7  -1   25.40    1.50
   9   7  -1   26.10    1.80
  -8  -7   1   11.20    0.90
   8  -7  -1   11.40    1.00
   8   7  -1   12.20    0.90
  -8   7   1   11.50    0.90
   8   7  -1   11.50    1.00
  -8   7   1   12.80    0.80
  -7  -7   1   19.80    1.20
   7  -7  -1   19.60    1.20
  -7   7   1   19.10    1.00
   7   7  -1   19.00    1.20
  -7   7   1   16.40    1.10
   7   7  -1   18.10    1.10
  -6  -7   1   96.09    4.40
   6  -7  -1   92.29    4.30
   6  -7  -1  108.89    4.30
   6   7  -1   96.99    4.30
   6   7  -1   96.99    4.30
  -6   7   1   95.89    4.30
  -6   7   1   94.19    4.30
   6   7  -1   98.79    4.40
   5  -7  -1  229.68    9.10
   5  -7  -1  197.28    9.10
  -5  -7   1  208.78    9.10
   5   7  -1  209.38    9.10
  -5   7   1  215.38    9.00
  -5   7   1  216.68    9.10
  -5   7   1  208.98    9.10
   5   7  -1  205.38    9.00
   5   7  -1  209.28    9.10
   4  -7  -1   10.90    0.70
  -4  -7   1   12.70    0.80
   4  -7  -1   11.70    0.80
  -4   7   1   12.20    0.70
   4   7  -1   13.00    0.70
  -4   7   1   11.10    0.70
   4   7  -1   11.40    0.80
   4   7  -1   12.80    0.70
  -4   7   1   12.70    0.70
   3  -7  -1   56.59    2.50
  -3  -7   1   53.59    2.50
   3  -7  -1   51.59    2.40
  -3   7   1   54.89    2.40
  -3   7   1   54.59    2.50
  -3   7   1   58.29    2.40
   3   7  -1   52.99    2.40
   3   7  -1   57.09    2.50
   3   7  -1   53.69    2.40
   2  -7  -1  112.29    4.80
  -2  -7   1   98.09    4.70
   2  -7  -1  114.29    4.70
  -2  -7   1   97.69    4.70
  -2   7   1  108.99    4.70
  -2   7   1  107.09    4.70
   2   7  -1  111.79    4.70
   2   7  -1  110.09    4.70
  -2   7   1  115.49    4.70
  -2   7   1  108.09    4.70
   2   7  -1  108.89    4.70
   2   7  -1  110.89    4.70
  -1  -7   1    1.60    0.30
   1  -7  -1    1.30    0.20
   1  -7  -1    1.20    0.30
  -1  -7   1    1.50    0.20
  -1   7   1    1.10    0.20
  -1   7   1    2.00    0.20
   1   7  -1    1.50    0.20
   1   7  -1    1.20    0.20
  -1   7   1    1.50    0.20
   1   7  -1    1.50    0.20
  -1   7   1    1.60    0.20
   0  -7   1   11.40    0.70
   0  -7  -1    9.30    0.60
   0  -7  -1   11.10    0.70
   0  -7   1   11.30    0.70
   0  -7  -1   13.20    0.60
   0   7   1   11.90    0.70
   0   7  -1   11.20    0.60
   0   7  -1   11.40    0.60
   0   7   1   11.50    0.60
   0   7   1   12.10    0.60
   0   7   1   11.40    0.60
   0   7  -1   11.50    0.60
   0   7   1   11.60    0.60
  -1  -7  -1  292.17   13.00
   1  -7   1  289.37   13.10
   1  -7   1  320.17   13.10
  -1  -7  -1  283.17   13.10
   1   7   1  323.37   13.10
  -1   7  -1  321.77   13.10
   1   7   1  295.27   13.00
   1   7   1  318.77   13.00
   1   7   1  318.67   13.10
  -1   7  -1  303.67   13.10
  -1   7  -1  308.87   13.10
   2  -7   1  168.88    7.70
  -2  -7  -1  165.68    7.70
  -2  -7  -1  172.78    7.80
   2  -7   1  180.38    7.70
   2   7   1  179.48    7.70
  -2   7  -1  189.98    7.70
   2   7   1  183.78    7.70
  -2   7  -1  180.18    7.70
  -2   7  -1  183.58    7.70
   2   7   1  182.98    7.70
  -2   7  -1  187.38    7.70
   2   7   1  181.18    7.70
  -3  -7  -1   72.69    3.10
   3  -7   1   67.29    3.10
   3  -7   1   68.49    3.10
  -3  -7  -1   67.49    3.20
   3  -7   1   68.09    3.10
   3   7   1   68.39    3.10
  -3   7  -1   70.29    3.10
  -3   7  -1   72.19    3.10
  -3   7  -1   72.39    3.10
   3   7   1   70.99    3.10
  -3   7  -1   72.79    3.10
   3   7   1   70.19    3.10
  -4  -7  -1   67.99    2.90
   4  -7   1   76.49    3.10
   4  -7   1   66.19    3.00
  -4  -7  -1   56.29    3.00
  -4   7  -1   66.29    3.00
   4   7   1   64.09    3.00
   4   7   1   65.79    3.00
  -4   7  -1   66.79    3.00
  -4   7  -1   69.89    2.90
   4   7   1   69.59    3.00
  -5  -7  -1    0.40    0.30
  -5  -7  -1   -0.20    0.30
   5  -7   1   -0.30    0.30
  -5   7  -1    0.50    0.20
  -5   7  -1    0.00    0.20
   5   7   1    0.00    0.30
   5   7   1    0.30    0.20
   5   7   1    0.20    0.20
  -5   7  -1    0.30    0.20
  -6  -7  -1   -0.10    0.30
   6  -7   1   -0.30    0.30
   6   7   1    0.50    0.30
   6   7   1   -0.20    0.20
   6   7   1    0.00    0.30
  -6   7  -1    0.30    0.20
  -6   7  -1    0.00    0.30
   7  -7   1  124.89    5.60
   7   7   1  124.59    5.60
  -7   7  -1  124.59    5.40
  -7   7  -1  121.39    5.50
   8  -7   1   49.70    2.50
   8   7   1   45.80    2.40
  -8   7  -1   48.80    2.30
  -8  -8   1   10.40    1.00
   8   8  -1   11.00    1.00
   8   8  -1   11.40    0.90
  -8   8   1   11.50    0.80
  -7  -8   1    0.30    0.40
   7   8  -1    0.30    0.40
  -7   8   1    0.20    0.30
  -7   8   1   -0.10    0.30
   7   8  -1    0.30    0.30
  -6  -8   1   15.30    1.00
   6  -8  -1   15.80    1.00
  -6   8   1   16.00    1.00
   6   8  -1   15.00    1.00
  -6   8   1   15.70    0.90
   6   8  -1   16.80    1.00
   6   8  -1   16.20    1.00
  -5  -8   1    0.30    0.30
   5  -8  -1   -0.40    0.20
  -5   8   1   -0.10    0.20
   5   8  -1    0.10    0.20
  -5   8   1   -0.30    0.20
  -5   8   1    0.10    0.20
   5   8  -1   -0.20    0.20
   5   8  -1    0.70    0.40
   4  -8  -1  134.29    5.50
  -4  -8   1  115.89    5.50
  -4   8   1  125.09    5.40
   4   8  -1  120.49    5.40
   4   8  -1  123.99    5.40
   4   8  -1  123.69    5.50
  -4   8   1  120.29    5.40
  -4   8   1  129.99    5.40
   3  -8  -1   81.19    3.90
  -3  -8   1   85.69    3.90
  -3   8   1   84.89    3.90
  -3   8   1   91.39    3.80
   3   8  -1   91.39    3.90
  -3   8   1   86.29    3.80
   3   8  -1   92.49    3.80
   3   8  -1   85.69    3.80
  -2  -8   1  109.99    5.00
  -2  -8   1  127.89    5.00
   2  -8  -1  111.49    5.00
   2   8  -1  117.89    4.90
  -2   8   1  112.19    5.00
   2   8  -1  110.89    5.00
   2   8  -1  107.39    5.00
  -2   8   1  116.09    5.00
  -2   8   1  116.49    5.00
   2   8  -1  116.39    5.00
  -1  -8   1   14.00    0.80
  -1  -8   1   12.00    0.70
   1  -8  -1   11.80    0.80
   1   8  -1   12.50    0.70
  -1   8   1   11.40    0.70
  -1   8   1   13.10    0.70
   1   8  -1   12.30    0.70
  -1   8   1   12.10    0.70
   1   8  -1   11.70    0.70
   1   8  -1   13.10    0.70
   0  -8   1    5.10    0.40
   0  -8  -1    4.80    0.50
   0  -8   1    4.40    0.50
   0   8  -1    4.90    0.50
   0   8  -1    5.10    0.40
   0   8   1    4.70    0.40
   0   8   1    5.10    0.40
   0   8  -1    4.30    0.40
   0   8   1    4.50    0.40
   1  -8   1  407.66   18.00
  -1  -8  -1  431.26   18.10
   1  -8   1  420.86   18.00
   1   8   1  422.36   18.00
  -1   8  -1  425.86   18.00
   1   8   1  417.36   18.00
  -1   8  -1  434.66   18.00
   1   8   1  439.76   18.00
  -1   8  -1  411.16   18.00
   2  -8   1   49.10    2.30
   2  -8   1   46.60    2.30
  -2  -8  -1   51.49    2.30
  -2   8  -1   50.69    2.30
  -2   8  -1   49.50    2.20
   2   8   1   48.90    2.30
   2   8   1   51.69    2.20
   2   8   1   48.60    2.30
  -2   8  -1   49.99    2.20
  -3  -8  -1    0.00    0.30
   3  -8   1    0.00    0.20
   3  -8   1    0.10    0.20
  -3   8  -1   -0.10    0.20
   3   8   1   -0.10    0.20
  -3   8  -1    0.10    0.20
   3   8   1    0.20    0.20
   4  -8   1    4.90    0.60
   4  -8   1    4.70    0.50
  -4  -8  -1    3.70    0.50
  -4   8  -1    5.10    0.50
   4   8   1    4.60    0.50
   4   8   1    3.00    0.40
  -4   8  -1    4.70    0.50
   5  -8   1    1.60    0.40
  -5  -8  -1    1.50    0.40
  -5   8  -1    1.80    0.30
   5   8   1    1.90    0.40
   5   8   1    1.80    0.30
  -5   8  -1    1.90    0.40
  -6  -8  -1    5.20    0.60
   6  -8   1    5.10    0.60
  -6   8  -1    4.90    0.50
   6   8   1    6.10    0.70
   6   8   1    6.00    0.60
   7  -8   1   43.80    2.30
  -7  -8  -1   48.80    2.60
   7   8   1   44.30    2.30
   8  -8   1   19.40    1.40
  -8  -9   1    1.30    0.80
  -7  -9   1   39.60    2.10
   7   9  -1   39.80    2.10
   6  -9  -1    5.80    0.70
  -6  -9   1    6.70    0.80
   6   9  -1    8.50    0.90
   6   9  -1    7.00    0.80
  -6   9   1    5.50    0.60
   5  -9  -1  200.38    8.60
  -5  -9   1  196.78    8.70
  -5   9   1  201.08    8.60
   5   9  -1  199.98    8.60
   5   9  -1  195.58    8.70
  -5   9   1  200.08    8.60
  -4  -9   1   34.20    1.80
   4  -9  -1   34.70    1.70
  -4   9   1   33.20    1.70
  -4   9   1   34.90    1.60
   4   9  -1   31.80    1.60
   4   9  -1   36.40    1.70
   3  -9  -1   24.20    1.40
  -3  -9   1   25.40    1.40
  -3   9   1   27.40    1.30
   3   9  -1   26.20    1.30
  -3   9   1   25.90    1.30
   3   9  -1   26.60    1.40
   3   9  -1   26.70    1.30
   2  -9  -1  806.22   33.40
  -2  -9   1  793.42   33.40
  -2  -9   1  785.22   33.40
  -2   9   1  772.72   33.40
   2   9  -1  733.03   33.40
   2   9  -1  789.42   33.40
  -2   9   1  786.32   33.40
   2   9  -1  833.22   33.40
  -1  -9   1   11.70    0.80
  -1  -9   1   13.20    0.80
   1  -9  -1   13.10    0.80
   1   9  -1   14.10    0.80
   1   9  -1   12.90    0.80
   1   9  -1   12.00    0.80
  -1   9   1   13.50    0.80
  -1   9   1   13.30    0.80
   1   9  -1   14.10    0.80
   0  -9  -1    6.90    0.60
   0  -9   1    6.00    0.60
   0  -9   1    7.30    0.50
   0   9  -1    7.30    0.60
   0   9   1    6.90    0.60
   0   9  -1    7.30    0.50
   0   9   1    7.40    0.50
   0   9  -1    7.00    0.50
   0   9   1    7.60    0.60
   1  -9   1  137.39    5.70
   1  -9   1  132.79    5.80
  -1  -9  -1  126.89    5.80
  -1   9  -1  126.59    5.70
   1   9   1  133.79    5.70
   1   9   1  131.89    5.70
   1   9   1  133.59    5.80
  -1   9  -1  135.79    5.70
  -1   9  -1  129.19    5.70
   2  -9   1    0.80    0.30
   2  -9   1    0.80    0.30
  -2  -9  -1    0.70    0.30
   2   9   1    0.90    0.30
  -2   9  -1    1.00    0.30
  -2   9  -1    0.90    0.30
   2   9   1    0.80    0.30
  -3  -9  -1   58.89    2.70
   3  -9   1   54.19    2.60
   3  -9   1   58.89    2.60
   3   9   1   55.89    2.60
   3   9   1   52.89    2.60
  -3   9  -1   54.89    2.60
  -3   9  -1   57.99    2.50
   4  -9   1   16.80    1.00
   4  -9   1   13.60    0.90
  -4  -9  -1   13.70    1.00
  -4   9  -1   14.40    0.80
   4   9   1   13.60    0.90
  -4   9  -1   14.10    0.90
   4   9   1   13.70    0.90
  -5  -9  -1    1.40    0.40
   5  -9   1    1.30    0.40
  -5   9  -1    1.40    0.30
   5   9   1    1.60    0.30
   5   9   1    1.30    0.40
  -5   9  -1    1.60    0.40
  -6  -9  -1   31.60    1.70
   6   9   1   30.10    1.70
  -6 -10   1   57.49    2.80
   6  10  -1   56.19    2.80
   5 -10  -1    0.70    0.40
  -5 -10   1    1.60    0.40
  -5  10   1    1.40    0.40
   5  10  -1    1.30    0.30
   5  10  -1    1.80    0.40
  -4 -10   1   11.90    0.90
   4 -10  -1   11.00    0.90
   4  10  -1   13.50    0.80
  -4  10   1   13.00    0.80
   4  10  -1   12.60    0.90
  -4  10   1   11.20    0.80
   3 -10  -1   12.10    0.90
  -3 -10   1   13.20    1.00
  -3  10   1   12.50    0.80
   3  10  -1   11.30    0.80
   3  10  -1   11.80    0.90
  -3  10   1   12.40    0.80
   2 -10  -1   43.30    2.10
  -2 -10   1   44.40    2.10
   2  10  -1   41.30    2.00
  -2  10   1   41.00    2.00
  -2  10   1   41.10    2.00
   2  10  -1   40.60    2.00
  -1 -10   1   38.50    1.90
   1 -10  -1   37.80    1.90
  -1  10   1   37.00    1.80
   1  10  -1   38.50    1.80
  -1  10   1   37.00    1.80
   1  10  -1   36.50    1.80
   0 -10  -1   49.80    2.40
   0 -10   1   52.49    2.50
   0  10   1   51.39    2.40
   0  10  -1   52.79    2.40
   0  10   1   51.89    2.40
   0  10   1   49.00    2.50
   0  10  -1   52.39    2.40
   0  10  -1   51.29    2.40
   1 -10   1  100.19    4.40
  -1 -10  -1  111.39    4.50
  -1  10  -1   97.59    4.40
   1  10   1   92.99    4.40
  -1  10  -1   96.89    4.40
   1  10   1   96.49    4.40
  -2 -10  -1  104.49    4.90
   2 -10   1  110.99    4.90
   2  10   1  116.09    4.90
  -2  10  -1  103.29    4.80
   2  10   1  113.79    4.90
  -2  10  -1  113.59    4.80
  -3 -10  -1   52.19    2.50
   3 -10   1   51.39    2.50
   3  10   1   52.09    2.50
  -3  10  -1   52.79    2.40
   3  10   1   50.19    2.40
  -3  10  -1   50.89    2.40
  -4 -10  -1    8.00    0.80
  -4  10  -1    9.50    0.70
   4  10   1    8.80    0.70
  -4  10  -1    7.90    0.70
   4  10   1    9.00    0.80
  -5 -10  -1    7.80    0.80
   5  10   1    7.90    0.80
   5  10   1    7.90    0.70
  -6 -10  -1    0.30    0.40
  -5 -11   1   32.80    1.80
   5 -11  -1   33.90    1.80
   5  11  -1   30.80    1.80
   5  11  -1   33.30    1.70
   4 -11  -1   16.40    1.10
  -4 -11   1   17.40    1.20
  -4  11   1   16.40    1.00
  -4  11   1   15.60    1.00
   4  11  -1   15.30    1.00
   4  11  -1   15.80    1.00
  -3 -11   1   71.19    3.40
   3 -11  -1   70.29    3.30
  -3  11   1   71.49    3.20
   3  11  -1   69.69    3.30
   3  11  -1   72.69    3.20
  -3  11   1   71.89    3.30
  -2 -11   1    3.10    0.50
   2 -11  -1    3.90    0.50
   2  11  -1    3.10    0.40
  -2  11   1    3.90    0.40
   2  11  -1    2.90    0.40
  -2  11   1    4.40    0.40
   1 -11  -1   30.70    1.60
  -1 -11   1   30.70    1.60
  -1  11   1   28.80    1.50
   1  11  -1   30.20    1.50
  -1  11   1   30.50    1.50
   1  11  -1   28.30    1.50
   0 -11  -1    8.80    0.90
   0 -11   1   10.10    0.80
   0  11   1   10.10    0.70
   0  11  -1    8.60    0.70
   0  11   1    9.60    0.70
   1 -11   1    8.10    0.80
  -1 -11  -1    8.40    0.80
   1  11   1    8.70    0.70
   1  11   1    8.00    0.90
  -1  11  -1    7.80    0.60
  -1  11  -1    8.40    0.70
  -2 -11  -1   62.79    3.00
   2 -11   1   63.39    2.90
  -2  11  -1   60.09    2.80
  -2  11  -1   61.89    2.80
   2  11   1   59.49    2.80
   2  11   1   62.29    2.90
  -3 -11  -1    1.70    0.50
   3 -11   1    2.20    0.40
  -3  11  -1    1.50    0.40
   3  11   1    1.30    0.40
   3  11   1    1.70    0.40
  -3  11  -1    2.20    0.40
  -4 -11  -1   57.49    2.80
   4  11   1   56.39    2.70
   4  11   1   56.19    2.80
  -4  11  -1   58.69    2.70
  -5 -11  -1   49.30    2.60
   5  11   1   44.70    2.30
   4 -12  -1   69.89    3.30
  -4  12   1   70.09    3.20
   4  12  -1   70.99    3.30
  -3 -12   1   57.49    2.70
   3 -12  -1   51.89    2.60
  -3  12   1   52.29    2.50
   3  12  -1   54.19    2.50
   3  12  -1   51.89    2.60
  -2 -12   1    4.00    0.60
   2 -12  -1    4.60    0.60
  -2  12   1    3.70    0.50
   2  12  -1    3.30    0.50
   2  12  -1    3.90    0.50
  -2  12   1    4.20    0.50
   1 -12  -1   17.60    1.20
  -1 -12   1   16.10    1.20
  -1  12   1   16.50    1.00
   1  12  -1   15.60    1.00
  -1  12   1   16.30    1.00
   0 -12  -1    4.20    0.60
   0 -12   1    3.80    0.50
   0  12  -1    3.80    0.50
   0  12   1    3.00    0.50
   1 -12   1   20.30    1.30
  -1 -12  -1   24.30    1.40
  -1  12  -1   21.30    1.40
  -1  12  -1   19.90    1.20
   1  12   1   23.20    1.30
  -2 -12  -1   80.29    3.50
   2 -12   1   71.19    3.40
  -2  12  -1   71.89    3.30
   2  12   1   70.79    3.40
  -2  12  -1   71.49    3.40
   3 -12   1  233.58   10.30
   3  12   1  222.88   10.40
  -3  12  -1  245.58   10.20
   3  12   1  244.88   10.30
 -10   0   2   37.80    1.90
  10   0  -2   39.80    2.00
   9   0  -2   52.99    2.40
  -9   0   2   50.89    2.30
   9   0  -2   51.49    2.40
  -9   0   2   45.00    2.40
   8   0  -2   12.70    0.80
   8   0  -2   13.60    0.80
  -8   0   2   12.60    0.80
   8   0  -2   11.30    0.80
  -8   0   2   12.60    0.70
  -7   0   2    5.60    0.50
  -7   0   2    5.80    0.50
   7   0  -2    5.80    0.40
   7   0  -2    6.00    0.50
   6   0  -2    2.70    0.30
  -6   0   2    2.10    0.20
  -6   0   2    2.30    0.20
   6   0  -2    1.80    0.30
  -6   0   2    1.70    0.30
  -5   0   2  114.89    5.00
  -5   0   2  120.89    5.00
  -5   0   2  128.09    5.10
   5   0  -2  109.79    5.00
   5   0  -2  113.79    5.10
   4   0  -2  671.73   28.90
   4   0  -2  688.23   28.90
  -4   0   2  687.73   28.80
  -4   0   2  676.33   28.80
  -4   0   2  674.93   28.80
  -3   0   2 1306.67   56.79
  -3   0   2 1298.47   56.69
   3   0  -2 1360.16   58.89
   3   0  -2 1399.26   56.89
  -2   0   2  148.59    6.10
  -2   0   2  144.99    6.10
  -2   0   2  153.28    6.10
  -2   0   2  123.49    6.10
   2   0  -2  146.29    6.10
   2   0  -2  143.29    6.10
  -1   0   2  144.69    6.20
  -1   0   2  131.79    6.20
  -1   0   2  149.59    6.20
  -1   0   2  145.39    6.20
  -1   0   2  144.49    6.20
  -1   0   2  156.98    6.20
   0   0  -2 1075.89   45.20
   0   0   2 1068.29   45.40
   0   0  -2 1097.79   45.30
   0   0   2 1019.30   45.30
   0   0   2 1091.79   45.20
   0   0   2 1035.90   45.30
   0   0  -2 1087.89   45.20
  -1   0  -2  349.57   15.10
   1   0   2  364.36   15.20
   1   0   2  363.26   15.10
  -1   0  -2  346.27   15.10
   1   0   2  364.76   15.10
   2   0   2 1918.51   86.59
   2   0   2 2008.50   86.79
   2   0   2 2084.29   86.89
  -2   0  -2 2036.60   88.29
  -2   0  -2 2224.08   87.19
  -2   0  -2 1999.80   89.79
  -3   0  -2  545.15   23.60
  -3   0  -2  541.15   23.60
  -3   0  -2  561.74   23.60
   3   0   2  524.05   23.60
   3   0   2  557.24   23.60
   3   0   2  615.14   23.60
   4   0   2  168.88    7.70
  -4   0  -2  190.88    7.60
   4   0   2  173.38    7.60
  -4   0  -2  176.58    7.60
   4   0   2  184.58    7.70
  -4   0  -2  177.88    7.60
  -5   0  -2   51.69    2.30
  -5   0  -2   52.59    2.30
   5   0   2   49.40    2.40
   5   0   2   57.39    2.30
   5   0   2   51.29    2.40
   6   0   2  167.48    7.20
  -6   0  -2  169.08    7.20
  -6   0  -2  167.48    7.20
   6   0   2  162.38    7.20
   7   0   2   17.60    1.00
  -7   0  -2   15.80    0.90
   7   0   2   18.00    1.10
  -7   0  -2   18.10    0.90
   8   0   2    0.10    0.30
   8   0   2    0.10    0.30
  -8   0  -2    0.30    0.30
   9   0   2    2.40    0.50
 -10  -1   2   98.19    4.30
  10  -1  -2   91.89    4.40
  10   1  -2   96.99    4.40
 -10   1   2   97.09    4.30
   9  -1  -2    7.70    0.80
  -9  -1   2    7.70    0.60
  -9  -1   2    6.80    0.70
   9   1  -2    7.20    0.70
  -9   1   2    7.60    0.70
  -9   1   2    7.80    0.60
   8  -1  -2    0.10    0.30
  -8  -1   2   -0.10    0.20
   8  -1  -2    0.00    0.30
  -8  -1   2    0.20    0.20
   8   1  -2   -0.20    0.20
  -8   1   2    0.10    0.20
   8   1  -2   -0.10    0.30
  -8   1   2   -0.20    0.30
   7  -1  -2   64.69    2.80
  -7  -1   2   65.69    2.80
   7  -1  -2   60.59    2.80
   7  -1  -2   58.89    2.80
  -7  -1   2   62.59    2.80
   7   1  -2   64.89    2.80
  -7   1   2   64.79    2.80
  -7   1   2   63.89    2.70
  -7   1   2   57.19    2.80
   7   1  -2   62.59    2.80
  -6  -1   2    5.20    0.30
   6  -1  -2    5.60    0.40
   6  -1  -2    5.80    0.50
  -6  -1   2    5.10    0.40
  -6  -1   2    5.30    0.50
   6  -1  -2    4.70    0.40
   6   1  -2    4.40    0.40
   6   1  -2    6.00    0.50
  -6   1   2    5.10    0.40
  -6   1   2    5.50    0.50
  -6   1   2    4.80    0.30
   5  -1  -2   41.70    1.80
  -5  -1   2   39.60    1.80
  -5  -1   2   41.60    1.70
   5  -1  -2   40.00    1.80
   5  -1  -2   35.00    1.80
  -5  -1   2   43.00    1.80
  -5   1   2   38.00    1.80
   5   1  -2   37.30    1.80
  -5   1   2   44.20    1.80
   5   1  -2   38.70    1.80
  -5   1   2   40.70    1.80
  -4  -1   2  949.51   39.60
  -4  -1   2  960.40   39.40
   4  -1  -2  897.11   39.50
   4  -1  -2  968.50   39.50
   4  -1  -2  859.51   39.40
  -4  -1   2  901.71   41.30
  -4   1   2  984.80   39.60
   4   1  -2  891.31   39.30
   4   1  -2  953.20   39.60
  -4   1   2  901.91   39.50
  -4   1   2  940.41   39.50
   4   1  -2  956.60   39.60
  -3  -1   2  106.89    4.60
   3  -1  -2  107.99    4.60
  -3  -1   2  109.59    4.60
   3  -1  -2  116.89    4.70
  -3  -1   2  109.29    4.70
   3  -1  -2  104.99    4.60
  -3   1   2  103.19    4.70
   3   1  -2  107.69    4.60
  -3   1   2  108.39    4.60
   3   1  -2  108.59    4.60
  -3   1   2  105.59    4.60
  -3   1   2  111.69    4.60
   3   1  -2  106.49    4.60
   2  -1  -2 1085.39   42.80
  -2  -1   2 1048.90   42.70
   2  -1  -2 1004.10   42.50
  -2  -1   2  995.40   42.60
  -2  -1   2  953.40   42.50
   2  -1  -2  989.90   42.60
   2   1  -2 1033.50   42.70
  -2   1   2  967.60   42.70
  -2   1   2  970.20   42.60
  -2   1   2  998.80   42.70
   2   1  -2  975.10   42.60
  -2   1   2 1055.79   42.60
   2   1  -2  998.00   42.60
  -1  -1   2 9058.09  394.26
  -1  -1   2 9999.00  394.66
  -1  -1   2 9686.23  394.86
  -1  -1   2 9465.15  393.66
   1  -1  -2 8806.42  394.36
  -1   1   2 9485.45  393.46
   1   1  -2 9107.69  393.26
  -1   1   2 9250.97  394.26
  -1   1   2 8642.63  394.16
   0  -1   2 2207.28   95.59
   0  -1   2 2186.78   94.59
   0  -1   2 2191.48   94.69
   0  -1  -2 2293.37   94.59
   0  -1  -2 2239.78   96.39
   0  -1   2 2323.67   94.69
   0   1  -2 2281.07   94.59
   0   1   2 2152.38   94.49
   0   1   2 2217.48   94.59
   0   1  -2 2403.76   94.49
   0   1   2 2217.78   94.69
   0   1   2 2244.78   94.69
   0   1   2 2150.48   94.59
   0   1  -2 2184.18   94.59
   1  -1   2  915.01   41.30
  -1  -1  -2  894.81   41.40
  -1  -1  -2  935.11   41.40
   1  -1   2 1009.90   41.50
  -1  -1  -2 1033.60   41.40
   1  -1   2  977.30   41.40
  -1   1  -2 1011.50   41.40
  -1   1  -2 1013.10   41.40
   1   1   2  997.50   41.40
   1   1   2 1004.00   41.40
   1   1   2  970.10   41.40
   1   1   2  952.90   41.40
   2  -1   2   30.80    1.50
   2  -1   2   32.20    1.50
  -2  -1  -2   32.70    1.40
  -2  -1  -2   32.20    1.40
   2  -1   2   34.40    1.40
   2  -1   2   33.70    1.40
  -2  -1  -2   32.30    1.40
   2   1   2   31.50    1.40
   2   1   2   31.00    1.40
   2   1   2   32.60    1.40
   2   1   2   31.80    1.50
  -2   1  -2   32.70    1.40
  -2   1  -2   32.20    1.40
   3  -1   2   18.60    0.90
  -3  -1  -2   18.90    0.90
  -3  -1  -2   18.60    0.90
   3  -1   2   17.60    0.90
   3  -1   2   18.90    0.80
  -3  -1  -2   20.70    0.90
   3  -1   2   19.00    0.90
  -3   1  -2   18.50    0.90
  -3   1  -2   18.90    0.90
   3   1   2   21.20    1.00
   3   1   2   19.40    0.90
   3   1   2   18.10    0.90
  -4  -1  -2   93.49    4.00
   4  -1   2   89.09    4.10
  -4  -1  -2   99.39    4.00
  -4  -1  -2   93.09    4.00
   4  -1   2   96.39    4.00
   4  -1   2   91.09    4.10
   4  -1   2   85.29    4.00
  -4   1  -2   98.89    4.00
   4   1   2   85.59    4.10
   4   1   2   85.89    4.00
  -4   1  -2   95.99    4.00
  -4   1  -2  102.79    4.00
   4   1   2   90.69    4.10
  -4   1  -2   98.39    4.00
   5  -1   2  718.03   29.60
   5  -1   2  642.94   29.60
   5  -1   2  714.43   29.50
  -5  -1  -2  678.43   29.50
  -5  -1  -2  692.63   29.50
  -5   1  -2  690.83   29.50
  -5   1  -2  685.73   29.50
   5   1   2  757.92   29.60
   5   1   2  761.02   29.50
  -5   1  -2  688.73   29.50
   5   1   2  635.44   29.60
   6  -1   2   84.89    4.20
  -6  -1  -2   95.99    4.20
   6  -1   2   91.39    4.20
  -6  -1  -2   98.29    4.10
  -6   1  -2   96.79    4.10
   6   1   2   96.49    4.20
  -6   1  -2   98.09    4.20
   6   1   2   95.89    4.20
   7  -1   2   42.70    2.20
  -7  -1  -2   44.40    2.10
   7  -1   2   47.30    2.20
   7   1   2   42.30    2.20
   7   1   2   47.20    2.20
  -7   1  -2   48.40    2.10
  -7   1  -2   45.20    2.10
   8  -1   2  116.59    5.20
   8  -1   2  119.19    5.20
  -8  -1  -2  115.79    5.10
   8   1   2  121.99    5.20
  -8   1  -2  113.39    5.10
   8   1   2  112.29    5.20
   9  -1   2  107.59    5.20
   9   1   2  117.09    5.20
   9   1   2  117.19    5.20
 -10  -2   2   36.30    1.80
  10  -2  -2   35.00    1.90
  10   2  -2   35.70    1.90
 -10   2   2   36.10    1.80
  -9  -2   2   25.90    1.40
  -9  -2   2   25.20    1.30
   9  -2  -2   24.20    1.40
  -9   2   2   25.40    1.30
   9   2  -2   29.30    1.40
   9   2  -2   27.60    1.50
   8  -2  -2    1.20    0.30
  -8  -2   2    1.40    0.30
  -8  -2   2    1.60    0.30
   8  -2  -2    1.20    0.30
   8   2  -2    1.80    0.40
  -8   2   2    1.40    0.30
  -8   2   2    1.00    0.30
  -8   2   2    1.50    0.30
   8   2  -2    1.90    0.30
  -7  -2   2  174.68    7.40
   7  -2  -2  191.48    7.40
   7  -2  -2  149.39    7.40
  -7  -2   2  177.28    7.50
   7   2  -2  167.08    7.40
  -7   2   2  178.78    7.40
  -7   2   2  159.38    7.40
  -7   2   2  174.88    7.40
   7   2  -2  174.48    7.40
   6  -2  -2   36.10    1.60
   6  -2  -2   33.60    1.50
  -6  -2   2   31.80    1.50
   6  -2  -2   29.70    1.50
  -6  -2   2   31.00    1.60
   6   2  -2   29.80    1.50
  -6   2   2   33.80    1.60
  -6   2   2   33.10    1.50
  -6   2   2   31.50    1.50
   6   2  -2   35.60    1.60
   5  -2  -2   17.50    1.00
  -5  -2   2   19.40    0.90
   5  -2  -2   21.20    1.00
   5  -2  -2   22.40    0.90
  -5  -2   2   17.60    1.00
  -5  -2   2   20.80    0.90
  -5   2   2   18.70    0.90
  -5   2   2   20.20    0.90
  -5   2   2   20.30    1.00
   5   2  -2   21.00    0.90
   5   2  -2   19.30    1.00
   5   2  -2   19.10    1.00
  -5   2   2   19.00    0.90
  -4  -2   2    3.60    0.30
   4  -2  -2    4.10    0.30
   4  -2  -2    3.60    0.20
   4  -2  -2    3.90    0.30
  -4  -2   2    4.20    0.40
   4   2  -2    4.80    0.20
   4   2  -2    4.90    0.30
  -4   2   2    3.40    0.20
  -4   2   2    3.80    0.30
   4   2  -2    3.90    0.30
  -4   2   2    3.90    0.30
  -4   2   2    3.20    0.30
   3  -2  -2   63.19    2.60
   3  -2  -2   59.79    2.60
  -3  -2   2   59.79    2.60
  -3  -2   2   57.49    2.60
  -3   2   2   58.69    2.60
   3   2  -2   56.79    2.60
  -3   2   2   60.39    2.60
   3   2  -2   61.89    2.60
   3   2  -2   58.69    2.60
  -3   2   2   60.99    2.50
  -3   2   2   56.59    2.60
   2  -2  -2  603.44   24.00
   2  -2  -2  519.05   23.80
  -2  -2   2  571.54   23.90
  -2  -2   2  577.94   23.90
  -2  -2   2  576.64   23.90
  -2   2   2  580.84   23.90
   2   2  -2  579.84   23.90
  -2   2   2  572.64   23.90
   2   2  -2  542.75   23.80
   2   2  -2  554.44   23.80
  -2   2   2  529.15   23.80
   2   2  -2  550.14   23.80
  -1  -2   2  402.26   16.80
   1  -2  -2  389.36   16.80
  -1  -2   2  401.46   16.80
  -1  -2   2  405.86   16.80
  -1  -2   2  362.36   16.80
  -1   2   2  383.86   16.80
  -1   2   2  393.06   16.80
   1   2  -2  430.56   16.80
  -1   2   2  417.76   16.80
   1   2  -2  394.76   16.80
   1   2  -2  387.26   16.80
  -1   2   2  389.36   16.80
   1   2  -2  397.16   16.80
   0  -2   2 1703.03   71.19
   0  -2  -2 1765.62   71.29
   0  -2   2 1622.94   71.19
   0  -2   2 1659.03   71.29
   0  -2  -2 1659.83   71.29
   0  -2   2 1645.94   71.39
   0   2   2 1694.53   71.29
   0   2   2 1853.91   71.19
   0   2   2 1679.73   71.19
   0   2  -2 1651.03   72.09
   0   2  -2 1609.94   71.69
   0   2  -2 1644.84   71.19
   0   2   2 1660.53   71.69
   1  -2   2  648.24   28.40
  -1  -2  -2  676.73   28.50
   1  -2   2  718.23   28.50
   1  -2   2  648.24   28.40
   1  -2   2  688.83   28.50
  -1  -2  -2  682.93   28.40
  -1   2  -2  671.03   28.50
   1   2   2  584.94   28.30
   1   2   2  672.93   28.50
   1   2   2  669.53   28.50
   1   2   2  695.13   28.50
  -1   2  -2  660.83   28.70
  -1   2  -2  703.73   28.50
   2  -2   2  670.03   25.80
   2  -2   2  624.84   25.80
  -2  -2  -2  585.64   25.80
  -2  -2  -2  632.44   25.80
   2  -2   2  596.04   25.80
   2  -2   2  525.65   25.80
   2   2   2  636.14   25.80
   2   2   2  629.44   25.80
   2   2   2  621.04   25.90
  -2   2  -2  582.34   25.80
   2   2   2  614.54   25.80
  -2   2  -2  595.84   25.80
  -2   2  -2  606.84   25.80
   3  -2   2 1113.89   47.40
  -3  -2  -2 1118.09   47.40
   3  -2   2 1136.19   47.30
  -3  -2  -2 1122.69   47.40
  -3  -2  -2 1178.08   47.50
   3  -2   2 1124.39   47.50
   3   2   2 1101.89   47.30
  -3   2  -2 1068.99   47.40
   3   2   2 1124.49   47.50
   3   2   2 1109.99   47.40
  -3   2  -2 1163.18   47.50
  -3   2  -2 1053.29   47.40
  -4  -2  -2    1.90    0.20
   4  -2   2    1.70    0.20
  -4  -2  -2    1.70    0.20
   4  -2   2    1.50    0.20
   4  -2   2    1.50    0.30
   4  -2   2    1.70    0.30
  -4  -2  -2    1.60    0.20
   4   2   2    1.40    0.20
   4   2   2    2.00    0.30
  -4   2  -2    2.00    0.20
  -4   2  -2    1.90    0.20
  -4   2  -2    2.00    0.20
   4   2   2    1.50    0.20
   5  -2   2  564.24   25.00
   5  -2   2  588.84   25.00
  -5  -2  -2  602.24   25.00
  -5  -2  -2  619.74   25.00
  -5  -2  -2  579.34   25.00
   5  -2   2  571.14   25.00
  -5   2  -2  623.04   25.00
  -5   2  -2  553.74   25.00
  -5   2  -2  586.94   25.00
   5   2   2  582.74   25.00
   5   2   2  604.94   25.10
   5   2   2  596.44   25.00
  -6  -2  -2   16.60    0.90
   6  -2   2   15.70    0.90
   6  -2   2   15.90    1.00
  -6  -2  -2   17.00    1.00
  -6   2  -2   17.00    0.90
  -6   2  -2   16.30    0.90
   6   2   2   16.60    1.00
   6   2   2   17.30    1.00
  -7  -2  -2   31.80    1.50
   7  -2   2   32.70    1.70
   7  -2   2   30.10    1.60
   7   2   2   30.90    1.60
   7   2   2   33.10    1.70
  -7   2  -2   30.70    1.50
  -7   2  -2   31.30    1.50
   8  -2   2   40.60    2.10
  -8  -2  -2   43.40    2.00
   8   2   2   43.60    2.10
  -8   2  -2   43.10    2.00
   8   2   2   37.00    2.10
  -8   2  -2   43.90    2.00
   9  -2   2    0.40    0.50
   9   2   2    0.30    0.40
   9   2   2    0.10    0.40
 -10  -3   2  286.37   11.10
  10  -3  -2  243.68   11.20
 -10   3   2  276.17   11.40
  10   3  -2  253.87   11.20
  10   3  -2  230.58   11.40
  -9  -3   2   51.79    2.50
  -9  -3   2   52.99    2.60
   9  -3  -2   56.49    2.60
   9   3  -2   54.19    2.60
   9   3  -2   55.69    2.60
  -9   3   2   55.49    2.50
   8  -3  -2    3.60    0.40
   8  -3  -2    4.00    0.50
  -8  -3   2    3.30    0.30
  -8  -3   2    3.10    0.40
  -8   3   2    2.80    0.30
  -8   3   2    3.60    0.40
   8   3  -2    3.30    0.40
   8   3  -2    2.50    0.40
   7  -3  -2  189.68    7.50
  -7  -3   2  170.28    7.40
  -7  -3   2  164.18    7.50
   7  -3  -2  168.78    7.50
   7   3  -2  179.18    7.50
  -7   3   2  173.08    7.40
   7   3  -2  175.58    7.50
  -7   3   2  160.68    7.40
  -6  -3   2  141.99    6.20
   6  -3  -2  135.79    6.20
  -6  -3   2  145.89    6.30
   6  -3  -2  154.68    6.20
  -6   3   2  139.99    6.20
   6   3  -2  148.79    6.20
  -6   3   2  147.79    6.20
   6   3  -2  136.69    6.20
   5  -3  -2    0.60    0.20
   5  -3  -2    1.10    0.10
  -5  -3   2    0.80    0.20
   5  -3  -2    1.30    0.20
  -5  -3   2    0.60    0.10
   5   3  -2    1.10    0.10
   5   3  -2    0.70    0.20
   5   3  -2    1.10    0.20
  -5   3   2    1.30    0.10
  -5   3   2    0.80    0.20
  -5   3   2    0.90    0.20
   4  -3  -2    0.50    0.10
  -4  -3   2    0.40    0.20
   4  -3  -2    0.80    0.10
   4  -3  -2    0.70    0.20
  -4   3   2    0.60    0.10
   4   3  -2    0.50    0.20
   4   3  -2    0.60    0.10
   4   3  -2    0.90    0.20
  -4   3   2    0.70    0.10
  -3  -3   2  201.38    7.90
  -3  -3   2  175.78    7.90
   3  -3  -2  176.68    7.90
  -3  -3   2  191.08    8.00
   3  -3  -2  169.08    7.90
   3   3  -2  188.18    7.90
  -3   3   2  188.98    7.90
   3   3  -2  191.18    7.90
   3   3  -2  185.58    7.90
  -3   3   2  186.98    7.90
  -3   3   2  192.18    7.90
  -2  -3   2   20.00    0.90
  -2  -3   2   17.80    0.90
   2  -3  -2   18.80    0.90
  -2  -3   2   18.40    0.80
   2  -3  -2   17.80    0.80
  -2   3   2   17.50    0.90
   2   3  -2   16.30    0.90
   2   3  -2   17.30    0.80
  -2   3   2   19.60    0.80
  -2   3   2   19.30    0.80
  -2   3   2   18.80    0.90
   2   3  -2   20.50    0.90
   2   3  -2   18.10    0.80
  -1  -3   2 1244.98   53.39
  -1  -3   2 1260.87   56.09
  -1  -3   2 1259.17   53.49
   1  -3  -2 1166.78   53.29
   1   3  -2 1276.27   55.59
  -1   3   2 1244.68   53.39
  -1   3   2 1207.18   53.39
  -1   3   2 1248.28   53.49
   1   3  -2 1349.96   53.59
  -1   3   2 1352.86   53.39
   1   3  -2 1239.18   55.19
   0  -3  -2  861.51   42.90
   0  -3   2 1032.10   43.00
   0  -3  -2 1055.19   43.00
   0  -3   2  986.90   42.80
   0  -3   2 1108.99   43.10
   0   3   2 1033.90   42.80
   0   3  -2 1013.70   42.80
   0   3   2 1026.80   43.00
   0   3   2 1010.80   43.00
   0   3  -2 1000.10   43.00
   0   3   2 1018.80   43.00
   0   3  -2 1059.19   43.00
   0   3  -2  964.20   42.90
   0   3   2 1014.00   43.00
   1  -3   2 1750.22   73.39
   1  -3   2 1668.83   73.19
   1  -3   2 1648.73   73.39
  -1  -3  -2 1650.23   73.19
  -1  -3  -2 1828.42   73.29
  -1   3  -2 1780.22   73.19
   1   3   2 1773.32   73.19
  -1   3  -2 1760.02   73.29
  -1   3  -2 1751.72   73.29
   1   3   2 1650.83   73.29
   1   3   2 1690.63   73.19
   1   3   2 1804.12   76.89
  -2  -3  -2 1018.50   40.30
   2  -3   2  916.91   40.10
  -2  -3  -2  889.81   40.20
   2  -3   2  979.80   40.20
   2  -3   2  965.10   40.30
   2   3   2 1002.90   40.30
   2   3   2  942.41   40.10
  -2   3  -2  939.31   40.30
   2   3   2  940.71   40.20
  -2   3  -2  924.51   40.20
  -2   3  -2  944.61   40.30
   2   3   2  923.31   40.20
  -3  -3  -2   70.19    2.90
  -3  -3  -2   67.09    2.90
  -3  -3  -2   62.09    2.90
   3  -3   2   67.19    2.80
   3  -3   2   66.29    2.90
   3  -3   2   67.99    2.90
   3   3   2   65.19    2.90
   3   3   2   63.79    2.90
   3   3   2   69.59    2.90
  -3   3  -2   65.09    2.80
   3   3   2   60.69    2.80
  -3   3  -2   60.09    2.90
  -3   3  -2   66.49    2.80
   4  -3   2   71.19    3.20
   4  -3   2   70.19    3.20
  -4  -3  -2   71.99    3.10
  -4  -3  -2   70.09    3.10
   4  -3   2   76.79    3.10
  -4  -3  -2   73.39    3.10
  -4   3  -2   70.29    3.10
   4   3   2   69.09    3.10
   4   3   2   75.19    3.20
   4   3   2   71.59    3.20
  -4   3  -2   68.29    3.10
  -4   3  -2   73.59    3.20
   5  -3   2   37.20    1.80
  -5  -3  -2   38.50    1.70
  -5  -3  -2   42.70    1.70
  -5  -3  -2   38.10    1.70
   5  -3   2   36.70    1.80
   5   3   2   35.80    1.80
  -5   3  -2   36.80    1.70
  -5   3  -2   35.30    1.70
  -5   3  -2   35.80    1.70
   5   3   2   36.40    1.80
   5   3   2   35.90    1.70
   6  -3   2   40.60    2.10
   6  -3   2   43.50    2.00
  -6  -3  -2   43.20    2.00
  -6   3  -2   41.70    2.00
   6   3   2   42.70    2.00
   6   3   2   46.40    2.00
  -6   3  -2   43.40    2.00
   7  -3   2   53.39    2.70
   7  -3   2   55.19    2.60
  -7  -3  -2   53.39    2.40
   7   3   2   52.39    2.50
   7   3   2   52.19    2.60
  -7   3  -2   51.89    2.40
  -7   3  -2   53.39    2.40
   8  -3   2   29.80    1.70
  -8  -3  -2   28.60    1.50
  -8   3  -2   31.00    1.50
  -8   3  -2   28.00    1.50
   8   3   2   28.70    1.60
   8   3   2   29.50    1.60
   9  -3   2    2.30    0.50
   9   3   2    3.30    0.60
   9   3   2    2.70    0.50
  10  -4  -2   45.90    2.30
 -10  -4   2   44.10    2.10
  10   4  -2   43.00    2.20
  10   4  -2   42.20    2.20
  -9  -4   2    1.10    0.30
  -9  -4   2    0.80    0.40
   9  -4  -2    0.90    0.40
  -9   4   2    1.20    0.30
   9   4  -2    1.00    0.40
   9   4  -2    0.60    0.40
   8  -4  -2   15.10    1.00
   8  -4  -2   18.30    1.00
  -8  -4   2   16.00    1.00
  -8  -4   2   15.00    0.90
  -8   4   2   16.20    0.90
  -8   4   2   16.00    0.90
   8   4  -2   14.60    1.00
   8   4  -2   15.90    1.00
  -7  -4   2   48.40    2.30
  -7  -4   2   48.30    2.20
   7  -4  -2   48.10    2.30
   7  -4  -2   52.49    2.30
  -7   4   2   49.90    2.30
  -7   4   2   49.10    2.30
   7   4  -2   53.29    2.30
   7   4  -2   48.10    2.30
   6  -4  -2  344.07   15.40
  -6  -4   2  383.66   15.40
   6  -4  -2  358.86   15.40
  -6  -4   2  373.56   15.30
   6   4  -2  331.07   15.40
   6   4  -2  366.56   15.40
  -6   4   2  355.66   15.40
  -6   4   2  375.66   15.40
  -5  -4   2    4.20    0.40
   5  -4  -2    3.40    0.40
  -5  -4   2    4.00    0.30
   5  -4  -2    4.00    0.40
   5   4  -2    4.70    0.40
  -5   4   2    3.20    0.30
   5   4  -2    4.50    0.40
  -5   4   2    3.40    0.30
  -5   4   2    3.80    0.40
   5   4  -2    5.10    0.30
   4  -4  -2    1.90    0.30
  -4  -4   2    1.90    0.20
   4  -4  -2    2.60    0.30
  -4  -4   2    1.30    0.20
  -4   4   2    1.70    0.20
   4   4  -2    2.70    0.30
   4   4  -2    2.50    0.20
   4   4  -2    1.80    0.20
  -4   4   2    1.80    0.20
  -4   4   2    1.60    0.20
  -3  -4   2  690.93   29.90
   3  -4  -2  725.93   30.00
   3  -4  -2  657.93   29.90
  -3  -4   2  724.43   29.90
  -3  -4   2  700.03   29.90
  -3   4   2  747.13   30.10
   3   4  -2  737.23   29.90
   3   4  -2  680.33   30.00
  -3   4   2  674.93   30.00
   3   4  -2  749.82   29.90
  -3   4   2  713.83   29.90
  -3   4   2  669.33   29.90
   3   4  -2  710.63   30.00
   2  -4  -2  163.58    6.70
  -2  -4   2  171.68    6.70
  -2  -4   2  159.18    6.80
  -2  -4   2  149.29    6.80
   2  -4  -2  164.28    6.80
   2   4  -2  147.49    6.80
  -2   4   2  158.68    6.80
   2   4  -2  152.78    6.80
  -2   4   2  144.09    6.80
  -2   4   2  161.78    6.80
  -2   4   2  168.28    6.70
   2   4  -2  157.28    6.80
   2   4  -2  166.68    6.70
   1  -4  -2   36.20    1.80
  -1  -4   2   37.40    1.80
  -1  -4   2   38.80    1.80
   1  -4  -2   44.00    1.70
  -1   4   2   36.10    1.80
  -1   4   2   41.00    1.80
  -1   4   2   40.30    1.80
   1   4  -2   42.60    1.80
   1   4  -2   42.50    1.80
  -1   4   2   39.10    1.80
   1   4  -2   42.10    1.80
   0  -4   2   32.00    1.50
   0  -4  -2   33.10    1.50
   0  -4   2   32.10    1.50
   0  -4   2   33.40    1.50
   0  -4  -2   29.60    1.40
   0   4   2   32.30    1.40
   0   4  -2   32.40    1.40
   0   4   2   31.60    1.40
   0   4  -2   33.10    1.40
   0   4  -2   32.80    1.40
   0   4   2   30.90    1.40
   0   4   2   33.40    1.40
   0   4   2   33.00    1.40
   0   4  -2   32.20    1.50
  -1  -4  -2  272.07   11.70
   1  -4   2  269.37   11.70
  -1  -4  -2  274.57   11.70
   1  -4   2  278.37   11.70
   1  -4   2  270.77   11.70
  -1   4  -2  271.87   11.60
  -1   4  -2  281.47   11.70
  -1   4  -2  276.07   11.70
   1   4   2  265.87   11.70
   1   4   2  264.77   11.70
   1   4   2  280.57   11.70
   1   4   2  289.97   11.60
   2  -4   2  362.96   15.20
  -2  -4  -2  362.06   15.20
   2  -4   2  362.76   15.20
  -2  -4  -2  355.96   15.20
   2  -4   2  347.17   15.20
   2   4   2  362.86   15.20
  -2   4  -2  368.86   15.10
  -2   4  -2  347.27   15.20
   2   4   2  365.26   15.20
   2   4   2  332.07   15.20
   2   4   2  365.26   15.10
  -2   4  -2  357.06   15.20
   3  -4   2    2.50    0.30
   3  -4   2    1.30    0.20
  -3  -4  -2    1.40    0.20
  -3  -4  -2    1.20    0.20
  -3  -4  -2    1.50    0.20
   3  -4   2    1.60    0.20
   3   4   2    1.60    0.20
   3   4   2    1.40    0.20
  -3   4  -2    1.30    0.20
  -3   4  -2    1.50    0.20
  -3   4  -2    1.20    0.20
   3   4   2    1.20    0.20
   3   4   2    1.60    0.20
  -4  -4  -2 1016.90   41.20
   4  -4   2  898.81   41.20
   4  -4   2  975.30   41.20
  -4  -4  -2  953.60   41.10
  -4  -4  -2  922.51   41.20
  -4   4  -2  966.80   41.20
  -4   4  -2  983.60   41.20
   4   4   2 1061.49   41.20
   4   4   2  970.90   41.20
   4   4   2 1014.10   41.20
   4   4   2  938.81   41.20
  -4   4  -2  976.10   41.20
   5  -4   2  324.57   14.60
  -5  -4  -2  325.57   14.50
  -5  -4  -2  341.27   14.60
   5  -4   2  365.96   14.60
   5   4   2  339.77   14.60
   5   4   2  353.76   14.60
  -5   4  -2  331.97   14.50
   5   4   2  359.26   14.60
  -5   4  -2  340.17   14.50
  -5   4  -2  335.67   14.60
  -6  -4  -2    0.30    0.20
   6  -4   2    0.60    0.30
   6  -4   2    0.50    0.30
   6   4   2    0.70    0.40
   6   4   2    0.10    0.20
  -6   4  -2    0.60    0.20
  -6   4  -2    0.60    0.30
   6   4   2    0.70    0.30
  -7  -4  -2   22.00    1.10
   7  -4   2   19.50    1.30
  -7   4  -2   21.50    1.10
   7   4   2   20.00    1.30
  -7   4  -2   21.50    1.10
   7   4   2   20.20    1.20
   8  -4   2    6.30    0.70
  -8  -4  -2    5.90    0.50
  -8   4  -2    5.90    0.60
   8   4   2    5.90    0.70
   8   4   2    5.20    0.60
  -8   4  -2    6.20    0.60
   9   4   2    9.10    0.90
   9   4   2    8.30    0.90
  10  -5  -2   87.59    3.90
  10   5  -2   82.59    3.90
  10   5  -2   80.99    3.90
  -9  -5   2   25.10    1.40
   9  -5  -2   22.60    1.40
   9   5  -2   23.50    1.30
   9   5  -2   23.70    1.40
  -9   5   2   25.40    1.30
  -9   5   2   24.10    1.30
  -8  -5   2  161.68    7.10
   8  -5  -2  174.28    7.10
   8  -5  -2  157.88    7.00
   8   5  -2  158.38    7.10
   8   5  -2  159.38    7.10
  -8   5   2  162.48    7.00
  -8   5   2  160.08    7.00
  -7  -5   2  118.49    5.00
  -7  -5   2  113.49    5.10
   7  -5  -2  114.29    5.10
   7  -5  -2  113.99    5.10
   7   5  -2  122.79    5.10
   7   5  -2  115.89    5.10
  -7   5   2  120.49    5.10
  -7   5   2  110.49    5.10
   6  -5  -2  109.29    4.60
   6  -5  -2  106.89    4.60
  -6  -5   2  102.59    4.50
   6   5  -2   99.49    4.50
   6   5  -2  103.49    4.60
  -6   5   2  101.49    4.50
  -6   5   2  102.99    4.50
   5  -5  -2  158.28    6.40
  -5  -5   2  135.29    6.40
   5  -5  -2  149.39    6.40
  -5  -5   2  145.49    6.30
   5   5  -2  150.18    6.30
  -5   5   2  147.19    6.30
  -5   5   2  145.09    6.30
  -5   5   2  145.69    6.30
   5   5  -2  149.29    6.40
  -4  -5   2  265.67   11.20
   4  -5  -2  270.17   11.20
  -4  -5   2  274.17   11.10
   4  -5  -2  248.18   11.20
   4   5  -2  279.67   11.20
  -4   5   2  258.07   11.20
   4   5  -2  244.48   11.20
   4   5  -2  276.07   11.20
  -4   5   2  257.57   11.20
  -4   5   2  252.97   11.20
   3  -5  -2  217.78   11.00
  -3  -5   2  270.47   10.90
  -3  -5   2  247.68   11.00
  -3  -5   2  263.97   11.00
   3  -5  -2  282.07   11.00
  -3   5   2  276.67   10.90
  -3   5   2  269.37   11.00
   3   5  -2  257.37   11.00
  -3   5   2  263.37   11.00
   3   5  -2  252.87   11.00
   3   5  -2  261.47   10.90
   3   5  -2  247.78   11.00
  -3   5   2  243.08   11.00
   2  -5  -2   33.10    1.50
  -2  -5   2   38.30    1.60
   2  -5  -2   39.70    1.60
  -2  -5   2   37.40    1.60
  -2   5   2   33.10    1.60
  -2   5   2   31.60    1.60
   2   5  -2   33.20    1.60
   2   5  -2   33.50    1.60
   2   5  -2   36.80    1.50
   2   5  -2   34.90    1.60
  -2   5   2   34.80    1.60
  -2   5   2   36.00    1.50
   1  -5  -2   19.90    0.90
  -1  -5   2   19.80    1.00
   1  -5  -2   16.80    0.90
  -1  -5   2   18.20    0.90
  -1   5   2   20.70    0.90
  -1   5   2   18.50    0.90
  -1   5   2   19.10    0.90
  -1   5   2   19.50    0.90
   1   5  -2   21.10    0.90
   1   5  -2   19.20    0.90
   1   5  -2   20.70    0.90
   0  -5  -2    5.90    0.50
   0  -5   2    5.60    0.40
   0  -5   2    7.60    0.50
   0  -5   2    7.20    0.40
   0  -5  -2    5.30    0.40
   0   5  -2    6.30    0.40
   0   5   2    7.00    0.40
   0   5  -2    7.10    0.30
   0   5   2    6.20    0.40
   0   5   2    6.50    0.40
   0   5   2    6.40    0.40
   0   5  -2    5.50    0.40
   0   5  -2    5.70    0.40
   0   5   2    6.60    0.30
  -1  -5  -2  394.56   16.10
  -1  -5  -2  382.46   16.10
   1  -5   2  370.06   16.10
   1  -5   2  366.96   16.10
   1   5   2  366.56   16.10
   1   5   2  394.96   16.10
  -1   5  -2  386.56   16.10
  -1   5  -2  376.56   16.10
  -1   5  -2  380.16   16.10
  -1   5  -2  349.47   16.10
   1   5   2  405.56   16.10
   1   5   2  381.06   16.10
  -2  -5  -2   20.50    1.00
   2  -5   2   18.90    1.00
  -2  -5  -2   19.10    1.00
   2  -5   2   18.60    1.00
   2  -5   2   23.40    1.00
   2   5   2   19.70    1.00
  -2   5  -2   21.20    1.00
   2   5   2   21.70    1.00
   2   5   2   19.90    1.00
  -2   5  -2   20.30    0.90
   2   5   2   20.10    0.90
  -2   5  -2   20.60    1.00
   3  -5   2    8.40    0.60
   3  -5   2    7.90    0.50
  -3  -5  -2    8.40    0.50
  -3  -5  -2    8.60    0.60
   3  -5   2    8.60    0.50
  -3   5  -2    8.40    0.50
  -3   5  -2    9.20    0.60
   3   5   2    8.40    0.50
   3   5   2    8.10    0.50
   3   5   2    7.50    0.60
  -3   5  -2    7.90    0.50
   3   5   2    9.00    0.50
   4  -5   2   11.50    0.80
  -4  -5  -2   12.80    0.70
  -4  -5  -2   14.10    0.70
   4  -5   2   10.80    0.70
  -4  -5  -2   13.00    0.70
   4   5   2   12.10    0.80
   4   5   2   12.40    0.70
  -4   5  -2   14.00    0.70
   4   5   2   12.90    0.70
   4   5   2   12.70    0.70
  -4   5  -2   12.60    0.70
  -4   5  -2   13.10    0.80
   5  -5   2   57.59    2.90
  -5  -5  -2   63.99    2.90
   5  -5   2   66.49    3.00
  -5  -5  -2   65.99    2.90
  -5   5  -2   64.19    2.90
  -5   5  -2   65.89    2.80
   5   5   2   65.19    2.90
  -5   5  -2   65.19    2.80
   5   5   2   63.99    2.90
   5   5   2   64.19    3.00
   6  -5   2    3.50    0.50
  -6  -5  -2    3.70    0.40
   6   5   2    3.70    0.40
   6   5   2    3.30    0.50
  -6   5  -2    4.30    0.50
   6   5   2    4.00    0.40
  -6   5  -2    3.40    0.30
   7  -5   2   73.19    3.40
  -7  -5  -2   71.59    3.30
   7   5   2   72.29    3.40
  -7   5  -2   70.89    3.30
  -7   5  -2   76.49    3.30
   7   5   2   71.89    3.30
   8  -5   2    3.90    0.60
  -8  -5  -2    3.30    0.40
   8   5   2    4.50    0.50
  -8   5  -2    4.10    0.50
   8   5   2    3.30    0.50
  -8   5  -2    4.20    0.40
   9   5   2   41.90    2.60
  10  -6  -2   30.30    1.90
   9  -6  -2   13.80    1.00
  -9  -6   2   13.60    1.00
   9   6  -2   14.50    1.00
  -9   6   2   12.50    0.90
  -9   6   2   14.80    0.90
   9   6  -2   12.30    1.00
  -8  -6   2    9.10    0.80
   8  -6  -2    9.90    0.80
   8  -6  -2    9.70    1.10
  -8   6   2    8.50    0.70
   8   6  -2    8.40    0.70
  -8   6   2    8.30    0.70
   8   6  -2    8.20    0.70
   7  -6  -2   19.00    1.10
   7  -6  -2   19.10    1.10
  -7   6   2   17.90    1.00
   7   6  -2   17.20    1.00
   7   6  -2   17.90    1.10
  -7   6   2   17.30    1.00
   6  -6  -2   56.49    2.50
  -6  -6   2   51.09    2.60
   6  -6  -2   54.99    2.50
   6   6  -2   56.59    2.50
   6   6  -2   54.09    2.50
  -6   6   2   53.89    2.50
   6   6  -2   56.09    2.50
  -6   6   2   54.39    2.50
   5  -6  -2  202.68    9.90
  -5  -6   2  233.18    9.90
   5  -6  -2  229.68    9.90
   5   6  -2  257.27    9.80
   5   6  -2  227.38    9.90
  -5   6   2  235.98    9.80
  -5   6   2  232.08    9.90
   5   6  -2  222.58    9.90
  -5   6   2  232.68    9.90
   4  -6  -2  402.56   19.00
  -4  -6   2  470.15   19.10
   4  -6  -2  408.76   19.00
   4   6  -2  435.26   19.00
  -4   6   2  471.15   19.00
   4   6  -2  448.06   19.00
  -4   6   2  486.35   19.00
  -4   6   2  440.36   19.00
   4   6  -2  464.65   19.00
  -3  -6   2    2.00    0.30
  -3  -6   2    1.50    0.30
   3  -6  -2    1.90    0.20
   3  -6  -2    1.40    0.30
   3   6  -2    2.30    0.20
   3   6  -2    2.00    0.20
   3   6  -2    2.10    0.30
  -3   6   2    1.30    0.20
  -3   6   2    1.50    0.20
  -3   6   2    1.60    0.20
   3   6  -2    2.00    0.20
   2  -6  -2   38.50    1.60
  -2  -6   2   32.90    1.60
  -2  -6   2   34.40    1.60
   2  -6  -2   34.50    1.50
  -2   6   2   35.10    1.60
  -2   6   2   34.50    1.50
  -2   6   2   35.90    1.60
  -2   6   2   34.10    1.60
   2   6  -2   34.50    1.60
   2   6  -2   33.30    1.50
   2   6  -2   32.90    1.60
   2   6  -2   31.50    1.50
   1  -6  -2   79.59    3.40
  -1  -6   2   79.19    3.40
  -1  -6   2   77.19    3.40
   1  -6  -2   73.59    3.30
   1  -6  -2   73.39    3.30
  -1   6   2   77.39    3.30
   1   6  -2   78.89    3.30
  -1   6   2   78.49    3.30
  -1   6   2   76.79    3.30
   1   6  -2   78.49    3.30
  -1   6   2   74.39    3.30
   1   6  -2   69.69    3.30
   0  -6   2  133.69    5.60
   0  -6   2  126.49    5.60
   0  -6  -2  130.59    5.60
   0   6   2  126.79    5.60
   0   6   2  130.69    5.60
   0   6  -2  130.99    5.60
   0   6   2  134.09    5.50
   0   6  -2  122.09    5.50
   0   6   2  127.99    5.60
   0   6  -2  128.49    5.50
   1  -6   2    0.20    0.20
  -1  -6  -2    0.00    0.10
   1  -6   2    0.20    0.20
   1  -6   2    0.40    0.20
  -1  -6  -2    0.40    0.20
  -1   6  -2    0.10    0.20
  -1   6  -2    0.20    0.10
   1   6   2    0.10    0.20
  -1   6  -2    0.40    0.20
   1   6   2    0.20    0.10
   1   6   2    0.00    0.20
   1   6   2    0.20    0.20
  -1   6  -2    0.10    0.20
  -2  -6  -2    0.60    0.20
   2  -6   2    0.30    0.20
  -2  -6  -2    0.60    0.20
   2  -6   2    0.40    0.20
   2  -6   2    0.50    0.20
  -2   6  -2    0.70    0.20
  -2   6  -2    0.60    0.20
   2   6   2    0.50    0.20
  -2   6  -2    0.60    0.10
   2   6   2    0.40    0.20
   2   6   2    0.80    0.20
  -2   6  -2    0.50    0.20
   2   6   2    0.60    0.20
  -3  -6  -2   35.50    1.60
   3  -6   2   37.90    1.70
   3  -6   2   33.20    1.60
   3  -6   2   35.10    1.70
  -3  -6  -2   32.50    1.70
   3   6   2   36.40    1.60
  -3   6  -2   38.00    1.70
   3   6   2   35.40    1.70
   3   6   2   36.10    1.70
   3   6   2   35.80    1.60
  -3   6  -2   36.30    1.60
  -3   6  -2   34.80    1.60
  -3   6  -2   36.70    1.60
  -4  -6  -2    4.20    0.50
  -4  -6  -2    4.40    0.40
   4  -6   2    3.60    0.40
   4  -6   2    4.40    0.50
   4   6   2    5.10    0.40
   4   6   2    5.10    0.50
   4   6   2    4.60    0.50
  -4   6  -2    5.30    0.40
  -4   6  -2    4.40    0.40
  -4   6  -2    4.50    0.40
  -5  -6  -2   17.20    0.90
   5  -6   2   18.60    1.10
  -5  -6  -2   18.30    1.00
  -5   6  -2   17.50    1.00
   5   6   2   16.50    0.90
  -5   6  -2   17.80    0.90
  -5   6  -2   17.80    0.90
   5   6   2   17.60    1.00
   5   6   2   18.00    1.10
  -6  -6  -2   46.90    2.20
   6  -6   2   48.90    2.30
   6   6   2   43.20    2.20
  -6   6  -2   46.30    2.10
   6   6   2   48.10    2.20
   6   6   2   48.10    2.30
  -6   6  -2   46.40    2.20
  -7  -6  -2   64.49    2.90
   7  -6   2   61.59    3.00
  -7   6  -2   62.19    2.90
   7   6   2   65.59    3.10
   7   6   2   64.59    3.00
  -7   6  -2   63.99    2.90
   8  -6   2    2.70    0.60
  -8  -6  -2    1.50    0.40
  -8   6  -2    1.80    0.40
   8   6   2    1.70    0.50
  -9  -7   2    2.20    0.50
   9   7  -2    3.10    0.50
   9   7  -2    2.20    0.50
  -8  -7   2    0.30    0.40
   8   7  -2   -0.30    0.30
  -8   7   2   -0.20    0.30
   8   7  -2    0.20    0.30
  -8   7   2   -0.10    0.30
   7  -7  -2  201.08    9.70
  -7  -7   2  227.08    9.70
  -7   7   2  236.08    9.60
  -7   7   2  235.48    9.70
   7   7  -2  225.38    9.70
   7   7  -2  219.18    9.70
  -6  -7   2    8.00    0.70
   6  -7  -2    8.40    0.70
   6   7  -2    7.90    0.70
  -6   7   2    8.00    0.60
   6   7  -2    8.40    0.60
  -6   7   2    7.60    0.60
   6   7  -2    8.00    0.60
  -5  -7   2   87.29    3.90
   5  -7  -2   84.29    3.90
  -5   7   2   85.19    3.80
   5   7  -2   91.29    3.80
   5   7  -2   85.49    3.90
   5   7  -2   88.49    3.80
  -5   7   2   84.49    3.80
  -5   7   2   86.29    3.80
   4  -7  -2   52.49    2.60
  -4  -7   2   60.69    2.60
   4   7  -2   59.69    2.50
  -4   7   2   57.39    2.50
  -4   7   2   57.09    2.60
  -4   7   2   55.99    2.50
   4   7  -2   52.09    2.50
   4   7  -2   57.49    2.60
  -3  -7   2    8.10    0.60
  -3  -7   2    7.70    0.60
   3  -7  -2    8.20    0.60
   3   7  -2    7.80    0.60
  -3   7   2    8.30    0.50
   3   7  -2    6.60    0.50
   3   7  -2    7.10    0.50
  -3   7   2    7.70    0.50
  -3   7   2    7.80    0.50
  -2  -7   2  563.04   24.40
   2  -7  -2  603.94   24.40
  -2  -7   2  565.04   24.40
  -2   7   2  586.84   24.40
   2   7  -2  580.04   24.30
   2   7  -2  530.05   24.40
   2   7  -2  564.64   24.40
  -2   7   2  580.64   24.40
  -2   7   2  567.54   24.40
   2   7  -2  579.54   24.40
  -2   7   2  605.04   24.40
  -1  -7   2  307.87   14.10
  -1  -7   2  337.77   14.10
   1  -7  -2  340.97   14.10
   1  -7  -2  351.36   14.00
   1   7  -2  306.87   14.00
   1   7  -2  341.37   14.00
  -1   7   2  332.17   14.00
  -1   7   2  333.87   14.10
  -1   7   2  337.57   14.00
  -1   7   2  326.17   14.00
   1   7  -2  317.87   14.10
   0  -7  -2  122.89    5.60
   0  -7   2  133.39    5.60
   0  -7  -2  121.59    5.50
   0  -7   2  118.29    5.60
   0   7   2  135.79    5.50
   0   7   2  128.79    5.50
   0   7  -2  134.69    5.50
   0   7   2  131.69    5.50
   0   7  -2  126.49    5.50
   0   7   2  130.99    5.50
   0   7  -2  125.99    5.50
  -1  -7  -2  235.78   10.10
   1  -7   2  252.17   10.20
  -1  -7  -2  232.48   10.20
   1  -7   2  238.18   10.20
   1   7   2  244.58   10.20
  -1   7  -2  231.98   10.10
  -1   7  -2  223.08   10.10
  -1   7  -2  228.68   10.10
   1   7   2  240.78   10.10
   1   7   2  243.68   10.10
  -2  -7  -2   55.49    2.30
   2  -7   2   53.09    2.30
  -2  -7  -2   53.69    2.40
   2  -7   2   49.50    2.40
   2  -7   2   51.09    2.30
   2   7   2   48.60    2.30
  -2   7  -2   50.59    2.30
   2   7   2   50.89    2.30
  -2   7  -2   47.50    2.30
   2   7   2   51.89    2.30
  -2   7  -2   48.50    2.30
   3  -7   2    1.60    0.30
  -3  -7  -2    1.80    0.20
   3  -7   2    1.40    0.30
  -3  -7  -2    1.60    0.30
   3  -7   2    1.70    0.30
  -3   7  -2    1.60    0.30
  -3   7  -2    1.50    0.30
   3   7   2    1.90    0.30
   3   7   2    1.70    0.30
  -3   7  -2    1.90    0.30
   3   7   2    1.50    0.30
   4  -7   2    1.90    0.40
  -4  -7  -2    1.50    0.30
  -4  -7  -2    1.80    0.30
  -4   7  -2    1.60    0.30
  -4   7  -2    1.80    0.30
   4   7   2    1.50    0.30
   4   7   2    1.70    0.30
  -5  -7  -2    2.70    0.30
  -5  -7  -2    2.50    0.40
   5  -7   2    3.20    0.50
   5   7   2    2.60    0.40
  -5   7  -2    2.80    0.40
   5   7   2    2.60    0.30
  -5   7  -2    2.90    0.30
   6  -7   2    1.60    0.40
  -6  -7  -2    1.70    0.30
   6   7   2    1.50    0.40
   6   7   2    1.90    0.40
  -6   7  -2    2.20    0.40
   7  -7   2   95.19    4.20
   7   7   2   88.99    4.20
  -7   7  -2   88.99    4.20
   9   8  -2   22.40    1.40
  -8  -8   2   44.50    2.20
  -8   8   2   45.40    2.30
  -8   8   2   40.70    2.00
   8   8  -2   40.10    2.10
   8   8  -2   38.30    2.10
   7  -8  -2    1.50    0.40
  -7  -8   2    2.30    0.50
  -7   8   2    1.90    0.30
   7   8  -2    2.10    0.40
   7   8  -2    1.60    0.40
  -7   8   2    1.90    0.40
   6  -8  -2    0.60    0.30
  -6  -8   2    0.50    0.40
   6   8  -2   -0.30    0.30
  -6   8   2    0.60    0.30
   6   8  -2    0.60    0.30
   6   8  -2    0.40    0.30
  -6   8   2    0.50    0.30
  -5  -8   2  225.18   10.00
   5  -8  -2  246.68    9.90
  -5   8   2  225.38    9.80
  -5   8   2  229.88    9.90
   5   8  -2  228.28    9.90
   5   8  -2  226.38    9.90
   5   8  -2  227.28    9.90
  -5   8   2  232.38    9.90
   4  -8  -2  180.48    6.90
  -4  -8   2  149.88    6.90
   4   8  -2  165.38    6.80
  -4   8   2  156.38    6.80
   4   8  -2  147.29    6.80
  -4   8   2  156.08    6.80
   4   8  -2  159.68    6.80
  -4   8   2  144.29    6.80
   3  -8  -2  143.99    6.30
  -3  -8   2  143.59    6.30
  -3  -8   2  149.88    6.30
  -3   8   2  135.89    6.20
  -3   8   2  145.49    6.20
   3   8  -2  143.19    6.30
  -3   8   2  140.99    6.30
   3   8  -2  154.08    6.30
   3   8  -2  141.39    6.20
  -2  -8   2  159.78    6.70
  -2  -8   2  141.29    6.70
   2  -8  -2  167.58    6.70
   2   8  -2  148.69    6.60
   2   8  -2  146.49    6.60
  -2   8   2  159.48    6.60
  -2   8   2  147.99    6.60
  -2   8   2  147.49    6.60
   2   8  -2  161.28    6.70
   2   8  -2  158.38    6.70
   1  -8  -2  208.18    9.40
  -1  -8   2  206.88    9.50
   1  -8  -2  227.68    9.50
  -1  -8   2  209.08    9.50
   1   8  -2  223.98    9.50
  -1   8   2  208.98    9.50
  -1   8   2  228.88    9.50
   1   8  -2  233.78    9.50
  -1   8   2  221.48    9.50
   1   8  -2  243.48    9.50
  -1   8   2  224.48    9.50
   0  -8   2   26.70    1.40
   0  -8   2   26.00    1.40
   0  -8  -2   30.60    1.30
   0  -8  -2   30.40    1.40
   0   8   2   28.20    1.30
   0   8  -2   26.80    1.30
   0   8   2   26.10    1.30
   0   8  -2   28.20    1.30
   0   8   2   26.70    1.30
   0   8  -2   27.20    1.30
   1  -8   2   45.00    1.90
   1  -8   2   40.80    1.90
  -1  -8  -2   39.40    1.90
  -1  -8  -2   43.00    1.80
  -1   8  -2   40.70    1.90
  -1   8  -2   37.10    1.90
   1   8   2   40.90    1.90
  -1   8  -2   37.60    1.90
   1   8   2   40.20    1.90
   1   8   2   42.10    1.90
   2  -8   2    7.40    0.60
   2  -8   2    7.80    0.60
  -2  -8  -2    7.00    0.60
  -2   8  -2    7.10    0.60
   2   8   2    6.30    0.50
   2   8   2    6.80    0.60
   2   8   2    7.40    0.50
  -2   8  -2    7.90    0.50
  -2   8  -2    7.50    0.50
   3  -8   2   20.00    1.00
   3  -8   2   20.60    1.10
   3  -8   2   18.40    1.20
  -3  -8  -2   17.80    1.10
  -3   8  -2   18.80    1.00
   3   8   2   19.20    1.00
  -3   8  -2   18.90    1.00
   3   8   2   19.10    1.10
  -4  -8  -2  221.78    9.30
   4  -8   2  215.58    9.30
  -4   8  -2  210.08    9.20
   4   8   2  208.68    9.20
  -4   8  -2  214.28    9.20
   4   8   2  213.58    9.30
  -5  -8  -2   41.60    2.10
   5  -8   2   43.30    2.10
  -5   8  -2   43.00    2.00
   5   8   2   40.30    2.10
   5   8   2   42.40    2.00
  -5   8  -2   44.80    2.10
   6  -8   2  141.39    6.10
  -6  -8  -2  154.28    6.50
   6   8   2  112.99    6.20
   6   8   2  137.59    6.10
  -6   8  -2  138.79    6.00
   7  -8   2   29.60    1.70
   7   8   2   27.80    1.70
   8   9  -2   18.30    1.50
  -7  -9   2   28.30    1.60
   7  -9  -2   29.00    1.50
   7   9  -2   25.70    1.50
   7   9  -2   27.10    1.50
  -7   9   2   28.20    1.80
  -6  -9   2    4.10    0.60
   6  -9  -2    3.40    0.50
   6   9  -2    3.70    0.50
   6   9  -2    3.60    0.50
  -6   9   2    4.50    0.50
  -5  -9   2   10.80    0.80
   5  -9  -2   11.40    0.80
  -5   9   2   12.60    0.80
  -5   9   2   11.00    0.70
   5   9  -2   10.80    0.70
   5   9  -2   10.30    0.90
   5   9  -2   12.00    0.80
   4  -9  -2   40.40    2.10
  -4  -9   2   45.20    2.20
  -4   9   2   46.50    2.10
   4   9  -2   44.60    2.20
   4   9  -2   45.40    2.10
  -4   9   2   45.60    2.10
   4   9  -2   45.70    2.10
  -3  -9   2   44.50    2.10
  -3  -9   2   48.30    2.20
   3  -9  -2   49.10    2.20
  -3   9   2   45.60    2.20
   3   9  -2   44.30    2.10
  -3   9   2   45.30    2.10
   3   9  -2   44.80    2.20
   3   9  -2   46.20    2.10
  -2  -9   2   14.00    0.90
  -2  -9   2   13.80    0.80
   2  -9  -2   10.10    0.80
  -2   9   2   12.50    0.70
  -2   9   2   11.50    0.80
   2   9  -2   13.70    0.80
   2   9  -2   12.50    0.80
   2   9  -2   12.30    0.80
  -1  -9   2  140.99    6.30
  -1  -9   2  143.39    6.30
   1  -9  -2  150.98    6.30
  -1   9   2  140.19    6.20
  -1   9   2  146.19    6.30
   1   9  -2  141.59    6.30
   1   9  -2  144.19    6.20
   1   9  -2  144.29    6.20
   0  -9   2    4.80    0.50
   0  -9   2    4.60    0.50
   0  -9  -2    4.30    0.50
   0   9   2    4.80    0.50
   0   9  -2    5.10    0.50
   0   9  -2    5.60    0.50
   0   9   2    4.90    0.50
   0   9  -2    3.40    0.40
   0   9   2    4.60    0.50
  -1  -9  -2    6.20    0.60
   1  -9   2    6.30    0.60
   1  -9   2    5.50    0.60
  -1   9  -2    5.80    0.50
   1   9   2    6.60    0.50
  -1   9  -2    5.40    0.50
   1   9   2    5.60    0.60
   1   9   2    5.60    0.50
  -1   9  -2    5.70    0.50
  -2  -9  -2    9.50    0.80
   2  -9   2   10.40    0.70
   2  -9   2    9.80    0.70
   2   9   2   10.30    0.70
  -2   9  -2    9.50    0.60
   2   9   2   10.10    0.70
  -2   9  -2    9.80    0.70
   3  -9   2   43.70    2.10
   3  -9   2   43.40    2.10
  -3  -9  -2   44.60    2.10
  -3   9  -2   42.60    2.00
   3   9   2   43.20    2.10
  -3   9  -2   42.90    2.00
   3   9   2   39.70    2.00
   4  -9   2   51.99    2.40
  -4  -9  -2   49.99    2.40
   4   9   2   50.39    2.30
   4   9   2   48.40    2.40
  -4   9  -2   49.40    2.30
  -4   9  -2   48.30    2.30
   5  -9   2   23.30    1.40
  -5  -9  -2   23.90    1.40
  -5   9  -2   26.80    1.40
   5   9   2   25.20    1.40
   5   9   2   26.30    1.30
  -5   9  -2   25.50    1.30
   6  -9   2   18.00    1.20
   6   9   2   17.30    1.20
  -7 -10   2   20.40    1.80
   6 -10  -2   68.89    3.30
  -6 -10   2   72.99    3.40
   6  10  -2   71.39    3.30
   5 -10  -2    2.40    0.40
  -5 -10   2    1.80    0.40
   5  10  -2    2.10    0.40
   5  10  -2    3.00    0.40
  -5  10   2    3.10    0.50
  -4 -10   2   46.00    2.30
   4 -10  -2   47.90    2.30
   4  10  -2   47.80    2.30
   4  10  -2   46.10    2.20
  -4  10   2   46.80    2.20
  -4  10   2   46.10    2.20
  -3 -10   2   40.20    2.00
   3 -10  -2   34.00    2.00
  -3  10   2   40.50    1.90
  -3  10   2   40.90    2.00
   3  10  -2   43.00    1.90
   3  10  -2   43.40    2.00
  -2 -10   2   54.39    2.60
  -2 -10   2   53.19    2.60
   2 -10  -2   53.89    2.60
  -2  10   2   53.99    2.50
  -2  10   2   52.99    2.50
   2  10  -2   52.79    2.50
   2  10  -2   57.09    2.50
   1 -10  -2    1.10    0.40
  -1 -10   2    0.60    0.30
  -1 -10   2    0.50    0.30
  -1  10   2    0.30    0.30
   1  10  -2    1.10    0.30
  -1  10   2    0.60    0.30
   1  10  -2    0.90    0.30
   0 -10   2   18.50    1.10
   0 -10   2   21.50    1.20
   0 -10  -2   20.20    1.20
   0  10  -2   19.90    1.10
   0  10   2   20.70    1.10
   0  10  -2   20.30    1.10
   0  10  -2   19.20    1.10
   0  10   2   19.90    1.10
   1 -10   2  120.39    5.60
  -1 -10  -2  105.29    5.60
  -1  10  -2  139.79    5.60
  -1  10  -2  134.39    5.60
  -1  10  -2  126.99    5.50
   1  10   2  129.49    5.60
   1  10   2  132.49    5.60
   2 -10   2    0.00    0.30
   2 -10   2    0.00    0.40
  -2 -10  -2    0.20    0.40
  -2  10  -2   -0.20    0.30
  -2  10  -2    0.10    0.30
   2  10   2    0.00    0.30
   2  10   2   -0.30    0.30
  -3 -10  -2   27.30    1.50
   3  10   2   25.90    1.50
  -3  10  -2   28.10    1.40
   3  10   2   25.30    1.40
  -3  10  -2   27.10    1.40
  -4 -10  -2  105.89    4.60
  -4  10  -2   99.59    4.60
   4  10   2  101.49    4.50
   4  10   2  101.99    4.60
  -4  10  -2  101.79    4.50
  -5 -10  -2    7.80    0.90
   5  10   2    9.30    0.80
   5  10   2    9.30    0.90
   6 -11  -2    5.00    0.60
  -5 -11   2   13.60    1.10
   5 -11  -2   16.50    1.10
   5  11  -2   13.10    1.00
   4 -11  -2   36.50    2.00
  -4 -11   2   39.60    2.00
  -4  11   2   39.40    1.90
   4  11  -2   37.70    2.00
   4  11  -2   38.00    1.90
  -4  11   2   40.40    2.00
  -3 -11   2   10.60    0.90
   3 -11  -2   11.80    0.90
   3  11  -2   10.20    0.80
  -3  11   2   11.40    0.80
  -3  11   2   12.20    0.80
   3  11  -2   10.00    0.80
  -2 -11   2    0.70    0.40
   2 -11  -2    0.00    0.40
  -2  11   2    0.70    0.30
   2  11  -2    0.40    0.30
   2  11  -2    0.50    0.30
  -2  11   2    1.00    0.30
   1 -11  -2   53.69    2.60
  -1 -11   2   51.19    2.60
   1  11  -2   54.59    2.50
   1  11  -2   55.89    2.50
  -1  11   2   54.09    2.50
  -1  11   2   54.89    2.50
   0 -11   2    0.60    0.40
   0 -11  -2    0.10    0.30
   0  11  -2    0.20    0.30
   0  11   2    0.30    0.30
   0  11  -2    0.20    0.30
   0  11   2    0.30    0.30
  -1 -11  -2   35.50    1.90
   1 -11   2   36.40    1.90
   1  11   2   38.70    1.80
  -1  11  -2   35.60    1.80
  -1  11  -2   37.70    1.80
   2 -11   2   17.60    1.10
  -2 -11  -2   17.80    1.20
  -2  11  -2   19.00    1.10
   2  11   2   17.00    1.10
  -2  11  -2   17.70    1.00
   2  11   2   17.10    1.10
  -3 -11  -2   -0.20    0.30
  -3  11  -2   -0.10    0.30
   3  11   2    0.10    0.40
   3  11   2   -0.40    0.30
  -3  11  -2    0.40    0.30
  -4 -11  -2    0.70    0.40
   4  11   2    1.00    0.40
   4  11   2    0.60    0.40
  -4  11  -2    1.00    0.40
   4 -12  -2    2.00    0.50
   4  12  -2    1.80    0.40
   4  12  -2    2.10    0.50
  -4  12   2    2.20    0.40
  -3 -12   2    1.80    0.50
   3 -12  -2    1.90    0.50
   3  12  -2    1.40    0.40
   3  12  -2    2.30    0.40
  -3  12   2    2.30    0.40
   2 -12  -2   23.90    1.40
  -2 -12   2   21.10    1.40
   2  12  -2   21.90    1.30
   2  12  -2   24.10    1.30
  -2  12   2   22.10    1.30
  -2  12   2   22.40    1.30
  -1 -12   2   10.90    1.00
   1 -12  -2   10.70    0.90
  -1  12   2   12.30    0.80
  -1  12   2   10.40    0.80
   1  12  -2   11.10    1.10
   1  12  -2   10.60    0.80
   0 -12   2   36.40    1.90
   0 -12  -2   37.00    1.90
   0  12  -2   34.10    1.80
   0  12   2   34.60    1.80
   1 -12   2   -0.20    0.40
  -1 -12  -2    0.30    0.50
  -1  12  -2    0.00    0.30
   1  12   2   -0.10    0.30
  -2 -12  -2    1.70    0.60
   2 -12   2    1.50    0.60
  -2  12  -2    2.20    0.40
   2  12   2    2.70    0.50
   3  12   2    1.90    0.50
  11   0  -3    0.30    0.40
 -10   0   3   -0.40    0.30
 -10   0   3   -0.20    0.30
  10   0  -3    0.40    0.30
  10   0  -3    0.20    0.40
  -9   0   3    0.10    0.20
   9   0  -3   -0.20    0.30
   9   0  -3   -0.30    0.30
  -9   0   3    0.00    0.30
  -8   0   3    0.20    0.20
  -8   0   3   -0.30    0.30
   8   0  -3   -0.10    0.20
   7   0  -3    0.40    0.20
   7   0  -3   -0.20    0.20
  -7   0   3    0.00    0.20
  -7   0   3   -0.30    0.20
   6   0  -3    0.20    0.20
   6   0  -3    0.40    0.20
  -6   0   3    0.00    0.10
  -6   0   3    0.10    0.10
  -6   0   3   -0.30    0.20
  -5   0   3    0.30    0.20
   5   0  -3    0.00    0.10
   5   0  -3    0.20    0.10
  -5   0   3    0.20    0.10
  -4   0   3   -0.10    0.10
   4   0  -3   -0.20    0.10
  -4   0   3   -0.10    0.20
  -4   0   3    0.00    0.10
   3   0  -3    0.00    0.10
   3   0  -3    0.00    0.10
  -3   0   3    0.00    0.10
  -2   0   3    1.60    0.20
  -2   0   3    0.80    0.20
  -1   0   3   -0.90    0.10
  -1   0   3   -0.90    0.10
   1   0  -3   -0.70    0.10
  -1   0   3   -0.70    0.10
  -1   0   3   -0.90    0.10
  -1   0   3   -0.30    0.10
  -1   0   3   -0.50    0.10
   0   0   3    0.30    0.10
   0   0  -3    0.30    0.10
   0   0   3    0.20    0.10
   0   0  -3    0.00    0.10
   0   0   3    0.20    0.10
   0   0   3   -0.10    0.10
   1   0   3   -0.20    0.10
   1   0   3   -0.10    0.10
  -1   0  -3    0.10    0.10
   1   0   3   -0.20    0.10
   1   0   3    0.00    0.10
  -1   0  -3   -0.10    0.10
   2   0   3   -0.70    0.20
  -2   0  -3   -0.10    0.10
  -2   0  -3   -0.30    0.10
   2   0   3   -0.50    0.10
   2   0   3   -0.70    0.10
  -3   0  -3    0.00    0.10
   3   0   3   -0.10    0.20
  -3   0  -3    0.20    0.10
   3   0   3    0.00    0.10
   3   0   3   -0.10    0.20
  -3   0  -3   -0.10    0.10
   4   0   3    0.10    0.20
  -4   0  -3    0.10    0.20
   4   0   3   -0.10    0.20
   4   0   3   -0.10    0.20
  -5   0  -3    0.30    0.20
   5   0   3    0.30    0.30
  -5   0  -3    0.20    0.20
   5   0   3    0.00    0.30
   5   0   3    0.20    0.20
   6   0   3    0.10    0.30
   6   0   3   -0.30    0.30
  -6   0  -3    0.00    0.20
  -6   0  -3   -0.10    0.20
  -7   0  -3   -0.10    0.30
  -7   0  -3    0.00    0.20
   7   0   3   -0.10    0.30
   7   0   3    0.20    0.30
   8   0   3    0.20    0.40
  -8   0  -3   -0.20    0.30
   8   0   3    0.00    0.40
   9   0   3    0.00    0.40
  11  -1  -3   17.10    1.20
  11   1  -3   14.30    1.20
 -10  -1   3   15.00    0.90
  10  -1  -3   15.10    1.10
 -10  -1   3   14.80    1.10
 -10   1   3   14.80    1.00
  10   1  -3   16.10    1.10
 -10   1   3   15.20    0.90
  10   1  -3   14.40    1.00
  -9  -1   3   36.10    1.80
   9  -1  -3   37.40    1.90
   9  -1  -3   37.30    1.90
  -9  -1   3   39.60    1.90
   9   1  -3   37.20    1.90
  -9   1   3   40.00    1.90
  -9   1   3   38.20    1.80
  -8  -1   3   70.09    3.10
  -8  -1   3   67.39    3.10
   8  -1  -3   62.69    3.10
   8  -1  -3   61.79    3.10
  -8   1   3   69.09    3.10
   8   1  -3   79.19    3.10
   8   1  -3   75.19    3.10
  -8   1   3   65.79    3.10
   7  -1  -3   50.59    2.30
  -7  -1   3   48.30    2.30
  -7  -1   3   53.49    2.40
   7  -1  -3   48.60    2.30
  -7   1   3   48.60    2.30
  -7   1   3   51.69    2.20
   7   1  -3   53.19    2.30
   7   1  -3   50.69    2.30
   6  -1  -3  774.82   32.20
   6  -1  -3  789.32   32.20
  -6  -1   3  749.73   32.10
  -6  -1   3  790.92   32.20
   6  -1  -3  740.33   32.10
  -6   1   3  764.32   32.10
   6   1  -3  717.73   32.10
   6   1  -3  727.83   32.20
  -6   1   3  753.42   32.10
  -6   1   3  783.82   32.20
   5  -1  -3   74.99    3.50
  -5  -1   3   80.29    3.50
  -5  -1   3   84.09    3.40
   5  -1  -3   78.29    3.50
   5  -1  -3   88.69    3.50
  -5   1   3   76.69    3.50
  -5   1   3   78.09    3.50
  -5   1   3   82.09    3.50
   5   1  -3   76.19    3.50
   5   1  -3   85.49    3.50
  -4  -1   3  323.47   12.40
  -4  -1   3  293.07   12.40
  -4  -1   3  292.57   12.30
   4  -1  -3  277.77   12.40
   4  -1  -3  290.77   12.30
   4  -1  -3  286.07   12.40
  -4   1   3  299.87   12.30
  -4   1   3  298.67   12.40
  -4   1   3  283.37   12.40
  -4   1   3  250.87   12.40
   4   1  -3  297.47   12.30
   4   1  -3  302.07   12.40
  -3  -1   3  546.65   23.60
   3  -1  -3  574.24   23.60
   3  -1  -3  568.54   23.70
   3  -1  -3  557.04   23.70
  -3  -1   3  544.95   23.60
  -3  -1   3  502.55   23.60
  -3  -1   3  533.35   23.60
  -3   1   3  593.64   23.60
  -3   1   3  546.35   23.60
   3   1  -3  569.04   23.70
   3   1  -3  558.14   23.60
   3   1  -3  577.14   23.70
  -3   1   3  578.14   23.70
  -3   1   3  556.64   23.60
  -2  -1   3  594.64   24.00
   2  -1  -3  567.64   24.00
  -2  -1   3  570.24   24.00
  -2  -1   3  562.24   23.90
   2  -1  -3  534.45   23.90
  -2  -1   3  581.14   24.00
  -2  -1   3  525.05   23.90
  -2  -1   3  563.34   23.90
  -2   1   3  523.25   24.50
   2   1  -3  587.04   24.30
  -2   1   3  567.24   23.90
  -2   1   3  576.94   24.00
   2   1  -3  574.64   24.00
  -2   1   3  576.44   24.00
   2   1  -3  571.04   24.00
  -2   1   3  546.75   24.00
  -2   1   3  584.54   24.00
  -1  -1   3 4430.46  195.48
  -1  -1   3 4603.34  193.88
  -1  -1   3 4570.74  196.78
  -1  -1   3 4509.05  197.28
   1  -1  -3 4367.26  196.48
  -1  -1   3 4865.01  196.28
   1  -1  -3 4763.62  197.08
  -1   1   3 4426.66  197.48
  -1   1   3 4559.04  197.28
  -1   1   3 4498.45  196.68
   1   1  -3 4500.85  196.28
  -1   1   3 4595.04  195.88
  -1   1   3 4697.63  197.48
   1   1  -3 4638.84  195.98
   1   1  -3 4752.62  195.88
   0  -1   3    3.40    0.30
   0  -1   3    3.20    0.30
   0  -1   3    3.20    0.30
   0  -1  -3    3.00    0.20
   0  -1   3    3.60    0.20
   0  -1  -3    3.20    0.20
   0   1   3    3.10    0.20
   0   1   3    3.20    0.20
   0   1   3    2.90    0.30
   0   1  -3    3.30    0.20
   0   1   3    3.60    0.30
   0   1  -3    3.50    0.30
   1  -1   3    0.30    0.20
  -1  -1  -3    0.60    0.10
   1  -1   3    0.30    0.20
  -1  -1  -3    0.20    0.10
   1  -1   3    0.20    0.10
  -1  -1  -3    0.50    0.10
   1   1   3    0.50    0.20
   1   1   3    0.30    0.20
  -1   1  -3    0.30    0.10
   1   1   3    0.70    0.10
   1   1   3    0.40    0.10
   2  -1   3  692.93   30.40
  -2  -1  -3  714.03   30.30
   2  -1   3  727.53   30.30
  -2  -1  -3  737.03   30.40
   2  -1   3  722.93   30.40
  -2  -1  -3  746.83   30.40
   2   1   3  735.23   30.40
   2   1   3  707.23   30.40
  -2   1  -3  711.23   30.40
   2   1   3  691.83   30.30
  -2   1  -3  696.03   30.40
   2   1   3  718.33   30.40
  -3  -1  -3   48.90    2.20
  -3  -1  -3   50.79    2.10
   3  -1   3   51.39    2.30
   3  -1   3   49.60    2.20
   3  -1   3   51.59    2.20
  -3  -1  -3   47.10    2.20
  -3   1  -3   49.60    2.20
   3   1   3   46.50    2.20
  -3   1  -3   49.50    2.20
   3   1   3   47.20    2.20
   3   1   3   49.70    2.20
   4  -1   3    2.20    0.30
  -4  -1  -3    2.00    0.20
  -4  -1  -3    2.20    0.30
   4  -1   3    3.10    0.30
   4  -1   3    1.70    0.30
   4   1   3    2.30    0.30
   4   1   3    2.10    0.30
  -4   1  -3    2.30    0.30
  -4   1  -3    2.00    0.20
   4   1   3    2.00    0.30
  -4   1  -3    2.40    0.20
  -5  -1  -3    4.20    0.40
  -5  -1  -3    4.00    0.40
   5  -1   3    3.40    0.40
   5  -1   3    4.10    0.40
   5  -1   3    3.00    0.30
   5   1   3    4.90    0.50
  -5   1  -3    4.10    0.40
  -5   1  -3    4.40    0.40
   5   1   3    5.60    0.40
   5   1   3    4.70    0.50
  -5   1  -3    3.50    0.40
  -6  -1  -3   27.20    1.30
   6  -1   3   27.10    1.40
   6  -1   3   26.60    1.40
  -6  -1  -3   26.20    1.30
   6   1   3   26.10    1.40
   6   1   3   26.10    1.40
  -6   1  -3   27.30    1.30
  -6   1  -3   26.80    1.30
   7  -1   3    2.90    0.40
  -7  -1  -3    3.10    0.40
   7  -1   3    3.20    0.40
   7   1   3    3.30    0.50
  -7   1  -3    2.60    0.40
  -7   1  -3    2.80    0.40
   7   1   3    3.00    0.50
  -8  -1  -3    7.30    0.60
   8  -1   3    8.00    0.80
   8  -1   3    5.90    0.70
   8   1   3    7.10    0.80
   8   1   3    6.90    0.80
  -8   1  -3    6.30    0.70
   9   1   3    5.10    0.70
  11  -2  -3   52.89    2.60
  10  -2  -3   10.20    0.90
 -10  -2   3   12.50    0.90
 -10  -2   3   11.50    0.80
 -10   2   3   11.10    0.80
  10   2  -3   11.70    0.90
  -9  -2   3  100.39    4.50
   9  -2  -3   99.19    4.50
   9  -2  -3  101.69    4.50
  -9  -2   3  104.19    4.60
   9   2  -3   95.19    4.50
  -9   2   3  104.69    4.60
  -9   2   3  103.99    4.50
   9   2  -3  103.49    4.60
   8  -2  -3   37.40    1.90
  -8  -2   3   37.90    1.80
   8  -2  -3   44.30    1.90
  -8  -2   3   39.70    1.90
  -8   2   3   39.40    1.90
  -8   2   3   36.10    1.90
   8   2  -3   41.90    1.90
   8   2  -3   40.80    1.90
  -7  -2   3    0.30    0.30
   7  -2  -3    0.20    0.20
   7  -2  -3    0.00    0.20
  -7  -2   3   -0.10    0.20
  -7   2   3    0.50    0.20
  -7   2   3    0.50    0.20
   7   2  -3    0.20    0.20
  -7   2   3    0.00    0.20
   7   2  -3    0.10    0.20
   6  -2  -3  486.65   21.80
  -6  -2   3  480.35   21.80
   6  -2  -3  466.85   21.80
  -6  -2   3  538.55   21.70
   6   2  -3  545.15   21.80
   6   2  -3  522.85   21.80
  -6   2   3  507.85   21.80
  -6   2   3  509.05   21.80
  -6   2   3  560.14   21.70
  -5  -2   3    0.50    0.10
   5  -2  -3   -0.10    0.20
   5  -2  -3    0.00    0.10
   5  -2  -3    0.00    0.10
  -5  -2   3   -0.10    0.20
  -5   2   3    0.10    0.10
  -5   2   3   -0.10    0.20
   5   2  -3    0.20    0.10
   5   2  -3    0.00    0.20
  -5   2   3    0.00    0.10
  -4  -2   3 1021.80   45.00
   4  -2  -3 1077.99   45.00
  -4  -2   3 1057.29   44.90
   4  -2  -3 1077.19   45.00
   4   2  -3 1060.99   44.80
  -4   2   3 1087.39   44.90
  -4   2   3 1068.49   45.00
  -4   2   3 1050.99   44.90
  -4   2   3 1083.39   44.80
   4   2  -3  945.21   44.90
   4   2  -3 1118.39   45.00
  -3  -2   3 3163.28  132.39
   3  -2  -3 3061.59  134.59
  -3  -2   3 3060.69  131.99
   3  -2  -3 3266.77  132.39
  -3  -2   3 3067.69  132.29
  -3   2   3 3023.70  132.19
   3   2  -3 3085.79  134.19
   3   2  -3 3214.98  132.99
  -3   2   3 3297.07  131.99
   3   2  -3 3196.68  132.19
  -3   2   3 2904.71  132.09
   3   2  -3 3148.98  132.19
  -3   2   3 3102.79  132.39
  -2  -2   3   12.30    0.60
   2  -2  -3   11.50    0.50
  -2  -2   3   11.90    0.60
  -2  -2   3   11.70    0.50
  -2  -2   3   12.20    0.60
  -2   2   3   10.80    0.60
   2   2  -3   12.30    0.60
  -2   2   3   10.30    0.60
   2   2  -3   11.20    0.60
  -2   2   3   11.50    0.50
   2   2  -3   11.70    0.50
  -2   2   3   10.60    0.60
  -1  -2   3  783.42   32.60
  -1  -2   3  763.12   32.50
   1  -2  -3  793.42   32.50
   1  -2  -3  752.92   32.50
  -1  -2   3  682.73   32.60
  -1  -2   3  786.02   34.60
  -1   2   3  759.42   32.50
   1   2  -3  779.62   32.50
  -1   2   3  791.12   32.40
  -1   2   3  774.92   32.50
  -1   2   3  751.62   32.50
   1   2  -3  794.42   32.50
   1   2  -3  774.92   32.50
  -1   2   3  743.63   32.50
   0  -2   3  202.78    8.70
   0  -2   3  212.98    8.70
   0  -2   3  196.78    8.70
   0  -2  -3  213.08    8.70
   0  -2   3  204.08    8.70
   0   2  -3  192.78    8.70
   0   2   3  208.48    8.70
   0   2   3  204.68    8.70
   0   2  -3  209.18    8.70
   0   2   3  212.08    8.70
   0   2  -3  204.58    8.70
   0   2   3  210.08    8.70
   0   2   3  194.28    8.70
  -1  -2  -3  370.36   15.40
   1  -2   3  374.46   15.40
   1  -2   3  380.26   15.50
   1  -2   3  352.36   15.50
   1  -2   3  361.06   15.50
  -1  -2  -3  355.86   15.40
   1   2   3  350.56   15.50
  -1   2  -3  352.46   15.40
   1   2   3  371.76   15.50
  -1   2  -3  362.56   15.40
   1   2   3  362.36   15.50
  -1   2  -3  372.56   15.50
   1   2   3  368.66   15.40
  -2  -2  -3  320.87   13.80
   2  -2   3  328.67   13.90
  -2  -2  -3  334.37   13.80
   2  -2   3  296.97   13.80
  -2  -2  -3  328.17   13.80
   2  -2   3  328.27   13.90
  -2   2  -3  320.97   13.80
   2   2   3  332.27   13.80
  -2   2  -3  324.97   13.80
  -2   2  -3  325.77   13.80
   2   2   3  347.27   13.90
   2   2   3  327.77   13.80
   2   2   3  323.07   13.80
  -3  -2  -3   56.39    2.60
  -3  -2  -3   60.39    2.60
   3  -2   3   55.89    2.60
   3  -2   3   60.59    2.60
  -3  -2  -3   58.99    2.50
   3  -2   3   60.99    2.60
   3   2   3   58.69    2.60
   3   2   3   58.69    2.60
  -3   2  -3   55.29    2.60
   3   2   3   58.79    2.60
  -3   2  -3   57.69    2.50
  -3   2  -3   56.69    2.50
   3   2   3   58.89    2.60
   4  -2   3   51.79    2.40
   4  -2   3   52.79    2.30
  -4  -2  -3   53.59    2.30
  -4  -2  -3   51.99    2.30
   4  -2   3   51.69    2.40
  -4   2  -3   49.80    2.30
   4   2   3   52.39    2.40
  -4   2  -3   52.49    2.30
  -4   2  -3   51.09    2.30
   4   2   3   50.59    2.30
   4   2   3   52.89    2.30
   5  -2   3  346.27   14.60
  -5  -2  -3  334.87   14.50
   5  -2   3  335.67   14.50
   5  -2   3  345.67   14.60
  -5  -2  -3  339.57   14.50
  -5   2  -3  346.27   14.50
   5   2   3  350.66   14.60
  -5   2  -3  356.36   14.60
   5   2   3  334.47   14.50
  -5   2  -3  323.67   14.50
   5   2   3  343.77   14.60
  -6  -2  -3   10.40    0.70
   6  -2   3    9.40    0.70
   6  -2   3    9.30    0.70
  -6  -2  -3    9.50    0.70
  -6   2  -3    8.50    0.60
   6   2   3   10.10    0.80
   6   2   3    8.90    0.70
   6   2   3    9.40    0.70
  -6   2  -3    9.50    0.60
  -7  -2  -3    2.80    0.40
   7  -2   3    3.00    0.50
   7  -2   3    4.00    0.50
  -7   2  -3    3.40    0.40
   7   2   3    2.30    0.50
   7   2   3    3.30    0.40
  -7   2  -3    3.70    0.40
   8  -2   3  219.38    9.90
  -8  -2  -3  230.98    9.70
  -8   2  -3  224.28    9.80
   8   2   3  225.88    9.80
   8   2   3  226.18    9.90
  -8   2  -3  226.68    9.70
   9   2   3   11.70    1.20
  11  -3  -3   15.20    1.20
 -10  -3   3   27.20    1.50
 -10  -3   3   25.10    1.30
  10  -3  -3   25.30    1.50
 -10   3   3   26.00    1.40
  10   3  -3   25.00    1.40
   9  -3  -3    1.50    0.40
  -9  -3   3    1.10    0.30
  -9  -3   3    1.50    0.40
   9  -3  -3    1.20    0.30
  -9   3   3    1.50    0.30
   9   3  -3    1.40    0.30
   9   3  -3    1.80    0.40
   8  -3  -3  177.28    7.40
   8  -3  -3  166.48    7.30
  -8  -3   3  155.08    7.40
  -8  -3   3  167.18    7.30
   8   3  -3  172.48    7.30
  -8   3   3  173.98    7.30
   8   3  -3  165.98    7.40
  -8   3   3  174.98    7.30
   7  -3  -3  247.38   10.90
  -7  -3   3  252.07   10.90
  -7  -3   3  254.17   10.80
   7  -3  -3  264.37   10.90
   7   3  -3  253.67   10.90
  -7   3   3  256.47   10.90
  -7   3   3  257.47   10.90
   7   3  -3  251.17   10.90
   6  -3  -3  293.97   12.50
  -6  -3   3  285.67   12.50
  -6  -3   3  291.27   12.40
   6  -3  -3  299.37   12.40
  -6   3   3  295.57   12.40
   6   3  -3  307.87   12.50
  -6   3   3  292.07   12.40
   6   3  -3  266.97   12.40
  -5  -3   3   69.99    3.00
   5  -3  -3   59.19    3.00
  -5  -3   3   72.39    3.10
   5  -3  -3   70.89    3.10
   5   3  -3   64.59    3.00
  -5   3   3   66.99    3.00
  -5   3   3   73.39    3.00
   5   3  -3   73.99    3.00
  -5   3   3   71.59    3.00
   5   3  -3   70.49    3.10
  -4  -3   3   13.80    0.70
   4  -3  -3   14.60    0.70
  -4  -3   3   14.20    0.80
  -4   3   3   13.80    0.70
  -4   3   3   14.60    0.70
   4   3  -3   14.80    0.70
   4   3  -3   12.60    0.70
  -4   3   3   14.40    0.70
   4   3  -3   14.80    0.70
  -3  -3   3    6.20    0.30
  -3  -3   3    6.60    0.40
   3  -3  -3    5.00    0.40
  -3  -3   3    6.20    0.40
   3  -3  -3    5.80    0.30
  -3   3   3    5.80    0.40
   3   3  -3    6.10    0.40
   3   3  -3    5.90    0.30
  -3   3   3    5.30    0.30
  -3   3   3    6.00    0.40
   3   3  -3    5.60    0.30
   3   3  -3    5.20    0.40
  -2  -3   3  158.18    7.30
  -2  -3   3  162.48    7.30
   2  -3  -3  183.08    7.30
  -2  -3   3  176.98    7.30
   2   3  -3  167.48    7.30
  -2   3   3  169.38    7.30
  -2   3   3  174.48    7.30
   2   3  -3  170.88    7.30
   2   3  -3  169.58    7.30
  -2   3   3  175.88    7.30
  -2   3   3  178.18    7.30
  -1  -3   3  918.41   39.50
  -1  -3   3  958.80   39.70
   1  -3  -3 1057.49   39.70
   1  -3  -3  839.42   39.50
  -1  -3   3  965.80   39.60
   1   3  -3  929.21   39.70
  -1   3   3  901.41   39.70
  -1   3   3  891.71   39.60
  -1   3   3  927.61   39.50
   1   3  -3  928.71   39.60
   1   3  -3  995.60   39.50
   1   3  -3  898.21   39.70
   0  -3   3  200.98    8.30
   0  -3   3  187.68    8.40
   0  -3  -3  195.08    8.30
   0  -3  -3  187.48    8.30
   0  -3   3  202.18    8.40
   0   3  -3  198.98    8.30
   0   3  -3  195.08    8.30
   0   3  -3  187.98    8.30
   0   3   3  205.58    8.30
   0   3   3  187.78    8.30
   0   3   3  196.68    8.30
   0   3   3  196.58    8.30
   0   3   3  196.68    8.30
   1  -3   3  591.54   23.80
   1  -3   3  560.44   23.80
  -1  -3  -3  571.24   23.80
  -1  -3  -3  541.65   23.80
   1  -3   3  564.34   23.80
   1  -3   3  550.14   23.80
   1   3   3  565.24   23.80
  -1   3  -3  552.44   23.80
   1   3   3  578.64   23.80
   1   3   3  546.05   23.80
  -1   3  -3  555.64   23.80
   1   3   3  573.84   23.80
  -1   3  -3  558.44   23.80
  -2  -3  -3   33.00    1.40
   2  -3   3   31.70    1.40
  -2  -3  -3   28.70    1.40
   2  -3   3   31.40    1.50
  -2  -3  -3   31.60    1.40
   2  -3   3   30.70    1.40
   2  -3   3   31.70    1.50
  -2   3  -3   29.30    1.40
   2   3   3   30.70    1.50
   2   3   3   32.70    1.40
  -2   3  -3   30.40    1.40
   2   3   3   30.20    1.40
   2   3   3   31.30    1.40
  -2   3  -3   30.60    1.40
   3  -3   3   80.59    3.40
  -3  -3  -3   80.59    3.40
  -3  -3  -3   77.69    3.50
  -3  -3  -3   82.19    3.50
   3  -3   3   81.19    3.50
   3  -3   3   74.79    3.50
   3   3   3   78.89    3.50
  -3   3  -3   80.09    3.50
   3   3   3   80.79    3.50
   3   3   3   79.59    3.50
   3   3   3   79.69    3.50
  -3   3  -3   78.39    3.40
  -3   3  -3   77.49    3.40
  -4  -3  -3   16.40    0.80
   4  -3   3   16.10    0.80
  -4  -3  -3   16.10    0.80
   4  -3   3   15.40    0.90
  -4  -3  -3   16.00    0.80
   4  -3   3   13.20    0.90
   4   3   3   16.60    0.80
  -4   3  -3   14.50    0.80
  -4   3  -3   15.70    0.80
   4   3   3   15.90    0.90
   4   3   3   15.50    0.90
  -4   3  -3   15.70    0.80
  -5  -3  -3   18.30    0.90
   5  -3   3   17.60    1.00
   5  -3   3   16.70    1.00
  -5  -3  -3   16.40    0.90
  -5   3  -3   17.00    0.90
   5   3   3   15.90    1.00
  -5   3  -3   16.60    0.90
   5   3   3   18.50    0.90
   5   3   3   17.20    1.00
  -5   3  -3   17.80    0.90
   6  -3   3   18.30    1.00
   6  -3   3   17.40    1.10
  -6  -3  -3   16.50    1.00
  -6   3  -3   17.70    1.00
   6   3   3   16.50    1.00
   6   3   3   17.80    1.00
  -6   3  -3   15.20    0.90
   6   3   3   18.20    1.00
   7  -3   3   25.60    1.40
  -7  -3  -3   26.20    1.40
   7  -3   3   24.60    1.50
  -7   3  -3   27.70    1.40
  -7   3  -3   26.60    1.30
   7   3   3   26.70    1.50
   7   3   3   25.10    1.40
   8  -3   3   48.30    2.50
  -8  -3  -3   47.90    2.40
  -8   3  -3   51.49    2.40
   8   3   3   52.69    2.50
   8   3   3   50.69    2.50
  -8   3  -3   50.19    2.40
  10  -4  -3    1.40    0.40
 -10  -4   3    1.50    0.50
  10   4  -3    1.00    0.40
  10   4  -3    1.30    0.40
  -9  -4   3   94.39    4.10
   9  -4  -3   88.09    4.10
  -9  -4   3   88.09    4.00
   9  -4  -3   94.29    4.10
   9   4  -3   87.39    4.10
  -9   4   3   85.79    4.00
   9   4  -3   92.69    4.10
  -8  -4   3  152.08    6.60
   8  -4  -3  157.58    6.70
  -8  -4   3  152.98    6.80
   8  -4  -3  160.78    6.70
  -8   4   3  155.18    6.70
   8   4  -3  143.09    6.70
   8   4  -3  162.28    6.70
  -8   4   3  148.59    6.70
   7  -4  -3   25.40    1.30
  -7  -4   3   25.30    1.20
  -7  -4   3   23.90    1.30
   7  -4  -3   24.10    1.30
  -7   4   3   24.10    1.20
   7   4  -3   25.00    1.30
   7   4  -3   24.10    1.30
  -7   4   3   24.10    1.20
   6  -4  -3  334.97   13.10
  -6  -4   3  291.87   13.10
   6  -4  -3  322.87   13.00
  -6  -4   3  311.17   13.00
  -6   4   3  305.07   13.00
   6   4  -3  276.17   13.00
  -6   4   3  305.97   13.00
   6   4  -3  298.87   13.10
   5  -4  -3  190.98    8.80
  -5  -4   3  207.28    8.70
  -5  -4   3  203.38    8.80
   5  -4  -3  195.28    8.80
   5   4  -3  203.08    8.80
   5   4  -3  206.18    8.80
  -5   4   3  201.28    8.80
  -5   4   3  211.58    8.80
   5   4  -3  225.98    8.70
  -5   4   3  205.98    8.70
   4  -4  -3    1.40    0.20
  -4  -4   3    1.10    0.20
  -4  -4   3    1.70    0.20
  -4  -4   3    1.00    0.10
   4  -4  -3    0.80    0.20
  -4   4   3    0.70    0.20
  -4   4   3    1.10    0.20
   4   4  -3    0.80    0.20
   4   4  -3    1.00    0.10
   4   4  -3    0.80    0.20
  -4   4   3    0.80    0.10
   3  -4  -3  406.96   19.00
   3  -4  -3  497.15   18.90
  -3  -4   3  462.15   19.00
  -3  -4   3  468.85   18.90
   3   4  -3  427.36   19.00
   3   4  -3  452.95   18.90
   3   4  -3  466.15   18.90
   3   4  -3  416.56   18.90
  -3   4   3  432.76   18.90
  -3   4   3  434.36   18.90
  -3   4   3  449.86   18.90
  -2  -4   3    2.00    0.20
  -2  -4   3    1.30    0.20
   2  -4  -3    2.50    0.30
   2   4  -3    1.50    0.20
   2   4  -3    1.30    0.20
  -2   4   3    1.30    0.20
  -2   4   3    1.00    0.20
  -2   4   3    1.30    0.20
   2   4  -3    1.20    0.20
  -2   4   3    1.50    0.20
   1  -4  -3    1.00    0.20
  -1  -4   3    0.60    0.20
  -1  -4   3    0.40    0.20
  -1  -4   3    0.70    0.20
   1  -4  -3    0.90    0.20
  -1   4   3    0.70    0.20
  -1   4   3    0.70    0.20
  -1   4   3    1.00    0.20
   1   4  -3    0.80    0.10
   1   4  -3    0.80    0.20
   1   4  -3    0.80    0.10
  -1   4   3    1.00    0.10
   0  -4   3    1.20    0.20
   0  -4  -3    0.80    0.20
   0  -4  -3    1.10    0.20
   0  -4   3    1.20    0.20
   0  -4   3    1.30    0.20
   0   4   3    1.30    0.20
   0   4  -3    1.10    0.20
   0   4  -3    1.20    0.20
   0   4   3    1.20    0.20
   0   4   3    1.50    0.20
   0   4   3    1.00    0.20
   0   4  -3    0.80    0.10
   0   4  -3    1.30    0.10
   1  -4   3  368.16   16.00
  -1  -4  -3  388.66   16.00
   1  -4   3  391.56   16.00
   1  -4   3  362.16   16.00
  -1  -4  -3  327.97   16.00
   1   4   3  386.86   15.90
   1   4   3  391.16   16.00
  -1   4  -3  398.96   15.90
   1   4   3  390.46   16.00
   1   4   3  385.56   16.00
  -1   4  -3  384.36   16.00
  -1   4  -3  345.87   16.00
  -2  -4  -3   49.90    2.50
  -2  -4  -3   56.19    2.50
   2  -4   3   56.39    2.50
   2  -4   3   57.99    2.50
   2  -4   3   57.79    2.40
  -2   4  -3   52.89    2.40
   2   4   3   55.89    2.50
   2   4   3   55.59    2.40
   2   4   3   58.89    2.50
  -2   4  -3   56.79    2.50
  -2   4  -3   55.69    2.40
   2   4   3   56.69    2.50
  -3  -4  -3    3.90    0.40
  -3  -4  -3    4.50    0.40
   3  -4   3    4.00    0.40
   3  -4   3    4.30    0.50
  -3  -4  -3    4.20    0.40
   3   4   3    4.40    0.50
  -3   4  -3    4.50    0.30
   3   4   3    4.40    0.40
  -3   4  -3    3.90    0.40
  -3   4  -3    4.30    0.30
   3   4   3    4.00    0.40
   3   4   3    4.40    0.40
  -4  -4  -3  213.58    9.10
  -4  -4  -3  200.88    9.10
  -4  -4  -3  214.88    9.10
   4  -4   3  215.38    9.20
   4  -4   3  209.48    9.20
  -4   4  -3  218.78    9.10
  -4   4  -3  213.58    9.10
  -4   4  -3  210.78    9.10
   4   4   3  205.88    9.20
   4   4   3  208.48    9.10
   4   4   3  220.98    9.10
   4   4   3  224.38    9.10
  -5  -4  -3   74.99    3.30
   5  -4   3   74.29    3.30
   5  -4   3   72.89    3.40
   5   4   3   73.29    3.30
   5   4   3   73.19    3.30
  -5   4  -3   73.99    3.20
  -5   4  -3   73.49    3.30
   5   4   3   72.99    3.40
  -5   4  -3   72.89    3.20
   6  -4   3   -0.20    0.40
   6  -4   3    0.00    0.30
  -6  -4  -3   -0.30    0.20
  -6   4  -3    0.00    0.20
   6   4   3    0.20    0.40
   6   4   3    0.20    0.30
   6   4   3    0.30    0.30
  -6   4  -3    0.00    0.30
   7  -4   3   97.19    4.90
  -7  -4  -3  108.29    4.80
   7   4   3  109.99    4.90
  -7   4  -3  113.49    4.80
   7   4   3  113.39    5.00
  -7   4  -3  112.29    4.80
   8  -4   3    0.50    0.50
  -8   4  -3    0.50    0.40
  -8   4  -3    0.20    0.50
   8   4   3    0.80    0.50
   8   4   3    0.60    0.40
  10  -5  -3    7.40    0.80
 -10  -5   3    5.30    0.70
  10   5  -3    4.30    0.60
  10   5  -3    6.50    0.70
   9  -5  -3   73.09    3.10
   9  -5  -3   70.69    3.20
  -9  -5   3   68.09    3.20
   9   5  -3   61.69    3.10
  -9   5   3   66.79    3.10
   9   5  -3   66.59    3.10
  -9   5   3   65.39    3.10
  -8  -5   3   72.59    3.30
   8  -5  -3   80.19    3.30
   8  -5  -3   69.99    3.30
  -8   5   3   68.29    3.20
   8   5  -3   69.99    3.30
  -8   5   3   70.29    3.20
   8   5  -3   70.39    3.30
   7  -5  -3    1.60    0.30
   7  -5  -3    0.80    0.30
  -7  -5   3    1.10    0.30
   7   5  -3    0.20    0.30
  -7   5   3    1.50    0.30
  -7   5   3    0.50    0.30
   7   5  -3    1.20    0.30
   6  -5  -3   43.00    2.00
   6  -5  -3   50.39    2.10
  -6  -5   3   43.60    2.10
   6   5  -3   38.60    2.00
  -6   5   3   41.80    2.00
   6   5  -3   46.50    2.10
  -6   5   3   42.50    2.00
  -5  -5   3   14.10    0.90
   5  -5  -3   14.90    0.90
   5  -5  -3   15.70    0.80
  -5   5   3   14.60    0.70
   5   5  -3   15.80    0.70
  -5   5   3   14.00    0.80
  -5   5   3   14.10    0.80
   5   5  -3   15.10    0.80
   5   5  -3   14.00    0.80
   4  -5  -3   22.90    1.00
   4  -5  -3   21.40    1.10
  -4  -5   3   21.10    1.10
  -4  -5   3   21.80    1.10
   4   5  -3   21.10    1.00
  -4   5   3   18.50    1.00
  -4   5   3   20.70    1.00
  -4   5   3   21.90    1.00
   4   5  -3   21.50    1.00
   4   5  -3   20.80    1.10
   3  -5  -3   76.39    3.20
  -3  -5   3   72.99    3.10
   3  -5  -3   67.69    3.10
   3   5  -3   71.99    3.10
   3   5  -3   72.09    3.10
  -3   5   3   71.19    3.10
   3   5  -3   75.19    3.00
  -3   5   3   64.79    3.10
   3   5  -3   64.19    3.10
  -3   5   3   70.39    3.10
  -2  -5   3   44.20    1.90
  -2  -5   3   41.90    1.90
   2  -5  -3   42.60    1.90
   2   5  -3   43.20    1.80
  -2   5   3   43.50    1.80
   2   5  -3   41.40    1.90
  -2   5   3   41.60    1.90
  -2   5   3   42.30    1.90
  -2   5   3   42.90    1.90
   2   5  -3   39.50    1.90
  -1  -5   3   28.70    1.40
   1  -5  -3   30.10    1.40
  -1  -5   3   30.00    1.40
  -1  -5   3   32.00    1.40
   1  -5  -3   32.70    1.40
  -1   5   3   30.00    1.40
   1   5  -3   29.50    1.40
  -1   5   3   33.20    1.40
   1   5  -3   30.90    1.40
  -1   5   3   31.00    1.40
  -1   5   3   29.80    1.40
   1   5  -3   30.20    1.40
   0  -5  -3  404.56   17.40
   0  -5   3  412.56   17.40
   0  -5   3  431.76   17.40
   0  -5  -3  449.66   17.40
   0  -5   3  406.86   17.40
   0   5   3  462.95   17.40
   0   5  -3  391.66   17.40
   0   5  -3  402.76   17.30
   0   5  -3  404.26   17.40
   0   5   3  406.76   17.40
   0   5   3  378.16   17.40
   0   5   3  409.86   17.40
   0   5  -3  370.16   17.40
   0   5   3  403.46   17.40
  -1  -5  -3   89.19    4.10
   1  -5   3   98.29    4.10
   1  -5   3   96.19    4.10
  -1  -5  -3   96.99    4.10
   1  -5   3   97.99    4.20
  -1   5  -3   91.29    4.10
  -1   5  -3  101.19    4.00
   1   5   3   97.79    4.10
   1   5   3   97.69    4.10
  -1   5  -3   87.89    4.10
   1   5   3   96.09    4.10
  -1   5  -3   88.49    4.10
   1   5   3   93.09    4.10
   2  -5   3    9.00    0.50
  -2  -5  -3    9.60    0.60
   2  -5   3    8.90    0.60
  -2  -5  -3    8.40    0.50
   2  -5   3   10.20    0.60
  -2   5  -3    9.00    0.50
   2   5   3    9.00    0.60
   2   5   3   10.10    0.60
  -2   5  -3    9.20    0.50
   2   5   3    8.80    0.50
  -2   5  -3    8.70    0.60
   2   5   3    8.60    0.50
  -3  -5  -3  250.67   10.90
   3  -5   3  234.38   11.00
   3  -5   3  263.57   11.00
  -3  -5  -3  242.88   10.90
  -3  -5  -3  263.77   10.90
   3   5   3  258.47   10.90
   3   5   3  259.77   10.90
  -3   5  -3  268.07   10.90
  -3   5  -3  265.47   10.90
  -3   5  -3  246.58   10.90
   3   5   3  257.17   11.00
   3   5   3  257.37   10.90
  -4  -5  -3    3.90    0.40
  -4  -5  -3    3.50    0.40
  -4  -5  -3    2.90    0.30
   4  -5   3    3.50    0.40
   4  -5   3    2.40    0.40
   4   5   3    3.70    0.40
   4   5   3    3.00    0.30
   4   5   3    3.50    0.30
  -4   5  -3    3.90    0.40
   4   5   3    3.20    0.40
  -4   5  -3    3.00    0.30
  -4   5  -3    3.20    0.30
   5  -5   3   81.69    3.70
  -5  -5  -3   78.09    3.50
   5  -5   3   85.69    3.60
   5   5   3   78.19    3.50
  -5   5  -3   81.09    3.50
  -5   5  -3   76.39    3.60
   5   5   3   78.19    3.60
  -5   5  -3   80.69    3.50
   5   5   3   78.69    3.60
   6  -5   3   10.90    0.90
  -6  -5  -3   11.70    0.80
  -6   5  -3   11.50    0.70
  -6   5  -3   11.70    0.80
   6   5   3   11.80    0.80
   6   5   3   10.80    0.90
   6   5   3   12.40    0.80
   7  -5   3    0.00    0.40
  -7  -5  -3    0.20    0.30
  -7   5  -3    0.10    0.30
   7   5   3    0.20    0.30
   7   5   3    0.00    0.40
  -7   5  -3   -0.40    0.20
   8  -5   3   56.19    3.10
   8   5   3   65.59    3.10
 -10  -6   3   37.40    2.00
  10   6  -3   33.80    1.90
  -9  -6   3   48.30    2.50
   9   6  -3   50.29    2.40
  -9   6   3   50.09    2.30
   9   6  -3   47.70    2.40
  -9   6   3   49.30    2.30
   8  -6  -3    0.40    0.30
  -8  -6   3    0.20    0.40
  -8   6   3    0.10    0.30
  -8   6   3    0.50    0.30
   8   6  -3    0.80    0.40
   8   6  -3    0.30    0.30
   7  -6  -3  186.88    8.60
  -7  -6   3  200.48    8.60
   7   6  -3  196.98    8.60
   7   6  -3  214.38    8.60
  -7   6   3  196.28    8.60
  -7   6   3  196.98    8.60
  -6  -6   3   62.59    2.80
   6  -6  -3   58.29    2.70
   6  -6  -3   61.09    2.90
  -6   6   3   56.49    2.70
   6   6  -3   57.59    2.70
   6   6  -3   59.89    2.70
  -6   6   3   57.09    2.70
  -5  -6   3   26.20    1.30
   5  -6  -3   23.10    1.30
  -5   6   3   23.10    1.20
   5   6  -3   25.90    1.20
   5   6  -3   29.20    1.30
  -5   6   3   24.00    1.20
   5   6  -3   27.10    1.30
  -5   6   3   24.80    1.20
  -4  -6   3    6.60    0.50
  -4  -6   3    6.50    0.50
   4  -6  -3    6.50    0.50
   4   6  -3    5.80    0.40
   4   6  -3    6.40    0.50
  -4   6   3    6.10    0.50
   4   6  -3    6.20    0.50
  -4   6   3    6.30    0.40
  -4   6   3    6.20    0.50
  -3  -6   3    5.80    0.50
   3  -6  -3    5.20    0.50
  -3  -6   3    4.60    0.50
  -3   6   3    4.90    0.40
  -3   6   3    4.30    0.40
   3   6  -3    5.80    0.40
   3   6  -3    4.70    0.40
   3   6  -3    3.80    0.40
   3   6  -3    5.30    0.40
  -3   6   3    5.20    0.50
  -2  -6   3   39.30    1.80
   2  -6  -3   41.60    1.80
  -2  -6   3   33.70    1.70
  -2   6   3   39.00    1.70
  -2   6   3   37.40    1.70
   2   6  -3   37.90    1.70
   2   6  -3   32.60    1.70
   2   6  -3   37.50    1.70
  -2   6   3   38.30    1.70
  -2   6   3   38.20    1.70
   1  -6  -3  467.45   19.90
  -1  -6   3  423.46   20.00
  -1  -6   3  474.15   20.00
   1  -6  -3  486.35   20.00
   1   6  -3  491.25   19.90
   1   6  -3  489.35   19.90
  -1   6   3  482.75   20.00
  -1   6   3  458.45   19.90
  -1   6   3  471.95   19.90
  -1   6   3  488.45   19.90
   1   6  -3  438.16   20.00
   0  -6  -3  436.76   17.70
   0  -6   3  431.56   17.70
   0  -6  -3  360.36   17.60
   0  -6   3  438.16   17.70
   0   6  -3  397.16   17.60
   0   6   3  422.66   17.60
   0   6   3  420.36   17.70
   0   6  -3  391.46   17.70
   0   6   3  423.56   17.70
   0   6  -3  420.96   17.60
   0   6   3  432.06   17.70
  -1  -6  -3   63.49    2.70
  -1  -6  -3   59.99    2.70
   1  -6   3   62.69    2.70
   1  -6   3   59.19    2.70
   1  -6   3   63.19    2.70
  -1   6  -3   59.99    2.70
  -1   6  -3   59.29    2.70
   1   6   3   57.09    2.70
  -1   6  -3   57.69    2.70
   1   6   3   62.39    2.70
   1   6   3   58.59    2.70
  -2  -6  -3   42.70    1.90
  -2  -6  -3   36.10    1.90
   2  -6   3   43.10    1.90
   2  -6   3   37.30    1.90
   2  -6   3   44.70    2.00
  -2   6  -3   42.30    1.90
   2   6   3   44.20    2.00
   2   6   3   42.60    1.90
   2   6   3   44.80    1.90
  -2   6  -3   43.70    1.90
  -2   6  -3   44.60    2.00
  -2   6  -3   43.60    1.90
   3  -6   3  137.89    6.30
  -3  -6  -3  150.88    6.20
  -3  -6  -3  143.49    6.20
   3  -6   3  137.59    6.20
  -3   6  -3  147.99    6.20
   3   6   3  139.39    6.20
  -3   6  -3  142.19    6.20
   3   6   3  154.38    6.20
   3   6   3  143.09    6.30
  -3   6  -3  141.69    6.20
  -4  -6  -3   15.20    0.90
   4  -6   3   16.40    0.90
  -4  -6  -3   15.40    0.90
   4  -6   3   17.60    1.00
  -4   6  -3   15.30    0.80
  -4   6  -3   15.90    0.90
   4   6   3   16.40    1.00
  -4   6  -3   16.30    0.90
   4   6   3   16.10    0.90
  -5  -6  -3    0.20    0.20
   5  -6   3   -0.10    0.30
  -5   6  -3    0.30    0.20
   5   6   3    0.90    0.40
  -5   6  -3    0.40    0.20
   5   6   3    0.40    0.30
  -5   6  -3    0.60    0.30
  -6  -6  -3   41.70    1.90
   6  -6   3   37.50    2.00
   6   6   3   40.40    2.00
   6   6   3   36.60    1.90
  -6   6  -3   41.10    2.00
  -6   6  -3   40.70    1.90
  -7  -6  -3   56.29    2.70
   7  -6   3   57.99    2.90
  -7   6  -3   59.19    2.70
   7   6   3   55.89    2.90
  -7   6  -3   60.99    2.80
  -9  -7   3    6.60    0.70
  -9   7   3    6.40    0.60
   9   7  -3    5.20    0.60
   9   7  -3    6.50    0.80
   8  -7  -3  143.99    6.20
  -8  -7   3  128.39    6.20
   8   7  -3  134.59    6.20
  -8   7   3  142.99    6.10
  -8   7   3  138.69    6.10
   8   7  -3  148.39    6.20
  -7  -7   3    0.20    0.40
   7  -7  -3    0.10    0.30
  -7   7   3    0.00    0.30
  -7   7   3    0.00    0.30
   7   7  -3    0.30    0.40
   7   7  -3    0.10    0.30
   6  -7  -3   -0.20    0.30
  -6  -7   3    0.30    0.30
  -6   7   3    0.30    0.30
   6   7  -3    0.00    0.30
   6   7  -3   -0.20    0.30
   6   7  -3   -0.10    0.30
  -6   7   3    0.00    0.20
   5  -7  -3   27.30    1.40
  -5  -7   3   29.70    1.50
   5   7  -3   28.60    1.30
   5   7  -3   27.60    1.40
  -5   7   3   27.00    1.30
  -5   7   3   28.80    1.40
   5   7  -3   26.80    1.40
  -5   7   3   27.90    1.40
   4  -7  -3   14.70    0.90
  -4  -7   3   12.80    0.80
  -4  -7   3   14.10    0.80
  -4   7   3   14.70    0.80
  -4   7   3   13.80    0.70
  -4   7   3   13.70    0.80
   4   7  -3   13.70    0.80
   4   7  -3   13.50    0.80
   4   7  -3   13.60    0.70
  -3  -7   3   77.59    3.50
   3  -7  -3   85.59    3.50
  -3  -7   3   81.19    3.50
   3   7  -3   77.89    3.40
  -3   7   3   79.99    3.40
   3   7  -3   80.89    3.50
  -3   7   3   78.99    3.50
  -3   7   3   73.59    3.40
   3   7  -3   72.89    3.50
  -2  -7   3    0.20    0.20
   2  -7  -3    0.40    0.20
  -2  -7   3    0.40    0.30
  -2   7   3    0.40    0.20
  -2   7   3    0.30    0.20
   2   7  -3    0.20    0.20
   2   7  -3    0.30    0.20
  -2   7   3   -0.10    0.20
   2   7  -3    0.70    0.20
  -1  -7   3    0.00    0.20
   1  -7  -3    0.30    0.20
  -1  -7   3    0.30    0.20
   1  -7  -3    0.10    0.30
   1   7  -3   -0.10    0.20
  -1   7   3    0.20    0.20
   1   7  -3   -0.20    0.20
  -1   7   3    0.10    0.20
  -1   7   3    0.10    0.20
   1   7  -3    0.00    0.20
  -1   7   3    0.60    0.20
   0  -7  -3   61.19    2.90
   0  -7   3   67.59    2.90
   0  -7  -3   64.39    2.80
   0  -7   3   67.39    2.80
   0   7  -3   59.49    2.80
   0   7  -3   65.19    2.80
   0   7  -3   63.09    2.80
   0   7   3   60.89    2.80
   0   7   3   62.19    2.80
   0   7   3   61.29    2.80
   1  -7   3  392.46   15.40
   1  -7   3  334.57   15.40
   1  -7   3  306.07   15.30
  -1  -7  -3  366.76   15.40
  -1  -7  -3  369.36   15.30
   1   7   3  365.36   15.40
   1   7   3  367.06   15.40
   1   7   3  391.86   15.40
  -1   7  -3  369.16   15.30
  -1   7  -3  354.76   15.40
  -1   7  -3  350.86   15.30
   2  -7   3   76.69    3.30
   2  -7   3   73.79    3.40
  -2  -7  -3   72.19    3.40
   2  -7   3   79.99    3.40
  -2  -7  -3   73.09    3.30
  -2   7  -3   78.49    3.40
   2   7   3   74.49    3.40
  -2   7  -3   75.99    3.30
  -2   7  -3   72.69    3.30
   2   7   3   81.19    3.40
   2   7   3   74.69    3.40
  -3  -7  -3  208.28    8.60
  -3  -7  -3  210.78    8.60
   3  -7   3  196.78    8.70
   3  -7   3  199.08    8.60
   3   7   3  202.58    8.60
  -3   7  -3  195.98    8.60
   3   7   3  191.28    8.60
  -3   7  -3  190.18    8.60
   3   7   3  198.58    8.60
  -3   7  -3  201.78    8.60
  -4  -7  -3   17.20    1.00
   4  -7   3   18.30    1.10
  -4  -7  -3   17.80    1.00
   4  -7   3   19.80    1.00
  -4   7  -3   19.40    1.20
   4   7   3   18.50    1.00
   4   7   3   17.40    1.10
  -4   7  -3   18.20    1.00
  -4   7  -3   17.80    1.00
   5  -7   3   55.49    2.90
  -5  -7  -3   63.89    2.80
   5   7   3   63.59    2.80
  -5   7  -3   63.19    2.90
  -5   7  -3   63.29    2.80
   6  -7   3   71.79    3.30
  -6  -7  -3   69.29    3.10
   6   7   3   60.89    3.30
   6   7   3   67.29    3.30
  -6   7  -3   70.39    3.20
   7  -7   3    0.10    0.50
   7   7   3    0.50    0.40
  -9  -8   3   24.00    2.00
   9   8  -3   27.80    1.60
  -8  -8   3   49.80    2.60
   8  -8  -3   49.40    2.50
   8   8  -3   56.09    2.60
  -8   8   3   51.79    2.50
   8   8  -3   53.19    2.50
  -8   8   3   55.19    2.50
  -7  -8   3    2.90    0.50
   7  -8  -3    2.20    0.40
  -7   8   3    2.30    0.40
   7   8  -3    1.90    0.40
   7   8  -3    2.20    0.40
  -7   8   3    1.90    0.40
   6  -8  -3   62.09    3.00
  -6  -8   3   63.29    3.10
   6   8  -3   60.09    3.00
  -6   8   3   68.69    3.00
  -6   8   3   67.69    3.00
   6   8  -3   72.89    3.20
   6   8  -3   69.59    3.10
  -5  -8   3   23.00    1.30
   5  -8  -3   23.60    1.30
  -5   8   3   22.80    1.20
   5   8  -3   23.30    1.30
   5   8  -3   24.20    1.20
  -5   8   3   22.70    1.30
   5   8  -3   25.50    1.30
  -5   8   3   23.80    1.20
  -4  -8   3   12.80    0.80
   4  -8  -3    9.40    0.80
  -4  -8   3   11.70    0.80
  -4   8   3   11.50    0.70
  -4   8   3   10.90    0.70
   4   8  -3   11.00    0.70
  -4   8   3   11.10    0.70
   4   8  -3   11.70    0.70
   4   8  -3   11.70    0.70
   3  -8  -3  443.56   18.60
  -3  -8   3  436.86   18.60
  -3  -8   3  421.66   18.60
   3   8  -3  444.56   18.60
  -3   8   3  459.25   18.60
  -3   8   3  440.36   18.60
  -3   8   3  424.96   18.60
   3   8  -3  436.86   18.60
   3   8  -3  422.96   18.60
  -2  -8   3  113.79    4.40
   2  -8  -3  105.29    4.40
  -2  -8   3   94.69    4.40
  -2   8   3   94.19    4.40
  -2   8   3  111.19    4.40
  -2   8   3   95.39    4.30
   2   8  -3   88.99    4.40
   2   8  -3   94.69    4.30
   2   8  -3   97.49    4.40
  -1  -8   3   22.50    1.10
   1  -8  -3   23.70    1.20
   1  -8  -3   22.80    1.10
  -1  -8   3   20.10    1.10
  -1   8   3   22.50    1.10
  -1   8   3   21.50    1.10
   1   8  -3   20.00    1.10
  -1   8   3   21.30    1.10
   1   8  -3   20.70    1.00
   1   8  -3   20.20    1.10
   0  -8   3  160.48    6.60
   0  -8  -3  154.58    6.50
   0  -8   3  148.29    6.50
   0  -8  -3  152.28    6.60
   0   8  -3  150.28    6.50
   0   8   3  148.39    6.50
   0   8  -3  146.69    6.50
   0   8  -3  149.29    6.50
   0   8   3  149.49    6.50
   0   8   3  149.49    6.50
  -1  -8  -3    8.30    0.60
   1  -8   3    7.70    0.60
  -1  -8  -3    8.00    0.60
   1  -8   3    9.30    0.70
   1   8   3    9.80    0.60
   1   8   3    8.20    0.60
  -1   8  -3    8.60    0.60
  -1   8  -3    9.50    0.60
   1   8   3    9.30    0.60
  -1   8  -3    9.40    0.60
  -2  -8  -3   14.20    0.90
   2  -8   3   14.80    0.90
   2  -8   3   16.30    0.90
   2  -8   3   16.40    1.00
  -2  -8  -3   15.90    0.90
   2   8   3   16.40    0.90
  -2   8  -3   15.70    0.90
  -2   8  -3   16.60    0.90
   2   8   3   16.90    0.90
  -2   8  -3   15.30    0.90
   2   8   3   15.70    0.90
  -3  -8  -3   68.29    3.00
  -3  -8  -3   64.69    2.90
   3  -8   3   67.69    3.00
   3  -8   3   68.89    3.00
   3   8   3   63.39    3.00
   3   8   3   63.79    3.00
  -3   8  -3   63.19    3.00
  -3   8  -3   61.89    2.90
  -3   8  -3   65.79    2.90
  -4  -8  -3   64.29    2.90
   4  -8   3   63.39    3.00
  -4   8  -3   61.49    2.90
   4   8   3   61.79    2.90
   4   8   3   60.99    2.90
  -4   8  -3   62.59    2.80
   5  -8   3   12.80    1.00
  -5   8  -3   12.40    0.80
   5   8   3   12.60    1.00
   5   8   3   14.30    0.90
  -5   8  -3   12.60    0.90
   6  -8   3   79.79    3.70
   6   8   3   78.29    3.70
   8  -9  -3    0.10    0.40
  -8  -9   3   -0.40    0.40
   8   9  -3    0.20    0.40
  -7  -9   3  172.98    7.40
   7  -9  -3  170.48    7.30
  -7   9   3  167.18    7.20
  -7   9   3  156.38    7.20
   7   9  -3  160.38    7.20
   7   9  -3  164.68    7.30
   6  -9  -3   33.70    1.70
  -6  -9   3   33.50    1.80
   6   9  -3   33.20    1.70
  -6   9   3   30.50    1.60
   6   9  -3   33.20    1.70
  -6   9   3   32.10    1.60
   5  -9  -3    3.10    0.50
  -5  -9   3    2.30    0.50
   5   9  -3    3.30    0.40
  -5   9   3    3.40    0.40
   5   9  -3    4.00    0.40
  -5   9   3    2.70    0.40
  -5   9   3    3.20    0.50
   5   9  -3    2.60    0.40
   4  -9  -3   69.89    3.20
  -4  -9   3   72.39    3.30
  -4   9   3   69.49    3.20
   4   9  -3   73.19    3.20
  -4   9   3   69.19    3.10
   4   9  -3   68.39    3.20
   4   9  -3   70.89    3.10
  -4   9   3   70.29    3.20
  -3  -9   3   19.40    1.20
   3  -9  -3   21.60    1.20
  -3  -9   3   20.70    1.10
   3   9  -3   20.10    1.10
   3   9  -3   19.10    1.10
  -3   9   3   19.60    1.10
   3   9  -3   20.10    1.10
  -3   9   3   19.80    1.10
  -3   9   3   21.30    1.10
  -2  -9   3    2.50    0.40
  -2  -9   3    2.50    0.40
   2  -9  -3    3.20    0.40
  -2   9   3    3.30    0.40
   2   9  -3    3.20    0.40
  -2   9   3    2.90    0.40
   2   9  -3    2.60    0.40
   2   9  -3    3.70    0.40
  -2   9   3    4.10    0.40
  -1  -9   3    2.30    0.40
  -1  -9   3    2.60    0.40
   1  -9  -3    2.80    0.40
   1   9  -3    2.70    0.30
   1   9  -3    3.00    0.40
  -1   9   3    2.40    0.30
  -1   9   3    2.80    0.30
   1   9  -3    2.80    0.40
   0  -9   3  105.49    4.80
   0  -9   3  113.99    4.80
   0  -9  -3  113.79    4.90
   0   9   3  107.89    4.80
   0   9   3  104.69    4.80
   0   9  -3  106.89    4.80
   0   9  -3  114.29    4.80
   0   9  -3  114.09    4.80
   0   9   3  104.59    4.80
   1  -9   3   17.50    1.00
   1  -9   3   15.80    1.00
  -1  -9  -3   16.60    1.00
   1   9   3   16.30    1.00
   1   9   3   17.00    1.00
  -1   9  -3   17.20    0.90
   1   9   3   16.30    1.00
  -1   9  -3   17.60    1.00
  -1   9  -3   17.30    0.90
   2  -9   3   -0.10    0.30
  -2  -9  -3   -0.10    0.30
  -2   9  -3    0.40    0.30
   2   9   3    0.20    0.30
  -2   9  -3    0.30    0.30
   2   9   3    0.40    0.30
  -2   9  -3    0.40    0.20
   3  -9   3   17.10    1.10
  -3  -9  -3   17.60    1.10
   3   9   3   17.50    1.10
  -3   9  -3   18.00    1.00
   3   9   3   16.50    1.00
  -3   9  -3   16.40    1.00
  -4  -9  -3    4.10    0.50
   4  -9   3    4.00    0.60
  -4   9  -3    4.50    0.40
   4   9   3    4.10    0.50
   4   9   3    4.20    0.50
  -4   9  -3    4.00    0.50
   5  -9   3    6.70    0.70
  -5   9  -3    4.50    0.60
   5   9   3    5.80    0.60
   5   9   3    4.50    0.50
   6  -9   3   61.09    3.00
  -7 -10   3   57.79    3.20
   7 -10  -3   57.49    2.80
   6 -10  -3  118.99    5.20
  -6 -10   3  109.09    5.30
   6  10  -3  117.39    5.20
   6  10  -3  117.99    5.20
  -5 -10   3    0.80    0.40
   5 -10  -3    0.70    0.40
   5  10  -3    0.70    0.30
   5  10  -3    0.70    0.30
   5  10  -3    0.40    0.40
  -5  10   3    0.70    0.40
   4 -10  -3   30.50    1.60
  -4 -10   3   29.10    1.60
  -4  10   3   29.00    1.50
   4  10  -3   29.90    1.50
  -4  10   3   27.30    1.40
   4  10  -3   29.80    1.60
   4  10  -3   28.50    1.50
  -3 -10   3  172.58    8.40
   3 -10  -3  201.48    8.50
  -3 -10   3  189.18    8.50
   3  10  -3  198.58    8.40
  -3  10   3  196.48    8.50
  -3  10   3  195.38    8.40
   3  10  -3  207.18    8.50
   3  10  -3  199.98    8.50
  -2 -10   3    6.20    0.70
  -2 -10   3    6.10    0.70
   2 -10  -3    6.80    0.70
  -2  10   3    5.90    0.60
   2  10  -3    5.90    0.60
  -2  10   3    6.10    0.60
   2  10  -3    6.20    0.60
   2  10  -3    6.80    0.70
  -1 -10   3    0.40    0.30
   1 -10  -3    0.00    0.30
  -1 -10   3    0.30    0.30
   1  10  -3   -0.10    0.30
   1  10  -3    0.10    0.30
  -1  10   3    0.40    0.30
  -1  10   3    0.30    0.30
   0 -10   3   28.10    1.50
   0 -10  -3   28.50    1.50
   0 -10   3   28.80    1.50
   0  10  -3   27.40    1.40
   0  10  -3   28.00    1.40
   0  10   3   29.00    1.50
   0  10   3   28.80    1.40
   0  10  -3   26.80    1.40
   1 -10   3    6.50    0.60
  -1 -10  -3    5.60    0.60
   1 -10   3    5.30    0.60
  -1  10  -3    6.00    0.60
   1  10   3    7.00    0.60
  -1  10  -3    6.70    0.60
   1  10   3    6.50    0.70
   1  10   3    7.30    0.60
  -1  10  -3    6.20    0.60
  -2 -10  -3   25.10    1.40
   2 -10   3   25.00    1.40
   2  10   3   25.60    1.40
   2  10   3   23.00    1.30
  -2  10  -3   25.80    1.30
  -2  10  -3   25.10    1.30
  -3 -10  -3    4.40    0.50
   3 -10   3    3.20    0.50
   3  10   3    3.90    0.50
  -3  10  -3    3.90    0.50
  -3  10  -3    3.60    0.40
   3  10   3    3.50    0.50
   4 -10   3   -0.20    0.40
  -4 -10  -3    0.70    0.40
   4  10   3    0.20    0.40
   4  10   3    0.10    0.30
  -4  10  -3    0.30    0.30
   5 -10   3   11.30    1.00
   5  10   3   11.70    0.90
   6 -11  -3   11.00    1.00
  -5 -11   3  237.88   10.30
   5 -11  -3  244.48   10.30
   5  11  -3  224.78   10.10
  -4 -11   3    2.50    0.50
   4 -11  -3    4.10    0.60
   4  11  -3    3.00    0.50
   4  11  -3    2.90    0.40
  -4  11   3    3.70    0.50
  -4  11   3    4.20    0.40
  -3 -11   3   17.30    1.10
   3 -11  -3   17.60    1.20
  -3  11   3   16.20    1.00
   3  11  -3   16.40    1.00
  -3  11   3   15.40    1.00
   3  11  -3   16.60    1.10
  -2 -11   3  263.57   11.50
   2 -11  -3  269.87   11.50
   2  11  -3  272.27   11.50
  -2  11   3  260.97   11.50
   2  11  -3  264.37   11.40
  -2  11   3  263.27   11.40
  -1 -11   3   27.50    1.50
   1 -11  -3   27.60    1.60
   1  11  -3   26.20    1.40
  -1  11   3   27.10    1.40
  -1  11   3   27.10    1.40
   1  11  -3   27.00    1.40
   0 -11  -3   81.39    3.80
   0 -11   3   82.99    3.80
   0  11  -3   77.79    3.70
   0  11  -3   84.39    3.70
   0  11   3   82.89    3.70
   0  11   3   86.69    3.70
   1 -11   3   37.10    2.00
  -1 -11  -3   41.60    2.10
  -1  11  -3   43.30    2.00
   1  11   3   42.90    2.00
  -1  11  -3   38.50    2.00
  -2 -11  -3  162.08    7.30
  -2  11  -3  160.38    7.20
   2  11   3  176.28    7.60
   2  11   3  164.08    7.20
  -2  11  -3  161.58    7.20
  -3 -11  -3  186.68    7.80
   3  11   3  174.48    7.70
  -3  11  -3  166.88    7.60
   3  11   3  173.28    7.70
  -4 -11  -3    2.90    0.70
   4  11   3    2.80    0.60
  -4  11  -3    3.70    0.50
   4  12  -3    3.20    0.40
   4  12  -3    2.80    0.60
  -4  12   3    3.40    0.40
   3 -12  -3    0.70    0.50
  -3 -12   3    1.00    0.50
   3  12  -3    0.80    0.40
  -3  12   3    1.10    0.30
   3  12  -3    1.00    0.30
   2 -12  -3    1.40    0.50
  -2 -12   3    1.60    0.50
  -2  12   3    1.70    0.40
  -2  12   3    1.50    0.50
   2  12  -3    2.00    0.40
   2  12  -3    2.00    0.40
  -1 -12   3   60.99    3.00
   1 -12  -3   65.49    3.10
   1  12  -3   61.39    2.90
   1  12  -3   65.39    3.00
  -1  12   3   63.39    3.00
  -1  12   3   61.49    2.90
   0 -12   3   91.09    4.40
   0 -12  -3  101.39    4.50
   0  12  -3   96.29    4.30
   0  12   3   98.09    4.40
  -1 -12  -3    3.20    0.60
   1  12   3    3.90    0.70
  -1  12  -3    3.00    0.50
  11   0  -4   23.40    1.40
 -11   0   4   24.80    1.50
  10   0  -4   31.90    1.70
 -10   0   4   33.80    1.70
  10   0  -4   32.90    1.70
 -10   0   4   34.40    1.80
  -9   0   4  453.35   18.90
   9   0  -4  470.05   19.00
  -9   0   4  393.36   19.00
   9   0  -4  463.25   19.00
   8   0  -4    6.50    0.60
  -8   0   4    6.20    0.60
  -8   0   4    6.20    0.50
   7   0  -4    7.20    0.50
   7   0  -4    6.40    0.40
  -7   0   4    6.60    0.60
  -7   0   4    6.10    0.50
   6   0  -4  300.97   12.30
  -6   0   4  293.27   12.30
  -6   0   4  293.87   12.30
   6   0  -4  275.37   12.30
  -6   0   4  281.97   12.40
  -5   0   4   41.70    1.90
  -5   0   4   40.70    1.80
   5   0  -4   39.90    1.80
   5   0  -4   40.90    1.90
  -5   0   4   40.50    1.80
  -4   0   4  335.77   14.20
  -4   0   4  347.77   14.20
   4   0  -4  329.27   14.20
  -4   0   4  329.87   14.20
   4   0  -4  320.67   14.20
   4   0  -4  348.87   14.20
  -3   0   4  257.17   10.90
   3   0  -4  256.97   10.80
  -3   0   4  257.87   10.90
  -3   0   4  232.48   10.90
   3   0  -4  270.47   10.90
  -3   0   4  252.67   10.90
  -3   0   4  263.17   10.80
  -2   0   4 1021.70   46.20
  -2   0   4 1023.60   44.50
  -2   0   4 1081.09   44.40
  -2   0   4 1050.19   44.40
  -2   0   4 1066.39   44.60
  -2   0   4 1042.50   46.40
  -1   0   4   69.29    3.00
   1   0  -4   72.89    3.00
  -1   0   4   66.69    3.00
  -1   0   4   68.89    3.00
   1   0  -4   66.99    3.00
  -1   0   4   67.49    3.00
   1   0  -4   72.39    3.00
  -1   0   4   72.49    3.00
  -1   0   4   67.19    3.00
   0   0   4   19.40    0.90
   0   0   4   18.80    0.90
   0   0  -4   19.30    0.90
   0   0   4   19.90    0.90
   0   0   4   18.80    0.90
   0   0  -4   19.80    0.90
   0   0  -4   19.80    0.90
  -1   0  -4  206.68    9.30
   1   0   4  220.58    9.30
   1   0   4  221.88    9.30
   1   0   4  213.98    9.30
  -1   0  -4  220.98    9.30
   1   0   4  225.88    9.30
  -2   0  -4    1.70    0.20
   2   0   4    2.00    0.20
  -2   0  -4    1.30    0.20
   2   0   4    1.80    0.20
   2   0   4    1.80    0.30
   3   0   4  586.74   25.00
  -3   0  -4  608.84   25.00
   3   0   4  576.54   25.00
  -3   0  -4  605.74   24.90
   3   0   4  566.64   25.00
   4   0   4 1052.09   45.80
   4   0   4 1089.39   45.90
  -4   0  -4 1043.00   45.90
  -4   0  -4 1108.99   45.90
   4   0   4 1126.79   45.90
  -5   0  -4   95.19    4.20
   5   0   4   95.09    4.30
   5   0   4   98.09    4.20
   5   0   4   92.19    4.20
  -5   0  -4   96.49    4.20
   6   0   4   14.30    1.00
  -6   0  -4   14.70    0.90
  -6   0  -4   14.30    0.80
   6   0   4   14.60    1.00
   7   0   4  250.57   11.50
  -7   0  -4  265.87   11.50
  -7   0  -4  275.37   11.50
   7   0   4  275.67   11.60
   8   0   4  227.98   10.10
   8   0   4  233.18   10.10
  11  -1  -4    1.40    0.40
 -11  -1   4    0.40    0.50
  11   1  -4    1.10    0.50
  11   1  -4    1.20    0.40
  10  -1  -4   54.39    2.90
  10  -1  -4   62.89    3.00
 -10  -1   4   67.59    3.00
 -10  -1   4   63.49    2.90
  10   1  -4   63.79    3.00
  10   1  -4   62.79    3.00
 -10   1   4   67.69    3.00
  -9  -1   4    0.50    0.40
   9  -1  -4    0.60    0.40
  -9  -1   4    0.40    0.20
   9  -1  -4    0.80    0.30
  -9   1   4    0.90    0.30
   9   1  -4    0.90    0.30
  -9   1   4    0.20    0.30
  -8  -1   4    8.20    0.70
  -8  -1   4    8.10    0.60
   8  -1  -4    9.10    0.70
   8  -1  -4    8.80    0.70
  -8   1   4    8.80    0.60
   8   1  -4    9.10    0.60
  -8   1   4    9.10    0.70
   8   1  -4    9.10    0.70
  -7  -1   4  215.98    9.10
   7  -1  -4  212.88    9.20
  -7  -1   4  218.88    9.20
   7  -1  -4  207.68    9.20
  -7   1   4  221.98    9.10
   7   1  -4  217.68    9.10
  -7   1   4  216.68    9.10
   7   1  -4  195.98    9.20
   6  -1  -4  408.06   16.80
   6  -1  -4  378.66   16.90
  -6  -1   4  404.96   16.90
  -6  -1   4  396.96   17.00
   6  -1  -4  405.96   16.90
  -6   1   4  421.76   16.90
   6   1  -4  381.86   16.90
  -6   1   4  394.96   16.90
  -6   1   4  380.36   17.00
   6   1  -4  404.36   16.90
  -5  -1   4  197.38    8.50
   5  -1  -4  203.88    8.40
   5  -1  -4  204.18    8.30
  -5  -1   4  200.88    8.40
   5  -1  -4  201.38    8.40
   5  -1  -4  181.08    8.40
  -5  -1   4  200.78    8.40
   5   1  -4  177.28    8.40
   5   1  -4  201.18    8.30
  -5   1   4  183.78    8.50
  -5   1   4  196.08    8.40
   5   1  -4  206.78    8.40
  -5   1   4  207.08    8.40
   4  -1  -4   20.40    1.00
  -4  -1   4   19.10    0.90
   4  -1  -4   19.80    0.90
   4  -1  -4   21.20    0.90
  -4  -1   4   17.90    0.90
  -4  -1   4   19.50    1.00
  -4   1   4   20.20    1.00
  -4   1   4   19.60    0.90
   4   1  -4   21.40    0.90
  -4   1   4   18.30    0.90
   4   1  -4   20.10    0.90
  -4   1   4   18.90    0.90
   4   1  -4   18.90    0.90
   3  -1  -4  113.29    4.70
   3  -1  -4  115.39    4.70
   3  -1  -4   94.39    4.70
  -3  -1   4   95.19    4.70
  -3  -1   4  108.39    4.70
  -3  -1   4  108.99    4.70
  -3  -1   4  113.39    4.70
  -3  -1   4  109.69    4.70
  -3  -1   4  102.39    4.70
  -3   1   4  114.69    4.70
   3   1  -4  112.09    4.70
  -3   1   4   98.79    4.70
   3   1  -4  112.69    4.70
   3   1  -4  117.59    4.70
  -3   1   4  111.29    4.70
  -3   1   4  112.39    4.70
  -3   1   4  116.69    4.70
  -2  -1   4  396.06   16.50
  -2  -1   4  393.26   16.50
   2  -1  -4  398.56   16.50
  -2  -1   4  412.86   16.50
  -2  -1   4  387.36   16.50
  -2  -1   4  399.46   16.50
   2  -1  -4  377.16   16.50
  -2  -1   4  367.06   16.50
  -2   1   4  393.76   16.50
  -2   1   4  382.46   16.50
   2   1  -4  356.66   16.50
  -2   1   4  402.36   16.50
   2   1  -4  371.76   16.50
  -2   1   4  411.76   16.50
  -2   1   4  396.06   16.50
  -2   1   4  378.56   16.50
  -1  -1   4  112.79    4.80
  -1  -1   4  112.89    4.80
  -1  -1   4  110.39    4.80
  -1  -1   4  112.89    4.80
  -1  -1   4  110.49    4.80
   1  -1  -4  115.09    4.80
  -1  -1   4  110.09    4.80
   1  -1  -4  110.99    4.80
   1   1  -4  116.79    4.80
  -1   1   4  105.89    4.80
   1   1  -4  102.99    4.70
  -1   1   4  112.79    4.80
  -1   1   4  109.59    4.80
  -1   1   4  111.49    4.80
  -1   1   4  111.29    4.80
   0  -1  -4   11.70    0.60
   0  -1   4   11.80    0.60
   0  -1   4   11.20    0.60
   0  -1  -4   11.60    0.60
   0  -1   4   11.80    0.60
   0  -1   4   12.20    0.50
   0  -1   4   11.40    0.60
   0   1   4   10.70    0.60
   0   1   4   11.00    0.60
   0   1   4   11.20    0.60
   0   1  -4   11.20    0.60
   0   1  -4   11.50    0.60
   0   1   4   11.10    0.60
  -1  -1  -4   37.60    1.50
   1  -1   4   34.70    1.60
  -1  -1  -4   34.10    1.60
   1  -1   4   34.20    1.60
   1  -1   4   36.10    1.60
  -1  -1  -4   34.60    1.60
   1   1   4   35.90    1.60
  -1   1  -4   34.10    1.60
   1   1   4   36.40    1.60
  -1   1  -4   34.00    1.60
   1   1   4   33.30    1.60
  -2  -1  -4   97.69    4.00
   2  -1   4   91.69    4.00
   2  -1   4   96.29    4.10
   2  -1   4   95.89    4.00
  -2  -1  -4   87.89    4.00
  -2  -1  -4   94.09    3.90
   2   1   4   91.19    4.00
   2   1   4   91.59    4.10
  -2   1  -4   89.99    4.00
   2   1   4   92.19    4.00
   2   1   4   89.19    4.00
  -2   1  -4   91.49    4.00
   3  -1   4   13.70    0.80
   3  -1   4   14.10    0.70
  -3  -1  -4   14.10    0.70
   3  -1   4   13.40    0.80
  -3  -1  -4   14.50    0.70
   3   1   4   13.40    0.80
  -3   1  -4   13.40    0.70
   3   1   4   13.00    0.70
   3   1   4   13.00    0.80
  -3   1  -4   12.50    0.70
  -4  -1  -4   33.10    1.40
   4  -1   4   29.90    1.50
   4  -1   4   27.60    1.50
   4  -1   4   32.80    1.40
  -4  -1  -4   30.60    1.40
   4   1   4   29.90    1.40
  -4   1  -4   30.20    1.40
  -4   1  -4   30.90    1.40
   4   1   4   31.30    1.60
  -4   1  -4   29.00    1.40
   4   1   4   29.60    1.50
  -5  -1  -4  359.46   14.50
   5  -1   4  319.97   14.60
   5  -1   4  347.97   14.60
   5  -1   4  318.37   14.50
  -5  -1  -4  344.47   14.50
   5   1   4  352.56   14.60
   5   1   4  343.27   14.60
  -5   1  -4  344.37   14.50
  -5   1  -4  330.77   14.50
  -5   1  -4  354.36   14.50
   5   1   4  336.67   14.50
   6  -1   4   30.90    1.70
  -6  -1  -4   31.20    1.50
  -6  -1  -4   31.90    1.50
   6  -1   4   32.30    1.70
   6   1   4   31.50    1.70
  -6   1  -4   31.20    1.50
   6   1   4   30.40    1.60
  -6   1  -4   31.70    1.50
  -7  -1  -4    0.90    0.30
   7  -1   4    0.70    0.40
   7  -1   4    0.40    0.40
  -7   1  -4    0.90    0.30
   7   1   4    1.00    0.40
  -7   1  -4    0.80    0.30
   7   1   4    1.50    0.40
   8  -1   4   68.29    3.30
   8  -1   4   66.99    3.30
   8   1   4   66.19    3.30
   8   1   4   73.19    3.30
 -11  -2   4   85.79    3.80
  11  -2  -4   74.89    3.70
  11   2  -4   77.59    3.70
 -10  -2   4  161.08    7.10
 -10  -2   4  165.98    7.30
  10  -2  -4  158.48    7.20
  10  -2  -4  164.68    7.20
  10   2  -4  163.08    7.20
 -10   2   4  164.48    7.20
 -10   2   4  171.18    7.30
   9  -2  -4   31.40    1.50
  -9  -2   4   28.20    1.40
  -9  -2   4   28.00    1.60
   9  -2  -4   27.50    1.50
   9   2  -4   29.10    1.50
  -9   2   4   29.90    1.60
  -9   2   4   28.30    1.40
   8  -2  -4    6.60    0.60
   8  -2  -4    6.90    0.60
  -8  -2   4    6.30    0.70
  -8  -2   4    6.00    0.50
   8   2  -4    5.50    0.60
  -8   2   4    6.30    0.50
   8   2  -4    7.20    0.50
  -8   2   4    6.40    0.70
  -7  -2   4  119.09    5.30
   7  -2  -4  118.19    5.40
  -7  -2   4  131.19    5.50
   7  -2  -4  119.79    5.40
  -7   2   4  120.69    5.40
  -7   2   4  127.99    5.40
   7   2  -4  119.99    5.40
  -7   2   4  130.49    5.30
   7   2  -4  125.89    5.40
  -6  -2   4    6.50    0.40
   6  -2  -4    6.40    0.50
  -6  -2   4    7.10    0.60
   6  -2  -4    6.80    0.50
  -6   2   4    6.80    0.50
   6   2  -4    7.00    0.50
   6   2  -4    7.10    0.50
  -6   2   4    6.00    0.50
  -6   2   4    6.40    0.40
   5  -2  -4  173.58    7.40
  -5  -2   4  170.38    7.50
   5  -2  -4  197.08    7.50
  -5  -2   4  174.98    7.40
  -5   2   4  170.58    7.50
   5   2  -4  178.78    7.40
  -5   2   4  171.38    7.50
   5   2  -4  165.38    7.50
  -5   2   4  172.48    7.40
   5   2  -4  162.68    7.50
   5   2  -4  186.88    7.40
  -5   2   4  167.78    7.40
  -4  -2   4   85.79    3.80
  -4  -2   4   86.39    3.70
   4  -2  -4   82.19    3.70
  -4  -2   4   85.09    3.80
  -4  -2   4   84.59    3.70
   4  -2  -4   89.29    3.70
   4  -2  -4   88.79    3.80
   4   2  -4   93.59    3.80
  -4   2   4   89.69    3.80
   4   2  -4   86.79    3.80
  -4   2   4   85.69    3.80
   4   2  -4   87.39    3.70
   4   2  -4   89.89    3.70
  -4   2   4   83.89    3.80
  -4   2   4   90.29    3.70
   3  -2  -4   87.19    4.00
   3  -2  -4   92.79    3.90
  -3  -2   4   90.79    3.90
  -3  -2   4  105.19    4.00
  -3  -2   4   91.19    3.90
  -3  -2   4   94.29    4.00
  -3  -2   4   97.79    4.00
  -3   2   4   90.39    4.00
   3   2  -4   98.79    3.90
  -3   2   4   89.99    4.00
   3   2  -4   89.69    4.00
  -3   2   4   86.39    3.90
  -3   2   4   88.89    3.90
   3   2  -4   87.49    4.00
   3   2  -4   92.79    3.90
  -3   2   4   85.19    4.00
  -2  -2   4  326.97   13.80
  -2  -2   4  312.67   13.80
   2  -2  -4  340.87   13.80
  -2  -2   4  325.57   13.80
  -2  -2   4  315.77   13.80
  -2  -2   4  299.37   13.80
  -2   2   4  332.27   13.80
  -2   2   4  342.47   13.80
  -2   2   4  341.87   13.80
   2   2  -4  322.37   13.80
   2   2  -4  323.37   13.80
  -2   2   4  313.77   13.80
  -2   2   4  323.27   13.80
   2   2  -4  329.87   13.80
   1  -2  -4  424.46   16.80
  -1  -2   4  432.76   16.80
   1  -2  -4  402.66   16.80
  -1  -2   4  393.66   16.90
  -1  -2   4  376.36   16.90
  -1  -2   4  398.16   16.80
  -1   2   4  379.26   16.80
   1   2  -4  394.66   16.80
  -1   2   4  378.86   16.90
  -1   2   4  394.46   16.80
  -1   2   4  400.16   16.80
  -1   2   4  406.56   16.80
   1   2  -4  387.06   16.80
   1   2  -4  395.06   16.80
   0  -2   4  547.25   24.50
   0  -2   4  611.14   24.50
   0  -2  -4  569.74   24.50
   0  -2  -4  590.04   24.50
   0  -2   4  571.64   24.50
   0  -2   4  565.84   24.50
   0   2  -4  574.64   24.50
   0   2  -4  570.14   24.50
   0   2   4  583.84   24.50
   0   2   4  582.34   24.50
   0   2  -4  578.54   24.50
   0   2   4  589.44   24.50
   0   2   4  589.04   24.50
  -1  -2  -4  698.43   29.50
   1  -2   4  714.23   29.40
  -1  -2  -4  692.53   29.50
   1  -2   4  703.13   29.50
  -1  -2  -4  722.53   29.50
   1  -2   4  673.43   29.50
   1  -2   4  732.33   29.50
   1   2   4  693.33   29.50
   1   2   4  700.53   29.50
   1   2   4  707.13   29.40
  -1   2  -4  688.93   29.40
  -1   2  -4  622.64   29.40
  -1   2  -4  697.93   29.50
   1   2   4  699.43   29.50
   2  -2   4   65.89    2.80
  -2  -2  -4   60.39    2.70
   2  -2   4   64.09    2.70
  -2  -2  -4   65.29    2.70
  -2  -2  -4   56.49    2.70
   2  -2   4   62.79    2.80
   2   2   4   59.69    2.80
   2   2   4   63.49    2.80
  -2   2  -4   58.29    2.70
  -2   2  -4   64.69    2.70
  -2   2  -4   64.69    2.80
   2   2   4   64.99    2.80
   2   2   4   62.99    2.80
  -3  -2  -4    1.50    0.20
   3  -2   4    1.30    0.30
  -3  -2  -4    1.70    0.20
   3  -2   4    1.40    0.20
   3  -2   4    1.70    0.30
   3   2   4    1.40    0.20
   3   2   4    1.30    0.20
  -3   2  -4    1.30    0.20
   3   2   4    1.50    0.20
   3   2   4    1.40    0.30
  -3   2  -4    1.50    0.20
  -3   2  -4    1.30    0.20
   4  -2   4   60.59    2.70
   4  -2   4   60.59    2.70
  -4  -2  -4   58.19    2.60
   4  -2   4   53.39    2.60
  -4  -2  -4   57.59    2.60
   4   2   4   58.29    2.70
  -4   2  -4   59.59    2.60
  -4   2  -4   57.39    2.60
   4   2   4   66.09    2.70
  -4   2  -4   57.79    2.60
   4   2   4   55.99    2.60
  -5  -2  -4   49.00    2.40
   5  -2   4   54.89    2.40
  -5  -2  -4   53.39    2.40
   5  -2   4   50.39    2.40
   5  -2   4   55.79    2.50
  -5   2  -4   54.69    2.30
  -5   2  -4   49.70    2.40
   5   2   4   49.50    2.50
  -5   2  -4   53.19    2.40
   5   2   4   51.99    2.40
   5   2   4   50.49    2.40
   6  -2   4   12.10    0.90
  -6  -2  -4   13.80    0.80
   6  -2   4   13.20    0.90
  -6  -2  -4   11.80    0.80
  -6   2  -4   11.80    0.80
  -6   2  -4   12.10    0.80
   6   2   4   12.00    0.90
   6   2   4   11.40    0.90
   7  -2   4    1.00    0.40
  -7  -2  -4    1.10    0.30
   7  -2   4    0.60    0.40
   7   2   4    1.40    0.40
  -7   2  -4    0.80    0.30
   7   2   4    1.00    0.40
  -7   2  -4    0.90    0.30
   8  -2   4    2.40    0.50
   8   2   4    2.60    0.50
   8   2   4    3.30    0.60
  11  -3  -4    9.90    0.90
 -11  -3   4    8.00    1.00
  10  -3  -4    4.70    0.50
  10  -3  -4    4.40    0.60
 -10  -3   4    3.60    0.60
 -10  -3   4    4.00    0.40
  10   3  -4    4.50    0.60
 -10   3   4    3.20    0.40
  -9  -3   4    9.40    0.90
  -9  -3   4    9.80    0.70
   9  -3  -4   10.60    0.80
   9  -3  -4   10.40    0.80
  -9   3   4   10.50    0.80
   9   3  -4   11.30    0.80
   9   3  -4   10.50    0.80
  -8  -3   4   23.60    1.30
  -8  -3   4   25.00    1.20
   8  -3  -4   23.50    1.30
   8  -3  -4   24.60    1.30
  -8   3   4   23.20    1.40
  -8   3   4   25.40    1.30
  -8   3   4   22.90    1.20
   8   3  -4   27.20    1.30
   8   3  -4   26.50    1.30
   7  -3  -4  180.88    8.70
  -7  -3   4  209.58    8.80
   7  -3  -4  211.58    8.70
  -7  -3   4  193.08    8.60
   7   3  -4  200.78    8.70
  -7   3   4  204.48    8.70
   7   3  -4  215.08    8.70
  -7   3   4  200.68    8.80
  -7   3   4  205.28    8.70
   6  -3  -4   73.39    3.20
  -6  -3   4   80.39    3.20
   6  -3  -4   77.59    3.30
  -6  -3   4   67.29    3.30
   6   3  -4   75.79    3.30
  -6   3   4   71.09    3.30
   6   3  -4   63.49    3.30
  -6   3   4   77.89    3.30
  -6   3   4   76.49    3.20
  -5  -3   4  105.89    4.90
   5  -3  -4  104.69    4.90
   5  -3  -4  107.29    4.80
  -5  -3   4  112.59    4.80
  -5   3   4  111.29    4.90
  -5   3   4  113.39    4.90
  -5   3   4  121.89    4.90
  -5   3   4  113.79    4.80
   5   3  -4  119.99    4.80
   5   3  -4  115.79    4.90
   4  -3  -4  319.47   12.90
  -4  -3   4  293.07   13.00
  -4  -3   4  317.87   13.00
   4  -3  -4  312.47   13.00
  -4  -3   4  309.07   12.90
   4   3  -4  288.47   13.00
   4   3  -4  311.07   12.90
  -4   3   4  316.87   13.00
  -4   3   4  289.47   12.90
  -4   3   4  291.17   13.00
   4   3  -4  312.47   13.00
   4   3  -4  296.27   12.90
   3  -3  -4  550.54   21.60
  -3  -3   4  537.15   21.50
  -3  -3   4  506.65   21.60
  -3  -3   4  494.55   21.60
   3  -3  -4  516.75   21.60
   3   3  -4  457.25   21.50
  -3   3   4  526.65   21.50
   3   3  -4  514.35   21.50
  -3   3   4  518.15   21.50
  -3   3   4  503.75   21.50
   3   3  -4  539.65   21.50
  -3   3   4  443.16   21.50
   3   3  -4  501.25   21.50
  -2  -3   4  170.48    7.20
   2  -3  -4  174.08    7.20
  -2  -3   4  165.28    7.20
  -2  -3   4  168.08    7.10
   2  -3  -4  178.98    7.10
  -2  -3   4  172.38    7.20
   2   3  -4  175.98    7.10
  -2   3   4  169.98    7.20
  -2   3   4  157.68    7.20
   2   3  -4  162.88    7.20
   2   3  -4  167.28    7.20
   2   3  -4  158.78    7.20
  -2   3   4  170.08    7.20
  -1  -3   4  384.96   16.00
  -1  -3   4  380.86   16.00
  -1  -3   4  402.46   16.00
   1  -3  -4  320.47   16.00
   1  -3  -4  382.86   16.00
  -1   3   4  396.66   16.00
  -1   3   4  377.96   16.00
  -1   3   4  369.36   16.00
   1   3  -4  364.66   15.90
   1   3  -4  401.56   16.00
   1   3  -4  369.26   16.00
   0  -3   4    0.30    0.10
   0  -3   4    0.10    0.20
   0  -3   4    0.30    0.20
   0  -3   4    0.50    0.10
   0  -3  -4    0.00    0.10
   0  -3  -4    0.40    0.20
   0   3  -4    0.20    0.10
   0   3  -4    0.50    0.20
   0   3   4    0.50    0.20
   0   3   4   -0.10    0.20
   0   3   4    0.10    0.10
   0   3  -4    0.20    0.10
   0   3   4   -0.10    0.10
   1  -3   4  576.74   24.60
  -1  -3  -4  579.54   24.50
  -1  -3  -4  578.84   24.50
   1  -3   4  595.64   24.60
   1  -3   4  560.44   24.50
   1  -3   4  588.74   24.50
   1   3   4  572.54   24.50
   1   3   4  571.94   24.60
   1   3   4  587.24   24.60
  -1   3  -4  581.04   24.50
  -1   3  -4  562.34   24.50
  -1   3  -4  592.94   24.60
   1   3   4  589.24   24.60
  -2  -3  -4   88.89    3.80
   2  -3   4   79.79    3.90
   2  -3   4   86.19    3.90
  -2  -3  -4   92.09    3.80
  -2  -3  -4   86.29    3.80
   2  -3   4   91.99    3.80
   2   3   4   85.79    3.80
  -2   3  -4   88.09    3.80
  -2   3  -4   94.29    3.80
   2   3   4   80.89    3.80
  -2   3  -4   88.59    3.80
   2   3   4   86.09    3.90
   2   3   4   89.69    3.80
   3  -3   4  334.17   13.30
  -3  -3  -4  320.57   13.20
   3  -3   4  309.37   13.20
  -3  -3  -4  338.77   13.20
   3  -3   4  271.47   13.20
  -3  -3  -4  305.67   13.20
  -3   3  -4  306.07   13.20
   3   3   4  301.77   13.20
   3   3   4  321.17   13.30
   3   3   4  308.07   13.20
  -3   3  -4  312.87   13.20
  -3   3  -4  286.67   13.20
   3   3   4  308.87   13.20
   4  -3   4  524.35   22.70
   4  -3   4  570.54   22.80
  -4  -3  -4  523.55   22.70
  -4  -3  -4  534.05   22.70
   4  -3   4  517.25   22.80
   4   3   4  533.35   22.70
   4   3   4  511.15   22.70
  -4   3  -4  534.15   22.70
   4   3   4  567.54   22.80
  -4   3  -4  534.15   22.70
  -4   3  -4  535.05   22.70
   5  -3   4    3.90    0.40
  -5  -3  -4    4.60    0.50
  -5  -3  -4    3.30    0.40
   5  -3   4    5.10    0.60
   5  -3   4    4.30    0.50
  -5   3  -4    4.00    0.40
   5   3   4    3.90    0.50
   5   3   4    4.60    0.50
   5   3   4    3.60    0.40
  -5   3  -4    5.00    0.40
  -5   3  -4    3.60    0.40
   6  -3   4    4.90    0.60
   6  -3   4    5.70    0.60
  -6  -3  -4    4.60    0.40
   6   3   4    5.40    0.60
  -6   3  -4    4.00    0.40
   6   3   4    5.00    0.60
   6   3   4    4.70    0.60
  -6   3  -4    4.80    0.50
   7  -3   4    2.00    0.50
   7  -3   4    1.00    0.50
  -7  -3  -4    1.10    0.30
   7   3   4    1.10    0.50
  -7   3  -4    1.00    0.30
  -7   3  -4    0.90    0.30
   7   3   4    1.40    0.40
   8   3   4   15.30    1.20
   8   3   4   13.80    1.10
 -11  -4   4  307.77   14.00
  11  -4  -4  338.67   14.00
  10  -4  -4    0.80    0.40
 -10  -4   4    1.10    0.50
  10  -4  -4    0.60    0.40
  10   4  -4    1.70    0.40
  10   4  -4    1.20    0.40
 -10   4   4    0.50    0.40
  -9  -4   4   26.10    1.60
   9  -4  -4   29.00    1.50
   9  -4  -4   31.10    1.60
  -9   4   4   29.10    1.50
   9   4  -4   31.30    1.50
   9   4  -4   29.20    1.60
  -8  -4   4  151.58    6.30
   8  -4  -4  157.08    6.20
  -8  -4   4  139.29    6.20
   8  -4  -4  119.19    6.20
   8   4  -4  138.89    6.20
  -8   4   4  139.99    6.10
  -8   4   4  140.89    6.20
   8   4  -4  144.89    6.20
  -7  -4   4   13.40    0.90
   7  -4  -4   13.20    0.90
  -7  -4   4   14.70    0.70
   7  -4  -4   14.40    0.80
   7   4  -4   12.80    0.80
   7   4  -4   12.70    0.80
  -7   4   4   13.60    0.80
  -7   4   4   13.60    0.80
  -6  -4   4  134.39    5.60
   6  -4  -4  139.99    5.60
   6  -4  -4  119.19    5.50
  -6  -4   4  129.89    5.50
   6   4  -4  114.69    5.50
  -6   4   4  129.49    5.50
  -6   4   4  128.79    5.50
   6   4  -4  126.19    5.60
  -5  -4   4   17.80    0.80
  -5  -4   4   17.10    0.90
   5  -4  -4   18.40    1.00
   5  -4  -4   17.10    0.80
  -5   4   4   16.30    0.90
   5   4  -4   17.50    0.80
  -5   4   4   16.70    0.90
   5   4  -4   15.40    0.90
   5   4  -4   18.00    0.90
  -5   4   4   17.90    0.80
   4  -4  -4   55.29    2.80
   4  -4  -4   64.99    2.70
  -4  -4   4   60.79    2.80
  -4  -4   4   67.69    2.70
  -4  -4   4   62.99    2.80
  -4   4   4   63.29    2.80
   4   4  -4   66.59    2.80
   4   4  -4   63.99    2.70
  -4   4   4   60.59    2.70
  -4   4   4   63.19    2.80
   4   4  -4   61.89    2.80
   3  -4  -4    8.60    0.40
  -3  -4   4    8.10    0.40
   3  -4  -4    7.30    0.50
  -3  -4   4    7.70    0.50
  -3  -4   4    7.10    0.50
  -3   4   4    8.10    0.40
   3   4  -4    7.30    0.40
   3   4  -4    7.60    0.50
   3   4  -4    9.10    0.50
  -3   4   4    7.40    0.40
  -3   4   4    6.80    0.50
   3   4  -4    7.60    0.40
  -3   4   4    7.10    0.50
  -2  -4   4  322.27   13.80
  -2  -4   4  335.37   13.80
   2  -4  -4  339.07   13.80
  -2  -4   4  312.47   13.80
   2   4  -4  320.17   13.80
   2   4  -4  331.47   13.80
   2   4  -4  308.47   13.80
  -2   4   4  311.27   13.80
  -2   4   4  327.47   13.80
  -2   4   4  331.67   13.80
  -2   4   4  331.87   13.80
  -1  -4   4  304.37   13.10
  -1  -4   4  277.57   13.10
   1  -4  -4  303.37   13.10
  -1  -4   4  318.67   13.10
  -1   4   4  315.07   13.10
  -1   4   4  295.77   13.10
  -1   4   4  323.27   13.10
   1   4  -4  336.67   13.10
   1   4  -4  317.67   13.00
  -1   4   4  310.07   13.10
   1   4  -4  297.37   13.10
   1   4  -4  302.17   13.10
   0  -4   4  471.05   19.40
   0  -4  -4  428.36   19.40
   0  -4  -4  459.35   19.40
   0  -4   4  417.46   19.50
   0  -4   4  450.55   19.50
   0   4   4  474.35   19.40
   0   4  -4  487.25   19.40
   0   4  -4  445.16   19.40
   0   4   4  450.95   19.50
   0   4  -4  446.16   19.40
   0   4   4  477.35   19.50
   0   4   4  472.95   19.50
   0   4   4  478.75   19.50
  -1  -4  -4 1042.60   44.00
  -1  -4  -4 1011.50   43.90
   1  -4   4 1057.99   44.00
   1  -4   4 1041.50   44.00
   1  -4   4  978.30   43.90
   1   4   4 1062.09   44.00
  -1   4  -4 1026.40   44.00
  -1   4  -4 1005.00   43.90
   1   4   4 1070.79   44.40
   1   4   4 1050.09   44.00
   1   4   4 1029.20   43.90
  -1   4  -4 1084.29   44.00
   2  -4   4   10.00    0.70
   2  -4   4    9.70    0.70
  -2  -4  -4   10.90    0.60
  -2  -4  -4    8.70    0.60
   2   4   4   11.50    0.60
  -2   4  -4   10.30    0.50
  -2   4  -4   10.40    0.60
   2   4   4   10.20    0.60
   2   4   4    9.90    0.60
   2   4   4    9.20    0.60
  -2   4  -4   10.00    0.60
  -3  -4  -4   24.60    1.20
  -3  -4  -4   27.10    1.20
   3  -4   4   25.60    1.30
   3  -4   4   26.80    1.30
  -3  -4  -4   26.90    1.30
  -3   4  -4   25.90    1.30
  -3   4  -4   26.20    1.20
   3   4   4   26.80    1.20
   3   4   4   26.20    1.30
   3   4   4   26.90    1.30
   3   4   4   23.00    1.30
  -3   4  -4   25.70    1.20
   4  -4   4    1.20    0.30
  -4  -4  -4    1.40    0.20
   4  -4   4    1.20    0.40
  -4  -4  -4    1.20    0.30
   4   4   4    1.30    0.40
   4   4   4    1.50    0.30
   4   4   4    1.00    0.30
   4   4   4    0.90    0.30
  -4   4  -4    0.70    0.30
  -4   4  -4    1.00    0.20
  -5  -4  -4    4.10    0.40
   5  -4   4    5.40    0.60
   5  -4   4    3.40    0.40
   5   4   4    3.60    0.50
  -5   4  -4    5.00    0.50
   5   4   4    3.70    0.40
   5   4   4    3.70    0.40
  -5   4  -4    4.60    0.40
  -5   4  -4    4.10    0.40
   6  -4   4  180.38    8.10
  -6  -4  -4  183.88    7.90
   6  -4   4  189.68    8.00
  -6   4  -4  191.88    7.90
   6   4   4  171.68    8.10
   6   4   4  177.68    8.00
   6   4   4  183.88    8.10
  -6   4  -4  186.08    8.00
  -7  -4  -4    1.70    0.40
   7  -4   4    2.10    0.50
   7   4   4    2.10    0.50
   7   4   4    2.20    0.40
  -7   4  -4    2.20    0.40
  -7   4  -4    2.20    0.40
  10  -5  -4   13.10    1.00
 -10  -5   4   12.80    1.10
  10   5  -4   13.00    1.00
  10   5  -4   13.50    1.00
  -9  -5   4    1.50    0.40
   9  -5  -4    2.70    0.50
  -9   5   4    2.90    0.40
  -9   5   4    2.20    0.40
   9   5  -4    2.40    0.40
   9   5  -4    2.00    0.40
   8  -5  -4    1.70    0.40
   8  -5  -4    2.00    0.40
  -8  -5   4    1.00    0.40
  -8   5   4    1.50    0.30
   8   5  -4    1.00    0.30
  -8   5   4    1.60    0.30
   8   5  -4    1.80    0.40
   7  -5  -4    6.90    0.60
   7  -5  -4    6.70    0.60
  -7  -5   4    5.20    0.70
  -7   5   4    6.30    0.60
   7   5  -4    6.50    0.60
   7   5  -4    6.90    0.60
  -7   5   4    5.90    0.50
   6  -5  -4   12.00    0.80
   6  -5  -4   13.60    0.70
  -6  -5   4   12.20    0.80
   6   5  -4   12.30    0.80
   6   5  -4   10.00    0.70
  -6   5   4   10.60    0.70
  -6   5   4   10.80    0.70
   5  -5  -4  215.58    9.10
  -5  -5   4  200.58    9.10
  -5  -5   4  215.48    9.10
  -5   5   4  225.28    9.00
   5   5  -4  219.78    9.00
   5   5  -4  201.28    9.10
  -5   5   4  214.78    9.10
  -5   5   4  202.18    9.10
   5   5  -4  214.28    9.10
   4  -5  -4   42.10    1.80
  -4  -5   4   33.20    1.70
  -4  -5   4   36.70    1.80
  -4   5   4   37.70    1.70
  -4   5   4   36.60    1.70
   4   5  -4   36.50    1.70
  -4   5   4   35.50    1.70
   4   5  -4   35.00    1.70
   4   5  -4   38.40    1.60
   3  -5  -4    6.70    0.50
  -3  -5   4    8.40    0.50
  -3  -5   4    6.30    0.50
   3   5  -4    6.10    0.40
  -3   5   4    6.10    0.40
  -3   5   4    6.40    0.40
  -3   5   4    6.40    0.50
   3   5  -4    6.20    0.40
   3   5  -4    7.40    0.50
   3   5  -4    6.70    0.50
  -2  -5   4  150.28    6.20
  -2  -5   4  144.39    6.20
  -2  -5   4  145.79    6.20
   2  -5  -4  139.59    6.20
   2   5  -4  153.68    6.20
   2   5  -4  145.19    6.20
  -2   5   4  139.79    6.20
  -2   5   4  148.29    6.20
   2   5  -4  141.49    6.20
  -2   5   4  143.89    6.20
  -2   5   4  136.09    6.20
  -1  -5   4  347.17   14.40
   1  -5  -4  307.47   14.30
   1  -5  -4  318.97   14.40
  -1  -5   4  344.27   14.40
  -1  -5   4  342.57   14.40
   1   5  -4  348.37   14.40
  -1   5   4  336.37   14.40
   1   5  -4  355.06   14.30
  -1   5   4  342.27   14.30
   1   5  -4  346.77   14.30
  -1   5   4  307.97   14.30
  -1   5   4  351.16   14.30
   0  -5  -4   40.20    1.80
   0  -5   4   37.70    1.80
   0  -5  -4   38.90    1.80
   0  -5   4   39.20    1.70
   0  -5   4   38.10    1.80
   0   5  -4   36.70    1.80
   0   5   4   38.00    1.80
   0   5  -4   42.20    1.70
   0   5   4   36.20    1.70
   0   5  -4   36.80    1.70
   0   5  -4   36.50    1.70
   0   5   4   40.40    1.80
  -1  -5  -4  101.29    4.40
  -1  -5  -4  103.69    4.40
   1  -5   4   91.79    4.40
   1  -5   4   87.79    4.40
   1  -5   4  106.49    4.40
   1   5   4  107.39    4.40
   1   5   4  102.99    4.40
   1   5   4  101.39    4.40
  -1   5  -4  102.69    4.40
  -1   5  -4   98.59    4.40
  -1   5  -4  105.39    4.30
   2  -5   4  289.97   13.50
   2  -5   4  297.07   13.50
  -2  -5  -4  330.87   13.40
  -2  -5  -4  326.37   13.40
  -2   5  -4  322.57   13.40
   2   5   4  325.67   13.50
  -2   5  -4  315.47   13.40
   2   5   4  317.97   13.40
  -2   5  -4  327.57   13.40
   2   5   4  296.27   13.40
  -3  -5  -4  222.88    9.30
  -3  -5  -4  243.88    9.30
  -3  -5  -4  211.48    9.30
   3  -5   4  220.78    9.40
   3  -5   4  200.18    9.40
   3   5   4  210.38    9.40
   3   5   4  202.48    9.30
  -3   5  -4  210.08    9.30
  -3   5  -4  217.98    9.30
  -3   5  -4  224.58    9.30
   3   5   4  229.98    9.30
  -4  -5  -4   30.80    1.50
   4  -5   4   31.10    1.60
   4  -5   4   33.10    1.60
  -4  -5  -4   28.50    1.50
   4   5   4   30.60    1.50
  -4   5  -4   29.50    1.50
   4   5   4   29.40    1.60
  -4   5  -4   30.50    1.40
  -4   5  -4   30.10    1.50
   4   5   4   33.50    1.50
   5  -5   4   16.10    1.00
   5  -5   4   14.90    1.00
  -5  -5  -4   15.10    0.90
  -5   5  -4   15.50    0.90
   5   5   4   15.80    0.90
   5   5   4   15.70    1.00
  -5   5  -4   15.70    0.90
  -5   5  -4   15.80    0.90
   6  -5   4   26.20    1.50
  -6  -5  -4   26.10    1.30
   6   5   4   25.50    1.50
   6   5   4   22.50    1.50
  -6   5  -4   24.60    1.30
  -6   5  -4   25.90    1.30
   7  -5   4   14.10    1.10
  -7   5  -4   14.20    0.90
   7   5   4   13.60    1.10
 -10  -6   4   14.70    1.10
  10   6  -4   13.60    1.20
  10   6  -4   15.00    1.10
   9  -6  -4   23.90    1.30
  -9  -6   4   24.20    1.40
   9   6  -4   22.80    1.30
  -9   6   4   21.50    1.30
   9   6  -4   20.40    1.30
  -9   6   4   23.60    1.30
   8  -6  -4    6.70    0.70
  -8  -6   4    4.70    0.60
  -8   6   4    3.80    0.40
  -8   6   4    5.10    0.50
   8   6  -4    4.90    0.50
   8   6  -4    5.50    0.70
   7  -6  -4   45.50    2.20
   7   6  -4   47.00    2.20
  -7   6   4   43.60    2.10
   7   6  -4   45.90    2.20
  -7   6   4   44.90    2.10
  -6  -6   4    0.70    0.30
   6  -6  -4    1.00    0.30
   6   6  -4    0.90    0.30
   6   6  -4    1.10    0.30
  -6   6   4    0.70    0.20
  -6   6   4    1.00    0.30
  -5  -6   4   53.89    2.50
  -5  -6   4   55.99    2.50
   5  -6  -4   51.69    2.50
  -5   6   4   53.29    2.40
  -5   6   4   53.79    2.40
   5   6  -4   54.29    2.50
   5   6  -4   51.69    2.50
  -5   6   4   52.39    2.40
   5   6  -4   57.19    2.40
   4  -6  -4   11.80    0.70
  -4  -6   4   12.00    0.70
  -4  -6   4   10.10    0.70
  -4   6   4   12.20    0.60
   4   6  -4   11.00    0.70
   4   6  -4   12.20    0.70
   4   6  -4   12.10    0.60
  -4   6   4   10.40    0.70
  -4   6   4   11.30    0.70
  -3  -6   4  236.58   10.40
  -3  -6   4  244.28   10.40
   3  -6  -4  249.38   10.40
  -3   6   4  240.48   10.40
   3   6  -4  254.17   10.40
   3   6  -4  224.48   10.40
  -3   6   4  248.98   10.40
  -3   6   4  258.07   10.40
   3   6  -4  234.88   10.40
  -2  -6   4  264.37   11.90
   2  -6  -4  305.57   11.90
   2  -6  -4  266.87   11.90
  -2  -6   4  273.67   11.90
  -2   6   4  286.77   11.90
   2   6  -4  287.27   11.80
  -2   6   4  277.67   11.90
   2   6  -4  259.37   11.80
  -2   6   4  282.47   11.90
   2   6  -4  280.37   11.90
   1  -6  -4  138.39    6.30
   1  -6  -4  155.28    6.30
  -1  -6   4  131.19    6.30
  -1  -6   4  138.79    6.30
  -1  -6   4  147.19    6.30
  -1   6   4  157.58    6.30
  -1   6   4  143.49    6.30
   1   6  -4  147.09    6.20
  -1   6   4  146.09    6.30
   1   6  -4  150.08    6.30
  -1   6   4  149.19    6.30
   1   6  -4  143.69    6.30
   0  -6  -4    9.30    0.60
   0  -6   4    8.90    0.50
   0  -6  -4    8.80    0.60
   0  -6   4    8.50    0.60
   0  -6   4    8.60    0.60
   0   6  -4    8.30    0.50
   0   6  -4    8.10    0.60
   0   6   4    9.30    0.60
   0   6  -4    8.30    0.50
   0   6   4    9.30    0.60
   1  -6   4    4.30    0.50
   1  -6   4    5.40    0.50
  -1  -6  -4    3.90    0.40
  -1  -6  -4    3.70    0.30
   1   6   4    3.80    0.40
   1   6   4    3.90    0.40
   1   6   4    4.20    0.40
  -1   6  -4    4.00    0.40
  -1   6  -4    4.30    0.40
  -1   6  -4    4.50    0.40
   2  -6   4   16.60    1.10
   2  -6   4   19.60    1.10
  -2  -6  -4   21.20    1.00
  -2  -6  -4   17.10    1.00
   2   6   4   19.80    1.00
  -2   6  -4   19.10    1.00
   2   6   4   20.60    1.10
  -2   6  -4   20.20    1.00
   2   6   4   21.00    1.00
  -3  -6  -4   23.30    1.10
  -3  -6  -4   21.60    1.10
   3  -6   4   21.30    1.20
  -3  -6  -4   21.40    1.10
   3  -6   4   23.10    1.20
   3   6   4   21.10    1.10
  -3   6  -4   21.40    1.10
   3   6   4   20.20    1.20
  -3   6  -4   19.80    1.10
   3   6   4   21.90    1.10
   4  -6   4   -0.50    0.30
   4  -6   4   -0.10    0.30
  -4  -6  -4    0.10    0.20
  -4   6  -4    0.00    0.20
   4   6   4    0.00    0.30
  -4   6  -4    0.10    0.30
   4   6   4    0.10    0.30
  -5  -6  -4   23.80    1.30
   5  -6   4   27.70    1.50
   5  -6   4   27.50    1.40
   5   6   4   23.70    1.40
  -5   6  -4   25.00    1.30
  -5   6  -4   25.10    1.40
   5   6   4   25.90    1.30
  -6  -6  -4   19.10    1.10
   6  -6   4   18.50    1.30
  -6   6  -4   18.00    1.10
   6   6   4   18.90    1.20
   6   6   4   17.70    1.40
   7  -6   4    4.70    0.70
   9  -7  -4   33.50    1.80
  -9  -7   4   35.80    1.90
  -9   7   4   35.30    1.80
   9   7  -4   34.10    1.80
   9   7  -4   33.00    1.80
   8  -7  -4   76.29    3.50
  -8  -7   4   71.09    3.50
  -8   7   4   73.09    3.40
   8   7  -4   71.29    3.40
   8   7  -4   78.39    3.50
  -8   7   4   78.59    3.40
  -7  -7   4    3.00    0.50
   7  -7  -4    2.90    0.40
  -7   7   4    2.60    0.40
   7   7  -4    3.00    0.40
   7   7  -4    2.60    0.40
  -7   7   4    2.70    0.40
  -6  -7   4  151.98    6.50
   6  -7  -4  141.79    6.50
   6   7  -4  149.99    6.50
   6   7  -4  148.39    6.40
  -6   7   4  147.39    6.40
  -6   7   4  145.29    6.40
  -5  -7   4  451.75   19.90
   5  -7  -4  465.15   19.90
  -5  -7   4  439.26   19.90
   5   7  -4  461.55   19.90
  -5   7   4  462.85   19.80
   5   7  -4  465.25   19.90
  -5   7   4  480.55   19.80
  -5   7   4  499.45   19.80
   5   7  -4  470.15   19.80
   4  -7  -4  138.49    5.80
  -4  -7   4  129.29    5.80
  -4  -7   4  130.19    5.70
   4   7  -4  131.59    5.70
   4   7  -4  133.09    5.80
  -4   7   4  129.79    5.70
   4   7  -4  127.59    5.70
  -4   7   4  131.79    5.70
  -4   7   4  133.19    5.70
  -3  -7   4    6.90    0.60
   3  -7  -4    6.90    0.60
  -3  -7   4    7.30    0.60
  -3   7   4    6.70    0.60
  -3   7   4    6.30    0.50
   3   7  -4    7.00    0.60
   3   7  -4    6.90    0.60
  -3   7   4    6.10    0.50
   3   7  -4    6.90    0.50
   2  -7  -4  161.48    8.00
   2  -7  -4  176.48    8.10
  -2  -7   4  196.88    8.10
  -2   7   4  190.28    8.10
   2   7  -4  198.08    8.10
   2   7  -4  197.48    8.00
  -2   7   4  187.98    8.00
   2   7  -4  185.18    8.00
  -2   7   4  191.98    8.00
   1  -7  -4   16.10    0.80
   1  -7  -4   14.20    0.90
  -1  -7   4   14.50    0.80
  -1  -7   4   12.70    0.90
   1   7  -4   14.10    0.80
  -1   7   4   14.00    0.80
   1   7  -4   14.00    0.70
   1   7  -4   14.80    0.80
  -1   7   4   14.30    0.80
  -1   7   4   11.10    0.80
  -1   7   4   13.50    0.80
   0  -7  -4  330.37   13.60
   0  -7   4  280.57   13.70
   0  -7   4  315.67   13.60
   0  -7  -4  324.07   13.70
   0  -7   4  308.57   13.70
   0   7   4  323.37   13.60
   0   7  -4  319.77   13.60
   0   7  -4  332.77   13.70
   0   7  -4  327.67   13.60
   0   7   4  327.97   13.70
   0   7   4  326.67   13.60
  -1  -7  -4   -0.10    0.30
   1  -7   4    0.10    0.30
   1  -7   4   -0.20    0.30
   1  -7   4    0.40    0.20
  -1  -7  -4   -0.10    0.20
   1   7   4    1.10    0.30
   1   7   4   -0.20    0.20
   1   7   4   -0.30    0.20
  -1   7  -4   -0.30    0.20
  -1   7  -4   -0.10    0.20
  -1   7  -4    0.10    0.20
  -2  -7  -4    0.20    0.30
   2  -7   4    0.20    0.30
  -2  -7  -4    0.20    0.20
   2  -7   4    0.00    0.30
  -2   7  -4    0.00    0.20
   2   7   4   -0.20    0.20
  -2   7  -4    0.20    0.20
  -2   7  -4    0.80    0.20
   2   7   4   -0.10    0.20
   2   7   4    0.30    0.20
  -3  -7  -4  348.67   15.40
   3  -7   4  350.66   15.50
  -3  -7  -4  356.16   15.40
   3  -7   4  380.16   15.50
  -3   7  -4  351.16   15.40
   3   7   4  384.86   15.40
  -3   7  -4  365.76   15.40
   3   7   4  356.56   15.40
  -3   7  -4  366.36   15.40
   3   7   4  354.26   15.50
  -4  -7  -4    2.30    0.30
   4  -7   4    1.80    0.40
   4  -7   4    1.70    0.40
   4   7   4    2.40    0.40
   4   7   4    1.70    0.30
  -4   7  -4    1.70    0.40
  -4   7  -4    1.50    0.30
   5  -7   4   60.29    3.00
  -5  -7  -4   61.99    2.80
  -5   7  -4   61.79    2.90
   5   7   4   64.49    3.00
   5   7   4   61.69    2.90
  -5   7  -4   62.39    2.80
   6  -7   4  129.69    6.10
  -6  -7  -4  138.69    6.00
   6   7   4  143.09    6.20
   9  -8  -4   15.90    1.10
   9   8  -4   15.80    1.20
   8  -8  -4   66.09    3.10
  -8  -8   4   62.89    3.20
   8   8  -4   63.49    3.10
  -8   8   4   67.49    3.10
   8   8  -4   65.99    3.10
  -8   8   4   69.09    3.10
   7  -8  -4   19.30    1.20
  -7  -8   4   18.30    1.20
  -7   8   4   18.00    1.10
   7   8  -4   16.90    1.10
  -7   8   4   18.80    1.10
   7   8  -4   18.10    1.10
   6  -8  -4  163.48    7.00
  -6  -8   4  161.28    7.00
   6   8  -4  149.49    7.00
  -6   8   4  162.48    6.90
  -6   8   4  155.28    6.90
   6   8  -4  163.28    7.00
  -5  -8   4    0.30    0.30
   5  -8  -4    0.00    0.30
  -5  -8   4    0.30    0.30
  -5   8   4    0.30    0.30
  -5   8   4    0.10    0.30
  -5   8   4    0.20    0.20
   5   8  -4    0.60    0.30
   5   8  -4    0.10    0.30
   5   8  -4    0.60    0.20
   4  -8  -4    0.50    0.30
  -4  -8   4    0.00    0.30
  -4  -8   4    0.00    0.30
   4   8  -4    0.30    0.30
   4   8  -4   -0.10    0.30
  -4   8   4    0.10    0.20
  -4   8   4    0.10    0.20
  -4   8   4   -0.20    0.20
   4   8  -4   -0.10    0.20
  -3  -8   4   39.10    1.90
  -3  -8   4   36.70    1.90
   3  -8  -4   36.20    1.90
   3   8  -4   38.10    1.80
   3   8  -4   36.70    1.80
  -3   8   4   41.30    1.80
   3   8  -4   37.80    1.80
  -3   8   4   38.90    1.80
  -3   8   4   38.90    1.80
  -2  -8   4  284.17   13.50
   2  -8  -4  338.97   13.40
   2  -8  -4  289.97   13.50
  -2  -8   4  312.47   13.50
  -2   8   4  323.57   13.40
   2   8  -4  316.87   13.40
  -2   8   4  334.07   13.50
   2   8  -4  318.37   13.50
  -2   8   4  317.87   13.50
  -1  -8   4   54.59    2.40
  -1  -8   4   52.29    2.40
   1  -8  -4   48.40    2.40
  -1   8   4   50.99    2.40
   1   8  -4   51.79    2.40
  -1   8   4   59.59    2.40
   1   8  -4   51.99    2.30
   1   8  -4   49.90    2.40
  -1   8   4   51.29    2.40
   0  -8   4    1.00    0.30
   0  -8   4    0.60    0.30
   0  -8  -4    0.50    0.30
   0  -8  -4    0.50    0.20
   0   8   4    0.60    0.30
   0   8  -4    1.30    0.30
   0   8  -4    0.80    0.30
   0   8   4    0.80    0.30
   0   8   4    1.40    0.30
   1  -8   4  126.59    5.60
  -1  -8  -4  127.29    5.60
  -1  -8  -4  133.09    5.70
   1  -8   4  127.69    5.70
   1  -8   4  129.89    5.60
   1   8   4  129.29    5.60
  -1   8  -4  130.69    5.60
   1   8   4  123.59    5.60
  -1   8  -4  123.89    5.60
  -1   8  -4  131.09    5.60
   1   8   4  132.29    5.60
  -2  -8  -4    4.10    0.40
   2  -8   4    5.80    0.60
  -2  -8  -4    4.50    0.50
   2  -8   4    5.30    0.60
  -2   8  -4    5.10    0.50
  -2   8  -4    5.20    0.50
  -2   8  -4    4.60    0.50
   2   8   4    4.80    0.50
   2   8   4    5.00    0.60
   2   8   4    5.60    0.50
   3  -8   4    0.40    0.40
   3  -8   4    2.20    0.40
  -3  -8  -4    0.90    0.30
  -3  -8  -4    1.10    0.30
  -3   8  -4    0.70    0.30
   3   8   4    0.40    0.30
   3   8   4    1.30    0.30
  -3   8  -4    0.90    0.30
  -3   8  -4    0.50    0.30
   4  -8   4    6.20    0.70
  -4  -8  -4    5.90    0.60
   4   8   4    6.90    0.70
  -4   8  -4    5.60    0.60
  -4   8  -4    6.10    0.60
   4   8   4    6.00    0.60
   5  -8   4    0.10    0.40
   5   8   4    0.70    0.30
  -5   8  -4    0.80    0.30
   5   8   4    0.80    0.40
   6  -8   4  133.09    6.50
  -8  -9   4    0.80    0.50
   8  -9  -4    1.60    0.50
   8   9  -4    1.10    0.70
   8   9  -4    1.60    0.50
   7  -9  -4    1.30    0.50
  -7  -9   4    0.80    0.40
   7   9  -4    0.60    0.40
   7   9  -4    0.50    0.40
  -7   9   4    1.60    0.40
  -7   9   4    0.50    0.30
  -6  -9   4   63.29    3.00
   6  -9  -4   67.59    3.00
   6   9  -4   61.09    2.90
  -6   9   4   63.59    3.00
  -6   9   4   62.79    2.90
   6   9  -4   60.79    3.00
   5  -9  -4   34.80    1.70
  -5  -9   4   33.50    1.70
  -5   9   4   33.40    1.80
   5   9  -4   30.00    1.70
   5   9  -4   32.50    1.60
  -5   9   4   33.10    1.60
  -5   9   4   34.10    1.70
   5   9  -4   33.90    1.70
   4  -9  -4  266.27   11.20
  -4  -9   4  237.68   11.10
  -4  -9   4  273.17   11.20
   4   9  -4  266.97   11.20
  -4   9   4  255.17   11.20
   4   9  -4  256.17   11.10
  -4   9   4  260.97   11.10
   4   9  -4  262.57   11.20
  -4   9   4  252.87   11.10
   3  -9  -4    0.60    0.30
  -3  -9   4    0.40    0.30
  -3  -9   4    0.60    0.30
   3  -9  -4    0.90    0.40
   3   9  -4    0.50    0.30
  -3   9   4    0.60    0.30
  -3   9   4    0.30    0.30
   3   9  -4    0.50    0.30
   3   9  -4    0.70    0.30
  -3   9   4    0.70    0.30
  -2  -9   4   -0.20    0.30
   2  -9  -4    0.10    0.30
   2  -9  -4    0.20    0.30
  -2  -9   4    0.20    0.30
   2   9  -4    0.20    0.20
  -2   9   4    0.30    0.30
   2   9  -4    0.10    0.30
  -2   9   4    0.10    0.30
  -2   9   4   -0.20    0.20
  -1  -9   4   38.80    1.90
  -1  -9   4   39.50    1.90
   1  -9  -4   33.80    1.80
   1  -9  -4   41.60    1.90
   1   9  -4   39.60    1.80
   1   9  -4   38.50    1.90
   1   9  -4   38.70    1.80
  -1   9   4   41.10    1.80
  -1   9   4   37.70    1.80
  -1   9   4   37.10    1.80
   0  -9   4    1.80    0.40
   0  -9  -4    1.60    0.30
   0  -9  -4    1.60    0.40
   0  -9   4    1.70    0.30
   0   9   4    1.50    0.30
   0   9  -4    1.70    0.30
   0   9  -4    1.70    0.30
   0   9  -4    2.00    0.30
   0   9   4    2.00    0.30
  -1  -9  -4    1.60    0.40
   1  -9   4    2.00    0.40
   1   9   4    2.40    0.40
  -1   9  -4    2.20    0.40
  -1   9  -4    2.60    0.40
   1   9   4    1.90    0.30
   1   9   4    2.40    0.40
  -1   9  -4    2.10    0.30
   2  -9   4   17.70    1.10
  -2  -9  -4   19.70    1.10
   2  -9   4   20.80    1.20
  -2   9  -4   17.80    1.10
   2   9   4   18.80    1.10
   2   9   4   18.20    1.10
  -2   9  -4   20.20    1.10
  -2   9  -4   19.00    1.00
   3  -9   4   12.70    1.00
  -3  -9  -4   11.20    0.90
  -3   9  -4   13.00    0.80
   3   9   4   11.10    0.90
   3   9   4   12.40    0.90
  -3   9  -4   12.40    0.80
   4  -9   4    6.80    0.70
  -4   9  -4    5.90    0.60
  -4   9  -4    6.20    0.60
   4   9   4    6.10    0.60
   4   9   4    6.50    0.80
   5  -9   4   69.39    3.50
   5   9   4   73.99    3.50
   5   9   4   76.79    3.40
   7 -10  -4    0.30    0.40
   7  10  -4    0.70    0.40
   6 -10  -4   15.60    1.10
  -6 -10   4   15.00    1.20
   6  10  -4   14.70    1.00
   6  10  -4   15.00    1.00
   5 -10  -4   12.80    1.00
  -5 -10   4   14.40    1.00
   5  10  -4   12.90    0.80
   5  10  -4   12.30    1.00
  -5  10   4   13.90    1.00
   5  10  -4   13.10    0.90
  -4 -10   4   40.10    2.00
   4 -10  -4   40.70    2.00
  -4 -10   4   40.30    2.00
   4  10  -4   39.70    1.90
   4  10  -4   38.90    2.00
   4  10  -4   36.90    1.90
  -4  10   4   38.60    2.00
  -4  10   4   38.80    1.90
  -3 -10   4  102.89    4.50
   3 -10  -4   98.59    4.50
  -3 -10   4   88.49    4.50
  -3  10   4   97.39    4.40
   3  10  -4  104.79    4.50
   3  10  -4  104.59    4.40
   3  10  -4  101.99    4.50
  -3  10   4  102.89    4.50
  -2 -10   4    7.70    0.70
  -2 -10   4    7.50    0.70
   2 -10  -4    8.10    0.80
   2  10  -4    7.70    0.70
   2  10  -4    7.30    0.60
  -2  10   4    8.00    0.60
  -2  10   4    8.80    0.70
   2  10  -4    8.50    0.70
  -1 -10   4   12.40    0.90
   1 -10  -4   11.80    0.90
  -1 -10   4   11.80    0.90
  -1  10   4   11.30    0.80
   1  10  -4   10.40    0.80
   1  10  -4   12.30    0.80
  -1  10   4   11.90    0.80
   0 -10  -4  169.78    7.30
   0 -10   4  176.28    7.30
   0 -10   4  152.68    7.20
   0  10   4  169.18    7.30
   0  10  -4  159.58    7.20
   0  10  -4  168.98    7.30
   0  10  -4  168.38    7.20
   0  10   4  165.68    7.20
   1 -10   4    0.00    0.40
  -1 -10  -4    0.20    0.40
  -1  10  -4    0.40    0.30
  -1  10  -4    0.00    0.30
  -1  10  -4    0.20    0.30
   1  10   4    0.30    0.30
   1  10   4    0.10    0.40
  -2 -10  -4    3.20    0.50
   2 -10   4    3.00    0.50
   2  10   4    2.80    0.40
  -2  10  -4    2.10    0.40
   2  10   4    3.00    0.50
  -2  10  -4    2.60    0.40
   3 -10   4   18.10    1.20
  -3 -10  -4   14.40    1.10
  -3  10  -4   15.20    1.00
   3  10   4   15.10    1.10
  -3  10  -4   15.20    1.00
   3  10   4   15.20    1.00
   4 -10   4   17.50    1.30
  -4  10  -4   19.10    1.10
   4  10   4   17.30    1.20
   4  10   4   17.80    1.10
  -5 -11   4   82.99    3.90
   5 -11  -4   86.39    3.90
   5  11  -4   85.09    3.70
   5  11  -4   77.19    3.80
  -4 -11   4   39.50    1.90
  -4 -11   4   39.30    2.00
   4 -11  -4   37.00    2.00
  -4  11   4   36.00    1.80
   4  11  -4   36.90    1.90
  -4  11   4   36.40    2.10
   4  11  -4   38.90    2.00
   4  11  -4   36.70    1.80
   3 -11  -4    6.90    0.90
  -3 -11   4    7.70    0.80
  -3 -11   4    8.60    0.80
  -3  11   4    9.90    0.80
  -3  11   4    9.20    0.70
   3  11  -4    9.30    0.80
   3  11  -4    8.30    0.80
   3  11  -4    8.50    0.70
  -2 -11   4   43.90    2.10
  -2 -11   4   43.70    2.20
   2 -11  -4   38.20    2.10
  -2  11   4   42.60    2.10
  -2  11   4   45.00    2.10
   2  11  -4   42.50    2.00
   2  11  -4   42.80    2.10
   2  11  -4   40.90    2.10
   1 -11  -4   24.90    1.50
  -1 -11   4   24.40    1.40
  -1 -11   4   25.10    1.40
   1  11  -4   26.50    1.40
   1  11  -4   24.70    1.30
  -1  11   4   24.90    1.40
  -1  11   4   23.30    1.30
   0 -11   4   16.30    1.10
   0 -11   4   17.60    1.10
   0 -11  -4   16.90    1.20
   0  11  -4   16.10    1.00
   0  11  -4   16.70    1.00
   0  11   4   16.80    1.00
   0  11   4   16.10    1.00
  -1 -11  -4    0.20    0.40
   1 -11   4    0.00    0.40
  -1  11  -4    0.20    0.30
  -1  11  -4   -0.20    0.30
   1  11   4    0.60    0.40
  -2 -11  -4    3.20    0.50
   2 -11   4    3.10    0.60
  -2  11  -4    3.60    0.70
   2  11   4    3.30    0.50
  -2  11  -4    3.10    0.50
  -3 -11  -4   73.79    3.50
   3 -11   4   72.19    3.60
   3  11   4   79.59    3.60
  -4  12   4   12.80    0.90
  -3 -12   4   13.90    1.10
   3  12  -4   14.00    1.10
  -3  12   4   14.10    1.00
   3  12  -4   14.70    1.00
  -2 -12   4    5.90    0.70
   2 -12  -4    5.90    0.90
   2  12  -4    5.70    0.60
  -2  12   4    5.00    0.50
   2  12  -4    5.20    0.60
   1 -12  -4    1.70    0.50
  -1 -12   4    2.00    0.50
   1  12  -4    2.30    0.50
  -1  12   4    2.10    0.40
   1  12  -4    2.10    0.60
  11   0  -5    0.30    0.40
  11   0  -5   -0.50    0.40
 -11   0   5    0.30    0.40
 -10   0   5   -0.10    0.40
 -10   0   5    0.10    0.30
  10   0  -5    0.10    0.40
  10   0  -5   -0.40    0.30
   9   0  -5    0.20    0.30
  -9   0   5    0.10    0.40
   9   0  -5   -0.30    0.30
  -9   0   5    0.20    0.30
   8   0  -5   -0.20    0.30
  -8   0   5   -0.30    0.30
  -8   0   5    0.00    0.20
  -7   0   5   -0.60    0.20
   7   0  -5    0.00    0.20
  -7   0   5   -0.20    0.30
  -6   0   5    0.00    0.20
   6   0  -5    0.20    0.20
   6   0  -5    0.50    0.20
  -6   0   5    0.10    0.10
  -6   0   5   -0.10    0.20
   5   0  -5   -0.20    0.20
  -5   0   5   -0.10    0.20
   5   0  -5    0.00    0.10
  -5   0   5    0.00    0.10
  -5   0   5    0.00    0.10
   5   0  -5   -0.30    0.10
  -5   0   5   -0.10    0.10
  -4   0   5   -0.10    0.10
  -4   0   5    0.10    0.10
   4   0  -5    0.00    0.10
  -4   0   5   -0.10    0.20
  -4   0   5   -0.10    0.10
  -4   0   5    0.20    0.10
   4   0  -5    0.00    0.10
  -3   0   5    0.00    0.10
  -3   0   5    0.10    0.10
  -3   0   5    0.20    0.10
  -3   0   5    0.00    0.10
   3   0  -5    0.50    0.10
   3   0  -5    0.40    0.10
  -3   0   5    1.00    0.20
  -2   0   5    0.00    0.10
  -2   0   5    0.00    0.10
   2   0  -5   -0.10    0.10
  -2   0   5   -0.10    0.10
  -2   0   5    0.10    0.10
  -2   0   5    0.00    0.10
   2   0  -5   -0.10    0.10
  -2   0   5    0.00    0.10
  -1   0   5   -0.10    0.10
  -1   0   5    0.30    0.10
  -1   0   5    0.00    0.10
   1   0  -5    0.30    0.10
   1   0  -5    0.00    0.10
  -1   0   5    0.00    0.10
   1   0  -5    0.40    0.20
  -1   0   5    0.40    0.20
  -1   0   5   -0.10    0.10
   0   0  -5    0.10    0.20
   0   0   5   -0.20    0.10
   0   0  -5    0.10    0.10
   0   0  -5    0.00    0.10
   0   0   5   -0.10    0.10
   0   0   5   -0.30    0.20
   0   0   5    0.10    0.20
  -1   0  -5    0.10    0.20
   1   0   5   -0.10    0.20
  -1   0  -5    0.50    0.20
   1   0   5    0.10    0.20
   1   0   5    0.00    0.20
   1   0   5    0.20    0.20
   2   0   5    0.40    0.20
   2   0   5   -0.10    0.20
   2   0   5    0.10    0.20
  -2   0  -5    0.40    0.20
  -2   0  -5    0.20    0.20
  -3   0  -5   -0.20    0.20
  -3   0  -5    0.00    0.20
   3   0   5   -0.10    0.30
   3   0   5    0.00    0.20
   3   0   5    0.20    0.30
  -4   0  -5    0.50    0.30
  -4   0  -5    0.00    0.20
   4   0   5    0.20    0.20
   4   0   5    0.10    0.20
   4   0   5   -0.60    0.30
   5   0   5    0.40    0.20
   5   0   5    0.30    0.40
  -5   0  -5   -0.10    0.20
   5   0   5    0.10    0.30
  -5   0  -5   -0.40    0.20
  -6   0  -5   -0.20    0.20
   6   0   5   -0.10    0.30
   6   0   5   -0.20    0.30
  -6   0  -5    0.10    0.30
   7   0   5    0.20    0.40
   7   0   5   -0.50    0.40
  -7   0  -5   -0.50    0.40
  11  -1  -5   10.10    0.90
 -11  -1   5    8.80    0.80
  11  -1  -5   11.50    0.90
 -11  -1   5   11.80    1.00
  11   1  -5    9.90    0.90
 -11   1   5   10.20    1.00
  11   1  -5   11.40    0.90
 -10  -1   5   35.90    1.80
  10  -1  -5   37.90    1.80
 -10  -1   5   33.50    1.70
  10  -1  -5   33.50    1.80
 -10   1   5   35.40    1.70
 -10   1   5   35.20    1.90
  10   1  -5   33.70    1.80
  10   1  -5   33.90    1.80
   9  -1  -5    3.60    0.40
  -9  -1   5    3.30    0.40
   9  -1  -5    3.00    0.50
  -9  -1   5    3.30    0.50
  -9   1   5    3.20    0.50
  -9   1   5    3.00    0.40
   9   1  -5    3.20    0.50
  -8  -1   5    7.40    0.70
  -8  -1   5    8.20    0.60
   8  -1  -5    8.30    0.60
  -8   1   5    7.90    0.60
  -8   1   5    8.30    0.70
   8   1  -5    8.00    0.70
   7  -1  -5   79.69    3.60
   7  -1  -5   77.19    3.60
  -7  -1   5   72.89    3.60
  -7  -1   5   83.59    3.60
  -7   1   5   83.79    3.60
   7   1  -5   85.79    3.60
  -7   1   5   84.09    3.50
  -7   1   5   83.09    3.70
   7   1  -5   79.29    3.50
  -6  -1   5    0.90    0.30
   6  -1  -5    0.90    0.30
   6  -1  -5    1.30    0.20
  -6  -1   5    0.40    0.20
   6   1  -5    1.10    0.20
  -6   1   5    1.20    0.20
  -6   1   5    0.90    0.30
  -6   1   5    0.70    0.20
   6   1  -5    0.90    0.20
  -5  -1   5   31.70    1.40
  -5  -1   5   31.30    1.40
  -5  -1   5   29.50    1.50
   5  -1  -5   31.30    1.50
   5  -1  -5   32.50    1.40
   5  -1  -5   31.20    1.50
  -5   1   5   33.10    1.40
   5   1  -5   34.20    1.40
  -5   1   5   30.90    1.50
   5   1  -5   30.40    1.50
   5   1  -5   32.00    1.40
  -5   1   5   32.10    1.50
  -5   1   5   31.40    1.40
  -4  -1   5  818.42   35.10
  -4  -1   5  854.31   35.20
   4  -1  -5  821.22   35.10
   4  -1  -5  818.12   35.20
  -4  -1   5  775.02   35.10
  -4  -1   5  856.31   35.00
   4  -1  -5  874.31   35.20
  -4  -1   5  824.22   35.10
  -4  -1   5  822.42   35.10
   4   1  -5  828.32   35.10
  -4   1   5  808.22   35.00
  -4   1   5  856.81   35.20
  -4   1   5  822.72   35.10
   4   1  -5  819.32   35.10
  -4   1   5  811.12   35.10
   4   1  -5  845.72   35.20
  -4   1   5  844.92   35.10
   3  -1  -5    9.30    0.50
  -3  -1   5   10.00    0.50
  -3  -1   5    9.10    0.50
  -3  -1   5    9.90    0.50
  -3  -1   5   10.20    0.50
   3  -1  -5    9.40    0.50
  -3  -1   5    9.40    0.50
  -3  -1   5    9.30    0.50
   3   1  -5    9.50    0.50
   3   1  -5    9.40    0.50
  -3   1   5    8.80    0.50
  -3   1   5    9.80    0.50
  -3   1   5    9.10    0.50
   3   1  -5    9.40    0.50
   3   1  -5    9.70    0.50
  -3   1   5    9.40    0.50
  -3   1   5    9.10    0.50
  -3   1   5    9.80    0.50
   2  -1  -5   51.99    2.20
   2  -1  -5   53.59    2.30
  -2  -1   5   51.29    2.30
  -2  -1   5   49.40    2.20
  -2  -1   5   52.79    2.20
  -2  -1   5   50.59    2.30
  -2  -1   5   51.19    2.20
  -2  -1   5   54.29    2.30
  -2   1   5   48.40    2.20
  -2   1   5   48.60    2.30
   2   1  -5   50.59    2.20
  -2   1   5   51.99    2.20
  -2   1   5   53.49    2.30
  -2   1   5   51.99    2.30
   2   1  -5   47.00    2.20
  -2   1   5   50.59    2.20
  -1  -1   5  136.89    5.80
   1  -1  -5  137.79    5.80
  -1  -1   5  133.19    5.80
  -1  -1   5  130.69    5.80
  -1  -1   5  133.69    5.80
   1  -1  -5  135.89    5.80
  -1  -1   5  135.19    5.80
  -1   1   5  136.39    5.80
  -1   1   5  135.29    5.80
  -1   1   5  137.99    5.80
  -1   1   5  128.59    5.80
  -1   1   5  134.99    5.80
   1   1  -5  134.09    5.80
   1   1  -5  132.69    5.70
   0  -1  -5   23.60    1.20
   0  -1   5   25.00    1.20
   0  -1   5   23.80    1.20
   0  -1   5   24.40    1.20
   0  -1  -5   24.10    1.20
   0  -1   5   27.20    1.20
   0  -1   5   25.40    1.10
   0  -1  -5   25.40    1.10
   0   1  -5   27.40    1.20
   0   1  -5   25.50    1.10
   0   1   5   24.30    1.20
   0   1   5   24.30    1.20
   0   1   5   22.80    1.10
   0   1   5   24.30    1.20
   0   1  -5   24.90    1.10
  -1  -1  -5  342.27   14.60
  -1  -1  -5  346.37   14.60
  -1  -1  -5  366.16   14.50
   1  -1   5  337.07   14.60
   1  -1   5  333.67   14.60
   1  -1   5  348.67   14.60
   1   1   5  348.97   14.70
   1   1   5  346.87   14.60
   1   1   5  343.67   14.60
   1   1   5  342.07   14.60
  -1   1  -5  338.77   14.60
  -1   1  -5  327.67   14.60
   2  -1   5    5.50    0.50
  -2  -1  -5    6.00    0.40
   2  -1   5    5.90    0.50
   2  -1   5    6.50    0.40
  -2  -1  -5    5.90    0.40
   2   1   5    6.80    0.60
   2   1   5    5.90    0.40
  -2   1  -5    5.90    0.50
   2   1   5    6.30    0.50
   2   1   5    6.20    0.50
  -2   1  -5    6.40    0.40
   3  -1   5    0.70    0.30
   3  -1   5    0.60    0.30
  -3  -1  -5    1.50    0.30
  -3  -1  -5    1.30    0.30
   3  -1   5    1.10    0.20
  -3   1  -5    0.70    0.20
  -3   1  -5    1.20    0.20
   3   1   5    0.90    0.20
   3   1   5    1.60    0.30
   3   1   5    1.10    0.30
   4  -1   5  340.87   14.00
   4  -1   5  323.07   14.10
   4  -1   5  326.27   14.10
  -4  -1  -5  317.27   14.00
  -4  -1  -5  324.97   14.00
   4   1   5  341.27   14.10
  -4   1  -5  345.47   14.00
   4   1   5  329.17   14.00
  -4   1  -5  320.17   14.00
   4   1   5  332.97   14.10
  -4   1  -5  312.17   14.00
   5  -1   5   16.70    1.00
  -5  -1  -5   13.80    0.90
   5  -1   5   15.00    0.90
  -5  -1  -5   15.10    0.90
   5  -1   5   14.60    1.00
  -5   1  -5   13.60    0.80
   5   1   5   14.90    1.00
   5   1   5   14.70    0.90
  -5   1  -5   14.40    0.90
   5   1   5   15.50    0.90
  -5   1  -5   15.50    0.80
   6  -1   5    2.50    0.50
  -6  -1  -5    2.70    0.40
  -6  -1  -5    1.90    0.30
   6  -1   5    2.30    0.50
  -6   1  -5    2.40    0.40
  -6   1  -5    2.80    0.40
   6   1   5    2.80    0.50
   6   1   5    2.40    0.40
   7  -1   5   60.09    2.90
   7  -1   5   56.19    2.80
  -7   1  -5   57.29    2.70
   7   1   5   55.89    2.80
   7   1   5   57.99    2.90
  -7   1  -5   59.69    2.90
 -11  -2   5    2.00    0.50
  11  -2  -5    2.20    0.50
  11  -2  -5    2.00    0.50
 -11  -2   5    1.70    0.40
 -11   2   5    1.30    0.50
  11   2  -5    1.10    0.50
 -10  -2   5    5.30    0.50
  10  -2  -5    4.70    0.60
  10  -2  -5    5.50    0.60
 -10  -2   5    3.60    0.50
  10   2  -5    4.10    0.50
 -10   2   5    3.90    0.50
 -10   2   5    5.30    0.50
   9  -2  -5   52.49    2.40
  -9  -2   5   49.60    2.30
  -9  -2   5   47.80    2.40
   9  -2  -5   55.29    2.40
  -9   2   5   51.39    2.40
  -9   2   5   49.10    2.30
   9   2  -5   46.90    2.40
   8  -2  -5    3.20    0.40
  -8  -2   5    3.80    0.30
  -8  -2   5    3.30    0.50
   8  -2  -5    2.80    0.40
  -8   2   5    2.10    0.30
   8   2  -5    3.00    0.40
  -8   2   5    3.00    0.40
   8   2  -5    2.60    0.30
   7  -2  -5  504.15   23.30
  -7  -2   5  535.55   23.30
   7  -2  -5  611.34   23.40
  -7  -2   5  542.85   23.20
   7   2  -5  532.45   23.30
  -7   2   5  522.15   23.30
  -7   2   5  559.94   23.30
  -7   2   5  558.64   23.30
   7   2  -5  568.64   23.30
   6  -2  -5   36.90    1.60
   6  -2  -5   35.20    1.50
  -6  -2   5   32.50    1.50
  -6  -2   5   32.20    1.60
   6   2  -5   31.30    1.50
   6   2  -5   31.00    1.50
  -6   2   5   30.30    1.50
  -6   2   5   30.80    1.50
  -6   2   5   29.30    1.60
  -5  -2   5  105.49    4.40
  -5  -2   5  100.89    4.30
   5  -2  -5  103.19    4.40
  -5  -2   5  105.39    4.40
   5  -2  -5   94.99    4.40
  -5   2   5  109.59    4.50
  -5   2   5  101.59    4.40
   5   2  -5   99.79    4.40
  -5   2   5   99.69    4.40
   5   2  -5  100.99    4.30
   5   2  -5  104.99    4.30
  -5   2   5  101.79    4.30
   5   2  -5   88.79    4.40
  -4  -2   5  169.58    7.20
   4  -2  -5  175.98    7.30
   4  -2  -5  179.98    7.20
  -4  -2   5  166.18    7.20
  -4  -2   5  176.68    7.30
  -4  -2   5  170.08    7.30
   4  -2  -5  168.78    7.20
   4   2  -5  160.58    7.30
   4   2  -5  153.58    7.20
  -4   2   5  166.58    7.30
   4   2  -5  169.88    7.20
  -4   2   5  171.88    7.20
  -4   2   5  173.48    7.20
  -4   2   5  167.48    7.20
  -4   2   5  164.18    7.20
   4   2  -5  172.88    7.20
   3  -2  -5  520.45   20.80
  -3  -2   5  463.85   20.90
  -3  -2   5  486.75   20.90
  -3  -2   5  502.05   20.90
  -3  -2   5  481.95   20.80
   3  -2  -5  504.85   20.90
  -3  -2   5  491.85   20.80
  -3  -2   5  515.85   20.80
  -3   2   5  498.35   20.80
   3   2  -5  462.35   20.80
   3   2  -5  486.75   20.80
   3   2  -5  494.75   20.90
  -3   2   5  491.55   20.80
  -3   2   5  484.45   20.90
  -2  -2   5 1628.04   74.19
  -2  -2   5 1679.53   70.89
   2  -2  -5 1729.63   70.79
  -2  -2   5 1592.94   70.89
  -2  -2   5 1685.53   71.09
   2  -2  -5 1653.53   70.99
  -2  -2   5 1780.62   70.99
   2  -2  -5 1683.93   73.89
  -2  -2   5 1701.13   70.99
  -2   2   5 1619.44   73.49
   2   2  -5 1799.02   70.89
   2   2  -5 1656.13   70.99
   2   2  -5 1649.13   73.79
  -2   2   5 1629.04   73.99
  -2   2   5 1567.14   70.99
  -2   2   5 1700.53   70.89
  -2   2   5 1679.13   70.99
  -1  -2   5  410.96   17.50
  -1  -2   5  413.06   17.50
  -1  -2   5  424.56   17.50
  -1  -2   5  421.76   17.50
   1  -2  -5  402.06   17.50
   1   2  -5  428.46   17.50
   1   2  -5  399.76   17.40
  -1   2   5  378.96   17.50
  -1   2   5  411.26   17.50
  -1   2   5  421.76   17.50
   1   2  -5  418.86   17.50
  -1   2   5  422.46   17.50
  -1   2   5  405.16   17.50
   0  -2   5   65.09    3.00
   0  -2   5   65.69    3.00
   0  -2  -5   69.49    2.90
   0  -2  -5   72.19    3.00
   0  -2   5   66.39    3.00
   0  -2   5   68.39    2.90
   0   2   5   67.79    2.90
   0   2   5   66.49    3.00
   0   2   5   67.09    3.00
   0   2  -5   67.19    2.90
   0   2  -5   71.09    3.00
   0   2   5   67.89    3.00
   1  -2   5  286.27   11.80
  -1  -2  -5  278.87   11.70
   1  -2   5  279.77   11.80
   1  -2   5  263.17   11.80
  -1  -2  -5  288.47   11.70
  -1  -2  -5  266.37   11.80
   1   2   5  265.77   11.80
   1   2   5  276.17   11.80
  -1   2  -5  280.97   11.80
  -1   2  -5  271.37   11.70
   1   2   5  280.37   11.70
   1   2   5  280.17   11.80
  -1   2  -5  269.77   11.70
  -2  -2  -5  126.89    5.30
  -2  -2  -5  128.49    5.30
   2  -2   5  115.19    5.40
   2  -2   5  119.59    5.40
   2  -2   5  121.49    5.30
  -2   2  -5  125.49    5.30
  -2   2  -5  121.99    5.30
  -2   2  -5  129.39    5.30
   2   2   5  120.89    5.30
   2   2   5  123.39    5.30
   2   2   5  118.29    5.30
   2   2   5  124.69    5.40
  -3  -2  -5   65.19    2.90
   3  -2   5   72.29    3.00
  -3  -2  -5   62.39    2.90
   3  -2   5   66.99    3.00
   3  -2   5   65.89    2.90
   3   2   5   66.19    3.00
  -3   2  -5   66.59    2.90
  -3   2  -5   66.29    2.90
  -3   2  -5   63.09    2.90
   3   2   5   64.69    2.90
   3   2   5   67.39    3.00
   4  -2   5   49.40    2.10
   4  -2   5   42.80    2.10
  -4  -2  -5   45.30    2.00
  -4  -2  -5   42.00    2.00
   4  -2   5   44.70    2.20
   4   2   5   44.10    2.10
   4   2   5   42.50    2.10
   4   2   5   43.30    2.20
  -4   2  -5   44.60    2.10
  -4   2  -5   45.60    2.00
  -4   2  -5   43.30    2.00
   5  -2   5   39.40    2.00
  -5  -2  -5   39.00    1.80
   5  -2   5   37.10    1.80
   5  -2   5   38.00    1.90
  -5  -2  -5   40.00    1.80
  -5   2  -5   38.10    1.80
  -5   2  -5   39.20    1.80
   5   2   5   40.80    1.90
   5   2   5   38.90    2.00
  -5   2  -5   39.80    1.90
   5   2   5   38.90    1.90
   6  -2   5   31.50    1.70
  -6  -2  -5   34.00    1.60
   6  -2   5   32.10    1.70
   6   2   5   30.30    1.60
  -6   2  -5   30.50    1.60
   6   2   5   31.10    1.70
  -6   2  -5   30.50    1.60
   7  -2   5   19.40    1.30
   7   2   5   20.50    1.30
  -7   2  -5   20.50    1.20
   7   2   5   21.90    1.40
  -7   2  -5   20.10    1.50
  11  -3  -5    0.50    0.40
 -11  -3   5    0.50    0.40
  11  -3  -5    1.10    0.50
  11   3  -5    0.00    0.40
  10  -3  -5   27.40    1.60
 -10  -3   5   31.00    1.70
  10  -3  -5   30.90    1.60
  10   3  -5   29.10    1.60
 -10   3   5   29.50    1.60
   9  -3  -5   31.70    1.70
   9  -3  -5   33.80    1.60
  -9  -3   5   29.80    1.50
  -9  -3   5   34.00    1.70
   9   3  -5   32.10    1.60
   9   3  -5   33.80    1.70
  -9   3   5   32.70    1.60
  -8  -3   5  104.89    4.60
  -8  -3   5   98.99    4.40
   8  -3  -5  109.09    4.50
   8  -3  -5   95.59    4.60
  -8   3   5  101.59    4.50
   8   3  -5  101.09    4.50
   8   3  -5  104.59    4.50
  -8   3   5  106.59    4.60
  -8   3   5   97.59    4.50
   7  -3  -5  230.28   10.80
  -7  -3   5  255.77   10.70
  -7  -3   5  267.37   10.90
   7  -3  -5  248.78   10.80
  -7   3   5  251.47   10.70
  -7   3   5  259.07   10.80
  -7   3   5  247.78   10.80
   7   3  -5  258.57   10.80
   7   3  -5  245.48   10.80
  -6  -3   5   53.39    2.40
   6  -3  -5   52.19    2.30
   6  -3  -5   50.89    2.40
  -6  -3   5   53.99    2.30
   6   3  -5   52.39    2.30
  -6   3   5   53.99    2.40
   6   3  -5   52.79    2.40
  -6   3   5   47.70    2.40
  -6   3   5   51.19    2.30
   5  -3  -5    2.60    0.30
  -5  -3   5    3.00    0.30
  -5  -3   5    2.30    0.30
   5  -3  -5    3.10    0.30
  -5  -3   5    3.50    0.40
   5   3  -5    2.90    0.30
  -5   3   5    3.00    0.30
  -5   3   5    2.40    0.30
   5   3  -5    2.30    0.30
   5   3  -5    2.70    0.20
  -5   3   5    2.20    0.30
  -4  -3   5  465.35   20.10
   4  -3  -5  458.85   20.10
  -4  -3   5  468.65   20.10
   4  -3  -5  494.95   20.10
  -4  -3   5  448.36   20.10
   4   3  -5  503.75   20.10
   4   3  -5  477.85   20.10
  -4   3   5  480.75   20.10
  -4   3   5  475.45   20.10
   4   3  -5  462.85   20.10
  -4   3   5  476.25   20.10
   4   3  -5  475.15   20.00
  -3  -3   5  352.36   14.60
   3  -3  -5  321.37   14.60
   3  -3  -5  358.16   14.60
  -3  -3   5  346.97   14.60
  -3  -3   5  349.67   14.60
  -3  -3   5  363.66   14.60
  -3   3   5  346.87   14.60
  -3   3   5  356.16   14.60
   3   3  -5  330.47   14.60
   3   3  -5  335.57   14.60
  -3   3   5  336.57   14.60
  -3   3   5  337.17   14.60
   3   3  -5  338.17   14.60
  -2  -3   5  220.48    9.30
  -2  -3   5  212.08    9.30
  -2  -3   5  218.78    9.30
   2  -3  -5  226.98    9.30
   2  -3  -5  225.98    9.20
  -2  -3   5  216.48    9.30
   2  -3  -5  212.48    9.30
  -2   3   5  208.18    9.30
   2   3  -5  209.88    9.30
  -2   3   5  206.78    9.30
   2   3  -5  222.58    9.30
   2   3  -5  227.48    9.20
  -2   3   5  220.68    9.30
  -2   3   5  221.68    9.30
   2   3  -5  217.68    9.30
  -1  -3   5  326.47   14.00
  -1  -3   5  329.57   14.10
   1  -3  -5  320.87   14.00
  -1  -3   5  340.27   14.00
   1  -3  -5  331.77   14.00
  -1  -3   5  332.57   14.10
   1   3  -5  323.07   14.00
   1   3  -5  336.17   14.00
   1   3  -5  333.57   14.00
  -1   3   5  341.37   14.00
  -1   3   5  334.67   14.00
  -1   3   5  331.07   14.10
  -1   3   5  321.47   14.10
  -1   3   5  324.77   14.10
   0  -3  -5  381.26   16.00
   0  -3   5  385.66   16.00
   0  -3   5  412.56   16.10
   0  -3   5  382.96   16.10
   0  -3  -5  365.76   16.10
   0  -3   5  371.06   16.10
   0   3  -5  387.16   16.00
   0   3   5  365.16   16.10
   0   3  -5  353.36   16.00
   0   3   5  379.66   16.00
   0   3   5  377.16   16.10
   0   3  -5  370.86   16.10
   0   3   5  385.76   16.10
   1  -3   5   12.70    0.80
   1  -3   5   13.10    0.70
   1  -3   5   12.60    0.80
  -1  -3  -5   12.30    0.70
  -1  -3  -5   12.90    0.60
  -1   3  -5   12.60    0.60
  -1   3  -5   12.90    0.70
  -1   3  -5   12.60    0.70
   1   3   5   11.80    0.70
   1   3   5   12.40    0.70
   1   3   5   11.90    0.60
   1   3   5   11.20    0.70
  -2  -3  -5  282.97   11.90
   2  -3   5  282.37   12.00
  -2  -3  -5  287.47   11.90
   2  -3   5  273.77   11.90
   2  -3   5  289.17   12.00
  -2   3  -5  257.17   11.90
   2   3   5  279.47   11.90
   2   3   5  281.77   11.90
  -2   3  -5  279.17   11.90
   2   3   5  281.17   11.90
  -2   3  -5  281.17   11.90
   2   3   5  278.07   12.00
  -3  -3  -5  227.58    9.70
  -3  -3  -5  230.08    9.70
   3  -3   5  242.38    9.80
   3  -3   5  237.48    9.80
   3  -3   5  207.08    9.70
   3   3   5  229.88    9.70
  -3   3  -5  229.58    9.70
   3   3   5  224.08    9.80
   3   3   5  230.88    9.70
  -3   3  -5  221.48    9.70
   3   3   5  212.98    9.70
  -3   3  -5  233.48    9.70
   4  -3   5   39.70    1.80
   4  -3   5   39.60    1.90
  -4  -3  -5   37.10    1.80
  -4  -3  -5   37.00    1.80
   4  -3   5   36.80    1.90
  -4   3  -5   38.50    1.70
   4   3   5   36.60    1.80
  -4   3  -5   37.30    1.70
   4   3   5   38.70    1.80
   4   3   5   36.10    1.90
  -4   3  -5   36.40    1.80
  -5  -3  -5   10.50    0.70
   5  -3   5   11.60    0.90
   5  -3   5   11.70    0.90
   5  -3   5   11.20    0.70
  -5  -3  -5   11.90    0.70
   5   3   5   12.60    0.80
  -5   3  -5   11.10    0.70
  -5   3  -5   10.70    0.70
   5   3   5   11.40    0.90
  -5   3  -5   11.20    0.70
   5   3   5   10.90    0.80
   6  -3   5    8.70    0.80
  -6  -3  -5    7.20    0.70
   6  -3   5    7.50    0.80
  -6   3  -5    7.80    0.70
  -6   3  -5    7.50    0.70
   6   3   5    7.80    0.70
   6   3   5    7.30    0.80
   7  -3   5   13.30    1.10
   7  -3   5   14.60    1.10
   7   3   5   14.20    1.00
   7   3   5   12.60    1.10
  11  -4  -5    0.10    0.40
 -11  -4   5    1.00    0.50
  10  -4  -5   48.30    2.40
 -10  -4   5   51.49    2.50
 -10   4   5   47.80    2.30
  10   4  -5   47.20    2.40
   9  -4  -5   21.10    1.20
  -9  -4   5   18.10    1.20
   9  -4  -5   20.50    1.20
  -9   4   5   20.00    1.10
   9   4  -5   20.00    1.10
   9   4  -5   18.80    1.20
  -8  -4   5    1.20    0.40
   8  -4  -5    1.00    0.30
   8  -4  -5    1.80    0.30
  -8   4   5    1.20    0.30
   8   4  -5    1.50    0.40
   8   4  -5    1.30    0.30
  -8   4   5    0.70    0.30
   7  -4  -5   20.90    1.10
  -7  -4   5   20.80    1.20
   7  -4  -5   20.50    1.20
   7   4  -5   21.60    1.10
  -7   4   5   19.80    1.10
   7   4  -5   21.50    1.10
  -7   4   5   21.10    1.10
   6  -4  -5   31.20    1.30
  -6  -4   5   27.40    1.50
   6  -4  -5   28.40    1.40
   6   4  -5   27.10    1.40
  -6   4   5   29.20    1.40
   6   4  -5   27.70    1.40
  -6   4   5   27.10    1.40
   5  -4  -5   13.20    0.80
   5  -4  -5   15.00    0.70
  -5  -4   5   15.30    0.80
  -5  -4   5   14.40    0.80
  -5   4   5   14.40    0.70
  -5   4   5   14.30    0.80
   5   4  -5   13.40    0.80
   5   4  -5   14.20    0.80
   5   4  -5   14.40    0.70
  -5   4   5   14.00    0.80
  -4  -4   5   86.99    3.80
   4  -4  -5   85.49    3.80
   4   4  -5   85.79    3.70
  -4   4   5   87.79    3.80
   4   4  -5   94.59    3.80
  -4   4   5   83.39    3.80
  -4   4   5   81.69    3.80
   4   4  -5   91.09    3.80
   4   4  -5   85.29    3.80
   3  -4  -5   34.30    1.70
  -3  -4   5   36.20    1.70
  -3  -4   5   39.30    1.60
  -3  -4   5   34.50    1.70
  -3  -4   5   33.90    1.60
   3   4  -5   36.00    1.60
  -3   4   5   34.30    1.60
   3   4  -5   38.20    1.70
   3   4  -5   37.30    1.60
  -3   4   5   37.70    1.60
  -3   4   5   33.20    1.60
   3   4  -5   31.20    1.50
  -3   4   5   34.70    1.60
  -2  -4   5    3.20    0.30
  -2  -4   5    3.20    0.40
  -2  -4   5    3.10    0.30
   2  -4  -5    3.50    0.40
   2  -4  -5    2.90    0.30
   2   4  -5    3.50    0.40
  -2   4   5    3.30    0.30
  -2   4   5    3.30    0.30
   2   4  -5    3.60    0.20
   2   4  -5    3.00    0.30
  -2   4   5    3.70    0.40
  -1  -4   5   57.79    2.60
   1  -4  -5   53.99    2.50
   1  -4  -5   59.59    2.50
  -1  -4   5   56.99    2.50
  -1  -4   5   55.89    2.60
   1   4  -5   58.39    2.40
  -1   4   5   57.29    2.50
   1   4  -5   58.39    2.50
   1   4  -5   57.59    2.50
   1   4  -5   56.59    2.50
  -1   4   5   56.49    2.50
  -1   4   5   55.09    2.50
  -1   4   5   50.29    2.50
   0  -4  -5   55.99    2.40
   0  -4  -5   53.29    2.40
   0  -4   5   54.99    2.50
   0  -4   5   52.79    2.50
   0  -4   5   55.59    2.40
   0   4   5   51.99    2.40
   0   4  -5   53.79    2.40
   0   4   5   54.69    2.40
   0   4   5   53.19    2.40
   0   4  -5   54.39    2.40
   0   4  -5   57.19    2.40
   1  -4   5   57.29    2.50
   1  -4   5   56.09    2.50
   1  -4   5   60.99    2.60
  -1  -4  -5   52.49    2.50
  -1  -4  -5   52.99    2.40
   1   4   5   53.99    2.50
  -1   4  -5   55.29    2.50
  -1   4  -5   55.09    2.50
   1   4   5   53.69    2.50
  -1   4  -5   58.59    2.40
   1   4   5   52.29    2.50
   2  -4   5   34.40    1.70
   2  -4   5   33.80    1.60
  -2  -4  -5   28.40    1.60
   2  -4   5   32.50    1.70
  -2  -4  -5   38.60    1.60
  -2   4  -5   35.50    1.60
   2   4   5   35.30    1.70
   2   4   5   35.50    1.60
  -2   4  -5   35.00    1.60
  -2   4  -5   34.30    1.60
   2   4   5   35.50    1.60
   3  -4   5   18.90    1.10
   3  -4   5   19.20    1.10
  -3  -4  -5   19.60    1.00
   3  -4   5   20.00    1.00
  -3  -4  -5   18.70    1.00
   3   4   5   18.50    1.10
  -3   4  -5   20.60    1.00
   3   4   5   17.60    1.00
   3   4   5   19.90    1.00
  -3   4  -5   20.30    1.00
  -4  -4  -5    0.20    0.20
   4  -4   5    0.20    0.30
   4  -4   5    0.10    0.30
  -4  -4  -5    0.20    0.20
  -4   4  -5   -0.10    0.20
  -4   4  -5    0.20    0.20
  -4   4  -5   -0.10    0.20
   4   4   5   -0.10    0.30
   4   4   5   -0.20    0.20
   4   4   5    0.40    0.30
   5  -4   5    9.00    0.80
   5  -4   5    9.80    0.80
  -5  -4  -5    8.70    0.70
  -5   4  -5    9.30    0.70
  -5   4  -5    9.30    0.70
  -5   4  -5    9.10    0.60
   5   4   5   10.10    0.70
   5   4   5    9.60    0.90
   6  -4   5   24.60    1.50
   6  -4   5   25.90    1.50
  -6  -4  -5   25.50    1.40
  -6   4  -5   27.20    1.30
   6   4   5   26.50    1.50
  -6   4  -5   26.10    1.40
   7  -4   5   36.60    2.20
   7   4   5   35.80    2.10
 -10  -5   5  183.58    8.40
  10  -5  -5  190.88    8.40
  10   5  -5  193.98    8.30
  10   5  -5  192.78    8.40
   9  -5  -5   16.10    1.10
  -9  -5   5   15.10    1.10
  -9   5   5   17.60    1.00
   9   5  -5   18.60    1.10
   9   5  -5   17.00    1.10
  -9   5   5   17.00    1.00
   8  -5  -5    1.30    0.40
  -8  -5   5    1.10    0.40
   8   5  -5    1.20    0.40
   8   5  -5    1.10    0.30
  -8   5   5    1.00    0.30
  -8   5   5    1.80    0.30
  -7  -5   5   20.10    1.20
   7  -5  -5   18.60    1.10
  -7   5   5   19.40    1.10
   7   5  -5   19.70    1.10
  -7   5   5   21.00    1.10
   7   5  -5   20.10    1.10
   6  -5  -5   27.00    1.40
  -6  -5   5   25.00    1.40
   6   5  -5   26.40    1.30
   6   5  -5   21.50    1.30
  -6   5   5   25.70    1.30
  -6   5   5   27.20    1.30
  -5  -5   5  166.78    6.90
  -5  -5   5  176.98    6.90
   5  -5  -5  147.29    6.90
  -5   5   5  165.28    6.80
   5   5  -5  155.48    6.80
   5   5  -5  157.08    6.90
  -5   5   5  156.38    6.90
   5   5  -5  146.09    6.90
  -5   5   5  165.48    6.90
  -4  -5   5   31.60    1.50
   4  -5  -5   31.30    1.50
  -4  -5   5   34.00    1.50
   4   5  -5   31.40    1.40
  -4   5   5   31.20    1.50
  -4   5   5   29.00    1.40
   4   5  -5   28.20    1.50
  -4   5   5   30.40    1.50
   4   5  -5   27.60    1.50
  -3  -5   5  222.08    9.50
  -3  -5   5  237.48    9.50
   3  -5  -5  187.68    9.50
   3   5  -5  213.38    9.40
  -3   5   5  208.68    9.50
   3   5  -5  237.38    9.50
  -3   5   5  230.58    9.40
   3   5  -5  228.98    9.40
  -3   5   5  223.48    9.50
  -2  -5   5  765.62   31.50
   2  -5  -5  824.02   31.40
   2  -5  -5  707.53   31.50
  -2  -5   5  770.02   31.50
  -2  -5   5  719.13   31.40
   2   5  -5  684.33   31.40
  -2   5   5  714.63   31.40
  -2   5   5  763.12   31.40
  -2   5   5  742.23   31.50
   2   5  -5  707.33   31.40
   2   5  -5  754.12   31.40
  -2   5   5  754.52   31.40
  -1  -5   5   90.99    4.00
  -1  -5   5   90.69    3.90
   1  -5  -5   79.79    3.90
  -1  -5   5   96.69    4.00
   1  -5  -5   86.29    3.90
  -1   5   5   86.39    3.90
   1   5  -5   91.39    3.90
  -1   5   5   90.99    3.90
   1   5  -5   91.19    3.90
  -1   5   5   93.79    3.90
  -1   5   5   92.49    3.90
   1   5  -5   86.29    3.90
   0  -5   5   41.70    1.90
   0  -5   5   41.60    1.80
   0  -5  -5   41.00    1.90
   0  -5   5   43.50    1.90
   0  -5  -5   36.90    1.90
   0   5   5   43.80    1.90
   0   5  -5   41.20    1.80
   0   5   5   40.70    1.90
   0   5   5   38.60    1.90
   0   5  -5   39.90    1.80
   0   5  -5   38.70    1.90
  -1  -5  -5   11.40    0.70
  -1  -5  -5   11.90    0.70
   1  -5   5   11.10    0.70
   1  -5   5   12.60    0.80
  -1   5  -5   11.70    0.70
   1   5   5   10.80    0.70
   1   5   5   11.70    0.70
   1   5   5   10.90    0.70
  -1   5  -5   12.00    0.70
   2  -5   5   32.20    1.60
  -2  -5  -5   31.10    1.50
  -2  -5  -5   32.30    1.50
   2  -5   5   32.00    1.60
   2   5   5   32.60    1.60
  -2   5  -5   31.30    1.50
   2   5   5   31.10    1.60
   2   5   5   35.70    1.60
  -2   5  -5   32.30    1.60
  -2   5  -5   33.40    1.50
  -3  -5  -5    6.70    0.60
  -3  -5  -5    6.70    0.50
   3  -5   5    6.80    0.70
   3   5   5    6.40    0.60
  -3   5  -5    6.00    0.50
  -3   5  -5    6.40    0.60
   3   5   5    6.70    0.60
   3   5   5    6.70    0.60
  -3   5  -5    5.90    0.50
  -4  -5  -5   80.39    3.70
  -4  -5  -5   83.99    3.70
   4  -5   5   87.79    3.80
   4  -5   5   85.19    3.80
   4   5   5   80.49    3.70
  -4   5  -5   80.79    3.70
   4   5   5   81.09    3.80
   4   5   5   85.19    3.70
  -4   5  -5   84.99    3.70
  -4   5  -5   84.29    3.70
   5  -5   5   41.60    2.20
   5  -5   5   46.80    2.20
  -5  -5  -5   40.20    2.10
   5   5   5   45.50    2.10
  -5   5  -5   44.70    2.00
  -5   5  -5   42.50    2.10
   5   5   5   43.00    2.20
  -5   5  -5   44.00    2.00
   6  -5   5    0.10    0.40
  -6  -5  -5    0.60    0.30
   6  -5   5    0.70    0.40
  -6   5  -5    0.20    0.30
  -6   5  -5    0.90    0.50
   6   5   5    0.20    0.40
  10  -6  -5    7.30    0.90
 -10  -6   5    8.00    1.00
  10   6  -5   10.10    0.90
  10   6  -5    7.70    1.00
   9  -6  -5  237.68   10.00
  -9  -6   5  222.48   10.00
   9   6  -5  229.68   10.00
  -9   6   5  231.58    9.90
   9   6  -5  228.28   10.00
  -9   6   5  226.38    9.90
   8  -6  -5  124.29    5.40
  -8  -6   5  121.69    5.50
  -8   6   5  115.29    5.30
   8   6  -5  129.19    5.40
  -8   6   5  120.89    5.40
   8   6  -5  118.79    5.40
   7  -6  -5    1.90    0.40
  -7  -6   5    1.20    0.40
   7   6  -5    1.90    0.40
   7   6  -5    2.00    0.40
  -7   6   5    2.00    0.30
  -7   6   5    1.50    0.30
  -6  -6   5   34.50    1.80
   6  -6  -5   36.00    1.80
  -6   6   5   36.50    1.70
   6   6  -5   36.20    1.80
  -6   6   5   35.50    1.70
   6   6  -5   35.70    1.70
  -5  -6   5  343.77   15.20
   5  -6  -5  360.96   15.20
  -5  -6   5  356.46   15.20
   5   6  -5  346.67   15.10
  -5   6   5  372.46   15.20
   5   6  -5  341.17   15.20
  -5   6   5  355.06   15.20
  -5   6   5  367.86   15.10
  -4  -6   5   17.80    1.00
   4  -6  -5   19.30    1.10
  -4  -6   5   17.10    1.00
  -4   6   5   17.40    1.00
  -4   6   5   19.00    1.00
   4   6  -5   17.30    0.90
   4   6  -5   18.40    1.00
   4   6  -5   18.70    1.00
  -4   6   5   18.20    0.90
   3  -6  -5   12.30    0.70
  -3  -6   5   11.40    0.70
  -3  -6   5   11.50    0.80
   3   6  -5   11.50    0.70
   3   6  -5   10.90    0.60
  -3   6   5   10.70    0.70
  -3   6   5   12.40    0.70
  -3   6   5   11.60    0.70
   2  -6  -5    3.10    0.30
   2  -6  -5    2.30    0.30
  -2  -6   5    2.10    0.30
  -2  -6   5    2.80    0.40
  -2  -6   5    2.20    0.30
   2   6  -5    2.90    0.30
  -2   6   5    3.00    0.30
   2   6  -5    2.00    0.30
   2   6  -5    2.40    0.30
  -2   6   5    2.80    0.30
  -2   6   5    2.60    0.30
  -1  -6   5  237.28   10.10
   1  -6  -5  221.88   10.10
   1  -6  -5  249.68   10.10
  -1  -6   5  230.88   10.00
  -1  -6   5  243.58   10.10
  -1   6   5  245.98   10.10
   1   6  -5  235.48   10.00
   1   6  -5  233.68   10.00
  -1   6   5  228.78   10.00
  -1   6   5  231.88   10.10
  -1   6   5  235.38   10.00
   1   6  -5  225.38   10.10
   0  -6  -5  511.15   21.10
   0  -6   5  494.25   21.10
   0  -6   5  482.75   21.20
   0  -6  -5  519.65   21.20
   0  -6   5  470.65   21.20
   0   6  -5  516.35   21.10
   0   6  -5  471.95   21.10
   0   6   5  487.25   21.20
   0   6   5  512.05   21.20
   0   6  -5  508.05   21.20
   0   6   5  501.95   21.20
   1  -6   5   82.99    3.70
  -1  -6  -5   76.69    3.60
   1  -6   5   79.89    3.70
  -1  -6  -5   81.99    3.60
  -1   6  -5   77.49    3.60
   1   6   5   81.19    3.60
  -1   6  -5   85.49    3.60
  -1   6  -5   82.69    3.60
   1   6   5   81.79    3.60
   1   6   5   85.89    3.60
  -2  -6  -5   84.09    4.00
   2  -6   5   90.99    4.10
   2  -6   5   91.79    4.10
  -2  -6  -5   90.79    4.00
   2   6   5   89.29    4.00
   2   6   5   91.99    4.10
  -2   6  -5   94.29    4.00
  -2   6  -5   89.09    4.00
   2   6   5   93.09    4.00
   3  -6   5   34.50    1.60
   3  -6   5   30.30    1.60
  -3  -6  -5   31.90    1.50
  -3  -6  -5   28.80    1.50
  -3   6  -5   29.80    1.50
  -3   6  -5   31.60    1.50
   3   6   5   29.60    1.60
   3   6   5   31.50    1.50
   3   6   5   31.00    1.50
  -4  -6  -5    8.90    0.60
   4  -6   5    8.00    0.80
   4  -6   5    8.60    0.80
   4   6   5    9.50    0.70
  -4   6  -5    8.60    0.70
  -4   6  -5    8.60    0.60
   4   6   5    9.80    0.80
  -5  -6  -5    0.40    0.30
   5  -6   5    0.40    0.40
   5  -6   5    0.40    0.40
  -5   6  -5    0.70    0.30
   5   6   5    0.60    0.30
   5   6   5    0.30    0.40
  -5   6  -5    0.10    0.30
   6  -6   5   80.69    3.90
   6   6   5   85.69    4.00
   9  -7  -5   17.80    1.20
  -9  -7   5   17.60    1.30
   9   7  -5   18.20    1.20
  -9   7   5   17.30    1.10
   9   7  -5   16.40    1.20
  -8  -7   5   31.60    1.80
   8  -7  -5   34.30    1.80
  -8   7   5   32.20    1.70
   8   7  -5   33.60    1.70
  -8   7   5   31.20    1.60
   8   7  -5   31.90    1.70
   7  -7  -5    3.80    0.50
  -7  -7   5    3.70    0.50
   7   7  -5    3.80    0.50
  -7   7   5    3.70    0.40
  -7   7   5    3.70    0.50
   7   7  -5    3.50    0.40
  -6  -7   5   -0.10    0.30
   6  -7  -5    0.30    0.30
  -6   7   5    0.40    0.30
   6   7  -5    0.40    0.30
   6   7  -5    0.20    0.30
  -6   7   5    0.10    0.30
  -5  -7   5    3.70    0.50
  -5  -7   5    5.00    0.50
   5  -7  -5    6.20    0.60
   5   7  -5    4.90    0.40
   5   7  -5    4.20    0.50
   5   7  -5    4.80    0.50
  -5   7   5    5.00    0.50
  -5   7   5    5.00    0.40
  -5   7   5    5.40    0.50
   4  -7  -5    1.80    0.40
  -4  -7   5    1.80    0.40
  -4  -7   5    1.30    0.30
   4   7  -5    0.90    0.30
   4   7  -5    1.60    0.30
  -4   7   5    1.00    0.30
   4   7  -5    1.50    0.30
  -4   7   5    1.40    0.30
  -4   7   5    1.50    0.30
  -3  -7   5   96.09    4.20
  -3  -7   5   93.89    4.20
   3  -7  -5   91.39    4.20
   3   7  -5   93.49    4.20
  -3   7   5   96.19    4.20
   3   7  -5   96.79    4.20
  -3   7   5   98.29    4.20
  -3   7   5   97.39    4.20
   3   7  -5   91.89    4.10
   2  -7  -5  500.55   20.70
   2  -7  -5  418.56   20.70
  -2  -7   5  480.55   20.70
  -2  -7   5  498.95   20.70
  -2   7   5  490.05   20.70
   2   7  -5  494.15   20.70
   2   7  -5  512.15   20.60
  -2   7   5  485.25   20.70
   2   7  -5  483.35   20.60
  -2   7   5  501.85   20.70
   1  -7  -5   47.30    2.30
  -1  -7   5   47.40    2.30
  -1  -7   5   50.39    2.30
   1  -7  -5   49.60    2.30
  -1  -7   5   49.10    2.30
  -1   7   5   47.30    2.30
   1   7  -5   52.89    2.30
   1   7  -5   51.59    2.30
  -1   7   5   52.29    2.30
  -1   7   5   48.70    2.30
   1   7  -5   49.10    2.20
  -1   7   5   49.60    2.40
   0  -7  -5    4.00    0.40
   0  -7  -5    4.40    0.50
   0  -7   5    3.00    0.40
   0  -7   5    3.20    0.40
   0  -7   5    4.50    0.40
   0   7  -5    3.60    0.40
   0   7  -5    4.20    0.40
   0   7   5    3.20    0.40
   0   7   5    3.30    0.40
   0   7  -5    3.10    0.30
   0   7   5    3.80    0.40
   1  -7   5   17.00    1.00
  -1  -7  -5   17.50    0.90
   1  -7   5   17.20    1.10
  -1  -7  -5   17.60    1.00
  -1   7  -5   18.10    1.00
  -1   7  -5   15.80    0.90
   1   7   5   18.00    1.00
   1   7   5   17.00    1.00
   1   7   5   16.40    1.00
  -1   7  -5   16.60    0.90
   2  -7   5    6.50    0.60
  -2  -7  -5    7.40    0.60
   2  -7   5    6.50    0.70
  -2  -7  -5    6.60    0.60
   2   7   5    6.80    0.60
  -2   7  -5    5.90    0.60
  -2   7  -5    6.60    0.60
   2   7   5    7.90    0.60
  -2   7  -5    7.00    0.50
   2   7   5    6.60    0.60
  -3  -7  -5    3.70    0.40
   3  -7   5    4.00    0.50
  -3  -7  -5    5.10    0.70
   3  -7   5    3.60    0.50
   3   7   5    4.10    0.40
  -3   7  -5    3.70    0.40
   3   7   5    4.00    0.40
  -3   7  -5    3.70    0.40
   3   7   5    4.20    0.50
  -3   7  -5    4.10    0.50
   4  -7   5    6.20    0.70
   4  -7   5    6.30    0.70
  -4  -7  -5    4.70    0.50
  -4   7  -5    5.80    0.60
   4   7   5    6.10    0.60
  -4   7  -5    5.70    0.60
   4   7   5    4.70    0.60
  -5  -7  -5  119.49    5.60
   5  -7   5  128.69    5.80
  -5   7  -5  129.09    5.60
   5   7   5  134.29    5.70
   5   7   5  129.29    5.80
   9  -8  -5   39.40    2.10
  -8  -8   5  107.09    4.90
   8  -8  -5  107.99    4.80
   8   8  -5  103.99    4.80
  -8   8   5  108.29    4.80
  -8   8   5  106.19    4.80
   8   8  -5  103.79    4.80
   7  -8  -5   69.29    3.00
  -7  -8   5   57.49    3.00
  -7   8   5   60.59    2.90
   7   8  -5   60.99    2.90
  -7   8   5   62.19    2.90
   7   8  -5   64.29    3.00
   6  -8  -5    7.80    0.70
  -6  -8   5    8.20    0.80
   6   8  -5    8.60    0.80
   6   8  -5    7.60    0.70
  -6   8   5    7.50    0.70
  -6   8   5    7.60    0.70
   5  -8  -5   12.30    0.90
  -5  -8   5   10.80    0.80
  -5  -8   5   11.30    0.90
   5   8  -5   11.10    0.80
   5   8  -5   11.40    0.70
  -5   8   5   11.30    0.80
   5   8  -5   12.20    0.80
  -5   8   5   10.30    0.80
  -5   8   5   11.50    0.70
  -4  -8   5    3.40    0.50
  -4  -8   5    4.00    0.50
   4  -8  -5    4.20    0.50
   4   8  -5    5.40    0.50
  -4   8   5    3.90    0.40
  -4   8   5    4.90    0.50
   4   8  -5    4.80    0.50
   4   8  -5    4.60    0.50
  -4   8   5    4.20    0.40
  -3  -8   5   32.80    1.50
   3  -8  -5   32.60    1.50
  -3  -8   5   28.30    1.50
  -3   8   5   27.50    1.50
  -3   8   5   30.30    1.40
   3   8  -5   28.30    1.50
   3   8  -5   29.00    1.50
   3   8  -5   27.20    1.40
  -3   8   5   30.90    1.50
   2  -8  -5    0.70    0.30
   2  -8  -5    1.00    0.30
  -2  -8   5    1.00    0.30
  -2  -8   5    1.00    0.40
  -2   8   5    0.30    0.20
   2   8  -5    0.50    0.30
  -2   8   5    0.40    0.30
  -2   8   5    0.00    0.30
   2   8  -5    0.40    0.30
   1  -8  -5    2.40    0.30
  -1  -8   5    2.60    0.30
  -1  -8   5    2.60    0.40
   1  -8  -5    2.60    0.40
   1   8  -5    2.70    0.30
  -1   8   5    2.40    0.40
   1   8  -5    1.60    0.30
  -1   8   5    2.50    0.30
  -1   8   5    3.30    0.40
   1   8  -5    2.00    0.30
   0  -8  -5   22.30    1.20
   0  -8   5   23.10    1.40
   0  -8   5   22.20    1.30
   0  -8   5   23.70    1.30
   0  -8  -5   23.10    1.20
   0   8   5   23.00    1.20
   0   8  -5   23.00    1.20
   0   8   5   22.60    1.20
   0   8   5   22.70    1.20
   0   8  -5   21.80    1.20
   0   8  -5   23.30    1.20
  -1  -8  -5   36.70    1.70
   1  -8   5   35.10    1.70
  -1  -8  -5   31.50    1.70
   1  -8   5   35.40    1.80
  -1   8  -5   36.20    1.70
   1   8   5   33.70    1.70
   1   8   5   37.20    1.70
   1   8   5   33.30    1.70
  -1   8  -5   31.90    1.70
  -1   8  -5   33.40    1.60
   2  -8   5   41.90    2.20
  -2  -8  -5   45.50    2.10
  -2  -8  -5   47.20    2.20
   2  -8   5   46.70    2.20
   2   8   5   44.50    2.20
  -2   8  -5   42.70    2.10
  -2   8  -5   50.09    2.20
  -2   8  -5   46.20    2.10
   2   8   5   42.90    2.20
   2   8   5   45.10    2.20
   3  -8   5    3.10    0.50
  -3  -8  -5    3.20    0.40
   3  -8   5    3.50    0.50
   3   8   5    3.70    0.40
  -3   8  -5    4.20    0.50
   3   8   5    3.50    0.50
  -3   8  -5    3.70    0.40
  -3   8  -5    4.10    0.50
   4  -8   5   87.59    4.50
  -4  -8  -5  103.69    4.40
   4   8   5  107.19    4.50
  -4   8  -5   99.29    4.40
   4   8   5   98.39    4.50
  -4   8  -5   98.39    4.40
   5  -8   5   22.00    1.40
   5   8   5   22.90    1.40
   5   8   5   22.50    1.30
  -5   8  -5   19.80    1.30
   8  -9  -5   21.40    1.40
   8   9  -5   24.00    1.40
   7  -9  -5   43.80    2.10
  -7  -9   5   36.90    2.10
   7   9  -5   39.60    2.00
  -7   9   5   43.60    2.20
   7   9  -5   37.80    2.00
  -7   9   5   40.20    2.00
  -6  -9   5    0.60    0.40
   6  -9  -5    0.00    0.40
   6   9  -5    0.50    0.40
  -6   9   5    0.60    0.40
  -6   9   5    0.00    0.30
   6   9  -5   -0.30    0.40
  -5  -9   5   71.69    3.50
   5  -9  -5   70.99    3.50
  -5  -9   5   78.79    3.50
   5   9  -5   75.29    3.40
   5   9  -5   74.79    3.40
   5   9  -5   76.39    3.50
  -5   9   5   79.29    3.50
  -5   9   5   75.89    3.40
  -4  -9   5  108.19    5.00
   4  -9  -5  104.49    5.00
  -4  -9   5  109.69    5.00
  -4   9   5  113.49    5.00
   4   9  -5  111.69    4.90
  -4   9   5  109.09    4.90
   4   9  -5  117.39    5.00
   4   9  -5  115.49    5.00
  -4   9   5  113.39    4.90
   3  -9  -5   67.99    3.00
  -3  -9   5   62.39    3.00
  -3  -9   5   65.19    3.00
   3   9  -5   66.29    3.00
  -3   9   5   64.89    2.90
  -3   9   5   63.79    3.00
   3   9  -5   61.29    3.00
  -3   9   5   63.29    2.90
   3   9  -5   63.89    2.90
  -2  -9   5   55.99    2.60
  -2  -9   5   54.39    2.60
   2  -9  -5   54.49    2.60
   2  -9  -5   47.10    2.50
   2   9  -5   58.09    2.50
   2   9  -5   58.19    2.60
  -2   9   5   52.29    2.50
  -2   9   5   59.89    2.50
  -2   9   5   53.59    2.60
  -1  -9   5   38.90    2.10
   1  -9  -5   48.30    2.00
   1  -9  -5   45.20    2.10
  -1  -9   5   43.60    2.10
  -1   9   5   43.50    2.10
   1   9  -5   41.50    2.00
  -1   9   5   44.70    2.10
   1   9  -5   42.10    2.10
   0  -9  -5   30.00    1.60
   0  -9  -5   28.50    1.50
   0  -9   5   29.80    1.60
   0   9   5   29.90    1.50
   0   9   5   29.90    1.50
   0   9  -5   28.60    1.50
   0   9  -5   30.10    1.50
   0   9  -5   29.80    1.50
  -1  -9  -5   11.80    0.90
  -1  -9  -5   11.40    0.80
   1  -9   5   10.80    0.80
   1  -9   5   11.10    0.90
   1   9   5   11.70    0.80
   1   9   5   12.70    0.80
   1   9   5   12.40    0.80
  -1   9  -5   12.30    0.80
  -1   9  -5   11.20    0.80
  -1   9  -5   11.20    0.80
  -2  -9  -5  137.49    6.10
  -2  -9  -5  151.68    6.10
   2  -9   5  132.99    6.20
   2  -9   5  129.99    6.10
  -2   9  -5  137.09    6.10
  -2   9  -5  136.89    6.00
   2   9   5  139.29    6.10
  -2   9  -5  139.19    6.10
   2   9   5  140.89    6.10
   3  -9   5   98.99    4.40
  -3   9  -5   96.99    4.20
   3   9   5   93.89    4.30
   3   9   5   91.99    4.30
  -3   9  -5   93.79    4.30
   4  -9   5    2.00    0.50
  -4   9  -5    2.80    0.40
   4   9   5    3.80    0.60
   4   9   5    2.70    0.40
   7  10  -5  207.68    9.10
  -6 -10   5   28.10    1.70
   6 -10  -5   31.40    1.70
   6  10  -5   26.40    1.60
   6  10  -5   28.00    1.60
  -5 -10   5   21.30    1.30
   5 -10  -5   24.40    1.40
  -5 -10   5   22.60    1.40
   5  10  -5   24.40    1.20
  -5  10   5   22.30    1.30
  -5  10   5   25.60    1.60
   5  10  -5   21.80    1.40
   5  10  -5   24.70    1.30
   4 -10  -5   87.59    4.40
  -4 -10   5  107.59    4.40
  -4 -10   5   93.49    4.40
  -4  10   5   92.29    4.30
   4  10  -5   92.39    4.30
   4  10  -5  101.19    4.30
   4  10  -5   99.59    4.30
  -4  10   5   92.99    4.20
  -3 -10   5   82.49    3.70
  -3 -10   5   85.39    3.70
   3 -10  -5   77.39    3.70
   3  10  -5   67.49    3.60
   3  10  -5   81.89    3.60
  -3  10   5   80.79    3.70
   3  10  -5   91.09    3.70
  -3  10   5   79.09    3.60
   2 -10  -5   32.50    1.70
  -2 -10   5   31.20    1.70
  -2 -10   5   34.40    1.70
   2  10  -5   30.20    1.60
  -2  10   5   28.30    1.60
   2  10  -5   32.50    1.70
  -2  10   5   32.30    1.70
   1 -10  -5    8.20    0.80
  -1 -10   5    7.50    0.70
  -1 -10   5    8.10    0.80
  -1  10   5    7.90    0.70
   1  10  -5    7.90    0.70
   1  10  -5    9.10    0.80
   0 -10   5   21.30    1.30
   0 -10  -5   22.50    1.30
   0  10  -5   21.50    1.20
   0  10   5   20.90    1.20
   0  10  -5   19.60    1.20
   0  10   5   20.70    1.20
   0  10  -5   22.00    1.20
  -1 -10  -5    1.70    0.40
   1 -10   5    2.00    0.50
  -1  10  -5    2.00    0.40
   1  10   5    1.80    0.40
  -1  10  -5    1.70    0.40
  -1  10  -5    1.90    0.40
  -2 -10  -5   97.49    4.50
   2 -10   5  105.69    4.60
   2  10   5   94.79    4.50
  -2  10  -5  101.79    4.50
   2  10   5  102.39    4.80
  -2  10  -5   98.29    4.40
   3 -10   5  152.58    6.90
   3  10   5  148.99    6.80
  -3  10  -5  162.28    6.80
   3  10   5  158.48    6.90
   6  11  -5    0.40    0.40
  -5 -11   5    2.50    0.60
   5 -11  -5    2.50    0.60
   5  11  -5    2.20    0.50
   5  11  -5    2.90    0.40
   5  11  -5    3.00    0.50
  -4 -11   5   43.30    2.30
  -4 -11   5   45.90    2.20
   4  11  -5   44.40    2.20
  -4  11   5   44.20    2.10
   4  11  -5   46.10    2.10
   4  11  -5   42.10    2.20
  -3 -11   5    1.40    0.40
   3 -11  -5    1.10    0.50
  -3 -11   5    1.10    0.40
  -3  11   5    1.60    0.50
   3  11  -5    1.50    0.40
   3  11  -5    0.90    0.40
   3  11  -5    1.60    0.40
  -3  11   5    1.00    0.30
  -2 -11   5    0.40    0.40
   2 -11  -5    0.40    0.40
  -2 -11   5    0.40    0.40
   2  11  -5    0.50    0.40
   2  11  -5    0.50    0.30
  -2  11   5    0.50    0.30
  -2  11   5    0.40    0.40
   2  11  -5    0.40    0.40
   1 -11  -5   80.89    3.70
  -1 -11   5   68.29    3.80
  -1 -11   5   80.59    3.60
  -1  11   5   76.99    3.60
  -1  11   5   78.69    3.60
   1  11  -5   81.39    3.60
   1  11  -5   76.49    3.50
   0 -11   5   17.60    1.20
   0 -11  -5   17.90    1.20
   0  11   5   20.00    1.10
   0  11  -5   16.90    1.10
   0  11   5   16.10    1.10
   0  11  -5   15.60    1.00
   1 -11   5    8.20    0.90
  -1 -11  -5    9.30    0.90
  -1  11  -5    8.30    0.80
   1  11   5    9.30    0.80
  -1  11  -5   10.40    0.80
   2 -11   5   -0.30    0.40
  -2 -11  -5    0.60    0.40
  -2 -12   5    4.20    0.60
   2  12  -5    3.00    0.60
   1  12  -5   65.99    3.10
 -11   0   6   44.30    2.30
  11   0  -6   46.90    2.30
 -11   0   6   40.90    2.30
  11   0  -6   43.90    2.20
 -10   0   6   26.60    1.60
  10   0  -6   27.30    1.50
 -10   0   6   26.70    1.40
  10   0  -6   28.60    1.60
  -9   0   6  150.18    6.30
   9   0  -6  134.59    6.40
  -9   0   6  144.59    6.50
   9   0  -6  153.08    6.40
   8   0  -6   17.30    0.90
  -8   0   6   15.30    0.90
  -8   0   6   15.60    1.00
   8   0  -6   13.40    0.90
  -7   0   6 1435.36   54.39
   7   0  -6 1169.48   54.29
  -7   0   6 1245.68   54.29
  -6   0   6  220.38    9.70
  -6   0   6  220.98    9.70
   6   0  -6  240.48    9.60
  -6   0   6  228.88    9.60
   6   0  -6  220.48    9.70
   5   0  -6  314.27   13.80
  -5   0   6  319.77   13.80
  -5   0   6  320.27   13.80
   5   0  -6  344.87   13.70
  -5   0   6  322.67   13.70
  -5   0   6  309.37   13.80
   5   0  -6  337.47   13.80
  -4   0   6  400.76   16.40
  -4   0   6  387.46   16.50
   4   0  -6  395.16   16.40
   4   0  -6  380.86   16.40
  -4   0   6  397.56   16.40
  -4   0   6  400.96   16.40
  -4   0   6  346.87   16.40
  -4   0   6  383.96   16.40
  -3   0   6   73.59    3.10
   3   0  -6   74.19    3.10
  -3   0   6   70.69    3.10
  -3   0   6   72.49    3.20
  -3   0   6   68.29    3.10
   3   0  -6   71.09    3.20
  -3   0   6   72.89    3.20
  -3   0   6   72.89    3.20
  -2   0   6  586.74   25.70
   2   0  -6  599.04   25.70
  -2   0   6  612.64   25.70
  -2   0   6  609.94   25.70
  -2   0   6  606.24   25.70
   2   0  -6  585.84   25.70
  -2   0   6  622.24   25.70
  -2   0   6  631.74   25.70
   2   0  -6  605.24   25.70
   1   0  -6    1.00    0.20
   1   0  -6    1.20    0.20
  -1   0   6    1.10    0.20
   1   0  -6    1.00    0.20
  -1   0   6    1.70    0.30
  -1   0   6    0.90    0.20
  -1   0   6    1.00    0.20
   0   0   6   34.10    1.60
   0   0   6   33.90    1.60
   0   0  -6   34.10    1.60
   0   0   6   34.80    1.70
   0   0  -6   34.60    1.60
   0   0  -6   37.10    1.50
   0   0   6   34.80    1.60
   1   0   6  230.38    9.80
   1   0   6  231.58    9.70
   1   0   6  226.48    9.70
  -1   0  -6  224.48    9.70
   1   0   6  227.28    9.70
  -1   0  -6  225.38    9.70
   2   0   6  141.29    6.20
  -2   0  -6  144.69    6.10
  -2   0  -6  141.79    6.10
   2   0   6  139.19    6.10
   2   0   6  141.19    6.20
   3   0   6   19.80    1.10
  -3   0  -6   20.10    1.00
   3   0   6   18.50    1.10
   3   0   6   20.30    1.00
  -3   0  -6   18.30    1.00
   4   0   6  513.85   21.60
  -4   0  -6  502.55   21.50
   4   0   6  497.55   21.60
  -4   0  -6  496.55   21.50
   4   0   6  518.45   21.50
   5   0   6  251.67   10.80
  -5   0  -6  246.78   10.70
   5   0   6  255.97   10.70
   5   0   6  239.78   10.80
  -5   0  -6  250.37   10.70
   6   0   6   99.69    4.50
  -6   0  -6   99.49    4.40
  -6   0  -6   96.79    4.40
   6   0   6   99.89    4.60
   7   0   6   49.30    2.70
   7   0   6   49.99    2.50
  11  -1  -6   30.30    1.70
 -11  -1   6   33.10    1.90
  11  -1  -6   34.30    1.80
 -11  -1   6   30.50    1.60
  11   1  -6   31.50    1.70
 -11   1   6   34.60    1.80
  11   1  -6   31.70    1.80
  10  -1  -6  216.18    8.90
  10  -1  -6  201.78    8.80
 -10  -1   6  192.18    8.90
 -10  -1   6  200.38    8.70
  10   1  -6  194.28    8.80
 -10   1   6  205.78    8.90
 -10   1   6  190.98    8.70
  10   1  -6  217.78    8.90
  -9  -1   6  276.77   11.40
   9  -1  -6  244.48   11.40
  -9  -1   6  227.68   11.50
   9  -1  -6  281.07   11.50
  -9   1   6  271.07   11.40
   9   1  -6  283.17   11.50
  -9   1   6  275.57   11.50
   8  -1  -6    6.30    0.60
  -8  -1   6    5.90    0.60
   8  -1  -6    6.20    0.70
  -8  -1   6    5.70    0.50
  -8   1   6    6.50    0.60
  -8   1   6    5.50    0.60
   8   1  -6    6.80    0.60
   7  -1  -6    4.10    0.50
  -7  -1   6    5.10    0.50
  -7  -1   6    4.50    0.50
   7  -1  -6    5.40    0.50
   7   1  -6    5.00    0.40
  -7   1   6    5.40    0.40
  -7   1   6    5.70    0.50
   7   1  -6    5.40    0.50
  -7   1   6    4.40    0.50
   6  -1  -6   66.49    2.90
  -6  -1   6   66.89    2.90
  -6  -1   6   60.59    3.00
   6  -1  -6   62.09    3.00
  -6   1   6   70.69    2.90
   6   1  -6   64.19    2.90
  -6   1   6   67.69    3.00
   6   1  -6   69.29    2.90
  -6   1   6   64.59    2.90
  -5  -1   6  132.19    5.80
   5  -1  -6  134.09    5.80
  -5  -1   6  141.59    5.80
   5  -1  -6  135.99    5.70
  -5  -1   6  135.69    5.70
  -5  -1   6  130.29    5.80
  -5  -1   6  140.39    5.90
  -5   1   6  143.69    5.80
   5   1  -6  135.59    5.80
   5   1  -6  137.29    5.70
  -5   1   6  121.19    5.80
  -5   1   6  136.59    5.80
  -5   1   6  131.69    5.70
   5   1  -6  128.29    5.80
   4  -1  -6  164.78    8.10
  -4  -1   6  184.58    8.10
  -4  -1   6  192.98    8.10
  -4  -1   6  180.78    8.10
   4  -1  -6  189.08    8.10
   4  -1  -6  198.88    8.10
  -4  -1   6  191.28    8.10
  -4  -1   6  189.88    8.10
  -4  -1   6  181.08    8.10
  -4   1   6  205.38    8.10
  -4   1   6  183.18    8.10
  -4   1   6  188.68    8.10
  -4   1   6  207.48    8.10
   4   1  -6  183.48    8.00
   4   1  -6  185.98    8.10
  -4   1   6  196.38    8.10
   4   1  -6  182.58    8.10
  -4   1   6  197.78    8.10
   3  -1  -6    0.70    0.10
  -3  -1   6    0.70    0.20
  -3  -1   6    0.40    0.20
  -3  -1   6    0.50    0.20
  -3  -1   6    0.60    0.20
   3  -1  -6    0.40    0.20
  -3  -1   6    0.80    0.20
  -3  -1   6    0.50    0.20
  -3   1   6    0.70    0.20
   3   1  -6    0.60    0.20
   3   1  -6    0.70    0.10
  -3   1   6    0.60    0.10
   3   1  -6    0.50    0.20
  -3   1   6    0.50    0.20
   3   1  -6    0.30    0.20
  -3   1   6    0.40    0.20
  -3   1   6    0.60    0.20
   2  -1  -6    7.50    0.50
  -2  -1   6    7.30    0.50
  -2  -1   6    7.10    0.50
  -2  -1   6    7.30    0.50
   2  -1  -6    7.20    0.50
  -2  -1   6    7.20    0.40
  -2  -1   6    7.00    0.50
  -2  -1   6    6.80    0.50
  -2   1   6    7.20    0.50
   2   1  -6    7.60    0.40
  -2   1   6    6.90    0.50
  -2   1   6    7.30    0.50
   2   1  -6    7.00    0.40
  -2   1   6    7.10    0.50
  -2   1   6    7.60    0.50
  -2   1   6    7.70    0.40
  -1  -1   6   67.89    2.90
   1  -1  -6   64.19    2.90
  -1  -1   6   65.89    2.90
  -1  -1   6   66.39    2.90
   1  -1  -6   66.19    2.90
   1  -1  -6   67.19    2.90
  -1  -1   6   63.99    2.90
  -1  -1   6   69.09    2.90
  -1   1   6   65.99    2.90
   1   1  -6   69.69    2.90
  -1   1   6   64.19    2.90
  -1   1   6   62.59    2.90
  -1   1   6   65.29    2.90
   1   1  -6   65.09    2.90
   1   1  -6   66.09    2.90
   0  -1  -6  109.89    4.60
   0  -1  -6  114.39    4.60
   0  -1   6  104.69    4.60
   0  -1   6  103.29    4.70
   0  -1   6  109.49    4.70
   0  -1  -6  106.89    4.60
   0   1   6  107.69    4.70
   0   1  -6  104.99    4.60
   0   1   6  104.19    4.60
   0   1   6  102.89    4.60
   0   1  -6  103.99    4.60
   0   1   6  106.09    4.60
  -1  -1  -6    8.60    0.50
  -1  -1  -6    9.00    0.60
   1  -1   6    8.00    0.60
   1  -1   6    8.30    0.60
   1  -1   6    8.70    0.70
   1   1   6    8.90    0.60
   1   1   6    9.00    0.60
  -1   1  -6    8.80    0.50
   1   1   6    9.10    0.60
   1   1   6    8.70    0.60
  -1   1  -6    8.70    0.60
   2  -1   6  490.35   20.30
  -2  -1  -6  464.55   20.20
  -2  -1  -6  475.75   20.20
   2  -1   6  468.45   20.30
   2  -1   6  481.85   20.20
   2   1   6  486.45   20.30
   2   1   6  474.35   20.20
   2   1   6  469.65   20.20
  -2   1  -6  487.45   20.20
   2   1   6  468.55   20.20
  -2   1  -6  470.45   20.20
  -3  -1  -6   59.39    2.70
   3  -1   6   57.49    2.70
  -3  -1  -6   58.39    2.70
   3  -1   6   59.49    2.70
   3  -1   6   60.69    2.80
   3   1   6   60.39    2.80
  -3   1  -6   58.79    2.70
   3   1   6   60.39    2.70
   3   1   6   59.29    2.70
  -3   1  -6   59.59    2.70
   4  -1   6    9.20    0.70
  -4  -1  -6    8.70    0.60
  -4  -1  -6    9.40    0.70
   4  -1   6    9.20    0.80
   4  -1   6   10.30    0.80
  -4   1  -6    9.10    0.70
   4   1   6    9.40    0.80
   4   1   6    9.20    0.70
   4   1   6   11.00    0.80
  -4   1  -6   10.20    0.70
  -4   1  -6    9.20    0.70
  -5  -1  -6   25.20    1.40
   5  -1   6   27.20    1.40
  -5  -1  -6   26.80    1.40
   5  -1   6   27.60    1.50
   5  -1   6   26.50    1.50
  -5   1  -6   26.90    1.30
   5   1   6   27.10    1.50
  -5   1  -6   27.80    1.40
  -5   1  -6   26.70    1.40
   5   1   6   25.50    1.40
   5   1   6   26.90    1.50
  -6  -1  -6   11.50    0.80
   6  -1   6   13.50    1.00
   6  -1   6   12.30    1.00
  -6  -1  -6   10.60    0.80
  -6   1  -6   11.40    0.80
   6   1   6   11.10    0.90
  -6   1  -6   11.50    0.80
   6   1   6   13.90    1.10
   7  -1   6   41.50    2.30
   7  -1   6   39.80    2.40
   7   1   6   43.10    2.20
 -11  -2   6   41.30    2.20
  11  -2  -6   40.70    2.10
  11  -2  -6   41.20    2.10
 -11   2   6   41.80    2.20
  11   2  -6   39.50    2.10
  10  -2  -6    0.30    0.40
  10  -2  -6    0.50    0.40
 -10  -2   6    0.60    0.30
 -10  -2   6    0.10    0.40
 -10   2   6    0.30    0.40
  10   2  -6    0.50    0.40
 -10   2   6    0.40    0.30
  -9  -2   6   86.69    4.10
   9  -2  -6   95.19    4.10
  -9  -2   6   87.49    4.20
   9  -2  -6   96.29    4.20
   9   2  -6   96.99    4.20
  -9   2   6   91.29    4.20
  -9   2   6   90.39    4.10
   8  -2  -6  108.59    4.70
   8  -2  -6  100.19    4.80
  -8  -2   6  107.99    4.70
  -8  -2   6  114.69    4.80
  -8   2   6  107.79    4.70
  -8   2   6  114.99    4.80
   8   2  -6  111.49    4.70
   8   2  -6   97.19    4.70
  -7  -2   6    1.10    0.30
   7  -2  -6    1.20    0.30
  -7  -2   6    0.80    0.20
   7  -2  -6    1.20    0.40
  -7   2   6    0.80    0.40
  -7   2   6    1.50    0.30
   7   2  -6    0.50    0.30
   7   2  -6    0.70    0.20
  -7   2   6    1.00    0.20
  -6  -2   6  422.76   18.40
  -6  -2   6  442.96   18.30
   6  -2  -6  387.06   18.40
   6  -2  -6  407.06   18.30
   6   2  -6  432.06   18.30
  -6   2   6  447.46   18.30
  -6   2   6  454.55   18.40
  -6   2   6  435.76   18.30
   6   2  -6  452.05   18.40
  -5  -2   6    0.30    0.20
   5  -2  -6    0.30    0.20
   5  -2  -6    0.00    0.20
  -5  -2   6   -0.10    0.10
  -5  -2   6    0.20    0.20
  -5  -2   6    0.20    0.10
   5   2  -6    0.00    0.20
   5   2  -6    0.30    0.20
  -5   2   6    0.20    0.30
   5   2  -6    0.00    0.10
  -5   2   6    0.20    0.10
  -5   2   6    0.20    0.20
  -5   2   6   -0.10    0.20
   5   2  -6    0.00    0.10
   4  -2  -6  264.67   10.80
   4  -2  -6  254.87   10.90
  -4  -2   6  256.07   10.90
  -4  -2   6  258.37   10.80
   4  -2  -6  272.67   10.80
  -4  -2   6  250.67   10.80
  -4  -2   6  253.37   10.80
  -4  -2   6  224.78   10.80
  -4  -2   6  248.98   10.90
  -4   2   6  258.17   10.80
   4   2  -6  244.88   10.80
  -4   2   6  254.07   10.80
  -4   2   6  256.97   10.80
   4   2  -6  256.27   10.80
  -4   2   6  249.58   10.80
   4   2  -6  256.67   10.80
  -4   2   6  261.67   10.90
   4   2  -6  250.77   10.80
  -3  -2   6  278.47   13.20
  -3  -2   6  311.97   13.10
  -3  -2   6  311.17   13.20
  -3  -2   6  293.17   13.20
  -3  -2   6  305.07   13.10
   3  -2  -6  296.57   13.20
  -3  -2   6  320.87   13.10
   3  -2  -6  324.87   13.10
  -3   2   6  306.07   13.20
   3   2  -6  311.27   13.10
  -3   2   6  303.27   13.20
   3   2  -6  315.67   13.10
   3   2  -6  321.37   13.10
  -3   2   6  315.37   13.10
  -3   2   6  320.07   13.10
   3   2  -6  296.87   13.10
  -3   2   6  320.37   13.10
  -2  -2   6    0.10    0.20
   2  -2  -6    0.10    0.10
  -2  -2   6    0.10    0.10
  -2  -2   6    0.00    0.10
   2  -2  -6    0.10    0.20
  -2  -2   6    0.20    0.20
  -2  -2   6    0.00    0.20
   2   2  -6    0.00    0.10
   2   2  -6    0.00    0.10
  -2   2   6    0.00    0.20
   2   2  -6    0.00    0.10
  -2   2   6    0.10    0.10
  -2   2   6   -0.30    0.20
  -2   2   6    0.20    0.20
  -2   2   6    0.10    0.20
  -1  -2   6   41.30    1.90
   1  -2  -6   43.50    1.90
  -1  -2   6   41.00    1.90
  -1  -2   6   42.20    1.90
   1  -2  -6   44.10    1.90
  -1  -2   6   40.80    1.90
  -1   2   6   43.90    1.90
  -1   2   6   41.10    1.90
  -1   2   6   43.10    1.90
   1   2  -6   41.90    1.90
   1   2  -6   39.90    1.90
  -1   2   6   43.40    1.90
   1   2  -6   40.20    1.80
  -1   2   6   41.60    1.90
   0  -2  -6  164.38    6.80
   0  -2   6  157.48    6.90
   0  -2   6  159.38    6.90
   0  -2  -6  160.88    6.80
   0  -2  -6  160.88    6.80
   0  -2   6  160.68    6.80
   0   2   6  147.19    6.80
   0   2   6  160.18    6.90
   0   2   6  162.78    6.90
   0   2  -6  153.98    6.80
   0   2  -6  152.18    6.80
   0   2   6  161.78    6.80
   0   2  -6  163.98    6.80
   1  -2   6    7.50    0.60
  -1  -2  -6    7.90    0.50
   1  -2   6    7.00    0.50
  -1  -2  -6    7.40    0.50
   1  -2   6    7.30    0.60
   1   2   6    7.90    0.60
  -1   2  -6    8.30    0.50
   1   2   6    7.80    0.50
  -1   2  -6    8.20    0.50
   1   2   6    8.10    0.60
  -1   2  -6    8.20    0.60
   1   2   6    8.20    0.60
   2  -2   6   13.80    0.90
  -2  -2  -6   13.10    0.80
   2  -2   6   13.80    0.90
   2  -2   6   13.70    0.80
  -2  -2  -6   14.40    0.80
   2   2   6   13.20    0.80
  -2   2  -6   13.60    0.70
  -2   2  -6   13.60    0.80
   2   2   6   13.30    0.80
   2   2   6   13.40    0.90
  -2   2  -6   14.00    0.80
   2   2   6   13.00    0.80
  -3  -2  -6    9.40    0.70
   3  -2   6    8.70    0.80
   3  -2   6    9.80    0.60
   3  -2   6    8.00    0.70
  -3  -2  -6   10.40    0.70
  -3   2  -6    9.30    0.60
   3   2   6    9.70    0.60
  -3   2  -6    9.80    0.70
   3   2   6   10.10    0.70
   3   2   6    9.90    0.70
  -3   2  -6    9.40    0.60
   4  -2   6  184.18    8.60
  -4  -2  -6  198.78    8.60
   4  -2   6  206.18    8.70
   4  -2   6  204.68    8.70
  -4  -2  -6  197.88    8.60
  -4   2  -6  200.48    8.50
  -4   2  -6  197.28    8.60
   4   2   6  188.18    8.60
   4   2   6  205.08    8.70
   4   2   6  201.98    8.60
  -4   2  -6  203.98    8.60
   5  -2   6   16.70    1.10
   5  -2   6   14.10    1.00
  -5  -2  -6   15.70    0.90
   5  -2   6   16.50    0.90
  -5  -2  -6   15.60    0.90
  -5   2  -6   15.60    0.90
   5   2   6   15.30    1.10
   5   2   6   14.80    1.00
  -5   2  -6   15.90    0.90
   5   2   6   15.90    0.90
  -5   2  -6   17.10    1.00
   6  -2   6  124.09    5.90
   6  -2   6  134.69    5.90
  -6  -2  -6  143.49    5.90
  -6   2  -6  129.99    5.80
  -6   2  -6  129.89    5.80
   6   2   6  129.59    5.90
   6   2   6  129.69    5.90
   7  -2   6   49.50    2.60
   7   2   6   48.80    2.50
  11  -3  -6   87.69    4.10
 -11  -3   6   89.09    4.20
  11   3  -6   89.89    4.20
 -10  -3   6    3.80    0.60
  10  -3  -6    4.00    0.60
  10  -3  -6    5.50    0.60
  10   3  -6    4.20    0.60
 -10   3   6    4.20    0.50
   9  -3  -6    1.80    0.40
   9  -3  -6    1.80    0.50
  -9  -3   6    2.10    0.50
  -9   3   6    0.80    0.40
  -9   3   6    1.90    0.30
   9   3  -6    1.70    0.40
  -8  -3   6    0.00    0.30
   8  -3  -6    0.10    0.30
  -8  -3   6    0.00    0.30
   8  -3  -6    0.10    0.30
   8   3  -6    0.00    0.30
  -8   3   6    0.30    0.20
   8   3  -6   -0.30    0.20
  -8   3   6   -0.20    0.30
  -8   3   6   -0.30    0.30
  -7  -3   6    5.80    0.40
  -7  -3   6    5.20    0.60
   7  -3  -6    6.50    0.70
   7  -3  -6    6.20    0.50
  -7   3   6    5.80    0.70
  -7   3   6    5.30    0.50
  -7   3   6    5.50    0.50
   7   3  -6    5.10    0.60
   7   3  -6    5.80    0.50
  -6  -3   6   85.19    4.10
   6  -3  -6   95.29    4.10
   6  -3  -6   93.69    4.00
  -6  -3   6   96.29    4.00
   6   3  -6   91.89    4.10
  -6   3   6   91.09    4.00
  -6   3   6   93.89    4.10
   6   3  -6   90.79    4.00
  -5  -3   6   62.59    2.80
   5  -3  -6   57.99    2.80
   5  -3  -6   62.59    2.70
  -5  -3   6   61.99    2.80
  -5  -3   6   63.19    2.70
   5   3  -6   60.19    2.70
   5   3  -6   58.09    2.70
   5   3  -6   62.09    2.80
  -5   3   6   63.99    2.70
  -5   3   6   58.99    2.70
  -5   3   6   62.19    2.70
  -4  -3   6   20.60    0.90
  -4  -3   6   21.80    1.00
  -4  -3   6   20.00    1.00
   4  -3  -6   20.60    0.90
   4  -3  -6   18.70    1.00
  -4  -3   6   20.70    1.00
   4   3  -6   19.10    1.00
  -4   3   6   19.90    1.00
  -4   3   6   20.70    1.00
  -4   3   6   21.20    1.00
   4   3  -6   20.80    0.90
   4   3  -6   18.10    1.00
   4   3  -6   20.50    0.90
  -3  -3   6  197.58    8.40
   3  -3  -6  186.88    8.30
  -3  -3   6  196.58    8.30
  -3  -3   6  194.28    8.30
  -3  -3   6  190.38    8.30
  -3   3   6  195.48    8.30
  -3   3   6  196.88    8.30
   3   3  -6  205.78    8.30
   3   3  -6  173.88    8.20
   3   3  -6  199.88    8.30
  -3   3   6  193.98    8.30
   3   3  -6  193.68    8.30
  -3   3   6  200.38    8.30
  -2  -3   6  161.28    7.00
   2  -3  -6  145.99    6.90
  -2  -3   6  161.28    7.00
  -2  -3   6  167.48    6.90
  -2  -3   6  159.28    6.90
   2  -3  -6  177.08    7.00
  -2   3   6  157.78    6.90
  -2   3   6  164.18    6.90
   2   3  -6  162.68    6.90
   2   3  -6  159.58    6.90
   2   3  -6  153.48    7.00
  -2   3   6  169.98    6.90
  -2   3   6  163.98    7.00
   2   3  -6  158.58    6.90
   1  -3  -6  470.05   18.90
  -1  -3   6  436.56   18.90
  -1  -3   6  452.35   18.90
   1  -3  -6  450.75   18.90
  -1  -3   6  437.16   18.90
   1   3  -6  425.36   18.80
  -1   3   6  438.46   18.90
  -1   3   6  446.56   18.90
  -1   3   6  449.95   18.90
   1   3  -6  437.86   18.80
  -1   3   6  442.76   18.90
   1   3  -6  444.46   18.90
   0  -3   6  310.07   13.30
   0  -3  -6  312.47   13.30
   0  -3  -6  316.67   13.20
   0  -3   6  307.67   13.30
   0  -3   6  311.37   13.30
   0   3  -6  308.77   13.20
   0   3   6  303.67   13.30
   0   3  -6  322.87   13.30
   0   3  -6  302.37   13.30
   0   3   6  315.57   13.30
   0   3   6  315.97   13.30
  -1  -3  -6  111.29    4.80
   1  -3   6  111.89    4.80
   1  -3   6  106.09    4.90
  -1  -3  -6  104.89    4.80
   1  -3   6  113.39    4.90
  -1   3  -6  114.19    4.80
   1   3   6  108.89    4.80
  -1   3  -6  109.39    4.80
  -1   3  -6  111.79    4.80
   1   3   6  117.29    4.90
   1   3   6  106.89    4.90
   1   3   6  110.19    4.80
  -2  -3  -6   31.90    1.50
  -2  -3  -6   31.20    1.50
   2  -3   6   29.10    1.50
   2  -3   6   29.30    1.50
   2  -3   6   29.80    1.50
  -2   3  -6   30.60    1.40
   2   3   6   29.70    1.50
  -2   3  -6   30.10    1.40
   2   3   6   30.50    1.50
   2   3   6   30.50    1.50
   2   3   6   30.90    1.50
  -2   3  -6   28.50    1.40
   3  -3   6   16.00    0.90
   3  -3   6   14.80    1.00
  -3  -3  -6   15.00    0.90
  -3  -3  -6   16.20    0.90
   3  -3   6   16.90    1.00
   3   3   6   16.00    0.90
   3   3   6   16.20    0.90
   3   3   6   16.00    1.00
  -3   3  -6   15.60    0.90
   3   3   6   15.40    1.00
  -3   3  -6   15.60    0.80
  -3   3  -6   17.20    0.90
   4  -3   6  100.19    4.60
   4  -3   6   97.89    4.70
  -4  -3  -6  108.09    4.60
  -4  -3  -6  107.09    4.60
   4  -3   6  108.49    4.70
  -4   3  -6  103.09    4.60
   4   3   6  104.19    4.70
  -4   3  -6  104.29    4.60
   4   3   6  102.79    4.60
  -4   3  -6  104.19    4.50
   5  -3   6   23.70    1.40
  -5  -3  -6   26.80    1.30
   5  -3   6   27.00    1.50
  -5  -3  -6   24.60    1.30
   5  -3   6   24.70    1.30
   5   3   6   26.20    1.50
   5   3   6   25.70    1.40
  -5   3  -6   26.50    1.30
  -5   3  -6   26.90    1.30
   6  -3   6   52.69    2.70
   6  -3   6   54.49    2.60
  -6   3  -6   54.09    2.70
  -6   3  -6   50.99    2.50
   6   3   6   52.69    2.70
   7  -3   6   66.39    3.80
  11  -4  -6    4.90    0.70
  10  -4  -6    0.40    0.40
 -10  -4   6    0.10    0.40
 -10   4   6    0.30    0.40
  10   4  -6    0.00    0.40
   9  -4  -6    9.00    0.90
  -9  -4   6   10.10    0.90
   9   4  -6   12.50    0.80
   9   4  -6   11.30    0.80
  -9   4   6   11.00    0.80
   8  -4  -6    1.10    0.40
  -8  -4   6    1.60    0.40
   8   4  -6    1.30    0.30
   8   4  -6    1.50    0.30
  -8   4   6    1.40    0.30
  -8   4   6    1.60    0.30
  -7  -4   6  161.88    7.00
   7  -4  -6  157.18    6.90
   7   4  -6  162.78    6.90
   7   4  -6  162.78    6.90
  -7   4   6  155.78    6.90
  -7   4   6  151.58    6.90
   6  -4  -6   83.59    3.50
  -6  -4   6   70.89    3.50
   6   4  -6   76.49    3.40
  -6   4   6   74.59    3.40
  -6   4   6   73.79    3.40
   6   4  -6   81.89    3.40
  -5  -4   6   94.79    4.40
   5  -4  -6  103.09    4.40
  -5  -4   6  109.49    4.40
   5   4  -6   96.09    4.30
  -5   4   6   92.99    4.30
   5   4  -6   98.89    4.40
  -5   4   6   99.19    4.30
  -5   4   6   97.89    4.40
   5   4  -6  101.89    4.30
   4  -4  -6  137.49    6.30
  -4  -4   6  152.38    6.30
  -4  -4   6  135.39    6.30
   4   4  -6  141.89    6.30
  -4   4   6  147.39    6.30
   4   4  -6  145.99    6.20
  -4   4   6  144.29    6.30
   4   4  -6  159.18    6.30
  -4   4   6  145.79    6.20
   4   4  -6  143.09    6.30
  -3  -4   6   56.89    2.50
  -3  -4   6   51.99    2.40
   3  -4  -6   48.20    2.40
  -3  -4   6   58.09    2.50
   3   4  -6   55.09    2.40
  -3   4   6   55.39    2.40
  -3   4   6   55.49    2.40
   3   4  -6   53.89    2.40
  -3   4   6   55.39    2.50
   3   4  -6   51.29    2.40
  -2  -4   6   17.80    1.00
   2  -4  -6   19.90    1.00
  -2  -4   6   18.00    0.90
  -2   4   6   19.10    1.00
   2   4  -6   18.40    0.90
   2   4  -6   23.00    1.00
   2   4  -6   18.10    0.90
  -2   4   6   18.40    1.00
  -2   4   6   18.80    1.00
  -2   4   6   19.60    1.00
  -1  -4   6   41.40    1.90
   1  -4  -6   39.40    1.80
  -1  -4   6   41.30    1.90
  -1  -4   6   38.60    1.80
   1  -4  -6   40.80    1.80
  -1   4   6   39.60    1.80
   1   4  -6   38.40    1.80
  -1   4   6   37.00    1.80
   1   4  -6   39.20    1.80
   1   4  -6   39.80    1.70
  -1   4   6   35.00    1.80
  -1   4   6   37.80    1.80
   0  -4  -6  124.69    5.40
   0  -4  -6  132.39    5.50
   0  -4   6  126.89    5.40
   0  -4   6  131.39    5.50
   0  -4   6  127.29    5.50
   0   4  -6  125.09    5.40
   0   4   6  126.09    5.50
   0   4  -6  116.39    5.40
   0   4   6  122.89    5.50
   0   4   6  127.29    5.50
   0   4  -6  124.99    5.40
  -1  -4  -6   51.89    2.20
   1  -4   6   47.40    2.20
  -1  -4  -6   50.69    2.20
   1  -4   6   48.40    2.30
   1   4   6   49.80    2.30
  -1   4  -6   46.60    2.20
   1   4   6   48.80    2.30
  -1   4  -6   45.90    2.20
   1   4   6   48.40    2.20
  -1   4  -6   48.90    2.10
  -2  -4  -6  184.98    8.00
  -2  -4  -6  185.98    8.00
   2  -4   6  184.08    8.10
   2  -4   6  187.28    8.00
   2  -4   6  198.88    8.10
   2   4   6  187.88    8.10
  -2   4  -6  183.38    8.00
   2   4   6  189.08    8.10
  -2   4  -6  188.28    8.00
   2   4   6  180.18    8.10
  -2   4  -6  183.08    8.00
   3  -4   6   35.60    1.70
   3  -4   6   34.60    1.80
  -3  -4  -6   35.10    1.70
   3  -4   6   36.70    1.80
  -3  -4  -6   34.00    1.70
   3   4   6   35.70    1.70
   3   4   6   34.10    1.70
  -3   4  -6   37.10    1.70
  -3   4  -6   34.30    1.70
   3   4   6   34.40    1.80
  -3   4  -6   36.70    1.60
  -4  -4  -6    4.00    0.40
   4  -4   6    3.90    0.50
  -4  -4  -6    4.60    0.50
   4  -4   6    3.40    0.50
   4   4   6    4.00    0.60
  -4   4  -6    4.40    0.40
  -4   4  -6    4.40    0.50
   4   4   6    4.40    0.50
  -4   4  -6    4.10    0.40
   5  -4   6    0.40    0.40
  -5  -4  -6   -0.20    0.30
   5  -4   6    0.30    0.40
   5   4   6    0.50    0.40
  -5   4  -6    0.30    0.30
  -5   4  -6    0.20    0.30
   5   4   6    0.30    0.30
  -5   4  -6    0.30    0.30
   6  -4   6   16.10    1.20
   6  -4   6   18.70    1.30
  -6   4  -6   17.30    1.00
   6   4   6   17.30    1.20
  10  -5  -6   24.50    1.50
 -10  -5   6   24.10    1.50
  10   5  -6   26.30    1.50
  10   5  -6   23.40    1.50
  -9  -5   6   36.90    2.10
   9  -5  -6   42.60    2.10
   9   5  -6   39.30    2.00
  -9   5   6   40.10    2.00
   9   5  -6   41.60    2.00
  -9   5   6   37.70    1.90
   8  -5  -6   77.79    3.50
  -8  -5   6   72.89    3.50
  -8   5   6   74.39    3.40
  -8   5   6   71.09    3.40
   8   5  -6   78.99    3.40
   8   5  -6   73.29    3.40
  -7  -5   6   41.70    2.10
   7  -5  -6   41.50    2.10
  -7   5   6   42.80    2.00
  -7   5   6   43.20    2.00
   7   5  -6   46.20    2.10
   7   5  -6   44.70    2.10
   6  -5  -6    2.80    0.40
  -6  -5   6    2.50    0.40
  -6  -5   6    3.60    0.40
  -6   5   6    2.80    0.40
   6   5  -6    3.10    0.40
   6   5  -6    3.40    0.40
  -6   5   6    2.60    0.30
  -5  -5   6  128.29    5.60
  -5  -5   6  125.89    5.60
   5  -5  -6  131.39    5.60
  -5   5   6  125.09    5.50
  -5   5   6  130.79    5.50
   5   5  -6  129.69    5.60
  -5   5   6  126.49    5.50
   5   5  -6  128.19    5.50
   5   5  -6  118.89    5.50
   4  -5  -6    0.50    0.30
  -4  -5   6    0.90    0.30
  -4  -5   6    2.40    0.30
  -4   5   6    1.10    0.30
   4   5  -6    0.90    0.20
  -4   5   6    0.70    0.30
   4   5  -6    0.90    0.30
   4   5  -6    0.90    0.30
  -4   5   6    0.70    0.20
   3  -5  -6   20.90    1.10
  -3  -5   6   23.10    1.20
   3  -5  -6   20.30    1.20
  -3  -5   6   22.00    1.20
   3   5  -6   24.50    1.00
   3   5  -6   22.60    1.20
   3   5  -6   21.90    1.10
  -3   5   6   21.20    1.10
  -3   5   6   22.10    1.10
  -3   5   6   23.00    1.10
  -2  -5   6  389.56   17.30
  -2  -5   6  403.56   17.30
   2  -5  -6  401.86   17.30
   2  -5  -6  421.36   17.30
  -2  -5   6  404.46   17.30
   2   5  -6  395.26   17.30
  -2   5   6  408.66   17.30
   2   5  -6  422.76   17.20
   2   5  -6  398.56   17.30
  -2   5   6  391.36   17.30
  -2   5   6  421.66   17.30
  -2   5   6  418.46   17.30
  -1  -5   6    1.10    0.30
   1  -5  -6    0.60    0.20
  -1  -5   6    0.90    0.20
   1  -5  -6    0.00    0.30
  -1  -5   6    0.60    0.30
  -1   5   6    0.50    0.30
  -1   5   6    0.70    0.20
  -1   5   6    0.50    0.30
  -1   5   6    0.70    0.20
   1   5  -6    0.60    0.30
   1   5  -6    1.40    0.20
   0  -5  -6  506.95   20.70
   0  -5   6  476.25   20.80
   0  -5  -6  472.65   20.70
   0  -5   6  519.55   20.80
   0   5  -6  487.05   20.70
   0   5   6  477.15   20.80
   0   5   6  468.25   20.80
   0   5  -6  506.35   20.70
   0   5   6  479.45   20.80
   1  -5   6   -0.20    0.30
   1  -5   6   -0.10    0.30
  -1  -5  -6    0.20    0.20
  -1  -5  -6    0.40    0.20
  -1   5  -6    0.10    0.20
  -1   5  -6    0.20    0.20
   1   5   6    0.10    0.30
   1   5   6    0.00    0.30
   1   5   6    0.40    0.30
  -2  -5  -6    0.90    0.30
   2  -5   6    1.70    0.40
   2  -5   6    0.90    0.40
  -2  -5  -6    0.70    0.30
   2   5   6    1.20    0.30
  -2   5  -6    0.80    0.20
   2   5   6    1.10    0.30
   2   5   6    1.10    0.30
  -2   5  -6    1.00    0.30
   3  -5   6   52.39    2.40
  -3  -5  -6   47.60    2.30
  -3  -5  -6   52.09    2.30
   3  -5   6   43.90    2.40
   3   5   6   47.70    2.30
  -3   5  -6   50.09    2.30
  -3   5  -6   49.99    2.30
   3   5   6   52.39    2.30
   3   5   6   51.69    2.40
  -4  -5  -6    6.80    0.60
  -4  -5  -6    5.80    0.60
   4  -5   6    5.30    0.60
   4  -5   6    6.10    0.70
  -4   5  -6    6.30    0.60
  -4   5  -6    5.20    0.50
   4   5   6    6.10    0.60
   4   5   6    6.90    0.60
   4   5   6    5.10    0.60
   5  -5   6   19.70    1.30
  -5  -5  -6   20.00    1.10
   5  -5   6   21.60    1.30
   5   5   6   20.80    1.20
  -5   5  -6   19.30    1.20
  -5   5  -6   19.30    1.10
   5   5   6   19.00    1.30
   6  -5   6   -0.10    0.40
 -10  -6   6    0.50    0.70
  10  -6  -6    0.50    0.50
  10   6  -6    0.20    0.40
   9  -6  -6    1.30    0.40
  -9  -6   6    2.00    0.50
   9   6  -6    1.10    0.40
   9   6  -6    1.50    0.40
  -9   6   6    1.70    0.40
  -9   6   6    1.70    0.40
   8  -6  -6    4.50    0.60
  -8  -6   6    4.80    0.60
  -8   6   6    5.20    0.50
   8   6  -6    4.20    0.50
   8   6  -6    6.00    0.70
  -8   6   6    5.10    0.50
  -7  -6   6    4.00    0.50
   7  -6  -6    4.40    0.50
   7   6  -6    4.70    0.50
   7   6  -6    3.60    0.40
  -7   6   6    3.30    0.40
  -7   6   6    3.30    0.40
  -6  -6   6  146.49    6.80
  -6  -6   6  156.08    6.80
   6  -6  -6  157.18    6.80
  -6   6   6  157.48    6.70
   6   6  -6  154.08    6.70
   6   6  -6  156.68    6.80
  -6   6   6  155.58    6.70
  -5  -6   6   92.89    4.10
   5  -6  -6   98.69    4.10
  -5  -6   6   87.19    4.10
  -5   6   6   91.49    4.10
  -5   6   6   89.29    4.00
   5   6  -6   89.49    4.10
  -5   6   6   91.69    4.00
   5   6  -6   88.99    4.00
   5   6  -6   93.09    4.10
  -4  -6   6    1.60    0.40
   4  -6  -6    1.90    0.40
  -4  -6   6    2.20    0.40
  -4   6   6    2.40    0.30
   4   6  -6    2.00    0.30
  -4   6   6    1.80    0.30
   4   6  -6    1.70    0.30
   4   6  -6    1.30    0.30
  -4   6   6    1.80    0.30
  -3  -6   6    8.50    0.70
   3  -6  -6    8.00    0.60
   3  -6  -6    9.40    0.70
  -3  -6   6    8.50    0.70
  -3   6   6    8.80    0.60
  -3   6   6    8.70    0.70
   3   6  -6   10.00    0.60
  -3   6   6    9.60    0.70
   3   6  -6    9.50    0.70
  -2  -6   6   11.90    0.70
   2  -6  -6   12.30    0.70
  -2  -6   6   11.70    0.80
  -2  -6   6   10.50    0.70
   2  -6  -6   11.90    0.70
   2   6  -6    9.70    0.60
  -2   6   6   10.70    0.70
  -2   6   6   11.40    0.70
   2   6  -6   11.50    0.80
   2   6  -6   10.60    0.60
  -2   6   6   10.10    0.70
   1  -6  -6   27.50    1.40
   1  -6  -6   25.70    1.40
  -1  -6   6   27.30    1.40
  -1  -6   6   29.30    1.40
  -1  -6   6   27.00    1.30
  -1   6   6   27.20    1.40
  -1   6   6   27.30    1.40
  -1   6   6   27.90    1.30
   1   6  -6   27.10    1.40
  -1   6   6   26.50    1.30
   1   6  -6   29.00    1.30
   1   6  -6   26.50    1.30
   0  -6   6  154.58    6.60
   0  -6  -6  151.68    6.50
   0  -6   6  157.18    6.60
   0  -6  -6  146.49    6.50
   0   6  -6  157.18    6.60
   0   6   6  156.08    6.60
   0   6   6  147.99    6.60
   0   6  -6  140.99    6.50
   0   6   6  147.19    6.60
   0   6  -6  151.28    6.50
   1  -6   6   32.20    1.80
  -1  -6  -6   34.50    1.70
   1  -6   6   38.10    1.80
  -1  -6  -6   36.10    1.70
  -1   6  -6   38.10    1.80
  -1   6  -6   36.70    1.70
   1   6   6   37.20    1.70
   1   6   6   34.90    1.80
  -1   6  -6   37.10    1.70
   1   6   6   35.40    1.70
  -2  -6  -6   31.10    1.60
   2  -6   6   34.20    1.70
   2  -6   6   32.00    1.70
  -2  -6  -6   34.10    1.60
   2   6   6   31.00    1.60
   2   6   6   32.30    1.60
  -2   6  -6   30.00    1.50
   2   6   6   30.60    1.60
  -2   6  -6   29.90    1.50
   3  -6   6    1.30    0.40
  -3  -6  -6    1.10    0.30
  -3  -6  -6    2.00    0.40
   3  -6   6    1.00    0.40
   3   6   6    1.90    0.40
   3   6   6    1.20    0.40
  -3   6  -6    1.30    0.30
   3   6   6    1.60    0.30
  -3   6  -6    1.10    0.30
   4  -6   6   19.60    1.30
  -4  -6  -6   20.10    1.10
   4  -6   6   21.40    1.30
   4   6   6   21.60    1.20
  -4   6  -6   21.00    1.20
  -4   6  -6   20.90    1.10
   4   6   6   19.50    1.30
   5  -6   6   46.10    2.40
   5  -6   6   47.20    2.50
   5   6   6   50.79    2.40
   5   6   6   48.00    2.50
  -5   6  -6   49.70    2.30
   9  -7  -6   68.49    3.20
  -9  -7   6   63.99    3.20
   9   7  -6   64.89    3.10
  -9   7   6   63.79    3.10
   9   7  -6   66.59    3.10
  -8  -7   6   47.80    2.30
   8  -7  -6   46.00    2.30
   8   7  -6   49.50    2.30
   8   7  -6   44.10    2.30
  -8   7   6   45.20    2.20
  -8   7   6   43.70    2.20
   7  -7  -6    0.10    0.30
  -7  -7   6   -0.10    0.40
   7   7  -6    0.30    0.30
  -7   7   6    0.20    0.30
  -7   7   6    0.00    0.30
   7   7  -6    0.10    0.30
  -6  -7   6    2.50    0.40
   6  -7  -6    2.60    0.40
  -6  -7   6    3.30    0.50
  -6   7   6    2.90    0.40
  -6   7   6    2.70    0.40
   6   7  -6    2.50    0.40
   6   7  -6    3.10    0.40
  -5  -7   6    9.60    0.80
  -5  -7   6    8.20    0.70
   5  -7  -6   10.50    0.80
  -5   7   6    9.40    0.70
   5   7  -6    8.30    0.60
   5   7  -6    9.00    0.80
  -5   7   6    9.30    0.70
  -5   7   6    9.30    0.60
   5   7  -6    8.90    0.70
  -4  -7   6    4.30    0.50
   4  -7  -6    5.10    0.50
  -4  -7   6    4.40    0.50
  -4   7   6    4.70    0.40
  -4   7   6    4.00    0.40
   4   7  -6    5.00    0.40
   4   7  -6    4.30    0.50
  -4   7   6    3.90    0.40
   4   7  -6    5.50    0.50
  -3  -7   6  135.49    5.60
   3  -7  -6  127.19    5.60
   3  -7  -6  127.19    5.60
  -3  -7   6  135.39    5.60
  -3   7   6  109.59    5.60
   3   7  -6  127.39    5.50
  -3   7   6  131.19    5.60
   3   7  -6  129.79    5.60
  -3   7   6  127.59    5.60
   2  -7  -6    1.60    0.30
   2  -7  -6    0.50    0.30
  -2  -7   6    0.50    0.20
  -2  -7   6   -0.10    0.30
  -2  -7   6    0.20    0.30
   2   7  -6    0.00    0.30
  -2   7   6    0.40    0.20
  -2   7   6    0.80    0.30
   2   7  -6    0.20    0.20
   2   7  -6   -0.20    0.20
  -2   7   6   -0.20    0.20
  -1  -7   6   25.00    1.40
  -1  -7   6   27.50    1.40
   1  -7  -6   26.10    1.30
   1  -7  -6   26.70    1.40
  -1  -7   6   28.10    1.40
   1   7  -6   28.20    1.40
   1   7  -6   26.30    1.30
   1   7  -6   27.20    1.30
  -1   7   6   25.00    1.40
  -1   7   6   27.30    1.40
   0  -7   6    4.00    0.50
   0  -7  -6    6.30    0.60
   0  -7  -6    5.50    0.50
   0  -7   6    6.00    0.60
   0   7  -6    5.80    0.50
   0   7   6    5.50    0.60
   0   7   6    6.30    0.50
   0   7   6    6.10    0.60
   0   7  -6    5.70    0.50
   0   7  -6    6.30    0.60
   1  -7   6   68.29    3.20
   1  -7   6   71.29    3.20
  -1  -7  -6   67.59    3.10
  -1  -7  -6   67.39    3.10
  -1   7  -6   67.69    3.20
  -1   7  -6   72.19    3.10
   1   7   6   69.39    3.20
  -1   7  -6   68.29    3.10
   1   7   6   69.79    3.20
   1   7   6   71.39    3.20
   2  -7   6   16.70    1.20
  -2  -7  -6   18.80    1.00
   2  -7   6   20.10    1.20
  -2   7  -6   18.80    1.10
   2   7   6   17.80    1.10
   2   7   6   18.90    1.10
   2   7   6   19.40    1.10
  -2   7  -6   18.70    1.10
  -2   7  -6   19.10    1.00
  -3  -7  -6    0.00    0.30
   3  -7   6    0.20    0.40
   3  -7   6    0.00    0.40
   3   7   6   -0.10    0.30
  -3   7  -6    0.00    0.30
   3   7   6    0.10    0.40
   3   7   6    0.10    0.40
  -3   7  -6   -0.40    0.30
  -4  -7  -6    8.50    0.70
   4  -7   6    7.70    0.90
   4  -7   6    7.90    0.90
  -4   7  -6    8.50    0.70
   4   7   6    9.60    0.90
   4   7   6    9.40    0.80
  -4   7  -6    9.30    0.90
   5   7   6   98.19    4.50
  -5   7  -6   99.19    4.40
   8  -8  -6    0.60    0.50
  -8  -8   6    0.20    0.40
  -8   8   6    0.90    0.50
   8   8  -6    0.30    0.40
   8   8  -6    0.60    0.40
  -8   8   6    0.40    0.50
  -7  -8   6   53.59    2.80
   7  -8  -6   58.49    2.80
  -7   8   6   57.79    2.70
   7   8  -6   54.89    2.70
   7   8  -6   58.79    2.70
  -7   8   6   54.79    2.70
   6  -8  -6    5.40    0.60
  -6  -8   6    6.80    0.70
  -6   8   6    5.60    0.60
  -6   8   6    5.00    0.50
   6   8  -6    5.80    0.60
   5  -8  -6    4.10    0.50
  -5  -8   6    5.60    0.60
  -5  -8   6    2.90    0.50
   5   8  -6    5.20    0.50
  -5   8   6    4.80    0.50
  -5   8   6    4.40    0.60
   5   8  -6    5.90    0.70
   5   8  -6    5.40    0.50
  -5   8   6    5.50    0.50
   4  -8  -6   43.60    2.00
   4  -8  -6   43.90    1.90
  -4  -8   6   41.00    2.00
  -4  -8   6   39.30    2.00
  -4   8   6   41.50    2.00
   4   8  -6   42.40    1.90
  -4   8   6   37.20    1.90
   4   8  -6   39.00    2.00
   4   8  -6   40.00    2.00
  -4   8   6   35.70    1.90
  -3  -8   6    0.20    0.30
   3  -8  -6    0.00    0.30
   3  -8  -6    0.00    0.30
  -3  -8   6    0.20    0.30
  -3   8   6    0.10    0.30
   3   8  -6   -0.10    0.20
  -3   8   6   -0.10    0.30
  -3   8   6    0.50    0.30
   3   8  -6    0.50    0.30
  -2  -8   6    9.60    0.70
   2  -8  -6    9.80    0.80
   2  -8  -6    8.70    0.70
  -2  -8   6    8.80    0.80
   2   8  -6    9.60    0.70
  -2   8   6    8.70    0.70
  -2   8   6    9.50    0.70
   2   8  -6    9.60    0.70
  -2   8   6    9.40    0.70
  -1  -8   6  100.19    4.30
  -1  -8   6   88.39    4.30
   1  -8  -6   99.89    4.30
   1  -8  -6   88.89    4.20
  -1   8   6   95.99    4.30
   1   8  -6  100.59    4.30
   1   8  -6   95.79    4.20
  -1   8   6   93.79    4.30
   1   8  -6  101.39    4.20
   0  -8   6    3.90    0.50
   0  -8   6    4.30    0.50
   0  -8  -6    3.70    0.40
   0  -8  -6    3.90    0.40
   0   8   6    3.30    0.40
   0   8  -6    3.50    0.40
   0   8   6    3.70    0.40
   0   8  -6    4.70    0.50
   0   8  -6    3.20    0.40
  -1  -8  -6   55.59    2.60
  -1  -8  -6   54.99    2.70
   1  -8   6   56.09    2.70
   1  -8   6   58.59    2.70
  -1   8  -6   56.89    2.60
   1   8   6   57.89    2.70
  -1   8  -6   58.99    2.70
  -1   8  -6   57.29    2.60
   1   8   6   58.49    2.70
   1   8   6   58.39    2.70
   2  -8   6   45.20    2.40
   2  -8   6   50.69    2.30
  -2  -8  -6   45.90    2.20
   2   8   6   50.59    2.30
  -2   8  -6   48.00    2.30
  -2   8  -6   47.40    2.20
  -2   8  -6   47.10    2.30
   2   8   6   45.70    2.30
   2   8   6   46.90    2.30
  -3  -8  -6    8.90    0.70
   3  -8   6    7.60    0.80
   3  -8   6    7.70    0.90
  -3   8  -6    7.80    0.80
  -3   8  -6    8.60    0.70
  -3   8  -6    8.50    0.70
   3   8   6    7.60    0.70
   3   8   6    8.40    0.80
   4  -8   6   28.60    1.70
  -4   8  -6   29.10    1.50
   4   8   6   29.00    1.60
   4   8   6   28.90    1.60
  -7  -9   6    0.20    0.40
   7  -9  -6    1.00    0.40
   7   9  -6    0.40    0.40
  -7   9   6    0.30    0.40
   7   9  -6    0.70    0.40
  -6  -9   6   47.50    2.40
   6  -9  -6   42.30    2.40
   6   9  -6   49.90    2.30
  -6   9   6   46.70    2.30
  -6   9   6   49.20    2.30
   6   9  -6   48.80    2.30
  -5  -9   6    9.50    0.90
   5  -9  -6   10.80    0.90
  -5  -9   6    9.50    0.90
   5   9  -6   10.50    0.90
  -5   9   6   11.80    0.80
   5   9  -6   10.40    0.80
   5   9  -6    8.60    0.70
  -5   9   6   10.20    0.80
  -4  -9   6   63.59    3.10
  -4  -9   6   63.79    3.10
   4  -9  -6   70.29    3.00
   4  -9  -6   63.79    3.10
   4   9  -6   68.79    3.10
  -4   9   6   64.39    3.00
  -4   9   6   68.39    3.10
  -4   9   6   68.29    3.10
   4   9  -6   66.49    3.00
   4   9  -6   66.49    3.10
   3  -9  -6    6.40    0.70
   3  -9  -6    4.40    0.50
  -3  -9   6    5.00    0.50
  -3  -9   6    4.00    0.50
   3   9  -6    4.80    0.50
  -3   9   6    4.80    0.50
  -3   9   6    5.00    0.50
   3   9  -6    3.50    0.40
   3   9  -6    4.80    0.50
  -3   9   6    5.10    0.50
   2  -9  -6    0.10    0.30
   2  -9  -6    1.00    0.30
  -2  -9   6    0.30    0.30
  -2  -9   6    0.10    0.40
   2   9  -6    0.20    0.30
  -2   9   6   -0.20    0.30
   2   9  -6    0.10    0.30
  -2   9   6    0.70    0.30
  -2   9   6    0.10    0.30
   1  -9  -6  248.08   10.40
  -1  -9   6  253.27   10.40
   1  -9  -6  229.78   10.30
  -1   9   6  217.78   10.30
  -1   9   6  238.28   10.40
   1   9  -6  244.38   10.30
   1   9  -6  244.18   10.40
   0  -9  -6   14.30    0.90
   0  -9  -6   15.40    1.00
   0  -9   6   13.00    1.00
   0  -9   6   14.40    1.00
   0   9  -6   16.00    0.90
   0   9  -6   12.50    0.90
   0   9  -6   16.30    0.90
   0   9   6   14.10    0.90
   0   9   6   14.50    1.00
   1  -9   6    1.10    0.50
  -1  -9  -6    1.20    0.30
   1  -9   6    1.20    0.40
  -1  -9  -6    1.10    0.40
  -1   9  -6    0.50    0.40
   1   9   6    1.20    0.40
  -1   9  -6    1.00    0.30
  -1   9  -6    0.80    0.30
   1   9   6    1.50    0.40
   2  -9   6   22.10    1.30
   2  -9   6   23.60    1.40
  -2  -9  -6   23.40    1.20
   2   9   6   22.70    1.30
   2   9   6   20.00    1.30
  -2   9  -6   22.80    1.30
  -2   9  -6   21.60    1.20
  -2   9  -6   22.50    1.30
   3  -9   6   51.59    2.90
   3  -9   6   50.19    2.60
  -3  -9  -6   54.39    2.50
   3   9   6   48.70    2.50
   3   9   6   50.69    2.50
  -3   9  -6   48.60    2.40
   6 -10  -6  213.68   10.00
  -6 -10   6  228.98   10.10
  -6  10   6  229.28   10.00
   6  10  -6  239.78   10.00
   6  10  -6  236.88   10.00
  -5 -10   6   76.89    3.40
  -5 -10   6   69.89    3.40
   5 -10  -6   77.29    3.40
   5  10  -6   72.69    3.40
   5  10  -6   72.29    3.30
   5  10  -6   71.39    3.40
  -5  10   6   71.09    3.40
  -4 -10   6   13.60    1.00
   4 -10  -6    9.30    0.80
  -4 -10   6   11.50    0.90
   4 -10  -6   10.60    1.00
  -4  10   6   10.80    0.80
  -4  10   6   10.30    0.90
   4  10  -6   11.10    0.90
   4  10  -6   10.50    0.80
   4  10  -6   10.20    0.90
  -4  10   6   10.60    0.90
   3 -10  -6  114.79    5.10
  -3 -10   6  115.29    5.20
  -3 -10   6  121.39    5.20
  -3  10   6  115.89    5.20
  -3  10   6  114.89    5.10
  -3  10   6  107.89    5.10
   3  10  -6  122.09    5.10
   3  10  -6  121.69    5.20
   3  10  -6  112.79    5.20
  -2 -10   6    8.70    0.80
   2 -10  -6    9.10    0.90
  -2 -10   6    7.20    0.70
   2 -10  -6    8.00    0.80
   2  10  -6    6.80    0.60
  -2  10   6    7.40    0.70
  -2  10   6    7.80    0.80
   2  10  -6    6.50    0.70
  -2  10   6    7.40    0.70
  -1 -10   6   10.00    0.80
   1 -10  -6   10.50    0.90
   1  10  -6    8.20    0.70
   1  10  -6    9.60    0.80
  -1  10   6    9.80    0.80
  -1  10   6    9.60    0.80
   0 -10   6    4.70    0.60
   0 -10  -6    4.30    0.50
   0  10   6    5.10    0.50
   0  10   6    5.40    0.60
   0  10  -6    5.40    0.60
   0  10  -6    5.20    0.50
   1 -10   6   95.89    4.20
  -1 -10  -6   81.59    4.10
  -1  10  -6   88.79    4.10
  -1  10  -6   92.59    4.20
   1  10   6   91.39    4.10
  -1  10  -6   96.49    4.10
   2 -10   6   47.80    2.60
   2 -10   6   50.99    2.60
   2  10   6   51.09    2.90
  -2  10  -6   54.49    2.70
  -5 -11   6    0.50    0.40
   5  11  -6    0.70    0.40
   5  11  -6    0.80    0.40
  -4 -11   6   62.49    3.10
   4 -11  -6   66.59    3.40
  -4 -11   6   64.79    3.10
   4  11  -6   65.39    3.10
   4  11  -6   61.79    3.00
  -4  11   6   62.39    2.90
   4  11  -6   62.59    2.90
  -3 -11   6    2.80    0.50
  -3 -11   6    2.80    0.50
   3 -11  -6    2.60    0.50
  -3  11   6    3.40    0.50
   3  11  -6    2.40    0.50
   3  11  -6    3.40    0.50
   3  11  -6    2.60    0.40
   2 -11  -6    7.00    0.70
  -2 -11   6    6.40    0.70
  -2  11   6    6.00    0.60
   2  11  -6    6.50    0.80
   2  11  -6    5.90    0.60
   2  11  -6    7.10    0.70
  -1 -11   6  150.48    7.60
   1 -11  -6  173.88    7.60
  -1  11   6  173.68    7.50
   1  11  -6  175.68    7.50
   1  11  -6  186.58    7.60
   0 -11  -6   13.60    1.10
   0 -11   6   11.60    1.00
   0  11  -6   12.50    1.00
  -1 -11  -6    0.10    0.50
 -11   0   7   -0.20    0.40
 -11   0   7   -0.20    0.40
  11   0  -7    0.20    0.40
  11   0  -7    0.00    0.40
  10   0  -7   -0.40    0.40
 -10   0   7   -0.20    0.30
  10   0  -7    0.50    0.40
 -10   0   7    0.50    0.50
   9   0  -7   -0.30    0.30
  -9   0   7    0.00    0.40
  -9   0   7   -0.70    0.30
   9   0  -7   -0.70    0.30
  -8   0   7    0.30    0.40
   8   0  -7   -0.30    0.30
  -8   0   7    0.10    0.30
   8   0  -7   -0.20    0.30
   7   0  -7    0.10    0.30
  -7   0   7   -0.10    0.20
  -7   0   7    0.40    0.30
   7   0  -7   -0.20    0.20
   6   0  -7    0.00    0.20
  -6   0   7   -0.20    0.30
   6   0  -7   -0.10    0.20
   6   0  -7    0.10    0.30
  -6   0   7   -0.20    0.20
  -6   0   7   -0.30    0.20
  -5   0   7   -0.20    0.10
  -5   0   7    0.20    0.20
   5   0  -7   -0.10    0.20
  -5   0   7    0.00    0.20
   5   0  -7    0.10    0.10
  -5   0   7    0.00    0.20
  -5   0   7   -0.20    0.20
   5   0  -7    0.00    0.20
  -5   0   7    0.30    0.20
   5   0  -7    0.00    0.20
  -4   0   7    0.40    0.20
   4   0  -7    0.40    0.20
  -4   0   7    0.60    0.20
  -4   0   7    0.10    0.20
   4   0  -7    0.30    0.20
  -4   0   7    0.10    0.20
  -4   0   7    0.10    0.20
  -4   0   7    0.10    0.20
   4   0  -7   -0.10    0.20
  -3   0   7    0.00    0.20
   3   0  -7    0.40    0.20
   3   0  -7    0.20    0.20
  -3   0   7    0.50    0.20
  -3   0   7    0.60    0.20
   3   0  -7    0.40    0.20
  -3   0   7   -0.20    0.20
  -3   0   7    0.40    0.20
  -3   0   7   -0.10    0.20
   2   0  -7    0.00    0.20
  -2   0   7   -0.10    0.20
   2   0  -7    0.00    0.20
  -2   0   7    0.20    0.20
   2   0  -7    0.00    0.20
  -2   0   7   -0.20    0.20
  -2   0   7    0.80    0.20
  -2   0   7    0.20    0.20
  -2   0   7    0.20    0.20
  -1   0   7    0.00    0.20
   1   0  -7   -0.20    0.10
   1   0  -7    0.20    0.20
  -1   0   7    0.00    0.20
  -1   0   7   -0.10    0.20
   1   0  -7    0.10    0.20
  -1   0   7    0.10    0.20
   0   0   7    0.10    0.20
   0   0  -7    0.10    0.20
   0   0   7   -0.10    0.20
   0   0  -7    0.20    0.20
   0   0   7   -0.20    0.20
   0   0   7    0.00    0.20
  -1   0  -7    0.20    0.20
   1   0   7   -0.20    0.30
   1   0   7    0.10    0.20
  -1   0  -7   -0.10    0.20
   1   0   7   -0.30    0.20
   2   0   7   -0.10    0.20
   2   0   7    0.00    0.30
  -2   0  -7   -0.20    0.20
   2   0   7    0.00    0.30
  -2   0  -7   -0.10    0.20
   3   0   7    0.10    0.30
  -3   0  -7    0.00    0.20
   3   0   7   -0.10    0.40
   3   0   7   -0.40    0.30
  -3   0  -7   -0.10    0.30
   4   0   7   -0.20    0.30
  -4   0  -7   -0.30    0.30
  -4   0  -7   -0.20    0.30
   4   0   7   -0.20    0.40
   4   0   7    0.10    0.30
   5   0   7    0.20    0.40
  -5   0  -7   -0.20    0.30
   5   0   7    0.10    0.30
  -5   0  -7    0.40    0.30
  -5   0  -7   -0.40    0.30
   5   0   7   -0.20    0.30
   6   0   7   -0.40    0.40
   6   0   7   -0.10    0.40
  11  -1  -7    4.10    0.60
 -11  -1   7    5.00    0.50
 -11  -1   7    4.10    0.70
  11  -1  -7    4.40    0.60
  11   1  -7    5.10    0.60
 -11   1   7    5.20    0.70
  11   1  -7    4.00    0.60
 -10  -1   7   22.90    1.40
 -10  -1   7   21.00    1.20
  10  -1  -7   18.50    1.20
  10  -1  -7   19.70    1.30
 -10   1   7   21.50    1.20
  10   1  -7   21.60    1.30
  10   1  -7   19.50    1.20
 -10   1   7   22.30    1.40
   9  -1  -7   -0.20    0.30
  -9  -1   7   -0.20    0.30
  -9  -1   7    0.30    0.40
   9  -1  -7    0.50    0.40
  -9   1   7    0.00    0.30
  -9   1   7    0.40    0.40
   9   1  -7   -0.60    0.30
   8  -1  -7  176.18    7.00
  -8  -1   7  162.98    7.00
  -8  -1   7  166.88    7.10
   8  -1  -7  158.78    7.10
  -8   1   7  142.09    7.10
   8   1  -7  161.88    7.00
  -8   1   7  158.48    7.00
   7  -1  -7   55.69    2.80
   7  -1  -7   62.69    2.80
  -7  -1   7   66.59    2.90
  -7  -1   7   64.29    2.80
  -7   1   7   60.89    2.90
  -7   1   7   62.49    2.80
   7   1  -7   59.39    2.80
  -7   1   7   60.19    2.90
  -6  -1   7    2.60    0.30
  -6  -1   7    3.30    0.40
   6  -1  -7    3.60    0.40
   6  -1  -7    3.90    0.40
  -6   1   7    3.30    0.40
  -6   1   7    3.20    0.30
   6   1  -7    3.80    0.40
  -6   1   7    3.40    0.40
   6   1  -7    3.90    0.40
   5  -1  -7  144.99    6.50
  -5  -1   7  148.29    6.50
  -5  -1   7  160.88    6.50
   5  -1  -7  150.48    6.50
  -5  -1   7  144.19    6.40
  -5  -1   7  147.99    6.50
  -5  -1   7  146.49    6.50
  -5  -1   7  150.88    6.50
   5  -1  -7  158.08    6.40
   5   1  -7  154.88    6.40
  -5   1   7  146.29    6.50
   5   1  -7  147.09    6.50
  -5   1   7  152.98    6.40
   5   1  -7  155.18    6.50
  -5   1   7  143.89    6.50
  -5   1   7  150.08    6.40
  -5   1   7  154.18    6.50
   4  -1  -7  131.19    5.60
   4  -1  -7  124.99    5.70
  -4  -1   7  130.39    5.60
  -4  -1   7  129.29    5.60
  -4  -1   7  138.29    5.60
  -4  -1   7  130.59    5.60
  -4  -1   7  126.39    5.60
   4  -1  -7  132.29    5.60
  -4  -1   7  129.09    5.70
  -4   1   7  133.29    5.70
  -4   1   7  132.19    5.60
  -4   1   7  131.29    5.60
   4   1  -7  139.59    5.60
   4   1  -7  127.79    5.60
   4   1  -7  130.89    5.60
   4   1  -7  120.89    5.60
  -4   1   7  127.89    5.70
  -4   1   7  137.79    5.60
  -4   1   7  129.19    5.60
   3  -1  -7   65.49    2.90
  -3  -1   7   57.39    2.90
   3  -1  -7   66.99    2.80
  -3  -1   7   67.39    2.90
   3  -1  -7   65.89    2.90
  -3  -1   7   69.59    2.90
  -3  -1   7   64.69    2.90
  -3  -1   7   60.99    2.90
  -3  -1   7   64.79    2.90
   3   1  -7   67.19    2.90
   3   1  -7   65.39    2.90
  -3   1   7   64.89    2.90
  -3   1   7   62.69    2.90
  -3   1   7   65.09    2.80
  -3   1   7   65.49    2.90
  -3   1   7   65.39    2.90
   3   1  -7   66.49    2.90
  -3   1   7   65.19    2.90
  -2  -1   7   74.29    3.30
  -2  -1   7   73.29    3.30
  -2  -1   7   73.79    3.30
  -2  -1   7   76.79    3.30
   2  -1  -7   76.99    3.30
   2  -1  -7   77.19    3.30
  -2  -1   7   79.59    3.30
   2   1  -7   75.89    3.30
  -2   1   7   74.59    3.30
  -2   1   7   76.09    3.30
  -2   1   7   72.19    3.30
  -2   1   7   72.19    3.30
  -2   1   7   75.99    3.30
   2   1  -7   74.89    3.30
   2   1  -7   72.69    3.30
   1  -1  -7  125.39    5.20
  -1  -1   7  123.19    5.30
  -1  -1   7  113.59    5.20
  -1  -1   7  118.39    5.20
   1  -1  -7  122.59    5.20
  -1  -1   7  122.19    5.30
   1  -1  -7  119.89    5.20
  -1   1   7  125.19    5.30
  -1   1   7  116.39    5.20
  -1   1   7  123.19    5.20
   1   1  -7  116.99    5.20
  -1   1   7  117.79    5.20
   1   1  -7  125.39    5.20
   0  -1   7   18.20    1.00
   0  -1  -7   18.30    0.90
   0  -1  -7   19.40    1.00
   0  -1   7   17.60    1.00
   0  -1   7   18.80    1.00
   0   1  -7   18.30    0.90
   0   1   7   19.00    1.00
   0   1  -7   18.30    1.00
   0   1   7   19.20    1.00
   0   1   7   18.40    1.00
   0   1   7   19.10    1.00
  -1  -1  -7   80.19    3.60
   1  -1   7   83.29    3.60
   1  -1   7   80.29    3.70
   1  -1   7   80.29    3.70
  -1  -1  -7   81.59    3.60
   1   1   7   83.49    3.60
  -1   1  -7   81.79    3.60
   1   1   7   81.09    3.70
   1   1   7   84.09    3.70
   1   1   7   85.09    3.60
  -1   1  -7   81.79    3.60
   2  -1   7  300.37   12.60
  -2  -1  -7  287.37   12.50
   2  -1   7  302.97   12.60
  -2  -1  -7  282.67   12.50
   2  -1   7  282.17   12.50
  -2   1  -7  296.07   12.50
   2   1   7  294.77   12.60
  -2   1  -7  292.67   12.50
   2   1   7  283.27   12.50
   2   1   7  300.47   12.50
   3  -1   7   51.39    2.50
  -3  -1  -7   53.69    2.50
   3  -1   7   54.99    2.50
   3  -1   7   53.29    2.60
  -3  -1  -7   54.99    2.50
  -3   1  -7   54.19    2.50
   3   1   7   53.39    2.50
   3   1   7   54.59    2.50
   3   1   7   54.39    2.60
  -3   1  -7   54.09    2.50
  -3   1  -7   54.99    2.50
   4  -1   7   21.40    1.30
   4  -1   7   20.90    1.30
  -4  -1  -7   20.70    1.10
  -4  -1  -7   21.80    1.20
   4  -1   7   20.70    1.10
  -4   1  -7   21.50    1.10
   4   1   7   19.80    1.20
  -4   1  -7   22.70    1.20
   4   1   7   20.90    1.30
   4   1   7   21.30    1.20
  -4   1  -7   20.60    1.10
  -5  -1  -7    1.90    0.40
  -5  -1  -7    1.90    0.40
   5  -1   7    2.30    0.50
   5  -1   7    2.40    0.40
   5  -1   7    2.00    0.50
  -5   1  -7    1.90    0.40
  -5   1  -7    2.50    0.40
   5   1   7    2.40    0.50
  -5   1  -7    2.50    0.40
   5   1   7    1.90    0.40
   5   1   7    2.10    0.40
   6  -1   7   47.20    2.40
   6  -1   7   47.00    2.50
   6   1   7   47.80    2.40
   6   1   7   49.80    2.70
 -11  -2   7    4.90    0.70
  11  -2  -7    7.60    0.90
  11   2  -7    5.00    0.60
 -11   2   7    4.70    0.70
 -10  -2   7   12.20    1.00
  10  -2  -7   11.90    0.90
  10  -2  -7   11.70    1.00
 -10   2   7   12.30    0.90
  10   2  -7   12.00    0.90
 -10   2   7   11.40    1.00
  -9  -2   7   95.69    4.30
   9  -2  -7   96.69    4.20
   9  -2  -7   92.09    4.30
  -9  -2   7   93.29    4.20
  -9   2   7   92.99    4.20
  -9   2   7   99.79    4.30
   9   2  -7   90.49    4.20
   8  -2  -7    5.80    0.60
  -8  -2   7    5.40    0.50
  -8  -2   7    5.30    0.60
   8  -2  -7    5.50    0.50
  -8   2   7    5.60    0.60
   8   2  -7    4.60    0.50
  -8   2   7    5.20    0.50
  -7  -2   7   10.50    0.60
   7  -2  -7    9.30    0.60
  -7  -2   7    9.00    0.80
   7  -2  -7   11.10    0.80
  -7   2   7   10.30    0.60
   7   2  -7   10.40    0.60
  -7   2   7   10.00    0.80
  -7   2   7   10.30    0.70
   7   2  -7    9.20    0.70
   6  -2  -7   13.80    0.90
  -6  -2   7   13.20    0.90
  -6  -2   7   13.40    0.70
   6  -2  -7   13.70    0.70
  -6   2   7   13.60    0.80
  -6   2   7   13.70    0.90
  -6   2   7   14.00    0.80
   6   2  -7   13.80    0.80
   6   2  -7   12.20    0.80
   5  -2  -7  149.39    6.60
  -5  -2   7  144.49    6.60
  -5  -2   7  156.78    6.50
   5  -2  -7  159.58    6.50
  -5  -2   7  170.08    6.60
  -5  -2   7  147.29    6.50
  -5   2   7  132.99    6.50
   5   2  -7  154.08    6.50
   5   2  -7  151.58    6.50
  -5   2   7  151.68    6.50
   5   2  -7  150.28    6.50
   5   2  -7  149.79    6.50
  -5   2   7  150.78    6.50
  -5   2   7  154.48    6.60
  -4  -2   7    0.50    0.20
  -4  -2   7    0.90    0.20
   4  -2  -7    0.50    0.30
  -4  -2   7    0.30    0.20
  -4  -2   7    0.40    0.20
  -4  -2   7    0.50    0.20
   4  -2  -7    0.70    0.20
  -4  -2   7    0.30    0.20
  -4   2   7    0.70    0.30
   4   2  -7    0.50    0.20
  -4   2   7    0.60    0.20
  -4   2   7    1.00    0.20
   4   2  -7    0.40    0.20
   4   2  -7    0.60    0.20
  -4   2   7    0.70    0.20
  -4   2   7    0.50    0.20
   4   2  -7    0.50    0.20
   3  -2  -7  221.48    9.40
  -3  -2   7  226.38    9.40
   3  -2  -7  229.98    9.30
  -3  -2   7  216.08    9.30
   3  -2  -7  212.68    9.40
  -3  -2   7  223.48    9.30
  -3  -2   7  215.48    9.30
  -3  -2   7  212.88    9.40
  -3  -2   7  220.68    9.40
   3   2  -7  208.38    9.40
  -3   2   7  231.08    9.40
  -3   2   7  223.88    9.40
  -3   2   7  222.38    9.40
  -3   2   7  232.48    9.30
  -3   2   7  204.88    9.40
   3   2  -7  200.58    9.30
   3   2  -7  216.98    9.30
   3   2  -7  219.28    9.30
  -2  -2   7   20.00    1.00
   2  -2  -7   21.10    1.00
  -2  -2   7   19.40    1.00
   2  -2  -7   20.80    1.00
  -2  -2   7   18.40    1.00
  -2  -2   7   19.10    1.00
  -2   2   7   19.20    1.00
  -2   2   7   18.80    1.00
  -2   2   7   21.00    1.00
   2   2  -7   19.40    1.00
   2   2  -7   18.50    0.90
  -2   2   7   20.50    0.90
  -2   2   7   20.90    1.00
   2   2  -7   18.40    1.00
  -1  -2   7   62.79    2.80
  -1  -2   7   65.39    2.90
   1  -2  -7   65.29    2.80
   1  -2  -7   63.69    2.80
  -1  -2   7   62.89    2.90
   1   2  -7   64.49    2.80
  -1   2   7   63.29    2.90
  -1   2   7   64.99    2.80
  -1   2   7   61.29    2.90
   1   2  -7   65.99    2.80
   1   2  -7   60.69    2.80
  -1   2   7   63.49    2.80
   0  -2   7    1.80    0.30
   0  -2  -7    1.20    0.30
   0  -2  -7    1.70    0.30
   0  -2   7    1.50    0.30
   0  -2   7    2.10    0.30
   0   2   7    1.60    0.30
   0   2  -7    1.60    0.30
   0   2   7    1.00    0.30
   0   2  -7    1.10    0.30
   0   2  -7    1.60    0.20
   0   2   7    1.80    0.20
   0   2   7    1.40    0.30
   1  -2   7   96.99    4.30
   1  -2   7   96.69    4.30
   1  -2   7   98.79    4.40
  -1  -2  -7  101.09    4.30
  -1  -2  -7   96.49    4.30
   1   2   7   96.79    4.30
   1   2   7   97.89    4.30
  -1   2  -7   97.79    4.30
  -1   2  -7   94.19    4.20
   1   2   7   94.69    4.30
   1   2   7   99.59    4.30
  -1   2  -7   96.89    4.30
   2  -2   7    8.20    0.70
   2  -2   7    8.30    0.60
  -2  -2  -7    9.40    0.60
   2  -2   7   10.40    0.80
  -2  -2  -7    8.90    0.70
  -2   2  -7    8.80    0.60
  -2   2  -7    7.60    0.60
  -2   2  -7    6.90    0.60
   2   2   7    8.00    0.80
   2   2   7    7.80    0.70
   2   2   7    7.70    0.60
   2   2   7    7.40    0.60
   3  -2   7  185.58    8.40
  -3  -2  -7  192.28    8.30
   3  -2   7  190.68    8.30
  -3  -2  -7  189.58    8.30
   3  -2   7  195.28    8.40
  -3   2  -7  193.98    8.30
  -3   2  -7  193.38    8.30
  -3   2  -7  207.48    8.30
   3   2   7  181.88    8.30
   3   2   7  189.48    8.30
   3   2   7  193.58    8.40
  -4  -2  -7   15.90    1.00
  -4  -2  -7   15.70    1.00
   4  -2   7   16.30    1.10
   4  -2   7   16.50    1.10
   4  -2   7   16.30    1.00
  -4   2  -7   15.30    0.90
   4   2   7   16.10    1.10
   4   2   7   15.50    1.00
  -4   2  -7   15.60    0.90
  -4   2  -7   16.70    0.90
  -5  -2  -7   11.40    0.90
   5  -2   7   11.60    1.00
   5  -2   7   12.20    0.90
   5  -2   7   12.80    1.00
  -5  -2  -7   11.80    0.90
  -5   2  -7   12.30    0.90
  -5   2  -7   11.50    0.80
   5   2   7   11.00    1.00
  -5   2  -7   11.40    0.80
   5   2   7   12.60    0.90
   6  -2   7    8.40    1.00
   6  -2   7    8.70    1.00
  11  -3  -7   42.00    2.20
 -11  -3   7   45.80    2.60
  11   3  -7   37.20    2.50
  10  -3  -7   -0.30    0.40
 -10  -3   7    0.10    0.40
  10   3  -7   -0.10    0.40
 -10   3   7    0.10    0.40
  -9  -3   7   11.90    1.00
   9  -3  -7   10.70    1.00
  -9   3   7   13.30    0.80
  -9   3   7    9.10    1.00
   9   3  -7   13.40    0.90
  -8  -3   7   11.90    0.90
  -8   3   7   11.10    0.70
   8   3  -7   12.20    0.80
   8   3  -7   12.30    0.80
  -8   3   7   10.90    0.80
  -8   3   7   10.80    0.90
  -7  -3   7    6.50    0.60
   7  -3  -7    5.90    0.70
   7   3  -7    6.10    0.60
  -7   3   7    6.20    0.70
   7   3  -7    6.70    0.50
  -7   3   7    6.40    0.50
  -7   3   7    7.40    0.60
   6  -3  -7    9.10    0.70
  -6  -3   7    8.40    0.70
  -6  -3   7    8.00    0.70
  -6   3   7    9.80    0.60
   6   3  -7    8.40    0.60
   6   3  -7    9.40    0.60
  -6   3   7    9.30    0.70
  -5  -3   7   56.49    2.60
  -5  -3   7   55.09    2.60
  -5  -3   7   60.39    2.60
   5   3  -7   56.09    2.50
   5   3  -7   54.89    2.50
  -5   3   7   56.99    2.50
  -5   3   7   53.49    2.50
  -5   3   7   57.99    2.50
   5   3  -7   53.89    2.50
   4  -3  -7  220.68   10.00
  -4  -3   7  244.38   10.00
  -4  -3   7  231.18   10.00
  -4  -3   7  238.08    9.90
  -4  -3   7  249.18   10.00
   4   3  -7  230.48   10.00
  -4   3   7  232.68   10.00
  -4   3   7  230.58    9.90
   4   3  -7  241.98    9.90
   4   3  -7  202.28    9.90
   4   3  -7  251.07    9.90
   4   3  -7  234.28   10.00
  -4   3   7  222.98   10.00
  -3  -3   7    0.10    0.20
   3  -3  -7    0.10    0.20
  -3  -3   7    0.00    0.20
  -3  -3   7   -0.10    0.30
  -3  -3   7    0.20    0.20
   3  -3  -7    0.00    0.20
   3   3  -7    0.00    0.20
   3   3  -7    0.00    0.20
  -3   3   7    0.10    0.20
   3   3  -7    0.10    0.10
   3   3  -7    0.00    0.20
  -3   3   7    0.00    0.20
  -3   3   7   -0.10    0.20
  -3   3   7    0.30    0.20
  -2  -3   7   28.50    1.30
   2  -3  -7   30.00    1.30
  -2  -3   7   27.00    1.40
  -2  -3   7   26.30    1.30
  -2  -3   7   28.60    1.40
   2  -3  -7   27.20    1.30
   2   3  -7   28.10    1.30
   2   3  -7   26.90    1.30
  -2   3   7   26.80    1.30
  -2   3   7   26.90    1.40
  -2   3   7   28.10    1.30
  -2   3   7   27.20    1.30
   2   3  -7   28.40    1.30
   1  -3  -7    0.50    0.20
  -1  -3   7    0.20    0.30
  -1  -3   7    0.40    0.20
   1  -3  -7    0.50    0.20
  -1  -3   7    0.30    0.20
  -1   3   7    0.60    0.20
   1   3  -7    0.70    0.20
   1   3  -7    0.40    0.20
   1   3  -7    0.30    0.10
  -1   3   7    0.10    0.20
  -1   3   7    0.50    0.30
   0  -3   7    4.30    0.50
   0  -3   7    4.50    0.50
   0  -3   7    4.60    0.40
   0  -3  -7    4.40    0.40
   0  -3  -7    6.50    0.50
   0   3   7    5.70    0.50
   0   3   7    3.40    0.40
   0   3  -7    4.70    0.40
   0   3  -7    4.40    0.40
   0   3  -7    4.50    0.50
   0   3   7    3.70    0.40
  -1  -3  -7    8.00    0.60
  -1  -3  -7    6.50    0.50
   1  -3   7    7.00    0.50
   1  -3   7    5.90    0.70
   1  -3   7    6.40    0.60
  -1   3  -7    7.20    0.50
  -1   3  -7    6.90    0.50
   1   3   7    6.30    0.60
   1   3   7    6.70    0.70
   1   3   7    6.80    0.60
  -1   3  -7    7.30    0.50
  -2  -3  -7  116.19    5.20
   2  -3   7  119.89    5.20
  -2  -3  -7  118.49    5.20
   2  -3   7  119.49    5.30
   2  -3   7  120.39    5.30
  -2   3  -7  121.09    5.20
  -2   3  -7  123.89    5.20
   2   3   7  117.79    5.30
   2   3   7  120.59    5.30
  -2   3  -7  123.09    5.20
   2   3   7  116.09    5.30
   3  -3   7    4.70    0.50
  -3  -3  -7    5.60    0.60
  -3  -3  -7    5.10    0.50
   3  -3   7    3.00    0.40
   3  -3   7    4.10    0.50
   3   3   7    4.40    0.50
   3   3   7    4.40    0.60
  -3   3  -7    4.50    0.50
  -3   3  -7    4.30    0.40
  -3   3  -7    4.20    0.40
   4  -3   7   18.00    1.00
   4  -3   7   18.30    1.20
   4  -3   7   17.10    1.10
  -4  -3  -7   18.00    1.10
  -4  -3  -7   18.50    1.10
   4   3   7   19.00    1.10
  -4   3  -7   18.40    1.10
   4   3   7   19.10    1.20
  -4   3  -7   18.30    1.00
  -4   3  -7   18.80    1.00
   5  -3   7   15.10    1.10
  -5  -3  -7   15.40    1.00
   5  -3   7   16.30    1.00
   5  -3   7   15.80    1.20
   5   3   7   17.00    1.00
  -5   3  -7   16.90    1.10
  -5   3  -7   15.20    0.90
   5   3   7   16.00    1.10
  -5   3  -7   15.20    1.00
   6  -3   7    0.00    0.70
 -10  -4   7   13.10    1.10
  10  -4  -7   11.80    1.00
  10   4  -7   13.10    1.00
   9  -4  -7   23.60    1.40
  -9  -4   7   23.50    1.40
   9   4  -7   23.80    1.30
   9   4  -7   23.30    1.30
  -9   4   7   24.30    1.30
   8  -4  -7   25.70    1.40
  -8  -4   7   23.50    1.40
  -8   4   7   23.60    1.30
   8   4  -7   26.60    1.40
  -8   4   7   24.40    1.30
   8   4  -7   25.70    1.30
  -7  -4   7   81.29    3.60
   7  -4  -7   72.19    3.60
   7   4  -7   78.39    3.60
  -7   4   7   80.69    3.60
  -7   4   7   83.09    3.50
   7   4  -7   78.89    3.50
   6  -4  -7   31.80    1.60
  -6  -4   7   31.00    1.50
  -6  -4   7   29.00    1.60
  -6   4   7   32.30    1.50
   6   4  -7   30.20    1.50
  -6   4   7   30.30    1.50
   6   4  -7   31.20    1.50
  -5  -4   7  236.98    9.50
   5  -4  -7  218.08    9.50
  -5  -4   7  220.48    9.50
  -5   4   7  225.38    9.40
   5   4  -7  219.98    9.50
  -5   4   7  218.48    9.50
   5   4  -7  210.68    9.40
   5   4  -7  224.58    9.50
  -5   4   7  212.08    9.50
  -4  -4   7  282.57   11.90
   4  -4  -7  264.37   11.90
  -4  -4   7  280.47   11.90
  -4   4   7  275.27   11.90
   4   4  -7  290.37   11.90
   4   4  -7  269.97   11.90
  -4   4   7  289.07   11.90
   4   4  -7  278.97   11.90
  -4   4   7  277.37   11.90
   3  -4  -7    0.90    0.30
  -3  -4   7    1.50    0.30
  -3  -4   7    0.60    0.30
   3  -4  -7    0.40    0.30
  -3  -4   7    1.90    0.30
   3   4  -7    0.90    0.30
   3   4  -7    0.70    0.20
  -3   4   7    1.20    0.20
  -3   4   7    0.20    0.30
   3   4  -7    0.80    0.20
  -3   4   7    0.70    0.30
   2  -4  -7  665.63   28.50
  -2  -4   7  695.23   28.60
   2  -4  -7  707.33   28.50
  -2  -4   7  642.34   28.60
  -2  -4   7  676.33   28.50
   2   4  -7  599.44   28.50
  -2   4   7  707.23   28.60
   2   4  -7  670.33   28.50
  -2   4   7  691.63   28.50
   2   4  -7  673.73   28.50
  -2   4   7  703.23   28.50
  -2   4   7  641.84   28.50
   1  -4  -7   21.90    1.10
  -1  -4   7   24.20    1.10
   1  -4  -7   21.00    1.10
  -1  -4   7   21.60    1.20
  -1  -4   7   21.90    1.20
  -1   4   7   24.30    1.20
   1   4  -7   22.40    1.10
  -1   4   7   21.40    1.10
   1   4  -7   21.70    1.10
  -1   4   7   22.30    1.20
   0  -4   7   68.49    3.30
   0  -4   7   74.59    3.20
   0  -4  -7   72.09    3.30
   0  -4   7   72.39    3.30
   0  -4  -7   74.39    3.20
   0   4   7   69.29    3.20
   0   4  -7   74.79    3.20
   0   4   7   72.59    3.20
   0   4   7   68.79    3.20
   0   4  -7   69.49    3.20
   1  -4   7  265.17   11.00
  -1  -4  -7  242.28   10.90
   1  -4   7  251.17   11.00
  -1  -4  -7  252.57   10.90
   1  -4   7  261.97   10.90
   1   4   7  257.17   11.00
  -1   4  -7  258.67   10.90
  -1   4  -7  248.68   10.90
   1   4   7  249.08   11.00
   1   4   7  261.37   10.90
  -2  -4  -7    3.80    0.40
   2  -4   7    3.30    0.50
  -2  -4  -7    2.30    0.30
   2  -4   7    2.90    0.50
   2  -4   7    3.00    0.40
  -2   4  -7    3.00    0.40
   2   4   7    3.30    0.40
   2   4   7    3.70    0.40
  -2   4  -7    2.70    0.40
   2   4   7    2.80    0.40
   3  -4   7   43.10    2.30
  -3  -4  -7   51.19    2.30
   3  -4   7   47.60    2.20
  -3  -4  -7   49.60    2.30
   3  -4   7   47.80    2.40
  -3   4  -7   46.60    2.20
   3   4   7   47.80    2.30
   3   4   7   48.90    2.30
   3   4   7   47.00    2.30
  -3   4  -7   47.40    2.30
  -4  -4  -7    3.90    0.50
   4  -4   7    3.60    0.60
  -4  -4  -7    4.20    0.50
   4  -4   7    2.90    0.50
  -4   4  -7    2.80    0.40
   4   4   7    3.90    0.60
   4   4   7    3.70    0.50
  -4   4  -7    3.40    0.40
   5  -4   7   19.30    1.30
   5  -4   7   20.20    1.30
   5   4   7   20.20    1.20
  -5   4  -7   19.90    1.10
   5   4   7   18.60    1.30
  10  -5  -7   71.29    3.30
 -10  -5   7   69.19    3.30
  10   5  -7   64.99    3.20
   9  -5  -7   53.19    2.60
  -9  -5   7   51.29    2.60
   9   5  -7   54.89    2.50
  -9   5   7   50.19    2.50
   9   5  -7   51.39    2.50
  -8  -5   7    9.30    0.90
   8  -5  -7    9.80    0.90
   8   5  -7    8.70    0.80
  -8   5   7    8.20    0.70
   8   5  -7    8.60    0.70
  -8   5   7    8.50    0.80
   7  -5  -7   19.60    1.20
  -7  -5   7   18.10    1.20
  -7   5   7   17.80    1.10
   7   5  -7   16.30    1.10
  -7   5   7   20.00    1.10
   7   5  -7   21.00    1.10
  -6  -5   7   65.39    3.00
  -6  -5   7   62.99    2.90
   6  -5  -7   69.09    3.00
  -6   5   7   60.89    2.90
   6   5  -7   62.79    2.90
   6   5  -7   64.79    2.90
  -6   5   7   63.39    2.90
   5  -5  -7    6.80    0.60
  -5  -5   7    7.20    0.60
  -5  -5   7    7.00    0.60
  -5   5   7    7.90    0.60
   5   5  -7    7.70    0.50
   5   5  -7    7.90    0.60
  -5   5   7    8.40    0.50
  -5   5   7    7.60    0.60
   5   5  -7    7.60    0.60
  -4  -5   7   17.30    1.00
  -4  -5   7   14.20    1.00
   4  -5  -7   17.20    1.00
  -4   5   7   17.00    1.00
  -4   5   7   18.50    0.90
  -4   5   7   18.00    1.00
   4   5  -7   18.60    1.00
   4   5  -7   16.50    1.00
   4   5  -7   17.50    0.90
  -3  -5   7   83.49    3.70
  -3  -5   7   87.59    3.70
   3  -5  -7   77.09    3.70
   3  -5  -7   81.19    3.70
  -3  -5   7   80.99    3.70
  -3   5   7   86.59    3.70
  -3   5   7   83.39    3.70
  -3   5   7   84.39    3.70
   3   5  -7   78.29    3.60
   3   5  -7   87.29    3.70
   3   5  -7   83.49    3.60
  -2  -5   7   71.79    3.20
  -2  -5   7   67.19    3.10
  -2  -5   7   69.89    3.10
   2  -5  -7   65.89    3.10
   2  -5  -7   69.79    3.10
  -2   5   7   71.29    3.10
  -2   5   7   72.09    3.10
   2   5  -7   69.69    3.10
  -2   5   7   65.99    3.10
   2   5  -7   65.89    3.00
   2   5  -7   68.49    3.00
  -1  -5   7  111.99    4.80
   1  -5  -7  102.99    4.70
   1  -5  -7  103.09    4.70
  -1  -5   7  110.79    4.80
  -1   5   7  105.29    4.70
  -1   5   7  108.79    4.70
  -1   5   7  105.09    4.80
   1   5  -7  112.99    4.80
   1   5  -7  109.69    4.70
   1   5  -7  107.19    4.70
   0  -5  -7  315.37   13.40
   0  -5   7  313.97   13.50
   0  -5  -7  302.77   13.40
   0  -5   7  301.27   13.40
   0   5   7  317.77   13.40
   0   5  -7  303.47   13.40
   0   5  -7  330.57   13.40
   0   5   7  317.97   13.40
   0   5   7  314.17   13.40
  -1  -5  -7   70.19    3.20
   1  -5   7   67.09    3.20
  -1  -5  -7   70.49    3.10
   1  -5   7   69.39    3.20
   1   5   7   70.59    3.20
   1   5   7   71.49    3.20
   1   5   7   66.99    3.20
  -1   5  -7   68.89    3.10
  -1   5  -7   71.79    3.10
   2  -5   7    3.10    0.50
  -2  -5  -7    2.80    0.40
  -2  -5  -7    2.80    0.40
   2  -5   7    2.00    0.40
   2   5   7    2.70    0.40
  -2   5  -7    2.90    0.40
   2   5   7    2.10    0.40
  -2   5  -7    2.70    0.40
   2   5   7    2.40    0.40
  -3  -5  -7    5.20    0.50
  -3  -5  -7    5.30    0.50
   3  -5   7    5.40    0.60
   3  -5   7    5.20    0.60
  -3   5  -7    5.00    0.50
   3   5   7    5.70    0.60
  -3   5  -7    5.20    0.50
   3   5   7    4.70    0.50
   3   5   7    4.70    0.50
  -4  -5  -7    3.90    0.50
   4  -5   7    2.90    0.50
  -4  -5  -7    4.20    0.50
   4  -5   7    4.10    0.60
   4   5   7    5.10    0.50
   4   5   7    4.10    0.60
  -4   5  -7    4.40    0.50
  -4   5  -7    4.50    0.50
   5  -5   7   65.49    3.50
   5  -5   7   62.69    3.10
  -5   5  -7   63.49    3.00
   5   5   7   68.69    3.10
  10   6  -7   58.09    2.80
   9  -6  -7   -0.60    0.40
  -9  -6   7   -0.40    0.40
  -9   6   7   -0.10    0.30
   9   6  -7   -0.10    0.40
   9   6  -7    0.20    0.40
  -8  -6   7    6.70    0.80
   8  -6  -7    6.10    0.70
  -8   6   7    6.40    0.70
   8   6  -7    6.90    0.70
  -8   6   7    6.80    0.70
   8   6  -7    6.60    0.70
   7  -6  -7   16.10    1.10
  -7  -6   7   13.90    1.00
   7   6  -7   16.50    1.00
   7   6  -7   15.60    1.00
  -7   6   7   14.80    1.00
  -7   6   7   14.50    1.00
  -6  -6   7   54.79    2.60
   6  -6  -7   54.09    2.60
  -6  -6   7   54.29    2.60
   6   6  -7   55.29    2.60
   6   6  -7   53.89    2.60
  -6   6   7   55.19    2.60
  -6   6   7   56.09    2.60
  -5  -6   7   89.99    4.10
   5  -6  -7   92.09    4.10
  -5  -6   7   87.59    4.10
   5   6  -7   87.99    4.10
  -5   6   7   89.29    4.00
   5   6  -7   91.79    4.10
   5   6  -7   90.39    4.00
  -5   6   7   95.59    4.00
  -5   6   7   93.59    4.10
  -4  -6   7    1.60    0.40
  -4  -6   7    1.80    0.30
   4  -6  -7    1.50    0.30
   4  -6  -7    1.60    0.40
   4   6  -7    1.90    0.30
  -4   6   7    1.30    0.30
  -4   6   7    1.50    0.40
   4   6  -7    2.00    0.40
   4   6  -7    1.40    0.30
  -4   6   7    1.80    0.30
   3  -6  -7  725.33   31.70
  -3  -6   7  700.73   31.70
   3  -6  -7  732.33   31.70
  -3  -6   7  754.82   31.70
  -3  -6   7  858.71   31.70
  -3   6   7  762.72   31.70
  -3   6   7  746.03   31.60
   3   6  -7  686.83   31.70
  -3   6   7  745.73   31.70
   3   6  -7  750.02   31.60
   2  -6  -7   42.70    2.00
  -2  -6   7   43.70    2.00
  -2  -6   7   45.50    2.10
   2  -6  -7   43.90    2.00
  -2  -6   7   43.60    2.10
  -2   6   7   41.00    2.00
   2   6  -7   42.50    2.00
   2   6  -7   44.10    2.00
  -2   6   7   41.80    2.00
  -2   6   7   40.80    2.00
   2   6  -7   40.60    2.00
   1  -6  -7   13.20    0.80
  -1  -6   7   10.70    0.80
   1  -6  -7   11.80    0.80
  -1  -6   7   11.00    0.90
   1   6  -7   11.20    0.70
  -1   6   7   12.80    0.80
  -1   6   7   11.00    0.80
  -1   6   7   12.90    0.80
   1   6  -7   11.40    0.80
   1   6  -7   11.60    0.70
   0  -6   7   17.40    1.10
   0  -6  -7   15.80    0.90
   0  -6   7   15.70    1.00
   0  -6  -7   17.90    1.00
   0   6  -7   18.70    1.10
   0   6   7   16.90    1.00
   0   6   7   17.80    1.00
   0   6  -7   18.30    0.90
   0   6   7   16.50    1.00
   0   6  -7   17.50    1.00
  -1  -6  -7    0.10    0.30
   1  -6   7    0.20    0.40
   1  -6   7    0.00    0.30
   1   6   7    1.40    0.30
   1   6   7   -0.10    0.30
  -1   6  -7    0.20    0.20
  -1   6  -7   -0.10    0.30
   1   6   7    0.30    0.30
  -2  -6  -7   81.29    3.60
   2  -6   7   81.19    3.80
  -2  -6  -7   78.49    3.70
   2  -6   7   78.29    3.70
  -2   6  -7   85.19    3.60
   2   6   7   82.19    3.70
   2   6   7   83.19    3.70
   2   6   7   81.09    3.70
  -2   6  -7   81.09    3.70
   3  -6   7  191.88    8.10
   3  -6   7  186.08    8.10
  -3  -6  -7  182.78    8.00
  -3  -6  -7  182.68    8.00
   3   6   7  179.88    8.00
  -3   6  -7  175.48    7.90
  -3   6  -7  185.48    8.00
   3   6   7  186.88    8.00
   3   6   7  183.38    8.10
   4  -6   7   82.89    3.80
   4  -6   7   81.99    3.80
  -4   6  -7   78.89    3.60
   4   6   7   78.49    3.80
   4   6   7   78.39    3.70
   5  -6   7   15.00    1.20
  -5   6  -7   15.70    1.00
   5   6   7   17.50    1.30
  -9  -7   7   -0.30    0.50
   9  -7  -7   -0.10    0.40
   9   7  -7    0.10    0.40
   9   7  -7    0.00    0.40
  -8  -7   7   73.49    3.60
   8  -7  -7   79.09    3.60
   8   7  -7   80.19    3.60
  -8   7   7   77.29    3.50
   8   7  -7   72.69    3.50
  -8   7   7   77.09    3.50
  -7  -7   7    7.50    0.80
   7  -7  -7    7.20    0.80
  -7   7   7    7.70    0.70
   7   7  -7    7.30    0.80
  -7   7   7    7.10    0.70
   7   7  -7    7.70    0.70
  -6  -7   7   14.20    1.00
   6  -7  -7   15.00    1.00
  -6  -7   7   13.20    1.00
  -6   7   7   15.20    1.00
   6   7  -7   15.10    1.00
   6   7  -7   14.80    1.00
  -6   7   7   15.20    1.00
  -5  -7   7    1.00    0.40
   5  -7  -7    0.80    0.40
  -5  -7   7    1.10    0.40
   5   7  -7    1.50    0.40
   5   7  -7    0.80    0.30
  -5   7   7    1.80    0.40
  -5   7   7    1.20    0.30
   5   7  -7    1.30    0.40
  -5   7   7    1.20    0.40
  -4  -7   7   55.09    2.40
   4  -7  -7   45.00    2.30
   4  -7  -7   49.40    2.40
  -4  -7   7   51.29    2.40
   4   7  -7   53.99    2.40
   4   7  -7   49.20    2.40
  -4   7   7   50.79    2.40
  -4   7   7   47.80    2.30
   4   7  -7   47.50    2.30
  -4   7   7   50.29    2.30
  -3  -7   7    0.60    0.30
  -3  -7   7    1.40    0.40
   3  -7  -7    0.90    0.30
   3  -7  -7    1.20    0.30
  -3   7   7    0.90    0.30
   3   7  -7    0.80    0.30
  -3   7   7    1.10    0.30
   3   7  -7    0.50    0.30
  -3   7   7    1.60    0.30
   2  -7  -7   52.69    2.30
  -2  -7   7   53.79    2.40
  -2  -7   7   49.70    2.40
   2  -7  -7   49.40    2.30
  -2   7   7   53.19    2.40
  -2   7   7   41.90    2.30
   2   7  -7   49.99    2.30
   2   7  -7   48.00    2.40
   2   7  -7   51.89    2.40
  -2   7   7   49.30    2.30
   1  -7  -7    0.10    0.30
  -1  -7   7    0.50    0.40
  -1  -7   7    0.30    0.40
   1  -7  -7    0.20    0.30
  -1   7   7    0.30    0.30
   1   7  -7    0.20    0.30
   1   7  -7    0.00    0.20
   1   7  -7    0.20    0.30
  -1   7   7    0.40    0.30
   0  -7  -7   41.60    2.00
   0  -7   7   41.00    2.00
   0  -7   7   43.40    2.10
   0  -7  -7   42.10    2.00
   0   7   7   39.10    2.00
   0   7  -7   40.90    1.90
   0   7  -7   40.90    2.00
   0   7   7   40.30    2.00
   0   7  -7   39.60    1.90
   0   7   7   41.20    2.00
   1  -7   7   17.30    1.10
  -1  -7  -7   16.80    1.00
   1  -7   7   17.70    1.20
  -1   7  -7   16.70    1.00
   1   7   7   17.50    1.10
  -1   7  -7   16.30    1.00
  -1   7  -7   16.90    1.10
   1   7   7   16.50    1.00
   1   7   7   17.50    1.10
  -2  -7  -7    1.50    0.40
   2  -7   7    1.60    0.50
  -2  -7  -7    1.80    0.40
   2  -7   7    1.60    0.50
  -2   7  -7    1.60    0.40
   2   7   7    1.80    0.40
   2   7   7    1.40    0.40
  -2   7  -7    1.30    0.40
  -2   7  -7    1.20    0.30
   2   7   7    1.70    0.40
   3  -7   7   21.90    1.40
   3  -7   7   21.70    1.40
  -3  -7  -7   22.70    1.30
  -3   7  -7   22.60    1.50
   3   7   7   24.70    1.40
  -3   7  -7   22.60    1.20
   3   7   7   21.30    1.30
   4  -7   7   54.59    2.80
   4   7   7   54.89    2.80
   4   7   7   54.99    2.70
  -4   7  -7   59.79    2.60
   8  -8  -7    3.10    0.60
  -8  -8   7    4.40    0.70
   8   8  -7    4.90    0.60
   8   8  -7    4.20    0.60
   7  -8  -7   22.60    1.50
  -7  -8   7   24.30    1.50
  -7   8   7   22.30    1.40
   7   8  -7   27.20    1.40
  -7   8   7   22.80    1.40
   7   8  -7   23.50    1.30
  -6  -8   7  132.49    5.50
   6  -8  -7  116.19    5.50
  -6  -8   7  119.09    5.50
  -6   8   7  115.19    5.40
  -6   8   7  122.49    5.50
   6   8  -7  126.89    5.50
   6   8  -7  125.99    5.50
  -5  -8   7    3.60    0.50
   5  -8  -7    3.30    0.50
  -5  -8   7    4.30    0.60
   5   8  -7    2.90    0.50
  -5   8   7    3.80    0.50
   5   8  -7    4.00    0.50
   5   8  -7    4.10    0.40
  -5   8   7    3.60    0.50
  -4  -8   7   38.20    1.90
   4  -8  -7   39.70    1.80
   4  -8  -7   35.00    1.80
  -4  -8   7   36.80    1.90
  -4   8   7   35.80    1.90
   4   8  -7   37.60    1.90
   4   8  -7   35.50    1.90
  -4   8   7   35.80    1.80
  -4   8   7   37.50    1.80
   4   8  -7   35.40    1.70
   3  -8  -7    2.70    0.50
  -3  -8   7    3.20    0.50
  -3  -8   7    3.80    0.50
   3  -8  -7    4.10    0.50
   3   8  -7    3.10    0.40
   3   8  -7    2.70    0.40
  -3   8   7    2.80    0.40
  -3   8   7    3.90    0.50
  -3   8   7    3.10    0.40
   2  -8  -7   56.19    2.80
  -2  -8   7   63.49    2.80
   2  -8  -7   58.69    2.70
  -2   8   7   60.49    2.80
  -2   8   7   57.89    2.70
   2   8  -7   63.69    2.80
  -2   8   7   58.59    2.70
   2   8  -7   57.09    2.70
   1  -8  -7   15.80    0.90
  -1  -8   7   14.90    1.00
  -1  -8   7   17.30    1.10
   1  -8  -7   14.50    1.00
   1   8  -7   14.10    0.90
  -1   8   7   15.40    1.00
  -1   8   7   14.20    0.90
   1   8  -7   15.60    1.00
   1   8  -7   13.90    0.90
   0  -8   7   20.00    1.20
   0  -8  -7   21.80    1.20
   0  -8   7   21.10    1.30
   0  -8  -7   19.40    1.10
   0   8  -7   20.50    1.20
   0   8   7   21.60    1.20
   0   8  -7   20.90    1.10
   0   8   7   19.10    1.20
   0   8  -7   21.50    1.10
   1  -8   7   35.90    2.00
   1  -8   7   38.60    1.90
  -1  -8  -7   39.50    1.90
  -1   8  -7   38.00    1.90
   1   8   7   37.40    2.00
   1   8   7   38.20    1.90
   1   8   7   38.60    1.90
  -1   8  -7   38.60    1.90
  -1   8  -7   38.80    1.90
   2  -8   7   29.20    1.60
  -2  -8  -7   29.30    1.50
   2  -8   7   29.80    1.70
  -2  -8  -7   30.10    1.60
   2   8   7   29.10    1.60
   2   8   7   27.80    1.60
  -2   8  -7   29.90    1.60
   2   8   7   30.40    1.60
  -2   8  -7   28.80    1.60
  -2   8  -7   29.90    1.50
   3  -8   7    5.60    0.70
   3  -8   7    7.20    0.80
  -3   8  -7    8.50    0.80
   3   8   7    6.90    0.70
   3   8   7    7.60    0.90
  -3   8  -7    7.40    0.70
  -7  -9   7   16.90    1.20
   7  -9  -7   17.10    1.20
   7   9  -7   17.90    1.20
   7   9  -7   15.20    1.10
  -6  -9   7   19.30    1.30
  -6  -9   7   19.80    1.30
   6  -9  -7   16.90    1.30
   6   9  -7   17.90    1.20
   6   9  -7   19.50    1.20
  -6   9   7   21.10    1.20
  -5  -9   7   32.50    1.80
   5  -9  -7   32.70    1.80
  -5  -9   7   33.60    1.80
   5  -9  -7   29.70    1.60
  -5   9   7   34.50    1.70
   5   9  -7   32.00    1.70
   5   9  -7   32.50    1.60
  -5   9   7   31.10    1.70
   5   9  -7   30.80    1.70
  -4  -9   7    9.50    0.80
  -4  -9   7    9.50    0.80
   4  -9  -7    8.30    0.80
   4  -9  -7    9.10    0.80
   4   9  -7    9.10    0.80
   4   9  -7    8.70    0.80
  -4   9   7    9.10    0.80
   4   9  -7    9.10    0.70
  -4   9   7    8.90    0.70
  -4   9   7    8.60    0.80
  -3  -9   7   38.90    2.10
   3  -9  -7   43.30    2.10
   3  -9  -7   36.20    1.90
  -3  -9   7   41.60    2.00
   3   9  -7   39.90    2.00
   3   9  -7   40.40    1.90
  -3   9   7   39.70    1.90
  -3   9   7   40.70    2.00
  -3   9   7   40.80    2.00
  -2  -9   7   -0.20    0.30
   2  -9  -7    0.10    0.40
   2  -9  -7    0.20    0.30
  -2   9   7    0.00    0.30
   2   9  -7   -0.30    0.30
   2   9  -7    0.30    0.30
  -2   9   7   -0.30    0.30
  -1  -9   7   47.30    2.40
   1  -9  -7   51.59    2.30
   1  -9  -7   50.39    2.40
   1   9  -7   48.70    2.30
  -1   9   7   49.99    2.40
  -1   9   7   47.50    2.40
   1   9  -7   51.79    2.40
   0  -9  -7  118.19    5.40
   0  -9   7  117.99    5.40
   0  -9  -7  125.19    5.30
   0  -9   7  120.79    5.40
   0   9  -7  121.29    5.30
   0   9  -7  120.09    5.30
   0   9  -7  123.99    5.40
   0   9   7  116.89    5.30
   0   9   7  119.89    5.40
   1  -9   7   16.40    1.30
   1  -9   7   20.50    1.30
  -1  -9  -7   20.50    1.10
  -1   9  -7   18.60    1.10
   1   9   7   19.00    1.20
   1   9   7   19.10    1.20
  -1   9  -7   19.60    1.20
  -1   9  -7   18.20    1.10
   2  -9   7  120.39    5.60
   2  -9   7  116.89    5.40
   2   9   7  112.09    5.50
  -2   9  -7  114.29    5.40
  -2   9  -7  135.99    5.40
  -6 -10   7    6.90    0.80
  -6 -10   7    8.40    1.00
   6  10  -7    6.20    0.90
  -5 -10   7   33.30    1.90
  -5 -10   7   36.30    1.90
   5 -10  -7   39.60    1.80
   5  10  -7   33.80    1.80
  -5  10   7   32.60    1.80
   5  10  -7   32.10    1.70
   5  10  -7   33.80    1.80
  -4 -10   7   38.80    2.00
   4 -10  -7   35.30    2.00
   4 -10  -7   37.60    1.90
  -4 -10   7   38.70    2.00
   4  10  -7   40.70    2.00
   4  10  -7   37.30    2.00
  -4  10   7   37.00    1.90
   4  10  -7   36.90    1.90
  -4  10   7   39.30    1.90
   3 -10  -7   42.80    2.20
   3 -10  -7   43.70    2.10
  -3 -10   7   43.80    2.20
  -3  10   7   42.90    2.10
   3  10  -7   38.40    2.00
  -3  10   7   48.10    2.10
   3  10  -7   43.60    2.20
  -3  10   7   39.10    2.40
   3  10  -7   41.60    2.10
   2 -10  -7   49.90    2.70
  -2 -10   7   57.49    2.70
   2 -10  -7   55.79    2.60
  -2  10   7   56.39    2.70
   2  10  -7   53.99    2.60
  -2  10   7   53.99    2.60
   2  10  -7   56.99    2.70
  -1 -10   7    4.70    0.60
   1 -10  -7    5.00    0.50
   1 -10  -7    5.40    0.60
  -1  10   7    5.30    0.60
  -1  10   7    5.90    0.60
   1  10  -7    4.90    0.50
   1  10  -7    5.80    0.60
   0 -10  -7    5.40    0.60
   0 -10   7    5.50    0.70
   0  10   7    5.10    0.60
   0  10   7    5.20    0.90
   0  10  -7    4.80    0.60
   0  10  -7    5.20    0.50
   1 -10   7   37.40    2.00
  -1  10  -7   37.50    2.00
  -4 -11   7   12.90    1.10
  -4  11   7   13.00    0.90
  -3  11   7    5.70    0.80
  11   0  -8   65.59    3.30
  11   0  -8   69.39    3.20
 -11   0   8   71.79    3.40
 -10   0   8  479.85   19.20
  10   0  -8  422.06   19.10
 -10   0   8  422.96   19.10
  10   0  -8  462.55   19.20
  -9   0   8   35.70    1.80
  -9   0   8   33.20    1.70
   9   0  -8   32.70    1.70
   9   0  -8   34.30    1.80
   8   0  -8   43.30    2.20
  -8   0   8   43.40    2.20
   8   0  -8   44.30    2.10
  -8   0   8   44.20    2.10
   7   0  -8    3.90    0.50
  -7   0   8    4.10    0.50
  -7   0   8    4.40    0.40
   7   0  -8    5.00    0.50
   6   0  -8    0.40    0.30
   6   0  -8    1.20    0.30
  -6   0   8    1.50    0.30
  -6   0   8    0.60    0.30
  -6   0   8    1.00    0.20
   5   0  -8  503.75   20.80
  -5   0   8  493.05   20.80
   5   0  -8  473.65   20.90
  -5   0   8  483.05   20.80
  -5   0   8  528.15   20.80
  -5   0   8  492.85   20.80
   5   0  -8  447.26   20.80
  -5   0   8  507.65   20.90
  -5   0   8  496.65   20.80
   5   0  -8  480.45   20.80
   4   0  -8    5.90    0.50
   4   0  -8    5.00    0.40
  -4   0   8    5.70    0.40
  -4   0   8    5.00    0.50
   4   0  -8    4.80    0.50
   4   0  -8    5.00    0.40
  -4   0   8    5.10    0.50
  -4   0   8    4.90    0.40
  -4   0   8    5.20    0.50
   4   0  -8    4.40    0.40
  -4   0   8    4.40    0.50
  -3   0   8   19.40    1.00
  -3   0   8   20.10    1.00
  -3   0   8   21.80    1.00
  -3   0   8   19.10    1.00
  -3   0   8   19.60    1.00
   3   0  -8   19.60    1.00
  -3   0   8   20.10    1.00
   3   0  -8   20.10    1.00
   3   0  -8   18.50    1.00
  -2   0   8  156.58    6.70
  -2   0   8  151.88    6.70
  -2   0   8  156.28    6.70
  -2   0   8  158.28    6.80
   2   0  -8  156.88    6.70
   2   0  -8  148.39    6.70
   2   0  -8  163.38    6.70
   1   0  -8  132.79    6.00
  -1   0   8  137.59    6.00
  -1   0   8  140.99    6.10
   1   0  -8  143.59    6.00
  -1   0   8  139.79    6.00
  -1   0   8  140.39    6.00
   0   0   8    2.90    0.40
   0   0   8    2.80    0.40
   0   0   8    2.80    0.40
   0   0  -8    3.20    0.40
   0   0   8    2.50    0.40
   0   0  -8    2.50    0.30
   1   0   8  323.07   13.90
   1   0   8  317.37   13.80
  -1   0  -8  329.17   13.80
  -1   0  -8  321.57   13.80
   1   0   8  327.27   13.90
   2   0   8    2.00    0.50
   2   0   8    1.50    0.30
   2   0   8    1.70    0.40
  -2   0  -8    1.20    0.30
  -2   0  -8    1.80    0.30
   3   0   8   59.19    2.90
  -3   0  -8   61.49    2.80
   3   0   8   64.99    3.00
  -3   0  -8   63.59    2.90
   3   0   8   64.79    2.90
   4   0   8   12.40    1.00
   4   0   8   13.20    1.10
  -4   0  -8   12.20    0.80
  -4   0  -8   12.60    0.90
  -4   0  -8   13.50    0.90
   4   0   8   13.50    0.90
   5   0   8    0.80    0.40
   5   0   8    0.00    0.40
   5   0   8    1.40    0.50
  -5   0  -8    1.10    0.40
 -11  -1   8    0.40    0.50
  11  -1  -8    0.90    0.50
  11  -1  -8    0.70    0.50
  11   1  -8    0.20    0.50
  11   1  -8    0.40    0.40
 -11   1   8    0.70    0.50
 -10  -1   8   85.49    3.70
  10  -1  -8   89.19    3.90
  10  -1  -8   78.89    3.70
 -10  -1   8   82.79    3.90
 -10   1   8   81.49    3.70
  10   1  -8   84.39    3.80
 -10   1   8   76.49    3.90
  10   1  -8   82.19    3.90
  -9  -1   8   71.29    3.40
   9  -1  -8   75.29    3.40
  -9  -1   8   71.19    3.30
   9  -1  -8   73.59    3.30
  -9   1   8   69.99    3.30
   9   1  -8   71.59    3.30
  -9   1   8   72.79    3.40
   9   1  -8   74.69    3.40
   8  -1  -8  221.48    9.90
  -8  -1   8  233.38    9.80
  -8  -1   8  234.88    9.90
   8  -1  -8  228.58    9.80
  -8   1   8  230.48    9.80
   8   1  -8  216.08    9.80
  -8   1   8  227.78    9.90
   7  -1  -8   55.19    2.80
   7  -1  -8   60.39    2.70
  -7  -1   8   61.99    2.70
  -7  -1   8   60.79    2.80
  -7   1   8   58.79    2.70
  -7   1   8   58.79    2.80
   7   1  -8   59.99    2.70
  -6  -1   8  253.17   10.70
  -6  -1   8  226.38   10.70
   6  -1  -8  252.77   10.70
   6  -1  -8  257.37   10.60
  -6   1   8  244.98   10.70
  -6   1   8  258.57   10.80
  -6   1   8  260.87   10.70
   6   1  -8  256.67   10.70
   6   1  -8  231.58   10.70
   5  -1  -8    2.30    0.30
  -5  -1   8    2.50    0.30
   5  -1  -8    2.10    0.40
  -5  -1   8    2.40    0.30
  -5  -1   8    2.30    0.40
  -5  -1   8    2.30    0.30
  -5  -1   8    2.00    0.30
  -5  -1   8    2.40    0.30
   5   1  -8    2.20    0.30
   5   1  -8    1.90    0.30
  -5   1   8    2.60    0.40
  -5   1   8    1.80    0.30
   5   1  -8    2.40    0.30
  -5   1   8    1.80    0.30
  -5   1   8    2.00    0.30
   5   1  -8    1.80    0.20
  -4  -1   8   79.89    3.70
  -4  -1   8   79.39    3.70
   4  -1  -8   85.49    3.70
  -4  -1   8   89.79    3.70
  -4  -1   8   83.19    3.70
  -4  -1   8   84.79    3.70
   4  -1  -8   80.29    3.70
   4  -1  -8   86.19    3.70
  -4  -1   8   85.29    3.70
   4   1  -8   82.99    3.70
   4   1  -8   84.09    3.70
   4   1  -8   77.89    3.70
   4   1  -8   77.59    3.70
  -4   1   8   87.99    3.70
  -4   1   8   84.89    3.70
   4   1  -8   85.19    3.70
  -4   1   8   83.39    3.70
   4   1  -8   90.59    3.70
  -4   1   8   85.29    3.70
  -4   1   8   86.79    3.70
  -4   1   8   85.59    3.70
   3  -1  -8  151.48    6.40
  -3  -1   8  144.09    6.40
  -3  -1   8  153.88    6.40
  -3  -1   8  133.59    6.40
  -3  -1   8  142.39    6.40
   3  -1  -8  154.78    6.40
  -3  -1   8  151.08    6.40
  -3  -1   8  147.69    6.40
   3   1  -8  135.69    6.40
  -3   1   8  148.49    6.40
   3   1  -8  156.98    6.40
  -3   1   8  150.38    6.40
  -3   1   8  150.28    6.40
   3   1  -8  149.88    6.40
  -3   1   8  150.08    6.40
   3   1  -8  148.39    6.40
  -3   1   8  148.49    6.40
  -2  -1   8  172.98    7.40
  -2  -1   8  175.08    7.40
   2  -1  -8  177.18    7.40
  -2  -1   8  175.28    7.40
   2  -1  -8  165.28    7.40
   2  -1  -8  169.08    7.40
  -2  -1   8  172.98    7.40
  -2   1   8  176.98    7.40
  -2   1   8  174.78    7.40
  -2   1   8  177.58    7.40
  -2   1   8  165.98    7.40
  -2   1   8  174.48    7.40
   2   1  -8  156.18    7.30
   2   1  -8  167.98    7.40
   1  -1  -8    6.10    0.50
  -1  -1   8    5.90    0.50
  -1  -1   8    6.90    0.60
  -1  -1   8    5.90    0.60
  -1  -1   8    5.70    0.50
   1  -1  -8    6.30    0.50
   1   1  -8    5.80    0.50
  -1   1   8    5.50    0.50
  -1   1   8    5.80    0.60
   1   1  -8    5.90    0.50
  -1   1   8    5.70    0.60
  -1   1   8    6.10    0.50
   0  -1  -8   61.89    2.80
   0  -1  -8   61.19    2.70
   0  -1   8   62.99    2.80
   0  -1   8   62.09    2.80
   0  -1   8   61.79    2.80
   0   1   8   61.09    2.80
   0   1  -8   62.49    2.70
   0   1  -8   60.29    2.80
   0   1   8   59.09    2.80
   0   1   8   60.89    2.80
   0   1   8   58.59    2.80
   1  -1   8   55.69    2.60
  -1  -1  -8   56.79    2.60
  -1  -1  -8   54.79    2.60
   1  -1   8   56.19    2.70
   1  -1   8   56.09    2.60
  -1   1  -8   58.69    2.50
   1   1   8   58.29    2.70
  -1   1  -8   54.79    2.60
   1   1   8   56.69    2.60
   1   1   8   55.99    2.60
   1   1   8   55.29    2.60
   2  -1   8   30.10    1.60
   2  -1   8   30.70    1.60
   2  -1   8   29.40    1.50
  -2  -1  -8   29.80    1.50
  -2  -1  -8   30.60    1.50
   2   1   8   30.10    1.60
  -2   1  -8   31.60    1.50
   2   1   8   29.00    1.50
  -2   1  -8   31.10    1.50
  -2   1  -8   29.10    1.50
   2   1   8   31.20    1.50
   3  -1   8   70.09    3.30
   3  -1   8   68.39    3.20
   3  -1   8   64.39    3.10
  -3  -1  -8   69.19    3.10
  -3  -1  -8   68.89    3.10
   3   1   8   68.09    3.20
   3   1   8   71.19    3.30
  -3   1  -8   69.19    3.10
  -3   1  -8   72.19    3.20
   3   1   8   66.69    3.20
  -3   1  -8   69.69    3.10
   4  -1   8   79.09    3.70
  -4  -1  -8   80.19    3.70
  -4  -1  -8   81.29    3.60
   4  -1   8   78.99    3.80
   4  -1   8   81.19    3.60
  -4   1  -8   78.89    3.60
  -4   1  -8   83.39    3.70
   4   1   8   79.29    3.70
  -4   1  -8   79.89    3.60
   4   1   8   84.39    3.80
   5  -1   8  188.78    8.50
   5  -1   8  196.58    8.40
   5  -1   8  183.98    8.30
   5   1   8  186.28    8.30
  -5   1  -8  198.98    8.30
   5   1   8  192.28    8.50
  11  -2  -8    1.80    0.80
  11   2  -8    1.60    0.50
  10  -2  -8   94.39    4.30
 -10  -2   8   93.79    4.40
 -10   2   8   94.99    4.20
  10   2  -8   91.49    4.30
 -10   2   8   94.69    4.40
   9  -2  -8    0.20    0.40
  -9  -2   8    0.20    0.40
  -9   2   8   -0.30    0.40
  -9   2   8   -0.50    0.30
   9   2  -8    0.10    0.40
  -8  -2   8   45.70    2.20
   8  -2  -8   44.00    2.20
  -8   2   8   44.30    2.20
   8   2  -8   43.40    2.10
  -8   2   8   42.80    2.10
  -7  -2   8    2.80    0.50
   7  -2  -8    3.00    0.40
  -7  -2   8    2.70    0.30
  -7   2   8    4.30    0.50
   7   2  -8    2.90    0.30
  -7   2   8    2.70    0.40
   7   2  -8    3.30    0.40
  -7   2   8    3.20    0.40
  -6  -2   8    0.20    0.20
  -6  -2   8    0.30    0.30
  -6  -2   8    0.10    0.30
   6  -2  -8    0.20    0.30
  -6   2   8    0.10    0.30
   6   2  -8    0.10    0.20
   6   2  -8    0.20    0.30
  -6   2   8    0.70    0.30
  -6   2   8    0.20    0.20
  -5  -2   8    2.10    0.30
   5  -2  -8    1.00    0.30
  -5  -2   8    1.30    0.30
  -5  -2   8    1.90    0.30
  -5  -2   8    1.50    0.30
  -5  -2   8    1.60    0.20
  -5  -2   8    1.70    0.20
   5   2  -8    1.70    0.20
   5   2  -8    1.60    0.20
  -5   2   8    1.40    0.30
   5   2  -8    1.10    0.30
  -5   2   8    1.50    0.30
   5   2  -8    1.90    0.30
  -5   2   8    1.60    0.40
  -5   2   8    1.60    0.30
   4  -2  -8   10.20    0.70
  -4  -2   8   10.30    0.60
  -4  -2   8   10.60    0.70
  -4  -2   8    9.60    0.60
  -4  -2   8   10.80    0.60
   4  -2  -8    9.10    0.70
  -4  -2   8   10.00    0.70
  -4  -2   8   10.30    0.70
   4   2  -8   10.50    0.60
   4   2  -8   10.70    0.60
  -4   2   8   10.30    0.60
   4   2  -8   10.40    0.60
   4   2  -8   10.50    0.70
   4   2  -8    9.90    0.70
  -4   2   8    9.70    0.70
  -4   2   8   10.70    0.70
  -3  -2   8    0.20    0.20
  -3  -2   8    0.30    0.20
  -3  -2   8   -0.10    0.20
  -3  -2   8    0.20    0.30
  -3  -2   8   -0.30    0.20
   3  -2  -8    0.00    0.20
   3  -2  -8    0.20    0.20
   3   2  -8    0.00    0.20
   3   2  -8   -0.10    0.20
  -3   2   8    0.30    0.20
  -3   2   8    0.20    0.30
   3   2  -8   -0.20    0.20
  -3   2   8    0.00    0.30
  -3   2   8   -0.10    0.20
   3   2  -8   -0.10    0.20
   2  -2  -8  164.38    6.90
  -2  -2   8  156.08    7.00
  -2  -2   8  157.48    7.00
   2  -2  -8  165.78    6.90
  -2  -2   8  159.98    6.90
  -2   2   8  165.68    7.00
  -2   2   8  159.18    7.00
   2   2  -8  157.18    6.90
  -2   2   8  166.68    6.90
   2   2  -8  156.98    6.90
  -2   2   8  160.08    6.90
   2   2  -8  159.48    6.90
   1  -2  -8    7.00    0.50
  -1  -2   8    7.30    0.60
  -1  -2   8    7.00    0.50
  -1  -2   8    5.40    0.50
   1  -2  -8    6.30    0.50
  -1   2   8    6.00    0.60
   1   2  -8    6.50    0.50
  -1   2   8    6.50    0.60
   1   2  -8    6.40    0.50
  -1   2   8    6.30    0.50
   1   2  -8    6.30    0.50
   0  -2   8  103.49    4.50
   0  -2   8  103.29    4.60
   0  -2   8  102.59    4.60
   0  -2  -8  100.29    4.50
   0  -2  -8  100.69    4.60
   0   2   8  103.19    4.60
   0   2   8  104.89    4.60
   0   2   8  105.39    4.60
   0   2  -8  108.59    4.50
   0   2  -8  101.39    4.50
   0   2  -8  105.09    4.50
   1  -2   8   -0.10    0.40
   1  -2   8   -0.20    0.30
   1  -2   8   -0.20    0.30
  -1  -2  -8    0.20    0.30
  -1  -2  -8    0.00    0.20
   1   2   8    0.10    0.30
   1   2   8    0.00    0.30
  -1   2  -8   -0.10    0.20
  -1   2  -8    0.10    0.30
   1   2   8   -0.20    0.30
  -1   2  -8    0.20    0.20
   2  -2   8   44.00    2.20
   2  -2   8   44.70    2.20
  -2  -2  -8   45.90    2.10
   2  -2   8   44.50    2.10
  -2  -2  -8   44.80    2.10
  -2   2  -8   47.00    2.10
   2   2   8   44.40    2.20
  -2   2  -8   46.60    2.10
   2   2   8   44.40    2.30
  -2   2  -8   47.80    2.20
  -3  -2  -8   35.00    1.70
   3  -2   8   34.40    1.80
  -3  -2  -8   34.50    1.70
   3  -2   8   34.10    1.90
   3  -2   8   34.90    1.70
   3   2   8   35.40    1.80
  -3   2  -8   34.20    1.70
  -3   2  -8   35.70    1.70
  -3   2  -8   33.40    1.70
   3   2   8   36.00    1.90
   4  -2   8    0.30    0.40
   4  -2   8   -0.10    0.30
   4  -2   8    0.20    0.40
  -4  -2  -8    0.10    0.30
  -4  -2  -8    0.40    0.30
  -4   2  -8   -0.10    0.30
   4   2   8    0.10    0.40
  -4   2  -8    0.20    0.30
  -4   2  -8    0.10    0.30
   4   2   8    0.50    0.40
   5  -2   8   24.50    1.50
   5  -2   8   26.40    1.70
   5  -2   8   25.50    1.40
  -5   2  -8   24.20    1.40
   5   2   8   23.50    1.40
 -10  -3   8   10.70    1.00
  10  -3  -8   10.30    0.90
 -10   3   8   10.40    0.90
  10   3  -8   10.70    0.90
  -9  -3   8    0.90    0.50
   9  -3  -8    0.50    0.50
   9   3  -8    0.70    0.40
  -9   3   8    0.20    0.30
  -8  -3   8  222.28    9.90
   8  -3  -8  235.48    9.90
   8   3  -8  221.88    9.80
  -8   3   8  230.48    9.80
   8   3  -8  221.88    9.70
   7  -3  -8   45.90    2.20
  -7  -3   8   47.30    2.20
   7   3  -8   44.50    2.10
   7   3  -8   38.60    2.10
  -7   3   8   44.40    2.10
  -7   3   8   44.10    2.10
  -6  -3   8  145.49    6.40
   6  -3  -8  150.08    6.40
  -6  -3   8  139.59    6.30
  -6   3   8  149.19    6.30
   6   3  -8  141.09    6.30
  -6   3   8  142.79    6.30
   6   3  -8  146.59    6.30
  -5  -3   8  435.06   19.00
  -5  -3   8  440.96   19.00
  -5  -3   8  431.86   19.00
   5  -3  -8  462.35   19.10
   5   3  -8  448.16   19.00
   5   3  -8  461.95   19.00
  -5   3   8  453.65   19.00
   5   3  -8  454.75   18.90
  -5   3   8  439.16   19.00
  -5   3   8  439.36   19.00
  -4  -3   8   21.80    1.20
   4  -3  -8   23.30    1.20
  -4  -3   8   22.60    1.20
  -4  -3   8   22.60    1.20
   4  -3  -8   23.80    1.20
  -4   3   8   23.80    1.20
   4   3  -8   25.00    1.10
  -4   3   8   23.60    1.20
   4   3  -8   21.70    1.20
  -4   3   8   23.10    1.20
   4   3  -8   25.20    1.10
   4   3  -8   21.70    1.20
  -3  -3   8    8.00    0.60
   3  -3  -8    7.60    0.60
  -3  -3   8    7.90    0.60
  -3  -3   8    9.10    0.70
  -3  -3   8    8.60    0.60
   3  -3  -8    8.50    0.60
  -3   3   8    9.00    0.60
   3   3  -8    8.70    0.50
  -3   3   8    8.50    0.60
  -3   3   8    7.80    0.60
   3   3  -8    8.40    0.50
  -3   3   8    7.80    0.60
   3   3  -8    7.10    0.60
   2  -3  -8    2.40    0.30
   2  -3  -8    2.50    0.30
  -2  -3   8    2.20    0.30
  -2  -3   8    2.10    0.30
  -2  -3   8    2.20    0.40
  -2   3   8    2.60    0.40
   2   3  -8    2.10    0.30
   2   3  -8    2.10    0.30
  -2   3   8    1.80    0.30
  -2   3   8    1.90    0.30
  -2   3   8    2.20    0.30
   2   3  -8    2.50    0.30
   1  -3  -8  147.89    6.60
  -1  -3   8  147.09    6.60
  -1  -3   8  153.38    6.60
  -1  -3   8  154.48    6.70
   1   3  -8  156.18    6.60
   1   3  -8  156.08    6.50
  -1   3   8  149.09    6.60
  -1   3   8  153.88    6.60
  -1   3   8  150.98    6.60
   1   3  -8  152.28    6.60
   0  -3   8    0.00    0.30
   0  -3  -8   -0.20    0.30
   0  -3   8   -0.10    0.20
   0  -3  -8   -0.10    0.30
   0  -3   8   -0.10    0.30
   0   3  -8    0.00    0.20
   0   3  -8   -0.20    0.20
   0   3   8   -0.20    0.20
   0   3   8   -0.10    0.30
   0   3  -8    0.20    0.20
   0   3   8    0.20    0.30
   1  -3   8  107.99    4.70
   1  -3   8  113.29    4.80
   1  -3   8  104.59    4.70
  -1  -3  -8  109.39    4.70
  -1  -3  -8  106.99    4.70
  -1   3  -8  100.59    4.70
   1   3   8  106.19    4.70
  -1   3  -8  106.39    4.60
  -1   3  -8  105.19    4.60
   1   3   8  103.59    4.70
   1   3   8  100.09    4.70
  -2  -3  -8   43.30    2.00
  -2  -3  -8   44.50    2.10
   2  -3   8   41.50    2.20
   2  -3   8   41.30    2.10
   2  -3   8   43.10    2.00
   2   3   8   43.60    2.10
   2   3   8   41.30    2.10
  -2   3  -8   42.80    2.00
   2   3   8   41.50    2.20
  -2   3  -8   42.10    2.00
  -2   3  -8   44.10    2.00
   3  -3   8    8.00    0.70
   3  -3   8   10.00    0.90
  -3  -3  -8    9.90    0.70
   3  -3   8   10.10    0.90
  -3  -3  -8    9.30    0.80
   3   3   8   10.00    0.90
  -3   3  -8    9.90    0.70
  -3   3  -8    9.50    0.70
   3   3   8    9.40    0.80
  -3   3  -8   10.10    0.80
   4  -3   8    4.50    0.60
   4  -3   8    4.70    0.70
  -4  -3  -8    6.10    0.70
   4  -3   8    4.70    0.50
   4   3   8    5.10    0.60
  -4   3  -8    4.90    0.50
  -4   3  -8    5.20    0.50
   4   3   8    5.40    0.70
   5  -3   8   87.19    4.00
  -5   3  -8   92.89    4.00
   5   3   8   89.29    4.10
 -10  -4   8   19.70    1.30
  10  -4  -8   18.80    1.30
  10   4  -8   17.40    1.20
   9  -4  -8   60.69    3.20
  -9  -4   8   73.09    3.30
  -9   4   8   70.19    3.20
   9   4  -8   67.99    3.20
  -8  -4   8   14.60    1.10
   8  -4  -8   16.20    1.10
  -8   4   8   15.50    0.90
   8   4  -8   17.30    1.00
   8   4  -8   14.50    1.00
  -8   4   8   17.10    1.00
   7  -4  -8   68.99    3.20
  -7  -4   8   70.59    3.30
  -7   4   8   67.99    3.20
   7   4  -8   66.59    3.20
  -7   4   8   70.49    3.20
   7   4  -8   72.69    3.20
  -6  -4   8   49.10    2.20
  -6  -4   8   42.20    2.20
   6  -4  -8   48.80    2.20
   6   4  -8   48.20    2.20
  -6   4   8   46.90    2.20
  -6   4   8   45.20    2.10
   6   4  -8   40.70    2.10
   5  -4  -8   15.00    0.90
  -5  -4   8   14.10    0.90
  -5  -4   8   14.50    0.90
   5   4  -8   15.10    0.90
  -5   4   8   15.50    0.80
  -5   4   8   15.90    0.90
  -5   4   8   16.10    0.90
   5   4  -8   14.70    0.90
   5   4  -8   15.30    0.80
  -4  -4   8  140.09    6.20
  -4  -4   8  144.49    6.20
  -4  -4   8  137.99    6.20
   4  -4  -8  139.09    6.20
   4  -4  -8  144.49    6.20
   4   4  -8  140.39    6.10
  -4   4   8  141.09    6.20
   4   4  -8  140.99    6.20
  -4   4   8  150.78    6.10
  -4   4   8  135.39    6.20
   3  -4  -8  398.66   17.10
   3  -4  -8  408.86   17.10
  -3  -4   8  415.36   17.20
  -3  -4   8  403.06   17.10
  -3  -4   8  411.16   17.20
   3   4  -8  388.26   17.20
   3   4  -8  413.66   17.10
   3   4  -8  401.56   17.10
  -3   4   8  377.26   17.10
  -3   4   8  392.46   17.20
  -3   4   8  414.26   17.20
   2  -4  -8   41.60    1.80
  -2  -4   8   36.90    1.90
  -2  -4   8   41.70    1.90
  -2  -4   8   39.00    1.80
   2  -4  -8   38.70    1.80
   2   4  -8   37.20    1.80
  -2   4   8   36.90    1.80
   2   4  -8   35.80    1.80
  -2   4   8   37.50    1.80
   2   4  -8   35.20    1.80
  -2   4   8   36.70    1.90
  -2   4   8   41.20    1.80
  -1  -4   8  161.58    6.90
  -1  -4   8  164.58    7.00
  -1  -4   8  167.58    7.00
   1  -4  -8  154.68    6.90
  -1   4   8  161.98    7.00
   1   4  -8  159.98    6.90
  -1   4   8  158.98    7.00
  -1   4   8  155.78    7.00
   1   4  -8  158.28    6.90
   0  -4  -8   41.30    1.90
   0  -4   8   41.10    2.00
   0  -4   8   40.90    2.00
   0  -4   8   41.80    1.90
   0  -4  -8   41.20    2.00
   0   4  -8   40.60    1.90
   0   4  -8   38.70    1.90
   0   4   8   40.40    2.00
   0   4   8   41.80    2.00
   0   4   8   39.20    1.90
  -1  -4  -8    0.30    0.30
   1  -4   8    0.00    0.30
   1  -4   8   -0.30    0.30
   1  -4   8   -0.10    0.30
  -1  -4  -8    0.00    0.30
   1   4   8   -0.30    0.30
   1   4   8    0.60    0.30
  -1   4  -8    0.00    0.20
   1   4   8    0.30    0.30
  -1   4  -8   -0.40    0.30
   2  -4   8    0.00    0.40
   2  -4   8    0.20    0.30
  -2  -4  -8    0.40    0.30
  -2  -4  -8    0.20    0.30
   2  -4   8    0.00    0.30
   2   4   8    0.00    0.30
  -2   4  -8    0.50    0.30
   2   4   8    0.80    0.40
   2   4   8    0.40    0.30
  -2   4  -8    0.30    0.30
  -3  -4  -8   61.59    2.90
   3  -4   8   59.59    2.90
   3  -4   8   64.99    3.00
  -3  -4  -8   62.99    2.90
   3  -4   8   64.19    3.00
   3   4   8   65.89    3.10
   3   4   8   59.99    2.90
  -3   4  -8   62.79    2.90
   3   4   8   60.59    2.90
  -3   4  -8   66.39    2.90
   4  -4   8    2.30    0.60
   4  -4   8    2.40    0.60
  -4  -4  -8    2.40    0.40
   4   4   8    2.40    0.50
  -4   4  -8    2.90    0.40
   4   4   8    2.30    0.50
  10  -5  -8   48.50    2.50
 -10  -5   8   45.70    2.90
  -9  -5   8    3.10    0.60
   9  -5  -8    3.00    0.60
   9   5  -8    3.10    0.50
   9   5  -8    2.70    0.50
  -9   5   8    2.30    0.40
   8  -5  -8   19.00    1.20
  -8  -5   8   21.20    1.30
   8   5  -8   20.10    1.20
  -8   5   8   19.60    1.10
  -8   5   8   21.30    1.20
   8   5  -8   20.70    1.20
   7  -5  -8    0.40    0.40
  -7  -5   8    0.40    0.40
  -7   5   8    0.60    0.30
  -7   5   8    0.30    0.30
   7   5  -8    0.10    0.30
   7   5  -8   -0.20    0.30
  -6  -5   8  177.48    7.90
   6  -5  -8  186.08    7.90
  -6  -5   8  176.18    7.80
   6   5  -8  175.88    7.80
  -6   5   8  183.38    7.80
   6   5  -8  172.78    7.80
  -6   5   8  188.58    7.80
  -5  -5   8   32.80    1.50
  -5  -5   8   27.30    1.50
   5  -5  -8   24.70    1.50
  -5   5   8   29.80    1.40
   5   5  -8   28.30    1.30
   5   5  -8   26.00    1.40
   5   5  -8   28.70    1.50
  -5   5   8   27.50    1.40
  -5   5   8   29.60    1.50
  -4  -5   8   46.80    2.10
  -4  -5   8   41.90    2.00
  -4  -5   8   40.80    2.10
   4  -5  -8   45.50    2.00
   4  -5  -8   42.60    2.00
  -4   5   8   43.40    2.00
  -4   5   8   45.10    2.10
   4   5  -8   40.00    2.00
  -4   5   8   41.90    2.10
   4   5  -8   43.20    2.00
   4   5  -8   39.10    2.00
   3  -5  -8    7.60    0.70
  -3  -5   8    7.70    0.60
  -3  -5   8    6.40    0.70
   3  -5  -8    8.50    0.70
  -3  -5   8    7.30    0.70
   3   5  -8    8.00    0.60
   3   5  -8    6.60    0.50
  -3   5   8    8.20    0.60
  -3   5   8    6.50    0.60
  -3   5   8    7.20    0.70
   3   5  -8    6.70    0.50
  -2  -5   8   60.39    2.70
   2  -5  -8   56.59    2.60
  -2  -5   8   57.29    2.70
   2  -5  -8   57.59    2.60
  -2   5   8   57.19    2.60
  -2   5   8   57.19    2.60
   2   5  -8   53.99    2.60
  -2   5   8   57.29    2.70
   2   5  -8   56.09    2.60
   2   5  -8   58.49    2.60
  -1  -5   8  173.98    7.60
  -1  -5   8  172.08    7.60
   1  -5  -8  173.18    7.60
   1  -5  -8  164.78    7.50
  -1   5   8  173.88    7.60
  -1   5   8  174.68    7.50
   1   5  -8  176.88    7.50
   1   5  -8  181.48    7.60
  -1   5   8  174.88    7.50
   1   5  -8  171.18    7.50
   0  -5   8   -0.10    0.40
   0  -5  -8    0.40    0.30
   0  -5   8    0.20    0.30
   0   5  -8    0.50    0.30
   0   5   8    0.30    0.30
   0   5   8    0.60    0.30
   0   5  -8    0.30    0.30
   0   5   8    0.60    0.30
  -1  -5  -8    1.20    0.40
  -1  -5  -8    1.10    0.30
   1  -5   8    1.40    0.40
   1  -5   8    0.50    0.40
  -1   5  -8    0.80    0.30
  -1   5  -8    1.00    0.30
   1   5   8    1.00    0.30
   1   5   8    1.30    0.40
   1   5   8    1.10    0.40
   2  -5   8    0.50    0.40
  -2  -5  -8    0.40    0.30
   2  -5   8    0.40    0.40
  -2  -5  -8    0.20    0.30
   2   5   8    0.60    0.40
   2   5   8    0.80    0.40
  -2   5  -8    1.20    0.30
  -2   5  -8    0.30    0.30
   2   5   8    0.80    0.40
  -3  -5  -8    1.10    0.40
   3  -5   8    1.30    0.50
  -3  -5  -8    1.10    0.40
   3  -5   8    0.90    0.50
  -3   5  -8    0.30    0.30
  -3   5  -8    1.20    0.40
   3   5   8    0.80    0.40
   3   5   8    0.50    0.40
   3   5   8    0.80    0.50
   4  -5   8   41.30    2.50
   4  -5   8   40.50    2.20
   4   5   8   42.00    2.10
   4   5   8   40.20    2.20
  -4   5  -8   40.10    2.00
  -9  -6   8    2.60    0.60
   9  -6  -8    2.90    0.50
   9   6  -8    3.40    0.50
   9   6  -8    3.40    0.60
  -9   6   8    3.40    0.50
  -8  -6   8   16.20    1.20
   8  -6  -8   18.60    1.20
  -8   6   8   19.30    1.20
  -8   6   8   18.70    1.10
   8   6  -8   17.80    1.10
   8   6  -8   18.20    1.10
  -7  -6   8   45.70    2.40
   7  -6  -8   47.30    2.30
  -7   6   8   48.50    2.30
   7   6  -8   48.70    2.30
   7   6  -8   48.30    2.30
  -7   6   8   45.40    2.30
  -6  -6   8    0.70    0.40
  -6  -6   8    1.00    0.40
   6  -6  -8    1.10    0.40
   6   6  -8    1.40    0.40
   6   6  -8    1.30    0.40
  -6   6   8    0.70    0.30
  -6   6   8    0.70    0.30
  -5  -6   8    1.40    0.40
  -5  -6   8    0.80    0.40
   5  -6  -8    1.00    0.40
   5   6  -8    1.20    0.30
  -5   6   8    0.90    0.30
   5   6  -8    1.30    0.30
   5   6  -8    0.90    0.20
  -5   6   8    1.30    0.30
  -5   6   8    1.40    0.40
   4  -6  -8   16.60    1.00
   4  -6  -8   16.80    0.90
  -4  -6   8   16.50    1.00
  -4  -6   8   16.10    1.00
   4   6  -8   15.90    1.00
  -4   6   8   15.50    1.00
   4   6  -8   16.50    1.00
   4   6  -8   15.50    0.90
  -4   6   8   15.50    1.00
  -4   6   8   15.10    0.90
   3  -6  -8    7.50    0.70
   3  -6  -8    7.70    0.60
  -3  -6   8    8.30    0.70
  -3  -6   8    6.70    0.70
  -3   6   8    8.10    0.60
   3   6  -8    7.70    0.60
   3   6  -8    7.90    0.70
  -3   6   8    7.40    0.70
  -3   6   8    8.30    0.70
   2  -6  -8   16.30    1.00
  -2  -6   8   16.80    1.00
  -2  -6   8   17.70    1.10
   2  -6  -8   15.60    1.00
   2   6  -8   15.90    0.90
   2   6  -8   17.30    0.90
  -2   6   8   16.30    1.00
   2   6  -8   18.00    1.10
  -2   6   8   18.50    1.10
  -2   6   8   17.00    1.00
   1  -6  -8   55.19    2.60
   1  -6  -8   56.59    2.60
  -1  -6   8   57.59    2.70
  -1  -6   8   57.39    2.70
   1   6  -8   57.29    2.60
  -1   6   8   55.09    2.60
  -1   6   8   56.39    2.70
   1   6  -8   57.59    2.60
   1   6  -8   60.29    2.70
   0  -6   8  120.09    5.40
   0  -6   8  123.39    5.40
   0  -6  -8  123.59    5.30
   0   6   8  122.29    5.40
   0   6  -8  116.49    5.30
   0   6   8  119.09    5.30
   0   6   8  122.99    5.40
   0   6  -8  121.09    5.30
   0   6  -8  116.69    5.40
  -1  -6  -8   18.30    1.10
   1  -6   8   17.20    1.20
   1  -6   8   17.60    1.20
  -1  -6  -8   17.40    1.00
  -1   6  -8   17.40    1.00
   1   6   8   16.80    1.10
   1   6   8   16.50    1.10
   1   6   8   17.80    1.10
  -1   6  -8   17.00    1.00
  -2  -6  -8    1.20    0.40
   2  -6   8    0.70    0.50
  -2  -6  -8    1.60    0.40
   2  -6   8    1.40    0.40
   2   6   8    1.60    0.40
  -2   6  -8    0.80    0.30
   2   6   8    1.10    0.40
   2   6   8    0.90    0.40
  -2   6  -8    1.50    0.40
   3  -6   8    9.70    1.00
  -3  -6  -8    9.40    0.80
   3  -6   8    8.80    0.90
   3   6   8   12.10    0.90
   3   6   8    9.00    0.90
  -3   6  -8   10.00    0.80
   3   6   8    9.00    0.90
   9   7  -8   19.10    1.20
   8  -7  -8   36.50    2.00
  -8  -7   8   38.30    2.00
   8   7  -8   37.50    1.90
  -8   7   8   37.40    1.90
   8   7  -8   37.30    2.00
  -7  -7   8   52.29    2.60
   7  -7  -8   58.69    2.70
   7   7  -8   56.29    2.60
   7   7  -8   49.90    2.60
  -7   7   8   52.49    2.50
  -7   7   8   51.19    2.60
  -6  -7   8   24.10    1.40
   6  -7  -8   23.50    1.40
  -6  -7   8   23.80    1.40
   6   7  -8   24.50    1.40
   6   7  -8   24.60    1.40
  -6   7   8   24.60    1.40
  -6   7   8   24.80    1.40
  -5  -7   8    0.30    0.40
   5  -7  -8   -0.20    0.30
   5  -7  -8    0.40    0.30
  -5  -7   8    0.50    0.30
   5   7  -8    0.30    0.30
  -5   7   8    0.00    0.30
   5   7  -8    0.30    0.20
  -5   7   8    0.60    0.30
   5   7  -8    0.40    0.40
  -4  -7   8   -0.30    0.40
  -4  -7   8    0.10    0.30
   4  -7  -8   -0.10    0.30
   4  -7  -8    0.10    0.30
   4   7  -8    0.30    0.30
   4   7  -8   -0.10    0.30
   4   7  -8    0.20    0.20
  -4   7   8    0.00    0.30
  -4   7   8   -0.10    0.30
  -4   7   8    0.30    0.30
   3  -7  -8   38.00    1.80
   3  -7  -8   34.00    1.80
  -3  -7   8   33.40    1.80
  -3  -7   8   33.90    1.80
  -3   7   8   35.80    1.70
  -3   7   8   35.10    1.80
   3   7  -8   34.70    1.70
   3   7  -8   33.20    1.80
  -3   7   8   37.50    1.80
   2  -7  -8   10.80    0.80
  -2  -7   8   10.90    0.90
  -2  -7   8   11.10    0.80
   2  -7  -8   10.40    0.80
   2   7  -8   10.30    0.80
   2   7  -8   10.20    0.70
  -2   7   8    9.50    0.80
  -2   7   8   10.70    0.80
  -2   7   8    9.60    0.80
   1  -7  -8    0.20    0.30
  -1  -7   8   -0.10    0.30
   1  -7  -8   -0.10    0.30
  -1  -7   8   -0.10    0.30
   1   7  -8   -0.20    0.30
   1   7  -8    0.10    0.30
  -1   7   8   -0.20    0.30
  -1   7   8    0.10    0.30
   1   7  -8   -0.20    0.30
   0  -7   8    3.20    0.50
   0  -7  -8    4.10    0.50
   0  -7   8    3.80    0.60
   0   7   8    3.10    0.50
   0   7  -8    3.60    0.40
   0   7  -8    3.70    0.50
   0   7   8    3.50    0.50
   0   7  -8    4.10    0.50
   1  -7   8    7.70    0.90
   1  -7   8    8.50    0.90
  -1  -7  -8   11.50    0.80
  -1  -7  -8    9.50    0.80
   1   7   8    8.90    0.80
  -1   7  -8    9.80    0.80
  -1   7  -8    9.60    0.80
   1   7   8    9.80    0.80
   1   7   8    9.90    0.80
  -1   7  -8    8.60    0.80
   2  -7   8    0.00    0.40
   2  -7   8   -0.40    0.40
  -2  -7  -8    0.30    0.30
   2   7   8    0.10    0.40
   2   7   8    0.10    0.40
  -2   7  -8    0.40    0.40
  -2   7  -8   -0.10    0.30
   2   7   8    0.00    0.30
   3  -7   8   78.39    3.80
   3   7   8   79.79    3.80
  -3   7  -8   84.69    4.00
  -8  -8   8   41.40    2.70
   8   8  -8   42.60    2.20
  -7  -8   8    4.60    0.60
   7  -8  -8    4.60    0.70
   7   8  -8    3.60    0.60
   7   8  -8    5.00    0.60
  -6  -8   8   32.30    1.70
   6  -8  -8   29.40    1.70
  -6  -8   8   28.60    1.70
  -6   8   8   31.40    1.60
  -6   8   8   28.30    1.60
   6   8  -8   32.70    1.70
   6   8  -8   29.10    1.60
   5  -8  -8   10.00    0.80
   5  -8  -8    8.70    0.80
  -5  -8   8    8.00    0.90
  -5  -8   8    8.10    0.90
  -5   8   8    8.70    0.80
   5   8  -8    8.90    0.80
  -5   8   8    8.30    0.80
   5   8  -8    8.00    0.80
   5   8  -8    8.60    0.60
   4  -8  -8   12.00    1.00
   4  -8  -8   13.10    0.90
  -4  -8   8   12.10    0.90
  -4  -8   8   15.70    1.10
  -4   8   8   12.70    0.80
   4   8  -8   14.00    1.00
  -4   8   8   11.20    0.90
   4   8  -8   15.70    1.00
   4   8  -8   13.10    0.80
  -4   8   8   12.70    1.00
  -3  -8   8  201.98    9.10
   3  -8  -8  233.58    9.00
   3  -8  -8  204.38    9.00
   3   8  -8  200.08    8.90
  -3   8   8  197.58    9.00
   3   8  -8  214.28    9.00
  -3   8   8  207.38    9.00
  -3   8   8  201.18    9.00
   2  -8  -8   52.39    2.40
  -2  -8   8   46.80    2.40
  -2  -8   8   49.00    2.50
   2  -8  -8   51.79    2.40
  -2   8   8   49.60    2.40
   2   8  -8   48.90    2.30
  -2   8   8   48.80    2.40
   2   8  -8   52.89    2.40
  -1  -8   8   22.30    1.30
   1  -8  -8   21.60    1.20
   1  -8  -8   20.00    1.20
  -1  -8   8   19.10    1.30
  -1   8   8   21.40    1.20
   1   8  -8   19.70    1.10
   1   8  -8   20.80    1.30
  -1   8   8   19.50    1.20
   0  -8   8  100.49    4.60
   0  -8   8  101.79    4.60
   0  -8  -8   99.19    4.50
   0   8   8   98.49    4.50
   0   8  -8   96.29    4.50
   0   8  -8  100.19    4.50
   0   8   8   99.79    4.50
   0   8  -8  104.09    4.50
   1  -8   8   13.50    1.20
  -1  -8  -8   16.00    1.30
   1  -8   8   13.20    1.10
   1   8   8   14.60    1.00
  -1   8  -8   15.50    1.10
  -1   8  -8   15.00    0.90
  -1   8  -8   14.50    1.00
   1   8   8   14.00    1.00
   2  -8   8   -0.40    0.40
  -2   8  -8   -0.20    0.40
   2   8   8    0.10    0.40
  -6  -9   8   -0.60    0.40
  -6  -9   8    0.20    0.40
   6  -9  -8    0.00    0.40
   6   9  -8   -0.40    0.40
   6   9  -8   -0.50    0.30
  -5  -9   8   -0.30    0.40
  -5  -9   8   -0.50    0.40
   5  -9  -8    0.00    0.40
   5  -9  -8   -0.10    0.30
   5   9  -8   -0.20    0.30
   5   9  -8   -0.30    0.40
  -5   9   8    0.30    0.40
   5   9  -8    0.20    0.40
  -4  -9   8   50.29    2.60
   4  -9  -8   53.59    2.60
   4  -9  -8   58.09    2.60
  -4  -9   8   50.09    2.80
   4   9  -8   52.59    2.60
   4   9  -8   55.19    2.60
  -4   9   8   52.99    2.50
   4   9  -8   52.89    2.50
  -4   9   8   51.09    2.70
  -4   9   8   57.89    2.60
   3  -9  -8   16.90    1.00
   3  -9  -8   15.00    1.10
  -3  -9   8   14.80    1.10
   3   9  -8   15.60    1.10
  -3   9   8   14.40    1.00
  -3   9   8   15.90    1.00
   3   9  -8   15.70    1.00
  -3   9   8   15.30    1.10
   2  -9  -8   14.70    0.90
  -2  -9   8   12.50    1.10
   2  -9  -8   14.70    1.00
   2   9  -8   13.20    1.00
   2   9  -8   12.20    0.90
  -2   9   8   13.70    1.00
  -2   9   8   13.70    0.90
   1  -9  -8   60.89    2.80
  -1  -9   8   62.59    2.90
   1  -9  -8   55.79    2.90
  -1  -9   8   60.89    3.00
   1   9  -8   57.49    2.90
  -1   9   8   60.99    2.90
   1   9  -8   61.99    2.80
  -1   9   8   64.29    3.00
   0  -9   8   43.80    2.30
   0  -9   8   42.00    2.20
   0   9  -8   47.80    2.30
   0   9   8   42.80    2.20
   0   9  -8   42.90    2.20
   0   9  -8   41.20    2.10
   1  -9   8    7.00    0.80
  -1   9  -8    7.20    1.00
  -5 -10   8   17.90    1.20
   5  10  -8   15.20    1.00
  -4 -10   8   15.60    1.50
  -4  10   8   18.00    1.10
   4  10  -8   20.60    1.50
   4  10  -8   17.40    1.10
   3 -10  -8    0.40    0.40
  -3 -10   8   -0.30    0.50
   3  10  -8   -0.20    0.60
   3  10  -8   -0.20    0.40
  -3  10   8    0.10    0.30
   3  10  -8   -0.20    0.30
  -2 -10   8   82.69    3.90
   2 -10  -8   77.79    3.60
  -2  10   8   77.39    3.50
   2  10  -8   67.79    3.80
   1 -10  -8  102.59    4.70
  11   0  -9    0.10    0.40
 -10   0   9    0.30    0.50
  10   0  -9    0.00    0.40
  10   0  -9   -0.20    0.40
 -10   0   9   -0.30    0.30
  -9   0   9   -0.10    0.30
   9   0  -9    0.10    0.40
   9   0  -9   -0.10    0.30
  -9   0   9    0.30    0.40
  -8   0   9    0.00    0.30
   8   0  -9   -0.10    0.40
  -8   0   9   -0.30    0.40
   8   0  -9   -0.10    0.30
   7   0  -9   -0.50    0.30
  -7   0   9   -0.20    0.30
  -7   0   9   -0.10    0.30
   7   0  -9    0.00    0.20
   6   0  -9    0.10    0.20
  -6   0   9   -0.10    0.20
  -6   0   9   -0.20    0.30
  -6   0   9    0.10    0.20
   6   0  -9   -0.10    0.30
   5   0  -9    0.10    0.20
  -5   0   9    0.20    0.20
   5   0  -9   -0.30    0.30
  -5   0   9   -0.30    0.20
   5   0  -9    0.10    0.20
   5   0  -9    0.10    0.20
  -5   0   9   -0.10    0.30
   5   0  -9   -0.10    0.20
   5   0  -9    0.00    0.20
  -5   0   9    0.20    0.20
  -5   0   9    0.30    0.20
  -5   0   9    0.10    0.30
   4   0  -9    0.30    0.20
  -4   0   9    0.20    0.20
   4   0  -9    0.30    0.20
  -4   0   9    0.10    0.30
  -4   0   9    0.20    0.30
   4   0  -9    0.10    0.20
  -4   0   9    0.00    0.20
  -4   0   9   -0.10    0.30
   4   0  -9    0.40    0.20
  -4   0   9    0.20    0.20
   3   0  -9    0.10    0.20
  -3   0   9    0.10    0.20
  -3   0   9   -0.20    0.20
  -3   0   9   -0.10    0.20
   3   0  -9    0.00    0.20
  -3   0   9    0.30    0.30
  -3   0   9   -0.10    0.20
   3   0  -9    0.20    0.20
   2   0  -9    0.40    0.20
  -2   0   9   -0.10    0.30
  -2   0   9    0.20    0.20
  -2   0   9    0.00    0.30
   2   0  -9    0.20    0.20
  -2   0   9    0.20    0.30
  -1   0   9   -0.40    0.20
   1   0  -9    0.10    0.20
  -1   0   9   -0.10    0.30
  -1   0   9    0.20    0.30
  -1   0   9   -0.10    0.20
   1   0  -9   -0.10    0.30
   0   0   9    0.10    0.30
   0   0  -9    0.00    0.20
   0   0  -9    0.10    0.20
   0   0   9    0.10    0.40
   0   0   9   -0.20    0.30
  -1   0  -9    0.00    0.30
   1   0   9   -0.80    0.30
   1   0   9   -0.10    0.40
   1   0   9    0.10    0.30
  -1   0  -9    0.10    0.30
   2   0   9   -0.20    0.40
  -2   0  -9   -0.20    0.30
  -2   0  -9    0.30    0.30
   2   0   9    0.00    0.30
   2   0   9   -0.40    0.30
   3   0   9   -0.40    0.40
  -3   0  -9   -0.10    0.30
  -3   0  -9   -0.20    0.30
   3   0   9   -0.40    0.30
   3   0   9   -0.10    0.40
  -3   0  -9    0.10    0.30
   4   0   9    0.00    0.50
   4   0   9   -0.60    0.30
  -4   0  -9    0.00    0.30
  11   1  -9   13.70    1.10
 -10  -1   9   26.70    1.60
  10  -1  -9   23.60    1.50
  10   1  -9   27.70    1.60
 -10   1   9   25.80    1.40
 -10   1   9   24.00    1.50
  10   1  -9   27.30    1.50
  -9  -1   9    5.10    0.60
   9  -1  -9    3.80    0.50
  -9  -1   9    4.90    0.50
   9   1  -9    5.70    0.60
  -9   1   9    3.80    0.60
  -9   1   9    5.00    0.50
   9   1  -9    3.50    0.50
  -8  -1   9  121.29    5.20
   8  -1  -9  119.59    5.20
  -8  -1   9  114.49    5.00
   8   1  -9  112.19    5.10
  -8   1   9  110.49    5.10
  -8   1   9  108.49    5.20
   8   1  -9  118.59    5.10
  -7  -1   9    8.10    0.80
  -7  -1   9    8.30    0.60
   7  -1  -9    7.80    0.70
   7   1  -9    8.00    0.70
  -7   1   9    7.90    0.70
   7   1  -9    7.60    0.60
  -7   1   9    7.50    0.80
  -6  -1   9   30.40    1.50
   6  -1  -9   30.00    1.50
  -6  -1   9   30.80    1.50
  -6  -1   9   30.90    1.50
   6   1  -9   29.40    1.50
  -6   1   9   29.00    1.60
  -6   1   9   28.50    1.50
   6   1  -9   29.50    1.50
   6   1  -9   29.80    1.40
  -6   1   9   29.80    1.50
  -5  -1   9   48.20    2.20
  -5  -1   9   46.70    2.20
  -5  -1   9   49.20    2.30
  -5  -1   9   52.19    2.20
  -5  -1   9   44.20    2.20
  -5  -1   9   47.20    2.20
   5  -1  -9   48.70    2.30
   5  -1  -9   45.70    2.20
   5   1  -9   49.40    2.20
  -5   1   9   49.00    2.30
  -5   1   9   47.20    2.30
   5   1  -9   48.70    2.30
  -5   1   9   47.30    2.20
   5   1  -9   52.59    2.20
  -5   1   9   49.90    2.30
   5   1  -9   50.09    2.20
   5   1  -9   47.50    2.20
   5   1  -9   48.30    2.20
  -4  -1   9   50.49    2.40
  -4  -1   9   53.89    2.40
   4  -1  -9   53.69    2.40
   4  -1  -9   54.29    2.40
  -4  -1   9   51.19    2.40
  -4  -1   9   55.29    2.40
  -4  -1   9   49.99    2.40
  -4  -1   9   53.29    2.40
   4   1  -9   52.69    2.40
   4   1  -9   52.99    2.40
  -4   1   9   51.19    2.40
  -4   1   9   54.99    2.50
  -4   1   9   52.19    2.40
   4   1  -9   51.09    2.40
  -4   1   9   53.09    2.40
   4   1  -9   52.49    2.40
   4   1  -9   55.39    2.40
  -4   1   9   54.39    2.40
   4   1  -9   52.09    2.40
  -3  -1   9   12.00    0.80
   3  -1  -9   12.90    0.70
  -3  -1   9   10.90    0.70
  -3  -1   9   12.80    0.80
   3  -1  -9   12.60    0.80
  -3  -1   9   12.00    0.80
   3  -1  -9   12.30    0.70
  -3   1   9   11.50    0.80
   3   1  -9   11.80    0.70
  -3   1   9   11.40    0.80
  -3   1   9   12.20    0.80
   3   1  -9   12.20    0.70
   3   1  -9   12.10    0.70
  -3   1   9   11.00    0.80
  -2  -1   9   45.00    2.10
   2  -1  -9   46.20    2.10
  -2  -1   9   45.90    2.10
  -2  -1   9   47.10    2.10
  -2  -1   9   47.00    2.20
   2  -1  -9   42.60    2.10
   2   1  -9   46.10    2.10
  -2   1   9   47.60    2.10
   2   1  -9   44.90    2.10
  -2   1   9   46.40    2.20
  -2   1   9   47.20    2.20
   2   1  -9   44.30    2.10
  -1  -1   9   25.40    1.30
   1  -1  -9   25.80    1.30
  -1  -1   9   25.10    1.40
   1  -1  -9   26.80    1.30
  -1  -1   9   24.90    1.30
   1   1  -9   24.10    1.30
  -1   1   9   26.90    1.40
  -1   1   9   25.70    1.30
   1   1  -9   26.30    1.30
   1   1  -9   23.70    1.30
  -1   1   9   27.60    1.40
   0  -1  -9    3.00    0.40
   0  -1  -9    3.20    0.40
   0  -1   9    3.40    0.40
   0  -1   9    4.20    0.40
   0  -1   9    3.20    0.50
   0   1  -9    3.00    0.40
   0   1   9    2.30    0.40
   0   1   9    2.30    0.40
   0   1  -9    3.20    0.30
   0   1   9    2.90    0.40
   0   1  -9    3.20    0.40
  -1  -1  -9    1.20    0.30
  -1  -1  -9    0.90    0.30
   1  -1   9    0.80    0.40
   1  -1   9    1.10    0.40
   1  -1   9    0.80    0.40
  -1   1  -9    0.80    0.30
   1   1   9    0.50    0.30
  -1   1  -9    0.60    0.30
  -1   1  -9    1.70    0.40
   1   1   9    1.20    0.40
   2  -1   9   38.10    2.00
  -2  -1  -9   41.20    2.00
   2  -1   9   39.70    2.10
  -2  -1  -9   41.10    2.00
   2  -1   9   41.40    2.10
  -2   1  -9   42.00    2.00
   2   1   9   43.20    2.10
  -2   1  -9   40.50    2.00
   2   1   9   42.10    2.00
  -2   1  -9   40.00    1.90
   3  -1   9    4.70    0.60
   3  -1   9    4.70    0.50
  -3  -1  -9    5.00    0.50
  -3  -1  -9    4.70    0.50
   3  -1   9    4.70    0.60
  -3   1  -9    5.20    0.50
   3   1   9    3.90    0.50
   3   1   9    4.70    0.70
  -3   1  -9    6.40    0.60
  -3   1  -9    4.40    0.50
   4  -1   9   48.30    2.50
   4  -1   9   59.99    3.20
   4  -1   9   50.79    2.60
   4   1   9   51.69    2.50
  -4   1  -9   50.69    2.50
 -10  -2   9   62.49    3.10
  10  -2  -9   64.19    3.10
 -10   2   9   63.29    3.10
  10   2  -9   63.19    3.00
  10   2  -9   64.79    3.10
 -10   2   9   59.69    3.00
   9  -2  -9   46.60    2.30
  -9  -2   9   43.70    2.30
   9   2  -9   44.80    2.20
  -9   2   9   45.00    2.30
  -9   2   9   44.10    2.20
   8  -2  -9   12.50    1.00
  -8  -2   9   12.10    0.90
  -8   2   9   12.00    1.00
   8   2  -9   11.50    0.90
  -8   2   9   13.40    0.90
  -7  -2   9    4.60    0.50
   7  -2  -9    4.10    0.50
   7   2  -9    4.60    0.50
  -7   2   9    4.20    0.40
  -7   2   9    5.30    0.60
  -7   2   9    4.50    0.50
  -6  -2   9  166.28    7.00
  -6  -2   9  157.78    7.00
   6  -2  -9  154.68    7.00
  -6   2   9  158.28    7.00
  -6   2   9  158.18    6.90
   6   2  -9  160.28    6.90
   6   2  -9  164.88    6.90
   5  -2  -9    2.00    0.40
  -5  -2   9    2.50    0.30
  -5  -2   9    2.00    0.30
  -5  -2   9    2.00    0.40
   5  -2  -9    2.20    0.30
  -5  -2   9    2.10    0.40
  -5  -2   9    2.40    0.40
  -5   2   9    2.00    0.40
  -5   2   9    2.20    0.40
   5   2  -9    1.80    0.30
   5   2  -9    2.30    0.30
   5   2  -9    2.10    0.30
   5   2  -9    1.70    0.30
   5   2  -9    2.10    0.30
  -5   2   9    2.10    0.30
  -4  -2   9    6.80    0.50
  -4  -2   9    5.90    0.60
   4  -2  -9    5.90    0.50
  -4  -2   9    6.80    0.60
  -4  -2   9    5.60    0.50
  -4  -2   9    6.20    0.50
   4  -2  -9    5.90    0.60
  -4  -2   9    5.10    0.60
   4   2  -9    6.80    0.50
   4   2  -9    5.70    0.50
  -4   2   9    6.10    0.60
   4   2  -9    5.70    0.50
  -4   2   9    5.90    0.50
   4   2  -9    7.20    0.50
   4   2  -9    5.40    0.60
  -4   2   9    6.00    0.60
  -3  -2   9   11.10    0.80
  -3  -2   9   10.30    0.80
   3  -2  -9   10.90    0.70
   3  -2  -9   11.70    0.70
  -3  -2   9   10.90    0.70
   3   2  -9   10.20    0.60
  -3   2   9   10.70    0.70
  -3   2   9   10.50    0.70
   3   2  -9   10.30    0.70
  -3   2   9   11.30    0.80
   3   2  -9   11.50    0.70
  -3   2   9   10.20    0.70
   2  -2  -9  159.38    7.10
  -2  -2   9  166.08    7.10
  -2  -2   9  166.18    7.10
  -2  -2   9  165.48    7.20
   2  -2  -9  161.98    7.10
  -2   2   9  161.48    7.10
  -2   2   9  167.48    7.10
   2   2  -9  175.08    7.10
  -2   2   9  161.88    7.10
   2   2  -9  157.98    7.10
   2   2  -9  162.48    7.10
  -1  -2   9    9.30    0.80
  -1  -2   9    9.70    0.80
   1  -2  -9    9.30    0.70
   1  -2  -9    9.50    0.70
  -1  -2   9   10.40    0.70
   1   2  -9   10.30    0.60
  -1   2   9    9.70    0.80
  -1   2   9    9.20    0.70
  -1   2   9   10.40    0.80
   1   2  -9    9.10    0.70
   1   2  -9    9.50    0.60
   0  -2   9   89.49    4.00
   0  -2   9   87.39    3.90
   0  -2  -9   90.09    3.90
   0  -2  -9   86.09    3.90
   0  -2   9   87.59    3.90
   0   2  -9   83.49    3.90
   0   2   9   84.89    3.90
   0   2   9   85.69    3.90
   0   2   9   86.79    4.00
   0   2  -9   85.99    3.90
   0   2  -9   87.79    3.80
   1  -2   9  517.15   22.20
  -1  -2  -9  520.75   22.20
   1  -2   9  533.25   22.30
   1  -2   9  523.55   22.30
  -1  -2  -9  530.65   22.30
  -1   2  -9  520.15   22.20
   1   2   9  515.15   22.20
  -1   2  -9  519.25   22.20
  -1   2  -9  527.95   22.20
   1   2   9  508.05   22.30
   1   2   9  526.75   22.30
   2  -2   9    0.30    0.30
  -2  -2  -9    0.10    0.30
   2  -2   9   -0.10    0.40
  -2  -2  -9   -0.40    0.30
   2  -2   9    0.30    0.40
   2   2   9    0.50    0.40
  -2   2  -9    0.20    0.30
  -2   2  -9   -0.10    0.30
  -2   2  -9    0.20    0.30
   2   2   9    0.30    0.40
  -3  -2  -9    1.20    0.40
  -3  -2  -9    1.40    0.40
   3  -2   9    1.00    0.40
   3  -2   9    1.70    0.50
   3  -2   9    1.10    0.40
  -3   2  -9    0.80    0.40
  -3   2  -9    0.90    0.50
   3   2   9    1.20    0.50
   3   2   9    1.40    0.40
  -3   2  -9    0.60    0.30
   4  -2   9    3.20    0.50
   4  -2   9    3.30    0.60
   4   2   9    3.50    0.50
  -4   2  -9    3.80    0.50
  10  -3  -9   -0.30    0.40
 -10  -3   9    0.70    0.50
  10   3  -9    0.20    0.40
  -9  -3   9   45.90    2.30
   9  -3  -9   42.70    2.30
  -9   3   9   45.30    2.20
   9   3  -9   43.60    2.20
   8  -3  -9   14.10    1.00
  -8  -3   9   13.80    1.00
   8   3  -9   13.10    0.90
  -8   3   9   14.50    1.00
   7  -3  -9   14.10    0.90
  -7  -3   9   13.60    1.00
   7   3  -9   12.10    0.90
  -7   3   9   15.40    0.90
   7   3  -9   13.70    0.90
  -7   3   9   11.80    0.90
  -6  -3   9   75.59    3.50
  -6  -3   9   74.89    3.40
   6  -3  -9   75.19    3.50
  -6   3   9   76.89    3.40
   6   3  -9   77.39    3.40
   6   3  -9   73.79    3.40
  -6   3   9   76.59    3.40
  -5  -3   9   24.10    1.20
  -5  -3   9   21.20    1.20
   5  -3  -9   23.10    1.20
   5  -3  -9   21.60    1.20
  -5  -3   9   23.80    1.20
  -5   3   9   22.70    1.20
  -5   3   9   22.10    1.20
   5   3  -9   22.20    1.10
   5   3  -9   22.80    1.20
   5   3  -9   22.40    1.20
  -5   3   9   22.00    1.10
  -4  -3   9  220.48    9.50
  -4  -3   9  220.38    9.40
  -4  -3   9  217.38    9.50
   4  -3  -9  211.88    9.50
   4  -3  -9  227.18    9.50
  -4  -3   9  211.38    9.50
   4   3  -9  225.48    9.40
  -4   3   9  219.48    9.50
   4   3  -9  217.08    9.50
   4   3  -9  222.38    9.40
  -4   3   9  219.38    9.40
  -4   3   9  228.18    9.50
   3  -3  -9   80.19    3.70
   3  -3  -9   85.79    3.80
  -3  -3   9   86.29    3.70
  -3  -3   9   85.69    3.80
  -3  -3   9   81.99    3.80
   3   3  -9   83.09    3.70
  -3   3   9   84.69    3.80
   3   3  -9   86.39    3.80
  -3   3   9   82.29    3.80
  -3   3   9   88.89    3.80
   3   3  -9   82.49    3.70
  -2  -3   9    7.10    0.70
  -2  -3   9    7.30    0.70
   2  -3  -9    7.10    0.60
  -2  -3   9    6.70    0.60
   2   3  -9    8.20    0.60
  -2   3   9    7.50    0.60
  -2   3   9    7.10    0.60
  -2   3   9    7.10    0.60
   2   3  -9    7.20    0.60
  -1  -3   9  174.38    7.40
  -1  -3   9  167.28    7.40
   1  -3  -9  179.08    7.40
  -1  -3   9  172.58    7.40
   1  -3  -9  166.48    7.30
  -1   3   9  171.38    7.40
  -1   3   9  167.68    7.40
   1   3  -9  162.38    7.30
   1   3  -9  167.48    7.30
  -1   3   9  170.08    7.40
   0  -3  -9   20.60    1.20
   0  -3   9   21.00    1.20
   0  -3  -9   20.70    1.20
   0  -3   9   20.60    1.30
   0  -3   9   21.00    1.20
   0   3  -9   20.80    1.20
   0   3   9   20.30    1.20
   0   3   9   21.80    1.20
   0   3  -9   20.70    1.10
   0   3   9   22.60    1.20
   1  -3   9   12.00    0.80
  -1  -3  -9   11.60    0.90
   1  -3   9   11.60    1.00
   1  -3   9   11.90    0.90
  -1  -3  -9   12.30    0.80
   1   3   9   10.40    0.90
   1   3   9   10.30    0.90
  -1   3  -9   10.10    0.80
  -1   3  -9   10.20    0.80
   1   3   9   10.80    0.80
   2  -3   9   28.10    1.40
   2  -3   9   27.20    1.50
  -2  -3  -9   24.80    1.40
   2  -3   9   24.40    1.50
  -2  -3  -9   25.10    1.40
  -2   3  -9   26.20    1.40
   2   3   9   25.00    1.50
   2   3   9   26.10    1.40
  -2   3  -9   26.90    1.40
   2   3   9   25.60    1.40
   3  -3   9   52.69    2.70
   3  -3   9   52.99    2.50
  -3  -3  -9   52.19    2.60
   3  -3   9   54.79    2.70
  -3   3  -9   49.90    2.50
   3   3   9   54.39    2.60
   3   3   9   53.89    2.70
 -10  -4   9   10.50    1.10
  10  -4  -9   10.70    1.30
  10   4  -9   10.10    0.90
   9  -4  -9    0.50    0.40
  -9  -4   9    1.10    0.50
   9   4  -9    1.00    0.40
  -9   4   9    0.80    0.40
  -8  -4   9    9.30    0.90
   8  -4  -9    8.60    0.90
  -8   4   9    9.40    0.80
   8   4  -9    8.00    0.70
  -8   4   9    9.30    0.80
   8   4  -9    8.00    0.80
  -7  -4   9    3.70    0.50
  -7  -4   9    3.70    0.50
   7  -4  -9    3.10    0.50
   7   4  -9    3.10    0.40
  -7   4   9    3.30    0.50
  -7   4   9    3.30    0.40
   7   4  -9    3.10    0.40
  -6  -4   9   26.70    1.40
   6  -4  -9   25.60    1.40
  -6  -4   9   21.30    1.30
   6   4  -9   23.60    1.30
  -6   4   9   23.90    1.30
   6   4  -9   25.90    1.30
  -6   4   9   25.20    1.30
  -5  -4   9    0.30    0.30
   5  -4  -9    0.10    0.30
  -5  -4   9   -0.20    0.30
  -5  -4   9    0.80    0.30
   5  -4  -9    0.40    0.30
   5   4  -9    0.00    0.20
  -5   4   9    0.40    0.20
  -5   4   9    0.50    0.30
   5   4  -9    0.20    0.30
   5   4  -9    0.40    0.30
  -5   4   9    0.30    0.30
   4  -4  -9    6.30    0.60
  -4  -4   9    6.90    0.70
  -4  -4   9    7.10    0.60
  -4  -4   9    5.80    0.70
   4  -4  -9    6.70    0.60
  -4   4   9    7.20    0.60
  -4   4   9    6.80    0.70
  -4   4   9    6.90    0.70
   4   4  -9    6.80    0.50
   4   4  -9    6.50    0.60
   3  -4  -9   34.50    1.60
  -3  -4   9   32.30    1.70
   3  -4  -9   33.40    1.60
  -3  -4   9   31.80    1.70
  -3   4   9   34.10    1.70
   3   4  -9   33.00    1.60
   3   4  -9   32.20    1.70
  -3   4   9   34.50    1.70
   3   4  -9   33.60    1.60
  -3   4   9   31.50    1.60
   2  -4  -9    2.70    0.40
  -2  -4   9    2.20    0.30
  -2  -4   9    2.30    0.40
  -2  -4   9    1.80    0.40
   2   4  -9    2.70    0.40
   2   4  -9    1.80    0.30
   2   4  -9    2.60    0.40
  -2   4   9    2.20    0.40
  -2   4   9    2.30    0.40
   1  -4  -9    5.10    0.50
  -1  -4   9    3.40    0.50
  -1  -4   9    4.10    0.50
  -1  -4   9    3.90    0.50
   1  -4  -9    3.80    0.50
  -1   4   9    4.30    0.50
   1   4  -9    3.90    0.40
  -1   4   9    4.10    0.50
  -1   4   9    4.30    0.50
   1   4  -9    3.90    0.40
   0  -4   9   14.30    0.90
   0  -4  -9   14.60    1.00
   0  -4   9   14.10    1.00
   0  -4  -9   15.20    0.90
   0  -4   9   14.00    1.00
   0   4   9   15.20    1.00
   0   4   9   15.10    1.00
   0   4   9   14.10    1.00
   0   4  -9   14.50    0.90
   0   4  -9   15.20    0.90
   1  -4   9   15.60    1.00
   1  -4   9   15.20    0.90
  -1  -4  -9   15.20    1.00
   1  -4   9   14.40    1.10
  -1  -4  -9   15.70    1.00
   1   4   9   15.80    1.00
   1   4   9   15.70    1.00
  -1   4  -9   14.20    0.90
  -1   4  -9   15.10    1.00
   1   4   9   16.50    1.10
   2  -4   9   15.10    1.00
   2  -4   9   14.30    1.10
  -2  -4  -9   15.00    1.00
   2  -4   9   14.50    1.10
  -2  -4  -9   15.70    0.90
   2   4   9   14.80    1.00
   2   4   9   14.80    1.00
  -2   4  -9   14.40    1.00
   2   4   9   14.30    1.10
  -2   4  -9   15.40    0.90
   3  -4   9    0.30    0.40
   3  -4   9    0.40    0.50
   3  -4   9   -0.30    0.40
   3   4   9   -0.20    0.40
   3   4   9    0.00    0.40
  -3   4  -9    0.10    0.30
   9  -5  -9   63.69    3.00
  -9  -5   9   59.59    3.00
   9   5  -9   61.89    2.90
   8  -5  -9   13.30    1.10
  -8  -5   9   14.20    1.10
   8   5  -9   14.60    1.00
  -8   5   9   14.70    1.00
   8   5  -9   13.30    1.00
  -8   5   9   12.60    1.00
  -7  -5   9    0.20    0.40
   7  -5  -9    0.50    0.40
  -7  -5   9    0.50    0.40
   7   5  -9    0.20    0.30
  -7   5   9    0.90    0.40
  -7   5   9    0.20    0.30
   7   5  -9    0.30    0.30
   6  -5  -9   93.89    4.40
  -6  -5   9   99.19    4.40
  -6  -5   9  105.59    4.40
  -6   5   9  103.29    4.30
   6   5  -9   96.39    4.30
   6   5  -9   90.79    4.30
  -6   5   9   87.99    4.30
   5  -5  -9    9.80    0.80
  -5  -5   9   10.60    0.80
   5  -5  -9    9.80    0.80
  -5  -5   9    9.90    0.80
   5   5  -9   10.30    0.80
   5   5  -9    9.80    0.70
   5   5  -9    9.20    0.80
  -5   5   9   10.70    0.80
  -5   5   9   10.80    0.70
  -5   5   9    9.00    0.80
   4  -5  -9   73.09    3.20
  -4  -5   9   69.99    3.30
   4  -5  -9   74.09    3.30
  -4  -5   9   67.69    3.20
  -4   5   9   71.59    3.20
  -4   5   9   72.59    3.20
   4   5  -9   70.49    3.20
  -4   5   9   68.19    3.30
   4   5  -9   70.69    3.20
   3  -5  -9   86.69    3.80
   3  -5  -9   80.39    3.80
  -3  -5   9   76.49    3.80
  -3  -5   9   84.59    3.80
  -3   5   9   84.09    3.80
  -3   5   9   89.39    3.80
   3   5  -9   84.79    3.80
   3   5  -9   84.29    3.80
  -3   5   9   84.99    3.80
   3   5  -9   92.19    3.90
  -2  -5   9    7.70    0.80
   2  -5  -9    7.40    0.60
  -2  -5   9    6.80    0.80
   2   5  -9    6.60    0.60
   2   5  -9    7.30    0.70
  -2   5   9    7.00    0.70
   2   5  -9    8.20    0.60
  -2   5   9    8.20    0.70
  -1  -5   9    4.80    0.60
  -1  -5   9    5.40    0.60
   1  -5  -9    5.50    0.50
   1   5  -9    5.60    0.60
  -1   5   9    4.30    0.50
   1   5  -9    5.50    0.60
  -1   5   9    5.50    0.50
  -1   5   9    5.60    0.70
   1   5  -9    6.00    0.70
   0  -5   9    0.70    0.40
   0  -5  -9    1.80    0.40
   0  -5  -9    1.80    0.40
   0  -5   9    1.90    0.50
   0   5   9    1.90    0.40
   0   5   9    1.70    0.40
   0   5  -9    1.70    0.40
   0   5  -9    0.60    0.30
   0   5   9    1.70    0.40
   1  -5   9   38.00    2.10
  -1  -5  -9   40.90    2.00
   1  -5   9   41.00    2.10
  -1  -5  -9   40.00    2.00
  -1   5  -9   40.80    2.00
   1   5   9   37.90    2.00
  -1   5  -9   39.40    1.90
   1   5   9   38.80    2.00
   1   5   9   41.90    2.00
   2  -5   9  111.59    5.20
   2  -5   9  110.39    5.20
  -2  -5  -9  119.69    5.10
   2   5   9  111.29    5.20
  -2   5  -9  114.59    5.10
   2   5   9  113.49    5.10
   2   5   9  118.19    5.10
   3  -5   9    0.00    0.70
  -3   5  -9   -0.10    0.50
   3   5   9    0.00    0.40
  -9  -6   9   45.70    2.50
   9   6  -9   43.60    2.20
  -8  -6   9   26.80    1.60
   8  -6  -9   25.50    1.60
  -8   6   9   26.10    1.50
   8   6  -9   27.90    1.50
   8   6  -9   27.00    1.50
   7  -6  -9    1.50    0.50
  -7  -6   9    1.50    0.40
  -7  -6   9    1.30    0.50
  -7   6   9    1.30    0.40
   7   6  -9    1.10    0.40
   7   6  -9    1.70    0.40
  -7   6   9    1.50    0.40
   6  -6  -9   47.10    2.30
  -6  -6   9   46.00    2.30
  -6  -6   9   48.90    2.30
  -6   6   9   45.30    2.30
  -6   6   9   46.40    2.30
   6   6  -9   49.10    2.30
   6   6  -9   44.00    2.30
   5  -6  -9  103.49    4.60
  -5  -6   9  101.89    4.60
  -5  -6   9  107.29    4.60
   5  -6  -9  102.09    4.50
  -5   6   9   99.79    4.60
  -5   6   9   86.39    4.50
   5   6  -9   98.59    4.60
   5   6  -9  103.29    4.50
   5   6  -9  113.19    4.60
  -4  -6   9   24.10    1.30
  -4  -6   9   22.90    1.30
   4  -6  -9   22.50    1.20
   4  -6  -9   21.40    1.30
  -4   6   9   21.80    1.30
   4   6  -9   23.00    1.20
  -4   6   9   23.30    1.30
   4   6  -9   21.20    1.30
  -4   6   9   23.40    1.20
   3  -6  -9    2.60    0.40
  -3  -6   9    2.70    0.50
   3  -6  -9    1.90    0.40
  -3  -6   9    2.10    0.40
  -3   6   9    2.30    0.40
  -3   6   9    1.90    0.40
   3   6  -9    2.40    0.40
   3   6  -9    2.80    0.50
  -3   6   9    2.20    0.40
   2  -6  -9   46.10    2.40
  -2  -6   9   38.80    2.10
   2  -6  -9   39.80    2.00
  -2  -6   9   40.50    2.00
  -2   6   9   41.00    2.00
   2   6  -9   41.50    1.90
   2   6  -9   39.70    2.00
   2   6  -9   40.10    1.90
  -2   6   9   41.20    2.00
  -1  -6   9  135.09    6.00
   1  -6  -9  131.09    5.90
  -1  -6   9  137.39    6.00
  -1   6   9  140.19    6.00
   1   6  -9  135.39    6.00
   1   6  -9  135.89    5.90
   1   6  -9  131.69    5.90
  -1   6   9  134.59    6.00
   0  -6   9   -0.20    0.40
   0  -6  -9    0.20    0.30
   0  -6  -9    0.00    0.40
   0  -6   9    0.10    0.40
   0   6  -9   -0.20    0.30
   0   6  -9   -0.20    0.30
   0   6  -9   -0.30    0.40
   0   6   9    0.50    0.40
   0   6   9    0.60    0.40
  -1  -6  -9    1.50    0.40
   1  -6   9    1.10    0.50
  -1  -6  -9    1.10    0.40
   1  -6   9    0.80    0.40
   1   6   9    0.70    0.40
   1   6   9    1.50    0.40
  -1   6  -9    0.90    0.40
  -1   6  -9    0.90    0.40
   1   6   9    1.00    0.40
   2  -6   9    3.60    0.60
   2  -6   9    4.00    0.60
   2   6   9    4.20    0.60
   2   6   9    2.90    0.50
  -2   6  -9    3.40    0.40
   8  -7  -9   22.70    1.50
  -8  -7   9   20.40    1.40
   8   7  -9   22.90    1.30
   8   7  -9   22.00    1.70
   7  -7  -9   25.60    1.60
  -7  -7   9   24.60    1.50
  -7  -7   9   26.10    1.50
   7   7  -9   26.90    1.50
  -7   7   9   26.40    1.50
   7   7  -9   26.90    1.50
   6  -7  -9    1.30    0.40
  -6  -7   9    2.70    0.50
  -6  -7   9    2.00    0.50
   6  -7  -9    2.40    0.50
  -6   7   9    1.90    0.50
  -6   7   9    2.40    0.50
   6   7  -9    1.70    0.40
   6   7  -9    2.20    0.40
   5  -7  -9    3.20    0.50
  -5  -7   9    6.30    0.70
  -5  -7   9    5.30    0.60
   5  -7  -9    5.10    0.60
  -5   7   9    4.50    0.50
  -5   7   9    5.40    0.60
   5   7  -9    4.40    0.40
   5   7  -9    6.40    0.70
   5   7  -9    4.90    0.60
   4  -7  -9   42.90    2.00
   4  -7  -9   36.90    1.90
  -4  -7   9   42.90    2.00
   4   7  -9   38.60    2.00
   4   7  -9   36.10    1.90
  -4   7   9   35.90    1.90
  -4   7   9   39.50    1.90
  -4   7   9   36.90    2.00
   4   7  -9   38.70    1.80
  -3  -7   9   17.00    1.10
   3  -7  -9   16.90    1.10
  -3  -7   9   19.00    1.20
   3  -7  -9   18.00    1.10
   3   7  -9   18.50    1.20
  -3   7   9   18.50    1.10
   3   7  -9   17.80    1.00
  -3   7   9   17.80    1.10
  -3   7   9   18.10    1.20
   2  -7  -9   18.80    1.20
  -2  -7   9   18.60    1.20
   2  -7  -9   19.70    1.10
  -2  -7   9   19.20    1.20
  -2   7   9   18.20    1.20
   2   7  -9   17.50    1.10
   2   7  -9   17.40    1.20
  -2   7   9   19.00    1.10
  -1  -7   9    1.60    0.50
  -1  -7   9    1.70    0.50
   1  -7  -9    1.70    0.40
   1   7  -9    1.40    0.40
  -1   7   9    1.60    0.40
   1   7  -9    2.20    0.50
   1   7  -9    1.30    0.30
  -1   7   9    1.80    0.40
   0  -7   9    8.70    0.90
   0  -7  -9    8.60    0.80
   0  -7   9    8.20    0.90
   0   7   9    9.70    0.90
   0   7  -9    8.80    0.70
   0   7  -9    8.40    0.80
   0   7  -9    8.90    0.80
   0   7   9    9.20    0.80
   1  -7   9    0.60    0.50
   1  -7   9    0.30    0.40
  -1   7  -9    0.40    0.40
  -1   7  -9    0.30    0.30
   1   7   9    0.60    0.40
   2   7   9   66.09    3.20
  -7  -8   9    7.20    1.20
  -7  -8   9    6.30    0.70
   7   8  -9    6.60    0.80
  -6  -8   9    9.90    1.00
   6  -8  -9    8.00    0.90
  -6  -8   9    8.40    0.90
   6   8  -9    9.00    0.90
   6   8  -9    8.30    0.90
  -5  -8   9   41.60    2.20
   5  -8  -9   40.40    2.10
   5  -8  -9   42.60    2.20
  -5  -8   9   44.40    2.30
  -5   8   9   44.70    2.20
   5   8  -9   42.00    2.20
   5   8  -9   41.30    2.00
   5   8  -9   43.80    2.20
   4  -8  -9   28.80    1.60
   4  -8  -9   29.80    1.60
  -4  -8   9   29.30    1.60
  -4   8   9   27.60    1.60
   4   8  -9   28.00    1.60
  -4   8   9   27.90    1.70
  -4   8   9   28.10    1.50
   4   8  -9   28.80    1.50
  -3  -8   9    3.90    0.60
   3  -8  -9    3.20    0.50
   3  -8  -9    3.60    0.50
  -3   8   9    4.20    0.60
   3   8  -9    2.60    0.40
  -3   8   9    3.40    0.50
  -3   8   9    3.30    0.50
   3   8  -9    3.60    0.50
   2  -8  -9   54.29    2.50
  -2  -8   9   50.29    2.60
   2  -8  -9   51.79    2.60
  -2  -8   9   51.49    2.60
   2   8  -9   51.59    2.50
  -2   8   9   51.79    2.50
   2   8  -9   53.99    2.60
  -2   8   9   52.49    2.60
  -1  -8   9   59.99    3.00
  -1  -8   9   58.49    3.00
   1   8  -9   60.19    2.80
   1   8  -9   62.89    3.00
  -1   8   9   63.89    2.90
   0  -8   9    5.30    0.70
   0  -8   9    5.20    0.70
   0   8  -9    5.30    0.70
   0   8  -9    4.40    0.60
   0   8   9    4.40    0.60
  -6  -9   9    4.50    0.60
   5  -9  -9   16.50    1.20
   5   9  -9   16.80    1.00
  -4  -9   9   56.59    2.80
   4  -9  -9   54.09    2.80
   4   9  -9   55.69    2.80
   4   9  -9   58.59    2.90
   4   9  -9   55.99    2.60
  -4   9   9   60.19    2.70
   3  -9  -9   67.79    3.10
  -3   9   9   65.49    3.10
   3   9  -9   64.49    3.20
   3   9  -9   64.09    3.00
  -2  -9   9    9.90    1.30
   2  -9  -9   10.40    1.00
   2   9  -9   11.10    1.10
  -2   9   9   12.20    0.90
 -10   0  10  184.78    7.80
  10   0 -10  175.58    7.80
 -10   0  10  169.28    7.80
  -9   0  10  144.89    6.10
   9   0 -10  136.19    6.20
  -9   0  10  132.89    6.20
  -8   0  10   22.30    1.40
   8   0 -10   24.50    1.40
  -8   0  10   23.60    1.30
  -7   0  10   58.59    2.80
  -7   0  10   62.09    2.90
   7   0 -10   62.19    2.90
   6   0 -10   27.00    1.40
   6   0 -10   27.60    1.50
   6   0 -10   27.20    1.40
  -6   0  10   27.80    1.50
  -6   0  10   27.70    1.40
  -5   0  10  402.36   16.30
   5   0 -10  380.96   16.30
  -5   0  10  391.56   16.30
   5   0 -10  388.56   16.30
   5   0 -10  388.86   16.30
  -5   0  10  374.76   16.40
   5   0 -10  381.16   16.30
  -5   0  10  351.46   16.30
  -4   0  10   65.79    2.80
   4   0 -10   60.29    2.80
   4   0 -10   61.09    2.80
  -4   0  10   58.39    2.80
   4   0 -10   62.19    2.80
  -4   0  10   60.69    2.80
  -4   0  10   59.29    2.80
  -3   0  10  126.99    5.60
  -3   0  10  126.09    5.60
  -3   0  10  134.39    5.60
   3   0 -10  126.09    5.60
   3   0 -10  125.39    5.60
  -2   0  10    7.10    0.70
   2   0 -10    6.50    0.60
  -2   0  10    5.50    0.50
  -2   0  10    6.70    0.60
   2   0 -10    6.20    0.60
   1   0 -10    4.40    0.50
  -1   0  10    4.10    0.50
   1   0 -10    4.10    0.40
  -1   0  10    5.60    0.50
  -1   0  10    3.80    0.50
   0   0  10   79.29    3.70
   0   0 -10   79.59    3.50
   0   0  10   77.39    3.50
   0   0 -10   76.49    3.50
  -1   0 -10   38.90    1.80
   1   0  10   38.40    1.90
   1   0  10   37.40    2.00
  -1   0 -10   37.40    1.90
   2   0  10    0.10    0.40
  -2   0 -10    0.40    0.30
   2   0  10    0.00    0.40
  -2   0 -10    0.10    0.30
   3   0  10   20.20    1.60
 -10  -1  10   11.30    1.10
  10  -1 -10   12.00    1.10
  10   1 -10   12.80    1.10
  10   1 -10   12.60    1.00
 -10   1  10   13.40    1.10
   9  -1 -10    1.00    0.50
  -9  -1  10    1.00    0.50
  -9   1  10    1.20    0.50
   9   1 -10    2.10    0.50
   9   1 -10    1.70    0.40
  -9   1  10    0.90    0.40
  -8  -1  10   -0.10    0.40
   8  -1 -10    0.20    0.40
   8   1 -10    0.30    0.30
   8   1 -10    0.20    0.30
  -8   1  10    0.10    0.30
  -8   1  10    0.20    0.40
   7  -1 -10    5.00    0.60
  -7  -1  10    4.70    0.60
  -7  -1  10    6.00    0.70
   7   1 -10    5.10    0.60
  -7   1  10    5.70    0.60
  -7   1  10    5.20    0.50
   7   1 -10    5.80    0.60
  -6  -1  10   16.60    1.00
  -6  -1  10   15.90    1.00
   6  -1 -10   14.50    1.00
   6  -1 -10   15.10    0.90
  -6  -1  10   14.80    0.90
   6   1 -10   17.30    1.00
  -6   1  10   15.70    1.00
  -6   1  10   15.80    0.90
   6   1 -10   15.80    0.90
  -6   1  10   14.60    1.00
   6   1 -10   15.40    0.90
   5  -1 -10   38.30    1.80
   5  -1 -10   35.60    1.80
  -5  -1  10   37.60    1.80
   5  -1 -10   37.20    1.80
  -5  -1  10   34.90    1.80
  -5  -1  10   37.00    1.80
  -5  -1  10   38.00    1.80
  -5  -1  10   36.60    1.80
  -5  -1  10   35.90    1.80
   5   1 -10   35.80    1.80
   5   1 -10   38.10    1.80
   5   1 -10   38.10    1.80
  -5   1  10   38.60    1.80
  -5   1  10   38.90    1.80
   5   1 -10   38.40    1.80
  -5   1  10   36.90    1.90
  -5   1  10   36.10    1.80
   5   1 -10   37.70    1.80
   5   1 -10   38.00    1.70
   4  -1 -10   84.99    3.80
   4  -1 -10   87.09    3.80
   4  -1 -10   84.39    3.80
  -4  -1  10   85.79    3.90
  -4  -1  10   87.69    3.80
  -4  -1  10   81.49    3.80
  -4  -1  10   82.69    3.80
  -4  -1  10   84.09    3.80
  -4   1  10   86.79    3.80
   4   1 -10   88.09    3.80
   4   1 -10   86.99    3.80
   4   1 -10   80.99    3.80
  -4   1  10   82.79    3.80
   4   1 -10   93.59    3.80
  -4   1  10   89.99    3.80
   4   1 -10   84.49    3.80
  -4   1  10   85.99    4.00
   3  -1 -10    0.50    0.30
  -3  -1  10    0.80    0.30
  -3  -1  10    0.30    0.30
  -3  -1  10    0.70    0.30
   3  -1 -10    0.30    0.30
  -3  -1  10    0.40    0.30
   3   1 -10    0.60    0.30
   3   1 -10    0.20    0.30
  -3   1  10    0.20    0.30
  -3   1  10    0.20    0.30
   3   1 -10    0.70    0.30
  -3   1  10    0.50    0.30
   2  -1 -10   49.70    2.40
  -2  -1  10   51.19    2.40
  -2  -1  10   51.79    2.50
   2  -1 -10   52.59    2.40
  -2  -1  10   49.30    2.40
   2   1 -10   50.99    2.40
  -2   1  10   53.89    2.50
   2   1 -10   51.19    2.40
   2   1 -10   56.19    2.40
  -2   1  10   49.20    2.40
  -2   1  10   51.49    2.50
  -1  -1  10   96.39    4.50
  -1  -1  10   98.39    4.40
   1  -1 -10  101.29    4.40
  -1  -1  10   98.79    4.40
   1  -1 -10   97.19    4.40
  -1   1  10   97.89    4.40
   1   1 -10   95.69    4.40
  -1   1  10   96.99    4.40
  -1   1  10  100.09    4.40
   1   1 -10   97.59    4.40
   1   1 -10  103.79    4.30
   0  -1 -10   19.90    1.10
   0  -1  10   18.70    1.20
   0  -1 -10   17.90    1.10
   0  -1  10   18.80    1.10
   0  -1  10   18.30    1.10
   0   1 -10   20.10    1.00
   0   1  10   19.20    1.10
   0   1  10   18.70    1.20
   0   1 -10   18.40    1.10
   0   1 -10   19.10    1.10
   0   1  10   20.00    1.20
  -1  -1 -10   11.60    0.90
   1  -1  10   13.70    0.90
  -1  -1 -10   13.40    0.90
   1  -1  10   12.40    1.00
   1  -1  10   13.50    1.00
  -1   1 -10   13.30    0.80
  -1   1 -10   12.70    0.80
  -1   1 -10   12.00    0.90
   1   1  10   12.60    0.90
   1   1  10   13.20    1.00
   2  -1  10    6.20    0.70
  -2  -1 -10    7.10    0.70
   2  -1  10    6.10    0.60
   2  -1  10    5.90    0.70
  -2   1 -10    6.70    0.70
  -2   1 -10    6.40    0.60
   2   1  10    7.50    0.80
   2   1  10    6.60    0.60
 -10  -2  10   17.80    1.30
  10  -2 -10   13.20    1.30
 -10   2  10   16.40    1.40
  10   2 -10   13.10    1.00
  10   2 -10   15.40    1.30
   9  -2 -10   19.10    1.40
  -9  -2  10   20.50    1.40
  -9   2  10   21.20    1.30
   9   2 -10   21.00    1.30
  -9   2  10   22.70    1.40
   9   2 -10   21.70    1.30
   8  -2 -10    4.70    0.60
  -8  -2  10    5.50    0.70
   8   2 -10    6.10    0.70
  -8   2  10    5.30    0.60
   8   2 -10    4.90    0.60
  -8   2  10    5.30    0.60
  -7  -2  10   71.69    3.30
   7  -2 -10   68.39    3.30
  -7   2  10   73.89    3.30
   7   2 -10   71.99    3.20
   7   2 -10   69.19    3.30
  -7   2  10   73.99    3.40
  -7   2  10   69.79    3.30
  -6  -2  10   75.49    3.60
   6  -2 -10   81.99    3.60
   6  -2 -10   79.79    3.60
  -6  -2  10   82.09    3.60
  -6  -2  10   81.19    3.60
   6   2 -10   80.29    3.60
   6   2 -10   76.19    3.60
  -6   2  10   80.59    3.60
   6   2 -10   78.99    3.60
  -6   2  10   76.79    3.60
  -5  -2  10  235.78    9.80
  -5  -2  10  234.68    9.90
   5  -2 -10  240.48    9.90
   5  -2 -10  226.98    9.90
  -5  -2  10  224.28    9.90
  -5  -2  10  226.88    9.90
  -5   2  10  231.78    9.90
   5   2 -10  232.68    9.90
   5   2 -10  230.48    9.80
   5   2 -10  234.28    9.90
  -5   2  10  217.38    9.90
   5   2 -10  220.78    9.90
  -5   2  10  226.48    9.80
   4  -2 -10    1.60    0.30
  -4  -2  10    1.50    0.40
  -4  -2  10    1.40    0.40
   4  -2 -10    1.60    0.30
  -4  -2  10    1.80    0.30
   4   2 -10    1.80    0.30
  -4   2  10    1.20    0.30
  -4   2  10    2.00    0.40
   4   2 -10    1.90    0.40
  -4   2  10    1.60    0.30
   4   2 -10    2.00    0.30
  -3  -2  10    1.20    0.40
   3  -2 -10    1.30    0.30
   3  -2 -10    0.90    0.30
  -3  -2  10    1.90    0.40
  -3  -2  10    1.20    0.30
   3   2 -10    0.90    0.30
  -3   2  10    1.90    0.40
  -3   2  10    1.30    0.30
  -3   2  10    1.50    0.30
   3   2 -10    0.70    0.30
  -2  -2  10  118.89    5.20
   2  -2 -10  119.09    5.20
  -2  -2  10  117.69    5.20
  -2  -2  10  119.59    5.30
   2  -2 -10  121.89    5.20
  -2   2  10  116.29    5.20
   2   2 -10  117.19    5.20
   2   2 -10  115.19    5.20
  -2   2  10  118.89    5.30
  -2   2  10  118.69    5.20
  -1  -2  10    2.60    0.40
   1  -2 -10    3.40    0.50
   1  -2 -10    4.00    0.40
  -1  -2  10    3.20    0.50
  -1  -2  10    2.80    0.50
   1   2 -10    2.80    0.40
  -1   2  10    3.60    0.50
   1   2 -10    3.10    0.40
  -1   2  10    4.20    0.50
  -1   2  10    3.10    0.40
   0  -2  10   54.59    2.70
   0  -2  10   52.99    2.60
   0  -2 -10   56.79    2.60
   0  -2 -10   55.29    2.50
   0  -2  10   54.39    2.50
   0   2  10   52.99    2.60
   0   2 -10   53.79    2.50
   0   2  10   55.09    2.60
   0   2 -10   52.49    2.50
   0   2  10   53.39    2.60
  -1  -2 -10   36.90    1.80
   1  -2  10   35.10    1.90
   1  -2  10   33.90    1.80
   1  -2  10   33.90    1.90
  -1  -2 -10   36.30    1.80
   1   2  10   36.20    1.80
  -1   2 -10   37.00    1.80
  -1   2 -10   34.20    1.80
   1   2  10   35.60    1.90
   2  -2  10    0.10    0.40
   2  -2  10   -0.10    0.40
   2  -2  10    0.30    0.40
   2   2  10    0.50    0.40
   2   2  10    0.70    0.50
  -2   2 -10    0.00    0.30
   3  -2  10    8.70    0.90
  10   3 -10   63.19    3.00
  -9  -3  10   24.00    1.50
   9  -3 -10   19.90    1.40
  -9   3  10   23.80    1.40
   9   3 -10   25.20    1.40
   8  -3 -10    1.10    0.40
  -8  -3  10    0.70    0.40
  -8   3  10    0.70    0.30
   8   3 -10    0.80    0.40
  -7  -3  10   13.70    1.00
   7  -3 -10   15.10    1.00
  -7  -3  10   14.30    1.00
   7   3 -10   12.90    0.90
   7   3 -10   13.40    0.90
  -7   3  10   13.30    1.00
  -7   3  10   13.50    0.90
  -6  -3  10   50.69    2.40
  -6  -3  10   49.10    2.40
   6  -3 -10   48.80    2.40
   6  -3 -10   50.99    2.30
   6   3 -10   49.00    2.30
  -6   3  10   49.90    2.40
  -6   3  10   51.19    2.40
   6   3 -10   47.70    2.30
  -5  -3  10    0.30    0.30
   5  -3 -10    0.10    0.30
  -5  -3  10    0.20    0.30
   5  -3 -10    0.50    0.30
  -5  -3  10    0.00    0.30
  -5   3  10    0.70    0.30
   5   3 -10    0.20    0.20
  -5   3  10   -0.10    0.30
   5   3 -10    0.30    0.30
   5   3 -10    1.60    0.40
  -5   3  10    0.10    0.30
   4  -3 -10   29.40    1.50
  -4  -3  10   29.50    1.50
  -4  -3  10   30.10    1.50
   4  -3 -10   27.50    1.50
  -4  -3  10   31.00    1.50
  -4   3  10   29.10    1.50
   4   3 -10   30.20    1.40
  -4   3  10   29.60    1.50
  -4   3  10   28.80    1.50
   4   3 -10   28.40    1.40
   4   3 -10   28.70    1.50
  -3  -3  10  187.78    8.20
   3  -3 -10  191.68    8.20
  -3  -3  10  189.98    8.20
  -3  -3  10  192.28    8.20
  -3   3  10  189.48    8.20
  -3   3  10  188.08    8.20
   3   3 -10  181.28    8.20
  -3   3  10  194.78    8.20
   3   3 -10  188.48    8.10
   3   3 -10  184.78    8.10
   2  -3 -10    2.40    0.40
  -2  -3  10    1.20    0.40
  -2  -3  10    2.10    0.50
  -2  -3  10    2.50    0.40
   2  -3 -10    1.90    0.40
  -2   3  10    2.20    0.40
  -2   3  10    2.30    0.40
  -2   3  10    1.90    0.40
   2   3 -10    2.20    0.40
   2   3 -10    1.70    0.30
  -1  -3  10   66.39    3.10
   1  -3 -10   68.09    3.10
  -1  -3  10   65.79    3.10
   1  -3 -10   66.49    3.00
  -1  -3  10   67.39    3.20
   1   3 -10   68.79    3.10
  -1   3  10   68.69    3.10
  -1   3  10   64.39    3.10
  -1   3  10   67.19    3.10
   1   3 -10   66.39    3.00
   0  -3 -10   -0.30    0.30
   0  -3  10    0.30    0.40
   0  -3  10   -0.20    0.40
   0  -3  10    0.40    0.30
   0  -3 -10   -0.40    0.30
   0   3 -10   -0.30    0.30
   0   3  10    0.00    0.30
   0   3  10    0.20    0.40
   0   3  10    0.10    0.30
   0   3 -10   -0.40    0.30
   1  -3  10   52.49    2.60
  -1  -3 -10   52.19    2.50
   1  -3  10   53.69    2.60
  -1  -3 -10   53.09    2.50
   1  -3  10   55.09    2.50
   1   3  10   53.19    2.60
   1   3  10   53.49    2.50
   1   3  10   50.79    2.60
  -1   3 -10   49.60    2.50
  -1   3 -10   53.19    2.50
   2  -3  10   67.19    3.20
   2  -3  10   67.99    3.10
   2  -3  10   66.89    3.20
  -2   3 -10   64.89    3.10
   2   3  10   62.89    3.20
   2   3  10   68.19    3.10
   9  -4 -10   71.29    3.30
  -9  -4  10   63.59    3.30
   9   4 -10   70.29    3.20
   8  -4 -10   18.10    1.20
  -8  -4  10   18.90    1.20
  -8   4  10   17.60    1.30
  -8   4  10   17.20    1.10
   8   4 -10   19.20    1.20
   7  -4 -10  118.49    5.30
  -7  -4  10  110.89    5.30
  -7  -4  10  126.69    5.30
   7   4 -10  115.69    5.20
  -7   4  10  118.79    5.20
   7   4 -10  116.89    5.20
  -7   4  10  115.59    5.20
   6  -4 -10  224.98    9.70
  -6  -4  10  229.08    9.80
   6  -4 -10  221.28    9.80
  -6  -4  10  219.88    9.80
   6   4 -10  219.88    9.80
  -6   4  10  223.88    9.80
   6   4 -10  229.78    9.70
  -6   4  10  233.78    9.80
  -5  -4  10   39.10    2.00
   5  -4 -10   41.10    2.00
   5  -4 -10   40.90    2.00
  -5  -4  10   39.70    2.00
   5   4 -10   40.80    2.00
  -5   4  10   44.10    2.10
   5   4 -10   41.50    2.00
  -5   4  10   40.10    2.00
  -5   4  10   42.40    2.10
   5   4 -10   40.70    1.90
  -4  -4  10    9.50    0.80
   4  -4 -10    7.70    0.70
  -4  -4  10    8.20    0.70
   4  -4 -10    8.70    0.70
  -4   4  10    9.20    0.80
  -4   4  10    9.30    0.80
   4   4 -10    8.90    0.60
  -4   4  10    9.30    0.70
   4   4 -10    7.70    0.70
  -3  -4  10   72.69    3.40
  -3  -4  10   77.09    3.40
   3  -4 -10   71.39    3.30
  -3   4  10   70.29    3.30
   3   4 -10   73.69    3.30
  -3   4  10   69.99    3.40
  -3   4  10   75.19    3.30
   3   4 -10   75.29    3.40
   3   4 -10   72.49    3.30
  -2  -4  10   73.19    3.50
   2  -4 -10   71.69    3.40
  -2  -4  10   74.49    3.40
  -2  -4  10   71.69    3.50
   2  -4 -10   76.19    3.40
  -2   4  10   77.39    3.50
   2   4 -10   78.79    3.50
   2   4 -10   76.49    3.40
  -2   4  10   75.19    3.40
   2   4 -10   72.89    3.40
   1  -4 -10   60.59    2.80
  -1  -4  10   62.69    3.00
   1  -4 -10   61.39    2.90
  -1  -4  10   60.69    2.90
  -1  -4  10   61.79    2.80
   1   4 -10   61.19    2.80
  -1   4  10   61.19    2.90
  -1   4  10   63.79    2.90
  -1   4  10   60.29    2.90
   1   4 -10   60.59    2.80
   0  -4  10   50.29    2.50
   0  -4  10   50.19    2.40
   0  -4 -10   50.89    2.40
   0  -4  10   50.19    2.50
   0  -4 -10   52.19    2.50
   0   4  10   51.09    2.50
   0   4 -10   48.70    2.40
   0   4  10   50.49    2.50
   0   4  10   50.09    2.50
   0   4 -10   52.39    2.40
   1  -4  10   19.30    1.30
   1  -4  10   19.70    1.20
  -1  -4 -10   17.60    1.40
   1  -4  10   20.20    1.30
   1   4  10   20.60    1.60
  -1   4 -10   18.40    1.10
   1   4  10   20.90    1.20
   1   4  10   20.90    1.30
   2  -4  10   33.20    2.60
   2  -4  10   40.10    2.10
   2  -4  10   40.20    2.20
  -2   4 -10   42.30    2.20
   2   4  10   35.80    2.40
   2   4  10   37.40    2.10
  -9  -5  10   36.80    2.10
   9   5 -10   36.20    2.20
   8  -5 -10   53.19    2.70
  -8  -5  10   60.59    2.80
  -8   5  10   55.39    2.70
   8   5 -10   57.99    2.70
   8   5 -10   49.70    2.70
  -7  -5  10    0.20    0.40
  -7  -5  10    0.70    0.40
   7  -5 -10    1.20    0.50
  -7   5  10    1.10    0.40
   7   5 -10    0.80    0.40
   7   5 -10    0.60    0.40
  -7   5  10    0.70    0.40
  -6  -5  10   20.40    1.30
  -6  -5  10   20.00    1.20
   6  -5 -10   22.00    1.30
   6  -5 -10   20.50    1.20
   6   5 -10   18.50    1.20
  -6   5  10   20.50    1.20
   6   5 -10   19.90    1.20
  -6   5  10   20.90    1.20
   5  -5 -10  121.29    5.40
  -5  -5  10  123.59    5.50
  -5  -5  10  126.19    5.50
   5  -5 -10  125.09    5.50
   5   5 -10  120.39    5.50
   5   5 -10  124.39    5.50
  -5   5  10  119.39    5.50
  -5   5  10  124.79    5.50
   5   5 -10  124.59    5.40
  -4  -5  10  113.19    5.00
   4  -5 -10  112.39    4.90
   4  -5 -10  111.99    4.90
  -4  -5  10  113.49    5.00
  -4   5  10  106.49    4.90
  -4   5  10  102.89    4.90
   4   5 -10  109.19    4.80
  -4   5  10  114.09    4.90
   4   5 -10  108.89    4.90
  -3  -5  10   10.80    0.90
   3  -5 -10   11.60    0.90
  -3  -5  10   10.20    0.90
  -3   5  10    9.90    0.80
   3   5 -10   10.90    0.90
  -3   5  10   10.70    0.80
   3   5 -10   11.40    0.80
  -3   5  10   11.30    0.90
  -2  -5  10    9.40    0.90
   2  -5 -10    9.70    0.80
  -2  -5  10    9.50    0.80
  -2   5  10    9.80    0.90
  -2   5  10   10.30    0.80
   2   5 -10    9.90    0.70
   2   5 -10    9.90    0.70
   2   5 -10   10.60    0.90
   1  -5 -10   32.10    1.60
  -1  -5  10   28.90    1.60
   1  -5 -10   27.50    1.50
  -1  -5  10   29.00    1.60
   1   5 -10   27.00    1.50
  -1   5  10   28.40    1.60
   1   5 -10   32.00    1.60
   1   5 -10   28.60    1.50
  -1   5  10   28.30    1.60
   0  -5  10   55.59    2.80
   0  -5  10   57.29    2.80
   0  -5 -10   54.79    2.70
   0  -5 -10   58.69    2.70
   0   5  10   54.49    2.70
   0   5 -10   55.29    2.60
   0   5 -10   56.99    2.60
   0   5  10   54.09    2.70
   0   5  10   56.69    2.70
   1  -5  10   28.80    1.70
   1  -5  10   29.10    1.70
   1   5  10   30.30    1.70
   1   5  10   32.10    1.70
  -1   5 -10   30.50    1.60
   8  -6 -10   10.70    0.90
  -8  -6  10   10.10    1.00
   8   6 -10    9.90    0.90
   8   6 -10   10.60    1.00
  -7  -6  10    0.30    0.40
  -7  -6  10    0.20    0.40
   7  -6 -10   -0.10    0.40
  -7   6  10    0.40    0.40
   7   6 -10    0.00    0.40
   7   6 -10    0.40    0.40
  -6  -6  10    0.60    0.40
   6  -6 -10    1.90    0.50
   6  -6 -10    1.10    0.40
  -6  -6  10    1.10    0.40
  -6   6  10    0.50    0.40
  -6   6  10    1.20    0.40
   6   6 -10    1.00    0.40
   6   6 -10    1.00    0.40
   5  -6 -10    0.20    0.30
  -5  -6  10    0.00    0.40
   5  -6 -10    0.40    0.40
  -5   6  10   -0.30    0.30
   5   6 -10    0.40    0.30
   5   6 -10    0.10    0.40
   5   6 -10    0.60    0.40
  -5   6  10    0.50    0.40
  -4  -6  10    2.00    0.40
   4  -6 -10    1.80    0.40
   4  -6 -10    1.60    0.40
  -4  -6  10    1.60    0.40
  -4   6  10    1.70    0.40
   4   6 -10    2.00    0.40
  -4   6  10    2.40    0.40
   4   6 -10    1.30    0.30
  -4   6  10    2.00    0.50
   3  -6 -10   11.70    0.90
  -3  -6  10   13.20    1.00
  -3  -6  10   11.40    0.90
  -3   6  10   11.80    0.90
  -3   6  10   11.20    0.90
   3   6 -10   11.20    0.80
   3   6 -10   11.40    0.90
  -2  -6  10    1.20    0.50
   2  -6 -10    1.60    0.40
  -2  -6  10    1.40    0.50
  -2   6  10    1.80    0.40
   2   6 -10    1.40    0.40
  -2   6  10    1.80    0.50
   2   6 -10    1.40    0.40
   1  -6 -10    1.70    0.50
  -1  -6  10    1.20    0.50
  -1  -6  10    1.10    0.40
   1  -6 -10    1.40    0.50
   1   6 -10    0.80    0.40
  -1   6  10    1.30    0.40
   1   6 -10    1.70    0.40
  -1   6  10    1.60    0.50
   1   6 -10    1.00    0.40
   0  -6  10    3.60    0.60
   0  -6  10    3.70    0.60
   0   6 -10    4.70    0.60
   0   6  10    3.10    0.50
   0   6 -10    4.20    0.50
   1   6  10    1.30    0.50
  -7  -7  10   61.69    2.90
  -7  -7  10   52.99    3.00
   7  -7 -10   62.59    2.90
   7   7 -10   53.39    3.10
   7   7 -10   61.59    2.80
   6  -7 -10    3.60    0.60
  -6  -7  10    4.30    0.80
  -6  -7  10    3.50    0.60
   6   7 -10    3.00    0.50
   6   7 -10    4.40    0.60
   5  -7 -10   18.90    1.30
  -5  -7  10   20.50    1.30
   5   7 -10   20.30    1.30
   5   7 -10   20.20    1.30
   5   7 -10   21.00    1.10
   4  -7 -10  184.18    8.40
  -4  -7  10  194.48    8.40
   4   7 -10  203.08    8.40
  -4   7  10  187.88    8.30
  -4   7  10  201.68    8.60
   4   7 -10  176.88    8.40
   4   7 -10  194.08    8.30
  -3  -7  10   14.30    1.20
  -3  -7  10   17.20    1.20
  -3   7  10   17.20    1.10
   3   7 -10   14.90    1.00
   3   7 -10   15.10    1.10
  -2  -7  10    0.20    0.40
  -2  -7  10    0.00    0.40
   2   7 -10    0.80    0.30
  -2   7  10    0.70    0.40
   2   7 -10    0.50    0.40
  -1  -7  10  157.98    7.10
  -1  -7  10  163.08    7.10
  -1   7  10  160.68    7.10
   1   7 -10  165.78    7.00
   1   7 -10  159.68    7.10
   1   7 -10  152.18    7.10
   5  -8 -10    5.90    0.70
   5   8 -10    7.30    0.70
   4  -8 -10   24.40    1.50
  -4  -8  10   21.80    1.60
   4   8 -10   26.50    1.70
   4   8 -10   23.90    1.30
  -4   8  10   24.60    1.40
   4   8 -10   28.30    1.80
  -3  -8  10   14.70    1.30
  -3  -8  10   16.40    1.50
  -3   8  10   15.40    1.00
   3   8 -10   14.80    1.00
  -2   8  10    7.20    0.80
  -9   0  11   -0.40    0.40
   9   0 -11    0.10    0.40
  -8   0  11   -0.40    0.40
   8   0 -11   -0.20    0.40
  -8   0  11   -0.20    0.30
   7   0 -11    0.10    0.40
  -7   0  11    0.20    0.30
  -7   0  11    0.30    0.40
   7   0 -11   -0.20    0.30
   6   0 -11    0.10    0.30
   6   0 -11    0.00    0.30
  -6   0  11   -0.20    0.30
  -6   0  11   -0.40    0.30
  -5   0  11    0.10    0.30
  -5   0  11    0.00    0.30
   5   0 -11    0.50    0.30
  -5   0  11    0.00    0.30
   5   0 -11    0.40    0.30
   5   0 -11    0.20    0.30
  -4   0  11    0.60    0.30
   4   0 -11    0.30    0.30
   4   0 -11   -0.10    0.30
   4   0 -11   -0.20    0.30
  -4   0  11   -0.10    0.30
  -4   0  11   -0.30    0.30
   3   0 -11   -0.70    0.30
   3   0 -11    0.00    0.20
  -3   0  11    0.10    0.30
  -3   0  11   -0.40    0.30
   3   0 -11    0.90    0.30
  -3   0  11    1.00    0.40
   2   0 -11    0.10    0.30
  -2   0  11   -0.20    0.30
   2   0 -11    0.20    0.30
  -2   0  11   -0.30    0.30
  -2   0  11   -0.20    0.40
   1   0 -11    0.00    0.30
  -1   0  11    0.40    0.40
  -1   0  11    0.40    0.40
   1   0 -11   -0.30    0.30
   0   0 -11    0.40    0.40
   0   0  11   -0.20    0.30
   0   0 -11   -0.30    0.30
   0   0  11    0.30    0.50
   0   0 -11    0.40    0.30
   1   0  11   -0.10    0.40
  -1   0 -11   -0.20    0.30
   1   0  11   -0.20    0.50
   9  -1 -11    1.40    0.50
  -9  -1  11    1.70    0.50
  -9   1  11    0.90    0.40
   9   1 -11    1.70    0.50
  -9   1  11    1.00    0.40
   8  -1 -11    1.40    0.50
  -8  -1  11    1.60    0.50
  -8   1  11    1.40    0.40
   8   1 -11    1.60    0.50
  -8   1  11    1.80    0.50
  -7  -1  11    0.60    0.40
   7  -1 -11    0.70    0.30
   7  -1 -11    0.30    0.40
  -7   1  11    0.90    0.40
   7   1 -11    0.70    0.40
  -7   1  11    0.50    0.30
   6  -1 -11   21.00    1.20
   6  -1 -11   22.00    1.20
   6  -1 -11   20.20    1.20
  -6  -1  11   21.10    1.30
   6   1 -11   21.50    1.30
  -6   1  11   21.80    1.20
  -6   1  11   21.30    1.20
  -5  -1  11    4.60    0.50
  -5  -1  11    4.50    0.50
  -5  -1  11    4.00    0.50
   5  -1 -11    5.60    0.60
   5  -1 -11    4.30    0.50
   5   1 -11    4.80    0.40
  -5   1  11    5.10    0.50
  -5   1  11    6.40    0.60
   5   1 -11    5.20    0.60
  -5   1  11    5.00    0.50
   5   1 -11    5.10    0.60
   4  -1 -11    9.60    0.70
  -4  -1  11    9.90    0.80
  -4  -1  11   10.20    0.80
   4  -1 -11   10.40    0.80
  -4  -1  11   10.30    0.70
   4   1 -11   10.10    0.90
   4   1 -11    9.30    0.80
  -4   1  11    9.70    0.80
  -4   1  11   10.30    0.80
   4   1 -11   10.20    0.70
   4   1 -11    9.00    0.70
  -3  -1  11  103.79    4.50
   3  -1 -11   96.99    4.50
  -3  -1  11   98.49    4.50
   3  -1 -11   99.19    4.50
   3   1 -11  102.89    4.40
  -3   1  11  109.79    4.50
   3   1 -11   98.09    4.50
   3   1 -11   99.59    4.50
  -3   1  11  101.29    4.50
  -3   1  11   97.29    4.50
  -2  -1  11    3.30    0.40
   2  -1 -11    2.60    0.40
   2  -1 -11    3.50    0.40
  -2  -1  11    3.30    0.50
   2   1 -11    3.20    0.50
  -2   1  11    3.10    0.40
   2   1 -11    3.60    0.40
   2   1 -11    3.00    0.40
  -2   1  11    3.40    0.50
  -2   1  11    3.10    0.50
   1  -1 -11   66.59    3.10
  -1  -1  11   67.59    3.20
  -1  -1  11   67.89    3.10
   1  -1 -11   67.59    3.10
   1   1 -11   67.69    3.00
  -1   1  11   66.29    3.10
   1   1 -11   65.29    3.10
   1   1 -11   63.79    3.10
  -1   1  11   68.19    3.10
  -1   1  11   69.49    3.20
   0  -1 -11  145.59    6.10
   0  -1  11  133.09    6.20
   0  -1  11  137.69    6.30
   0  -1 -11  148.09    6.50
   0   1 -11  133.29    6.20
   0   1  11  141.79    6.20
   0   1 -11  144.29    6.20
   0   1  11  139.59    6.30
   0   1 -11  139.19    6.10
   1  -1  11    0.30    0.40
   1  -1  11    0.20    0.50
  -1   1 -11   -0.30    0.30
   1   1  11    0.70    0.50
   1   1  11    0.10    0.30
  -1   1 -11    0.30    0.40
  10   2 -11   22.60    1.40
  -9  -2  11  102.49    4.90
   9  -2 -11  109.09    4.90
   9   2 -11  109.39    4.80
   9   2 -11  105.59    4.90
   8  -2 -11   13.40    1.00
  -8  -2  11   12.70    1.10
   8   2 -11   12.60    0.90
   8   2 -11   12.60    1.00
  -8   2  11   11.70    0.90
   7  -2 -11   -0.20    0.30
   7  -2 -11    0.30    0.40
  -7  -2  11    0.00    0.40
  -7   2  11   -0.30    0.40
   7   2 -11   -0.10    0.30
   7   2 -11   -0.20    0.30
  -6  -2  11   21.30    1.30
   6  -2 -11   18.60    1.10
   6  -2 -11   18.10    1.20
  -6  -2  11   19.50    1.10
   6   2 -11   18.70    1.10
   6   2 -11   18.50    1.10
  -6   2  11   18.10    1.10
  -6   2  11   19.10    1.10
   6   2 -11   19.90    1.40
  -5  -2  11   65.89    2.90
  -5  -2  11   65.09    2.90
   5  -2 -11   63.29    2.90
  -5  -2  11   60.39    2.90
   5  -2 -11   62.49    2.90
   5  -2 -11   62.99    3.10
   5   2 -11   64.19    2.90
   5   2 -11   62.29    2.80
  -5   2  11   61.39    2.90
   5   2 -11   61.99    2.90
  -5   2  11   65.99    3.00
  -5   2  11   62.99    2.90
   4  -2 -11    0.40    0.30
  -4  -2  11   -0.10    0.30
  -4  -2  11    0.00    0.30
  -4  -2  11    0.20    0.40
   4  -2 -11    0.10    0.30
  -4   2  11    0.00    0.30
   4   2 -11    0.00    0.30
   4   2 -11    0.30    0.30
   4   2 -11    0.10    0.30
   4   2 -11    0.20    0.30
  -4   2  11    0.20    0.30
  -4   2  11    0.10    0.30
  -3  -2  11   -0.70    0.40
   3  -2 -11    0.00    0.30
  -3  -2  11   -0.30    0.30
   3  -2 -11   -0.10    0.30
  -3  -2  11    0.10    0.30
   3   2 -11   -0.40    0.30
  -3   2  11   -0.10    0.30
   3   2 -11    0.20    0.30
  -3   2  11    0.30    0.30
   2  -2 -11   89.69    4.10
  -2  -2  11   90.89    4.10
   2  -2 -11   92.49    4.10
  -2  -2  11   89.59    4.20
  -2  -2  11   88.19    4.10
  -2   2  11   90.79    4.20
  -2   2  11   95.29    4.10
   2   2 -11   91.09    4.10
   2   2 -11   88.49    4.10
  -2   2  11   91.59    4.10
   1  -2 -11    1.90    0.40
  -1  -2  11    2.10    0.50
  -1  -2  11    1.80    0.40
   1  -2 -11    2.20    0.40
  -1  -2  11    1.10    0.40
  -1   2  11    1.90    0.40
  -1   2  11    2.10    0.50
   1   2 -11    2.00    0.40
   1   2 -11    1.60    0.40
  -1   2  11    2.10    0.50
   0  -2 -11    0.10    0.30
   0  -2  11   -0.40    0.40
   0  -2  11   -0.20    0.30
   0  -2  11    0.40    0.50
   0   2 -11   -0.50    0.30
   0   2  11    0.00    0.30
   0   2 -11   -0.80    0.50
   0   2  11    0.00    0.40
   1  -2  11   25.00    1.60
   1  -2  11   26.00    1.60
  -1   2 -11   28.10    1.60
   1   2  11   27.60    1.60
   1   2  11   25.40    1.60
   9  -3 -11    0.40    0.50
  -9  -3  11    0.40    0.50
   9   3 -11    0.60    0.40
   9   3 -11    0.70    0.50
   8  -3 -11   28.30    1.60
  -8  -3  11   28.30    1.60
   8   3 -11   27.80    1.50
  -8   3  11   28.70    1.60
  -7  -3  11   16.60    1.10
  -7  -3  11   15.80    1.10
   7  -3 -11   14.70    1.00
   7  -3 -11   15.00    1.10
  -7   3  11   15.10    1.10
  -7   3  11   14.20    1.00
   7   3 -11   15.20    1.00
   6  -3 -11    2.50    0.50
  -6  -3  11    2.80    0.40
   6  -3 -11    2.70    0.40
  -6  -3  11    2.60    0.50
  -6   3  11    1.70    0.40
   6   3 -11    2.70    0.50
  -6   3  11    3.00    0.50
   6   3 -11    2.80    0.40
   6   3 -11    2.40    0.40
  -5  -3  11   17.30    1.10
  -5  -3  11   16.80    1.00
   5  -3 -11   15.70    1.00
   5  -3 -11   16.40    1.00
   5   3 -11   15.40    1.00
  -5   3  11   15.90    1.00
   5   3 -11   15.80    0.90
   5   3 -11   16.00    1.00
  -5   3  11   15.10    1.10
   4  -3 -11    4.00    0.50
  -4  -3  11    3.50    0.40
  -4  -3  11    4.80    0.50
   4  -3 -11    3.70    0.50
  -4  -3  11    3.70    0.50
   4   3 -11    4.40    0.50
  -4   3  11    3.80    0.50
   4   3 -11    3.60    0.40
  -4   3  11    4.40    0.50
  -4   3  11    2.90    0.40
  -3  -3  11    7.60    0.70
   3  -3 -11    8.00    0.70
  -3  -3  11    6.80    0.80
   3  -3 -11    7.30    0.70
  -3  -3  11    7.30    0.80
  -3   3  11    8.30    0.80
   3   3 -11    7.10    0.70
   3   3 -11    6.70    0.60
  -3   3  11    7.60    0.70
   3   3 -11    8.00    0.70
  -2  -3  11    5.90    0.60
  -2  -3  11    5.70    0.70
  -2  -3  11    5.80    0.60
   2  -3 -11    6.50    0.70
   2  -3 -11    5.00    0.50
  -2   3  11    5.30    0.60
  -2   3  11    6.00    0.60
   2   3 -11    4.80    0.50
   2   3 -11    4.60    0.50
   1  -3 -11   26.90    1.40
   1  -3 -11   27.30    1.50
  -1  -3  11   27.50    1.50
  -1  -3  11   26.20    1.50
  -1  -3  11   27.10    1.60
  -1   3  11   26.00    1.50
  -1   3  11   27.50    1.50
  -1   3  11   28.40    1.50
   1   3 -11   26.40    1.50
   1   3 -11   28.00    1.40
   0  -3  11   48.10    2.50
   0  -3  11   47.80    2.30
   0  -3  11   49.00    2.40
   0   3  11   46.80    2.40
   0   3 -11   49.70    2.30
   0   3  11   46.70    2.30
   1  -3  11   27.50    1.60
   1   3  11   25.40    1.60
  -9  -4  11    0.50    0.80
   8  -4 -11   23.70    1.50
  -8  -4  11   24.30    1.50
   8   4 -11   25.60    1.40
  -7  -4  11   11.80    1.00
  -7  -4  11   12.60    1.00
   7  -4 -11   13.80    1.00
   7  -4 -11   14.10    1.00
   7   4 -11   13.00    0.90
  -7   4  11   13.40    1.00
  -7   4  11   14.20    1.00
   7   4 -11   12.90    1.00
   6  -4 -11   21.20    1.30
  -6  -4  11   22.10    1.30
   6  -4 -11   20.00    1.20
   6   4 -11   20.40    1.20
   6   4 -11   21.00    1.30
  -6   4  11   21.40    1.30
  -6   4  11   21.50    1.30
   5  -4 -11    0.10    0.40
   5  -4 -11   -0.10    0.30
  -5  -4  11   -0.50    0.30
  -5  -4  11    0.30    0.40
   5   4 -11    0.00    0.40
   5   4 -11   -0.40    0.30
   5   4 -11    0.00    0.30
  -5   4  11    0.20    0.40
  -5   4  11   -0.10    0.30
  -4  -4  11    1.20    0.40
  -4  -4  11    0.90    0.40
   4  -4 -11    1.30    0.40
  -4   4  11    1.00    0.40
   4   4 -11    0.50    0.30
  -4   4  11    1.80    0.40
   4   4 -11    1.30    0.30
  -4   4  11    1.20    0.40
   3  -4 -11   -0.30    0.30
  -3  -4  11    0.30    0.40
  -3  -4  11    0.20    0.40
   3  -4 -11    0.00    0.30
  -3   4  11   -0.30    0.30
   3   4 -11   -0.20    0.30
   3   4 -11    0.30    0.40
   3   4 -11   -0.20    0.30
  -3   4  11    0.30    0.30
  -2  -4  11    4.30    0.60
   2  -4 -11    4.50    0.60
  -2  -4  11    4.10    0.60
  -2  -4  11    3.60    0.50
   2  -4 -11    4.40    0.50
  -2   4  11    4.90    0.60
  -2   4  11    4.70    0.60
   2   4 -11    3.40    0.50
   2   4 -11    3.50    0.50
   2   4 -11    3.30    0.40
  -1  -4  11   30.80    1.70
  -1  -4  11   31.30    1.70
  -1  -4  11   29.60    1.80
  -1   4  11   34.20    1.70
   1   4 -11   31.90    1.60
   1   4 -11   30.60    1.60
   0  -4  11   34.80    1.90
   0  -4  11   35.70    1.80
   0  -4  11   35.20    2.00
   0   4  11   34.70    1.90
   0   4  11   34.30    1.90
   0   4 -11   34.00    1.80
   1   4  11    8.20    1.10
   8  -5 -11   22.10    1.50
  -8  -5  11   20.60    1.40
   8   5 -11   24.50    1.50
   7  -5 -11   36.80    2.00
  -7  -5  11   35.90    2.00
  -7  -5  11   40.40    2.00
   7   5 -11   38.50    1.90
  -7   5  11   38.10    2.00
   7   5 -11   37.20    2.00
  -6  -5  11   41.00    2.10
   6  -5 -11   40.20    2.10
  -6   5  11   41.30    2.10
   6   5 -11   43.10    2.10
   6   5 -11   41.90    2.10
  -5  -5  11    0.40    0.40
   5  -5 -11    0.20    0.40
  -5  -5  11    0.10    0.40
   5  -5 -11    0.50    0.40
  -5   5  11    0.30    0.40
   5   5 -11    0.20    0.30
  -5   5  11    0.60    0.40
   5   5 -11   -0.30    0.40
   5   5 -11    0.50    0.30
   4  -5 -11   34.80    1.80
  -4  -5  11   34.40    1.90
  -4  -5  11   34.90    1.90
  -4   5  11   35.70    1.90
   4   5 -11   35.60    1.80
   4   5 -11   37.10    1.70
  -4   5  11   35.20    1.80
  -4   5  11   34.60    1.80
  -3  -5  11   -0.10    0.40
   3  -5 -11   -0.20    0.30
  -3  -5  11   -0.10    0.40
   3   5 -11   -0.40    0.30
  -3   5  11   -0.30    0.30
   3   5 -11    0.10    0.40
  -3   5  11    0.20    0.40
  -2  -5  11   10.90    1.00
  -2  -5  11    9.00    1.00
   2   5 -11   12.80    0.80
   2   5 -11   10.30    0.80
   2   5 -11   10.50    0.90
  -2   5  11   11.10    0.90
  -1  -5  11   12.00    1.10
  -1  -5  11   11.40    1.00
  -1   5  11   10.70    0.90
   1   5 -11   11.90    1.00
   1   5 -11   10.20    0.80
   0  -5  11   14.20    1.40
   7  -6 -11   16.50    1.20
  -7  -6  11   13.70    1.40
   7   6 -11   15.80    1.10
   6  -6 -11   -0.10    0.40
  -6  -6  11   -0.10    0.40
   6   6 -11    0.60    0.40
   6   6 -11    0.10    0.40
   5  -6 -11   48.90    2.40
  -5  -6  11   48.40    2.40
   5   6 -11   50.29    2.40
   5   6 -11   43.30    2.30
   5   6 -11   50.29    2.30
  -4  -6  11    1.80    0.50
  -4  -6  11    2.30    0.50
   4   6 -11    2.40    0.50
  -4   6  11    2.40    0.40
   4   6 -11    1.90    0.40
  -3  -6  11   21.80    1.40
  -3  -6  11   22.70    1.40
   3   6 -11   21.20    1.30
   3   6 -11   23.30    1.30
  -3   6  11   22.00    1.30
  -2  -6  11    7.10    0.80
  -2  -6  11    7.80    0.90
   2   6 -11    6.60    0.80
   2   6 -11    6.60    0.60
  -2   6  11    9.10    0.80
   6  -7 -11   41.20    2.60
   5  -7 -11    1.50    0.50
   5   7 -11    1.70    0.40
   4   7 -11   99.29    4.50
  -4   7  11  101.69    4.50
  -3   7  11   23.70    1.40
  -9   0  12    7.90    1.20
   8   0 -12    1.70    0.50
  -8   0  12    1.70    0.50
  -7   0  12    0.20    0.40
   7   0 -12    0.30    0.40
   5   0 -12  141.89    6.00
  -5   0  12  138.09    6.10
  -5   0  12  139.29    6.20
   5   0 -12  129.09    6.00
   5   0 -12  137.29    6.00
   4   0 -12   23.10    1.20
   4   0 -12   21.30    1.20
   4   0 -12   22.50    1.20
  -4   0  12   21.40    1.30
  -4   0  12   21.60    1.30
  -3   0  12   24.10    1.40
  -3   0  12   24.30    1.30
   3   0 -12   21.40    1.30
   3   0 -12   24.90    1.30
  -3   0  12   20.20    1.30
   3   0 -12   23.10    1.30
  -2   0  12  212.98    9.20
   2   0 -12  204.38    9.00
   2   0 -12  210.78    9.00
  -2   0  12  206.98    9.10
  -1   0  12   29.10    1.60
   1   0 -12   28.40    1.50
   1   0 -12   29.40    1.50
  -1   0  12   28.70    1.70
   8  -1 -12   -0.30    0.40
   8  -1 -12   -0.40    0.30
  -8  -1  12   -0.10    0.40
   8   1 -12   -0.20    0.40
  -8   1  12   -0.10    0.40
   7  -1 -12   19.40    1.20
   7  -1 -12   20.30    1.30
  -7   1  12   19.60    1.20
   7   1 -12   21.50    1.30
   6  -1 -12   91.69    4.00
   6  -1 -12   88.39    4.00
  -6   1  12   83.69    4.00
   5  -1 -12  201.48    9.10
  -5  -1  12  208.68    9.20
   5  -1 -12  225.48    9.10
  -5   1  12  211.08    9.20
  -5   1  12  203.58    9.10
   5   1 -12  214.38    9.10
  -4  -1  12   -0.20    0.40
   4  -1 -12   -0.10    0.30
   4  -1 -12   -0.60    0.30
  -4  -1  12   -0.10    0.30
   4   1 -12    0.10    0.30
   4   1 -12   -0.10    0.30
  -4   1  12   -0.30    0.30
   4   1 -12   -0.40    0.30
  -4   1  12   -0.40    0.30
  -3  -1  12    2.50    0.40
   3  -1 -12    2.00    0.50
   3  -1 -12    1.30    0.40
  -3  -1  12    1.60    0.50
  -3   1  12    1.40    0.50
   3   1 -12    2.00    0.40
   3   1 -12    2.20    0.40
  -3   1  12    2.30    0.40
  -2  -1  12   29.30    1.60
   2  -1 -12   30.50    1.60
  -2  -1  12   30.90    1.70
   2   1 -12   29.30    1.70
  -2   1  12   30.90    1.70
   2   1 -12   29.50    1.60
  -2   1  12   29.10    1.60
  -1  -1  12    6.70    0.80
  -1  -1  12    6.00    0.60
  -1   1  12    7.00    0.80
   1   1 -12    6.40    0.60
  -1   1  12    8.00    0.80
   8  -2 -12   33.10    1.80
  -8  -2  12   29.10    1.80
   8   2 -12   31.00    1.70
   7  -2 -12   24.10    1.40
   7  -2 -12   22.10    1.40
  -7   2  12   22.60    1.40
   6  -2 -12   33.40    1.80
   6  -2 -12   36.20    1.80
  -6   2  12   37.30    1.80
  -6   2  12   33.70    1.80
   5  -2 -12   32.10    1.60
   5  -2 -12   30.40    1.60
  -5  -2  12   28.70    1.60
  -5  -2  12   29.60    1.60
   5   2 -12   28.30    1.60
  -5   2  12   30.50    1.60
  -5   2  12   30.80    1.60
   5   2 -12   29.10    1.50
  -4  -2  12   28.50    1.50
  -4  -2  12   26.00    1.60
   4  -2 -12   30.40    1.50
   4  -2 -12   30.30    1.50
   4   2 -12   28.80    1.50
   4   2 -12   30.20    1.60
   4   2 -12   26.70    1.50
  -4   2  12   27.40    1.60
  -4   2  12   27.90    1.50
   3  -2 -12    1.50    0.40
  -3  -2  12    1.20    0.40
   3  -2 -12    1.00    0.40
  -3  -2  12    1.20    0.50
  -3   2  12    1.40    0.40
   3   2 -12    0.80    0.30
  -3   2  12    1.60    0.40
   3   2 -12    1.20    0.40
   3   2 -12    1.90    0.40
  -2  -2  12   54.19    2.50
  -2  -2  12   55.69    2.70
   2   2 -12   54.09    2.90
  -2   2  12   49.70    2.50
   2   2 -12   51.99    2.50
  -1  -2  12   14.20    1.20
  -1  -2  12   15.40    1.20
  -1   2  12   15.50    1.20
  -1   2  12   15.50    1.20
   1   2 -12   16.10    1.10
  -8  -3  12   20.30    1.40
   8  -3 -12   20.50    1.30
   8   3 -12   21.00    1.40
   8   3 -12   19.30    1.20
   7  -3 -12   73.19    3.50
  -7  -3  12   76.29    3.50
  -7   3  12   76.49    3.70
   7   3 -12   73.69    3.50
  -6  -3  12   69.49    3.20
  -6  -3  12   63.19    3.40
  -6   3  12   66.09    3.40
   6   3 -12   69.69    3.20
  -6   3  12   69.59    3.20
   6   3 -12   68.39    3.20
   5  -3 -12    0.30    0.40
  -5  -3  12   -0.10    0.40
   5  -3 -12    0.60    0.40
  -5  -3  12    0.50    0.40
   5   3 -12    0.20    0.30
  -5   3  12    0.10    0.40
   5   3 -12    0.20    0.40
   5   3 -12    0.30    0.40
  -5   3  12    0.50    0.40
   4  -3 -12   68.39    3.30
  -4  -3  12   65.59    3.20
  -4  -3  12   64.89    3.10
  -4  -3  12   67.69    3.10
   4  -3 -12   65.99    3.10
   4   3 -12   66.09    3.00
   4   3 -12   66.79    3.10
  -4   3  12   64.69    3.20
   4   3 -12   65.29    3.10
  -4   3  12   68.19    3.10
  -3  -3  12   17.40    1.20
  -3  -3  12   17.00    1.10
  -3  -3  12   15.90    1.20
   3   3 -12   17.70    1.10
   3   3 -12   18.00    1.20
  -3   3  12   17.00    1.10
   3   3 -12   17.80    1.10
  -2  -3  12   20.40    1.40
  -2  -3  12   20.50    1.30
  -2  -3  12   20.40    1.20
   2   3 -12   20.20    1.20
  -2   3  12   19.50    1.20
  -1  -3  12  103.29    4.70
  -8  -4  12   10.90    1.30
   8   4 -12   12.10    1.10
   7  -4 -12   11.50    1.00
  -7  -4  12   11.70    1.00
   7   4 -12   11.40    1.00
  -6  -4  12   21.80    1.30
   6   4 -12   20.00    1.30
   6   4 -12   20.40    1.30
  -5  -4  12   55.79    2.90
  -5  -4  12   59.39    2.90
   5   4 -12   60.19    2.80
   5   4 -12   62.09    2.80
   5   4 -12   59.49    2.80
  -4  -4  12   20.80    1.30
  -4  -4  12   21.10    1.30
   4   4 -12   20.50    1.20
   4   4 -12   20.70    1.30
  -4   4  12   17.50    1.20
  -3  -4  12   12.60    1.10
  -3  -4  12   13.80    1.10
  -3   4  12   13.00    1.00
   3   4 -12   12.10    1.00
   3   4 -12   11.60    0.90
  -2  -4  12    0.10    0.60
  -2  -4  12   -0.10    0.40
  -2   4  12    0.50    0.40
  -1  -4  12   10.70    1.40
   7   5 -12  104.39    4.80
  -6  -5  12    0.60    0.40
   6   5 -12    1.20    0.40
   6   5 -12    0.60    0.50
  -5  -5  12   -0.10    0.40
  -5  -5  12    0.00    0.40
   5   5 -12    0.10    0.40
   5   5 -12    0.00    0.40
   5   5 -12    0.40    0.40
  -4  -5  12    4.80    0.60
  -4  -5  12    4.80    0.60
  -4   5  12    5.60    0.60
   4   5 -12    4.50    0.50
   4   5 -12    3.50    0.50
   4   5 -12    3.80    0.50
  -3  -5  12    4.10    0.60
  -3   5  12    5.20    0.60
  -4   6  12   16.50    1.50
  -5   0  13   -0.30    0.60
   4   0 -13   -0.10    0.30
  -4   0  13   -0.40    0.30
  -3   0  13    0.10    0.40
   3   0 -13    0.10    0.60
   4  -1 -13    4.40    0.50
  -4  -1  13    4.60    0.50
   4   1 -13    3.70    0.50
  -4   1  13    4.70    0.60
  -3  -1  13   21.10    1.50
  -3  -1  13   20.50    1.40
  -3   1  13   22.20    1.60
  -4  -2  13   37.20    1.90
  -4  -2  13   36.90    2.00
  -4   2  13   37.30    1.90
   4   2 -13   38.20    1.90
   4   2 -13   36.40    1.90
  -3  -2  13    7.80    0.90
  -5  -3  13    5.50    0.70
   5   3 -13    6.70    0.80
  -4  -3  13   -0.20    0.50
  -4  -3  13   -1.00    0.60
  -4   3  13   -0.40    0.30
;
_shelx_hkl_checksum              9967
#END Tags that were not found in dictionaries
loop_
_space_group_symop_operation_xyz
'x, y, z'
'-x, y+1/2, -z+1/2'
'-x, -y, -z'
'x, -y-1/2, z-1/2'
loop_
_atom_site_label
_atom_site_type_symbol
_atom_site_fract_x
_atom_site_fract_y
_atom_site_fract_z
_atom_site_U_iso_or_equiv
_atom_site_adp_type
_atom_site_occupancy
_atom_site_site_symmetry_order
_atom_site_calc_flag
_atom_site_refinement_flags_posn
_atom_site_refinement_flags_adp
O3 O -0.03298(8) 0.54816(7) 0.30877(7) 0.01355(13) Uani 1 1 d . .
O2 O 0.61969(8) 0.89271(7) 0.71743(7) 0.01484(14) Uani 1 1 d . .
H1 H 0.7336 0.9020 0.7376 0.022 Uiso 1 1 calc R U
O1 O 0.63607(9) 0.68783(8) 0.57476(8) 0.02002(15) Uani 1 1 d . .
N1 N 0.26376(9) 0.61340(7) 0.49563(8) 0.01081(13) Uani 1 1 d . .
C5 C 0.07847(10) 0.63750(8) 0.41329(8) 0.01018(14) Uani 1 1 d . .
C1 C 0.55254(10) 0.76656(8) 0.63317(9) 0.01106(14) Uani 1 1 d . .
C3 C 0.21957(10) 0.86338(8) 0.56716(9) 0.01235(15) Uani 1 1 d . .
H3B H 0.2207 0.9178 0.6639 0.015 Uiso 1 1 calc R U
H3A H 0.2502 0.9362 0.4983 0.015 Uiso 1 1 calc R U
C2 C 0.35897(10) 0.72848(8) 0.62076(8) 0.00988(14) Uani 1 1 d . .
H3 H 0.3721 0.6900 0.7298 0.012 Uiso 1 1 calc R U
C4 C 0.02820(10) 0.78709(9) 0.46758(10) 0.01333(15) Uani 1 1 d . .
H3C H -0.0395 0.7700 0.5368 0.016 Uiso 1 1 calc R U
H3D H -0.0511 0.8501 0.3715 0.016 Uiso 1 1 calc R U
H2 H 0.310(2) 0.5236(17) 0.4912(18) 0.028(3) Uiso 1 1 d . .
loop_
_atom_site_aniso_label
_atom_site_aniso_U_11
_atom_site_aniso_U_22
_atom_site_aniso_U_33
_atom_site_aniso_U_23
_atom_site_aniso_U_13
_atom_site_aniso_U_12
O3 0.0100(2) 0.0140(3) 0.0139(2) -0.00222(19) 0.00258(19) -0.00003(18)
O2 0.0107(2) 0.0132(3) 0.0188(3) -0.00628(19) 0.0047(2) -0.00205(18)
O1 0.0142(3) 0.0182(3) 0.0293(3) -0.0108(2) 0.0109(2) -0.0016(2)
N1 0.0088(3) 0.0089(3) 0.0128(3) -0.00185(19) 0.0028(2) 0.00112(19)
C5 0.0094(3) 0.0107(3) 0.0105(3) 0.0010(2) 0.0043(2) 0.0010(2)
C1 0.0099(3) 0.0102(3) 0.0111(3) -0.0007(2) 0.0026(2) 0.0004(2)
C3 0.0116(3) 0.0092(3) 0.0155(3) -0.0011(2) 0.0051(2) 0.0018(2)
C2 0.0098(3) 0.0090(3) 0.0100(3) -0.0009(2) 0.0035(2) 0.0003(2)
C4 0.0102(3) 0.0114(3) 0.0173(3) -0.0016(2) 0.0049(2) 0.0024(2)
loop_
_atom_type_symbol
_atom_type_description
_atom_type_scat_dispersion_real
_atom_type_scat_dispersion_imag
_atom_type_scat_source
C C 0.0033 0.0016 'International Tables Vol C Tables 4.2.6.8 and 6.1.1.4'
H H 0.0000 0.0000 'International Tables Vol C Tables 4.2.6.8 and 6.1.1.4'
N N 0.0061 0.0033 'International Tables Vol C Tables 4.2.6.8 and 6.1.1.4'
O O 0.0106 0.0060 'International Tables Vol C Tables 4.2.6.8 and 6.1.1.4'
loop_
_geom_angle_atom_site_label_1
_geom_angle_atom_site_label_2
_geom_angle_atom_site_label_3
_geom_angle
C1 O2 H1 109.5
C5 N1 C2 113.23(6)
C5 N1 H2 119.5(9)
C2 N1 H2 125.0(9)
O3 C5 N1 124.29(7)
O3 C5 C4 126.26(6)
N1 C5 C4 109.45(6)
O1 C1 O2 124.55(7)
O1 C1 C2 123.71(7)
O2 C1 C2 111.72(6)
C4 C3 C2 103.62(6)
C4 C3 H3B 111.0
C2 C3 H3B 111.0
C4 C3 H3A 111.0
C2 C3 H3A 111.0
H3B C3 H3A 109.0
N1 C2 C1 112.16(6)
N1 C2 C3 103.27(6)
C1 C2 C3 114.28(6)
N1 C2 H3 109.0
C1 C2 H3 109.0
C3 C2 H3 109.0
C5 C4 C3 103.84(6)
C5 C4 H3C 111.0
C3 C4 H3C 111.0
C5 C4 H3D 111.0
C3 C4 H3D 111.0
H3C C4 H3D 109.0
loop_
_geom_bond_atom_site_label_1
_geom_bond_atom_site_label_2
_geom_bond_distance
O3 C5 1.2501(9)
O2 C1 1.3186(9)
O2 H1 0.8400
O1 C1 1.2186(9)
N1 C5 1.3406(9)
N1 C2 1.4586(9)
N1 H2 0.877(15)
C5 C4 1.5130(10)
C1 C2 1.5185(10)
C3 C4 1.5384(11)
C3 C2 1.5458(10)
C3 H3B 0.9900
C3 H3A 0.9900
C2 H3 1.0000
C4 H3C 0.9900
C4 H3D 0.9900
