#------------------------------------------------------------------------------
#$Date: 2016-03-22 22:11:28 +0200 (Tue, 22 Mar 2016) $
#$Revision: 179034 $
#$URL: svn://www.crystallography.net/cod/cif/4/12/32/4123289.cif $
#------------------------------------------------------------------------------
#
# This file is available in the Crystallography Open Database (COD),
# http://www.crystallography.net/
#
# All data on this site have been placed in the public domain by the
# contributors.
#
data_4123289
loop_
_publ_author_name
'Olsen, Esben P. K.'
'Singh, Thishana'
'Harris, Pernille'
'Andersson, Pher G.'
'Madsen, Robert'
_publ_section_title
;
 Experimental and theoretical mechanistic investigation of the
 iridium-catalyzed dehydrogenative decarbonylation of primary alcohols.
;
_journal_issue                   2
_journal_name_full               'Journal of the American Chemical Society'
_journal_page_first              834
_journal_page_last               842
_journal_paper_doi               10.1021/ja5106943
_journal_volume                  137
_journal_year                    2015
_chemical_formula_moiety         'C37 H30 Cl Ir O P2'
_chemical_formula_sum            'C37 H30 Cl Ir O P2'
_chemical_formula_weight         780.20
_chemical_name_systematic
;
 ?
;
_space_group_crystal_system      triclinic
_space_group_IT_number           1
_space_group_name_Hall           'P 1'
_space_group_name_H-M_alt        'P 1'
_symmetry_space_group_name_Hall  'P 1'
_symmetry_space_group_name_H-M   'P 1'
_atom_sites_solution_hydrogens   geom
_atom_sites_solution_primary     direct
_audit_creation_date             2014-02-25
_audit_creation_method
;
Olex2 1.2
(compiled 2014.02.17 svn.r2891 for OlexSys, GUI svn.r4773)
;
_cell_angle_alpha                72.9196(19)
_cell_angle_beta                 89.0425(17)
_cell_angle_gamma                69.5115(18)
_cell_formula_units_Z            1
_cell_length_a                   9.13579(17)
_cell_length_b                   9.5659(2)
_cell_length_c                   10.2840(2)
_cell_measurement_reflns_used    28028
_cell_measurement_temperature    120
_cell_measurement_theta_max      72.8490
_cell_measurement_theta_min      7.8320
_cell_volume                     801.03(3)
_computing_cell_refinement
;
CrysAlisPro, Agilent Technologies,
Version 1.171.36.28 (release 01-02-2013 CrysAlis171 .NET)
(compiled Feb  1 2013,16:14:44)
;
_computing_data_collection
;
CrysAlisPro, Agilent Technologies,
Version 1.171.36.28 (release 01-02-2013 CrysAlis171 .NET)
(compiled Feb  1 2013,16:14:44)
;
_computing_data_reduction
;
CrysAlisPro, Agilent Technologies,
Version 1.171.36.28 (release 01-02-2013 CrysAlis171 .NET)
(compiled Feb  1 2013,16:14:44)
;
_computing_molecular_graphics    'Olex2 (Dolomanov et al., 2009)'
_computing_publication_material  'Olex2 (Dolomanov et al., 2009)'
_computing_structure_refinement  'ShelXL (Sheldrick, 2008)'
_computing_structure_solution    'XS (Sheldrick, 2008)'
_diffrn_ambient_temperature      120
_diffrn_detector_area_resol_mean 5.3073
_diffrn_measured_fraction_theta_full 0.990
_diffrn_measured_fraction_theta_max 0.986
_diffrn_measurement_details
;
  1 omega  -95.00   -2.00   1.0000    1.0000
omega____ theta____ kappa____ phi______ frames
    -      -37.5466  125.0000  -30.0000 93

  2 omega  -43.00   -7.00   1.0000    1.0000
omega____ theta____ kappa____ phi______ frames
    -      -37.5466  -57.0000   90.0000 36

  3 omega -116.00   -8.00   1.0000    1.0000
omega____ theta____ kappa____ phi______ frames
    -      -37.5466  -38.0000  -30.0000 108

  4 omega -122.00  -55.00   1.0000    1.0000
omega____ theta____ kappa____ phi______ frames
    -      -37.5466  -77.0000 -120.0000 67

  5 omega -115.00  -50.00   1.0000    1.0000
omega____ theta____ kappa____ phi______ frames
    -      -37.5466  -57.0000   90.0000 65

  6 omega  -50.00   -1.00   1.0000    1.0000
omega____ theta____ kappa____ phi______ frames
    -      -37.5466  -77.0000 -120.0000 49

  7 omega   -3.00   22.00   1.0000    1.0000
omega____ theta____ kappa____ phi______ frames
    -       40.0000   95.0000    2.9482 25

  8 omega    5.00   30.00   1.0000    1.0000
omega____ theta____ kappa____ phi______ frames
    -       44.0000   88.0000 -129.7314 25

  9 omega    9.00   34.00   1.0000    1.0000
omega____ theta____ kappa____ phi______ frames
    -       48.0000   86.0000   87.7563 25

 10 omega   10.00   35.00   1.0000    1.0000
omega____ theta____ kappa____ phi______ frames
    -       48.0000   85.0000   28.7967 25

 11 omega   19.00   44.00   1.0000    1.0000
omega____ theta____ kappa____ phi______ frames
    -       56.0000   82.0000  170.8756 25

 12 omega   19.00   44.00   1.0000    1.0000
omega____ theta____ kappa____ phi______ frames
    -       56.0000   82.0000 -117.7773 25

 13 omega   19.00   44.00   1.0000    1.0000
omega____ theta____ kappa____ phi______ frames
    -       56.0000   82.0000  -93.3671 25

 14 omega -150.00 -124.00   1.0000    1.0000
omega____ theta____ kappa____ phi______ frames
    -      -68.5000  -74.0000   87.8795 26

 15 omega  -70.00  -33.00   1.0000    1.0000
omega____ theta____ kappa____ phi______ frames
    -      -68.5000  -74.0000   87.8795 37

 16 omega  -60.00  -33.00   1.0000    1.0000
omega____ theta____ kappa____ phi______ frames
    -      -68.5000  -76.0000 -112.9351 27

 17 omega -149.00  -93.00   1.0000    1.0000
omega____ theta____ kappa____ phi______ frames
    -      -68.5000  -77.0000 -180.0000 56

 18 omega  -58.00  -32.00   1.0000    1.0000
omega____ theta____ kappa____ phi______ frames
    -      -68.5000  -77.0000    0.0000 26

 19 omega  -62.00  -33.00   1.0000    1.0000
omega____ theta____ kappa____ phi______ frames
    -      -68.5000  -77.0000  -60.0000 29

 20 omega -147.00  -65.00   1.0000    1.0000
omega____ theta____ kappa____ phi______ frames
    -      -68.5000  -77.0000  -60.0000 82

 21 omega -105.00  -19.00   1.0000    1.0000
omega____ theta____ kappa____ phi______ frames
    -      -68.5000   77.0000 -120.0000 86

 22 omega  -59.00  -33.00   1.0000    1.0000
omega____ theta____ kappa____ phi______ frames
    -      -68.5000  -77.0000 -180.0000 26

 23 omega  -64.00  -34.00   1.0000    1.0000
omega____ theta____ kappa____ phi______ frames
    -      -68.5000  -77.0000  120.0000 30

 24 omega  -59.00  -33.00   1.0000    1.0000
omega____ theta____ kappa____ phi______ frames
    -      -68.5000  -77.0000   30.0000 26

 25 omega -149.00 -114.00   1.0000    1.0000
omega____ theta____ kappa____ phi______ frames
    -      -68.5000  -77.0000  120.0000 35

 26 omega   44.00   71.00   1.0000    1.0000
omega____ theta____ kappa____ phi______ frames
    -       76.0000   74.0000  -20.4039 27

 27 omega   40.00   88.00   1.0000    1.0000
omega____ theta____ kappa____ phi______ frames
    -       76.0000   75.0000  157.8657 48

 28 omega  115.00  141.00   1.0000    1.0000
omega____ theta____ kappa____ phi______ frames
    -       76.0000   77.0000 -113.7455 26

 29 omega   91.00  117.00   1.0000    1.0000
omega____ theta____ kappa____ phi______ frames
    -       76.0000   74.0000  -20.4039 26

 30 omega   40.00   84.00   1.0000    1.0000
omega____ theta____ kappa____ phi______ frames
    -       76.0000   77.0000 -113.7455 44

 31 omega   50.00   81.00   1.0000    1.0000
omega____ theta____ kappa____ phi______ frames
    -       84.0000   71.0000   20.2053 31

 32 omega   76.00  147.00   1.0000    1.0000
omega____ theta____ kappa____ phi______ frames
    -      108.2648   66.0000  -22.6988 71

 33 omega   77.00  166.00   1.0000    1.0000
omega____ theta____ kappa____ phi______ frames
    -      108.2648   61.0000 -150.0000 89

 34 omega  111.00  173.00   1.0000    1.0000
omega____ theta____ kappa____ phi______ frames
    -      108.2648   77.0000  120.0000 62

 35 omega   72.00  101.00   1.0000    1.0000
omega____ theta____ kappa____ phi______ frames
    -      108.2648   77.0000  120.0000 29

 36 omega   72.00   98.00   1.0000    1.0000
omega____ theta____ kappa____ phi______ frames
    -      108.2648   77.0000 -180.0000 26

 37 omega   72.00  174.00   1.0000    1.0000
omega____ theta____ kappa____ phi______ frames
    -      108.2648   77.0000   30.0000 102

 38 omega   77.00  109.00   1.0000    1.0000
omega____ theta____ kappa____ phi______ frames
    -      108.2648   61.0000  -60.0000 32

 39 omega   72.00  148.00   1.0000    1.0000
omega____ theta____ kappa____ phi______ frames
    -      108.2648   77.0000   90.0000 76

 40 omega   32.00   87.00   1.0000    1.0000
omega____ theta____ kappa____ phi______ frames
    -      108.2648  -45.0000  150.0000 55

 41 omega   88.00  114.00   1.0000    1.0000
omega____ theta____ kappa____ phi______ frames
    -      108.2648 -111.0000  120.0000 26

 42 omega   78.00  109.00   1.0000    1.0000
omega____ theta____ kappa____ phi______ frames
    -      108.2648  -95.0000    0.0000 31

 43 omega  106.00  153.00   1.0000    1.0000
omega____ theta____ kappa____ phi______ frames
    -      108.2648   45.0000 -180.0000 47

 44 omega   28.00   83.00   1.0000    1.0000
omega____ theta____ kappa____ phi______ frames
    -      108.2648 -111.0000  120.0000 55

 45 omega   77.00  103.00   1.0000    1.0000
omega____ theta____ kappa____ phi______ frames
    -      108.2648   45.0000 -180.0000 26

 46 omega   73.00  144.00   1.0000    1.0000
omega____ theta____ kappa____ phi______ frames
    -      108.2648   77.0000    0.0000 71

 47 omega   75.00  100.00   1.0000    1.0000
omega____ theta____ kappa____ phi______ frames
    -      108.2648   61.0000 -180.0000 25

 48 omega   73.00  148.00   1.0000    1.0000
omega____ theta____ kappa____ phi______ frames
    -      108.2648   77.0000 -120.0000 75

 49 omega   31.00   96.00   1.0000    1.0000
omega____ theta____ kappa____ phi______ frames
    -      108.2648  -45.0000  -30.0000 65

 50 omega   74.00  163.00   1.0000    1.0000
omega____ theta____ kappa____ phi______ frames
    -      108.2648   77.0000  -60.0000 89

 51 omega   22.00  109.00   1.0000    1.0000
omega____ theta____ kappa____ phi______ frames
    -      108.2648  -95.0000  150.0000 87

 52 omega  115.00  178.00   1.0000    1.0000
omega____ theta____ kappa____ phi______ frames
    -      108.2648   77.0000   60.0000 63

 53 omega   75.00  141.00   1.0000    1.0000
omega____ theta____ kappa____ phi______ frames
    -      108.2648   77.0000  -90.0000 66

 54 omega   72.00  110.00   1.0000    1.0000
omega____ theta____ kappa____ phi______ frames
    -      108.2648   77.0000   60.0000 38

 55 omega   37.00   94.00   1.0000    1.0000
omega____ theta____ kappa____ phi______ frames
    -      108.2648  -95.0000  -30.0000 57

 56 omega   58.00  104.00   1.0000    1.0000
omega____ theta____ kappa____ phi______ frames
    -      108.2648  -95.0000 -120.0000 46

 57 omega   75.00  101.00   1.0000    1.0000
omega____ theta____ kappa____ phi______ frames
    -      108.2648   61.0000 -120.0000 26

 58 omega -117.00   -6.00   1.0000    1.0000
omega____ theta____ kappa____ phi______ frames
    -      -37.5466  -38.0000  150.0000 111

 59 omega  -70.00   40.00   1.0000    1.0000
omega____ theta____ kappa____ phi______ frames
    -      -37.5466   57.0000  -60.0000 110

 60 omega  -47.00   95.00   1.0000    1.0000
omega____ theta____ kappa____ phi______ frames
    -       37.5466  -19.0000 -180.0000 142

 61 omega  -40.00   70.00   1.0000    1.0000
omega____ theta____ kappa____ phi______ frames
    -       37.5466  -57.0000   90.0000 110

 62 omega    1.00   82.00   1.0000    1.0000
omega____ theta____ kappa____ phi______ frames
    -       37.5466  -99.0000   90.0000 81

 63 omega   -3.00   25.00   1.0000    1.0000
omega____ theta____ kappa____ phi______ frames
    -       40.0000   95.0000    2.9482 28

 64 omega    5.00   33.00   1.0000    1.0000
omega____ theta____ kappa____ phi______ frames
    -       44.0000   88.0000 -129.7314 28

 65 omega   11.00   46.00   1.0000    1.0000
omega____ theta____ kappa____ phi______ frames
    -       48.0000   80.0000  114.6730 35

 66 omega   19.00   45.00   1.0000    1.0000
omega____ theta____ kappa____ phi______ frames
    -       56.0000   82.0000  -93.3671 26

 67 omega -153.00  -32.00   1.0000    1.0000
omega____ theta____ kappa____ phi______ frames
    -      -68.5000  -77.0000  -30.0000 121

 68 omega -151.00  -33.00   1.0000    1.0000
omega____ theta____ kappa____ phi______ frames
    -      -68.5000  -73.0000  144.1786 118

 69 omega -153.00  -32.00   1.0000    1.0000
omega____ theta____ kappa____ phi______ frames
    -      -68.5000  -77.0000  -90.0000 121

 70 omega -153.00  -32.00   1.0000    1.0000
omega____ theta____ kappa____ phi______ frames
    -      -68.5000  -77.0000    0.0000 121

 71 omega -153.00  -32.00   1.0000    1.0000
omega____ theta____ kappa____ phi______ frames
    -      -68.5000  -77.0000 -180.0000 121

 72 omega -153.00  -32.00   1.0000    1.0000
omega____ theta____ kappa____ phi______ frames
    -      -68.5000  -77.0000   60.0000 121

 73 omega   40.00  160.00   1.0000    1.0000
omega____ theta____ kappa____ phi______ frames
    -       76.0000   77.0000 -113.7455 120

 74 omega   49.00  165.00   1.0000    1.0000
omega____ theta____ kappa____ phi______ frames
    -       84.0000   71.0000   20.2053 116

 75 omega   77.00  178.00   1.0000    1.0000
omega____ theta____ kappa____ phi______ frames
    -      108.2648   45.0000   90.0000 101

 76 omega   75.00  178.00   1.0000    1.0000
omega____ theta____ kappa____ phi______ frames
    -      108.2648   61.0000  -30.0000 103

 77 omega   70.00  178.00   1.0000    1.0000
omega____ theta____ kappa____ phi______ frames
    -      108.2648   30.0000    0.0000 108

 78 omega   72.00  178.00   1.0000    1.0000
omega____ theta____ kappa____ phi______ frames
    -      108.2648   77.0000 -120.0000 106

 79 omega  100.00  178.00   1.0000    1.0000
omega____ theta____ kappa____ phi______ frames
    -      108.2648  111.0000 -150.0000 78

 80 omega   27.00  115.00   1.0000    1.0000
omega____ theta____ kappa____ phi______ frames
    -      108.2648 -111.0000  -30.0000 88

 81 omega   77.00  178.00   1.0000    1.0000
omega____ theta____ kappa____ phi______ frames
    -      108.2648   45.0000   30.0000 101

 82 omega   77.00  178.00   1.0000    1.0000
omega____ theta____ kappa____ phi______ frames
    -      108.2648   45.0000 -150.0000 101

 83 omega   27.00   91.00   1.0000    1.0000
omega____ theta____ kappa____ phi______ frames
    -      108.2648  -30.0000   90.0000 64

 84 omega   77.00  178.00   1.0000    1.0000
omega____ theta____ kappa____ phi______ frames
    -      108.2648   45.0000  -60.0000 101

 85 omega   76.00  178.00   1.0000    1.0000
omega____ theta____ kappa____ phi______ frames
    -      108.2648   56.0000   80.0000 102

 86 omega   75.00  178.00   1.0000    1.0000
omega____ theta____ kappa____ phi______ frames
    -      108.2648   61.0000   30.0000 103

 87 omega  100.00  178.00   1.0000    1.0000
omega____ theta____ kappa____ phi______ frames
    -      108.2648  111.0000  120.0000 78

 88 omega   30.00   98.00   1.0000    1.0000
omega____ theta____ kappa____ phi______ frames
    -      108.2648  -45.0000  -60.0000 68

 89 omega   75.00  178.00   1.0000    1.0000
omega____ theta____ kappa____ phi______ frames
    -      108.2648   61.0000    0.0000 103

 90 omega   75.00  178.00   1.0000    1.0000
omega____ theta____ kappa____ phi______ frames
    -      108.2648   61.0000 -120.0000 103

 91 omega   22.00  109.00   1.0000    1.0000
omega____ theta____ kappa____ phi______ frames
    -      108.2648  -95.0000 -120.0000 87

 92 omega   77.00  178.00   1.0000    1.0000
omega____ theta____ kappa____ phi______ frames
    -      108.2648   45.0000  150.0000 101

 93 omega   75.00  178.00   1.0000    1.0000
omega____ theta____ kappa____ phi______ frames
    -      108.2648   61.0000  -60.0000 103

 94 omega   77.00  178.00   1.0000    1.0000
omega____ theta____ kappa____ phi______ frames
    -      108.2648   45.0000  120.0000 101

 95 omega   75.00  178.00   1.0000    1.0000
omega____ theta____ kappa____ phi______ frames
    -      108.2648   61.0000   60.0000 103

 96 omega  100.00  178.00   1.0000    1.0000
omega____ theta____ kappa____ phi______ frames
    -      108.2648  111.0000 -180.0000 78
;
_diffrn_measurement_device_type  'SuperNova, Dual, Cu at zero, Atlas'
_diffrn_measurement_method       '\w scans'
_diffrn_orient_matrix_UB_11      -0.0077001000
_diffrn_orient_matrix_UB_12      0.0894331000
_diffrn_orient_matrix_UB_13      0.1039898000
_diffrn_orient_matrix_UB_21      0.1806626000
_diffrn_orient_matrix_UB_22      -0.0589257000
_diffrn_orient_matrix_UB_23      0.0175226000
_diffrn_orient_matrix_UB_31      -0.0031889000
_diffrn_orient_matrix_UB_32      0.1455001000
_diffrn_orient_matrix_UB_33      -0.1169072000
_diffrn_radiation_monochromator  mirror
_diffrn_radiation_type           CuK\a
_diffrn_radiation_wavelength     1.54184
_diffrn_reflns_av_R_equivalents  0.0252
_diffrn_reflns_av_unetI/netI     0.0142
_diffrn_reflns_Laue_measured_fraction_full 0.990
_diffrn_reflns_Laue_measured_fraction_max 0.986
_diffrn_reflns_limit_h_max       11
_diffrn_reflns_limit_h_min       -11
_diffrn_reflns_limit_k_max       11
_diffrn_reflns_limit_k_min       -11
_diffrn_reflns_limit_l_max       12
_diffrn_reflns_limit_l_min       -12
_diffrn_reflns_number            27697
_diffrn_reflns_point_group_measured_fraction_full 0.990
_diffrn_reflns_point_group_measured_fraction_max 0.986
_diffrn_reflns_theta_full        67.684
_diffrn_reflns_theta_max         72.961
_diffrn_reflns_theta_min         7.872
_diffrn_source                   'SuperNova (Cu) X-ray Source'
_diffrn_source_current           n/a
_diffrn_source_voltage           n/a
_exptl_absorpt_coefficient_mu    9.993
_exptl_absorpt_correction_T_max  1.00000
_exptl_absorpt_correction_T_min  0.52773
_exptl_absorpt_correction_type   multi-scan
_exptl_absorpt_process_details
;
CrysAlisPro, Agilent Technologies,
Version 1.171.36.28 (release 01-02-2013 CrysAlis171 .NET)
(compiled Feb  1 2013,16:14:44)
Empirical absorption correction using spherical harmonics,
 implemented in SCALE3 ABSPACK scaling algorithm.
;
_exptl_crystal_colour            yellow
_exptl_crystal_colour_primary    yellow
_exptl_crystal_density_diffrn    1.617
_exptl_crystal_description
;
;
_exptl_crystal_F_000             384
_exptl_crystal_size_max          0.333
_exptl_crystal_size_mid          0.205
_exptl_crystal_size_min          0.162
_refine_diff_density_max         1.368
_refine_diff_density_min         -1.279
_refine_diff_density_rms         0.110
_refine_ls_abs_structure_details
;
 Refined as a perfect inversion twin.
;
_refine_ls_extinction_method     none
_refine_ls_goodness_of_fit_ref   1.063
_refine_ls_hydrogen_treatment    constr
_refine_ls_matrix_type           full
_refine_ls_number_parameters     174
_refine_ls_number_reflns         6004
_refine_ls_number_restraints     219
_refine_ls_restrained_S_all      1.058
_refine_ls_R_factor_all          0.0247
_refine_ls_R_factor_gt           0.0246
_refine_ls_shift/su_max          0.021
_refine_ls_shift/su_mean         0.003
_refine_ls_structure_factor_coef Fsqd
_refine_ls_weighting_details
;
 w=1/[\s^2^(Fo^2^)+(0.0332P)^2^+3.0577P]
 where P=(Fo^2^+2Fc^2^)/3
;
_refine_ls_weighting_scheme      calc
_refine_ls_wR_factor_gt          0.0628
_refine_ls_wR_factor_ref         0.0628
_reflns_Friedel_coverage         1.000
_reflns_Friedel_fraction_full    0.990
_reflns_Friedel_fraction_max     0.986
_reflns_number_gt                6003
_reflns_number_total             6004
_reflns_threshold_expression     'I > 2\s(I)'
_cod_data_source_file            ja5106943_si_001.cif
_cod_data_source_block           vaskascomplex
_cod_depositor_comments
'Adding full bibliography for 4123286--4123290.cif.'
_cod_database_code               4123289
#BEGIN Tags that were not found in dictionaries:
_shelxl_version_number           2013-2
_chemical_oxdiff_formula         'C1 H1 O1'
_shelx_space_group_comment
;
The symmetry employed for this shelxl refinement is uniquely defined
by the following loop, which should always be used as a source of
symmetry information in preference to the above space-group names.
They are only intended as comments.
;
_reflns_odcompleteness_completeness 99.06
_reflns_odcompleteness_iscentric 1
_reflns_odcompleteness_theta     66.97
_olex2_refinement_description
;
1. Fixed Uiso
 At 1.2 times of:
  All C(H) groups
2. Restrained distances
 C1A-C2A \\sim C1B-C2B \\sim C1C-C2C \\sim C1D-C2D \\sim C1E-C2E \\sim C1F-C2F
 with sigma of 0.02
 C2A-C3A \\sim C2B-C3B \\sim C2C-C3C \\sim C2D-C3D \\sim C2E-C3E \\sim C2F-C3F
 with sigma of 0.02
 C3A-C4A \\sim C3B-C4B \\sim C3C-C4C \\sim C3D-C4D \\sim C3E-C4E \\sim C3F-C4F
 with sigma of 0.02
 C4A-C5A \\sim C4B-C5B \\sim C4C-C5C \\sim C4D-C5D \\sim C4E-C5E \\sim C4F-C5F
 with sigma of 0.02
 C5A-C6A \\sim C5B-C6B \\sim C5C-C6C \\sim C5D-C6D \\sim C5E-C6E \\sim C5F-C6F
 with sigma of 0.02
 C6A-C1A \\sim C6B-C1B \\sim C6C-C1C \\sim C6D-C1D \\sim C6E-C1E \\sim C6F-C1F
 with sigma of 0.02
 C1A-C3A \\sim C1B-C3B \\sim C1C-C3C \\sim C1D-C3D \\sim C1E-C3E \\sim C1F-C3F
 with sigma of 0.02
 C2A-C4A \\sim C2B-C4B \\sim C2C-C4C \\sim C2D-C4D \\sim C2E-C4E \\sim C2F-C4F
 with sigma of 0.02
 C3A-C5A \\sim C3B-C5B \\sim C3C-C5C \\sim C3D-C5D \\sim C3E-C5E \\sim C3F-C5F
 with sigma of 0.02
 C4A-C6A \\sim C4B-C6B \\sim C4C-C6C \\sim C4D-C6D \\sim C4E-C6E \\sim C4F-C6F
 with sigma of 0.02
 C5A-C1A \\sim C5B-C1B \\sim C5C-C1C \\sim C5D-C1D \\sim C5E-C1E \\sim C5F-C1F
 with sigma of 0.02
 C6A-C2A \\sim C6B-C2B \\sim C6C-C2C \\sim C6D-C2D \\sim C6E-C2E \\sim C6F-C2F
 with sigma of 0.02
3. Restrained planarity
 C1A, C2A, C3A, C4A, C5A, C6A
 with sigma of 0.1
 C1B, C2B, C3B, C4B, C5B, C6B
 with sigma of 0.1
 C1C, C2C, C3C, C4C, C5C, C6C
 with sigma of 0.1
 C1D, C2D, C3D, C4D, C5D, C6D
 with sigma of 0.1
 C1E, C2E, C3E, C4E, C5E, C6E
 with sigma of 0.1
 C1F, C2F, C3F, C4F, C5F, C6F
 with sigma of 0.1
 C2D, C3D, C4D, C5D, C6D, C1D
 with sigma of 0.1
 C1E, C2E, C3E, C4E, C5E, C6E
 with sigma of 0.1
 C1F, C2F, C3F, C4F, C5F, C6F
 with sigma of 0.1
 C1A, C6A, C5A, C4A, C3A, C2A
 with sigma of 0.1
 C2B, C3B, C4B, C5B, C6B, C1B
 with sigma of 0.1
 C1C, C6C, C5C, C4C, C3C, C2C
 with sigma of 0.1
4.a Aromatic/amide H refined with riding coordinates:
 C6E(H6E), C2E(H2E), C6A(H6A), C2A(H2A), C4F(H4F), C5A(H5A), C2D(H2D),
 C2B(H2B), C6C(H6C), C2C(H2C), C4E(H4E), C3A(H3A), C6F(H6F), C5C(H5C), C5E(H5E),
  C6B(H6B), C4A(H4A), C4C(H4C), C3E(H3E), C3F(H3F), C3D(H3D), C5F(H5F),
 C3C(H3C), C6D(H6D), C4D(H4D), C2F(H2F), C5D(H5D), C5B(H5B), C4B(H4B), C3B(H3B)
;
_shelx_res_file
;
TITL Esben4 CU2 in P1 #1
CELL 1.54184 9.135785 9.565882 10.284043 72.9196 89.0425 69.5115
ZERR 1 0.000166 0.000197 0.000222 0.0019 0.0017 0.0018
LATT -1

SFAC C H Cl Ir O P
UNIT 37 30 1 1 1 2
SADI C1A C2A C1B C2B C1C C2C C1D C2D C1E C2E C1F C2F
SADI C2A C3A C2B C3B C2C C3C C2D C3D C2E C3E C2F C3F
SADI C3A C4A C3B C4B C3C C4C C3D C4D C3E C4E C3F C4F
SADI C4A C5A C4B C5B C4C C5C C4D C5D C4E C5E C4F C5F
SADI C5A C6A C5B C6B C5C C6C C5D C6D C5E C6E C5F C6F
SADI C6A C1A C6B C1B C6C C1C C6D C1D C6E C1E C6F C1F
SADI C1A C3A C1B C3B C1C C3C C1D C3D C1E C3E C1F C3F
SADI C2A C4A C2B C4B C2C C4C C2D C4D C2E C4E C2F C4F
SADI C3A C5A C3B C5B C3C C5C C3D C5D C3E C5E C3F C5F
SADI C4A C6A C4B C6B C4C C6C C4D C6D C4E C6E C4F C6F
SADI C5A C1A C5B C1B C5C C1C C5D C1D C5E C1E C5F C1F
SADI C6A C2A C6B C2B C6C C2C C6D C2D C6E C2E C6F C2F
FLAT C1A C2A C3A C4A C5A C6A
FLAT C1B C2B C3B C4B C5B C6B
FLAT C1C C2C C3C C4C C5C C6C
FLAT C1D C2D C3D C4D C5D C6D
FLAT C1E C2E C3E C4E C5E C6E
FLAT C1F C2F C3F C4F C5F C6F
FLAT C2D C3D C4D C5D C6D C1D
FLAT C1E C2E C3E C4E C5E C6E
FLAT C1F C2F C3F C4F C5F C6F
FLAT C1A C6A C5A C4A C3A C2A
FLAT C2B C3B C4B C5B C6B C1B
FLAT C1C C6C C5C C4C C3C C2C

L.S. 4 0 0
PLAN  20
REM reset to P1 #1
BOND
MORE -1
CONF
fmap 2
acta
TWIN -1 0 0 0 -1 0 0 0 -1 2
REM <HKL>U:/Documents/Supernova/esben/Esben4%20CU2%20P-1/Esben4%20CU2.hkl</HKL>

WGHT    0.033200    3.057700
FVAR       8.29994
IR1   4   -0.000035    0.000111   -0.000015    11.00000    0.00653    0.01134 =
         0.00819   -0.00270    0.00114   -0.00142
P2    6   -0.016251    0.200608   -0.196430    11.00000    0.01257
CL1   3    0.215735   -0.163168   -0.082072    11.00000    0.02627
P1    6    0.018160   -0.206900    0.196570    11.00000    0.00838
C1D   1    0.172545    0.213366   -0.242877    11.00000    0.02224
C6E   1   -0.178765    0.328363   -0.458495    11.00000    0.01631
AFIX  43
H6E   2   -0.176819    0.424826   -0.458204    11.00000   -1.20000
AFIX   0
C1E   1   -0.113268    0.198087   -0.345984    11.00000    0.00995
C1C   1   -0.175292   -0.209739    0.246349    11.00000    0.00775
C1F   1   -0.134829    0.403329   -0.193090    11.00000    0.01914
C2E   1   -0.119527    0.053695   -0.345680    11.00000    0.02182
AFIX  43
H2E   2   -0.076174   -0.034848   -0.270304    11.00000   -1.20000
AFIX   0
C1A   1    0.109967   -0.182609    0.343684    11.00000    0.01367
C6A   1    0.172735   -0.308012    0.464792    11.00000    0.01976
AFIX  43
H6A   2    0.166064   -0.405093    0.473458    11.00000   -1.20000
AFIX   0
C2A   1    0.122276   -0.041673    0.335169    11.00000    0.01338
AFIX  43
H2A   2    0.080031    0.042151    0.256022    11.00000   -1.20000
AFIX   0
C4F   1   -0.323193    0.690968   -0.164388    11.00000    0.02531
AFIX  43
H4F   2   -0.386452    0.788612   -0.158408    11.00000   -1.20000
AFIX   0
C5A   1    0.244965   -0.285969    0.571707    11.00000    0.02229
AFIX  43
H5A   2    0.286133   -0.368491    0.651904    11.00000   -1.20000
AFIX   0
C1B   1    0.122271   -0.401663    0.192068    11.00000    0.01355
C2D   1    0.282703    0.192651   -0.140230    11.00000    0.02442
AFIX  43
H2D   2    0.256921    0.175146   -0.050485    11.00000   -1.20000
AFIX   0
C2B   1    0.284304   -0.459772    0.195722    11.00000    0.02732
AFIX  43
H2B   2    0.339992   -0.397554    0.204254    11.00000   -1.20000
AFIX   0
C6C   1   -0.203879   -0.258521    0.382713    11.00000    0.01528
AFIX  43
H6C   2   -0.125886   -0.284255    0.451831    11.00000   -1.20000
AFIX   0
C2C   1   -0.293923   -0.162682    0.141626    11.00000    0.01455
AFIX  43
H2C   2   -0.275894   -0.125398    0.050929    11.00000   -1.20000
AFIX   0
C4E   1   -0.255869    0.176949   -0.572736    11.00000    0.01793
AFIX  43
H4E   2   -0.304418    0.170713   -0.648510    11.00000   -1.20000
AFIX   0
C3A   1    0.195007   -0.019720    0.439687    11.00000    0.01984
AFIX  43
H3A   2    0.203120    0.077046    0.429729    11.00000   -1.20000
AFIX   0
C6F   1   -0.067031    0.510547   -0.183395    11.00000    0.02369
AFIX  43
H6F   2    0.040062    0.487954   -0.189111    11.00000   -1.20000
AFIX   0
C5C   1   -0.348590   -0.268797    0.415639    11.00000    0.01715
AFIX  43
H5C   2   -0.369622   -0.296766    0.506508    11.00000   -1.20000
AFIX   0
C5E   1   -0.247330    0.316410   -0.571763    11.00000    0.02121
AFIX  43
H5E   2   -0.288065    0.404322   -0.648102    11.00000   -1.20000
AFIX   0
C6B   1    0.041235   -0.497007    0.178871    11.00000    0.03049
AFIX  43
H6B   2   -0.067860   -0.459817    0.173285    11.00000   -1.20000
AFIX   0
C4A   1    0.255661   -0.140939    0.558826    11.00000    0.01540
AFIX  43
H4A   2    0.303453   -0.126152    0.630234    11.00000   -1.20000
AFIX   0
C4C   1   -0.460575   -0.237202    0.312538    11.00000    0.02779
AFIX  43
H4C   2   -0.551207   -0.258917    0.334031    11.00000   -1.20000
AFIX   0
C3E   1   -0.191705    0.044290   -0.460010    11.00000    0.02003
AFIX  43
H3E   2   -0.196838   -0.050887   -0.460707    11.00000   -1.20000
AFIX   0
C3F   1   -0.390542    0.583742   -0.172824    11.00000    0.02044
AFIX  43
H3F   2   -0.498047    0.607574   -0.169251    11.00000   -1.20000
AFIX   0
C3D   1    0.429098    0.197529   -0.168754    11.00000    0.02475
AFIX  43
H3D   2    0.498857    0.188890   -0.099434    11.00000   -1.20000
AFIX   0
C5F   1   -0.163318    0.653253   -0.164847    11.00000    0.03633
AFIX  43
H5F   2   -0.118535    0.722729   -0.152788    11.00000   -1.20000
AFIX   0
C3C   1   -0.439537   -0.172076    0.174207    11.00000    0.02507
AFIX  43
H3C   2   -0.521550   -0.136147    0.106183    11.00000   -1.20000
AFIX   0
C1    1   -0.163099    0.119820    0.057761    11.00000    0.04641
O1    5   -0.265620    0.195271    0.098187    11.00000    0.05425
C6D   1    0.210354    0.247652   -0.377854    11.00000    0.01677
AFIX  43
H6D   2    0.135953    0.270477   -0.449072    11.00000   -1.20000
AFIX   0
C4D   1    0.472312    0.215283   -0.300562    11.00000    0.02145
AFIX  43
H4D   2    0.574887    0.205738   -0.318537    11.00000   -1.20000
AFIX   0
C2F   1   -0.295836    0.441570   -0.186560    11.00000    0.01170
AFIX  43
H2F   2   -0.340693    0.369523   -0.191578    11.00000   -1.20000
AFIX   0
C5D   1    0.360751    0.247428   -0.405176    11.00000    0.02355
AFIX  43
H5D   2    0.386234    0.269210   -0.495015    11.00000   -1.20000
AFIX   0
C5B   1    0.124133   -0.647669    0.174111    11.00000    0.03393
AFIX  43
H5B   2    0.069510   -0.711914    0.168821    11.00000   -1.20000
AFIX   0
C4B   1    0.283724   -0.703563    0.177014    11.00000    0.02820
AFIX  43
H4B   2    0.337149   -0.804228    0.172384    11.00000   -1.20000
AFIX   0
C3B   1    0.365478   -0.608902    0.186928    11.00000    0.02278
AFIX  43
H3B   2    0.474230   -0.645095    0.187688    11.00000   -1.20000
AFIX   0
HKLF 4

REM  Esben4 CU2 in P1 #1
REM R1 =  0.0246 for    6003 Fo > 4sig(Fo)  and  0.0247 for all    6004 data
REM    174 parameters refined using    219 restraints

END

WGHT      0.0334      3.0428

REM Highest difference peak  1.368,  deepest hole -1.279,  1-sigma level  0.110
Q1    1  -0.1953  0.1984  0.0997  11.00000  0.05    1.37
Q2    1   0.1936 -0.2023 -0.0978  11.00000  0.05    1.34
Q3    1  -0.2494  0.1353  0.0723  11.00000  0.05    1.32
Q4    1   0.2596 -0.1424 -0.0754  11.00000  0.05    1.18
Q5    1  -0.0029  0.0957  0.0021  11.00000  0.05    0.78
Q6    1   0.0001 -0.0961 -0.0007  11.00000  0.05    0.73
Q7    1  -0.5621  0.6769 -0.1609  11.00000  0.05    0.62
Q8    1  -0.0702 -0.0387  0.0155  11.00000  0.05    0.57
Q9    1   0.2418 -0.2267  0.5803  11.00000  0.05    0.56
Q10   1  -0.4200 -0.2492  0.2024  11.00000  0.05    0.56
Q11   1  -0.2383  0.2384 -0.5774  11.00000  0.05    0.55
Q12   1   0.4290  0.2448 -0.3559  11.00000  0.05    0.55
Q13   1  -0.1034  0.1237 -0.3376  11.00000  0.05    0.54
Q14   1   0.1090 -0.1225  0.3413  11.00000  0.05    0.53
Q15   1   0.0436 -0.2809  0.1941  11.00000  0.05    0.51
Q16   1  -0.0407  0.2807 -0.1932  11.00000  0.05    0.51
Q17   1  -0.4652 -0.2048  0.2443  11.00000  0.05    0.51
Q18   1  -0.4272 -0.2367  0.3587  11.00000  0.05    0.50
Q19   1   0.4658  0.2017 -0.2389  11.00000  0.05    0.48
Q20   1   0.0788 -0.5140  0.1359  11.00000  0.05    0.48
;
_shelx_res_checksum              71286
_shelx_hkl_file
;
 -11  -6  -2 62474.1 1253.54  75
 -11  -6  -2 62967.0 1243.49  95
 -11  -6  -2 62995.9 1253.03  85
 -11  -6  -2 61863.0 1243.93  54
 -11  -6  -1 56616.3 1224.97  54
 -11  -6  -1 53109.5 1115.52  94
 -11  -6  -1 55775.5 1119.28  95
 -11  -6  -1 53525.5 1194.24  85
 -11  -6  -1 56512.7 1203.66  75
 -11  -6   0 121208. 1884.89  85
 -11  -6   0 122471. 1907.80  54
 -11  -6   0 118870. 1832.31  75
 -11  -6   1 31644.6 816.762  94
 -11  -5  -3 45786.3 1022.87  95
 -11  -5  -2 12723.4 542.310  85
 -11  -5  -2 13231.3 561.759  95
 -11  -5  -2 13153.3 552.910  75
 -11  -5  -1 19222.9 674.194  95
 -11  -5  -1 20299.1 725.852  75
 -11  -5  -1 18241.4 623.721  94
 -11  -5  -1 19071.6 715.987  85
 -11  -5   0 96233.7 1735.08  54
 -11  -5   0 93826.8 1665.00  94
 -11  -5   0 99582.2 1736.87  75
 -11  -5   0 97457.2 1547.77  95
 -11  -5   0 99841.2 1765.17  85
 -11  -5   1 104797. 1666.86  75
 -11  -5   1 102477. 1613.41  39
 -11  -5   1 103656. 1691.80  85
 -11  -5   1 104511. 1748.28  94
 -11  -5   2 62641.0 1202.83  94
 -11  -4  -3 111135. 1711.25  95
 -11  -4  -2 49197.0 1135.30  95
 -11  -4  -2 47082.2 1114.71  52
 -11  -4  -2 49274.4 1089.21  85
 -11  -4  -2 49247.6 1089.08  75
 -11  -4  -1 18952.8 706.128  75
 -11  -4  -1 18501.9 675.219  95
 -11  -4  -1 19083.1 714.241  85
 -11  -4   0 35319.9 892.957  95
 -11  -4   0 35492.1 1004.67  85
 -11  -4   0 33638.1 901.648  94
 -11  -4   0 35754.7 997.661  75
 -11  -4   1 75888.2 1357.61  39
 -11  -4   1 78255.7 1481.78  94
 -11  -4   1 79551.6 1486.39  75
 -11  -4   1 77357.3 1480.72  85
 -11  -4   2 127609. 1932.12  94
 -11  -4   2 124610. 1868.21  39
 -11  -3  -2 117707. 1817.02  52
 -11  -3  -2 118556. 1836.18  95
 -11  -3  -1 37875.1 984.957  85
 -11  -3  -1 38956.4 986.967  75
 -11  -3  -1 37494.4 1000.48  52
 -11  -3  -1 37590.7 964.818  95
 -11  -3   0 41956.0 1075.73  52
 -11  -3   0 41238.6 1066.16  85
 -11  -3   0 40691.1 962.232  95
 -11  -3   0 41158.0 1055.09  75
 -11  -3   1 43228.6 1064.24  85
 -11  -3   1 42982.3 1005.98  94
 -11  -3   1 43386.5 1029.41  52
 -11  -3   1 44729.5 1080.03  75
 -11  -3   2 97697.9 1611.20  94
 -11  -3   2 96225.5 1538.40  75
 -11  -3   2 92568.5 1508.81  85
 -11  -3   2 94234.6 1536.10  39
 -11  -2  -1 108602. 1673.27  95
 -11  -2  -1 109368. 1722.58  52
 -11  -2   0 57621.3 1193.43  75
 -11  -2   0 57420.8 1189.76  52
 -11  -2   0 57514.5 1200.57  85
 -11  -2   1 32817.8 871.691  75
 -11  -2   1 32265.5 865.055  85
 -11  -2   1 31816.1 808.005  52
 -11  -2   2 34579.5 834.108  75
 -10  -8  -4 34528.5 928.604  95
 -10  -8  -4 33480.9 848.963  85
 -10  -8  -3 71991.2 1506.38  95
 -10  -8  -3 75699.0 1473.91  54
 -10  -8  -3 69799.5 1473.22  75
 -10  -8  -3 70947.3 1477.94  85
 -10  -8  -3 71445.3 1356.06  37
 -10  -8  -2 70507.0 1515.97  75
 -10  -8  -2 70568.7 1258.76  37
 -10  -8  -2 72621.1 1518.94  95
 -10  -8  -2 71234.3 1554.42  85
 -10  -8  -1 60446.8 1423.82  54
 -10  -8  -1 56417.0 1288.25  75
 -10  -8  -1 56828.7 1251.81  95
 -10  -8  -1 57304.9 1352.48  85
 -10  -8   0 16222.8 588.832  75
 -10  -8   0 17562.2 658.936  85
 -10  -8   0 16941.9 650.103  39
 -10  -8   0 18557.8 725.007  54
 -10  -8   1 32679.2 911.001  39
 -10  -8   1 34281.1 875.770  54
 -10  -7  -5 34811.9 866.217  86
 -10  -7  -5 36220.9 958.176  37
 -10  -7  -5 38135.3 930.974  95
 -10  -7  -4 13110.5 548.186  54
 -10  -7  -4 11795.3 499.920  86
 -10  -7  -4 13026.6 570.913  85
 -10  -7  -4 12859.8 619.048  95
 -10  -7  -4 13137.5 598.658  37
 -10  -7  -4 13520.6 607.468  75
 -10  -7  -3 55929.7 1443.41  95
 -10  -7  -3 58405.9 1427.53  54
 -10  -7  -3 55891.3 1414.96  75
 -10  -7  -3 57181.8 1328.70  37
 -10  -7  -3 56426.9 1419.97  85
 -10  -7  -2 49993.8 1396.58  85
 -10  -7  -2 49473.6 1180.44  37
 -10  -7  -2 51096.7 1389.98  95
 -10  -7  -2 49689.7 1369.95  75
 -10  -7  -2 50615.6 1422.16  54
 -10  -7  -1 196544. 3016.50  75
 -10  -7  -1 196062. 2811.84  39
 -10  -7  -1 195952. 2962.09  95
 -10  -7  -1 196933. 3164.00  54
 -10  -7  -1 192691. 3065.25  85
 -10  -7   0 63985.1 1602.28  54
 -10  -7   0 61419.3 1367.36  95
 -10  -7   0 62447.1 1455.83  75
 -10  -7   0 60518.2 1494.18  39
 -10  -7   0 63465.7 1528.86  85
 -10  -7   1 21378.8 770.189  85
 -10  -7   1 19650.7 692.175  75
 -10  -7   1 20554.9 835.856  39
 -10  -7   1 21239.0 817.490  54
 -10  -7   2 41152.9 1020.05  94
 -10  -7   2 40733.1 1135.98  39
 -10  -7   2 43229.9 993.910  54
 -10  -7   3 85180.4 1516.20  39
 -10  -6  -6 68268.3 1234.45  86
 -10  -6  -6 69873.5 1284.82  37
 -10  -6  -5 72872.2 1411.37  95
 -10  -6  -5 66858.8 1301.42  81
 -10  -6  -5 66454.1 1356.91  86
 -10  -6  -5 74116.0 1496.76  37
 -10  -6  -4 65037.9 1384.23  86
 -10  -6  -4 69263.2 1436.21  54
 -10  -6  -4 64114.5 1487.99  37
 -10  -6  -4 67954.7 1484.92  75
 -10  -6  -4 66192.0 1558.30  95
 -10  -6  -4 66671.7 1426.66  85
 -10  -6  -3 55801.3 1478.14  85
 -10  -6  -3 58355.7 1547.75  95
 -10  -6  -3 55337.7 1469.88  75
 -10  -6  -3 56179.9 1478.51  54
 -10  -6  -3 55589.1 1390.46  37
 -10  -6  -2 32756.6 1177.01  85
 -10  -6  -2 32652.0 1006.53  37
 -10  -6  -2 33982.6 1188.33  95
 -10  -6  -2 32499.1 1161.33  75
 -10  -6  -2 32917.4 1190.28  54
 -10  -6  -1 105255. 2207.08  75
 -10  -6  -1 104225. 2242.30  85
 -10  -6  -1 105056. 2296.40  54
 -10  -6  -1 106195. 2177.29  95
 -10  -6   0 168832. 2976.26  54
 -10  -6   0 163810. 2818.80  39
 -10  -6   0 165430. 2820.28  75
 -10  -6   0 171654. 2924.82  85
 -10  -6   0 168282. 2709.82  95
 -10  -6   1 51961.0 1393.94  85
 -10  -6   1 51261.4 1481.69  39
 -10  -6   1 50795.8 1328.12  75
 -10  -6   1 52114.4 1448.06  54
 -10  -6   2 17831.8 757.138  94
 -10  -6   2 18927.0 739.350  54
 -10  -6   2 17970.7 827.043  39
 -10  -6   2 17894.0 648.799  75
 -10  -6   2 17893.4 690.502  85
 -10  -6   3 43130.9 1193.90  39
 -10  -6   3 41742.7 1038.75  94
 -10  -6   4 69140.6 1313.76  39
 -10  -5  -6 62668.5 1220.83  37
 -10  -5  -6 59118.3 1149.12  81
 -10  -5  -6 61858.9 1185.22  86
 -10  -5  -5 78319.3 1589.03  37
 -10  -5  -5 76827.9 1517.76  86
 -10  -5  -5 78202.9 1499.13  81
 -10  -5  -5 80842.6 1510.27  95
 -10  -5  -4 107826. 2034.28  37
 -10  -5  -4 108655. 1874.31  81
 -10  -5  -4 109191. 1883.12  85
 -10  -5  -4 106501. 1906.49  75
 -10  -5  -4 109425. 2092.80  95
 -10  -5  -4 105333. 1910.61  86
 -10  -5  -3 80339.0 1883.61  95
 -10  -5  -3 82011.3 1613.60  86
 -10  -5  -3 80658.8 1823.03  85
 -10  -5  -3 77957.0 1810.86  54
 -10  -5  -3 82364.0 1761.18  37
 -10  -5  -3 80328.7 1823.60  75
 -10  -5  -2 45472.0 1240.15  37
 -10  -5  -2 49234.7 1502.97  54
 -10  -5  -2 48817.7 1479.68  85
 -10  -5  -2 49980.2 1496.26  95
 -10  -5  -2 49799.0 1482.96  75
 -10  -5  -1 16136.1 829.179  95
 -10  -5  -1 14773.8 829.484  54
 -10  -5  -1 14709.0 820.878  85
 -10  -5  -1 14696.4 806.739  75
 -10  -5   0 144054. 2685.97  75
 -10  -5   0 142004. 2569.84  95
 -10  -5   0 146559. 2764.90  85
 -10  -5   0 139623. 2616.75  39
 -10  -5   0 141729. 2765.38  54
 -10  -5   1 119260. 2314.17  75
 -10  -5   1 118105. 2445.29  39
 -10  -5   1 122142. 2395.88  85
 -10  -5   1 124191. 2442.94  54
 -10  -5   1 121319. 2128.52  95
 -10  -5   2 45955.8 1259.50  85
 -10  -5   2 44872.4 1210.98  75
 -10  -5   2 45807.2 1423.80  39
 -10  -5   2 47109.8 1289.89  54
 -10  -5   2 45148.9 1332.70  94
 -10  -5   3 26582.7 924.095  94
 -10  -5   3 27661.3 1020.62  39
 -10  -5   4 29959.8 936.688  39
 -10  -5   4 29627.3 815.280  94
 -10  -4  -6 32859.9 821.151  37
 -10  -4  -5 66234.9 1310.78  95
 -10  -4  -5 69392.9 1457.52  37
 -10  -4  -5 69045.3 1412.69  86
 -10  -4  -5 70886.2 1421.29  81
 -10  -4  -4 62698.6 1477.41  37
 -10  -4  -4 61378.3 1387.81  81
 -10  -4  -4 63068.4 1388.14  52
 -10  -4  -4 61166.4 1488.11  95
 -10  -4  -4 62563.2 1416.73  86
 -10  -4  -4 62430.0 1305.55  75
 -10  -4  -3 139695. 2459.56  85
 -10  -4  -3 145764. 2454.94  37
 -10  -4  -3 143544. 2627.41  95
 -10  -4  -3 142481. 2294.91  86
 -10  -4  -3 143295. 2269.43  81
 -10  -4  -3 140141. 2468.31  75
 -10  -4  -2 85935.2 1758.76  37
 -10  -4  -2 88637.5 2062.90  54
 -10  -4  -2 87941.1 2025.45  85
 -10  -4  -2 86416.3 2033.39  95
 -10  -4  -2 83113.8 1749.51  94
 -10  -4  -2 87962.4 2010.36  75
 -10  -4  -1 21054.8 972.030  75
 -10  -4  -1 19785.5 933.503  95
 -10  -4  -1 20825.2 988.913  54
 -10  -4  -1 21039.4 984.773  85
 -10  -4   0 22396.8 1023.66  54
 -10  -4   0 24142.1 995.232  95
 -10  -4   0 22788.7 953.897  39
 -10  -4   0 22105.4 999.170  75
 -10  -4   0 23328.4 1040.22  85
 -10  -4   1 101301. 2213.58  54
 -10  -4   1 96529.9 2168.06  94
 -10  -4   1 100679. 1985.63  95
 -10  -4   1 96919.8 2203.08  39
 -10  -4   1 102690. 2238.23  85
 -10  -4   1 104492. 2219.13  75
 -10  -4   2 124675. 2297.01  75
 -10  -4   2 125106. 2531.45  39
 -10  -4   2 123538. 2322.73  85
 -10  -4   2 126043. 2317.55  54
 -10  -4   2 121877. 2403.12  94
 -10  -4   3 71136.7 1769.53  39
 -10  -4   3 71516.1 1480.52  85
 -10  -4   3 74722.9 1705.80  94
 -10  -4   3 71416.7 1465.05  75
 -10  -4   4 43082.2 1127.52  94
 -10  -4   4 44457.2 1161.91  35
 -10  -4   4 42599.8 1208.66  39
 -10  -4   5 47809.3 1067.35  39
 -10  -4   5 45417.3 1056.25  35
 -10  -3  -5 61573.9 1264.50  86
 -10  -3  -5 60302.1 1128.31  95
 -10  -3  -5 60507.2 1257.83  81
 -10  -3  -5 61735.4 1294.47  37
 -10  -3  -4 30310.4 887.667  52
 -10  -3  -4 32097.2 992.762  95
 -10  -3  -4 31571.4 952.192  81
 -10  -3  -4 32256.9 959.021  86
 -10  -3  -4 31043.9 971.468  37
 -10  -3  -3 70753.7 1500.99  86
 -10  -3  -3 71029.4 1710.69  95
 -10  -3  -3 70623.0 1550.77  75
 -10  -3  -3 71901.5 1664.66  52
 -10  -3  -3 70881.6 1557.71  85
 -10  -3  -3 71001.7 1580.52  37
 -10  -3  -3 69784.7 1504.60  81
 -10  -3  -2 102456. 2139.29  75
 -10  -3  -2 104857. 2225.24  95
 -10  -3  -2 103835. 2162.25  85
 -10  -3  -2 100957. 1893.89  37
 -10  -3  -1 83033.2 1983.60  95
 -10  -3  -1 86310.3 2022.15  75
 -10  -3  -1 81807.4 1785.68  94
 -10  -3  -1 83419.4 2013.30  85
 -10  -3  -1 83249.0 2025.47  54
 -10  -3   0 34370.4 1266.06  85
 -10  -3   0 32551.0 1107.65  39
 -10  -3   0 35949.9 1230.96  95
 -10  -3   0 36048.2 1292.13  54
 -10  -3   0 33613.9 1241.80  75
 -10  -3   0 33000.7 1168.98  94
 -10  -3   1 36702.4 1266.30  54
 -10  -3   1 35500.2 1231.37  94
 -10  -3   1 34576.1 1218.00  39
 -10  -3   1 35006.2 1234.83  75
 -10  -3   1 33019.9 1218.43  85
 -10  -3   1 33742.9 1109.60  95
 -10  -3   2 134509. 2558.99  94
 -10  -3   2 137138. 2442.66  54
 -10  -3   2 136833. 2495.67  75
 -10  -3   2 136898. 2648.65  39
 -10  -3   2 136348. 2506.95  85
 -10  -3   3 110827. 2253.32  39
 -10  -3   3 108011. 2151.02  94
 -10  -3   3 105895. 1951.53  85
 -10  -3   3 107186. 1967.31  75
 -10  -3   4 94293.9 1741.14  35
 -10  -3   4 93382.2 1905.76  39
 -10  -3   4 93188.0 1826.40  94
 -10  -3   5 30920.8 833.579  94
 -10  -3   5 32676.4 914.304  39
 -10  -3   5 31380.9 868.117  35
 -10  -2  -4 32725.1 900.668  86
 -10  -2  -4 31247.6 810.188  52
 -10  -2  -4 33074.1 920.854  37
 -10  -2  -4 32419.1 912.177  95
 -10  -2  -4 32826.0 918.098  81
 -10  -2  -3 38210.6 1159.03  95
 -10  -2  -3 38705.2 1053.78  81
 -10  -2  -3 40172.8 1045.94  86
 -10  -2  -3 39505.7 1124.17  52
 -10  -2  -3 39948.2 1076.34  37
 -10  -2  -3 38463.4 973.836  75
 -10  -2  -3 37077.3 987.014  85
 -10  -2  -2 97566.4 2058.66  95
 -10  -2  -2 92708.4 1925.54  85
 -10  -2  -2 94582.5 1912.04  75
 -10  -2  -2 93640.3 1719.37  81
 -10  -2  -2 94389.0 1735.50  37
 -10  -2  -1 122153. 2399.24  95
 -10  -2  -1 127992. 2496.19  52
 -10  -2  -1 122538. 2401.49  85
 -10  -2  -1 118725. 2353.54  75
 -10  -2   0 118862. 2333.45  95
 -10  -2   0 115588. 2106.25  39
 -10  -2   0 118697. 2205.35  94
 -10  -2   0 122019. 2437.60  75
 -10  -2   1 17011.7 797.382  39
 -10  -2   1 16934.5 805.204  94
 -10  -2   1 15972.7 812.186  75
 -10  -2   1 16410.0 749.813  95
 -10  -2   1 17916.2 865.364  85
 -10  -2   2 74162.6 1767.91  94
 -10  -2   2 72463.9 1735.63  85
 -10  -2   2 73484.1 1751.16  75
 -10  -2   2 75596.9 1813.67  39
 -10  -2   3 119821. 2123.43  85
 -10  -2   3 121833. 2338.88  39
 -10  -2   3 115140. 2119.50  75
 -10  -2   3 119890. 2268.16  94
 -10  -2   4 130376. 2289.19  39
 -10  -2   4 126389. 1934.33  75
 -10  -2   4 130445. 2234.60  94
 -10  -2   5 54292.3 1237.85  92
 -10  -2   5 56462.0 1215.41  94
 -10  -2   5 55413.1 1241.14  39
 -10  -2   5 53561.0 1095.07  35
 -10  -1  -3 56680.9 1297.86  95
 -10  -1  -3 56260.5 1236.50  52
 -10  -1  -3 59008.9 1173.67  37
 -10  -1  -3 58534.1 1161.93  86
 -10  -1  -2 26165.0 937.205  95
 -10  -1  -2 26105.5 827.817  75
 -10  -1  -2 25769.6 917.893  52
 -10  -1  -2 28487.2 891.784  85
 -10  -1  -1 97806.9 1939.79  75
 -10  -1  -1 95090.3 2011.25  52
 -10  -1  -1 99326.9 1993.49  85
 -10  -1  -1 97455.6 2002.22  95
 -10  -1   0 194854. 3080.37  85
 -10  -1   0 189692. 3079.89  52
 -10  -1   0 188510. 3019.30  75
 -10  -1   0 188714. 2979.82  95
 -10  -1   1 92744.0 1855.49  39
 -10  -1   1 96278.3 1994.01  52
 -10  -1   1 91608.6 1830.40  94
 -10  -1   1 89597.4 1823.53  95
 -10  -1   1 97510.2 2034.88  75
 -10  -1   1 93306.3 2007.42  85
 -10  -1   2 28139.5 1014.88  75
 -10  -1   2 27504.4 850.316  95
 -10  -1   2 29074.0 966.842  52
 -10  -1   2 29911.7 1041.82  85
 -10  -1   2 28347.8 995.033  94
 -10  -1   2 30219.5 1036.75  39
 -10  -1   3 45640.0 1202.58  85
 -10  -1   3 44099.4 1207.72  75
 -10  -1   3 46194.4 1270.79  94
 -10  -1   3 44612.4 1273.01  39
 -10  -1   3 46220.1 1158.40  92
 -10  -1   4 85718.3 1538.32  75
 -10  -1   4 86483.3 1735.69  39
 -10  -1   4 89895.2 1647.70  92
 -10  -1   4 85942.4 1702.04  94
 -10  -1   5 82335.1 1477.89  92
 -10  -1   5 79707.9 1472.80  94
 -10  -1   5 81409.9 1505.17  39
 -10   0  -2 41487.0 1068.18  95
 -10   0  -2 42524.1 1058.94  52
 -10   0  -1 34610.4 1038.70  52
 -10   0  -1 33880.8 931.116  75
 -10   0  -1 33648.7 965.585  85
 -10   0  -1 33897.7 1026.23  95
 -10   0   0 102681. 1947.78  85
 -10   0   0 96721.4 1856.96  95
 -10   0   0 100629. 1883.06  75
 -10   0   0 96991.0 1907.27  52
 -10   0   1 155542. 2308.36  39
 -10   0   1 160421. 2533.35  52
 -10   0   1 163631. 2608.74  85
 -10   0   1 162627. 2589.17  75
 -10   0   1 163110. 2453.50  95
 -10   0   2 53017.5 1331.54  85
 -10   0   2 51045.4 1203.35  94
 -10   0   2 50697.6 1254.86  39
 -10   0   2 49667.2 1091.42  95
 -10   0   2 51687.4 1210.14  52
 -10   0   2 53942.6 1343.39  75
 -10   0   3 24098.8 804.918  85
 -10   0   3 24545.8 846.141  39
 -10   0   3 23420.4 802.896  94
 -10   0   3 24491.3 835.693  75
 -10   0   4 37843.3 919.840  75
 -10   0   4 38842.4 1023.77  39
 -10   0   4 40725.1 1037.56  94
 -10   0   4 37579.0 860.726  85
 -10   0   5 47139.3 1012.42  94
 -10   0   5 48099.2 1022.10  39
 -10   1  -1 13899.4 529.584  95
 -10   1  -1 13300.7 520.698  52
 -10   1   0 25863.5 767.470  85
 -10   1   0 25616.2 765.903  95
 -10   1   0 25412.5 776.220  52
 -10   1   0 25091.4 721.104  75
 -10   1   1 80715.4 1521.69  75
 -10   1   1 80725.3 1415.66  95
 -10   1   1 81957.5 1546.73  85
 -10   1   1 80290.1 1462.94  52
 -10   1   2 101806. 1746.64  75
 -10   1   2 98108.9 1715.52  85
 -10   1   2 98382.1 1535.32  52
 -10   1   2 97768.0 1568.94  39
 -10   1   3 62657.5 1231.49  39
 -10   1   3 61166.6 1243.54  75
 -10   1   3 61428.4 1202.61  85
 -10   1   4 25264.5 705.674  39
  -9 -10  -3 50024.1 1071.48  95
  -9 -10  -3 47173.1 1053.31  85
  -9 -10  -2 20939.1 677.728  85
  -9  -9  -6 24027.5 675.328  86
  -9  -9  -6 23924.9 692.630  37
  -9  -9  -5 31812.7 889.540  95
  -9  -9  -5 31423.8 849.989  86
  -9  -9  -5 32021.1 929.843  37
  -9  -9  -5 30163.6 795.399  85
  -9  -9  -5 30249.5 869.524  75
  -9  -9  -4 82892.4 1698.08  95
  -9  -9  -4 87736.6 1565.99  54
  -9  -9  -4 86791.7 1710.81  37
  -9  -9  -4 78810.4 1644.84  75
  -9  -9  -4 81822.0 1485.34  86
  -9  -9  -4 81960.3 1643.36  85
  -9  -9  -3 103710. 2005.30  95
  -9  -9  -3 102876. 1923.01  37
  -9  -9  -3 100792. 1984.31  85
  -9  -9  -3 108553. 2013.34  54
  -9  -9  -3 95751.7 1905.77  75
  -9  -9  -2 45340.3 1280.25  85
  -9  -9  -2 45708.8 1165.70  37
  -9  -9  -2 41553.8 1187.20  75
  -9  -9  -2 44390.8 1300.96  54
  -9  -9  -2 45452.8 1259.01  95
  -9  -9  -1 33334.8 1116.87  54
  -9  -9  -1 30247.5 947.106  75
  -9  -9  -1 30371.7 954.512  95
  -9  -9  -1 31734.8 851.216  37
  -9  -9  -1 33038.2 1050.98  85
  -9  -9   0 9433.96 445.869  95
  -9  -9   0 10792.8 535.205  85
  -9  -9   0 10721.4 592.083  54
  -9  -9   0 8744.78 426.190  75
  -9  -9   1 50420.7 1185.41  54
  -9  -8  -7 102959. 1619.30  86
  -9  -8  -7 109425. 1604.79  37
  -9  -8  -6 43759.1 996.134  95
  -9  -8  -6 41881.7 1036.24  81
  -9  -8  -6 45483.3 1143.53  37
  -9  -8  -6 42237.8 1093.91  86
  -9  -8  -5 29053.9 957.524  75
  -9  -8  -5 27112.8 851.186  81
  -9  -8  -5 27859.5 938.629  86
  -9  -8  -5 28694.7 966.477  95
  -9  -8  -5 28823.6 887.226  85
  -9  -8  -5 27558.9 981.483  37
  -9  -8  -4 39443.6 1235.79  75
  -9  -8  -4 38703.3 1138.40  86
  -9  -8  -4 39376.3 1269.97  95
  -9  -8  -4 38150.9 1209.02  85
  -9  -8  -4 42849.1 1215.94  54
  -9  -8  -4 42069.8 1286.83  37
  -9  -8  -3 56497.4 1599.79  95
  -9  -8  -3 57054.6 1543.79  37
  -9  -8  -3 54598.4 1562.71  85
  -9  -8  -3 56807.5 1589.05  54
  -9  -8  -3 52923.2 1304.90  86
  -9  -8  -2 80409.5 1944.41  95
  -9  -8  -2 80518.4 1918.23  75
  -9  -8  -2 80944.4 1828.82  37
  -9  -8  -2 83867.7 2063.76  54
  -9  -8  -2 79258.9 1960.04  85
  -9  -8  -1 52841.6 1536.03  85
  -9  -8  -1 51082.2 1472.28  95
  -9  -8  -1 51030.1 1459.81  75
  -9  -8  -1 51524.8 1318.00  37
  -9  -8  -1 50850.4 1595.05  54
  -9  -8   0 31310.2 1198.02  54
  -9  -8   0 32197.5 1129.95  85
  -9  -8   0 32977.8 1062.37  95
  -9  -8   0 31173.4 1047.61  75
  -9  -8   1 25037.0 991.010  54
  -9  -8   1 23775.3 865.526  85
  -9  -8   2 82516.4 1637.06  54
  -9  -7  -7 122902. 1925.12  37
  -9  -7  -7 124151. 1957.67  81
  -9  -7  -7 118050. 1930.90  86
  -9  -7  -6 72718.9 1614.49  86
  -9  -7  -6 74497.7 1473.05  95
  -9  -7  -6 76650.5 1666.68  37
  -9  -7  -6 70103.1 1552.76  81
  -9  -7  -5 39573.7 1182.02  75
  -9  -7  -5 42605.7 1166.03  85
  -9  -7  -5 38480.6 1162.74  81
  -9  -7  -5 42338.6 1278.68  95
  -9  -7  -5 40212.1 1245.84  86
  -9  -7  -5 43316.8 1335.60  37
  -9  -7  -4 17118.5 878.868  37
  -9  -7  -4 19146.4 857.962  86
  -9  -7  -4 17753.3 867.651  75
  -9  -7  -4 18149.6 773.558  81
  -9  -7  -4 18709.1 882.168  85
  -9  -7  -4 18891.1 923.518  95
  -9  -7  -4 20278.1 889.496  54
  -9  -7  -4 19251.7 804.507  74
  -9  -7  -3 39824.4 1409.68  54
  -9  -7  -3 38657.1 1395.82  95
  -9  -7  -3 38729.9 1376.34  85
  -9  -7  -3 39808.4 1382.31  75
  -9  -7  -3 39606.8 1221.91  86
  -9  -7  -3 38319.3 1336.27  37
  -9  -7  -2 70841.4 1957.17  85
  -9  -7  -2 69910.0 1926.51  95
  -9  -7  -2 67589.2 1867.10  75
  -9  -7  -2 67502.3 1966.36  54
  -9  -7  -2 66758.7 1764.44  37
  -9  -7  -1 127129. 2624.62  75
  -9  -7  -1 135439. 2786.70  85
  -9  -7  -1 125306. 2829.87  54
  -9  -7  -1 130620. 2667.96  95
  -9  -7  -1 131720. 2441.40  37
  -9  -7   0 76974.0 1869.21  95
  -9  -7   0 72703.0 2040.83  54
  -9  -7   0 73028.7 1922.74  85
  -9  -7   0 73855.8 1859.98  75
  -9  -7   1 39458.5 1164.24  95
  -9  -7   1 40263.5 1233.24  75
  -9  -7   1 40153.6 1300.42  85
  -9  -7   1 39594.5 1402.61  54
  -9  -7   2 54161.1 1486.44  54
  -9  -7   2 53368.5 1337.58  85
  -9  -7   3 87111.0 1632.72  94
  -9  -7   4 102604. 1868.32  39
  -9  -6  -7 39100.3 1065.51  86
  -9  -6  -7 40422.6 1056.34  37
  -9  -6  -7 38396.4 1058.46  81
  -9  -6  -6 109134. 2119.78  81
  -9  -6  -6 110817. 2158.16  37
  -9  -6  -6 110964. 2152.53  86
  -9  -6  -6 112906. 1949.96  95
  -9  -6  -5 85186.4 1958.36  86
  -9  -6  -5 84407.0 1853.78  74
  -9  -6  -5 83954.3 1903.89  81
  -9  -6  -5 83664.3 1922.35  95
  -9  -6  -5 88097.0 2020.42  37
  -9  -6  -5 84096.2 1809.65  75
  -9  -6  -4 46879.9 1520.34  95
  -9  -6  -4 42469.7 1372.98  86
  -9  -6  -4 45106.6 1479.68  37
  -9  -6  -4 46921.3 1379.21  81
  -9  -6  -4 44099.4 1409.75  85
  -9  -6  -4 43684.8 1416.41  75
  -9  -6  -4 45502.8 1336.86  74
  -9  -6  -4 46732.8 1429.09  54
  -9  -6  -3 53029.7 1654.02  75
  -9  -6  -3 47941.1 1601.37  54
  -9  -6  -3 47882.3 1431.75  86
  -9  -6  -3 50302.4 1649.30  95
  -9  -6  -3 44951.6 1540.29  85
  -9  -6  -3 49305.2 1572.30  37
  -9  -6  -2 21901.9 1102.88  72
  -9  -6  -2 23319.5 1110.04  75
  -9  -6  -2 23068.5 1118.30  95
  -9  -6  -2 22896.5 1119.43  85
  -9  -6  -2 23920.3 1053.76  37
  -9  -6  -2 22878.2 1150.59  54
  -9  -6  -1 194398. 3196.42  37
  -9  -6  -1 197322. 3537.06  95
  -9  -6  -1 197952. 3745.10  54
  -9  -6  -1 196501. 3601.44  85
  -9  -6  -1 173960. 3528.84  72
  -9  -6  -1 221099. 3697.07  75
  -9  -6   0 120639. 2578.16  75
  -9  -6   0 119079. 2794.20  54
  -9  -6   0 119404. 2649.96  85
  -9  -6   0 119097. 2542.51  95
  -9  -6   1 92821.2 2336.30  54
  -9  -6   1 93534.1 2030.08  95
  -9  -6   1 93514.3 2210.91  85
  -9  -6   1 91747.4 2115.02  75
  -9  -6   2 42036.2 1404.21  54
  -9  -6   2 42367.4 1259.39  75
  -9  -6   2 42198.6 1315.80  85
  -9  -6   3 40175.8 1180.17  54
  -9  -6   4 98006.1 2068.99  39
  -9  -6   5 107174. 1813.85  39
  -9  -5  -7 2430.01 250.991  37
  -9  -5  -7 2556.41 263.243  86
  -9  -5  -7 2641.09 268.885  81
  -9  -5  -6 59322.0 1536.55  86
  -9  -5  -6 64399.8 1594.52  37
  -9  -5  -6 62083.6 1568.37  81
  -9  -5  -6 61347.6 1363.32  95
  -9  -5  -5 101735. 2231.34  37
  -9  -5  -5 101120. 2170.49  81
  -9  -5  -5 97716.8 2052.21  74
  -9  -5  -5 97958.6 2153.27  86
  -9  -5  -5 93016.8 1872.25  75
  -9  -5  -5 91102.2 2041.05  95
  -9  -5  -4 182106. 3262.92  95
  -9  -5  -4 176337. 2963.48  74
  -9  -5  -4 174989. 3041.68  85
  -9  -5  -4 173572. 3053.48  54
  -9  -5  -4 173416. 3067.01  75
  -9  -5  -4 173944. 3192.23  37
  -9  -5  -4 175270. 3058.01  81
  -9  -5  -3 120056. 2653.34  54
  -9  -5  -3 120555. 2687.23  95
  -9  -5  -3 120943. 2455.05  86
  -9  -5  -3 123932. 2396.74  81
  -9  -5  -3 116759. 2585.06  75
  -9  -5  -3 120024. 2640.70  85
  -9  -5  -3 118555. 2577.71  37
  -9  -5  -2 19229.1 954.718  37
  -9  -5  -2 19470.4 1017.79  72
  -9  -5  -2 19447.1 1065.57  54
  -9  -5  -2 20999.5 1085.91  85
  -9  -5  -2 20659.1 1071.99  95
  -9  -5  -2 20885.0 1057.25  75
  -9  -5  -1 64728.2 1931.16  95
  -9  -5  -1 61377.9 1922.53  72
  -9  -5  -1 65537.8 1717.53  37
  -9  -5  -1 66301.0 1946.53  75
  -9  -5  -1 67778.7 2015.57  85
  -9  -5  -1 66040.1 2051.17  54
  -9  -5   0 133523. 3023.76  54
  -9  -5   0 132233. 2899.59  85
  -9  -5   0 125441. 2890.82  72
  -9  -5   0 140677. 2854.96  95
  -9  -5   0 140552. 2893.67  75
  -9  -5   1 169643. 3225.04  85
  -9  -5   1 164240. 3321.98  54
  -9  -5   1 166064. 2968.75  95
  -9  -5   1 160147. 3363.36  72
  -9  -5   2 99357.1 2237.20  85
  -9  -5   2 99243.2 2169.18  75
  -9  -5   2 101244. 2338.10  54
  -9  -5   3 29238.7 1017.80  85
  -9  -5   3 27066.6 1027.70  54
  -9  -5   4 13677.0 687.942  94
  -9  -5   4 12223.2 743.252  39
  -9  -5   5 87004.5 1815.52  39
  -9  -4  -7 35863.7 1008.56  86
  -9  -4  -7 35316.7 989.271  37
  -9  -4  -7 36293.2 1020.37  81
  -9  -4  -6 30908.2 1074.85  37
  -9  -4  -6 30254.5 887.427  95
  -9  -4  -6 31438.6 1083.86  86
  -9  -4  -6 29446.2 1049.99  81
  -9  -4  -5 57299.2 1625.87  37
  -9  -4  -5 57167.8 1610.54  86
  -9  -4  -5 53571.3 1492.89  95
  -9  -4  -5 56300.1 1517.56  74
  -9  -4  -4 103121. 2179.06  85
  -9  -4  -4 104336. 2318.13  86
  -9  -4  -4 111851. 2441.34  37
  -9  -4  -4 109592. 2341.15  81
  -9  -4  -4 111439. 2243.17  74
  -9  -4  -4 102328. 2355.35  95
  -9  -4  -4 106161. 2257.30  54
  -9  -4  -4 111832. 2272.45  75
  -9  -4  -3 212082. 3624.85  37
  -9  -4  -3 219643. 3542.97  86
  -9  -4  -3 217188. 3735.51  54
  -9  -4  -3 224389. 3518.78  81
  -9  -4  -3 211456. 3650.71  85
  -9  -4  -3 207618. 3724.80  95
  -9  -4  -3 217818. 3664.51  75
  -9  -4  -2 124457. 2787.93  85
  -9  -4  -2 125135. 2590.07  37
  -9  -4  -2 125029. 2744.50  75
  -9  -4  -2 123534. 2413.94  86
  -9  -4  -2 122086. 2803.09  54
  -9  -4  -2 125464. 2810.97  95
  -9  -4  -1 43793.2 1617.60  85
  -9  -4  -1 46475.5 1521.85  39
  -9  -4  -1 45914.7 1613.68  75
  -9  -4  -1 47276.8 1638.49  95
  -9  -4  -1 45085.6 1676.24  54
  -9  -4  -1 46663.8 1419.61  37
  -9  -4   0 51550.4 1698.30  72
  -9  -4   0 52507.5 1775.50  85
  -9  -4   0 56588.7 1783.96  75
  -9  -4   0 55529.5 1859.98  54
  -9  -4   0 54870.6 1792.93  39
  -9  -4   0 55549.5 1740.47  95
  -9  -4   1 77121.8 2221.22  39
  -9  -4   1 72592.4 2092.45  72
  -9  -4   1 80491.3 2156.97  85
  -9  -4   1 78878.6 2083.94  75
  -9  -4   1 76621.4 2167.81  54
  -9  -4   1 76729.7 1947.95  95
  -9  -4   2 117543. 2572.32  54
  -9  -4   2 113832. 2498.52  85
  -9  -4   2 111748. 2423.63  75
  -9  -4   2 113427. 2744.18  39
  -9  -4   3 134249. 2483.10  75
  -9  -4   3 128848. 2875.82  39
  -9  -4   3 138390. 2561.56  54
  -9  -4   3 130184. 2489.95  85
  -9  -4   4 20442.6 922.038  94
  -9  -4   4 18443.8 955.350  39
  -9  -4   5 29123.9 957.821  94
  -9  -4   5 31168.0 1115.74  39
  -9  -4   6 102754. 1758.32  39
  -9  -3  -7 116795. 1877.66  81
  -9  -3  -7 119542. 1876.44  37
  -9  -3  -6 43370.4 1246.04  37
  -9  -3  -6 42608.6 1241.15  81
  -9  -3  -6 45085.5 1271.80  86
  -9  -3  -5 54236.0 1531.03  86
  -9  -3  -5 51408.6 1393.81  95
  -9  -3  -5 50845.5 1502.47  37
  -9  -3  -5 52310.6 1429.52  74
  -9  -3  -5 54537.1 1541.29  81
  -9  -3  -4 50019.7 1433.35  74
  -9  -3  -4 48958.2 1517.54  81
  -9  -3  -4 50339.7 1539.49  86
  -9  -3  -4 49100.5 1534.05  95
  -9  -3  -4 47973.5 1345.66  85
  -9  -3  -4 50395.0 1376.44  75
  -9  -3  -4 49946.8 1545.27  37
  -9  -3  -3 146839. 2949.84  95
  -9  -3  -3 141124. 2838.40  54
  -9  -3  -3 145827. 2846.96  37
  -9  -3  -3 138529. 2746.97  75
  -9  -3  -3 142738. 2745.25  86
  -9  -3  -3 140621. 2722.26  81
  -9  -3  -3 141692. 2790.71  85
  -9  -3  -2 153846. 2757.26  86
  -9  -3  -2 153216. 3027.54  75
  -9  -3  -2 150418. 2724.11  81
  -9  -3  -2 156212. 3128.84  95
  -9  -3  -2 146217. 3005.85  85
  -9  -3  -2 148602. 3079.12  54
  -9  -3  -2 144816. 2801.28  37
  -9  -3  -1 100921. 2514.86  54
  -9  -3  -1 94978.3 2380.08  75
  -9  -3  -1 97123.6 2446.70  85
  -9  -3  -1 94459.7 2379.71  95
  -9  -3  -1 100034. 2122.52  37
  -9  -3   0 40433.3 1485.26  39
  -9  -3   0 39998.2 1554.94  54
  -9  -3   0 37923.7 1495.89  85
  -9  -3   0 37944.8 1429.22  95
  -9  -3   0 40652.9 1519.25  75
  -9  -3   1 51340.0 1580.63  95
  -9  -3   1 50919.7 1724.11  54
  -9  -3   1 50338.9 1695.62  85
  -9  -3   1 51387.4 1763.92  39
  -9  -3   1 51546.3 1679.65  75
  -9  -3   2 75827.4 2024.34  54
  -9  -3   2 72667.8 1984.36  85
  -9  -3   2 74505.0 1984.25  75
  -9  -3   2 75477.9 1784.33  95
  -9  -3   2 75028.6 2180.11  39
  -9  -3   3 156826. 2774.69  54
  -9  -3   3 148755. 2776.55  85
  -9  -3   3 149254. 2777.54  75
  -9  -3   3 150356. 3145.09  39
  -9  -3   3 153372. 2996.68  94
  -9  -3   4 109165. 2351.43  94
  -9  -3   4 116078. 2589.08  39
  -9  -3   5 30122.3 1133.59  39
  -9  -3   5 30981.8 1069.18  94
  -9  -3   6 57620.1 1516.38  35
  -9  -3   6 58128.7 1226.84  94
  -9  -3   6 55607.3 1327.72  39
  -9  -3   7 112045. 1889.33  35
  -9  -2  -6 114624. 2029.81  37
  -9  -2  -6 112220. 2011.72  86
  -9  -2  -6 109965. 1988.62  81
  -9  -2  -5 39918.7 1134.51  95
  -9  -2  -5 43966.6 1322.20  81
  -9  -2  -5 44798.2 1329.15  86
  -9  -2  -5 43539.3 1312.14  37
  -9  -2  -4 42802.7 1277.09  74
  -9  -2  -4 39294.5 1249.24  52
  -9  -2  -4 43004.6 1386.59  81
  -9  -2  -4 42584.8 1374.65  37
  -9  -2  -4 40275.8 1326.09  95
  -9  -2  -4 42301.5 1368.87  86
  -9  -2  -3 41834.8 1380.28  86
  -9  -2  -3 42225.2 1354.80  85
  -9  -2  -3 41302.5 1384.50  81
  -9  -2  -3 43285.4 1475.78  95
  -9  -2  -3 44231.1 1367.25  75
  -9  -2  -3 42474.6 1410.42  37
  -9  -2  -2 108390. 2480.80  85
  -9  -2  -2 109509. 2308.16  81
  -9  -2  -2 106616. 2255.17  86
  -9  -2  -2 112080. 2354.80  37
  -9  -2  -2 112668. 2479.68  75
  -9  -2  -2 114746. 2581.27  95
  -9  -2  -1 144117. 2984.49  85
  -9  -2  -1 142884. 2960.72  95
  -9  -2  -1 138076. 2658.95  94
  -9  -2  -1 144607. 3025.72  54
  -9  -2  -1 138906. 2906.75  75
  -9  -2   0 82605.1 2101.29  94
  -9  -2   0 87239.6 2299.73  54
  -9  -2   0 86844.1 2246.21  75
  -9  -2   0 85734.9 2188.37  95
  -9  -2   0 84874.5 2253.27  85
  -9  -2   0 79955.3 2071.54  39
  -9  -2   1 45497.8 1606.17  85
  -9  -2   1 46486.8 1594.90  75
  -9  -2   1 45716.8 1559.89  94
  -9  -2   1 43282.4 1570.62  39
  -9  -2   1 47941.3 1532.84  95
  -9  -2   1 46620.7 1612.51  54
  -9  -2   2 72248.0 1937.09  54
  -9  -2   2 68851.2 1924.11  75
  -9  -2   2 71053.8 1967.57  85
  -9  -2   2 71053.6 1986.60  94
  -9  -2   2 72357.7 2092.12  39
  -9  -2   2 69525.0 1733.72  95
  -9  -2   3 114885. 2658.88  39
  -9  -2   3 111504. 2385.49  75
  -9  -2   3 115365. 2444.62  35
  -9  -2   3 114732. 2293.91  54
  -9  -2   3 112041. 2503.91  94
  -9  -2   3 107799. 2349.62  85
  -9  -2   4 199126. 3487.24  39
  -9  -2   4 192865. 3358.34  35
  -9  -2   4 194876. 2998.25  85
  -9  -2   4 185433. 3263.69  94
  -9  -2   4 190021. 3012.48  75
  -9  -2   5 92905.2 2098.32  39
  -9  -2   5 92699.0 2007.43  94
  -9  -2   5 91051.8 2125.01  35
  -9  -2   6 26180.0 903.866  39
  -9  -2   6 26751.5 1008.79  35
  -9  -2   6 26288.4 869.523  94
  -9  -2   7 40500.3 1088.04  35
  -9  -2   7 45679.8 1085.74  92
  -9  -1  -6 122703. 1893.57  86
  -9  -1  -6 116826. 1862.89  37
  -9  -1  -6 122308. 1879.53  81
  -9  -1  -5 111149. 2050.65  86
  -9  -1  -5 108260. 2034.46  37
  -9  -1  -5 110998. 2057.24  81
  -9  -1  -4 35063.1 1176.50  86
  -9  -1  -4 34634.0 1136.49  95
  -9  -1  -4 35401.2 1194.73  81
  -9  -1  -4 35297.7 1089.81  52
  -9  -1  -4 35986.0 1197.17  37
  -9  -1  -3 27879.4 1102.23  52
  -9  -1  -3 28092.4 1083.83  37
  -9  -1  -3 27161.8 988.967  85
  -9  -1  -3 27897.6 1098.01  81
  -9  -1  -3 26415.6 1098.42  95
  -9  -1  -3 27903.6 1074.88  86
  -9  -1  -2 23175.2 1032.37  85
  -9  -1  -2 24937.0 1114.48  52
  -9  -1  -2 23991.5 982.441  86
  -9  -1  -2 22993.3 1001.60  75
  -9  -1  -2 24167.2 994.432  37
  -9  -1  -2 21975.8 969.683  81
  -9  -1  -2 24354.0 1101.57  95
  -9  -1  -1 141278. 2867.36  95
  -9  -1  -1 131777. 2741.97  75
  -9  -1  -1 135282. 2799.46  85
  -9  -1  -1 136727. 2504.30  81
  -9  -1   0 227510. 3888.88  85
  -9  -1   0 226425. 3574.24  94
  -9  -1   0 223528. 3773.74  95
  -9  -1   0 224898. 3589.01  39
  -9  -1   0 219515. 3799.65  75
  -9  -1   1 85980.6 2096.61  95
  -9  -1   1 86276.7 2223.58  85
  -9  -1   1 88517.5 2200.40  39
  -9  -1   1 81900.7 2088.26  94
  -9  -1   1 90851.3 2266.86  75
  -9  -1   2 70026.5 1938.67  85
  -9  -1   2 71316.6 1948.39  94
  -9  -1   2 67790.4 1712.55  95
  -9  -1   2 71096.1 1945.06  75
  -9  -1   2 72130.5 2015.05  39
  -9  -1   3 42395.6 1513.38  39
  -9  -1   3 44018.4 1423.61  85
  -9  -1   3 41688.6 1401.67  75
  -9  -1   3 44352.3 1488.39  94
  -9  -1   4 110335. 2141.63  85
  -9  -1   4 112741. 2388.59  94
  -9  -1   4 109214. 2269.53  35
  -9  -1   4 105470. 2153.19  75
  -9  -1   4 106196. 2403.30  39
  -9  -1   5 208186. 3237.72  94
  -9  -1   5 204413. 3271.79  39
  -9  -1   6 76533.7 1709.80  92
  -9  -1   6 76824.8 1726.22  35
  -9  -1   6 77220.2 1626.49  94
  -9  -1   6 78805.8 1649.04  39
  -9  -1   7 11638.3 546.616  35
  -9  -1   7 12586.9 559.342  92
  -9   0  -5 115515. 1872.41  86
  -9   0  -5 117171. 1881.81  37
  -9   0  -4 55575.1 1394.50  81
  -9   0  -4 54208.0 1284.11  95
  -9   0  -4 52769.6 1200.14  52
  -9   0  -4 55851.2 1369.01  37
  -9   0  -4 53709.7 1351.08  86
  -9   0  -3 151728. 2575.40  37
  -9   0  -3 151975. 2582.26  86
  -9   0  -3 144518. 2557.81  52
  -9   0  -3 150464. 2661.85  95
  -9   0  -3 150877. 2631.80  81
  -9   0  -2 19160.1 829.549  37
  -9   0  -2 18802.7 908.111  52
  -9   0  -2 18499.1 856.020  81
  -9   0  -2 17858.5 802.469  86
  -9   0  -2 19334.7 824.188  75
  -9   0  -2 19275.7 926.238  95
  -9   0  -2 18432.8 837.905  85
  -9   0  -1 43750.8 1316.81  81
  -9   0  -1 45411.5 1460.11  85
  -9   0  -1 46643.7 1453.97  75
  -9   0  -1 46362.6 1511.90  95
  -9   0  -1 45224.1 1506.43  52
  -9   0   0 135564. 2475.12  39
  -9   0   0 137580. 2794.07  52
  -9   0   0 135045. 2721.57  95
  -9   0   0 136621. 2741.37  75
  -9   0   0 131447. 2735.43  85
  -9   0   1 142544. 2840.06  52
  -9   0   1 150414. 2924.21  75
  -9   0   1 149950. 2941.88  85
  -9   0   1 147835. 2712.05  94
  -9   0   1 147952. 2790.12  95
  -9   0   1 139723. 2725.22  39
  -9   0   2 140614. 2732.10  94
  -9   0   2 145874. 2849.04  39
  -9   0   2 147584. 2743.47  52
  -9   0   2 144613. 2833.01  85
  -9   0   2 139658. 2549.77  95
  -9   0   2 148982. 2873.50  75
  -9   0   3 63875.5 1799.33  39
  -9   0   3 66872.3 1782.78  94
  -9   0   3 66235.4 1739.60  85
  -9   0   3 65317.7 1745.53  75
  -9   0   3 60793.3 1537.01  52
  -9   0   4 36078.6 1147.15  85
  -9   0   4 37405.3 1272.58  94
  -9   0   4 37586.7 1225.50  92
  -9   0   4 39209.2 1333.77  39
  -9   0   4 35956.5 1183.89  75
  -9   0   5 53890.1 1471.89  39
  -9   0   5 52775.4 1270.34  75
  -9   0   5 56032.0 1468.44  92
  -9   0   5 52378.1 1443.18  94
  -9   0   5 53294.8 1371.69  35
  -9   0   6 164540. 2517.12  35
  -9   0   6 160434. 2483.56  39
  -9   0   6 161053. 2506.20  94
  -9   0   7 35710.2 847.285  94
  -9   0   7 37050.7 954.588  92
  -9   1  -4 73744.5 1361.39  86
  -9   1  -4 72878.7 1337.81  37
  -9   1  -3 125055. 2047.96  86
  -9   1  -3 122769. 1992.04  37
  -9   1  -3 120485. 2062.52  95
  -9   1  -2 87614.3 1899.04  95
  -9   1  -2 86627.8 1878.23  52
  -9   1  -2 86508.0 1658.06  37
  -9   1  -2 86487.6 1681.86  85
  -9   1  -2 82818.2 1674.70  86
  -9   1  -1 31751.9 1108.89  85
  -9   1  -1 34132.3 1199.73  52
  -9   1  -1 33510.6 1088.24  75
  -9   1  -1 32896.9 1172.34  95
  -9   1   0 64364.5 1715.57  85
  -9   1   0 65621.6 1745.76  52
  -9   1   0 68001.4 1720.92  75
  -9   1   0 69579.8 1777.19  95
  -9   1   1 132252. 2567.32  52
  -9   1   1 125372. 2539.93  85
  -9   1   1 127743. 2456.03  95
  -9   1   1 124714. 2360.04  39
  -9   1   1 129556. 2555.53  75
  -9   1   2 99549.7 2184.33  75
  -9   1   2 101834. 2026.67  95
  -9   1   2 97916.0 2136.43  39
  -9   1   2 97481.1 2165.85  85
  -9   1   2 100817. 2089.11  52
  -9   1   2 94518.1 1996.69  94
  -9   1   3 89126.1 1974.47  94
  -9   1   3 90874.6 2059.94  39
  -9   1   3 91928.0 1807.90  52
  -9   1   3 92193.6 2021.24  85
  -9   1   4 41963.7 1193.01  85
  -9   1   4 42556.9 1145.28  92
  -9   1   4 42630.7 1280.64  94
  -9   1   4 40942.0 1226.14  75
  -9   1   4 44397.7 1342.10  39
  -9   1   5 8382.41 466.101  75
  -9   1   5 7494.45 491.974  39
  -9   1   5 7093.92 481.897  94
  -9   1   5 7420.83 452.315  92
  -9   1   6 127991. 2027.88  39
  -9   1   6 128565. 2024.70  92
  -9   1   6 126684. 2062.66  94
  -9   2  -2 165977. 2396.91  52
  -9   2  -2 167222. 2417.41  95
  -9   2  -1 66641.2 1396.41  85
  -9   2  -1 65578.4 1267.13  75
  -9   2  -1 67616.7 1527.76  95
  -9   2  -1 68895.8 1546.03  52
  -9   2   0 20364.5 836.703  52
  -9   2   0 19537.4 817.632  95
  -9   2   0 20093.5 780.285  75
  -9   2   0 20049.2 813.742  85
  -9   2   1 43030.4 1238.75  52
  -9   2   1 43815.0 1234.20  95
  -9   2   1 42162.0 1230.90  75
  -9   2   1 44527.1 1292.01  85
  -9   2   1 40484.1 1088.96  39
  -9   2   2 48172.9 1218.79  95
  -9   2   2 48477.4 1354.65  85
  -9   2   2 48937.6 1350.41  75
  -9   2   2 46288.5 1229.85  52
  -9   2   2 48206.5 1289.44  39
  -9   2   2 48925.4 1155.18  94
  -9   2   3 129952. 2312.51  39
  -9   2   3 128261. 2270.76  85
  -9   2   3 127620. 1996.79  52
  -9   2   3 132232. 2338.27  75
  -9   2   3 127337. 2133.43  94
  -9   2   4 98537.5 1864.02  75
  -9   2   4 100402. 1914.50  39
  -9   2   4 100162. 1797.10  85
  -9   2   4 103785. 1897.55  94
  -9   2   5 19918.3 669.406  75
  -9   2   5 19376.8 722.334  94
  -9   2   5 20518.2 745.327  39
  -9   2   6 21153.6 636.617  39
  -9   2   6 22415.1 693.788  94
  -9   3   0 63362.5 1246.43  52
  -9   3   0 59342.8 1207.66  95
  -9   3   1 35593.4 956.552  85
  -9   3   1 34760.0 900.050  75
  -9   3   1 35618.4 915.265  95
  -9   3   1 37167.0 940.045  52
  -9   3   2 30136.6 789.328  52
  -9   3   2 28357.6 873.212  85
  -9   3   2 30068.6 881.699  75
  -9   3   2 29622.8 772.197  95
  -9   3   2 29798.6 801.808  39
  -9   3   2 28105.2 905.849  80
  -9   3   3 34415.2 914.993  39
  -9   3   3 35774.2 947.180  85
  -9   3   3 36358.8 972.403  75
  -9   3   4 106508. 1719.08  39
  -9   3   4 107647. 1701.82  75
  -8 -10  -6 63696.6 1234.23  86
  -8 -10  -6 65550.9 1238.09  37
  -8 -10  -5 45861.4 1097.46  86
  -8 -10  -5 44748.4 1103.11  95
  -8 -10  -5 46989.3 1162.66  37
  -8 -10  -4 72832.1 1452.02  86
  -8 -10  -4 78663.9 1479.10  54
  -8 -10  -4 75430.9 1622.36  37
  -8 -10  -4 76282.1 1623.54  95
  -8 -10  -3 49995.2 1320.26  95
  -8 -10  -3 46794.7 1269.22  37
  -8 -10  -3 50107.6 1301.03  54
  -8 -10  -3 46466.6 1055.88  86
  -8 -10  -2 31404.2 1023.88  95
  -8 -10  -2 33419.3 1018.49  37
  -8 -10  -1 57196.1 1316.71  95
  -8 -10  -1 61529.5 1298.17  37
  -8 -10   0 79795.1 1456.17  85
  -8  -9  -7 20786.3 703.914  81
  -8  -9  -7 20489.8 599.885  46
  -8  -9  -7 20290.6 711.958  86
  -8  -9  -7 20628.8 674.691  37
  -8  -9  -6 31988.6 1018.76  86
  -8  -9  -6 33095.0 1033.15  37
  -8  -9  -6 30895.4 827.634  46
  -8  -9  -6 31540.9 961.172  81
  -8  -9  -6 33308.0 945.956  95
  -8  -9  -5 85745.2 1717.27  81
  -8  -9  -5 87581.5 1887.55  95
  -8  -9  -5 89422.4 1894.05  86
  -8  -9  -5 91093.0 1965.28  37
  -8  -9  -4 79094.4 1906.00  95
  -8  -9  -4 79105.4 1798.39  54
  -8  -9  -4 76914.1 1781.36  86
  -8  -9  -3 110359. 2344.26  37
  -8  -9  -3 104876. 2065.47  86
  -8  -9  -3 109372. 2358.86  95
  -8  -9  -2 53741.3 1593.26  95
  -8  -9  -2 56500.5 1604.38  37
  -8  -9  -1 27645.1 1035.28  37
  -8  -9  -1 25378.3 1030.21  95
  -8  -9   0 43327.1 1241.66  95
  -8  -9   1 86293.2 1693.15  85
  -8  -9   2 61422.8 1385.84  54
  -8  -8  -8 75999.1 1404.88  86
  -8  -8  -8 75295.2 1254.92  37
  -8  -8  -8 76582.1 1443.89  81
  -8  -8  -8 74006.2 1296.15  46
  -8  -8  -7 119907. 2071.02  37
  -8  -8  -7 114781. 1907.06  46
  -8  -8  -7 118864. 2134.30  81
  -8  -8  -7 117234. 2122.40  86
  -8  -8  -6 53536.4 1486.01  37
  -8  -8  -6 54998.6 1467.58  74
  -8  -8  -6 54333.1 1382.53  95
  -8  -8  -6 55351.0 1513.76  86
  -8  -8  -6 54076.8 1463.32  81
  -8  -8  -6 53438.2 1295.52  46
  -8  -8  -5 57876.8 1570.92  81
  -8  -8  -5 64252.6 1766.10  37
  -8  -8  -5 63694.7 1717.73  86
  -8  -8  -5 62359.5 1654.42  74
  -8  -8  -5 61012.3 1679.55  95
  -8  -8  -4 107065. 2317.76  54
  -8  -8  -4 97515.2 2229.45  86
  -8  -8  -4 93380.3 2021.39  81
  -8  -8  -4 104930. 2409.54  37
  -8  -8  -4 97947.2 2165.63  74
  -8  -8  -4 103638. 2382.46  95
  -8  -8  -3 47276.2 1591.03  37
  -8  -8  -3 43951.7 1372.52  74
  -8  -8  -3 45660.4 1582.11  95
  -8  -8  -3 42346.6 1386.97  86
  -8  -8  -2 143953. 2910.18  37
  -8  -8  -2 135605. 2506.10  86
  -8  -8  -2 139525. 2920.57  95
  -8  -8  -1 46849.3 1511.32  37
  -8  -8  -1 48612.7 1593.30  95
  -8  -8   0 16732.3 859.037  95
  -8  -8   0 16821.3 810.840  37
  -8  -8   1 46038.4 1297.79  75
  -8  -8   1 51262.4 1370.17  95
  -8  -8   3 73904.5 1529.74  54
  -8  -7  -8 37422.5 942.849  89
  -8  -7  -8 40257.9 983.794  37
  -8  -7  -8 38357.2 988.055  46
  -8  -7  -8 40194.2 1067.96  86
  -8  -7  -8 38302.4 1074.93  81
  -8  -7  -7 122352. 2317.76  81
  -8  -7  -7 125392. 2294.77  74
  -8  -7  -7 118741. 2023.62  89
  -8  -7  -7 123363. 2313.29  86
  -8  -7  -7 117626. 2094.48  46
  -8  -7  -7 124621. 2265.57  37
  -8  -7  -7 115626. 2106.15  77
  -8  -7  -6 98202.3 1960.97  46
  -8  -7  -6 99128.1 2218.63  86
  -8  -7  -6 102249. 2076.61  95
  -8  -7  -6 101699. 2194.42  74
  -8  -7  -6 97443.3 2172.25  81
  -8  -7  -6 105734. 2265.17  37
  -8  -7  -6 96075.3 1949.76  75
  -8  -7  -5 36309.9 1249.99  85
  -8  -7  -5 35691.4 1300.73  81
  -8  -7  -5 38067.4 1382.22  86
  -8  -7  -5 38095.7 1357.65  95
  -8  -7  -5 39313.3 1423.17  37
  -8  -7  -5 35913.9 1307.66  74
  -8  -7  -4 149737. 3067.68  37
  -8  -7  -4 144922. 2763.04  81
  -8  -7  -4 148347. 2919.67  54
  -8  -7  -4 145368. 2840.06  74
  -8  -7  -4 146001. 2918.50  86
  -8  -7  -4 138522. 2945.73  95
  -8  -7  -3 19892.6 1061.19  37
  -8  -7  -3 20042.6 895.950  81
  -8  -7  -3 20809.4 972.589  74
  -8  -7  -3 21596.2 1124.34  54
  -8  -7  -3 20532.9 1087.56  95
  -8  -7  -3 19628.5 969.915  86
  -8  -7  -2 97127.3 2158.92  86
  -8  -7  -2 94588.5 2384.83  37
  -8  -7  -1 99036.2 2348.35  37
  -8  -7  -1 105241. 2521.66  95
  -8  -7   0 38874.2 1313.42  37
  -8  -7   0 33626.4 1452.92  24
  -8  -7   0 37524.0 1400.78  95
  -8  -7   0 34140.3 1511.44  72
  -8  -7   1 40456.5 1329.78  95
  -8  -7   1 35927.0 1550.36  72
  -8  -7   1 37241.2 1525.75  24
  -8  -7   2 60497.2 1606.63  85
  -8  -7   3 82965.3 1886.42  54
  -8  -6  -9 42074.3 918.415  81
  -8  -6  -8 36265.3 1053.89  86
  -8  -6  -8 35444.5 976.445  37
  -8  -6  -8 35863.6 1077.67  81
  -8  -6  -8 32782.7 963.104  46
  -8  -6  -8 35338.3 989.237  89
  -8  -6  -8 33184.4 947.216  91
  -8  -6  -7 68028.4 1700.57  86
  -8  -6  -7 62887.2 1518.47  46
  -8  -6  -7 65868.1 1655.86  74
  -8  -6  -7 66018.8 1533.10  89
  -8  -6  -7 68704.5 1681.18  37
  -8  -6  -7 62934.8 1621.28  77
  -8  -6  -7 65440.9 1698.77  81
  -8  -6  -6 94065.8 1983.55  46
  -8  -6  -6 88635.0 2036.91  77
  -8  -6  -6 93729.4 2211.00  86
  -8  -6  -6 91164.7 2146.97  74
  -8  -6  -6 91727.0 2012.08  95
  -8  -6  -6 95259.4 2218.62  81
  -8  -6  -5 52990.5 1644.96  74
  -8  -6  -5 51839.1 1660.93  86
  -8  -6  -5 49869.6 1485.36  85
  -8  -6  -5 49168.5 1596.16  95
  -8  -6  -5 49687.4 1631.19  72
  -8  -6  -5 52204.2 1644.90  81
  -8  -6  -5 51836.9 1689.15  37
  -8  -6  -4 62907.8 1929.13  37
  -8  -6  -4 58448.5 1859.08  95
  -8  -6  -4 63600.3 1874.37  86
  -8  -6  -4 61829.8 1830.56  85
  -8  -6  -4 61435.4 1923.44  72
  -8  -6  -4 65130.4 1878.75  54
  -8  -6  -4 63230.6 1814.69  74
  -8  -6  -4 62228.2 1786.43  81
  -8  -6  -3 101314. 2521.56  37
  -8  -6  -3 104816. 2345.86  74
  -8  -6  -3 107298. 2433.58  86
  -8  -6  -3 106486. 2293.06  81
  -8  -6  -3 105043. 2603.49  95
  -8  -6  -3 99214.2 2539.42  54
  -8  -6  -3 97296.5 2557.89  72
  -8  -6  -2 30757.9 1418.87  54
  -8  -6  -2 30898.6 1368.33  95
  -8  -6  -2 32446.9 1219.26  86
  -8  -6  -2 29206.8 1385.46  72
  -8  -6  -2 31719.9 1332.77  37
  -8  -6  -1 146201. 3094.40  95
  -8  -6  -1 146806. 2922.17  37
  -8  -6  -1 139627. 3020.21  24
  -8  -6   0 77143.9 2230.31  24
  -8  -6   0 78400.9 2397.35  72
  -8  -6   1 47361.4 1532.92  75
  -8  -6   1 40793.7 1613.84  24
  -8  -6   1 48681.5 1528.48  95
  -8  -6   1 39639.3 1693.95  72
  -8  -6   2 96205.6 2587.48  24
  -8  -6   2 104413. 2222.64  75
  -8  -6   3 83533.2 2032.23  54
  -8  -6   3 77211.2 2250.07  24
  -8  -5  -9 77886.1 1295.26  81
  -8  -5  -9 76483.4 1307.77  89
  -8  -5  -8 32697.3 1031.97  81
  -8  -5  -8 30451.8 952.734  89
  -8  -5  -8 32061.6 999.190  86
  -8  -5  -8 33626.3 969.180  37
  -8  -5  -8 31004.6 902.431  91
  -8  -5  -7 17720.7 861.381  81
  -8  -5  -7 18508.5 801.257  46
  -8  -5  -7 16610.5 815.527  74
  -8  -5  -7 17987.3 799.120  89
  -8  -5  -7 16833.5 741.100  91
  -8  -5  -7 17693.1 846.765  86
  -8  -5  -7 17859.0 836.528  37
  -8  -5  -6 78232.1 1811.29  95
  -8  -5  -6 77450.0 1966.45  74
  -8  -5  -6 74410.8 1762.19  89
  -8  -5  -6 76522.6 1999.06  86
  -8  -5  -6 75395.0 1969.87  37
  -8  -5  -6 71531.7 1905.61  77
  -8  -5  -6 73530.2 1752.73  46
  -8  -5  -6 76570.0 2007.74  81
  -8  -5  -5 121568. 2550.56  77
  -8  -5  -5 121738. 2614.06  95
  -8  -5  -5 120192. 2675.68  86
  -8  -5  -5 117250. 2576.94  72
  -8  -5  -5 128621. 2728.19  81
  -8  -5  -5 126116. 2660.29  74
  -8  -5  -5 124835. 2745.57  37
  -8  -5  -5 123045. 2454.42  75
  -8  -5  -4 52924.0 1650.16  74
  -8  -5  -4 51789.7 1652.87  54
  -8  -5  -4 47972.3 1590.56  75
  -8  -5  -4 50105.4 1700.46  95
  -8  -5  -4 50007.8 1679.01  72
  -8  -5  -4 53243.4 1711.30  86
  -8  -5  -4 51650.0 1654.60  81
  -8  -5  -4 52665.0 1654.52  85
  -8  -5  -4 49638.3 1706.06  37
  -8  -5  -3 81302.3 2256.59  72
  -8  -5  -3 88869.3 2202.47  86
  -8  -5  -3 88365.2 2353.59  95
  -8  -5  -3 88393.3 2312.71  85
  -8  -5  -3 87191.5 2298.88  37
  -8  -5  -3 93321.3 2196.04  74
  -8  -5  -3 85170.4 2321.00  54
  -8  -5  -3 90879.5 2155.57  81
  -8  -5  -2 23007.4 1175.11  95
  -8  -5  -2 23910.9 1189.99  85
  -8  -5  -2 26551.2 1293.85  72
  -8  -5  -2 23524.6 1124.34  37
  -8  -5  -2 23006.4 1026.27  86
  -8  -5  -2 22091.0 1192.86  54
  -8  -5  -1 132931. 2906.54  95
  -8  -5  -1 128849. 2672.42  37
  -8  -5  -1 119253. 2951.83  72
  -8  -5  -1 115600. 2924.01  54
  -8  -5   0 255458. 4542.86  54
  -8  -5   0 247749. 4550.38  72
  -8  -5   0 267266. 4390.85  85
  -8  -5   0 240058. 4114.50  24
  -8  -5   0 263688. 4240.82  95
  -8  -5   1 158866. 3164.40  85
  -8  -5   1 157710. 3343.78  54
  -8  -5   1 149182. 3428.63  72
  -8  -5   1 158541. 3053.17  75
  -8  -5   1 147498. 3146.60  24
  -8  -5   1 153721. 2956.09  95
  -8  -5   2 81068.2 2217.89  54
  -8  -5   2 84209.6 2121.44  85
  -8  -5   2 83750.9 2030.52  75
  -8  -5   3 31663.1 1253.11  54
  -8  -5   3 29776.8 1465.26  72
  -8  -5   3 29913.3 1478.65  15
  -8  -5   4 44604.2 1756.02  72
  -8  -5   4 46153.0 1792.47  15
  -8  -5   6 149100. 2403.71  39
  -8  -4  -8 135129. 2244.88  81
  -8  -4  -8 128265. 2157.70  89
  -8  -4  -8 126123. 1955.40  91
  -8  -4  -8 136842. 2155.60  37
  -8  -4  -8 135763. 2204.39  86
  -8  -4  -7 43291.2 1322.82  37
  -8  -4  -7 42001.3 1336.93  81
  -8  -4  -7 41010.2 1251.08  89
  -8  -4  -7 41458.1 1321.93  86
  -8  -4  -7 41574.8 1312.75  74
  -8  -4  -6 22639.2 1042.25  37
  -8  -4  -6 21564.4 899.139  95
  -8  -4  -6 22291.1 1049.22  81
  -8  -4  -6 22798.0 1054.04  86
  -8  -4  -6 22539.2 1032.12  74
  -8  -4  -6 23268.6 966.824  89
  -8  -4  -6 22075.2 917.760  46
  -8  -4  -5 24616.1 1149.45  81
  -8  -4  -5 26082.2 1171.22  86
  -8  -4  -5 24059.0 1086.20  95
  -8  -4  -5 26701.9 1157.03  74
  -8  -4  -5 25446.0 1172.08  37
  -8  -4  -4 124588. 2675.15  74
  -8  -4  -4 131804. 2793.72  81
  -8  -4  -4 127923. 2666.30  72
  -8  -4  -4 130852. 2811.48  86
  -8  -4  -4 129828. 2671.57  75
  -8  -4  -4 126813. 2643.62  85
  -8  -4  -4 127791. 2820.50  95
  -8  -4  -4 134605. 2899.01  37
  -8  -4  -4 122708. 2654.32  54
  -8  -4  -3 157706. 3013.15  81
  -8  -4  -3 155214. 3106.41  75
  -8  -4  -3 155939. 3055.35  86
  -8  -4  -3 163368. 3286.36  95
  -8  -4  -3 158225. 3162.98  85
  -8  -4  -3 167927. 3054.97  74
  -8  -4  -3 148935. 3108.98  37
  -8  -4  -3 157520. 3113.72  72
  -8  -4  -3 150472. 3172.33  54
  -8  -4  -2 217540. 3911.98  85
  -8  -4  -2 213355. 3695.41  37
  -8  -4  -2 215918. 4011.34  54
  -8  -4  -2 215500. 3448.67  81
  -8  -4  -2 218699. 3552.66  86
  -8  -4  -2 207407. 3776.04  75
  -8  -4  -2 216788. 3926.48  95
  -8  -4  -2 218345. 3411.07  74
  -8  -4  -1 60077.5 1938.61  85
  -8  -4  -1 66384.4 1984.83  95
  -8  -4  -1 61092.5 1955.50  72
  -8  -4  -1 60828.7 1748.86  37
  -8  -4  -1 62476.6 2043.31  54
  -8  -4  -1 63164.2 1917.19  75
  -8  -4   0 71244.3 2017.08  95
  -8  -4   0 69410.4 2076.53  85
  -8  -4   0 68958.5 2145.14  54
  -8  -4   0 68613.8 2137.59  72
  -8  -4   1 166877. 3115.90  95
  -8  -4   1 175943. 3370.08  85
  -8  -4   1 169328. 3219.89  75
  -8  -4   1 169775. 3588.18  72
  -8  -4   2 128533. 3270.50  15
  -8  -4   2 135608. 2746.74  75
  -8  -4   2 138664. 2843.44  85
  -8  -4   2 130980. 3152.89  72
  -8  -4   2 133028. 2909.08  54
  -8  -4   3 141977. 3470.96  15
  -8  -4   3 153997. 2852.62  85
  -8  -4   3 155394. 2805.88  75
  -8  -4   3 150742. 2928.89  54
  -8  -4   3 138798. 3304.50  72
  -8  -4   4 20476.9 1240.18  15
  -8  -4   4 21723.9 1218.89  72
  -8  -4   5 30311.2 1104.97  94
  -8  -4   5 28267.0 1203.76  39
  -8  -4   6 83759.0 1864.62  39
  -8  -3  -8 71301.5 1452.86  81
  -8  -3  -8 72446.8 1414.16  37
  -8  -3  -8 71052.5 1436.48  86
  -8  -3  -8 70077.0 1448.15  89
  -8  -3  -7 79281.8 1829.74  74
  -8  -3  -7 82189.7 1869.39  81
  -8  -3  -7 79489.4 1816.06  37
  -8  -3  -7 79862.7 1843.69  86
  -8  -3  -7 81263.7 1793.65  89
  -8  -3  -6 106062. 2207.52  89
  -8  -3  -6 103281. 2331.23  86
  -8  -3  -6 102722. 2305.90  74
  -8  -3  -6 107394. 2391.63  81
  -8  -3  -6 107242. 2372.27  37
  -8  -3  -5 69126.1 1913.84  74
  -8  -3  -5 69842.6 1856.60  95
  -8  -3  -5 72515.1 2012.68  37
  -8  -3  -5 72112.3 2007.62  86
  -8  -3  -5 72296.5 2010.37  81
  -8  -3  -5 72615.6 1787.86  89
  -8  -3  -4 122075. 2612.51  74
  -8  -3  -4 120659. 2483.40  75
  -8  -3  -4 121317. 2696.43  95
  -8  -3  -4 121148. 2718.53  37
  -8  -3  -4 122041. 2492.32  85
  -8  -3  -4 118656. 2673.71  86
  -8  -3  -4 116135. 2532.45  54
  -8  -3  -4 120101. 2676.69  81
  -8  -3  -3 98686.4 2480.99  95
  -8  -3  -3 102522. 2303.17  74
  -8  -3  -3 90851.8 2211.26  25
  -8  -3  -3 97218.7 2334.97  86
  -8  -3  -3 98180.4 2416.33  37
  -8  -3  -3 99369.0 2344.50  81
  -8  -3  -3 99883.6 2461.16  54
  -8  -3  -3 98980.7 2385.63  85
  -8  -3  -3 101094. 2376.03  75
  -8  -3  -2 117230. 2657.70  75
  -8  -3  -2 112758. 2532.47  37
  -8  -3  -2 113606. 2418.57  81
  -8  -3  -2 110148. 2715.07  54
  -8  -3  -2 102278. 2404.87  25
  -8  -3  -2 110593. 2668.86  95
  -8  -3  -2 107584. 2608.63  85
  -8  -3  -2 112825. 2309.95  74
  -8  -3  -1 208889. 3766.67  95
  -8  -3  -1 201198. 3681.92  75
  -8  -3  -1 198111. 3373.68  37
  -8  -3  -1 205139. 3568.96  39
  -8  -3  -1 201873. 3865.82  54
  -8  -3  -1 198549. 3727.13  85
  -8  -3   0 54779.4 1864.74  54
  -8  -3   0 50262.1 1704.58  72
  -8  -3   0 59934.3 1888.43  85
  -8  -3   0 56602.9 1792.42  75
  -8  -3   0 53579.3 1725.89  95
  -8  -3   1 132953. 2831.79  75
  -8  -3   1 127606. 2909.46  54
  -8  -3   1 134836. 2737.29  95
  -8  -3   1 132461. 2882.76  85
  -8  -3   1 129234. 2909.14  72
  -8  -3   2 83387.0 2343.62  72
  -8  -3   2 84901.0 2151.23  75
  -8  -3   2 84034.8 2182.67  85
  -8  -3   2 86583.6 2253.93  54
  -8  -3   2 83199.7 1972.22  95
  -8  -3   3 128982. 2604.08  75
  -8  -3   3 120642. 3173.16  15
  -8  -3   3 132831. 2672.52  85
  -8  -3   3 124696. 2969.17  72
  -8  -3   3 126864. 2636.68  54
  -8  -3   4 68098.4 2318.67  15
  -8  -3   4 71342.3 2129.44  39
  -8  -3   4 69908.0 1946.01  94
  -8  -3   4 67497.4 2122.31  72
  -8  -3   5 49103.7 1656.93  39
  -8  -3   5 47826.4 1496.40  94
  -8  -3   5 44289.1 1663.16  72
  -8  -3   5 44262.7 1802.53  15
  -8  -3   6 53463.9 1603.34  27
  -8  -3   6 53213.0 1535.79  39
  -8  -3   7 98048.4 1934.53  92
  -8  -3   8 124813. 2061.00  35
  -8  -2  -8 46564.6 1002.07  81
  -8  -2  -8 46529.5 1011.45  86
  -8  -2  -8 46366.5 990.765  37
  -8  -2  -7 100749. 2010.20  37
  -8  -2  -7 103912. 2041.33  86
  -8  -2  -7 105996. 2056.85  81
  -8  -2  -7 107641. 2011.35  89
  -8  -2  -6 151982. 2807.81  74
  -8  -2  -6 158369. 2741.37  89
  -8  -2  -6 153233. 2864.90  86
  -8  -2  -6 153346. 2870.53  37
  -8  -2  -6 153759. 2867.14  81
  -8  -2  -5 69985.7 1848.60  25
  -8  -2  -5 85163.0 1952.19  89
  -8  -2  -5 73214.1 2000.88  14
  -8  -2  -5 81723.5 1954.77  95
  -8  -2  -5 84684.8 2156.30  81
  -8  -2  -5 86074.0 2166.57  86
  -8  -2  -5 81540.5 2127.75  37
  -8  -2  -5 80455.6 2059.48  74
  -8  -2  -4 95503.9 2356.43  86
  -8  -2  -4 88709.8 2252.60  95
  -8  -2  -4 82494.4 2136.66  25
  -8  -2  -4 95407.7 2349.31  81
  -8  -2  -4 87628.4 2175.09  74
  -8  -2  -4 93647.9 2343.44  37
  -8  -2  -3 136214. 2896.50  37
  -8  -2  -3 140558. 2880.45  86
  -8  -2  -3 141113. 3003.94  95
  -8  -2  -3 137477. 2782.43  75
  -8  -2  -3 141129. 2899.13  81
  -8  -2  -3 139618. 2832.23  85
  -8  -2  -3 142188. 2782.15  74
  -8  -2  -3 137960. 2928.91  54
  -8  -2  -2 56855.3 1680.39  86
  -8  -2  -2 57762.7 1866.90  95
  -8  -2  -2 59014.8 1842.59  85
  -8  -2  -2 59781.5 1619.93  74
  -8  -2  -2 55270.5 1702.14  37
  -8  -2  -2 52011.3 1738.24  25
  -8  -2  -2 59041.0 1715.68  81
  -8  -2  -2 56479.5 1780.59  75
  -8  -2  -2 60595.6 1922.06  54
  -8  -2  -1 199573. 3675.01  95
  -8  -2  -1 192246. 3226.74  81
  -8  -2  -1 195583. 3623.76  75
  -8  -2  -1 199624. 3781.16  54
  -8  -2  -1 200768. 3719.19  85
  -8  -2  -1 194786. 3299.28  37
  -8  -2   0 67333.9 2015.99  85
  -8  -2   0 66433.7 2047.70  54
  -8  -2   0 63456.1 1903.04  95
  -8  -2   0 68876.7 1998.95  75
  -8  -2   0 67926.1 1986.58  39
  -8  -2   1 52303.7 1819.16  39
  -8  -2   1 56974.1 1844.57  54
  -8  -2   1 57750.2 1839.95  85
  -8  -2   1 55760.6 1695.24  95
  -8  -2   1 56915.5 1800.59  75
  -8  -2   2 100094. 2389.13  75
  -8  -2   2 98809.5 2390.40  54
  -8  -2   2 99262.3 2194.40  95
  -8  -2   2 94319.3 2552.33  39
  -8  -2   2 98200.8 2390.71  85
  -8  -2   3 116704. 3036.96  15
  -8  -2   3 117597. 2853.20  39
  -8  -2   3 116784. 2656.00  94
  -8  -2   3 119499. 2561.93  85
  -8  -2   3 114727. 2512.94  75
  -8  -2   3 121138. 2522.63  54
  -8  -2   4 141706. 3099.29  39
  -8  -2   4 136308. 2596.12  85
  -8  -2   4 142923. 2662.94  75
  -8  -2   4 132707. 3267.54  15
  -8  -2   4 140417. 2913.87  94
  -8  -2   5 87259.9 2520.91  15
  -8  -2   5 84720.8 2112.99  94
  -8  -2   5 85000.5 2236.75  39
  -8  -2   6 59922.0 1669.48  39
  -8  -2   6 61877.8 1614.83  94
  -8  -2   7 52074.5 1271.89  39
  -8  -2   7 55719.5 1502.62  92
  -8  -2   7 54178.2 1594.09  35
  -8  -2   8 123162. 1934.13  92
  -8  -2   8 120883. 2144.46  35
  -8  -1  -7 64171.0 1417.31  37
  -8  -1  -7 65450.4 1396.70  81
  -8  -1  -7 64649.8 1417.66  86
  -8  -1  -6 155278. 2736.48  81
  -8  -1  -6 156449. 2722.30  74
  -8  -1  -6 155129. 2749.19  86
  -8  -1  -6 157516. 2775.03  37
  -8  -1  -5 100566. 2312.26  37
  -8  -1  -5 95407.2 2036.82  95
  -8  -1  -5 97687.1 2276.13  81
  -8  -1  -5 99618.8 2292.64  86
  -8  -1  -5 97683.3 2222.20  74
  -8  -1  -4 94149.7 2312.71  37
  -8  -1  -4 87678.1 2109.54  52
  -8  -1  -4 91319.5 2180.46  74
  -8  -1  -4 96490.6 2334.91  81
  -8  -1  -4 94645.7 2252.68  95
  -8  -1  -4 93101.9 2293.75  86
  -8  -1  -3 69985.1 2014.82  95
  -8  -1  -3 69538.4 1815.69  75
  -8  -1  -3 66529.2 1936.01  81
  -8  -1  -3 64664.9 1886.75  86
  -8  -1  -3 66539.6 1822.65  85
  -8  -1  -3 69628.2 1850.21  74
  -8  -1  -3 66112.9 1924.27  37
  -8  -1  -2 77818.9 2059.92  81
  -8  -1  -2 83251.5 2145.02  75
  -8  -1  -2 79920.5 2047.17  86
  -8  -1  -2 85812.1 1983.53  74
  -8  -1  -2 81989.6 2173.62  85
  -8  -1  -2 76560.1 2182.38  95
  -8  -1  -2 79334.9 2070.68  37
  -8  -1  -2 74855.4 2156.81  25
  -8  -1  -1 93638.7 2414.91  85
  -8  -1  -1 90100.3 2139.56  81
  -8  -1  -1 93731.4 2144.00  37
  -8  -1  -1 91525.5 2084.68  86
  -8  -1  -1 96175.9 2488.96  54
  -8  -1  -1 91261.5 2340.73  75
  -8  -1  -1 86191.5 2330.62  95
  -8  -1   0 169902. 3194.21  94
  -8  -1   0 171344. 3451.76  54
  -8  -1   0 174183. 3441.80  85
  -8  -1   0 181306. 3449.00  75
  -8  -1   0 180904. 3345.45  39
  -8  -1   0 174043. 3353.37  95
  -8  -1   1 53123.8 1767.57  54
  -8  -1   1 51616.5 1694.98  94
  -8  -1   1 54849.0 1779.42  75
  -8  -1   1 51229.5 1761.14  39
  -8  -1   1 54520.3 1693.26  95
  -8  -1   1 54038.6 1790.83  85
  -8  -1   2 58316.0 1819.80  75
  -8  -1   2 59862.1 1806.48  54
  -8  -1   2 57600.6 1816.48  94
  -8  -1   2 57277.4 1646.14  95
  -8  -1   2 60084.7 1961.26  39
  -8  -1   2 56577.5 1802.10  85
  -8  -1   3 125569. 2816.21  94
  -8  -1   3 135796. 3032.24  39
  -8  -1   3 131003. 2740.25  85
  -8  -1   3 138900. 2684.96  54
  -8  -1   3 128546. 2738.99  75
  -8  -1   4 117812. 2429.33  85
  -8  -1   4 119363. 2896.19  15
  -8  -1   4 113439. 2625.82  94
  -8  -1   4 124494. 2527.55  75
  -8  -1   4 123621. 2831.99  39
  -8  -1   5 228236. 3777.61  94
  -8  -1   5 224926. 4004.60  35
  -8  -1   5 222963. 4087.48  15
  -8  -1   5 231168. 3897.97  39
  -8  -1   6 80696.4 1951.34  39
  -8  -1   6 78976.1 1906.67  94
  -8  -1   6 77743.3 2113.69  35
  -8  -1   7 34280.5 1038.11  39
  -8  -1   7 33578.9 1239.07  35
  -8  -1   7 36334.7 1070.23  94
  -8  -1   7 34927.9 1199.91  92
  -8  -1   8 44849.8 1157.31  92
  -8  -1   8 44413.1 1239.60  35
  -8   0  -7 19495.5 613.291  37
  -8   0  -6 39604.6 1141.90  81
  -8   0  -6 41512.0 1183.33  86
  -8   0  -6 42089.7 1198.21  37
  -8   0  -5 112774. 2259.15  74
  -8   0  -5 113797. 2333.97  81
  -8   0  -5 110240. 2027.79  95
  -8   0  -5 117202. 2374.46  37
  -8   0  -5 113204. 2335.42  86
  -8   0  -4 111841. 2307.97  52
  -8   0  -4 117755. 2541.10  37
  -8   0  -4 115880. 2405.67  74
  -8   0  -4 115274. 2390.32  95
  -8   0  -4 115389. 2524.01  81
  -8   0  -4 121526. 2558.29  86
  -8   0  -3 97946.8 2123.52  85
  -8   0  -3 92561.2 2144.45  74
  -8   0  -3 96136.4 2316.10  86
  -8   0  -3 94196.0 2321.91  95
  -8   0  -3 95377.7 2297.65  37
  -8   0  -3 95791.7 2328.60  81
  -8   0  -3 94510.9 2288.41  52
  -8   0  -2 50204.4 1475.76  74
  -8   0  -2 48057.3 1598.09  81
  -8   0  -2 49960.0 1695.97  95
  -8   0  -2 51995.0 1653.72  85
  -8   0  -2 47076.9 1550.36  37
  -8   0  -2 51269.7 1725.58  52
  -8   0  -2 48137.1 1544.51  75
  -8   0  -2 48260.6 1569.06  86
  -8   0  -2 43698.6 1601.41  25
  -8   0  -2 40828.3 1408.22  68
  -8   0  -1 38817.5 1335.03  86
  -8   0  -1 40888.5 1493.08  75
  -8   0  -1 38795.5 1536.24  52
  -8   0  -1 40097.5 1513.67  85
  -8   0  -1 39787.8 1399.84  81
  -8   0  -1 36641.1 1489.61  25
  -8   0  -1 36144.7 1342.06  68
  -8   0  -1 39601.2 1511.06  95
  -8   0  -1 37887.2 1309.99  37
  -8   0   0 153571. 3178.84  85
  -8   0   0 155386. 3131.58  95
  -8   0   0 154693. 2980.88  39
  -8   0   0 159491. 2925.37  94
  -8   0   0 150341. 2779.19  81
  -8   0   0 156584. 3162.60  75
  -8   0   1 183079. 3436.96  39
  -8   0   1 181393. 3303.87  94
  -8   0   1 183094. 3490.50  85
  -8   0   1 160108. 3177.99  68
  -8   0   1 179062. 3430.52  75
  -8   0   1 164498. 3205.19  95
  -8   0   2 111944. 2668.47  39
  -8   0   2 110163. 2585.08  85
  -8   0   2 109563. 2576.41  75
  -8   0   2 103189. 2483.90  68
  -8   0   2 109026. 2547.83  94
  -8   0   2 108862. 2366.53  95
  -8   0   3 101836. 2406.19  75
  -8   0   3 104715. 2421.97  85
  -8   0   3 110741. 2667.05  39
  -8   0   3 108030. 2513.62  94
  -8   0   4 46723.7 1641.24  39
  -8   0   4 46310.5 1460.66  85
  -8   0   4 42399.9 1546.67  68
  -8   0   4 46894.2 1506.70  75
  -8   0   4 46472.1 1587.77  94
  -8   0   4 45915.3 1576.84  35
  -8   0   5 154831. 2982.74  94
  -8   0   5 151845. 2689.07  75
  -8   0   5 154094. 3065.27  35
  -8   0   5 155104. 3025.82  39
  -8   0   6 159121. 2861.05  94
  -8   0   6 158561. 2851.02  39
  -8   0   6 163829. 3007.33  92
  -8   0   7 78017.6 1628.43  39
  -8   0   7 80807.1 1727.33  94
  -8   0   7 81128.0 1925.04  35
  -8   0   7 81326.7 1872.22  92
  -8   0   8 23540.1 859.148  35
  -8   0   8 24100.5 845.476  92
  -8   1  -6 22253.2 709.463  37
  -8   1  -6 22402.5 697.157  86
  -8   1  -5 41551.5 1212.48  37
  -8   1  -5 41252.6 1196.87  86
  -8   1  -4 36822.8 1161.51  95
  -8   1  -4 36126.8 1234.87  86
  -8   1  -4 36679.6 1254.47  81
  -8   1  -4 34777.6 1096.24  52
  -8   1  -4 35624.8 1229.55  37
  -8   1  -3 155432. 2897.80  52
  -8   1  -3 162900. 2981.85  86
  -8   1  -3 160158. 2974.52  95
  -8   1  -3 162784. 3006.41  81
  -8   1  -3 157241. 2937.66  37
  -8   1  -2 78232.7 1947.57  85
  -8   1  -2 79078.1 2103.79  52
  -8   1  -2 78192.0 2090.92  95
  -8   1  -2 75965.2 1955.17  86
  -8   1  -2 80064.8 1877.84  75
  -8   1  -2 76860.1 1950.13  37
  -8   1  -2 77762.2 2023.58  81
  -8   1  -1 115712. 2366.36  37
  -8   1  -1 106200. 2570.62  25
  -8   1  -1 121829. 2741.98  52
  -8   1  -1 112920. 2480.44  81
  -8   1  -1 119477. 2542.86  75
  -8   1  -1 111320. 2362.89  86
  -8   1  -1 100089. 2386.43  68
  -8   1  -1 117176. 2655.57  95
  -8   1  -1 112007. 2560.87  85
  -8   1   0 68082.6 2020.16  52
  -8   1   0 72585.5 2050.86  85
  -8   1   0 64934.7 1988.01  25
  -8   1   0 71602.4 2019.55  95
  -8   1   0 67013.9 1952.68  75
  -8   1   0 71083.4 1850.10  39
  -8   1   0 60580.7 1841.63  68
  -8   1   1 120118. 2647.73  95
  -8   1   1 129537. 2604.97  94
  -8   1   1 123273. 2671.28  39
  -8   1   1 124150. 2763.68  52
  -8   1   1 128306. 2832.13  85
  -8   1   1 127089. 2791.15  75
  -8   1   2 155609. 3110.61  85
  -8   1   2 151098. 3093.53  39
  -8   1   2 145891. 2825.51  95
  -8   1   2 157445. 3108.98  75
  -8   1   2 141640. 3007.18  68
  -8   1   2 147872. 2947.55  94
  -8   1   2 148631. 2948.83  52
  -8   1   3 105187. 2431.93  94
  -8   1   3 106786. 2535.62  39
  -8   1   3 100805. 2394.27  75
  -8   1   3 100575. 2200.37  52
  -8   1   3 105289. 2417.76  85
  -8   1   4 97122.9 2367.06  39
  -8   1   4 93335.6 2265.61  94
  -8   1   4 94814.9 2157.37  85
  -8   1   4 97439.7 2178.66  35
  -8   1   4 95986.9 2228.83  75
  -8   1   4 96030.6 2217.17  92
  -8   1   5 27114.2 1122.63  35
  -8   1   5 27024.5 985.325  85
  -8   1   5 28531.2 1167.95  94
  -8   1   5 28881.0 1151.47  92
  -8   1   5 26225.5 1036.17  75
  -8   1   5 29334.0 1190.95  39
  -8   1   6 134608. 2569.15  92
  -8   1   6 131101. 2518.67  94
  -8   1   6 128172. 2559.50  35
  -8   1   6 137861. 2547.89  39
  -8   1   7 72157.7 1603.08  94
  -8   1   7 69544.0 1680.92  35
  -8   1   7 72351.8 1512.17  39
  -8   1   7 75736.1 1721.77  92
  -8   1   8 62928.6 1197.18  94
  -8   1   8 63876.1 1376.62  92
  -8   1   8 63117.1 1376.63  35
  -8   2  -5 28077.0 783.108  37
  -8   2  -4 33376.4 910.304  95
  -8   2  -4 34232.1 897.313  52
  -8   2  -4 37115.6 1086.18  37
  -8   2  -4 35481.9 1065.20  86
  -8   2  -3 119359. 2244.25  52
  -8   2  -3 114719. 2248.25  86
  -8   2  -3 118099. 2241.74  37
  -8   2  -3 119327. 2268.36  95
  -8   2  -2 95556.3 1945.35  85
  -8   2  -2 96632.2 2192.27  95
  -8   2  -2 90291.0 1971.66  37
  -8   2  -2 92455.0 2044.37  86
  -8   2  -2 93592.1 2153.45  52
  -8   2  -2 90633.4 1961.14  80
  -8   2  -1 114620. 2206.26  37
  -8   2  -1 109166. 2235.10  86
  -8   2  -1 117829. 2557.88  95
  -8   2  -1 109359. 2369.44  85
  -8   2  -1 112037. 2290.51  75
  -8   2  -1 117855. 2564.31  52
  -8   2   0 77817.6 2048.35  85
  -8   2   0 74599.7 2002.40  95
  -8   2   0 74544.2 2030.23  52
  -8   2   0 72300.5 1764.02  39
  -8   2   0 75906.5 1962.10  75
  -8   2   1 81527.6 2109.37  75
  -8   2   1 84287.3 2062.06  39
  -8   2   1 81288.4 2135.01  85
  -8   2   1 83646.3 2090.84  95
  -8   2   1 84699.2 2150.50  52
  -8   2   2 112741. 2509.50  39
  -8   2   2 114896. 2367.41  94
  -8   2   2 110132. 2404.89  52
  -8   2   2 110336. 2509.39  85
  -8   2   2 116383. 2562.49  75
  -8   2   2 112726. 2385.81  95
  -8   2   3 111745. 2250.50  52
  -8   2   3 114831. 2437.51  94
  -8   2   3 109433. 2180.76  95
  -8   2   3 115799. 2511.31  75
  -8   2   3 114887. 2490.33  85
  -8   2   3 116299. 2558.28  39
  -8   2   4 87054.0 2071.46  94
  -8   2   4 84320.0 2104.55  39
  -8   2   4 88101.8 1890.53  92
  -8   2   4 85077.2 2041.35  75
  -8   2   4 83245.1 1968.96  85
  -8   2   5 17957.5 880.074  94
  -8   2   5 18887.4 795.706  85
  -8   2   5 19572.2 872.609  75
  -8   2   5 17702.6 873.047  39
  -8   2   5 17169.3 797.002  92
  -8   2   6 56926.7 1510.59  94
  -8   2   6 61069.6 1365.11  75
  -8   2   6 59797.3 1504.44  92
  -8   2   6 59216.2 1499.37  39
  -8   2   7 66165.6 1474.02  92
  -8   2   7 67398.4 1369.03  39
  -8   2   7 67021.0 1474.22  94
  -8   2   8 96610.8 1611.68  92
  -8   3  -3 48577.1 1091.62  52
  -8   3  -3 48226.4 1086.97  95
  -8   3  -2 93675.4 1899.68  95
  -8   3  -2 97108.7 1733.57  37
  -8   3  -2 91751.4 1698.50  80
  -8   3  -2 93834.6 1899.46  52
  -8   3  -1 112660. 2205.13  80
  -8   3  -1 115192. 2294.46  95
  -8   3  -1 117785. 2319.75  52
  -8   3  -1 112527. 2108.21  85
  -8   3   0 102541. 2228.60  52
  -8   3   0 101913. 2199.54  95
  -8   3   0 96625.1 2194.11  80
  -8   3   0 97486.4 2118.76  85
  -8   3   0 96856.3 2018.00  75
  -8   3   1 55797.9 1499.12  39
  -8   3   1 57827.6 1618.88  75
  -8   3   1 61277.8 1668.77  95
  -8   3   1 59098.9 1654.06  85
  -8   3   1 58776.7 1639.11  52
  -8   3   2 24331.4 1013.23  39
  -8   3   2 22903.3 951.252  52
  -8   3   2 25204.4 1058.23  75
  -8   3   2 25786.8 1075.04  85
  -8   3   2 23935.9 967.409  95
  -8   3   3 99290.8 2184.59  75
  -8   3   3 103776. 2210.92  85
  -8   3   3 97908.2 1927.13  95
  -8   3   3 99653.8 2047.58  94
  -8   3   3 101771. 1971.60  52
  -8   3   3 99412.0 2199.20  39
  -8   3   4 88573.0 1967.26  75
  -8   3   4 90782.6 2039.51  39
  -8   3   4 90102.4 1957.78  94
  -8   3   4 89021.6 1915.80  85
  -8   3   5 75014.5 1557.71  85
  -8   3   5 74437.5 1709.43  94
  -8   3   5 74138.2 1732.37  39
  -8   3   5 75671.7 1674.97  75
  -8   3   6 39336.8 998.155  75
  -8   3   6 38539.2 1109.09  94
  -8   3   6 38839.9 1080.58  39
  -8   3   6 39887.8 1052.75  34
  -8   3   6 37124.7 975.064  92
  -8   3   7 40593.5 973.890  34
  -8   3   7 38538.8 919.807  92
  -8   3   7 37887.1 868.068  39
  -8   3   7 39574.0 999.404  94
  -8   4  -1 53261.0 1212.96  95
  -8   4  -1 50940.6 1120.47  80
  -8   4  -1 53441.9 1222.38  52
  -8   4   0 58752.7 1171.88  75
  -8   4   0 60748.9 1412.25  95
  -8   4   0 60805.4 1404.37  52
  -8   4   0 58445.6 1397.06  80
  -8   4   0 60896.5 1329.80  85
  -8   4   1 82987.0 1693.14  95
  -8   4   1 82017.5 1783.72  80
  -8   4   1 80519.4 1676.95  52
  -8   4   1 78577.8 1597.52  75
  -8   4   1 82484.8 1731.56  85
  -8   4   1 77785.5 1474.84  39
  -8   4   2 35402.6 1018.56  52
  -8   4   2 35399.8 1106.25  85
  -8   4   2 35369.1 1027.36  95
  -8   4   2 33727.6 1134.65  80
  -8   4   2 34117.7 1028.29  39
  -8   4   2 34363.9 1071.68  75
  -8   4   3 47083.2 1263.13  39
  -8   4   3 47327.4 1268.58  85
  -8   4   3 48446.8 1336.99  80
  -8   4   3 48116.8 1079.04  52
  -8   4   3 45647.1 1257.04  75
  -8   4   3 47851.1 1091.25  95
  -8   4   4 74824.4 1471.55  94
  -8   4   4 77275.8 1568.98  85
  -8   4   4 74374.1 1580.36  75
  -8   4   4 74284.3 1602.93  39
  -8   4   5 74025.5 1498.23  39
  -8   4   5 73033.0 1450.48  75
  -8   4   5 76226.9 1364.73  85
  -8   4   6 89458.1 1479.99  39
  -8   4   6 88402.7 1522.97  94
  -7 -11  -5 58756.9 1152.24  95
  -7 -11  -5 58758.8 1168.33  86
  -7 -11  -4 8050.07 405.443  86
  -7 -11  -4 7978.38 441.498  95
  -7 -11  -3 14351.9 619.102  95
  -7 -11  -3 15678.3 644.813  37
  -7 -11  -2 31560.1 905.289  95
  -7 -11  -2 33387.6 930.296  37
  -7 -10  -7 13212.8 549.077  81
  -7 -10  -7 13936.5 505.686  37
  -7 -10  -7 13852.0 574.582  86
  -7 -10  -7 12441.8 503.092  46
  -7 -10  -6 42186.3 1044.35  46
  -7 -10  -6 42437.2 1128.46  37
  -7 -10  -6 41402.2 1045.65  95
  -7 -10  -6 40513.5 1086.21  81
  -7 -10  -6 41363.8 1159.46  86
  -7 -10  -5 119235. 1963.47  46
  -7 -10  -5 114604. 2005.22  81
  -7 -10  -5 122201. 2261.03  37
  -7 -10  -5 116155. 2192.59  86
  -7 -10  -5 114600. 2158.08  95
  -7 -10  -4 64766.8 1678.82  37
  -7 -10  -4 61494.3 1557.78  86
  -7 -10  -3 22012.2 970.736  37
  -7 -10  -3 20985.2 853.856  86
  -7 -10  -2 34925.1 1228.63  37
  -7 -10  -2 34173.4 1019.09  86
  -7 -10  -1 33599.9 1144.58  37
  -7 -10   0 104013. 1918.82  95
  -7 -10   0 111863. 1988.83  37
  -7  -9  -8 54434.7 1252.35  81
  -7  -9  -8 57829.9 1238.57  86
  -7  -9  -8 54435.8 1131.85  89
  -7  -9  -8 55522.0 1214.66  46
  -7  -9  -7 18448.2 691.780  89
  -7  -9  -7 19040.3 750.412  37
  -7  -9  -7 20194.5 789.047  46
  -7  -9  -7 19254.7 809.480  81
  -7  -9  -7 19099.1 807.926  86
  -7  -9  -6 9005.04 604.250  86
  -7  -9  -6 9196.93 598.120  74
  -7  -9  -6 9024.30 553.530  95
  -7  -9  -6 8986.95 589.502  37
  -7  -9  -6 9788.53 576.700  46
  -7  -9  -6 10391.3 625.900  81
  -7  -9  -5 102260. 2278.59  86
  -7  -9  -5 101062. 2050.00  46
  -7  -9  -5 94166.3 2095.82  81
  -7  -9  -5 94393.3 2159.90  95
  -7  -9  -5 97690.8 2252.29  37
  -7  -9  -5 102177. 2245.01  74
  -7  -9  -4 160597. 3018.08  86
  -7  -9  -4 161070. 2682.61  46
  -7  -9  -4 163459. 3132.47  37
  -7  -9  -4 164357. 3015.28  74
  -7  -9  -4 152545. 2734.01  81
  -7  -9  -3 64917.0 1793.45  86
  -7  -9  -3 68729.4 1980.79  37
  -7  -9  -3 66367.1 1822.10  74
  -7  -9  -2 54110.8 1738.21  37
  -7  -9  -2 52145.6 1518.28  86
  -7  -9  -1 24681.0 1122.94  37
  -7  -9   0 76196.5 1906.69  37
  -7  -8  -9 35367.7 924.891  81
  -7  -8  -9 34897.1 894.884  89
  -7  -8  -9 34937.8 900.363  77
  -7  -8  -9 35519.5 924.014  46
  -7  -8  -9 36664.4 850.025  86
  -7  -8  -8 113752. 2040.99  77
  -7  -8  -8 121299. 1947.90  37
  -7  -8  -8 121580. 2201.12  81
  -7  -8  -8 114450. 2032.62  89
  -7  -8  -8 119756. 2128.49  46
  -7  -8  -8 116815. 2107.25  86
  -7  -8  -7 93130.8 1973.60  37
  -7  -8  -7 92707.7 2078.48  81
  -7  -8  -7 93926.4 2040.21  74
  -7  -8  -7 87052.3 1846.86  77
  -7  -8  -7 93409.6 1919.23  89
  -7  -8  -7 89172.0 1961.77  46
  -7  -8  -7 94791.8 2078.74  86
  -7  -8  -6 23438.1 1053.39  81
  -7  -8  -6 21580.9 942.705  95
  -7  -8  -6 24178.0 1065.80  74
  -7  -8  -6 22482.5 1040.79  86
  -7  -8  -6 24217.1 1068.34  37
  -7  -8  -6 22670.1 912.980  89
  -7  -8  -6 23028.6 977.537  46
  -7  -8  -5 15066.4 860.427  81
  -7  -8  -5 16333.9 917.692  74
  -7  -8  -5 14037.1 839.588  95
  -7  -8  -5 15770.6 817.137  46
  -7  -8  -5 16295.1 918.114  86
  -7  -8  -5 13573.1 825.436  72
  -7  -8  -5 15735.6 912.187  37
  -7  -8  -4 123046. 2697.85  74
  -7  -8  -4 108925. 2424.94  81
  -7  -8  -4 123089. 2790.18  37
  -7  -8  -4 101942. 2511.48  72
  -7  -8  -4 122456. 2400.97  46
  -7  -8  -4 114781. 2635.96  86
  -7  -8  -3 210859. 3665.15  74
  -7  -8  -3 204103. 3804.68  37
  -7  -8  -3 183464. 3560.42  72
  -7  -8  -3 194084. 3528.03  86
  -7  -8  -3 193821. 3232.93  81
  -7  -8  -2 141331. 2944.54  70
  -7  -8  -2 164000. 3064.61  74
  -7  -8  -2 157694. 2972.48  86
  -7  -8  -2 145793. 3004.04  18
  -7  -8  -2 152683. 3245.56  37
  -7  -8  -2 142169. 3068.37  72
  -7  -8  -1 67562.5 2022.50  37
  -7  -8  -1 69957.2 2031.90  18
  -7  -8  -1 67305.1 2044.22  72
  -7  -8  -1 67774.0 1982.51  70
  -7  -8  -1 71091.1 2211.85  24
  -7  -8   0 10544.3 797.446  72
  -7  -8   0 10931.0 793.979  18
  -7  -8   0 10828.4 738.386  37
  -7  -8   1 47971.6 1686.22  72
  -7  -8   1 52459.9 1841.94  24
  -7  -7  -9 17818.2 725.839  77
  -7  -7  -9 18437.4 716.611  46
  -7  -7  -9 18359.0 705.506  81
  -7  -7  -9 18133.4 709.449  89
  -7  -7  -9 17434.7 636.629  86
  -7  -7  -8 66098.2 1609.52  89
  -7  -7  -8 66276.6 1614.92  46
  -7  -7  -8 67276.2 1500.41  37
  -7  -7  -8 65401.2 1590.71  74
  -7  -7  -8 64777.2 1646.23  77
  -7  -7  -8 68039.8 1681.32  81
  -7  -7  -8 66343.7 1609.10  86
  -7  -7  -7 113074. 2306.80  89
  -7  -7  -7 118142. 2459.32  86
  -7  -7  -7 115949. 2421.60  74
  -7  -7  -7 110836. 2322.55  46
  -7  -7  -7 112660. 2442.20  81
  -7  -7  -7 108801. 2327.06  77
  -7  -7  -7 113950. 2343.82  37
  -7  -7  -6 153378. 2880.72  77
  -7  -7  -6 169669. 3218.66  86
  -7  -7  -6 162382. 2894.68  89
  -7  -7  -6 172878. 3010.00  95
  -7  -7  -6 165087. 3172.14  81
  -7  -7  -6 173109. 3217.64  74
  -7  -7  -6 167365. 3157.99  37
  -7  -7  -6 162206. 2977.25  46
  -7  -7  -5 37328.4 1452.36  86
  -7  -7  -5 39860.2 1355.10  46
  -7  -7  -5 35590.6 1392.72  81
  -7  -7  -5 32849.3 1372.68  72
  -7  -7  -5 36534.0 1418.97  74
  -7  -7  -5 39190.6 1500.08  37
  -7  -7  -5 37683.0 1421.11  95
  -7  -7  -4 74996.6 2170.68  37
  -7  -7  -4 73768.4 2078.71  74
  -7  -7  -4 64791.6 2024.96  72
  -7  -7  -4 70306.1 1956.32  81
  -7  -7  -4 67468.6 2012.49  86
  -7  -7  -4 74432.0 1839.75  46
  -7  -7  -3 84375.0 2211.55  74
  -7  -7  -3 80608.1 2284.70  37
  -7  -7  -3 81618.2 2169.70  86
  -7  -7  -3 85848.2 2064.11  81
  -7  -7  -2 192380. 3712.78  37
  -7  -7  -2 192323. 3424.75  70
  -7  -7  -2 190289. 3830.48  24
  -7  -7  -2 203920. 3501.45  86
  -7  -7  -2 198893. 3501.69  18
  -7  -7  -2 185633. 3772.94  72
  -7  -7  -1 126778. 3037.81  24
  -7  -7  -1 125546. 2829.64  37
  -7  -7  -1 120865. 2974.99  72
  -7  -7   0 40955.2 1477.74  37
  -7  -7   0 40505.5 1670.23  72
  -7  -7   0 41119.4 1668.03  24
  -7  -7   1 20525.2 1183.84  72
  -7  -7   1 20458.3 1169.97  24
  -7  -7   2 31526.8 1465.51  72
  -7  -7   3 44289.1 1706.27  24
  -7  -7   3 41692.5 1658.77  72
  -7  -6 -10 66569.6 1245.17  91
  -7  -6 -10 73774.8 1298.59  89
  -7  -6  -9 40211.1 1156.51  89
  -7  -6  -9 40722.3 1152.09  46
  -7  -6  -9 43154.3 1146.41  81
  -7  -6  -9 42363.7 1067.48  86
  -7  -6  -9 41540.2 1213.11  77
  -7  -6  -8 40787.1 1203.42  37
  -7  -6  -8 41413.8 1323.76  81
  -7  -6  -8 43810.5 1403.45  77
  -7  -6  -8 38403.2 1247.17  74
  -7  -6  -8 39445.5 1259.48  86
  -7  -6  -8 42950.4 1332.36  46
  -7  -6  -8 40924.6 1298.93  89
  -7  -6  -7 121128. 2534.50  74
  -7  -6  -7 118996. 2525.62  86
  -7  -6  -7 120007. 2562.54  81
  -7  -6  -7 111001. 2405.22  46
  -7  -6  -7 120176. 2472.72  37
  -7  -6  -7 113199. 2510.53  77
  -7  -6  -7 106932. 2428.12  72
  -7  -6  -7 113793. 2420.56  89
  -7  -6  -6 161376. 3161.14  37
  -7  -6  -6 170607. 3262.20  86
  -7  -6  -6 148665. 3107.15  72
  -7  -6  -6 169013. 3250.50  81
  -7  -6  -6 162926. 3037.90  46
  -7  -6  -6 165500. 3004.15  89
  -7  -6  -6 171519. 3010.14  95
  -7  -6  -6 158754. 3080.86  77
  -7  -6  -6 172934. 3254.94  74
  -7  -6  -5 140098. 2778.75  77
  -7  -6  -5 152546. 3088.58  74
  -7  -6  -5 153446. 2775.16  89
  -7  -6  -5 147481. 2963.56  95
  -7  -6  -5 145067. 2789.67  46
  -7  -6  -5 143730. 3079.29  72
  -7  -6  -5 151121. 3126.32  37
  -7  -6  -5 141262. 3010.65  86
  -7  -6  -5 143307. 3012.11  81
  -7  -6  -4 76963.1 2187.88  37
  -7  -6  -4 74295.6 2102.86  86
  -7  -6  -4 72836.3 2095.36  95
  -7  -6  -4 79659.3 2110.20  54
  -7  -6  -4 76018.6 2211.43  72
  -7  -6  -4 75043.1 2037.91  81
  -7  -6  -4 77148.7 2119.62  74
  -7  -6  -3 12376.1 753.203  81
  -7  -6  -3 13821.7 890.879  37
  -7  -6  -3 12398.3 798.214  74
  -7  -6  -3 11805.1 780.041  86
  -7  -6  -3 10924.1 820.064  72
  -7  -6  -2 122607. 2786.47  37
  -7  -6  -2 127488. 2630.41  86
  -7  -6  -2 123183. 2848.88  24
  -7  -6  -2 125770. 2615.44  74
  -7  -6  -1 92157.8 2546.13  72
  -7  -6  -1 92871.0 2332.74  37
  -7  -6  -1 90715.7 2438.81  24
  -7  -6   0 117732. 2571.12  37
  -7  -6   0 118105. 2866.05  24
  -7  -6   0 117624. 2969.42  72
  -7  -6   1 55311.6 1940.36  24
  -7  -6   1 58537.7 2061.03  72
  -7  -6   2 55310.3 1910.80  15
  -7  -6   2 54986.1 2015.98  72
  -7  -6   3 53675.9 2008.22  72
  -7  -6   3 53404.1 1898.11  15
  -7  -6   4 50408.2 1910.83  72
  -7  -6   4 51868.0 1831.76  15
  -7  -5 -10 90144.9 1490.05  89
  -7  -5 -10 81489.3 1404.78  91
  -7  -5  -9 91359.6 1917.03  77
  -7  -5  -9 86782.2 1796.30  46
  -7  -5  -9 91178.5 1853.46  89
  -7  -5  -9 89771.3 1838.67  91
  -7  -5  -9 89183.1 1735.33  81
  -7  -5  -9 94029.4 1684.57  86
  -7  -5  -8 34778.2 1221.83  89
  -7  -5  -8 35578.2 1138.89  37
  -7  -5  -8 36387.6 1308.46  77
  -7  -5  -8 33258.9 1169.23  86
  -7  -5  -8 34963.7 1219.79  81
  -7  -5  -8 35361.3 1209.43  74
  -7  -5  -8 32907.0 1178.82  46
  -7  -5  -7 106455. 2491.96  77
  -7  -5  -7 110457. 2422.34  89
  -7  -5  -7 101076. 2339.99  14
  -7  -5  -7 105905. 2383.26  72
  -7  -5  -7 109588. 2473.13  81
  -7  -5  -7 111162. 2451.64  86
  -7  -5  -7 116164. 2508.32  74
  -7  -5  -7 112965. 2423.15  37
  -7  -5  -7 108494. 2394.15  46
  -7  -5  -6 96657.7 2388.07  72
  -7  -5  -6 99752.1 2195.95  95
  -7  -5  -6 101410. 2315.03  46
  -7  -5  -6 106471. 2472.14  74
  -7  -5  -6 98123.3 2413.01  77
  -7  -5  -6 100808. 2421.80  37
  -7  -5  -6 105178. 2488.86  81
  -7  -5  -6 102277. 2326.74  89
  -7  -5  -6 100597. 2449.44  86
  -7  -5  -5 180341. 3308.97  95
  -7  -5  -5 174971. 3416.48  72
  -7  -5  -5 182418. 3431.01  74
  -7  -5  -5 176526. 3135.99  46
  -7  -5  -5 180618. 3420.16  81
  -7  -5  -5 173665. 3269.48  77
  -7  -5  -5 177031. 3423.65  37
  -7  -5  -5 186972. 3177.62  89
  -7  -5  -5 184517. 3471.81  86
  -7  -5  -4 101840. 2397.42  81
  -7  -5  -4 94863.8 2375.49  95
  -7  -5  -4 98151.5 2501.89  72
  -7  -5  -4 95465.2 2318.00  54
  -7  -5  -4 104249. 2444.28  74
  -7  -5  -4 99143.1 2470.26  37
  -7  -5  -4 101169. 2441.25  86
  -7  -5  -4 100325. 2235.20  77
  -7  -5  -3 5750.66 512.060  81
  -7  -5  -3 6073.80 577.444  54
  -7  -5  -3 6695.33 609.558  95
  -7  -5  -3 7121.53 621.284  37
  -7  -5  -3 6805.35 580.273  86
  -7  -5  -3 7146.73 587.994  74
  -7  -5  -3 7126.19 644.242  72
  -7  -5  -2 42033.6 1507.64  37
  -7  -5  -2 42833.4 1409.05  74
  -7  -5  -2 43185.4 1343.82  81
  -7  -5  -2 41437.6 1481.54  24
  -7  -5  -2 40175.0 1591.89  72
  -7  -5  -2 41897.0 1540.40  95
  -7  -5  -2 43789.6 1432.60  86
  -7  -5  -1 162971. 3061.88  37
  -7  -5  -1 157131. 3113.94  24
  -7  -5  -1 154756. 3094.83  95
  -7  -5   0 201094. 3949.33  72
  -7  -5   0 209893. 3798.95  24
  -7  -5   0 208240. 3451.01  37
  -7  -5   0 209891. 3638.78  95
  -7  -5   1 118584. 2506.39  95
  -7  -5   1 112770. 2860.13  15
  -7  -5   1 117961. 2966.14  72
  -7  -5   2 94264.1 2339.81  65
  -7  -5   2 88675.6 2590.12  72
  -7  -5   3 57338.1 2101.54  15
  -7  -5   3 57399.0 2098.49  72
  -7  -5   4 68164.1 2302.43  15
  -7  -5   4 70003.1 2344.19  72
  -7  -5   5 159240. 3570.26  15
  -7  -4 -10 61676.3 1168.70  89
  -7  -4  -9 179067. 2554.75  81
  -7  -4  -9 172021. 2672.59  91
  -7  -4  -9 174657. 2490.27  40
  -7  -4  -9 175786. 2456.93  86
  -7  -4  -9 170963. 2724.08  89
  -7  -4  -8 90827.9 2059.84  91
  -7  -4  -8 94364.1 2030.17  86
  -7  -4  -8 91358.1 1914.41  40
  -7  -4  -8 94855.4 2077.06  81
  -7  -4  -8 96496.4 1980.86  37
  -7  -4  -8 91972.8 2040.66  74
  -7  -4  -8 96727.4 2219.22  77
  -7  -4  -8 92867.8 2103.33  89
  -7  -4  -8 89577.2 2027.11  46
  -7  -4  -7 18445.3 933.002  46
  -7  -4  -7 21345.5 1015.89  86
  -7  -4  -7 19293.0 971.797  74
  -7  -4  -7 18367.3 893.687  72
  -7  -4  -7 18025.7 987.379  77
  -7  -4  -7 15717.3 894.708  14
  -7  -4  -7 19035.1 961.259  89
  -7  -4  -7 19252.8 977.798  81
  -7  -4  -7 18489.5 928.782  37
  -7  -4  -6 18160.2 976.922  37
  -7  -4  -6 17334.4 962.036  86
  -7  -4  -6 18358.7 992.508  74
  -7  -4  -6 17481.1 993.994  77
  -7  -4  -6 17793.2 932.948  89
  -7  -4  -6 17526.9 915.582  46
  -7  -4  -6 18179.4 947.045  72
  -7  -4  -6 18077.6 992.223  81
  -7  -4  -5 58131.8 1654.58  46
  -7  -4  -5 56447.1 1753.52  72
  -7  -4  -5 55313.0 1787.98  86
  -7  -4  -5 57029.0 1781.06  74
  -7  -4  -5 52961.1 1660.93  95
  -7  -4  -5 55333.0 1627.06  89
  -7  -4  -5 54747.9 1773.64  81
  -7  -4  -5 53459.6 1776.90  37
  -7  -4  -5 59886.4 1832.39  77
  -7  -4  -4 372839. 5069.30  77
  -7  -4  -4 362515. 5248.05  72
  -7  -4  -4 326856. 4805.85  85
  -7  -4  -4 373051. 5225.68  86
  -7  -4  -4 367031. 5153.17  81
  -7  -4  -4 362915. 5049.55  54
  -7  -4  -4 351825. 5218.33  37
  -7  -4  -4 373313. 5181.02  74
  -7  -4  -4 340062. 5067.71  95
  -7  -4  -3 167629. 3300.31  72
  -7  -4  -3 176014. 3196.75  86
  -7  -4  -3 178166. 3177.16  74
  -7  -4  -3 171102. 3103.99  81
  -7  -4  -3 168835. 3263.64  95
  -7  -4  -3 173689. 3277.91  37
  -7  -4  -3 165348. 3239.28  54
  -7  -4  -2 17163.3 978.431  54
  -7  -4  -2 17682.1 873.796  86
  -7  -4  -2 17019.3 975.985  72
  -7  -4  -2 16272.7 925.149   5
  -7  -4  -2 19136.8 969.887  37
  -7  -4  -2 17057.6 948.165  95
  -7  -4  -2 19317.8 897.099  74
  -7  -4  -2 17987.6 853.975  81
  -7  -4  -2 16793.7 907.641   3
  -7  -4  -1 27697.2 1276.18  72
  -7  -4  -1 27873.9 1126.30  37
  -7  -4  -1 25718.4 1172.10   5
  -7  -4  -1 29098.5 1216.92  95
  -7  -4   0 108292. 2410.06  24
  -7  -4   0 99186.8 2457.62   5
  -7  -4   0 108456. 2408.06  95
  -7  -4   0 100395. 2597.95  72
  -7  -4   1 279765. 4863.26  15
  -7  -4   1 270503. 4537.60   5
  -7  -4   1 287258. 4830.70  72
  -7  -4   2 366235. 4969.18  85
  -7  -4   2 356034. 5754.83  15
  -7  -4   2 360541. 4823.05  75
  -7  -4   2 354601. 5140.36  65
  -7  -4   3 118606. 3064.82  72
  -7  -4   3 125760. 2482.81  85
  -7  -4   3 117551. 3135.37  15
  -7  -4   3 119722. 2582.01  54
  -7  -4   3 126459. 2835.61  65
  -7  -4   4 33139.9 1636.92  15
  -7  -4   4 32378.6 1562.45  72
  -7  -4   5 16969.9 1119.18  72
  -7  -4   5 17449.5 1166.58  15
  -7  -4   6 121230. 3016.25  72
  -7  -4   6 117947. 3046.83  15
  -7  -4   8 62686.4 1464.84  35
  -7  -3  -9 16790.6 595.970  86
  -7  -3  -9 16553.7 669.921  91
  -7  -3  -9 16927.8 611.506  81
  -7  -3  -9 16836.3 679.458  40
  -7  -3  -9 16848.9 715.200  89
  -7  -3  -8 111181. 2213.51  91
  -7  -3  -8 110462. 2207.58  81
  -7  -3  -8 110342. 2230.13  74
  -7  -3  -8 111649. 2239.44  40
  -7  -3  -8 108289. 2284.52  89
  -7  -3  -8 111229. 2131.10  37
  -7  -3  -8 114198. 2202.52  86
  -7  -3  -7 90856.8 2186.46  81
  -7  -3  -7 92279.1 2200.03  86
  -7  -3  -7 88575.3 2120.10  40
  -7  -3  -7 90659.6 2201.97  89
  -7  -3  -7 88750.9 2130.35  37
  -7  -3  -7 94438.6 2155.41  91
  -7  -3  -7 93819.5 2224.11  74
  -7  -3  -6 96569.9 2377.70  86
  -7  -3  -6 93204.9 2330.78  37
  -7  -3  -6 93987.0 2422.45  77
  -7  -3  -6 98059.8 2385.82  81
  -7  -3  -6 92909.8 2212.10  40
  -7  -3  -6 95961.6 2299.12  89
  -7  -3  -6 93398.1 2221.40  46
  -7  -3  -6 99571.5 2397.41  74
  -7  -3  -5 15648.2 935.917  77
  -7  -3  -5 15904.9 860.773  89
  -7  -3  -5 15020.3 897.483  74
  -7  -3  -5 15973.0 931.368  81
  -7  -3  -5 15082.0 820.364  46
  -7  -3  -5 13323.1 769.303  25
  -7  -3  -5 15815.6 854.453  72
  -7  -3  -5 14120.9 877.328  86
  -7  -3  -5 16365.3 878.032  95
  -7  -3  -4 76295.1 1910.15  75
  -7  -3  -4 79864.8 2122.78  86
  -7  -3  -4 79231.7 2019.66  72
  -7  -3  -4 80188.1 2112.71  95
  -7  -3  -4 74956.0 2057.73  81
  -7  -3  -4 81832.1 2185.27  37
  -7  -3  -4 78973.6 2084.41  77
  -7  -3  -4 72047.2 1888.48  25
  -7  -3  -4 75208.9 1984.45  54
  -7  -3  -3 214828. 3581.36  25
  -7  -3  -3 237107. 3928.92  37
  -7  -3  -3 242966. 3769.98  77
  -7  -3  -3 230893. 3794.08  85
  -7  -3  -3 247203. 3891.98  86
  -7  -3  -3 236788. 3948.30  54
  -7  -3  -3 241355. 3857.10  72
  -7  -3  -3 242461. 3811.11  74
  -7  -3  -3 233230. 3761.91  75
  -7  -3  -3 226810. 3909.57  95
  -7  -3  -3 232214. 3768.72  81
  -7  -3  -2 202964. 3739.98   5
  -7  -3  -2 216045. 3588.78  37
  -7  -3  -2 213026. 3640.24  85
  -7  -3  -2 198583. 3682.33  54
  -7  -3  -2 208397. 3333.95  60
  -7  -3  -2 216748. 3591.16  75
  -7  -3  -2 218007. 3690.32  72
  -7  -3  -2 224352. 3503.26  86
  -7  -3  -2 226872. 3472.85  81
  -7  -3  -2 212393. 3688.46  95
  -7  -3  -2 218759. 3411.37  74
  -7  -3  -1 143067. 3024.13   5
  -7  -3  -1 136510. 2822.84  95
  -7  -3  -1 139427. 2899.93  72
  -7  -3  -1 155077. 2976.75  85
  -7  -3  -1 146144. 2701.57  37
  -7  -3  -1 146764. 3024.85  54
  -7  -3  -1 144929. 2825.75  75
  -7  -3   0 104995. 2321.38  95
  -7  -3   0 99902.0 2276.89  75
  -7  -3   0 94020.0 2364.40  72
  -7  -3   0 99024.4 2486.18   5
  -7  -3   0 95605.2 2392.74  54
  -7  -3   0 104715. 2378.11  85
  -7  -3   1 92317.9 2330.49  54
  -7  -3   1 99668.3 2632.11  15
  -7  -3   1 92075.7 2466.07   5
  -7  -3   1 107965. 2347.82  65
  -7  -3   1 104792. 2355.68  85
  -7  -3   1 102337. 2269.06  75
  -7  -3   1 100190. 2206.52  95
  -7  -3   1 100534. 2502.62  72
  -7  -3   2 161467. 3577.52  15
  -7  -3   2 165662. 3149.24  54
  -7  -3   2 165302. 3033.05  85
  -7  -3   2 166776. 2979.72  75
  -7  -3   2 160403. 3370.76  72
  -7  -3   2 167574. 3200.44  65
  -7  -3   3 216649. 4115.07  72
  -7  -3   3 205389. 3505.79  54
  -7  -3   3 211856. 3464.31  85
  -7  -3   3 220551. 4400.77  15
  -7  -3   4 113809. 2943.94  72
  -7  -3   4 113596. 3107.40  15
  -7  -3   5 47151.6 1980.31  15
  -7  -3   5 50252.5 1548.77  94
  -7  -3   6 14904.0 843.620  39
  -7  -3   7 117420. 2642.40  27
  -7  -3   8 85746.4 1942.75  35
  -7  -2  -9 14690.0 612.978  89
  -7  -2  -9 15176.1 563.868  91
  -7  -2  -8 58179.4 1438.28  86
  -7  -2  -8 56930.6 1433.46  91
  -7  -2  -8 60655.9 1576.93  89
  -7  -2  -8 60243.8 1515.77  74
  -7  -2  -8 60770.4 1444.77  37
  -7  -2  -8 61801.5 1593.66  40
  -7  -2  -8 61178.2 1470.32  81
  -7  -2  -7 91852.8 2149.47  37
  -7  -2  -7 90048.9 2134.23  86
  -7  -2  -7 90221.4 2184.84  40
  -7  -2  -7 91425.7 2038.46  91
  -7  -2  -7 91982.9 2177.33  74
  -7  -2  -7 91083.8 2172.98  89
  -7  -2  -7 93175.3 2154.48  81
  -7  -2  -6 69240.6 2015.77  14
  -7  -2  -6 78612.7 2072.97  89
  -7  -2  -6 76905.2 2076.27  74
  -7  -2  -6 76233.0 2073.22  86
  -7  -2  -6 77125.7 2090.32  37
  -7  -2  -6 81168.4 1942.60  91
  -7  -2  -6 70758.7 2007.25  40
  -7  -2  -6 76827.4 2085.86  81
  -7  -2  -5 91466.0 2347.92  37
  -7  -2  -5 85421.2 2182.06  40
  -7  -2  -5 87582.5 2157.96  89
  -7  -2  -5 88416.2 2295.53  86
  -7  -2  -5 89715.1 2306.35  81
  -7  -2  -5 89917.8 2285.51  74
  -7  -2  -5 88008.7 2124.69  95
  -7  -2  -4 48068.9 1557.49  40
  -7  -2  -4 49427.6 1662.32  86
  -7  -2  -4 51458.7 1598.39  54
  -7  -2  -4 50129.3 1697.23  37
  -7  -2  -4 50743.6 1656.80  74
  -7  -2  -4 46944.6 1577.39  25
  -7  -2  -4 49384.6 1627.74  95
  -7  -2  -4 51251.7 1531.50  89
  -7  -2  -4 46777.2 1621.50  81
  -7  -2  -3 230100. 3676.68  75
  -7  -2  -3 227615. 3839.00  37
  -7  -2  -3 233642. 3895.31  54
  -7  -2  -3 226005. 3766.83  86
  -7  -2  -3 225536. 3712.12  85
  -7  -2  -3 219103. 3704.95  81
  -7  -2  -3 230795. 3748.74  74
  -7  -2  -3 222466. 3848.20  95
  -7  -2  -2 297711. 4277.90  86
  -7  -2  -2 300747. 4571.84  95
  -7  -2  -2 291613. 4355.37  37
  -7  -2  -2 306287. 4212.15  74
  -7  -2  -2 294545. 4388.26  75
  -7  -2  -2 298925. 4287.60  81
  -7  -2  -2 295686. 4616.37  54
  -7  -2  -2 292795. 4248.35  60
  -7  -2  -2 286745. 4430.56  85
  -7  -2  -1 212810. 3583.77  75
  -7  -2  -1 216918. 3361.03  60
  -7  -2  -1 213321. 3648.26  95
  -7  -2  -1 215267. 3669.71  85
  -7  -2  -1 208972. 3824.24   5
  -7  -2  -1 223606. 3328.31  81
  -7  -2  -1 219345. 3302.69  86
  -7  -2  -1 214737. 3774.01  54
  -7  -2   0 75802.6 1757.92  60
  -7  -2   0 76469.8 2013.53  85
  -7  -2   0 76526.7 1952.62  72
  -7  -2   0 77001.3 1966.29  95
  -7  -2   0 74810.1 2048.73  54
  -7  -2   0 77153.6 1984.31  75
  -7  -2   0 73014.3 2131.12   5
  -7  -2   1 70931.5 2153.71   5
  -7  -2   1 72046.5 1942.45  85
  -7  -2   1 72502.6 1840.11  95
  -7  -2   1 74800.5 1925.45  75
  -7  -2   1 72848.5 1994.65  54
  -7  -2   1 71262.9 1934.47  72
  -7  -2   2 83296.5 2404.76  15
  -7  -2   2 79404.4 2352.48   5
  -7  -2   2 79740.5 1870.78  95
  -7  -2   2 79205.1 1990.55  75
  -7  -2   2 79077.9 2041.54  54
  -7  -2   2 79891.5 2148.98  72
  -7  -2   2 86657.8 2094.00  85
  -7  -2   3 144147. 2759.43  75
  -7  -2   3 151614. 2829.44  85
  -7  -2   3 146996. 2782.42  54
  -7  -2   3 148149. 3134.96  72
  -7  -2   4 152903. 3317.18  72
  -7  -2   4 156707. 3649.13  15
  -7  -2   5 127577. 2867.47  39
  -7  -2   5 132082. 3380.23  15
  -7  -2   6 34756.0 1418.66  27
  -7  -2   6 32415.9 1279.85  39
  -7  -2   6 34732.8 1239.90  94
  -7  -2   7 56823.2 1792.33  27
  -7  -2   8 114466. 2143.31  92
  -7  -2   8 107982. 2340.85  35
  -7  -2   9 83773.7 1607.76  35
  -7  -1  -8 25902.0 837.501  37
  -7  -1  -8 25959.3 838.970  86
  -7  -1  -8 26864.8 829.140  81
  -7  -1  -8 26610.6 829.670  91
  -7  -1  -7 83887.4 1804.37  91
  -7  -1  -7 84262.3 1965.61  86
  -7  -1  -7 85098.2 2007.25  89
  -7  -1  -7 85267.9 2000.26  74
  -7  -1  -7 82288.2 1951.34  37
  -7  -1  -7 84811.2 1944.18  81
  -7  -1  -6 177717. 3284.71  37
  -7  -1  -6 175794. 3217.31  89
  -7  -1  -6 179858. 3287.92  74
  -7  -1  -6 169990. 3283.21  40
  -7  -1  -6 175559. 3245.77  81
  -7  -1  -6 175325. 3251.81  86
  -7  -1  -5 113721. 2653.17  37
  -7  -1  -5 108352. 2599.40  40
  -7  -1  -5 117869. 2649.52  74
  -7  -1  -5 104751. 2519.23  14
  -7  -1  -5 114452. 2650.37  86
  -7  -1  -5 109675. 2590.48  81
  -7  -1  -5 98341.4 2423.06  25
  -7  -1  -5 113390. 2527.06  89
  -7  -1  -5 113446. 2403.04  95
  -7  -1  -4 132883. 2873.66  81
  -7  -1  -4 130512. 2804.04  74
  -7  -1  -4 131774. 2882.50  37
  -7  -1  -4 132341. 2788.68  95
  -7  -1  -4 120245. 2756.65  25
  -7  -1  -4 128980. 2840.32  86
  -7  -1  -4 126429. 2627.42  89
  -7  -1  -3 37066.8 1404.73  81
  -7  -1  -3 34228.2 1360.67  54
  -7  -1  -3 33729.0 1353.54  37
  -7  -1  -3 34449.1 1347.61  86
  -7  -1  -3 31174.4 1178.73  68
  -7  -1  -3 31208.8 1329.93  25
  -7  -1  -3 35276.6 1398.87  95
  -7  -1  -3 34351.7 1293.31  85
  -7  -1  -3 36187.6 1289.83  75
  -7  -1  -3 34166.4 1311.02  74
  -7  -1  -2 198225. 3275.55  74
  -7  -1  -2 189541. 3384.74  75
  -7  -1  -2 193894. 3594.71  54
  -7  -1  -2 182257. 3493.83  25
  -7  -1  -2 189612. 3326.10  86
  -7  -1  -2 187873. 3195.89  68
  -7  -1  -2 190223. 3370.40  37
  -7  -1  -2 196861. 3596.78  95
  -7  -1  -2 199597. 3517.76  85
  -7  -1  -1 308690. 4220.08  86
  -7  -1  -1 302774. 4254.17  37
  -7  -1  -1 310510. 4621.24  85
  -7  -1  -1 290461. 4210.19  60
  -7  -1  -1 299931. 4688.95  54
  -7  -1  -1 305025. 4596.14  95
  -7  -1  -1 292118. 4202.12  81
  -7  -1  -1 279760. 4147.85  68
  -7  -1  -1 291065. 4442.85  75
  -7  -1   0 101931. 2220.79  68
  -7  -1   0 111228. 2480.32  39
  -7  -1   0 105738. 2207.41  60
  -7  -1   0 100941. 2420.74  85
  -7  -1   0 107010. 2416.05  95
  -7  -1   0 109599. 2543.42  54
  -7  -1   0 106759. 2417.49  75
  -7  -1   0 103367. 2582.15   5
  -7  -1   1 90186.9 1963.15  60
  -7  -1   1 85481.1 2185.57  54
  -7  -1   1 86761.5 2188.08  85
  -7  -1   1 91083.0 2198.78  75
  -7  -1   1 83664.4 2351.33   5
  -7  -1   1 85334.8 2057.48  68
  -7  -1   1 90996.4 2117.18  95
  -7  -1   1 92254.4 2322.24  39
  -7  -1   2 41794.1 1432.41  54
  -7  -1   2 41923.4 1332.47  95
  -7  -1   2 41057.6 1429.10  85
  -7  -1   2 40902.4 1620.11  15
  -7  -1   2 40156.8 1539.54  39
  -7  -1   2 41527.1 1428.22  75
  -7  -1   2 39209.0 1404.99  68
  -7  -1   3 91962.2 2098.90  54
  -7  -1   3 90450.4 2397.99  39
  -7  -1   3 89798.3 2538.32  15
  -7  -1   3 89662.7 2269.26  68
  -7  -1   3 89012.6 2148.77  85
  -7  -1   3 94816.3 2194.32  75
  -7  -1   4 146661. 2726.21  75
  -7  -1   4 138299. 3028.84  39
  -7  -1   4 132306. 2825.50  94
  -7  -1   4 136750. 2618.48  85
  -7  -1   4 138090. 3290.52  15
  -7  -1   4 136271. 2974.69  68
  -7  -1   5 203488. 4194.17  15
  -7  -1   5 204085. 3869.84  68
  -7  -1   5 210950. 3661.74  94
  -7  -1   5 205435. 3766.74  39
  -7  -1   6 133463. 2685.50  94
  -7  -1   6 129561. 3184.74  15
  -7  -1   6 140672. 2881.70  27
  -7  -1   6 131677. 2732.46  39
  -7  -1   6 121464. 2859.51  68
  -7  -1   7 31752.0 1107.63  39
  -7  -1   7 28750.9 1291.70  35
  -7  -1   7 32408.1 1292.15  27
  -7  -1   8 106941. 2371.92  35
  -7  -1   8 105675. 2196.15  92
  -7  -1   9 71429.3 1397.46  92
  -7  -1   9 68835.8 1531.35  35
  -7   0  -8 36638.1 841.598  37
  -7   0  -7 33224.5 1094.72  37
  -7   0  -7 34625.0 1104.56  86
  -7   0  -7 33337.1 1049.41  81
  -7   0  -6 189253. 3302.92  37
  -7   0  -6 186843. 3229.01  81
  -7   0  -6 177354. 3210.08  74
  -7   0  -6 188993. 3285.56  86
  -7   0  -5 90060.8 2146.89  14
  -7   0  -5 96978.6 2355.29  74
  -7   0  -5 94483.4 2092.04  95
  -7   0  -5 100690. 2428.29  86
  -7   0  -5 99515.4 2402.82  81
  -7   0  -5 96146.7 2285.35  89
  -7   0  -5 100904. 2444.56  37
  -7   0  -4 255679. 4083.24  52
  -7   0  -4 264956. 4368.84  81
  -7   0  -4 256899. 4130.61  14
  -7   0  -4 265535. 4312.40  74
  -7   0  -4 267739. 4143.55  89
  -7   0  -4 245786. 4226.88  25
  -7   0  -4 277772. 4496.41  37
  -7   0  -4 269614. 4402.11  86
  -7   0  -4 289183. 4368.33  95
  -7   0  -3 20286.7 1066.12  37
  -7   0  -3 21406.9 1088.63  86
  -7   0  -3 23098.8 1137.11  95
  -7   0  -3 21346.9 1089.70  81
  -7   0  -3 22028.1 990.132  89
  -7   0  -3 19968.9 1011.61  74
  -7   0  -3 20132.6 1082.50  25
  -7   0  -3 22474.9 1109.18  52
  -7   0  -3 23012.7 1033.44  85
  -7   0  -2 20068.2 1074.53  25
  -7   0  -2 20026.4 1001.88  86
  -7   0  -2 21099.2 1049.94  85
  -7   0  -2 21976.3 1041.86  75
  -7   0  -2 20294.0 1030.00  81
  -7   0  -2 19028.0 984.720  37
  -7   0  -2 20311.1 964.310  74
  -7   0  -2 19682.2 989.945  68
  -7   0  -1 179819. 3389.95  85
  -7   0  -1 168938. 3047.62  86
  -7   0  -1 168837. 3085.10  81
  -7   0  -1 162399. 3118.77  68
  -7   0  -1 168462. 3039.63  37
  -7   0  -1 167301. 3311.93  95
  -7   0  -1 170591. 2881.44  74
  -7   0  -1 177232. 3277.71  75
  -7   0  -1 174274. 3408.83  54
  -7   0   0 201942. 3603.39  95
  -7   0   0 209296. 3746.99  54
  -7   0   0 205239. 3316.66  81
  -7   0   0 219796. 3673.88  39
  -7   0   0 191806. 3484.83  68
  -7   0   0 209875. 3662.46  75
  -7   0   0 210827. 3730.95  85
  -7   0   0 202976. 3419.74  94
  -7   0   1 185552. 3434.30  85
  -7   0   1 187816. 3440.18  54
  -7   0   1 180309. 3263.12  94
  -7   0   1 186468. 3410.93  75
  -7   0   1 185137. 3286.68  95
  -7   0   1 190917. 3511.61  39
  -7   0   2 71559.1 1848.39  95
  -7   0   2 75584.4 1985.27  54
  -7   0   2 74323.0 2014.22  75
  -7   0   2 71662.2 2035.37  68
  -7   0   2 75972.0 2030.03  94
  -7   0   2 78970.3 2189.47  39
  -7   0   2 74113.1 2025.47  85
  -7   0   3 83278.0 2271.27  68
  -7   0   3 80099.6 2076.02  85
  -7   0   3 83939.1 2000.15  54
  -7   0   3 83277.2 2285.50  15
  -7   0   3 82988.2 2289.06  39
  -7   0   3 83583.8 2108.73  75
  -7   0   3 77827.4 2122.63  94
  -7   0   4 35130.0 1387.89  94
  -7   0   4 33404.2 1460.07  68
  -7   0   4 36577.5 1477.06  39
  -7   0   4 34066.2 1464.44  15
  -7   0   4 36153.1 1310.04  75
  -7   0   4 38428.3 1325.20  85
  -7   0   5 259522. 4499.16  15
  -7   0   5 263218. 4302.68  39
  -7   0   5 262567. 4206.10  94
  -7   0   6 212579. 3578.44  94
  -7   0   6 192156. 3754.45  15
  -7   0   6 210563. 3903.17  35
  -7   0   6 204864. 3534.05  39
  -7   0   6 195597. 3828.19  68
  -7   0   7 107335. 2178.28  39
  -7   0   7 106664. 2340.60  27
  -7   0   7 109099. 2463.41  92
  -7   0   7 107241. 2246.65  94
  -7   0   7 100507. 2496.05  35
  -7   0   8 42032.4 1352.28  92
  -7   0   8 43486.9 1432.18  35
  -7   0   9 45368.9 1233.13  35
  -7   0   9 46627.6 1195.33  92
  -7   1  -7 53688.1 1180.88  86
  -7   1  -7 55586.1 1241.93  37
  -7   1  -6 44259.5 1297.35  81
  -7   1  -6 45369.4 1349.91  86
  -7   1  -6 45392.1 1377.46  37
  -7   1  -5 62150.9 1775.47  81
  -7   1  -5 60772.2 1751.66  74
  -7   1  -5 65688.5 1862.85  37
  -7   1  -5 62226.1 1801.02  86
  -7   1  -4 126648. 2792.82  37
  -7   1  -4 119803. 2721.17  86
  -7   1  -4 127262. 2770.61  81
  -7   1  -4 120197. 2660.48  74
  -7   1  -4 121190. 2526.09  52
  -7   1  -4 122806. 2604.72  95
  -7   1  -3 206116. 3734.66  86
  -7   1  -3 200863. 3577.89  74
  -7   1  -3 212688. 3786.83  95
  -7   1  -3 209603. 3764.10  81
  -7   1  -3 204276. 3745.68  37
  -7   1  -3 213230. 3755.00  52
  -7   1  -2 16976.9 965.343  81
  -7   1  -2 14897.1 936.913  25
  -7   1  -2 17036.8 902.218  74
  -7   1  -2 15459.7 904.292  86
  -7   1  -2 15772.5 980.885  52
  -7   1  -2 17452.4 1011.78  95
  -7   1  -2 18287.2 930.661  75
  -7   1  -2 15179.3 909.781  68
  -7   1  -2 18086.5 965.628  85
  -7   1  -2 16626.3 932.471  37
  -7   1  -1 34065.6 1395.20  85
  -7   1  -1 33222.2 1338.13  75
  -7   1  -1 31871.5 1287.08  81
  -7   1  -1 32220.6 1242.30  37
  -7   1  -1 32727.0 1387.99  95
  -7   1  -1 32286.8 1168.74  74
  -7   1  -1 30151.2 1293.95  68
  -7   1  -1 31800.3 1395.29  52
  -7   1  -1 29805.8 1336.99  25
  -7   1  -1 31921.5 1250.78  86
  -7   1   0 156732. 3186.07  95
  -7   1   0 159514. 2990.63  81
  -7   1   0 166173. 3351.60  52
  -7   1   0 168135. 3138.24  39
  -7   1   0 168456. 3263.95  75
  -7   1   0 150665. 3138.59  68
  -7   1   0 156444. 2834.14  86
  -7   1   0 166291. 3305.30  85
  -7   1   1 152367. 3151.90  85
  -7   1   1 150105. 3115.52  75
  -7   1   1 157045. 3068.53  95
  -7   1   1 159400. 2814.09  81
  -7   1   1 147827. 3118.70  68
  -7   1   1 163167. 3045.30  94
  -7   1   1 158876. 3178.43  39
  -7   1   2 237048. 4184.32  68
  -7   1   2 240119. 4009.44  94
  -7   1   2 253543. 4272.32  39
  -7   1   2 237099. 4053.52  75
  -7   1   2 252498. 3904.47  95
  -7   1   2 245918. 4121.51  85
  -7   1   3 155890. 3326.89  68
  -7   1   3 154159. 2901.00  52
  -7   1   3 161764. 3130.42  85
  -7   1   3 162835. 3197.30  94
  -7   1   3 165387. 3356.57  39
  -7   1   3 162235. 3155.34  75
  -7   1   4 28409.1 1265.11  35
  -7   1   4 26909.2 1164.55  75
  -7   1   4 28043.0 1158.27  85
  -7   1   4 28168.8 1243.70  94
  -7   1   4 27224.6 1327.86  68
  -7   1   4 28357.4 1289.69  39
  -7   1   5 96068.4 2176.73  75
  -7   1   5 95125.8 2351.95  94
  -7   1   5 92682.3 2541.74  68
  -7   1   5 93257.4 2439.41  35
  -7   1   5 95712.4 2396.51  39
  -7   1   6 127991. 2677.42  94
  -7   1   6 134586. 2821.28  92
  -7   1   6 125987. 2854.54  35
  -7   1   6 122470. 2604.69  39
  -7   1   6 115319. 2849.77  68
  -7   1   7 204813. 3183.21  39
  -7   1   7 200691. 3304.00  94
  -7   1   7 198723. 3579.07  35
  -7   1   7 208804. 3532.10  92
  -7   1   8 73044.3 1597.96  94
  -7   1   8 71674.1 1789.59  92
  -7   1   8 68418.6 1789.95  35
  -7   1   9 30270.9 977.808  35
  -7   1   9 33512.6 1007.69  92
  -7   2  -6 47645.6 1199.63  37
  -7   2  -5 41396.7 1319.46  37
  -7   2  -5 42565.4 1316.41  86
  -7   2  -4 24818.8 1110.63  37
  -7   2  -4 22789.6 1051.32  86
  -7   2  -4 23026.8 960.514  52
  -7   2  -4 22174.2 954.774  95
  -7   2  -3 178801. 3318.51  52
  -7   2  -3 184322. 3400.54  37
  -7   2  -3 185749. 3406.80  81
  -7   2  -3 177070. 3320.48  95
  -7   2  -3 185866. 3402.39  86
  -7   2  -2 142435. 2962.45  81
  -7   2  -2 145008. 2843.29  85
  -7   2  -2 143519. 3053.02  52
  -7   2  -2 137580. 2869.42  37
  -7   2  -2 126721. 2809.50  68
  -7   2  -2 128683. 2864.51  25
  -7   2  -2 136455. 2882.93  86
  -7   2  -2 150710. 3103.70  95
  -7   2  -1 39274.2 1524.96  25
  -7   2  -1 42286.5 1444.86  37
  -7   2  -1 41885.6 1481.60  75
  -7   2  -1 42465.5 1616.82  52
  -7   2  -1 34956.4 1422.67  68
  -7   2  -1 47554.0 1645.59  85
  -7   2  -1 36477.3 1424.41  81
  -7   2  -1 37761.1 1394.14  86
  -7   2  -1 38509.6 1532.78  95
  -7   2   0 95840.2 2191.56  86
  -7   2   0 92653.0 2264.01  39
  -7   2   0 94117.6 2462.68  85
  -7   2   0 97219.1 2483.97  25
  -7   2   0 90685.8 2403.53  68
  -7   2   0 102065. 2473.94  75
  -7   2   0 97039.4 2469.13  95
  -7   2   0 100897. 2557.58  52
  -7   2   1 82057.9 2278.85  85
  -7   2   1 78807.7 2150.00  95
  -7   2   1 82584.4 2244.07  52
  -7   2   1 80493.9 2020.66  94
  -7   2   1 82525.5 2239.15  75
  -7   2   1 79245.6 2172.34  39
  -7   2   1 77541.7 2228.50  68
  -7   2   2 179562. 3275.45  95
  -7   2   2 182349. 3354.65  52
  -7   2   2 181963. 3492.16  85
  -7   2   2 182679. 3330.75  94
  -7   2   2 169563. 3383.71  75
  -7   2   2 180916. 3490.40  39
  -7   2   3 229607. 3716.49  52
  -7   2   3 227495. 4190.05  68
  -7   2   3 241007. 4048.71  85
  -7   2   3 245871. 4055.06  94
  -7   2   3 239154. 4061.14  75
  -7   2   3 231480. 3661.02  95
  -7   2   3 248410. 4223.00  39
  -7   2   4 127206. 2747.54  75
  -7   2   4 130334. 2713.57  85
  -7   2   4 129188. 2883.68  39
  -7   2   4 130366. 2812.79  94
  -7   2   4 136688. 2789.18  35
  -7   2   4 135012. 2730.28  92
  -7   2   4 123757. 2951.64  68
  -7   2   5 40115.8 1317.25  85
  -7   2   5 39339.9 1430.62  92
  -7   2   5 39353.9 1462.40  35
  -7   2   5 37694.8 1350.91  75
  -7   2   5 40166.4 1472.46  94
  -7   2   5 40132.2 1473.26  39
  -7   2   5 36989.7 1535.75  68
  -7   2   6 41137.5 1584.84  68
  -7   2   6 43295.6 1322.01  75
  -7   2   6 45837.4 1524.20  92
  -7   2   6 44986.0 1471.43  39
  -7   2   6 44422.6 1490.99  94
  -7   2   6 41399.3 1495.69  35
  -7   2   7 66406.5 1623.53  39
  -7   2   7 63891.4 1686.93  94
  -7   2   7 62296.3 1761.62  35
  -7   2   7 63593.9 1732.46  92
  -7   2   8 113523. 2204.52  92
  -7   2   8 112411. 2034.73  94
  -7   2   8 108098. 2195.35  35
  -7   2   9 82995.1 1586.02  45
  -7   2   9 80894.6 1584.72  92
  -7   3  -4 43801.1 1143.55  52
  -7   3  -4 42417.5 1110.17  95
  -7   3  -4 46234.2 1337.26  37
  -7   3  -3 63495.5 1718.25  86
  -7   3  -3 61391.8 1652.75  52
  -7   3  -3 63190.8 1719.77  37
  -7   3  -3 58350.4 1468.30  80
  -7   3  -3 62833.2 1665.67  95
  -7   3  -2 177912. 3287.14  95
  -7   3  -2 171184. 3094.00  37
  -7   3  -2 173085. 3152.72  86
  -7   3  -2 179200. 3313.97  52
  -7   3  -2 168745. 2896.48  85
  -7   3  -2 169867. 3099.51  80
  -7   3  -1 113694. 2511.56  85
  -7   3  -1 116683. 2682.59  52
  -7   3  -1 115774. 2401.97  75
  -7   3  -1 104453. 2365.13  86
  -7   3  -1 104260. 2378.65  25
  -7   3  -1 114826. 2637.56  95
  -7   3  -1 98521.5 2409.24  68
  -7   3  -1 107699. 2318.45  37
  -7   3   0 56052.6 1827.79  52
  -7   3   0 49364.2 1518.81  86
  -7   3   0 53229.2 1761.60  95
  -7   3   0 47104.6 1656.48  68
  -7   3   0 57369.5 1803.79  85
  -7   3   0 53274.3 1693.40  75
  -7   3   0 50938.9 1634.53  25
  -7   3   0 52935.4 1578.29  39
  -7   3   1 117932. 2690.27  75
  -7   3   1 108103. 2629.79  68
  -7   3   1 111748. 2540.43  25
  -7   3   1 119575. 2715.86  52
  -7   3   1 124239. 2799.13  85
  -7   3   1 120287. 2695.19  95
  -7   3   1 112668. 2561.77  39
  -7   3   2 65726.9 1957.91  39
  -7   3   2 69947.6 1867.68  94
  -7   3   2 64724.1 1958.72  85
  -7   3   2 64270.4 1863.78  52
  -7   3   2 60246.9 1802.67  95
  -7   3   2 67044.9 1983.36  75
  -7   3   3 168291. 3255.80  85
  -7   3   3 173567. 3320.25  75
  -7   3   3 167563. 3184.11  94
  -7   3   3 165514. 3004.93  52
  -7   3   3 165686. 2991.72  95
  -7   3   3 173654. 3367.69  39
  -7   3   4 125872. 2780.41  39
  -7   3   4 128050. 2717.86  94
  -7   3   4 124217. 2660.65  75
  -7   3   5 61705.3 1788.04  94
  -7   3   5 61187.0 1794.95  39
  -7   3   5 60338.9 1622.89  85
  -7   3   5 58615.9 1637.75  92
  -7   3   5 58497.7 1689.03  75
  -7   3   6 49535.8 1404.69  75
  -7   3   6 45780.7 1422.44  39
  -7   3   6 47972.7 1496.42  94
  -7   3   6 46108.5 1420.56  92
  -7   3   7 28011.8 1047.70  92
  -7   3   7 29166.0 978.621  39
  -7   3   7 28483.9 1053.07  94
  -7   3   8 80263.4 1519.99  45
  -7   3   8 75433.8 1634.64  92
  -7   3   8 76825.4 1575.75  94
  -7   3   9 93798.3 1585.55  92
  -7   3   9 96929.1 1667.33  34
  -7   4  -3 35943.0 987.630  95
  -7   4  -3 35316.8 1002.97  52
  -7   4  -2 61330.6 1518.73  80
  -7   4  -2 62007.3 1602.80  52
  -7   4  -2 62755.4 1607.65  95
  -7   4  -1 220843. 3362.21  85
  -7   4  -1 224782. 3622.04  95
  -7   4   0 81769.1 2088.79  52
  -7   4   0 80881.9 2014.62  85
  -7   4   0 76594.3 2002.00  95
  -7   4   0 85019.2 2157.78  80
  -7   4   0 75975.7 1740.21  39
  -7   4   0 81169.3 1922.33  75
  -7   4   1 72877.1 1926.45  75
  -7   4   1 71692.2 1855.66  39
  -7   4   1 72985.1 1950.18  95
  -7   4   1 77314.9 2043.41  85
  -7   4   2 25905.0 1134.23  39
  -7   4   2 27419.7 1173.00  85
  -7   4   2 27499.3 1171.44  75
  -7   4   2 25134.0 1073.96  95
  -7   4   2 29877.2 1170.86  52
  -7   4   3 51672.8 1473.37  95
  -7   4   3 51341.6 1626.52  39
  -7   4   3 51383.6 1497.83  94
  -7   4   3 51577.6 1621.77  75
  -7   4   3 50146.6 1436.68  52
  -7   4   3 51076.8 1603.05  85
  -7   4   4 107830. 2301.31  94
  -7   4   4 103058. 2283.75  85
  -7   4   4 109627. 2425.73  39
  -7   4   4 109569. 2377.58  75
  -7   4   5 111169. 2292.46  75
  -7   4   5 111204. 2307.78  94
  -7   4   5 110138. 2321.78  39
  -7   4   5 103885. 2112.63  85
  -7   4   6 77857.8 1751.30  39
  -7   4   6 78835.5 1834.80  94
  -7   4   6 82802.2 1829.60  34
  -7   4   6 76323.8 1682.25  75
  -7   4   6 77187.0 1643.81  92
  -7   4   7 28933.5 979.657  34
  -7   4   7 28455.0 963.045  94
  -7   4   7 27351.5 887.446  92
  -7   4   7 27678.5 855.423  39
  -7   4   8 39868.2 1021.37  34
  -7   4   8 39950.0 977.106  92
  -7   4   8 38489.5 963.994  94
  -7   5  -2 16340.9 585.568  52
  -7   5  -1 78137.9 1594.62  80
  -7   5  -1 76670.5 1603.63  95
  -7   5  -1 79105.5 1635.96  52
  -7   5   0 105755. 2119.58  80
  -7   5   0 109435. 2110.01  52
  -7   5   0 106509. 1973.84  85
  -7   5   0 105693. 2066.33  95
  -7   5   1 58171.0 1520.80  85
  -7   5   1 57958.9 1377.06  39
  -7   5   1 56910.3 1498.33  95
  -7   5   1 59076.8 1523.88  52
  -7   5   1 59411.3 1445.63  75
  -7   5   1 57719.2 1588.55  80
  -7   5   2 50863.0 1357.42  52
  -7   5   2 52556.6 1522.62  80
  -7   5   2 49635.0 1438.61  85
  -7   5   2 49407.1 1354.61  95
  -7   5   2 48102.1 1384.67  75
  -7   5   2 45978.8 1328.30  39
  -7   5   3 25061.0 882.857  95
  -7   5   3 26196.4 876.087  52
  -7   5   3 26972.7 1027.44  85
  -7   5   3 25820.6 1006.64  39
  -7   5   3 26392.1 1036.77  80
  -7   5   3 26968.2 1032.61  75
  -7   5   4 48306.4 1358.34  75
  -7   5   4 47458.2 1319.15  80
  -7   5   4 44645.6 1281.66  85
  -7   5   4 46159.5 1349.45  39
  -7   5   4 43950.9 1202.85  94
  -7   5   5 91988.1 1691.42  80
  -7   5   5 94415.1 1858.68  75
  -7   5   5 93320.7 1888.28  39
  -7   5   5 91908.2 1749.01  85
  -7   5   5 93411.0 1831.99  94
  -7   5   6 124760. 2088.51  94
  -7   5   6 125468. 1981.85  75
  -7   5   6 126003. 2038.78  39
  -7   5   7 67054.9 1323.35  94
  -7   6   1 81356.6 1433.77  80
  -7   6   2 64986.3 1300.82  85
  -7   6   2 63030.8 1285.34  80
  -7   6   3 83884.0 1539.94  85
  -7   6   3 85324.9 1523.96  75
  -7   6   3 83872.9 1466.30  80
  -7   6   4 15944.7 575.929  85
  -7   6   4 15389.6 586.781  75
  -6 -11  -6 71359.7 1391.24  86
  -6 -11  -6 68137.6 1281.90  81
  -6 -11  -6 72098.3 1305.50  46
  -6 -11  -6 69415.9 1246.18  37
  -6 -11  -5 108265. 1867.11  37
  -6 -11  -5 102531. 1674.35  81
  -6 -11  -5 110542. 1768.61  46
  -6 -11  -5 104469. 1881.39  86
  -6 -11  -4 17743.9 751.126  37
  -6 -11  -4 15973.8 685.772  86
  -6 -11  -3 20117.3 750.955  86
  -6 -11  -3 21387.6 856.945  37
  -6 -11  -2 50196.9 1106.48  86
  -6 -11  -2 51360.0 1344.74  37
  -6 -11  -1 67499.8 1478.03  37
  -6 -10  -8 21070.0 706.590  81
  -6 -10  -8 19708.8 631.890  89
  -6 -10  -8 20478.7 653.182  86
  -6 -10  -8 22203.1 711.513  46
  -6 -10  -7 31049.7 899.207  89
  -6 -10  -7 33584.4 1008.59  46
  -6 -10  -7 33479.3 1034.78  81
  -6 -10  -7 32642.4 888.151  37
  -6 -10  -7 33504.1 1025.60  86
  -6 -10  -6 28803.6 999.662  37
  -6 -10  -6 28448.3 904.396  89
  -6 -10  -6 29776.1 1042.45  81
  -6 -10  -6 30923.0 1090.96  86
  -6 -10  -6 30628.4 1031.91  46
  -6 -10  -5 118077. 2381.42  37
  -6 -10  -5 121059. 2430.47  86
  -6 -10  -5 115469. 2272.82  81
  -6 -10  -5 124917. 2454.67  74
  -6 -10  -5 120358. 2292.35  46
  -6 -10  -4 109194. 2396.36  37
  -6 -10  -4 110396. 2205.74  46
  -6 -10  -4 110289. 2362.76  86
  -6 -10  -4 113969. 2394.50  74
  -6 -10  -4 104046. 2102.46  81
  -6 -10  -3 29504.3 1155.05  86
  -6 -10  -3 32666.8 1229.39  74
  -6 -10  -3 30425.2 1068.68  46
  -6 -10  -2 18670.4 864.382  86
  -6 -10  -2 21232.9 970.384  31
  -6 -10  -2 19825.4 923.123  74
  -6  -9  -9 120605. 1710.24  86
  -6  -9  -9 121675. 1924.01  46
  -6  -9  -9 116586. 1825.28  77
  -6  -9  -9 120650. 1900.61  89
  -6  -9  -9 122492. 1912.55  81
  -6  -9  -8 78134.2 1635.09  86
  -6  -9  -8 76513.0 1638.54  89
  -6  -9  -8 74936.9 1560.51  77
  -6  -9  -8 79804.7 1725.91  81
  -6  -9  -8 77934.9 1679.51  46
  -6  -9  -7 47348.2 1408.08  86
  -6  -9  -7 41414.7 1177.68  77
  -6  -9  -7 49829.5 1427.51  46
  -6  -9  -7 44512.0 1305.98  89
  -6  -9  -7 45574.8 1359.50  74
  -6  -9  -7 45553.0 1277.44  37
  -6  -9  -7 43449.2 1374.70  81
  -6  -9  -6 33555.5 1239.78  37
  -6  -9  -6 34496.9 1284.95  81
  -6  -9  -6 32964.1 1151.37  89
  -6  -9  -6 35692.2 1301.94  74
  -6  -9  -6 34742.0 1301.56  86
  -6  -9  -6 34253.4 1241.72  46
  -6  -9  -5 35549.2 1195.43  89
  -6  -9  -5 36517.2 1359.06  81
  -6  -9  -5 38883.9 1367.19  46
  -6  -9  -5 39018.8 1450.06  74
  -6  -9  -5 34702.9 1362.58  37
  -6  -9  -5 40156.4 1475.05  86
  -6  -9  -4 87203.2 2176.61  70
  -6  -9  -4 93260.0 2353.90  86
  -6  -9  -4 89463.3 2173.97  81
  -6  -9  -4 93425.1 2219.80  46
  -6  -9  -4 91963.7 2377.21  37
  -6  -9  -3 81396.2 2005.55  46
  -6  -9  -3 81090.1 2240.72  31
  -6  -9  -3 80566.8 2201.76  74
  -6  -9  -3 77091.6 2114.86  86
  -6  -9  -3 74474.4 1863.89  81
  -6  -9  -3 73714.0 2094.85  18
  -6  -9  -2 45862.3 1643.68  70
  -6  -9  -2 47616.5 1698.13  18
  -6  -9  -2 54609.5 1776.49  74
  -6  -9  -2 57520.1 1829.71  31
  -6  -9  -2 47359.1 1586.53  86
  -6  -9  -1 36658.8 1381.32  31
  -6  -9  -1 34190.4 1429.08  18
  -6  -9  -1 34463.8 1419.52  70
  -6  -9  -1 35788.1 1271.81  86
  -6  -9  -1 35356.2 1352.19  74
  -6  -8 -10 18028.8 625.427  77
  -6  -8 -10 17733.8 603.282  46
  -6  -8 -10 17876.1 615.071  89
  -6  -8  -9 55714.2 1374.41  46
  -6  -8  -9 56146.9 1233.35  86
  -6  -8  -9 57904.6 1402.64  89
  -6  -8  -9 55627.8 1351.70  81
  -6  -8  -9 55802.7 1393.26  77
  -6  -8  -8 148956. 2688.49  81
  -6  -8  -8 147271. 2592.33  86
  -6  -8  -8 141270. 2612.84  77
  -6  -8  -8 150347. 2667.26  46
  -6  -8  -8 146835. 2559.69  74
  -6  -8  -8 151450. 2682.22  89
  -6  -8  -7 81859.6 1919.32  37
  -6  -8  -7 77574.5 1917.45  77
  -6  -8  -7 83736.5 2038.62  74
  -6  -8  -7 79788.5 1991.88  46
  -6  -8  -7 83705.9 2057.90  86
  -6  -8  -7 79203.4 1957.48  89
  -6  -8  -7 80571.8 2062.03  81
  -6  -8  -6 14245.3 865.276  81
  -6  -8  -6 15145.8 872.293  37
  -6  -8  -6 15282.5 902.262  86
  -6  -8  -6 12952.8 793.947  72
  -6  -8  -6 14627.5 787.979  77
  -6  -8  -6 15884.8 882.270  46
  -6  -8  -6 14787.2 824.196  89
  -6  -8  -6 16864.0 934.907  74
  -6  -8  -5 41082.0 1549.27  37
  -6  -8  -5 41171.4 1385.47  89
  -6  -8  -5 39500.8 1451.61  72
  -6  -8  -5 42058.9 1488.12  46
  -6  -8  -5 41807.8 1526.96  81
  -6  -8  -5 39852.4 1532.33  86
  -6  -8  -4 23612.5 1187.20  86
  -6  -8  -4 27064.4 1194.06  18
  -6  -8  -4 26022.4 1154.95  46
  -6  -8  -4 27092.1 1285.10  74
  -6  -8  -4 27256.1 1179.18  70
  -6  -8  -4 29283.1 1247.33  81
  -6  -8  -4 23354.3 1201.37  37
  -6  -8  -4 24905.3 1168.65  72
  -6  -8  -3 205281. 3745.86  72
  -6  -8  -3 211752. 3594.61  81
  -6  -8  -3 229646. 4151.70  31
  -6  -8  -3 228576. 3711.26  46
  -6  -8  -3 225513. 4049.22  74
  -6  -8  -3 220179. 3879.03  18
  -6  -8  -3 209044. 3846.43  86
  -6  -8  -3 205851. 3737.98  70
  -6  -8  -2 141284. 3065.80  18
  -6  -8  -2 134738. 2956.46  72
  -6  -8  -2 154563. 3217.24  74
  -6  -8  -2 155420. 3236.77  31
  -6  -8  -2 143082. 2974.60  86
  -6  -8  -2 138282. 3003.40  70
  -6  -8  -2 129470. 3144.23  24
  -6  -8  -1 58524.3 1737.93  86
  -6  -8  -1 71517.9 2059.61  31
  -6  -8  -1 60525.3 1933.81  70
  -6  -8  -1 57012.5 1832.73  72
  -6  -8  -1 60620.4 2049.24  24
  -6  -8  -1 68304.1 2000.98  74
  -6  -8  -1 63140.5 1987.99  18
  -6  -8   0 46925.2 1778.87  24
  -6  -8   0 44574.8 1608.36  72
  -6  -8   1 88637.1 2477.93  24
  -6  -8   1 86286.7 2266.83  72
  -6  -8   2 139692. 3096.41  24
  -6  -7 -10 32460.5 824.538  81
  -6  -7 -10 31920.4 934.933  89
  -6  -7 -10 31841.1 915.891  46
  -6  -7 -10 32861.4 974.943  77
  -6  -7  -9 2470.60 304.258  77
  -6  -7  -9 2178.00 265.754  81
  -6  -7  -9 2241.43 275.655  46
  -6  -7  -9 2608.89 266.905  86
  -6  -7  -9 2314.18 286.481  89
  -6  -7  -8 53776.2 1627.69  77
  -6  -7  -8 56779.2 1433.08  37
  -6  -7  -8 55634.7 1611.91  46
  -6  -7  -8 54099.8 1541.83  86
  -6  -7  -8 55411.6 1555.98  74
  -6  -7  -8 56544.8 1633.72  81
  -6  -7  -8 54101.5 1593.53  89
  -6  -7  -7 136242. 2797.06  89
  -6  -7  -7 146520. 2892.53  46
  -6  -7  -7 135477. 2819.86  77
  -6  -7  -7 147487. 2781.73  37
  -6  -7  -7 146140. 2961.59  81
  -6  -7  -7 141523. 2865.88  86
  -6  -7  -7 149731. 2918.35  74
  -6  -7  -7 129164. 2780.81  72
  -6  -7  -6 103762. 2497.98  74
  -6  -7  -6 102597. 2439.83  37
  -6  -7  -6 99769.8 2468.84  81
  -6  -7  -6 104364. 2287.05  95
  -6  -7  -6 105014. 2432.30  46
  -6  -7  -6 97960.5 2438.45  72
  -6  -7  -6 101747. 2356.48  89
  -6  -7  -6 105202. 2525.63  86
  -6  -7  -6 96755.8 2302.70  77
  -6  -7  -5 140804. 3013.01  72
  -6  -7  -5 143752. 2811.73  89
  -6  -7  -5 149287. 3147.63  74
  -6  -7  -5 142861. 3026.84  81
  -6  -7  -5 140269. 3037.37  37
  -6  -7  -5 150363. 3133.61  86
  -6  -7  -5 148290. 2948.01  46
  -6  -7  -4 16506.1 988.449  37
  -6  -7  -4 16633.1 933.331  81
  -6  -7  -4 15593.8 949.725  74
  -6  -7  -4 15255.5 938.809  72
  -6  -7  -4 16588.3 907.673  46
  -6  -7  -4 15385.3 939.358  86
  -6  -7  -3 71376.7 2103.72  72
  -6  -7  -3 75501.4 1970.71  81
  -6  -7  -3 73913.6 1996.25  18
  -6  -7  -3 71871.3 2118.65  74
  -6  -7  -3 68950.0 2011.11  86
  -6  -7  -3 74204.3 1912.90  46
  -6  -7  -3 72699.3 1961.66  70
  -6  -7  -2 225552. 4079.04  72
  -6  -7  -2 233331. 4032.84  74
  -6  -7  -2 239608. 3979.69  18
  -6  -7  -2 246419. 4185.89  31
  -6  -7  -2 234777. 3920.40  86
  -6  -7  -2 237382. 4284.05  24
  -6  -7  -2 224238. 3851.35  70
  -6  -7  -1 188839. 3450.78  74
  -6  -7  -1 181572. 3473.39   9
  -6  -7  -1 173058. 3542.00  72
  -6  -7  -1 189996. 3474.53  31
  -6  -7  -1 172643. 3158.56  86
  -6  -7  -1 185162. 3685.42  24
  -6  -7   0 101699. 2647.37  24
  -6  -7   0 96998.5 2306.14  65
  -6  -7   0 97021.3 2572.51  72
  -6  -7   0 102199. 2588.25   9
  -6  -7   1 43373.4 1705.72  24
  -6  -7   1 39480.1 1614.57  72
  -6  -7   2 73103.6 2265.90  24
  -6  -7   2 68094.5 2165.71  72
  -6  -7   3 50352.0 1826.72  72
  -6  -7   3 54776.2 1930.24  24
  -6  -6 -10 73132.6 1572.27  89
  -6  -6 -10 74662.7 1615.47  77
  -6  -6 -10 76828.0 1378.62  81
  -6  -6 -10 72694.3 1540.73  46
  -6  -6  -9 31057.5 1168.90  77
  -6  -6  -9 30351.3 985.069  86
  -6  -6  -9 28860.9 1078.17  46
  -6  -6  -9 29945.5 1052.35  81
  -6  -6  -9 29412.1 1099.47  89
  -6  -6  -9 30856.3 1021.15  74
  -6  -6  -8 23216.8 1045.73  46
  -6  -6  -8 22891.5 1037.55  81
  -6  -6  -8 23397.0 1067.78  89
  -6  -6  -8 23711.8 938.332  37
  -6  -6  -8 23839.2 1028.72  74
  -6  -6  -8 22238.1 991.496  86
  -6  -6  -8 26435.7 1170.74  77
  -6  -6  -7 88318.2 2121.47  37
  -6  -6  -7 88942.5 2219.39  86
  -6  -6  -7 80390.1 2179.98  72
  -6  -6  -7 84733.9 2245.13  77
  -6  -6  -7 87036.1 2233.90  81
  -6  -6  -7 88281.9 2210.43  74
  -6  -6  -7 87100.7 2178.83  46
  -6  -6  -6 173446. 3245.00  37
  -6  -6  -6 160533. 2929.52  95
  -6  -6  -6 164963. 3187.38  77
  -6  -6  -6 157962. 3209.21  86
  -6  -6  -6 161098. 3099.39  89
  -6  -6  -6 171207. 3291.51  74
  -6  -6  -6 168302. 3170.44  46
  -6  -6  -6 166904. 3282.89  81
  -6  -6  -6 155065. 3210.82  72
  -6  -6  -5 192516. 3550.75  74
  -6  -6  -5 182313. 3474.02  86
  -6  -6  -5 180498. 3247.84  77
  -6  -6  -5 192109. 3533.06  37
  -6  -6  -5 184156. 3244.11  89
  -6  -6  -5 188585. 3483.69  81
  -6  -6  -5 184238. 3534.40  72
  -6  -6  -5 180834. 3278.64  46
  -6  -6  -4 231259. 4033.06  72
  -6  -6  -4 218993. 3733.77  81
  -6  -6  -4 214091. 3796.10  86
  -6  -6  -4 215054. 3855.41  37
  -6  -6  -4 228502. 3631.27  46
  -6  -6  -4 225034. 3913.49  74
  -6  -6  -3 13745.5 785.386  81
  -6  -6  -3 11831.8 809.163  37
  -6  -6  -3 13824.3 850.323  74
  -6  -6  -3 11706.7 769.416  86
  -6  -6  -3 12898.2 864.334  72
  -6  -6  -3 13077.1 866.654  24
  -6  -6  -2 146197. 2856.83  86
  -6  -6  -2 152155. 3204.95  72
  -6  -6  -2 147078. 3110.82  24
  -6  -6  -2 156503. 3028.05  74
  -6  -6  -2 149769. 2961.36   3
  -6  -6  -1 167099. 3200.89   9
  -6  -6  -1 160574. 2875.83  86
  -6  -6  -1 163602. 3048.89  31
  -6  -6  -1 165839. 3303.02  24
  -6  -6  -1 161320. 2998.72  74
  -6  -6  -1 163542. 3353.96  72
  -6  -6   0 112308. 2539.95   3
  -6  -6   0 118893. 2784.48  24
  -6  -6   0 114659. 2794.71  72
  -6  -6   0 126446. 2831.43   9
  -6  -6   0 121989. 2504.72  65
  -6  -6   1 98741.8 2310.87  65
  -6  -6   1 95670.8 2375.57  15
  -6  -6   1 97732.4 2620.30  72
  -6  -6   2 28381.0 1219.33  65
  -6  -6   2 28409.9 1397.40  72
  -6  -6   2 29918.5 1381.39   9
  -6  -6   2 26786.5 1260.03  15
  -6  -6   3 65705.6 2078.70  15
  -6  -6   3 67783.8 2236.56  72
  -6  -6   4 64380.2 2192.08  72
  -6  -6   4 61708.1 2031.63  15
  -6  -6   5 64430.0 2140.81  72
  -6  -5 -10 80601.3 1663.58  46
  -6  -5 -10 84697.1 1725.04  89
  -6  -5 -10 84786.0 1759.08  77
  -6  -5 -10 82265.9 1758.37  91
  -6  -5  -9 139750. 2696.64  77
  -6  -5  -9 133181. 2576.75  89
  -6  -5  -9 139183. 2418.25  74
  -6  -5  -9 138187. 2587.78  46
  -6  -5  -9 133813. 2387.75  76
  -6  -5  -9 137238. 2450.83  81
  -6  -5  -9 136157. 2318.01  86
  -6  -5  -8 44167.5 1517.01  89
  -6  -5  -8 42685.6 1399.81  86
  -6  -5  -8 44230.0 1348.55  37
  -6  -5  -8 38691.8 1359.64  14
  -6  -5  -8 44381.7 1560.14  77
  -6  -5  -8 45982.5 1468.96  74
  -6  -5  -8 43978.4 1458.29  81
  -6  -5  -8 41048.2 1442.07  72
  -6  -5  -8 43468.7 1474.30  46
  -6  -5  -7 71058.6 1975.85  74
  -6  -5  -7 65593.6 1946.00  72
  -6  -5  -7 69170.7 1953.76  46
  -6  -5  -7 68600.4 1963.12  81
  -6  -5  -7 66259.0 1883.37  14
  -6  -5  -7 70087.1 1939.45  86
  -6  -5  -7 72050.4 1900.08  37
  -6  -5  -7 67698.0 2012.78  77
  -6  -5  -7 68484.1 1956.07  89
  -6  -5  -6 110141. 2507.22  37
  -6  -5  -6 109158. 2591.21  72
  -6  -5  -6 112776. 2511.68  89
  -6  -5  -6 113500. 2606.94  77
  -6  -5  -6 107564. 2529.82  74
  -6  -5  -6 110462. 2475.70  46
  -6  -5  -6 111877. 2586.99  81
  -6  -5  -6 112158. 2573.99  86
  -6  -5  -5 165692. 3028.86  46
  -6  -5  -5 177573. 3093.38  89
  -6  -5  -5 166541. 3260.67  72
  -6  -5  -5 172344. 3148.39  77
  -6  -5  -5 160381. 3164.70  86
  -6  -5  -5 154197. 3110.28  37
  -6  -5  -5 164527. 3182.56  81
  -6  -5  -5 160207. 2999.42  95
  -6  -5  -5 163320. 3190.83  74
  -6  -5  -4 333459. 4462.02  46
  -6  -5  -4 322567. 4732.52  74
  -6  -5  -4 329890. 4467.79  60
  -6  -5  -4 333386. 4463.34  77
  -6  -5  -4 323014. 4634.17  81
  -6  -5  -4 312216. 4790.16  72
  -6  -5  -4 301063. 4673.46  37
  -6  -5  -4 297784. 4427.65   3
  -6  -5  -4 327237. 4742.68  86
  -6  -5  -3 86730.7 2027.18   5
  -6  -5  -3 89550.0 2190.43  24
  -6  -5  -3 88045.0 2186.50  37
  -6  -5  -3 96098.6 2251.57  74
  -6  -5  -3 88626.9 2116.67   3
  -6  -5  -3 88685.0 2289.06  72
  -6  -5  -3 86409.5 2096.04  86
  -6  -5  -2 51961.6 1552.40  74
  -6  -5  -2 47078.8 1519.85   3
  -6  -5  -2 49954.6 1684.02  72
  -6  -5  -2 49097.4 1432.93   5
  -6  -5  -2 47465.7 1552.05  24
  -6  -5  -1 93573.6 2256.96  24
  -6  -5  -1 95494.7 1974.66  65
  -6  -5  -1 95976.1 2391.10  72
  -6  -5  -1 96283.2 2062.07  74
  -6  -5  -1 90805.6 2004.43   5
  -6  -5   0 79828.3 2059.65   3
  -6  -5   0 89256.4 2250.13   9
  -6  -5   0 86611.6 2293.47  72
  -6  -5   0 83271.1 2174.45  15
  -6  -5   0 85964.7 1961.90  65
  -6  -5   1 107822. 2456.31   3
  -6  -5   1 113207. 2672.44  15
  -6  -5   1 116128. 2708.95   9
  -6  -5   1 117627. 2812.24  72
  -6  -5   1 117851. 2434.52  65
  -6  -5   2 77165.5 2003.88  65
  -6  -5   2 67905.9 1915.48   3
  -6  -5   2 73994.4 2256.68  72
  -6  -5   2 69567.0 2155.41  15
  -6  -5   3 69729.3 2273.15  15
  -6  -5   3 77664.2 2402.70  72
  -6  -5   4 134298. 3334.92  72
  -6  -5   4 137485. 3373.55  15
  -6  -5   5 120285. 3145.64  15
  -6  -5   6 59274.7 2080.12  15
  -6  -4 -10 60368.9 1346.84  40
  -6  -4 -10 60187.3 1442.69  91
  -6  -4 -10 56403.4 1373.99  89
  -6  -4  -9 186586. 3214.02  91
  -6  -4  -9 186323. 2879.54  81
  -6  -4  -9 179619. 3062.15  46
  -6  -4  -9 175620. 3072.91  89
  -6  -4  -9 183868. 2883.65  74
  -6  -4  -9 181600. 3159.36  77
  -6  -4  -9 183408. 3012.50  40
  -6  -4  -9 179687. 2734.95  86
  -6  -4  -8 116298. 2623.48  77
  -6  -4  -8 101676. 2318.17  81
  -6  -4  -8 125317. 2476.04  86
  -6  -4  -8 115624. 2287.78  37
  -6  -4  -8 108715. 2378.57  74
  -6  -4  -8 110265. 2479.45  46
  -6  -4  -8 113169. 2527.16  89
  -6  -4  -8 97032.8 2340.64  14
  -6  -4  -8 104000. 2330.90  72
  -6  -4  -8 108139. 2330.49  76
  -6  -4  -8 107835. 2363.86  40
  -6  -4  -7 73334.6 1914.71  40
  -6  -4  -7 66957.4 1977.49  14
  -6  -4  -7 77126.3 2087.35  89
  -6  -4  -7 76903.4 2060.38  74
  -6  -4  -7 73482.9 2021.72  46
  -6  -4  -7 76458.6 2025.15  86
  -6  -4  -7 76363.4 1976.14  37
  -6  -4  -7 69895.8 1973.81  72
  -6  -4  -7 74151.1 2033.53  81
  -6  -4  -7 76198.2 2153.66  77
  -6  -4  -6 52296.4 1665.98  37
  -6  -4  -6 53052.8 1747.03  77
  -6  -4  -6 52828.5 1642.84  46
  -6  -4  -6 53640.4 1723.56  81
  -6  -4  -6 52278.1 1690.58  74
  -6  -4  -6 51650.1 1646.73  89
  -6  -4  -6 50562.5 1658.48  86
  -6  -4  -6 51287.3 1680.08  72
  -6  -4  -5 140071. 2859.43  77
  -6  -4  -5 139216. 2861.25  37
  -6  -4  -5 135925. 2879.43  72
  -6  -4  -5 148662. 2934.90  74
  -6  -4  -5 142740. 2713.28  95
  -6  -4  -5 139234. 2726.73  46
  -6  -4  -5 147273. 2793.51  89
  -6  -4  -5 143366. 2892.61  86
  -6  -4  -5 146886. 2921.85  81
  -6  -4  -4 198097. 3297.24  77
  -6  -4  -4 205933. 3457.14  86
  -6  -4  -4 212545. 3514.99  74
  -6  -4  -4 207948. 3364.77  60
  -6  -4  -4 183858. 3137.26   3
  -6  -4  -4 209846. 3440.16  81
  -6  -4  -4 192643. 3417.01  37
  -6  -4  -4 199808. 3530.86  72
  -6  -4  -4 189528. 3293.22  95
  -6  -4  -3 220280. 3506.79  74
  -6  -4  -3 221114. 3322.82  60
  -6  -4  -3 219611. 3725.82  72
  -6  -4  -3 211097. 3529.52   5
  -6  -4  -3 207202. 3391.98   3
  -6  -4  -2 31596.3 1141.07  24
  -6  -4  -2 28953.2 1126.95   3
  -6  -4  -2 33135.5 1293.59  72
  -6  -4  -2 31343.2 1015.69  60
  -6  -4  -2 32455.0 1140.42  74
  -6  -4  -2 29958.7 1161.05   5
  -6  -4  -1 21874.6 952.733  24
  -6  -4  -1 22482.7 845.630  65
  -6  -4  -1 21497.1 1040.21  72
  -6  -4  -1 20962.5 960.628   5
  -6  -4  -1 22534.1 882.520  74
  -6  -4   0 145445. 2815.75   5
  -6  -4   0 154529. 3050.01  72
  -6  -4   0 152065. 3045.00  15
  -6  -4   1 170271. 2894.28  65
  -6  -4   1 153345. 3168.77  15
  -6  -4   1 148277. 2923.92   5
  -6  -4   1 164352. 3217.48  72
  -6  -4   2 317914. 5125.83  15
  -6  -4   2 313490. 4795.39   5
  -6  -4   2 348299. 4745.80  65
  -6  -4   2 335629. 5171.61  72
  -6  -4   3 43163.8 1627.11  23
  -6  -4   3 42707.3 1600.12   5
  -6  -4   3 45435.7 1795.13  15
  -6  -4   4 108309. 2985.17  15
  -6  -4   4 110958. 2861.38  23
  -6  -4   5 148680. 3642.96  15
  -6  -4   5 140768. 3368.55  23
  -6  -4   6 109700. 2915.20  23
  -6  -4   6 110703. 3091.29  15
  -6  -4   7 149280. 3215.17  27
  -6  -3 -10 16215.9 684.671  91
  -6  -3 -10 16430.0 678.291  89
  -6  -3 -10 16383.9 674.061  40
  -6  -3  -9 81684.7 1686.69  81
  -6  -3  -9 80474.0 1910.94  40
  -6  -3  -9 81938.3 1948.80  91
  -6  -3  -9 81828.1 1924.27  89
  -6  -3  -9 81611.1 1760.55  74
  -6  -3  -8 218840. 3516.97  86
  -6  -3  -8 214514. 3525.59  81
  -6  -3  -8 218546. 3750.83  89
  -6  -3  -8 226930. 3849.87  77
  -6  -3  -8 220244. 3699.67  46
  -6  -3  -8 233511. 3693.29  74
  -6  -3  -8 233468. 3507.36  37
  -6  -3  -8 225383. 3761.97  40
  -6  -3  -8 226357. 3826.09  91
  -6  -3  -7 202345. 3587.49  74
  -6  -3  -7 203297. 3451.14  76
  -6  -3  -7 194693. 3414.79  37
  -6  -3  -7 174435. 3179.88  21
  -6  -3  -7 205064. 3551.80  86
  -6  -3  -7 211276. 3800.32  77
  -6  -3  -7 197128. 3400.24  72
  -6  -3  -7 188133. 3504.47  46
  -6  -3  -7 202135. 3553.72  81
  -6  -3  -7 211368. 3698.10  89
  -6  -3  -7 183548. 3548.69  14
  -6  -3  -7 197996. 3545.59  40
  -6  -3  -6 48859.2 1599.89  46
  -6  -3  -6 47660.8 1601.39  89
  -6  -3  -6 47117.9 1550.68  40
  -6  -3  -6 45157.5 1584.15  74
  -6  -3  -6 47989.6 1571.90  72
  -6  -3  -6 51746.4 1732.61  77
  -6  -3  -6 48837.6 1636.47  81
  -6  -3  -6 47681.2 1608.60  86
  -6  -3  -6 48123.0 1603.41  37
  -6  -3  -5 6868.46 527.576  25
  -6  -3  -5 8285.43 639.246  81
  -6  -3  -5 7567.09 621.096  37
  -6  -3  -5 8536.69 598.412  95
  -6  -3  -5 7689.75 589.747  89
  -6  -3  -5 8474.67 647.140  74
  -6  -3  -5 7244.44 606.670  77
  -6  -3  -5 7472.34 566.809  40
  -6  -3  -5 8363.74 630.951  72
  -6  -3  -5 7768.79 585.002  46
  -6  -3  -4 48652.3 1519.82  86
  -6  -3  -4 44795.7 1450.93  60
  -6  -3  -4 46925.0 1485.56  81
  -6  -3  -4 47717.1 1535.36  37
  -6  -3  -4 45255.9 1439.25  95
  -6  -3  -4 43853.4 1432.13  77
  -6  -3  -4 47614.7 1514.50  72
  -6  -3  -4 45286.6 1479.41  74
  -6  -3  -3 157036. 2784.25  74
  -6  -3  -3 146890. 2906.77   5
  -6  -3  -3 153199. 2622.84  25
  -6  -3  -3 154173. 2877.20  72
  -6  -3  -3 155292. 2709.99  60
  -6  -3  -2 466999. 5820.36  72
  -6  -3  -2 469637. 5502.45  74
  -6  -3  -2 473245. 5442.38  60
  -6  -3  -1 83182.4 1715.09  74
  -6  -3  -1 78358.6 1977.88  72
  -6  -3  -1 90085.3 1826.03  24
  -6  -3  -1 86051.3 1721.05  60
  -6  -3  -1 81936.7 2032.39   5
  -6  -3   0 116721. 2155.97  65
  -6  -3   0 115622. 2466.46  72
  -6  -3   0 114379. 2545.82  15
  -6  -3   1 69741.6 1961.05   5
  -6  -3   1 74213.1 2094.24  15
  -6  -3   1 76285.3 2009.97  72
  -6  -3   2 296215. 4661.58   5
  -6  -3   2 291209. 4591.32  72
  -6  -3   2 306998. 4348.65  65
  -6  -3   2 305622. 4878.72  15
  -6  -3   3 260054. 4511.54  23
  -6  -3   3 266532. 4707.37  15
  -6  -3   4 99365.8 2815.29  15
  -6  -3   4 103187. 2487.63  65
  -6  -3   4 97003.5 2655.74   5
  -6  -3   4 100842. 2772.82  23
  -6  -3   5 125525. 3256.18  23
  -6  -3   5 124700. 3298.16  15
  -6  -3   6 54427.2 2148.50  15
  -6  -3   6 51667.5 2063.48  23
  -6  -3   7 113036. 2775.08  27
  -6  -3   7 90001.1 2673.80  23
  -6  -3   8 103087. 2507.05  27
  -6  -2 -10 80347.6 1507.19  40
  -6  -2 -10 75581.9 1439.69  89
  -6  -2 -10 76819.0 1458.21  91
  -6  -2  -9 20540.8 907.916  40
  -6  -2  -9 20368.5 886.779  89
  -6  -2  -9 20967.7 897.222  91
  -6  -2  -8 35879.7 1201.91  37
  -6  -2  -8 36118.1 1229.76  86
  -6  -2  -8 35501.1 1358.08  40
  -6  -2  -8 38004.3 1319.79  74
  -6  -2  -8 37451.4 1376.02  89
  -6  -2  -8 37076.6 1248.39  81
  -6  -2  -8 37816.0 1373.71  91
  -6  -2  -7 158050. 3097.49  74
  -6  -2  -7 147578. 2950.77  86
  -6  -2  -7 160080. 3122.03  91
  -6  -2  -7 157512. 3134.46  89
  -6  -2  -7 149875. 3103.11  77
  -6  -2  -7 155744. 3140.39  40
  -6  -2  -7 156958. 3005.60  37
  -6  -2  -7 153380. 2989.10  81
  -6  -2  -6 97060.2 2306.90  25
  -6  -2  -6 104314. 2491.65  89
  -6  -2  -6 110976. 2554.21  86
  -6  -2  -6 119134. 2660.32  74
  -6  -2  -6 104936. 2501.31  81
  -6  -2  -6 100893. 2534.18  14
  -6  -2  -6 108817. 2549.15  37
  -6  -2  -6 109906. 2557.10  40
  -6  -2  -6 109274. 2625.27  77
  -6  -2  -6 108418. 2479.77  46
  -6  -2  -5 87844.3 2134.71  89
  -6  -2  -5 87860.1 2238.64  37
  -6  -2  -5 87499.8 2221.21  74
  -6  -2  -5 87253.5 2026.44  95
  -6  -2  -5 86269.6 2230.97  77
  -6  -2  -5 78590.4 2020.25  25
  -6  -2  -5 79832.0 2121.22  81
  -6  -2  -5 80531.1 2024.98  46
  -6  -2  -5 83810.4 2169.54  86
  -6  -2  -5 84081.8 2117.08  40
  -6  -2  -4 59681.4 1615.75  72
  -6  -2  -4 53936.3 1626.98  60
  -6  -2  -4 57514.9 1721.73  37
  -6  -2  -4 57800.9 1653.86  95
  -6  -2  -4 53831.8 1644.64  77
  -6  -2  -4 57742.8 1580.37  89
  -6  -2  -4 54590.3 1636.44  81
  -6  -2  -4 52050.8 1581.95  25
  -6  -2  -4 53456.1 1638.14  86
  -6  -2  -4 53226.6 1496.22  46
  -6  -2  -4 53090.7 1543.52  40
  -6  -2  -4 57336.9 1710.99  74
  -6  -2  -3 30783.0 1158.25  25
  -6  -2  -3 29096.4 1110.21  60
  -6  -2  -3 31165.2 1152.83  74
  -6  -2  -3 31805.7 1142.76  72
  -6  -2  -3 27998.8 1210.67   5
  -6  -2  -2 365967. 4583.61  74
  -6  -2  -2 373938. 4771.29  72
  -6  -2  -2 364423. 4628.44  60
  -6  -2  -1 357806. 4405.31  60
  -6  -2  -1 359036. 4264.81  74
  -6  -2  -1 341718. 4597.50  72
  -6  -2  -1 342429. 4877.90   5
  -6  -2   0 200105. 3488.30   5
  -6  -2   0 199360. 3246.44  72
  -6  -2   0 207752. 2945.10  60
  -6  -2   1 141524. 2689.69  72
  -6  -2   1 145669. 2962.05  15
  -6  -2   1 135160. 2845.03   5
  -6  -2   1 144479. 2585.30  65
  -6  -2   2 100401. 2229.59  65
  -6  -2   2 105245. 2113.75  68
  -6  -2   2 109013. 2618.32  15
  -6  -2   2 113252. 2448.88  72
  -6  -2   2 94087.2 2429.21   5
  -6  -2   3 227665. 3608.55  68
  -6  -2   3 223094. 4155.40  15
  -6  -2   3 225988. 4138.71   5
  -6  -2   4 129114. 3154.14   5
  -6  -2   4 139152. 2877.54  68
  -6  -2   4 139879. 3302.06  15
  -6  -2   4 137751. 3304.70  23
  -6  -2   5 110047. 2322.64  94
  -6  -2   5 103165. 2927.56  15
  -6  -2   5 105307. 2609.25  68
  -6  -2   5 106063. 2983.77  23
  -6  -2   6 68370.2 2399.62  15
  -6  -2   6 67002.3 1861.52  39
  -6  -2   6 65783.0 2094.03  68
  -6  -2   6 72134.8 2482.11  23
  -6  -2   7 59479.7 2214.37  23
  -6  -2   7 58686.4 2180.26  15
  -6  -2   7 58288.4 1920.45  68
  -6  -2   8 87216.5 2326.98  27
  -6  -2   9 113485. 2161.93  35
  -6  -1  -9 31666.3 1013.83  91
  -6  -1  -9 33188.0 1081.92  40
  -6  -1  -9 31507.6 1027.58  89
  -6  -1  -8 11827.5 728.234  89
  -6  -1  -8 11968.8 718.668  91
  -6  -1  -8 12386.4 653.536  81
  -6  -1  -8 11550.4 640.328  37
  -6  -1  -8 11362.9 638.840  86
  -6  -1  -8 11019.6 670.010  74
  -6  -1  -8 11807.1 748.312  40
  -6  -1  -7 71693.6 1920.15  81
  -6  -1  -7 65788.6 1913.90  14
  -6  -1  -7 64837.8 1865.53  21
  -6  -1  -7 74027.6 2003.30  91
  -6  -1  -7 76072.0 2124.42  40
  -6  -1  -7 75885.9 1989.37  37
  -6  -1  -7 75902.1 2085.60  89
  -6  -1  -7 77523.0 2067.92  74
  -6  -1  -7 77286.5 2014.64  86
  -6  -1  -6 118823. 2775.94  40
  -6  -1  -6 123505. 2755.23  37
  -6  -1  -6 123107. 2741.47  86
  -6  -1  -6 122883. 2750.25  74
  -6  -1  -6 122443. 2746.96  89
  -6  -1  -6 123734. 2731.54  81
  -6  -1  -6 125856. 2674.19  91
  -6  -1  -5 199154. 3619.43  40
  -6  -1  -5 199760. 3644.37  74
  -6  -1  -5 197112. 3571.96  81
  -6  -1  -5 194206. 3345.35  91
  -6  -1  -5 199524. 3619.57  86
  -6  -1  -5 197875. 3512.94  89
  -6  -1  -5 196727. 3618.94  37
  -6  -1  -4 158055. 3050.50  86
  -6  -1  -4 149805. 2838.81  89
  -6  -1  -4 152466. 3050.75  37
  -6  -1  -4 157274. 3019.29  81
  -6  -1  -4 162940. 3000.11  95
  -6  -1  -4 151912. 2764.77  46
  -6  -1  -4 143458. 2776.17  59
  -6  -1  -4 154075. 2985.52  40
  -6  -1  -4 155619. 3035.53  74
  -6  -1  -4 145062. 2940.25  25
  -6  -1  -3 75994.8 1917.94  74
  -6  -1  -3 73909.0 1938.80  37
  -6  -1  -3 76628.2 2064.37   5
  -6  -1  -3 71947.7 1871.87  86
  -6  -1  -3 75849.8 1966.19  25
  -6  -1  -3 76121.2 1917.26  60
  -6  -1  -3 78688.8 1931.07  81
  -6  -1  -3 70003.9 1748.56  59
  -6  -1  -3 72931.0 1767.34  68
  -6  -1  -2 71626.3 1678.39  68
  -6  -1  -2 70019.0 1752.22  60
  -6  -1  -2 70962.3 1712.18  74
  -6  -1  -2 67500.0 1889.23   5
  -6  -1  -1 397591. 4880.85  68
  -6  -1  -1 407680. 4965.77  60
  -6  -1  -1 401470. 4732.11  74
  -6  -1  -1 388524. 5335.83   5
  -6  -1   0 232949. 3411.40  68
  -6  -1   0 229301. 3833.02   5
  -6  -1   1 196749. 3441.74  15
  -6  -1   1 197246. 2909.25  60
  -6  -1   2 152192. 3093.91  15
  -6  -1   2 161258. 2555.44  60
  -6  -1   2 160291. 2811.75  72
  -6  -1   2 156616. 2885.86  68
  -6  -1   2 152081. 3158.40   5
  -6  -1   3 36511.3 1495.85  15
  -6  -1   3 34026.6 1314.89  68
  -6  -1   3 37420.6 1534.52   5
  -6  -1   4 211511. 4088.85  15
  -6  -1   4 198773. 4029.61   5
  -6  -1   4 209038. 3769.02  68
  -6  -1   5 65462.0 2086.39  68
  -6  -1   5 67948.0 2266.19  15
  -6  -1   5 67925.5 2346.84  23
  -6  -1   5 63481.1 1857.58  39
  -6  -1   5 70259.2 1873.49  11
  -6  -1   5 64724.5 1782.34  94
  -6  -1   6 111556. 2470.92  39
  -6  -1   6 114813. 3095.44  15
  -6  -1   6 118602. 2449.40  94
  -6  -1   6 126413. 2711.11  11
  -6  -1   6 123297. 2815.26  27
  -6  -1   6 106759. 3090.08  23
  -6  -1   6 111850. 2892.17  68
  -6  -1   7 99462.5 2699.73  68
  -6  -1   7 103845. 2986.64  23
  -6  -1   7 105762. 2914.30  15
  -6  -1   8 72592.1 2063.10  35
  -6  -1   8 74617.9 1918.78  92
  -6  -1   8 71568.4 2225.33  15
  -6  -1   8 78638.2 2198.40  27
  -6  -1   9 114890. 2304.94  35
  -6  -1  10 89274.0 1615.06  45
  -6   0  -9 54146.0 1143.78  56
  -6   0  -9 55130.7 1157.29  91
  -6   0  -8 39950.8 1129.70  37
  -6   0  -8 40793.9 1114.81  86
  -6   0  -8 40398.5 1222.43  91
  -6   0  -8 41867.8 1337.08  40
  -6   0  -7 23358.5 997.863  81
  -6   0  -7 20229.2 970.123  37
  -6   0  -7 22833.0 1057.19  74
  -6   0  -7 21825.0 989.957  91
  -6   0  -7 23204.5 1077.62  89
  -6   0  -7 23747.5 1036.51  86
  -6   0  -7 23544.4 1115.78  40
  -6   0  -6 153775. 3114.06  86
  -6   0  -6 160396. 3181.14  89
  -6   0  -6 160606. 3130.88  81
  -6   0  -6 160913. 3194.48  37
  -6   0  -6 151296. 3195.45  40
  -6   0  -6 155018. 2965.96  91
  -6   0  -6 159592. 3206.50  74
  -6   0  -6 147344. 2976.94  14
  -6   0  -5 135650. 2904.14  14
  -6   0  -5 143274. 3046.09  74
  -6   0  -5 140453. 3049.54  40
  -6   0  -5 139588. 3052.18  37
  -6   0  -5 140915. 2958.34  89
  -6   0  -5 128902. 2862.62  25
  -6   0  -5 140100. 2737.57  91
  -6   0  -5 143116. 3003.03  81
  -6   0  -5 143653. 3058.47  86
  -6   0  -4 322367. 4683.59  95
  -6   0  -4 314413. 4878.69  37
  -6   0  -4 298638. 4763.34  40
  -6   0  -4 329881. 4655.71  52
  -6   0  -4 325761. 4875.23  74
  -6   0  -4 308334. 4800.74  86
  -6   0  -4 301511. 4753.52  25
  -6   0  -4 312872. 4617.80  89
  -6   0  -4 309114. 4761.02  81
  -6   0  -3 118798. 2583.70  81
  -6   0  -3 122377. 2512.93  60
  -6   0  -3 115458. 2566.63  40
  -6   0  -3 114448. 2602.53  25
  -6   0  -3 110144. 2428.97  59
  -6   0  -3 124126. 2608.23  74
  -6   0  -3 113312. 2464.25  68
  -6   0  -3 121484. 2437.86  89
  -6   0  -3 121524. 2644.18  95
  -6   0  -3 122085. 2627.72  86
  -6   0  -3 121631. 2644.76  37
  -6   0  -2 45450.8 1531.59  54
  -6   0  -2 44689.9 1436.89  68
  -6   0  -2 43660.2 1403.69  60
  -6   0  -2 46468.6 1450.09  81
  -6   0  -2 40025.7 1345.85  59
  -6   0  -2 45519.6 1544.08  25
  -6   0  -2 44571.9 1520.53   5
  -6   0  -2 45827.5 1524.39  95
  -6   0  -2 49351.7 1464.14  74
  -6   0  -2 44062.4 1415.21  86
  -6   0  -1 158381. 2611.46  74
  -6   0  -1 152127. 2797.49  68
  -6   0  -1 145298. 2647.10  59
  -6   0  -1 151327. 2728.46  60
  -6   0  -1 143583. 2903.25   5
  -6   0   0 235501. 3453.16  60
  -6   0   0 225338. 3551.40  68
  -6   0   0 225597. 3775.74   5
  -6   0   1 163631. 3176.09   5
  -6   0   1 165970. 2979.97  68
  -6   0   1 156185. 2662.47  59
  -6   0   1 173232. 2814.91  60
  -6   0   2 157385. 3028.64  15
  -6   0   2 155799. 3168.84   5
  -6   0   2 152844. 2941.98  68
  -6   0   2 155420. 2645.36  60
  -6   0   3 44412.4 1565.27  68
  -6   0   3 47566.9 1365.80  60
  -6   0   3 44122.9 1571.78  15
  -6   0   3 43667.9 1660.33   5
  -6   0   4 124062. 2866.20  15
  -6   0   4 120392. 2648.65  39
  -6   0   4 114550. 2482.13  94
  -6   0   4 117605. 2343.57  75
  -6   0   4 119004. 2808.27  68
  -6   0   4 115090. 2915.05   5
  -6   0   5 215035. 4134.30  68
  -6   0   5 217760. 4137.67  15
  -6   0   5 213208. 3609.78  94
  -6   0   5 210513. 3696.70  39
  -6   0   6 81603.1 2065.79  94
  -6   0   6 85472.0 2493.59  15
  -6   0   6 86803.3 2279.71  27
  -6   0   6 81676.5 2070.66  39
  -6   0   6 83143.3 2489.69  68
  -6   0   7 122405. 3071.13  68
  -6   0   7 129866. 2539.93  94
  -6   0   7 121887. 2925.67  35
  -6   0   7 127503. 3073.85  15
  -6   0   7 129626. 2887.95  27
  -6   0   8 92998.4 2360.75  27
  -6   0   8 94579.9 2376.50  35
  -6   0   8 87995.4 2378.50  15
  -6   0   8 88907.9 2446.14  68
  -6   0   9 69569.3 1779.40  35
  -6   0   9 69618.1 1680.98  92
  -6   0  10 104478. 1770.28  35
  -6   0  10 115172. 2041.83  45
  -6   1  -8 98507.7 1700.66  91
  -6   1  -8 97867.8 1688.47  56
  -6   1  -8 94257.9 1568.54  37
  -6   1  -7 49869.6 1394.35  86
  -6   1  -7 48826.9 1305.66  81
  -6   1  -7 44980.9 1373.49  37
  -6   1  -7 47969.9 1430.56  74
  -6   1  -7 46850.0 1326.65  91
  -6   1  -6 63943.3 1701.13  91
  -6   1  -6 71150.7 1946.99  86
  -6   1  -6 67689.5 1932.65  74
  -6   1  -6 68462.9 1856.65  81
  -6   1  -6 68572.3 1954.88  37
  -6   1  -5 63001.6 1944.69  74
  -6   1  -5 64661.3 1963.50  86
  -6   1  -5 65580.2 2011.06  37
  -6   1  -5 63430.1 1926.56  81
  -6   1  -5 62502.2 1897.27  89
  -6   1  -4 303490. 4765.91  74
  -6   1  -4 291104. 4563.04  89
  -6   1  -4 305187. 4870.40  37
  -6   1  -4 301219. 4750.18  81
  -6   1  -4 305074. 4535.19  52
  -6   1  -4 302798. 4796.54  86
  -6   1  -3 191980. 3565.34  68
  -6   1  -3 198202. 3464.55  89
  -6   1  -3 219227. 3807.20  52
  -6   1  -3 197409. 3654.49  81
  -6   1  -3 208702. 3703.11  74
  -6   1  -3 196813. 3715.46  37
  -6   1  -3 209932. 3749.83  86
  -6   1  -3 202328. 3737.61  25
  -6   1  -2 112570. 2320.10  89
  -6   1  -2 110427. 2605.27  95
  -6   1  -2 123583. 2592.54  85
  -6   1  -2 115526. 2486.09  74
  -6   1  -2 117762. 2706.68  52
  -6   1  -2 105075. 2466.68  68
  -6   1  -2 113812. 2528.14  81
  -6   1  -2 110646. 2490.88  86
  -6   1  -2 122344. 2488.86  75
  -6   1  -2 104639. 2452.43  37
  -6   1  -2 111516. 2616.75  25
  -6   1  -1 16040.9 836.002  37
  -6   1  -1 19536.2 985.946  68
  -6   1  -1 20378.8 1014.71  85
  -6   1  -1 17833.4 889.235  60
  -6   1  -1 19291.0 961.095  75
  -6   1  -1 16368.1 872.163  59
  -6   1  -1 18698.2 870.382  74
  -6   1  -1 18873.9 993.956  95
  -6   1  -1 16991.8 873.776  81
  -6   1  -1 18228.8 937.067   5
  -6   1  -1 15860.5 833.288  86
  -6   1   0 97309.6 2141.44  60
  -6   1   0 97250.2 2260.39  95
  -6   1   0 97947.4 2314.85  85
  -6   1   0 93235.4 2249.75  68
  -6   1   0 100818. 2285.51  75
  -6   1   0 90110.1 2204.20   5
  -6   1   1 184018. 3096.00  60
  -6   1   1 188885. 3391.80  68
  -6   1   1 181075. 3335.16   5
  -6   1   1 189651. 3292.62  75
  -6   1   1 190416. 3344.33  85
  -6   1   2 167547. 3013.72  59
  -6   1   2 179398. 3394.77   5
  -6   1   2 180207. 3394.35  68
  -6   1   2 181340. 3060.37  60
  -6   1   2 188194. 3420.48  39
  -6   1   2 184706. 3201.86  94
  -6   1   2 183060. 3223.85  85
  -6   1   2 174500. 3168.33  75
  -6   1   3 214496. 3563.71  75
  -6   1   3 226109. 3610.04  85
  -6   1   3 209243. 3474.23  59
  -6   1   3 219974. 3490.16  60
  -6   1   3 226566. 4007.80   5
  -6   1   3 226242. 3867.66  39
  -6   1   3 214771. 3693.26  35
  -6   1   3 227797. 3710.54  94
  -6   1   3 218103. 3924.61  68
  -6   1   4 15532.4 830.890  75
  -6   1   4 14898.6 899.381  39
  -6   1   4 15039.8 963.952  68
  -6   1   4 15283.1 803.176  85
  -6   1   4 16517.1 908.742  94
  -6   1   4 15651.0 938.610  35
  -6   1   5 290876. 4839.63  35
  -6   1   5 301514. 4622.74  39
  -6   1   5 311468. 4621.55  94
  -6   1   5 309570. 4295.32  75
  -6   1   5 294505. 5037.82  68
  -6   1   6 118242. 2558.03  39
  -6   1   6 116979. 3007.98  68
  -6   1   6 114700. 2818.95  35
  -6   1   6 116053. 2573.69  94
  -6   1   6 121751. 2656.11  27
  -6   1   7 118142. 2821.30  35
  -6   1   7 113140. 2935.18  68
  -6   1   7 119595. 2706.42  92
  -6   1   7 116360. 2617.82  27
  -6   1   7 118742. 2505.98  94
  -6   1   7 118095. 2371.48  39
  -6   1   8 137057. 2772.77  92
  -6   1   8 132447. 2751.18  27
  -6   1   8 116836. 2836.51  68
  -6   1   8 121863. 2735.91  35
  -6   1   9 28553.6 1072.78  92
  -6   1   9 26986.3 1069.98  35
  -6   1  10 68178.0 1378.74  92
  -6   1  10 69793.7 1564.56  45
  -6   2  -7 154255. 2387.86  37
  -6   2  -7 156510. 2218.34  56
  -6   2  -7 154389. 2212.16  91
  -6   2  -6 53073.0 1535.84  86
  -6   2  -6 52981.2 1348.21  91
  -6   2  -6 51668.0 1557.39  37
  -6   2  -5 22262.6 1106.35  37
  -6   2  -5 22579.2 1064.63  81
  -6   2  -5 22329.6 1085.86  86
  -6   2  -5 21149.4 1054.77  74
  -6   2  -4 67683.7 1993.95  25
  -6   2  -4 75194.8 2110.84  81
  -6   2  -4 68111.8 1901.01  52
  -6   2  -4 69990.1 2057.94  74
  -6   2  -4 72466.7 2118.59  86
  -6   2  -4 73289.0 1979.58  95
  -6   2  -4 76991.6 2217.11  37
  -6   2  -3 192726. 3658.65  86
  -6   2  -3 188244. 3349.55  80
  -6   2  -3 191606. 3664.12  37
  -6   2  -3 190471. 3587.78  52
  -6   2  -3 195864. 3647.34  95
  -6   2  -3 186889. 3593.75  81
  -6   2  -3 191969. 3564.81  74
  -6   2  -2 224225. 4019.41  68
  -6   2  -2 255559. 4354.00  52
  -6   2  -2 242393. 4100.83  37
  -6   2  -2 257640. 4322.74  95
  -6   2  -2 239360. 4098.43  81
  -6   2  -2 258666. 4074.90  85
  -6   2  -2 238500. 3970.26  74
  -6   2  -2 225912. 4073.75  25
  -6   2  -2 233927. 4053.68  86
  -6   2  -1 59026.8 1912.10  52
  -6   2  -1 49524.0 1744.69  95
  -6   2  -1 50558.9 1664.89  81
  -6   2  -1 50271.2 1629.19  86
  -6   2  -1 50637.2 1559.02  74
  -6   2  -1 52444.0 1745.59  68
  -6   2  -1 58116.6 1728.70  37
  -6   2  -1 53588.1 1693.51  75
  -6   2  -1 56423.6 1784.72  85
  -6   2  -1 51442.6 1749.22  25
  -6   2   0 26233.4 1217.77  68
  -6   2   0 29183.3 1294.30  85
  -6   2   0 27397.5 1117.07  86
  -6   2   0 30233.4 1296.93  95
  -6   2   0 30304.0 1239.37  39
  -6   2   0 28557.7 1173.51  81
  -6   2   0 32019.1 1311.01  75
  -6   2   0 29148.3 1114.69  37
  -6   2   0 31834.8 1364.26  52
  -6   2   1 64575.3 1948.42  68
  -6   2   1 59972.3 1682.94  81
  -6   2   1 66255.1 1806.18  94
  -6   2   1 73064.9 2034.17  52
  -6   2   1 66102.3 1950.95  85
  -6   2   1 61793.9 1840.72  95
  -6   2   1 68621.0 1965.63  39
  -6   2   1 66878.5 1934.31  75
  -6   2   2 232980. 4152.40  68
  -6   2   2 259193. 4273.23  39
  -6   2   2 240241. 3964.61  94
  -6   2   2 250916. 3908.31  95
  -6   2   2 236013. 4035.77  85
  -6   2   2 247441. 4084.86  75
  -6   2   3 365817. 4851.20  95
  -6   2   3 373051. 5201.25  85
  -6   2   3 383671. 5301.22  94
  -6   2   3 365687. 5535.20  68
  -6   2   3 379037. 5198.02  35
  -6   2   3 370443. 5235.05  75
  -6   2   3 381153. 5465.46  39
  -6   2   4 78252.4 2073.18  75
  -6   2   4 88106.1 2295.47  39
  -6   2   4 80774.8 2055.87  85
  -6   2   4 83407.4 2403.66  68
  -6   2   4 88671.0 2259.11  94
  -6   2   4 83166.9 2243.24  35
  -6   2   5 68608.0 1997.28  94
  -6   2   5 72132.0 2038.58  39
  -6   2   5 75105.1 1850.30  85
  -6   2   5 74841.5 2070.01  92
  -6   2   5 71455.1 2263.80  68
  -6   2   5 71417.9 1890.29  75
  -6   2   5 75513.6 2179.99  35
  -6   2   6 101884. 2750.63  68
  -6   2   6 103112. 2383.93  39
  -6   2   6 109308. 2568.45  92
  -6   2   6 106726. 2498.40  94
  -6   2   6 105183. 2648.43  35
  -6   2   7 92342.6 2407.03  35
  -6   2   7 92685.9 2238.19  94
  -6   2   7 91872.5 2078.49  39
  -6   2   8 157293. 2778.25  94
  -6   2   8 153262. 2969.68  92
  -6   2   8 154336. 3032.35  35
  -6   2   9 95608.9 2065.74  35
  -6   2   9 100757. 2121.86  92
  -6   2  10 11212.5 529.593  92
  -6   2  10 11130.3 510.281  47
  -6   2  10 11541.4 573.775  45
  -6   3  -6 157851. 2518.60  37
  -6   3  -5 52383.9 1569.61  37
  -6   3  -5 52086.1 1530.39  86
  -6   3  -4 18268.1 985.580  37
  -6   3  -4 19048.2 907.517  52
  -6   3  -4 18879.6 890.517  95
  -6   3  -4 19976.8 1023.57  86
  -6   3  -3 22046.7 1138.95  37
  -6   3  -3 20503.0 1059.02  95
  -6   3  -3 22593.3 1118.93  52
  -6   3  -3 22956.3 1148.41  86
  -6   3  -3 20659.6 1004.10  80
  -6   3  -3 19800.0 1013.06  25
  -6   3  -2 127911. 2946.00  52
  -6   3  -2 111400. 2689.52  68
  -6   3  -2 122104. 2816.36  86
  -6   3  -2 122483. 2805.93  37
  -6   3  -2 129622. 2689.69  85
  -6   3  -2 130919. 2960.55  95
  -6   3  -2 112582. 2642.06  25
  -6   3  -2 123343. 2812.09  80
  -6   3  -1 262000. 4448.45  95
  -6   3  -1 229112. 4135.22  68
  -6   3  -1 240523. 4003.17  37
  -6   3  -1 247930. 4199.58  85
  -6   3  -1 252686. 4078.33  75
  -6   3  -1 243893. 4145.24  25
  -6   3  -1 259674. 4466.68  52
  -6   3  -1 236330. 4046.67  86
  -6   3   0 197533. 3638.96  25
  -6   3   0 182845. 3616.81  68
  -6   3   0 197242. 3523.46  39
  -6   3   0 194434. 3345.07  37
  -6   3   0 210060. 3866.07  85
  -6   3   0 196883. 3806.34  52
  -6   3   0 204425. 3697.12  75
  -6   3   0 196180. 3448.37  86
  -6   3   0 193592. 3737.67  95
  -6   3   1 50629.4 1542.66  71
  -6   3   1 53998.0 1777.71  95
  -6   3   1 53356.8 1804.62  52
  -6   3   1 49240.8 1496.73  86
  -6   3   1 50816.1 1779.53  68
  -6   3   1 56482.3 1822.78  39
  -6   3   1 50104.3 1742.71  75
  -6   3   1 50220.8 1778.46  85
  -6   3   2 60585.8 1934.39  85
  -6   3   2 61510.8 1928.23  75
  -6   3   2 65884.8 2026.99  39
  -6   3   2 65140.7 1908.67  52
  -6   3   2 59204.6 1700.18  17
  -6   3   2 56827.3 1652.74  71
  -6   3   2 63464.9 1853.52  95
  -6   3   2 68317.3 1917.69  94
  -6   3   2 58263.9 1936.41  68
  -6   3   3 110885. 2717.30  39
  -6   3   3 103454. 2545.88  85
  -6   3   3 112262. 2430.98  52
  -6   3   3 112001. 2413.33  95
  -6   3   3 111919. 2629.17  75
  -6   3   3 114224. 2625.12  94
  -6   3   3 104668. 2695.84  68
  -6   3   4 214915. 3880.01  94
  -6   3   4 226864. 4022.99  39
  -6   3   4 217342. 3733.46  85
  -6   3   4 221492. 3690.06  92
  -6   3   4 208966. 3768.58  75
  -6   3   4 223752. 3807.96  35
  -6   3   4 201311. 3979.56  68
  -6   3   5 127994. 3061.37  68
  -6   3   5 138466. 2945.67  39
  -6   3   5 131539. 2651.29  85
  -6   3   5 124578. 2829.62  35
  -6   3   5 132137. 2755.73  75
  -6   3   5 138916. 2863.06  92
  -6   3   5 129333. 2852.06  94
  -6   3   6 110084. 2795.66  68
  -6   3   6 121837. 2700.16  94
  -6   3   6 121933. 2477.92  75
  -6   3   6 115746. 2617.95  92
  -6   3   6 116938. 2730.09  35
  -6   3   6 115307. 2543.46  39
  -6   3   7 70081.1 1909.95  94
  -6   3   7 69147.7 1924.91  92
  -6   3   7 66948.7 1709.18  39
  -6   3   7 64269.4 1913.26  35
  -6   3   8 16484.7 863.527  35
  -6   3   8 15100.1 771.042  94
  -6   3   8 16501.6 857.972  92
  -6   3   9 109197. 2093.42  45
  -6   3   9 114034. 2202.92  92
  -6   3   9 112927. 1922.10  94
  -6   3  10 43408.0 1052.98  34
  -6   3  10 41260.6 1000.80  45
  -6   3  10 42189.4 1034.86  92
  -6   4  -4 50780.6 1285.76  52
  -6   4  -4 54723.5 1532.27  37
  -6   4  -3 53700.5 1596.12  52
  -6   4  -3 54056.9 1650.67  37
  -6   4  -3 52402.3 1560.74  95
  -6   4  -3 53257.2 1513.73  80
  -6   4  -2 83216.4 2193.31  95
  -6   4  -2 85027.7 2247.87  52
  -6   4  -2 77255.5 2078.89  37
  -6   4  -2 81441.0 2150.93  80
  -6   4  -1 155560. 3283.53  52
  -6   4  -1 156399. 3281.57  80
  -6   4  -1 155852. 3083.76  85
  -6   4  -1 151257. 3210.45  95
  -6   4  -1 146519. 2930.39  37
  -6   4   0 142267. 3082.92  68
  -6   4   0 146169. 2810.65  37
  -6   4   0 158684. 3321.86  52
  -6   4   0 156355. 3296.23  95
  -6   4   0 144959. 2924.18  39
  -6   4   0 154481. 3108.28  75
  -6   4   0 154564. 3226.91  85
  -6   4   1 86334.0 2280.83  39
  -6   4   1 76355.1 2212.18  68
  -6   4   1 78413.5 2247.07  52
  -6   4   1 88121.3 2392.87  85
  -6   4   1 85177.0 2320.84  75
  -6   4   1 83981.8 2309.05  95
  -6   4   2 68225.0 1877.46  71
  -6   4   2 77358.9 2195.17  75
  -6   4   2 81189.0 2066.49  94
  -6   4   2 72669.7 2160.19  68
  -6   4   2 80745.5 2275.95  85
  -6   4   2 80976.4 2279.53  39
  -6   4   2 74029.0 2080.10  52
  -6   4   2 76641.7 2122.79  95
  -6   4   3 125108. 2613.58  52
  -6   4   3 128686. 2922.86  39
  -6   4   3 126970. 2853.40  85
  -6   4   3 134574. 2948.36  75
  -6   4   3 112286. 2778.01  68
  -6   4   3 127190. 2646.06  95
  -6   4   3 127554. 2750.72  94
  -6   4   3 116957. 2544.23  17
  -6   4   3 114159. 2504.84  71
  -6   4   4 110824. 2463.87  17
  -6   4   4 122647. 2801.52  39
  -6   4   4 108397. 2710.02  68
  -6   4   4 122824. 2758.48  75
  -6   4   4 111364. 2435.87  71
  -6   4   4 122127. 2715.81  94
  -6   4   4 122921. 2703.81  85
  -6   4   5 114912. 2463.44  85
  -6   4   5 118258. 2488.03  92
  -6   4   5 106409. 2462.04  75
  -6   4   5 120154. 2689.41  94
  -6   4   5 101228. 2593.69  68
  -6   4   5 110299. 2563.59  39
  -6   4   6 23165.4 1135.87  68
  -6   4   6 26152.5 1115.72  92
  -6   4   6 25695.9 1071.50  75
  -6   4   6 25447.5 1102.80  39
  -6   4   6 26078.5 1156.29  94
  -6   4   7 86426.7 1891.69  39
  -6   4   7 85855.4 2034.79  92
  -6   4   7 90282.7 2127.49  94
  -6   4   8 44306.3 1289.96  94
  -6   4   8 46520.8 1372.23  92
  -6   4   8 44728.6 1189.79  45
  -6   4   9 75394.2 1600.19  92
  -6   4   9 75395.8 1640.28  34
  -6   4   9 71254.4 1376.76  45
  -6   4   9 76213.0 1451.19  94
  -6   5  -3 53904.6 1240.87  80
  -6   5  -3 53349.5 1297.18  52
  -6   5  -2 19237.7 899.177  52
  -6   5  -2 18651.5 867.984  95
  -6   5  -2 19143.7 867.159  80
  -6   5  -1 60320.9 1766.23  95
  -6   5  -1 63648.0 1823.79  80
  -6   5  -1 59775.1 1592.12  85
  -6   5  -1 59691.1 1768.96  52
  -6   5   0 193390. 3514.36  95
  -6   5   0 182711. 3368.40  85
  -6   5   0 174555. 3026.42  39
  -6   5   0 186358. 3465.48  52
  -6   5   0 195032. 3237.18  75
  -6   5   0 201932. 3674.04  80
  -6   5   1 174003. 3490.43  80
  -6   5   1 170801. 3310.92  85
  -6   5   1 168392. 3208.14  75
  -6   5   1 168487. 3165.88  39
  -6   5   1 174547. 3316.08  95
  -6   5   2 72220.5 2027.55  75
  -6   5   2 66754.8 1899.63  95
  -6   5   2 69545.8 1930.76  52
  -6   5   2 71873.7 2056.37  85
  -6   5   2 69232.2 1989.97  39
  -6   5   3 30040.5 1152.29  52
  -6   5   3 31474.0 1207.57  94
  -6   5   3 31146.3 1302.47  85
  -6   5   3 30194.4 1178.53  95
  -6   5   3 32269.0 1331.09  75
  -6   5   3 34642.4 1390.70  39
  -6   5   4 29892.6 1065.83  95
  -6   5   4 28766.8 1193.89  94
  -6   5   4 30956.7 1242.11  85
  -6   5   4 30522.4 1285.63  39
  -6   5   4 33499.9 1319.07  75
  -6   5   5 123695. 2583.58  94
  -6   5   5 119872. 2568.58  39
  -6   5   5 120767. 2503.41  34
  -6   5   5 127443. 2611.70  75
  -6   5   5 120973. 2450.78  85
  -6   5   6 83451.1 1991.36  94
  -6   5   6 79556.8 1749.41  92
  -6   5   6 80286.1 1870.04  75
  -6   5   6 85165.8 2013.63  34
  -6   5   6 80940.0 1732.81  85
  -6   5   6 76920.7 1866.04  39
  -6   5   7 54832.6 1512.78  34
  -6   5   7 52505.4 1315.33  39
  -6   5   7 53967.5 1388.03  92
  -6   5   7 51331.0 1260.26  75
  -6   5   7 54802.9 1497.53  94
  -6   5   8 73299.0 1515.35  92
  -6   5   8 73801.2 1579.49  94
  -6   5   8 73245.9 1622.26  34
  -6   5   9 35478.9 898.846  34
  -6   5   9 34429.0 850.736  92
  -6   6  -2 44651.6 1029.22  52
  -6   6  -2 44697.9 992.957  80
  -6   6  -1 26014.1 914.026  80
  -6   6  -1 25593.9 914.102  52
  -6   6   0 41820.1 1283.78  52
  -6   6   0 41321.4 1296.42  80
  -6   6   0 41318.2 1181.52  85
  -6   6   0 41650.0 1268.77  95
  -6   6   0 40478.0 1168.78  55
  -6   6   1 113834. 2290.67  85
  -6   6   1 110314. 2255.44  95
  -6   6   1 111013. 2251.50  52
  -6   6   1 113338. 2137.65  75
  -6   6   2 99276.4 2235.11  80
  -6   6   2 95728.4 2093.26  39
  -6   6   2 100097. 2066.20  52
  -6   6   2 101869. 2222.11  85
  -6   6   2 102152. 2170.02  75
  -6   6   2 98603.8 2087.12  95
  -6   6   3 55682.1 1569.08  75
  -6   6   3 56310.0 1401.76  52
  -6   6   3 56030.9 1583.53  80
  -6   6   3 54253.1 1423.26  95
  -6   6   3 53355.9 1546.79  39
  -6   6   3 58839.1 1626.80  85
  -6   6   4 17607.5 775.262  94
  -6   6   4 18124.4 810.968  80
  -6   6   4 17567.5 829.713  85
  -6   6   4 16897.0 832.274  39
  -6   6   4 18389.1 872.734  75
  -6   6   5 40636.3 1246.56  39
  -6   6   5 41229.1 1255.73  75
  -6   6   5 39557.1 1211.56  94
  -6   6   5 40153.4 1171.47  85
  -6   6   6 124788. 2150.40  39
  -6   6   6 126718. 1963.52  85
  -6   6   6 133539. 2219.55  75
  -6   6   6 129896. 2107.13  34
  -6   6   6 128585. 2271.31  94
  -6   6   7 62779.3 1380.64  94
  -6   6   7 66488.4 1332.30  34
  -6   6   7 62304.9 1178.72  75
  -6   7   1 21970.8 689.194  80
  -6   7   2 50415.1 1156.48  55
  -6   7   2 51092.3 1129.62  80
  -6   7   2 49729.9 1136.95  85
  -6   7   3 142788. 2022.03  80
  -6   7   3 137240. 2160.16  85
  -6   7   3 144547. 2203.30  55
  -6   7   3 144261. 2121.41  75
  -6   7   4 57833.1 1232.83  85
  -6   7   4 59052.0 1256.87  75
  -6   7   5 35659.5 896.759  75
  -5 -11  -7 41785.1 961.240  86
  -5 -11  -7 43479.7 1006.36  81
  -5 -11  -7 41689.9 905.838  89
  -5 -11  -7 44014.9 1000.74  46
  -5 -11  -6 69329.4 1439.93  81
  -5 -11  -6 69403.1 1302.59  89
  -5 -11  -6 74260.9 1485.04  46
  -5 -11  -6 69534.9 1304.85  37
  -5 -11  -6 69553.1 1479.21  86
  -5 -11  -5 65894.8 1432.16  81
  -5 -11  -5 68399.2 1564.33  86
  -5 -11  -5 65974.7 1464.88  37
  -5 -11  -4 32480.3 1075.11  86
  -5 -11  -4 31955.0 936.474  81
  -5 -11  -4 35364.2 1069.64  46
  -5 -11  -3 39133.1 1125.38  46
  -5 -11  -3 36515.5 1139.85  86
  -5 -11  -2 87586.5 1758.61  86
  -5 -11  -2 92928.8 1722.28  46
  -5 -10  -9 60681.9 1126.86  81
  -5 -10  -9 59108.1 1140.06  89
  -5 -10  -9 58452.6 1120.93  46
  -5 -10  -8 29449.3 853.386  86
  -5 -10  -8 30108.1 916.932  89
  -5 -10  -8 29338.3 801.965  77
  -5 -10  -8 30195.5 939.894  81
  -5 -10  -8 30718.2 935.107  46
  -5 -10  -7 32377.5 1099.26  81
  -5 -10  -7 31499.9 1053.29  86
  -5 -10  -7 30890.8 1023.06  89
  -5 -10  -7 32299.0 1075.24  46
  -5 -10  -6 70060.4 1659.36  37
  -5 -10  -6 69875.3 1781.05  86
  -5 -10  -6 76748.4 1826.84  46
  -5 -10  -6 71476.3 1693.80  89
  -5 -10  -6 74663.7 1816.88  74
  -5 -10  -6 71540.7 1802.46  81
  -5 -10  -5 147570. 2799.26  37
  -5 -10  -5 154578. 2855.85  81
  -5 -10  -5 151852. 2904.83  86
  -5 -10  -5 154633. 2687.52  89
  -5 -10  -5 158346. 2972.91  74
  -5 -10  -5 157608. 2894.94  46
  -5 -10  -4 93544.3 2266.73  86
  -5 -10  -4 100740. 2410.88  74
  -5 -10  -4 102449. 2436.44  31
  -5 -10  -4 97494.8 2256.38  46
  -5 -10  -3 40239.8 1287.30  81
  -5 -10  -3 44215.6 1570.70  31
  -5 -10  -3 42824.6 1543.04  74
  -5 -10  -3 40933.3 1412.24  46
  -5 -10  -2 13274.9 833.511  74
  -5 -10  -2 12145.2 742.685  46
  -5 -10  -2 13438.7 845.547  31
  -5 -10  -1 76861.7 1986.42  74
  -5 -10  -1 72409.1 1938.24  31
  -5  -9 -10 31778.1 807.684  77
  -5  -9 -10 32883.1 781.717  46
  -5  -9 -10 30616.5 797.111  89
  -5  -9  -9 109155. 1959.89  77
  -5  -9  -9 112307. 1977.29  46
  -5  -9  -9 111201. 1942.91  81
  -5  -9  -9 111167. 1726.67  86
  -5  -9  -9 112519. 2012.44  89
  -5  -9  -9 109381. 1719.39  32
  -5  -9  -8 108484. 2183.58  81
  -5  -9  -8 108677. 2169.67  89
  -5  -9  -8 104911. 2115.66  46
  -5  -9  -8 101212. 2006.05  86
  -5  -9  -8 107787. 2015.68  74
  -5  -9  -8 102601. 2065.26  77
  -5  -9  -7 52919.2 1486.49  77
  -5  -9  -7 54773.3 1593.95  86
  -5  -9  -7 57199.0 1675.51  81
  -5  -9  -7 57955.7 1612.47  74
  -5  -9  -7 55517.4 1453.97  37
  -5  -9  -7 58283.0 1640.43  89
  -5  -9  -7 61114.6 1685.72  46
  -5  -9  -6 55257.7 1718.89  86
  -5  -9  -6 54820.7 1694.73  46
  -5  -9  -6 56317.5 1728.67  74
  -5  -9  -6 50375.5 1562.67  37
  -5  -9  -6 50616.9 1586.72  89
  -5  -9  -6 53848.7 1697.68  81
  -5  -9  -5 74894.3 2074.24  46
  -5  -9  -5 74289.7 2068.94  81
  -5  -9  -5 75796.7 2128.20  86
  -5  -9  -5 81715.1 2217.58  74
  -5  -9  -5 81377.2 2254.34  31
  -5  -9  -5 76482.8 1983.19  89
  -5  -9  -5 71540.9 1957.91  70
  -5  -9  -4 118831. 2827.91  31
  -5  -9  -4 103911. 2326.03  89
  -5  -9  -4 104066. 2546.43  46
  -5  -9  -4 100805. 2493.20  70
  -5  -9  -4 113779. 2772.22  74
  -5  -9  -4 104449. 2484.22  81
  -5  -9  -3 94843.9 2409.71  46
  -5  -9  -3 93753.5 2244.59  67
  -5  -9  -3 92481.9 2477.32  18
  -5  -9  -3 101972. 2643.05  74
  -5  -9  -3 104096. 2680.51  31
  -5  -9  -3 88457.5 2387.38  70
  -5  -9  -3 92452.7 2241.57  81
  -5  -9  -2 21736.5 1182.46  74
  -5  -9  -2 19228.3 1075.08  70
  -5  -9  -2 19724.4 1035.35  46
  -5  -9  -2 21590.0 1177.41  31
  -5  -9  -2 20002.7 1115.90  18
  -5  -9  -1 22267.9 1178.25  18
  -5  -9  -1 23472.2 1189.22  31
  -5  -9  -1 23839.4 1202.51  74
  -5  -9   0 78651.7 2122.86  31
  -5  -9   0 75748.9 2211.77  18
  -5  -9   0 74597.3 2171.11  70
  -5  -9   0 78420.1 2125.06  74
  -5  -8 -10 32594.0 960.451  89
  -5  -8 -10 33963.9 1007.56  77
  -5  -8 -10 33416.9 856.554  81
  -5  -8 -10 32183.5 923.372  46
  -5  -8  -9 84099.0 1726.35  32
  -5  -8  -9 83873.1 1874.35  89
  -5  -8  -9 85265.8 1926.39  77
  -5  -8  -9 83387.9 1808.23  81
  -5  -8  -9 85501.6 1647.80  86
  -5  -8  -9 88235.6 1887.59  46
  -5  -8  -8 123096. 2524.32  89
  -5  -8  -8 121232. 2519.93  77
  -5  -8  -8 118172. 2267.97  32
  -5  -8  -8 125022. 2393.54  74
  -5  -8  -8 122465. 2487.74  46
  -5  -8  -8 121493. 2382.26  86
  -5  -8  -8 113893. 2436.27  81
  -5  -8  -7 108460. 2243.70  37
  -5  -8  -7 104139. 2374.97  86
  -5  -8  -7 91708.7 2163.63  72
  -5  -8  -7 102675. 2354.59  74
  -5  -8  -7 102919. 2392.97  89
  -5  -8  -7 96842.8 2300.94  77
  -5  -8  -7 109284. 2452.89  46
  -5  -8  -7 100957. 2425.56  81
  -5  -8  -6 43647.3 1462.58  77
  -5  -8  -6 39832.9 1404.16  72
  -5  -8  -6 47013.5 1637.63  74
  -5  -8  -6 44906.0 1527.34  37
  -5  -8  -6 42750.2 1517.39  89
  -5  -8  -6 42830.5 1558.79  86
  -5  -8  -6 45475.7 1414.92  29
  -5  -8  -6 48210.1 1634.48  46
  -5  -8  -6 45795.3 1630.31  81
  -5  -8  -5 48469.1 1738.11  74
  -5  -8  -5 46249.7 1653.65  81
  -5  -8  -5 50506.7 1797.34  31
  -5  -8  -5 47999.9 1591.11  89
  -5  -8  -5 42768.7 1497.67  70
  -5  -8  -5 44705.1 1647.19  86
  -5  -8  -5 47606.4 1663.80  46
  -5  -8  -5 45455.6 1511.48  72
  -5  -8  -4 55137.0 1666.15  89
  -5  -8  -4 53312.4 1762.50  70
  -5  -8  -4 51270.3 1622.64  72
  -5  -8  -4 51254.3 1721.52  81
  -5  -8  -4 57604.5 1959.59  31
  -5  -8  -4 51843.3 1751.91  46
  -5  -8  -4 52628.1 1780.56  18
  -5  -8  -4 57392.8 1932.97  74
  -5  -8  -3 142091. 2874.53  72
  -5  -8  -3 138181. 3080.07  18
  -5  -8  -3 142715. 2922.10  81
  -5  -8  -3 167937. 3500.76  74
  -5  -8  -3 139261. 3009.06  46
  -5  -8  -3 166844. 3487.00  31
  -5  -8  -3 143057. 3091.13  70
  -5  -8  -2 106088. 2614.22  70
  -5  -8  -2 105482. 2713.81  24
  -5  -8  -2 105948. 2717.73  31
  -5  -8  -2 101917. 2691.50  74
  -5  -8  -2 100292. 2429.03   9
  -5  -8  -2 102796. 2604.83  18
  -5  -8  -2 103924. 2390.88  72
  -5  -8  -1 13163.6 905.492  74
  -5  -8  -1 13125.6 903.884  31
  -5  -8  -1 14380.6 953.822  24
  -5  -8  -1 14221.9 922.159  18
  -5  -8  -1 14094.4 904.756  70
  -5  -8  -1 13211.3 798.190  72
  -5  -8  -1 13093.1 868.032   9
  -5  -8   0 56132.7 1843.28  31
  -5  -8   0 56382.4 1916.96  24
  -5  -8   0 60017.1 1957.45  18
  -5  -8   0 54614.1 1836.53  74
  -5  -8   0 56443.3 1871.96  70
  -5  -8   1 98495.7 2561.59  24
  -5  -8   1 100518. 2619.82  18
  -5  -8   1 99936.5 2577.76  70
  -5  -8   2 162150. 3311.65  24
  -5  -8   3 166533. 3333.70  18
  -5  -7 -11 63114.2 1188.18  89
  -5  -7 -11 60689.5 1099.68  46
  -5  -7 -11 62436.1 1223.55  77
  -5  -7 -10 41736.7 1238.50  77
  -5  -7 -10 41778.4 1082.15  76
  -5  -7 -10 44679.8 1080.00  81
  -5  -7 -10 41632.1 1158.15  46
  -5  -7 -10 43276.0 1221.93  89
  -5  -7  -9 31956.8 1014.67  86
  -5  -7  -9 33004.7 1173.21  46
  -5  -7  -9 30509.1 1099.39  81
  -5  -7  -9 29886.3 1082.99  32
  -5  -7  -9 30960.4 1018.64  74
  -5  -7  -9 32960.2 1237.71  77
  -5  -7  -9 31385.0 1049.97  76
  -5  -7  -9 33127.3 1203.41  89
  -5  -7  -8 68765.6 1946.37  77
  -5  -7  -8 70151.9 1807.07  86
  -5  -7  -8 69967.2 1900.47  81
  -5  -7  -8 67594.6 1784.00  74
  -5  -7  -8 73109.5 1936.07  46
  -5  -7  -8 63115.2 1807.09  72
  -5  -7  -8 68326.8 1772.10  32
  -5  -7  -8 68807.8 1918.07  89
  -5  -7  -7 157922. 2846.32  32
  -5  -7  -7 155178. 3094.17  89
  -5  -7  -7 160099. 2896.04  37
  -5  -7  -7 157337. 3063.53  86
  -5  -7  -7 165985. 3138.00  74
  -5  -7  -7 156676. 3083.94  46
  -5  -7  -7 147009. 3083.19  81
  -5  -7  -7 155909. 3123.35  77
  -5  -7  -6 65788.9 1876.14  37
  -5  -7  -6 67689.2 1912.21  77
  -5  -7  -6 69514.8 2008.24  86
  -5  -7  -6 67205.3 1782.49  29
  -5  -7  -6 65728.2 1935.55  46
  -5  -7  -6 67325.9 1945.03  72
  -5  -7  -6 66974.5 1936.08  89
  -5  -7  -6 72132.1 2049.77  74
  -5  -7  -6 68346.6 2026.87  81
  -5  -7  -5 107328. 2490.14  72
  -5  -7  -5 106625. 2567.47  86
  -5  -7  -5 101550. 2463.14  37
  -5  -7  -5 112681. 2677.62  74
  -5  -7  -5 107776. 2556.80  81
  -5  -7  -5 100250. 2275.67  77
  -5  -7  -5 108011. 2511.96  46
  -5  -7  -5 107160. 2425.17  89
  -5  -7  -4 4421.49 480.092  46
  -5  -7  -4 7037.36 560.687  89
  -5  -7  -4 4250.22 500.250  74
  -5  -7  -4 4612.15 499.762  86
  -5  -7  -4 5013.82 543.719  31
  -5  -7  -4 6436.40 568.082  18
  -5  -7  -4 7071.21 584.301  70
  -5  -7  -4 3967.83 452.356  72
  -5  -7  -4 3550.95 425.637  81
  -5  -7  -3 118564. 2618.23  18
  -5  -7  -3 119434. 2609.01  70
  -5  -7  -3 114434. 2551.79  46
  -5  -7  -3 114292. 2494.06  81
  -5  -7  -3 113097. 2741.43  74
  -5  -7  -3 117587. 2815.18  31
  -5  -7  -3 117058. 2613.44  72
  -5  -7  -2 255633. 4316.75  24
  -5  -7  -2 246099. 3995.26  70
  -5  -7  -2 235256. 3960.55  72
  -5  -7  -2 243902. 3945.91   3
  -5  -7  -2 222679. 3609.39  81
  -5  -7  -2 240187. 3872.72   9
  -5  -7  -2 227749. 4108.39  31
  -5  -7  -2 231212. 4138.21  74
  -5  -7  -2 242725. 4013.48  18
  -5  -7  -1 150732. 2953.43   3
  -5  -7  -1 161006. 3298.40  24
  -5  -7  -1 157266. 3114.57   9
  -5  -7  -1 143560. 3084.09  31
  -5  -7  -1 151176. 3051.01  72
  -5  -7  -1 140706. 3058.85  74
  -5  -7   0 82307.6 2286.93  24
  -5  -7   0 77914.5 2132.24  74
  -5  -7   0 75780.0 2088.65  31
  -5  -7   0 77406.7 2132.43  72
  -5  -7   1 70487.6 2124.99  24
  -5  -7   1 72885.5 2141.44   9
  -5  -7   2 79490.3 2295.89  24
  -5  -7   2 80268.9 2228.34  72
  -5  -7   3 171445. 3441.43  72
  -5  -7   3 183220. 3650.92  24
  -5  -7   4 146773. 3162.88  24
  -5  -6 -11 81937.2 1430.06  76
  -5  -6 -11 85030.8 1543.92  77
  -5  -6 -11 84094.9 1448.18  46
  -5  -6 -11 85518.9 1522.09  89
  -5  -6 -11 80075.1 1528.47  91
  -5  -6 -10 92956.7 1881.87  76
  -5  -6 -10 95811.5 1715.75  81
  -5  -6 -10 94332.0 2031.52  77
  -5  -6 -10 95252.6 1980.75  89
  -5  -6 -10 96446.4 1940.90  46
  -5  -6  -9 37193.7 1236.74  81
  -5  -6  -9 39352.3 1165.61  86
  -5  -6  -9 39246.5 1333.35  46
  -5  -6  -9 36845.2 1362.50  77
  -5  -6  -9 38054.2 1341.14  89
  -5  -6  -9 38374.4 1277.20  76
  -5  -6  -9 37757.9 1180.69  74
  -5  -6  -8 39276.4 1490.22  77
  -5  -6  -8 39250.7 1370.39  32
  -5  -6  -8 39400.5 1448.99  89
  -5  -6  -8 39484.9 1341.12  86
  -5  -6  -8 35002.3 1371.88  72
  -5  -6  -8 41177.1 1387.68  74
  -5  -6  -8 40643.7 1351.50  76
  -5  -6  -8 39672.3 1412.49  81
  -5  -6  -8 40003.9 1427.11  46
  -5  -6  -7 42201.9 1564.61  77
  -5  -6  -7 47231.0 1462.55  37
  -5  -6  -7 44065.0 1553.31  89
  -5  -6  -7 44350.4 1505.59  86
  -5  -6  -7 44541.8 1522.24  74
  -5  -6  -7 41888.0 1518.50  81
  -5  -6  -7 41764.3 1536.58  72
  -5  -6  -7 42340.8 1505.79  46
  -5  -6  -7 41256.8 1397.50  32
  -5  -6  -6 94758.8 2310.58  86
  -5  -6  -6 87150.2 2210.17  89
  -5  -6  -6 92462.7 2330.51  72
  -5  -6  -6 94101.1 2225.46  37
  -5  -6  -6 87087.3 2224.02  77
  -5  -6  -6 94150.3 2324.60  74
  -5  -6  -6 91832.2 2311.64  81
  -5  -6  -6 89754.5 2231.06  46
  -5  -6  -5 225052. 3808.34  81
  -5  -6  -5 218895. 3627.77  89
  -5  -6  -5 226275. 3654.82  77
  -5  -6  -5 227997. 3747.68  46
  -5  -6  -5 240964. 3938.68  72
  -5  -6  -5 237099. 3940.69  74
  -5  -6  -5 220885. 3731.11  37
  -5  -6  -5 227691. 3461.79  29
  -5  -6  -5 223700. 3676.37   3
  -5  -6  -5 222592. 3791.48  86
  -5  -6  -5 216181. 3557.66  60
  -5  -6  -4 87241.9 2074.02  46
  -5  -6  -4 76099.7 2038.03  86
  -5  -6  -4 91516.9 2329.87  31
  -5  -6  -4 81286.3 2049.98  81
  -5  -6  -4 87018.2 1976.50  70
  -5  -6  -4 88681.5 2128.40   3
  -5  -6  -4 85784.5 2231.83  74
  -5  -6  -4 88722.1 2010.70  18
  -5  -6  -4 83398.7 2167.62  72
  -5  -6  -4 83469.3 1893.73  60
  -5  -6  -3 93167.5 2349.41  24
  -5  -6  -3 97587.3 2134.41  70
  -5  -6  -3 95703.9 2355.95  31
  -5  -6  -3 95951.2 2346.50  74
  -5  -6  -3 98012.2 2243.64   3
  -5  -6  -3 100098. 2175.52  18
  -5  -6  -3 94699.1 2321.66  72
  -5  -6  -2 166445. 3049.34   3
  -5  -6  -2 162406. 3152.93  72
  -5  -6  -2 172353. 2973.20   9
  -5  -6  -2 176557. 3279.60  74
  -5  -6  -2 164664. 3167.62  31
  -5  -6  -1 284351. 4369.56  31
  -5  -6  -1 326939. 4712.49  24
  -5  -6  -1 309621. 4406.93   3
  -5  -6  -1 281737. 4363.63  74
  -5  -6  -1 315863. 4476.58   9
  -5  -6  -1 291114. 4521.37  72
  -5  -6   0 136971. 2872.08  24
  -5  -6   0 141323. 2710.65   3
  -5  -6   0 147663. 2898.19   9
  -5  -6   0 133318. 2838.55  72
  -5  -6   0 126589. 2587.16  31
  -5  -6   0 124205. 2582.44  74
  -5  -6   1 121000. 2756.85  72
  -5  -6   1 122715. 2504.28   3
  -5  -6   2 52345.4 1768.99   9
  -5  -6   2 48005.1 1735.23  72
  -5  -6   2 51299.0 1610.45  65
  -5  -6   3 33918.0 1338.50  65
  -5  -6   3 31879.0 1445.17  72
  -5  -6   4 212048. 4116.42  72
  -5  -6   5 29190.3 1403.03  72
  -5  -5 -11 60388.4 1340.93  91
  -5  -5 -11 61774.9 1287.77  89
  -5  -5 -11 61832.5 1217.93  40
  -5  -5 -11 61426.7 1280.07  77
  -5  -5 -10 79106.6 1800.75  76
  -5  -5 -10 76226.8 1784.66  89
  -5  -5 -10 76876.9 1830.24  77
  -5  -5 -10 80465.6 1794.51  46
  -5  -5 -10 77806.2 1720.14  40
  -5  -5  -9 49532.7 1571.50  89
  -5  -5  -9 50721.1 1502.53  40
  -5  -5  -9 52194.1 1465.59  81
  -5  -5  -9 48172.9 1516.90  76
  -5  -5  -9 49182.5 1607.86  77
  -5  -5  -9 49944.9 1410.70  74
  -5  -5  -9 47271.5 1529.81  72
  -5  -5  -9 51585.4 1572.95  46
  -5  -5  -8 61961.1 1698.36  86
  -5  -5  -8 58503.1 1704.72  14
  -5  -5  -8 60554.1 1835.39  89
  -5  -5  -8 60225.2 1762.89  32
  -5  -5  -8 61108.9 1767.42  81
  -5  -5  -8 62859.8 1926.22  77
  -5  -5  -8 59550.1 1840.21  72
  -5  -5  -8 63202.3 1782.45  76
  -5  -5  -8 65046.0 1753.85  40
  -5  -5  -8 61533.5 1735.93  74
  -5  -5  -8 64272.5 1856.29  46
  -5  -5  -7 49886.5 1629.65  81
  -5  -5  -7 47398.3 1519.83  32
  -5  -5  -7 51203.7 1524.72  37
  -5  -5  -7 49759.6 1694.35  77
  -5  -5  -7 48079.4 1501.81  76
  -5  -5  -7 51189.8 1622.78  74
  -5  -5  -7 47536.6 1649.88  72
  -5  -5  -7 47549.3 1536.75  14
  -5  -5  -7 48506.3 1554.02  86
  -5  -5  -7 45219.6 1582.18  89
  -5  -5  -7 49982.0 1623.09  46
  -5  -5  -6 102273. 2367.66  46
  -5  -5  -6 108617. 2439.71  86
  -5  -5  -6 117064. 2448.41  37
  -5  -5  -6 104945. 2466.74  77
  -5  -5  -6 111024. 2499.88  81
  -5  -5  -6 110208. 2550.05  72
  -5  -5  -6 112537. 2478.62  89
  -5  -5  -6 115391. 2519.83  74
  -5  -5  -6 114311. 2300.16  32
  -5  -5  -5 243447. 3689.42  89
  -5  -5  -5 224226. 3707.35  86
  -5  -5  -5 231737. 3710.32  37
  -5  -5  -5 226044. 3564.50   3
  -5  -5  -5 226247. 3735.76  81
  -5  -5  -5 234960. 3672.90  46
  -5  -5  -5 236171. 3846.17  74
  -5  -5  -5 240516. 3758.35  60
  -5  -5  -5 246575. 3942.97  72
  -5  -5  -5 234050. 3703.86  77
  -5  -5  -4 266148. 4071.20  74
  -5  -5  -4 264955. 3817.35  60
  -5  -5  -4 265848. 3915.34   3
  -5  -5  -4 265809. 4136.52  72
  -5  -5  -3 114070. 2086.26  70
  -5  -5  -3 116134. 2122.29  18
  -5  -5  -3 109155. 2373.69  31
  -5  -5  -3 114052. 2086.87  60
  -5  -5  -3 104194. 2292.46  74
  -5  -5  -3 102916. 2203.07   3
  -5  -5  -3 106987. 2359.50  24
  -5  -5  -3 110638. 2414.06  72
  -5  -5  -2 131899. 2586.69  24
  -5  -5  -2 124437. 2414.90   3
  -5  -5  -2 132362. 2370.89   9
  -5  -5  -2 130152. 2230.02   5
  -5  -5  -2 123335. 2496.78  31
  -5  -5  -2 128019. 2610.33  72
  -5  -5  -2 124279. 2491.73  74
  -5  -5  -1 289629. 4181.28  24
  -5  -5  -1 277194. 3971.26  31
  -5  -5  -1 297685. 4095.81   9
  -5  -5  -1 275266. 3960.83  74
  -5  -5  -1 281392. 4028.04   3
  -5  -5  -1 293288. 4300.48  72
  -5  -5   0 177710. 3026.84   3
  -5  -5   0 181998. 2936.00  74
  -5  -5   0 175393. 2895.56  31
  -5  -5   0 188849. 3127.02  15
  -5  -5   0 194940. 3363.49  72
  -5  -5   0 185741. 3183.33   9
  -5  -5   1 150414. 2878.15  15
  -5  -5   1 151442. 2918.34   9
  -5  -5   1 144056. 2687.45   3
  -5  -5   1 152648. 2994.73  72
  -5  -5   2 39137.6 1302.66   3
  -5  -5   2 42625.6 1570.39  72
  -5  -5   2 44329.2 1529.31   9
  -5  -5   2 44665.1 1408.02  65
  -5  -5   2 38646.7 1456.19  15
  -5  -5   3 6525.18 623.531  15
  -5  -5   3 7497.41 593.248  65
  -5  -5   3 7981.83 665.648   9
  -5  -5   4 103548. 2436.15  65
  -5  -5   4 106980. 2592.82   9
  -5  -5   5 180607. 3906.51  15
  -5  -5   6 66884.5 2256.22  15
  -5  -5   7 77535.5 2173.68  27
  -5  -4 -11 25182.5 771.972  89
  -5  -4 -11 24323.7 807.239  91
  -5  -4 -11 24854.4 783.761  40
  -5  -4 -10 55690.5 1507.49  40
  -5  -4 -10 53474.3 1497.08  76
  -5  -4 -10 55718.5 1501.06  89
  -5  -4 -10 54405.5 1487.96  77
  -5  -4 -10 54990.8 1464.64  46
  -5  -4  -9 120824. 2555.22  40
  -5  -4  -9 117017. 2532.11  76
  -5  -4  -9 118883. 2582.74  77
  -5  -4  -9 115767. 2491.35  46
  -5  -4  -9 124846. 2343.51  74
  -5  -4  -9 120104. 2302.14  81
  -5  -4  -9 120491. 2564.23  89
  -5  -4  -8 111942. 2552.80  14
  -5  -4  -8 117255. 2644.17  89
  -5  -4  -8 119710. 2630.65  46
  -5  -4  -8 110718. 2629.02  77
  -5  -4  -8 117905. 2492.36  81
  -5  -4  -8 112443. 2463.23  74
  -5  -4  -8 113059. 2545.04  40
  -5  -4  -8 118617. 2596.86  76
  -5  -4  -8 114058. 2588.18  72
  -5  -4  -8 120505. 2438.80  86
  -5  -4  -7 130222. 2688.32  40
  -5  -4  -7 134251. 2877.09  72
  -5  -4  -7 127684. 2767.59  14
  -5  -4  -7 139833. 2752.51  76
  -5  -4  -7 137452. 2865.04  89
  -5  -4  -7 140244. 2683.07  37
  -5  -4  -7 137180. 2833.95  46
  -5  -4  -7 131038. 2682.20  86
  -5  -4  -7 136914. 2802.26  74
  -5  -4  -7 134994. 2768.66  81
  -5  -4  -7 142419. 2984.31  77
  -5  -4  -6 60999.0 1793.88  60
  -5  -4  -6 62650.7 1774.50  89
  -5  -4  -6 59942.8 1740.52  81
  -5  -4  -6 59338.3 1682.79  37
  -5  -4  -6 61875.3 1780.08  74
  -5  -4  -6 62133.7 1821.16  77
  -5  -4  -6 62908.5 1659.48  32
  -5  -4  -6 57265.1 1762.77  72
  -5  -4  -6 58634.8 1703.45  46
  -5  -4  -6 57909.2 1697.50  86
  -5  -4  -5 195529. 3351.94  74
  -5  -4  -5 200576. 3091.22   3
  -5  -4  -5 204746. 3405.05  60
  -5  -4  -5 203606. 3467.90  72
  -5  -4  -4 287024. 4186.16  72
  -5  -4  -4 282811. 3907.82   3
  -5  -4  -4 278386. 4084.55  74
  -5  -4  -4 289010. 4017.25  60
  -5  -4  -3 250311. 3635.22  24
  -5  -4  -3 255719. 3627.34   5
  -5  -4  -3 246854. 3790.40  72
  -5  -4  -3 258704. 3707.09  74
  -5  -4  -3 254435. 3485.57  60
  -5  -4  -2 98549.1 2015.16  24
  -5  -4  -2 98567.5 1978.14   5
  -5  -4  -2 97742.5 2007.23   3
  -5  -4  -2 96166.7 1988.56  74
  -5  -4  -2 99633.5 1790.68  60
  -5  -4  -2 97765.3 2148.35  72
  -5  -4  -1 49410.4 1083.53  60
  -5  -4  -1 48023.0 1452.17  72
  -5  -4  -1 50554.4 1368.02   9
  -5  -4  -1 50211.5 1315.14  31
  -5  -4  -1 49455.3 1293.97  74
  -5  -4  -1 49143.2 1368.46  24
  -5  -4  -1 47470.3 1301.80   5
  -5  -4   0 166217. 2723.26   5
  -5  -4   0 167028. 2540.44  31
  -5  -4   0 172342. 2896.09   9
  -5  -4   0 162272. 2511.81  74
  -5  -4   0 170273. 2971.99  72
  -5  -4   0 166791. 2914.46  15
  -5  -4   1 190790. 2908.93  65
  -5  -4   1 180738. 2991.94   5
  -5  -4   1 200539. 3262.11   9
  -5  -4   1 196707. 3321.36  72
  -5  -4   1 180342. 3211.71  15
  -5  -4   2 170155. 3037.18  23
  -5  -4   2 188065. 2993.55  65
  -5  -4   2 199276. 3333.73   9
  -5  -4   2 164571. 3209.11  15
  -5  -4   2 172781. 3039.12   5
  -5  -4   3 50811.5 1628.78   5
  -5  -4   3 60399.1 1798.39   9
  -5  -4   3 56519.1 1757.11  23
  -5  -4   3 62574.8 1686.65  65
  -5  -4   3 53966.8 1831.02  15
  -5  -4   4 14882.3 960.811  23
  -5  -4   4 18539.3 947.243  65
  -5  -4   4 16780.7 1070.81  15
  -5  -4   5 184654. 3868.61  23
  -5  -4   5 172149. 3909.57  15
  -5  -4   6 212900. 4314.28  23
  -5  -4   6 207579. 4444.43  15
  -5  -4   7 129644. 3150.37  23
  -5  -4   7 123032. 3226.60  15
  -5  -3 -11 36621.3 962.607  91
  -5  -3 -11 38055.5 902.414  89
  -5  -3 -11 37855.3 976.876  40
  -5  -3 -10 36597.5 1218.03  40
  -5  -3 -10 34810.6 1148.94  89
  -5  -3 -10 38029.6 1251.80  91
  -5  -3 -10 35962.0 1125.35  77
  -5  -3  -9 124011. 2637.99  76
  -5  -3  -9 129201. 2761.70  91
  -5  -3  -9 123699. 2623.48  89
  -5  -3  -9 126066. 2356.92  74
  -5  -3  -9 124333. 2608.67  77
  -5  -3  -9 122717. 2648.29  40
  -5  -3  -9 119117. 2540.60  46
  -5  -3  -8 157692. 3055.92  72
  -5  -3  -8 165126. 3242.63  40
  -5  -3  -8 164039. 2912.02  86
  -5  -3  -8 163318. 3024.72  74
  -5  -3  -8 156228. 3143.95  89
  -5  -3  -8 160137. 2943.43  81
  -5  -3  -8 151745. 3118.81  14
  -5  -3  -8 164365. 3232.39  77
  -5  -3  -8 157996. 3119.75  46
  -5  -3  -8 157891. 3134.45  76
  -5  -3  -8 149652. 2794.88  21
  -5  -3  -7 226339. 3616.27  37
  -5  -3  -7 229566. 3736.39  81
  -5  -3  -7 198447. 3412.64  21
  -5  -3  -7 213716. 3696.17  76
  -5  -3  -7 219624. 3797.82  40
  -5  -3  -7 226658. 3672.64  86
  -5  -3  -7 232275. 3952.89  77
  -5  -3  -7 226265. 3801.39  72
  -5  -3  -7 214066. 3707.12  74
  -5  -3  -7 222024. 3802.98  46
  -5  -3  -7 227015. 3879.89  89
  -5  -3  -7 214738. 3827.59  14
  -5  -3  -6 109864. 2410.00  81
  -5  -3  -6 110284. 2507.62  77
  -5  -3  -6 109952. 2391.39  37
  -5  -3  -6 113350. 2363.39  76
  -5  -3  -6 114027. 2479.33  89
  -5  -3  -6 112183. 2416.96  86
  -5  -3  -6 112479. 2481.70  60
  -5  -3  -6 108737. 2460.17  72
  -5  -3  -6 109976. 2383.09  40
  -5  -3  -6 109938. 2458.02  74
  -5  -3  -6 111798. 2431.26  46
  -5  -3  -5 79700.8 1752.36  25
  -5  -3  -5 79669.4 1964.86  60
  -5  -3  -5 79589.7 1964.52  74
  -5  -3  -5 78317.2 1961.11  72
  -5  -3  -4 135164. 2274.47  25
  -5  -3  -4 138594. 2526.41  60
  -5  -3  -4 128437. 2254.95   3
  -5  -3  -4 137476. 2584.53  72
  -5  -3  -4 135437. 2540.67  74
  -5  -3  -3 225710. 3037.89  25
  -5  -3  -3 228640. 3321.65  74
  -5  -3  -3 225090. 3217.82  60
  -5  -3  -3 221975. 3397.69   5
  -5  -3  -3 214436. 3141.57   3
  -5  -3  -3 219202. 3367.54  72
  -5  -3  -2 211172. 2922.66  60
  -5  -3  -2 219806. 2982.90  24
  -5  -3  -2 204178. 3206.33  72
  -5  -3  -2 215298. 3035.89  74
  -5  -3  -2 196288. 3122.40   5
  -5  -3  -1 30689.8 874.746  60
  -5  -3  -1 33318.1 1125.38  72
  -5  -3  -1 30437.5 1052.72   5
  -5  -3  -1 33762.5 969.051  74
  -5  -3  -1 31376.5 872.302  65
  -5  -3   0 66021.5 1637.25   5
  -5  -3   0 70698.0 1283.57  60
  -5  -3   0 66894.5 1652.89  72
  -5  -3   0 66617.2 1412.79  65
  -5  -3   0 66548.8 1688.74  15
  -5  -3   1 176861. 2645.07  65
  -5  -3   1 177941. 2979.94  72
  -5  -3   2 328936. 4848.73  15
  -5  -3   2 334037. 4720.24   5
  -5  -3   3 272724. 3926.07  65
  -5  -3   3 276792. 4469.49  15
  -5  -3   3 274522. 4337.88  23
  -5  -3   4 123505. 2980.42  15
  -5  -3   4 117784. 2865.19  23
  -5  -3   4 127627. 2593.37  65
  -5  -3   5 33837.4 1347.47  65
  -5  -3   5 29493.6 1467.82  23
  -5  -3   6 240471. 4338.14  11
  -5  -3   6 211738. 4436.34  23
  -5  -3   7 163174. 3815.57  23
  -5  -3   7 189418. 3851.94  11
  -5  -3   8 116986. 3089.00  15
  -5  -3   8 145061. 3172.34  27
  -5  -2 -11 91141.0 1500.61  40
  -5  -2 -11 91325.8 1483.16  91
  -5  -2 -10 44130.6 1296.58  40
  -5  -2 -10 43146.0 1224.80  89
  -5  -2 -10 45402.8 1311.06  91
  -5  -2  -9 60906.8 1686.90  77
  -5  -2  -9 64734.9 1785.89  89
  -5  -2  -9 63637.1 1827.95  91
  -5  -2  -9 66140.5 1868.76  40
  -5  -2  -9 65347.9 1592.42  74
  -5  -2  -8 103083. 2530.45  40
  -5  -2  -8 109234. 2284.28  86
  -5  -2  -8 102167. 2486.48  76
  -5  -2  -8 106797. 2383.32  74
  -5  -2  -8 99908.2 2433.50  46
  -5  -2  -8 111720. 2646.25  91
  -5  -2  -8 107528. 2531.98  89
  -5  -2  -8 109754. 2534.40  77
  -5  -2  -8 108812. 2293.80  81
  -5  -2  -8 93483.1 2381.37  14
  -5  -2  -8 92113.4 2233.27  21
  -5  -2  -7 183040. 3241.79  37
  -5  -2  -7 192237. 3337.99  86
  -5  -2  -7 192434. 3565.26  40
  -5  -2  -7 188520. 3291.07  72
  -5  -2  -7 160200. 3147.92  21
  -5  -2  -7 183763. 3423.73  76
  -5  -2  -7 171606. 3401.88  14
  -5  -2  -7 180879. 3265.56  81
  -5  -2  -7 180162. 3463.39  77
  -5  -2  -7 185566. 3392.68  74
  -5  -2  -7 191083. 3521.55  89
  -5  -2  -7 181384. 3430.60  46
  -5  -2  -6 184656. 3239.89  59
  -5  -2  -6 194335. 3355.24  76
  -5  -2  -6 194448. 3453.46  89
  -5  -2  -6 194382. 3453.54  40
  -5  -2  -6 195538. 3361.77  72
  -5  -2  -6 198123. 3523.95  77
  -5  -2  -6 195024. 3382.07  86
  -5  -2  -6 191676. 3373.73  37
  -5  -2  -6 195935. 3377.84  81
  -5  -2  -6 184685. 3361.20  46
  -5  -2  -6 203746. 3514.53  74
  -5  -2  -6 183058. 3448.56  14
  -5  -2  -6 177024. 3185.92  25
  -5  -2  -5 78767.0 1974.70  74
  -5  -2  -5 68372.7 1756.41  25
  -5  -2  -5 75029.0 1908.25  60
  -5  -2  -5 71628.4 1779.40  59
  -5  -2  -5 75788.0 1876.01  72
  -5  -2  -4 46860.2 1396.60  60
  -5  -2  -4 48672.5 1441.59  74
  -5  -2  -4 50882.2 1416.66  25
  -5  -2  -4 47658.2 1386.84  72
  -5  -2  -4 45524.4 1280.45  59
  -5  -2  -3 43131.3 1250.42  60
  -5  -2  -3 45340.8 1285.84  74
  -5  -2  -3 41313.2 1111.47  59
  -5  -2  -3 39770.7 1297.33   5
  -5  -2  -3 47208.5 1326.01  72
  -5  -2  -3 45426.3 1252.59  25
  -5  -2  -2 335292. 3793.59  59
  -5  -2  -2 345333. 4146.99  60
  -5  -2  -2 341284. 4112.63  74
  -5  -2  -2 341713. 4442.04   5
  -5  -2  -2 327895. 4216.39  72
  -5  -2  -1 167039. 2795.25   5
  -5  -2  -1 162424. 2455.56  60
  -5  -2  -1 167452. 2418.00  74
  -5  -2   0 87641.7 1934.37   5
  -5  -2   0 90326.0 1587.45  60
  -5  -2   0 90230.8 1521.25  68
  -5  -2   0 87388.4 1633.06  65
  -5  -2   0 87336.0 1811.20  72
  -5  -2   0 89325.1 1954.66  15
  -5  -2   1 149732. 2718.40   5
  -5  -2   1 156265. 2259.42  68
  -5  -2   1 151094. 2120.65  60
  -5  -2   1 151843. 2748.58  15
  -5  -2   1 142386. 2349.96  65
  -5  -2   1 143489. 2512.72  72
  -5  -2   2 280626. 4204.46   5
  -5  -2   2 296406. 3882.89  65
  -5  -2   2 279407. 3704.57  68
  -5  -2   2 292373. 4268.05  15
  -5  -2   2 284041. 4206.00  23
  -5  -2   3 429092. 5185.51  65
  -5  -2   3 412356. 5670.37  15
  -5  -2   3 412087. 5640.73  23
  -5  -2   3 409402. 5140.07  68
  -5  -2   4 382888. 5765.65  15
  -5  -2   4 379448. 5728.63  23
  -5  -2   4 394029. 5232.98  65
  -5  -2   4 396483. 5346.13  68
  -5  -2   5 48947.5 1703.96  68
  -5  -2   5 47807.0 1867.87  23
  -5  -2   6 18028.1 1044.38  11
  -5  -2   6 16911.7 1048.01  68
  -5  -2   6 17808.4 1173.17  23
  -5  -2   7 150475. 3324.80  27
  -5  -2   7 135781. 3227.34  68
  -5  -2   7 153555. 3375.34  11
  -5  -2   7 139116. 3536.30  23
  -5  -2   8 102593. 2885.24  23
  -5  -2   8 107974. 2758.28  27
  -5  -2   9 161656. 3224.96  27
  -5  -1 -10 99684.5 1893.16  40
  -5  -1 -10 99461.7 1783.08  89
  -5  -1 -10 103769. 1918.27  91
  -5  -1  -9 69738.1 1841.55  40
  -5  -1  -9 68029.1 1771.20  89
  -5  -1  -9 67494.4 1811.38  91
  -5  -1  -8 25587.8 1200.75  40
  -5  -1  -8 22039.0 1071.63  14
  -5  -1  -8 24488.8 1148.43  89
  -5  -1  -8 26748.9 1221.84  91
  -5  -1  -8 23066.7 1066.72  21
  -5  -1  -8 25844.0 1102.28  74
  -5  -1  -8 24527.7 998.825  86
  -5  -1  -8 25036.5 1003.27  37
  -5  -1  -7 100668. 2531.38  40
  -5  -1  -7 103187. 2339.51  81
  -5  -1  -7 87037.8 2265.66  21
  -5  -1  -7 96598.4 2412.30  77
  -5  -1  -7 104461. 2384.51  86
  -5  -1  -7 91454.2 2380.06  14
  -5  -1  -7 103503. 2353.38  37
  -5  -1  -7 104863. 2472.82  74
  -5  -1  -7 104195. 2565.58  91
  -5  -1  -7 99537.4 2475.82  89
  -5  -1  -6 75692.7 2098.45  40
  -5  -1  -6 77564.2 2056.74  86
  -5  -1  -6 74968.0 1987.97  81
  -5  -1  -6 77923.5 2111.15  74
  -5  -1  -6 73730.8 2048.66  89
  -5  -1  -6 73373.2 2054.28  77
  -5  -1  -6 77340.1 2055.34  37
  -5  -1  -6 67543.9 2002.96  14
  -5  -1  -6 81922.6 2167.56  91
  -5  -1  -6 71865.0 1996.41  46
  -5  -1  -6 68714.6 1937.63  25
  -5  -1  -5 277343. 4126.22  60
  -5  -1  -5 276572. 4153.21  81
  -5  -1  -5 288983. 4280.58  40
  -5  -1  -5 279907. 4298.00  74
  -5  -1  -5 266827. 4159.02  86
  -5  -1  -5 276229. 4112.88  46
  -5  -1  -5 276359. 4159.24  89
  -5  -1  -5 263993. 4070.41  59
  -5  -1  -5 270759. 4212.63  37
  -5  -1  -5 282128. 4258.53  77
  -5  -1  -5 276997. 4075.38  76
  -5  -1  -5 264211. 4090.27  25
  -5  -1  -4 67790.5 1707.64  59
  -5  -1  -4 71544.9 1786.88  60
  -5  -1  -4 72578.0 1843.66  74
  -5  -1  -4 67000.7 1744.79  25
  -5  -1  -3 25491.1 978.417  60
  -5  -1  -3 29569.0 965.695  72
  -5  -1  -3 25282.2 1047.53   5
  -5  -1  -3 27759.9 945.031  68
  -5  -1  -3 25688.8 994.409  25
  -5  -1  -3 26631.5 1003.22  74
  -5  -1  -3 22402.1 887.007  59
  -5  -1  -2 147254. 2353.30  59
  -5  -1  -2 152198. 2379.73  68
  -5  -1  -2 146185. 2463.06  60
  -5  -1  -2 148664. 2670.62   5
  -5  -1  -2 148533. 2430.40  74
  -5  -1  -1 343976. 4491.18   5
  -5  -1  -1 349261. 4106.62  72
  -5  -1  -1 341783. 4031.57  68
  -5  -1  -1 331894. 3894.36  59
  -5  -1  -1 335557. 3944.81  74
  -5  -1  -1 349666. 4140.81  60
  -5  -1   0 457850. 5062.17  72
  -5  -1   0 463968. 5477.95  15
  -5  -1   0 461683. 5537.61   5
  -5  -1   0 467863. 4984.22  60
  -5  -1   0 455715. 4791.25  59
  -5  -1   1 170411. 2926.04   5
  -5  -1   1 166868. 2281.02  59
  -5  -1   1 167633. 2404.10  60
  -5  -1   1 165759. 2565.14  72
  -5  -1   1 168724. 2564.66  68
  -5  -1   2 207414. 3123.56  68
  -5  -1   2 197291. 2658.20  59
  -5  -1   2 214143. 2795.44  60
  -5  -1   2 207872. 3443.87   5
  -5  -1   2 202223. 3360.78  15
  -5  -1   3 57562.1 1784.99  23
  -5  -1   3 59676.4 1758.20  15
  -5  -1   3 59280.6 1635.30  68
  -5  -1   4 354077. 5435.84  23
  -5  -1   4 358771. 5140.99  68
  -5  -1   4 368822. 5388.50  15
  -5  -1   5 317429. 5029.33  68
  -5  -1   5 311744. 5265.90  23
  -5  -1   6 24163.4 1154.38  11
  -5  -1   6 21558.6 1219.51  68
  -5  -1   6 23207.4 1341.30  23
  -5  -1   7 70901.5 2461.04  23
  -5  -1   7 79596.6 2306.82  27
  -5  -1   7 67250.1 2271.95  68
  -5  -1   7 80838.7 2279.30  11
  -5  -1   8 39618.8 1767.57  23
  -5  -1   8 42763.5 1424.68  92
  -5  -1   8 41656.1 1721.34  68
  -5  -1   8 43417.2 1700.34  27
  -5  -1   9 102902. 2262.28  35
  -5  -1   9 107948. 2617.80  27
  -5  -1  10 152430. 2478.76  45
  -5   0 -10 84417.5 1474.44  91
  -5   0 -10 81933.4 1453.02  56
  -5   0  -9 63615.7 1620.67  40
  -5   0  -9 61873.1 1598.70  91
  -5   0  -8 45917.7 1562.45  40
  -5   0  -8 45069.7 1516.37  89
  -5   0  -8 46202.4 1549.62  91
  -5   0  -8 44022.8 1308.56  37
  -5   0  -8 44998.4 1427.64  74
  -5   0  -7 71846.5 2032.58  14
  -5   0  -7 72325.1 2044.64  21
  -5   0  -7 79229.9 2147.01  74
  -5   0  -7 80106.8 2194.40  91
  -5   0  -7 80930.2 2240.24  40
  -5   0  -7 75232.2 2016.93  37
  -5   0  -7 83298.6 2040.13  81
  -5   0  -7 81782.7 2070.41  86
  -5   0  -7 81813.4 2214.45  89
  -5   0  -6 14941.6 935.608  40
  -5   0  -6 14911.0 908.248  21
  -5   0  -6 17287.8 965.735  86
  -5   0  -6 16552.6 960.513  14
  -5   0  -6 18366.3 970.032  81
  -5   0  -6 16946.6 968.286  91
  -5   0  -6 17007.4 989.635  74
  -5   0  -6 16496.8 966.465  89
  -5   0  -6 17594.8 988.892  37
  -5   0  -5 151339. 3067.91  25
  -5   0  -5 160663. 3170.67  14
  -5   0  -5 162895. 3195.68  40
  -5   0  -5 168734. 3113.38  91
  -5   0  -5 158510. 3084.30  81
  -5   0  -5 158661. 3114.83  89
  -5   0  -5 170460. 3288.37  74
  -5   0  -5 172022. 3250.46  86
  -5   0  -5 171224. 3293.55  37
  -5   0  -4 203961. 3537.21  25
  -5   0  -4 235768. 3759.28  74
  -5   0  -4 219203. 3581.21  40
  -5   0  -4 223322. 3688.79  37
  -5   0  -4 190190. 3396.54  59
  -5   0  -4 215921. 3457.89  60
  -5   0  -3 176127. 3092.92  25
  -5   0  -3 189515. 3060.72  68
  -5   0  -3 172722. 3035.91  74
  -5   0  -3 186271. 3044.11  60
  -5   0  -3 177490. 3004.54  59
  -5   0  -2 186211. 2955.91  68
  -5   0  -2 198321. 2988.51  74
  -5   0  -2 188421. 3129.95   5
  -5   0  -2 194952. 2997.66  60
  -5   0  -1 263753. 3546.41  68
  -5   0  -1 233297. 3330.52  59
  -5   0  -1 266272. 3537.63  60
  -5   0  -1 254120. 3702.92   5
  -5   0  -1 242395. 3280.35  74
  -5   0   0 298771. 3901.82  68
  -5   0   0 293083. 3703.18  59
  -5   0   0 302082. 3777.96  60
  -5   0   1 109357. 2176.47  15
  -5   0   1 103368. 2224.21   5
  -5   0   1 108003. 2112.46  68
  -5   0   1 104026. 1905.00  59
  -5   0   1 110885. 1964.00  60
  -5   0   2 276852. 3989.93  15
  -5   0   2 284407. 3601.32  60
  -5   0   2 272995. 3563.56  59
  -5   0   2 276988. 4145.74   5
  -5   0   2 265834. 3886.72  68
  -5   0   3 25251.0 1084.54  68
  -5   0   3 23743.3 1050.79  15
  -5   0   3 25487.1 896.021  60
  -5   0   3 24047.6 901.184  59
  -5   0   3 22747.2 1097.05   5
  -5   0   4 207256. 3693.44  15
  -5   0   4 212976. 3254.03  59
  -5   0   4 214410. 3963.96  23
  -5   0   4 213595. 3917.82   5
  -5   0   4 211523. 3760.43  68
  -5   0   5 243673. 4540.31  23
  -5   0   5 250567. 4355.43  15
  -5   0   5 254184. 4469.37  68
  -5   0   6 138124. 3397.92  23
  -5   0   6 152662. 2967.65  11
  -5   0   6 139550. 2640.72  94
  -5   0   6 145034. 3044.93  27
  -5   0   6 146739. 3324.49  15
  -5   0   6 142283. 3345.39  68
  -5   0   7 44261.4 1896.83  23
  -5   0   7 41088.2 1773.07  68
  -5   0   7 46101.7 1643.07  11
  -5   0   7 45020.2 1688.45  27
  -5   0   7 41240.4 1743.30  15
  -5   0   8 73088.2 2136.57  35
  -5   0   8 79720.8 2322.69  27
  -5   0   8 78511.4 2072.19  92
  -5   0   8 74008.7 2323.60  15
  -5   0   8 73531.2 2438.25  23
  -5   0   8 74370.0 2381.27  68
  -5   0   9 69894.3 1884.03  35
  -5   0   9 72817.2 2132.15  27
  -5   0   9 70693.5 1782.19  92
  -5   0  10 121777. 2372.27  45
  -5   0  11 146795. 2303.13  47
  -5   1  -9 56914.4 1305.36  56
  -5   1  -9 57377.5 1311.85  91
  -5   1  -8 60328.0 1644.32  91
  -5   1  -8 61071.5 1680.16  40
  -5   1  -8 59093.1 1411.73  37
  -5   1  -7 48111.2 1605.40  91
  -5   1  -7 46533.2 1569.38  74
  -5   1  -7 48266.0 1511.18  86
  -5   1  -7 48023.2 1627.02  89
  -5   1  -7 47927.3 1541.79  37
  -5   1  -7 47305.3 1629.03  40
  -5   1  -6 84052.2 2234.86  86
  -5   1  -6 80686.3 2176.53  91
  -5   1  -6 79178.0 2080.10  14
  -5   1  -6 84652.6 2277.62  37
  -5   1  -6 79786.0 2223.11  89
  -5   1  -6 84164.4 2294.87  74
  -5   1  -6 84548.6 2161.31  81
  -5   1  -6 80727.2 2251.70  40
  -5   1  -5 67905.5 2008.67  25
  -5   1  -5 76587.7 2150.93  86
  -5   1  -5 73774.3 2111.89  40
  -5   1  -5 71603.5 1996.29  14
  -5   1  -5 70016.6 2022.22  81
  -5   1  -5 74768.8 2002.71  91
  -5   1  -5 77165.2 2204.42  74
  -5   1  -5 72777.0 2091.00  89
  -5   1  -5 77640.1 2208.28  37
  -5   1  -4 350955. 5224.78  25
  -5   1  -4 370764. 5183.94  14
  -5   1  -4 376139. 5286.25  81
  -5   1  -4 373144. 4956.08  91
  -5   1  -4 372567. 5322.70  40
  -5   1  -4 372618. 5218.47  89
  -5   1  -4 379807. 5038.52  52
  -5   1  -4 388404. 5173.52  95
  -5   1  -4 359994. 5392.31  37
  -5   1  -4 383470. 5422.55  86
  -5   1  -4 394744. 5479.88  74
  -5   1  -4 367088. 4954.93  60
  -5   1  -3 228277. 3671.87  68
  -5   1  -3 223130. 3493.98  60
  -5   1  -3 209982. 3578.58  59
  -5   1  -3 217040. 3660.45  86
  -5   1  -3 236989. 3841.20  37
  -5   1  -3 214846. 3603.94  81
  -5   1  -3 241705. 3812.99  74
  -5   1  -3 219083. 3718.31  25
  -5   1  -3 216140. 3646.09  40
  -5   1  -2 114755. 2377.08  68
  -5   1  -2 110694. 2318.59   5
  -5   1  -2 116503. 2343.29  74
  -5   1  -2 112661. 2251.96  60
  -5   1  -2 113001. 2436.34  25
  -5   1  -1 143238. 2590.21  59
  -5   1  -1 150506. 2584.69  60
  -5   1  -1 151895. 2529.28  74
  -5   1  -1 141790. 2631.48   5
  -5   1  -1 144428. 2683.26  68
  -5   1   0 141229. 2206.41  71
  -5   1   0 128410. 2380.59  59
  -5   1   0 131686. 2516.81  68
  -5   1   0 136901. 2406.19  60
  -5   1   0 141460. 2222.84  17
  -5   1   0 139846. 2224.69  74
  -5   1   0 131130. 2518.00   5
  -5   1   1 288123. 4169.25   5
  -5   1   1 300399. 4202.21  68
  -5   1   1 296325. 3643.16  71
  -5   1   1 305191. 3962.79  60
  -5   1   1 297294. 3977.80  59
  -5   1   1 299509. 3680.45  17
  -5   1   2 180443. 2937.62  15
  -5   1   2 184753. 3162.10  68
  -5   1   2 182206. 2831.80  60
  -5   1   2 179545. 3162.64   5
  -5   1   3 71015.2 1680.92  60
  -5   1   3 70197.5 1929.43  68
  -5   1   3 70638.7 1962.26   5
  -5   1   3 69935.3 1728.19  59
  -5   1   3 74354.0 1817.04  15
  -5   1   4 39095.9 1260.26  60
  -5   1   4 38504.4 1498.05  68
  -5   1   4 41467.8 1417.79  15
  -5   1   4 43430.1 1600.26   5
  -5   1   4 42427.7 1307.51  27
  -5   1   4 40260.5 1341.54  59
  -5   1   5 149747. 2935.75  59
  -5   1   5 155320. 3422.29  23
  -5   1   5 160761. 2908.68  94
  -5   1   5 155061. 3373.80   5
  -5   1   5 148950. 3027.04  58
  -5   1   5 158366. 3392.10  68
  -5   1   5 155852. 3114.32  15
  -5   1   6 323932. 5434.59  23
  -5   1   6 326611. 5060.74  15
  -5   1   6 310385. 4469.12  39
  -5   1   6 327638. 4915.45  27
  -5   1   6 326723. 4609.67  94
  -5   1   6 326481. 5419.81  68
  -5   1   7 120073. 2840.00  27
  -5   1   7 119894. 3116.48  23
  -5   1   7 116667. 2818.75  35
  -5   1   7 116791. 3076.32  68
  -5   1   7 117208. 2691.50  92
  -5   1   7 117995. 2458.53  94
  -5   1   7 124635. 2914.09  15
  -5   1   8 91060.2 2654.62  68
  -5   1   8 94939.5 2534.08  27
  -5   1   8 90232.0 2428.74  15
  -5   1   8 93249.4 2438.47  35
  -5   1   8 90290.2 2630.66  23
  -5   1   9 53048.2 1648.55  35
  -5   1   9 52847.8 1755.96  27
  -5   1   9 54380.9 1618.74  92
  -5   1  10 56861.4 1401.64  92
  -5   1  10 54100.1 1376.44  35
  -5   1  10 57312.2 1604.97  45
  -5   1  11 157247. 2428.87  47
  -5   1  11 155951. 2280.77  45
  -5   2  -8 71714.1 1550.35  91
  -5   2  -8 73396.1 1562.51  56
  -5   2  -7 126693. 2506.39  91
  -5   2  -7 121845. 2300.71  86
  -5   2  -7 129487. 2520.74  56
  -5   2  -7 125871. 2450.52  37
  -5   2  -6 122468. 2657.01  86
  -5   2  -6 120068. 2715.62  37
  -5   2  -6 124838. 2554.84  81
  -5   2  -6 119578. 2580.29  91
  -5   2  -6 121324. 2738.56  74
  -5   2  -5 41439.9 1561.14  21
  -5   2  -5 45496.4 1673.90  40
  -5   2  -5 46898.2 1700.30  86
  -5   2  -5 46987.6 1734.41  37
  -5   2  -5 43595.3 1500.14  91
  -5   2  -5 46332.6 1706.05  74
  -5   2  -4 142649. 3107.18  40
  -5   2  -4 138957. 3012.87  25
  -5   2  -4 155193. 3324.74  37
  -5   2  -4 152388. 2853.70  91
  -5   2  -4 147187. 2943.25  52
  -5   2  -4 153104. 3134.47  89
  -5   2  -4 159280. 3290.70  74
  -5   2  -4 155331. 3008.55  95
  -5   2  -4 151850. 3150.94  81
  -5   2  -4 154819. 3259.54  86
  -5   2  -3 229024. 3946.84  68
  -5   2  -3 250994. 4085.45  95
  -5   2  -3 238334. 3889.12  89
  -5   2  -3 236552. 4126.63  37
  -5   2  -3 226233. 3970.63  25
  -5   2  -3 223192. 3912.78  81
  -5   2  -3 238168. 4075.13  86
  -5   2  -3 232897. 4008.04  74
  -5   2  -3 236805. 4022.37  52
  -5   2  -2 146590. 2949.35  59
  -5   2  -2 171420. 3269.16  52
  -5   2  -2 155210. 3054.40  37
  -5   2  -2 156824. 3034.57  81
  -5   2  -2 167781. 3231.02  95
  -5   2  -2 182315. 3124.11  85
  -5   2  -2 159910. 2869.22  60
  -5   2  -2 152663. 3022.10  68
  -5   2  -2 160029. 3037.79  74
  -5   2  -2 153196. 3077.77  25
  -5   2  -2 160105. 3073.36  86
  -5   2  -1 93216.8 2184.98  59
  -5   2  -1 92574.6 2067.77  60
  -5   2  -1 100779. 2168.26  74
  -5   2  -1 98844.2 2308.27  25
  -5   2  -1 96196.0 2261.51  68
  -5   2   0 60241.3 1729.13  68
  -5   2   0 56769.8 1496.65  17
  -5   2   0 58843.4 1501.15  71
  -5   2   0 60109.5 1501.10  74
  -5   2   0 56180.9 1619.92  59
  -5   2   0 58530.4 1580.43  60
  -5   2   1 158123. 2661.54  71
  -5   2   1 165041. 2826.68  60
  -5   2   1 166603. 2866.75   5
  -5   2   1 150858. 2808.74  59
  -5   2   1 170402. 3102.27  68
  -5   2   1 159445. 2696.64  17
  -5   2   2 268108. 3981.43   5
  -5   2   2 253244. 3887.26  59
  -5   2   2 260745. 3697.10  71
  -5   2   2 280770. 4268.77  68
  -5   2   2 278359. 3903.97  60
  -5   2   2 252334. 3705.58  17
  -5   2   3 199232. 3162.22  71
  -5   2   3 199832. 3253.19  60
  -5   2   3 200362. 3441.54   5
  -5   2   3 194860. 3147.28  17
  -5   2   3 204296. 3640.16  68
  -5   2   4 39420.5 1547.02  68
  -5   2   4 40651.6 1394.86  94
  -5   2   4 37594.6 1297.11  17
  -5   2   4 40770.1 1355.80  60
  -5   2   4 37268.5 1378.17  59
  -5   2   4 36454.0 1416.16   5
  -5   2   4 39770.7 1325.35  71
  -5   2   5 54440.1 1920.33  68
  -5   2   5 59695.5 1755.10  94
  -5   2   5 56824.2 1778.44  59
  -5   2   5 58492.6 1722.83  17
  -5   2   5 61197.6 1916.93  35
  -5   2   5 57596.2 1691.42  71
  -5   2   5 58336.0 1599.89  75
  -5   2   5 54511.8 1851.87   5
  -5   2   5 62715.3 1781.95  39
  -5   2   6 170502. 3713.39  68
  -5   2   6 183275. 3210.83  39
  -5   2   6 177556. 3277.65  94
  -5   2   6 182784. 3603.10  35
  -5   2   6 171970. 3287.58  17
  -5   2   6 182979. 3443.67  92
  -5   2   6 185751. 3433.47  27
  -5   2   6 172165. 3273.46  71
  -5   2   7 304733. 4991.41  35
  -5   2   7 310821. 4859.74  92
  -5   2   7 308970. 5318.71  68
  -5   2   7 316527. 4762.14  17
  -5   2   7 318881. 4614.35  94
  -5   2   7 305576. 4675.57  71
  -5   2   8 164444. 3340.87  35
  -5   2   8 160611. 3572.03  68
  -5   2   8 166878. 3297.97  92
  -5   2   8 169785. 3007.60  94
  -5   2   9 51330.9 1607.59  35
  -5   2   9 53068.3 1641.18  92
  -5   2   9 53888.5 1689.36  27
  -5   2  10 16431.8 759.339  92
  -5   2  10 16984.1 831.963  45
  -5   2  11 41144.6 1055.64  45
  -5   2  11 39862.8 1028.97  47
  -5   3  -7 158481. 2442.85  91
  -5   3  -7 162062. 2454.56  56
  -5   3  -6 163918. 3003.05  37
  -5   3  -6 160951. 2788.09  91
  -5   3  -6 162819. 2787.99  56
  -5   3  -6 167758. 2908.39  86
  -5   3  -5 75337.4 2156.59  37
  -5   3  -5 75393.3 2090.73  86
  -5   3  -5 76909.9 1902.48  56
  -5   3  -5 75352.0 1885.38  91
  -5   3  -4 13257.3 873.413  81
  -5   3  -4 15009.9 804.113  56
  -5   3  -4 14464.0 789.594  91
  -5   3  -4 14293.8 847.419  52
  -5   3  -4 12535.2 816.603  21
  -5   3  -4 14152.5 929.778  86
  -5   3  -4 14807.3 973.713  37
  -5   3  -4 12912.5 796.059  95
  -5   3  -3 54319.8 1807.37  25
  -5   3  -3 62501.5 1947.78  95
  -5   3  -3 58916.9 1949.90  86
  -5   3  -3 63335.2 1865.70  80
  -5   3  -3 57374.6 1886.13  81
  -5   3  -3 61171.1 2009.98  37
  -5   3  -3 62461.4 1952.90  52
  -5   3  -3 59103.1 1915.13  74
  -5   3  -2 261147. 4409.61  52
  -5   3  -2 236591. 4096.43  68
  -5   3  -2 238554. 4183.80  37
  -5   3  -2 234028. 4139.30  86
  -5   3  -2 246687. 4188.88  81
  -5   3  -2 238715. 4116.67  25
  -5   3  -2 249567. 4307.67  95
  -5   3  -2 249330. 3993.68  85
  -5   3  -2 243959. 4108.96  74
  -5   3  -1 196294. 3658.66  68
  -5   3  -1 197167. 3761.18  95
  -5   3  -1 199664. 3580.39  86
  -5   3  -1 212720. 3752.23  85
  -5   3  -1 211183. 3571.96  75
  -5   3  -1 190039. 3533.77  81
  -5   3  -1 203940. 3590.39  37
  -5   3  -1 212853. 3919.21  52
  -5   3  -1 197843. 3599.54  25
  -5   3   0 162434. 3204.59  85
  -5   3   0 144657. 2817.81  86
  -5   3   0 146630. 2796.33  71
  -5   3   0 149740. 2986.89  25
  -5   3   0 154954. 3152.89  95
  -5   3   0 146768. 2943.69  59
  -5   3   0 152659. 2961.95  39
  -5   3   0 142452. 2862.53  81
  -5   3   0 151734. 2810.08  37
  -5   3   0 139387. 2743.69  60
  -5   3   0 162675. 3114.52  75
  -5   3   0 155557. 3191.32  52
  -5   3   0 147886. 3038.37  68
  -5   3   1 4773.99 432.315  86
  -5   3   1 4064.71 421.908  60
  -5   3   1 3444.69 422.546  68
  -5   3   1 6977.62 600.961  52
  -5   3   1 2835.60 345.369  71
  -5   3   1 5043.82 521.081  85
  -5   3   1 4988.43 491.833  59
  -5   3   1 3950.45 448.113  75
  -5   3   1 3751.97 449.676  39
  -5   3   1 5657.20 532.882  95
  -5   3   1 2706.49 343.624  17
  -5   3   2 138732. 2732.43  52
  -5   3   2 122248. 2768.35  68
  -5   3   2 114788. 2577.44  59
  -5   3   2 137162. 2719.05  94
  -5   3   2 128389. 2753.98  75
  -5   3   2 131176. 2635.55  95
  -5   3   2 117114. 2484.45  71
  -5   3   2 133650. 2802.90  85
  -5   3   2 116281. 2487.23  17
  -5   3   2 125310. 2555.30  60
  -5   3   2 134563. 2880.85  39
  -5   3   3 256062. 4101.84  85
  -5   3   3 242399. 3928.49  17
  -5   3   3 257520. 3985.13  60
  -5   3   3 267869. 4182.78  75
  -5   3   3 269925. 4188.47  94
  -5   3   3 249977. 3948.17  71
  -5   3   3 267578. 4312.08  39
  -5   3   3 248069. 4081.17  59
  -5   3   3 253582. 3803.19  95
  -5   3   3 254628. 3842.20  52
  -5   3   3 266565. 4387.96  68
  -5   3   3 261901. 4075.77  35
  -5   3   4 338299. 5323.85  68
  -5   3   4 369843. 5015.60  92
  -5   3   4 347483. 4937.94  75
  -5   3   4 335946. 5073.56  35
  -5   3   4 349059. 4872.22  85
  -5   3   4 332105. 4877.47  17
  -5   3   4 338499. 5070.66  39
  -5   3   4 335043. 4874.96  71
  -5   3   4 357043. 5116.06  94
  -5   3   5 163615. 3064.75  75
  -5   3   5 160751. 3476.44  68
  -5   3   5 165266. 3200.62  39
  -5   3   5 175017. 3294.47  92
  -5   3   5 173355. 3310.83  94
  -5   3   5 163788. 3207.09  17
  -5   3   5 164401. 3374.51  35
  -5   3   5 160170. 3157.11  71
  -5   3   5 156027. 2884.00  85
  -5   3   6 15577.2 1025.79  68
  -5   3   6 16117.5 996.305  35
  -5   3   6 17757.2 997.021  92
  -5   3   6 16813.6 960.329  17
  -5   3   6 15626.3 873.434  39
  -5   3   6 15912.1 933.348  94
  -5   3   6 15112.0 823.489  75
  -5   3   6 16435.6 947.344  71
  -5   3   7 87258.1 2296.10  92
  -5   3   7 75982.5 2099.77  71
  -5   3   7 81121.5 2287.04  35
  -5   3   7 75725.4 2111.60  17
  -5   3   7 81008.8 2128.44  94
  -5   3   7 75430.3 2335.68  68
  -5   3   7 85325.0 1990.95  39
  -5   3   8 139005. 2708.18  94
  -5   3   8 129912. 3039.06  68
  -5   3   8 140787. 2908.58  92
  -5   3   8 131089. 2705.79  71
  -5   3   8 139407. 2964.69  35
  -5   3   8 135759. 2767.64  17
  -5   3   9 158357. 2951.52  92
  -5   3  10 70485.4 1635.05  92
  -5   3  10 73268.5 1589.36  47
  -5   3  10 73050.3 1711.71  45
  -5   3  11 13818.5 554.602  45
  -5   4  -6 68354.5 1350.44  91
  -5   4  -6 70277.7 1365.00  56
  -5   4  -5 120188. 2150.61  91
  -5   4  -5 117168. 2505.28  37
  -5   4  -5 120691. 2148.61  56
  -5   4  -4 147004. 3099.02  37
  -5   4  -4 138917. 2612.84  80
  -5   4  -4 139570. 2718.22  52
  -5   4  -3 29839.0 1303.74  95
  -5   4  -3 30272.9 1359.28  86
  -5   4  -3 30587.2 1396.31  37
  -5   4  -3 29831.6 1319.36  52
  -5   4  -3 29113.7 1255.70  80
  -5   4  -2 45083.6 1701.77  80
  -5   4  -2 47918.9 1771.23  95
  -5   4  -2 47148.5 1722.90  37
  -5   4  -2 50162.5 1836.53  52
  -5   4  -2 44587.4 1682.38  86
  -5   4  -2 46893.3 1577.10  25
  -5   4  -1 56050.0 1745.27  25
  -5   4  -1 51795.4 1775.69  68
  -5   4  -1 50073.8 1711.19  37
  -5   4  -1 51364.6 1883.83  52
  -5   4  -1 53668.0 1797.69  85
  -5   4  -1 55180.9 1924.23  95
  -5   4  -1 49643.3 1730.27  86
  -5   4  -1 51887.0 1902.29  80
  -5   4   0 208570. 3913.86  85
  -5   4   0 188584. 3659.55  68
  -5   4   0 201642. 3875.02  95
  -5   4   0 208156. 3975.92  52
  -5   4   0 196839. 3569.26  86
  -5   4   0 209192. 3753.33  75
  -5   4   0 193311. 3469.24  37
  -5   4   0 189668. 3540.79  39
  -5   4   1 168804. 3421.45  39
  -5   4   1 169328. 3425.64  95
  -5   4   1 182208. 3576.96  85
  -5   4   1 164296. 3387.18  68
  -5   4   1 161188. 3171.82  17
  -5   4   1 175935. 3513.88  52
  -5   4   1 160643. 3132.35  71
  -5   4   1 175727. 3474.28  75
  -5   4   2 144858. 3140.93  68
  -5   4   2 150895. 3056.55  95
  -5   4   2 157920. 3057.90  94
  -5   4   2 148162. 3206.20  39
  -5   4   2 150662. 3192.69  75
  -5   4   2 131645. 2863.03  17
  -5   4   2 150685. 3089.58  52
  -5   4   2 153906. 3233.66  85
  -5   4   2 133541. 2861.57  71
  -5   4   3 137117. 3091.02  68
  -5   4   3 151362. 3244.73  39
  -5   4   3 146264. 2882.59  95
  -5   4   3 142687. 3019.79  94
  -5   4   3 137158. 2893.19  71
  -5   4   3 145288. 3073.07  85
  -5   4   3 147819. 3115.75  75
  -5   4   3 136982. 2923.47  17
  -5   4   3 147127. 2871.98  52
  -5   4   4 90063.6 2466.94  68
  -5   4   4 100954. 2314.01  92
  -5   4   4 94932.5 2370.09  85
  -5   4   4 96316.3 2451.74  94
  -5   4   4 87652.3 2324.23  75
  -5   4   4 89856.4 2330.39  17
  -5   4   4 90107.1 2317.69  71
  -5   4   4 95432.4 2496.46  39
  -5   4   5 161554. 3305.19  17
  -5   4   5 168770. 3152.64  85
  -5   4   5 171493. 3576.30  68
  -5   4   5 178451. 3361.08  92
  -5   4   5 166414. 3310.96  71
  -5   4   5 187256. 3520.81  39
  -5   4   5 178682. 3357.58  75
  -5   4   5 184375. 3513.10  94
  -5   4   6 62347.7 1918.93  17
  -5   4   6 72123.4 2079.68  94
  -5   4   6 64332.7 2078.87  68
  -5   4   6 67110.9 1973.59  92
  -5   4   6 65099.3 2024.45  35
  -5   4   6 69195.8 1893.63  75
  -5   4   6 63773.4 1856.66  39
  -5   4   6 61259.1 1913.02  71
  -5   4   7 63853.0 2017.11  68
  -5   4   7 68448.4 1783.87  39
  -5   4   7 67259.1 1935.69  94
  -5   4   7 70699.7 2016.87  92
  -5   4   7 65615.6 1918.88  17
  -5   4   7 63059.7 1864.52  71
  -5   4   8 84140.9 2059.07  94
  -5   4   8 88225.0 2083.33  45
  -5   4   8 83963.6 2133.82  92
  -5   4   9 81511.9 1947.29  92
  -5   4   9 79080.0 1732.68  94
  -5   4   9 81561.4 1867.11  45
  -5   4  10 51283.7 1308.87  92
  -5   4  10 51869.3 1270.44  45
  -5   4  10 55021.7 1340.29  34
  -5   5  -4 79860.1 1629.76  80
  -5   5  -4 80096.2 1660.09  52
  -5   5  -3 30852.1 1164.61  95
  -5   5  -3 30639.3 1178.18  80
  -5   5  -3 30321.6 1203.63  52
  -5   5  -2 56214.9 1820.41  80
  -5   5  -2 52997.5 1533.75  55
  -5   5  -2 56302.6 1843.34  52
  -5   5  -2 55226.8 1795.25  95
  -5   5  -2 54787.6 1765.35  37
  -5   5  -1 134928. 2877.10  85
  -5   5  -1 132015. 3043.13  95
  -5   5  -1 139924. 3153.74  52
  -5   5  -1 139243. 3176.81  80
  -5   5  -1 127139. 2808.76  37
  -5   5  -1 123716. 2782.68  68
  -5   5   0 164930. 3260.45  39
  -5   5   0 168040. 3378.33  68
  -5   5   0 169709. 3591.37  95
  -5   5   0 177617. 3566.22  85
  -5   5   0 187309. 3841.84  80
  -5   5   0 185172. 3448.27  75
  -5   5   0 181056. 3686.67  52
  -5   5   1 142601. 3115.47  39
  -5   5   1 147452. 3230.00  95
  -5   5   1 140405. 3179.10  52
  -5   5   1 148478. 3200.56  75
  -5   5   1 149277. 3297.51  85
  -5   5   2 53139.1 1808.98  68
  -5   5   2 49822.9 1690.83  71
  -5   5   2 58766.3 1974.44  39
  -5   5   2 55768.2 1830.85  52
  -5   5   2 62363.9 2043.77  85
  -5   5   2 51144.6 1729.00  17
  -5   5   2 58524.4 1901.77  95
  -5   5   2 56510.3 1916.03  75
  -5   5   3 72583.0 1968.04  52
  -5   5   3 64628.7 2089.42  39
  -5   5   3 63099.5 1913.60  71
  -5   5   3 63143.1 1979.35  68
  -5   5   3 66295.0 1964.11  94
  -5   5   3 70302.4 2142.73  85
  -5   5   3 68119.2 2098.41  75
  -5   5   3 62390.8 1926.05  17
  -5   5   3 68215.3 1949.10  95
  -5   5   4 96161.8 2487.10  68
  -5   5   4 112145. 2625.66  34
  -5   5   4 98031.5 2241.63  95
  -5   5   4 103777. 2547.27  85
  -5   5   4 104989. 2637.31  39
  -5   5   4 108841. 2654.48  75
  -5   5   4 90950.0 2389.05  17
  -5   5   4 99263.0 2501.49  94
  -5   5   4 89202.8 2338.83  71
  -5   5   5 218336. 3604.70  92
  -5   5   5 200441. 3717.24  68
  -5   5   5 209077. 3769.21  39
  -5   5   5 200258. 3529.97  85
  -5   5   5 208815. 3784.74  94
  -5   5   5 208024. 3728.46  75
  -5   5   5 190507. 3589.88  17
  -5   5   5 187875. 3532.75  71
  -5   5   6 107953. 2262.72  85
  -5   5   6 106432. 2440.64  39
  -5   5   6 109160. 2470.46  92
  -5   5   6 100147. 2457.44  68
  -5   5   6 100068. 2393.48  71
  -5   5   6 106668. 2428.25  75
  -5   5   6 96751.7 2388.85  17
  -5   5   6 114058. 2626.10  94
  -5   5   7 25735.1 1132.72  94
  -5   5   7 25352.9 1016.32  75
  -5   5   7 24556.5 1094.27  92
  -5   5   7 23649.7 974.399  39
  -5   5   8 17761.6 870.070  92
  -5   5   8 19795.3 980.580  34
  -5   5   8 18665.9 884.752  94
  -5   5   9 72991.0 1674.84  92
  -5   5   9 72841.8 1583.82  87
  -5   5   9 72319.2 1454.52  45
  -5   5   9 73230.6 1571.85  94
  -5   5   9 75435.1 1753.08  34
  -5   5  10 73215.4 1430.57  92
  -5   5  10 78355.7 1442.47  34
  -5   6  -3 136369. 2189.81  80
  -5   6  -3 132731. 2183.12  52
  -5   6  -2 53506.4 1526.79  80
  -5   6  -2 50671.6 1505.21  52
  -5   6  -1 40378.0 1438.11  95
  -5   6  -1 44372.2 1534.97  80
  -5   6  -1 42086.9 1488.93  52
  -5   6  -1 41560.1 1300.13  85
  -5   6  -1 39400.9 1299.21  55
  -5   6   0 80063.8 2108.51  85
  -5   6   0 81110.0 2212.11  52
  -5   6   0 83332.4 1944.46  75
  -5   6   0 79289.1 2230.72  80
  -5   6   0 78785.8 2163.65  95
  -5   6   1 104421. 2541.49  95
  -5   6   1 104939. 2557.00  85
  -5   6   1 106225. 2565.42  52
  -5   6   1 101983. 2419.35  75
  -5   6   1 97002.5 2380.30  39
  -5   6   1 108041. 2700.44  80
  -5   6   2 200344. 3741.95  85
  -5   6   2 189702. 3532.17  95
  -5   6   2 188826. 3600.11  39
  -5   6   2 197002. 3564.59  52
  -5   6   2 204205. 3845.42  80
  -5   6   2 195116. 3653.30  75
  -5   6   3 35766.7 1353.03  71
  -5   6   3 43279.9 1612.04  39
  -5   6   3 44644.2 1620.31  85
  -5   6   3 40360.9 1435.41  95
  -5   6   3 43011.3 1442.80  94
  -5   6   3 40227.0 1392.12  52
  -5   6   3 44194.5 1612.47  80
  -5   6   3 43395.3 1596.54  75
  -5   6   3 35889.8 1363.44  17
  -5   6   4 36157.8 1246.73  95
  -5   6   4 36942.2 1464.86  39
  -5   6   4 37154.6 1418.97  85
  -5   6   4 37775.1 1411.84  94
  -5   6   4 38561.3 1409.42  80
  -5   6   4 40498.0 1515.46  75
  -5   6   5 56909.3 1706.55  34
  -5   6   5 57543.9 1757.96  39
  -5   6   5 54513.2 1699.81  75
  -5   6   5 56378.9 1672.00  85
  -5   6   5 54934.2 1729.57  94
  -5   6   6 108705. 2162.36  85
  -5   6   6 110751. 2361.81  75
  -5   6   6 116041. 2516.13  34
  -5   6   6 111582. 2458.70  94
  -5   6   6 110878. 2343.66  39
  -5   6   7 105361. 2282.47  34
  -5   6   7 102463. 2007.28  75
  -5   6   7 99294.7 2165.15  94
  -5   6   7 101407. 2032.06  92
  -5   6   7 99805.2 1938.26  39
  -5   6   8 25995.4 908.136  92
  -5   6   8 26011.1 977.321  34
  -5   6   8 25755.5 943.401  94
  -5   6   9 40946.4 1014.27  92
  -5   6   9 42926.6 1009.88  94
  -5   6   9 43618.2 1096.31  34
  -5   7  -1 51962.1 1302.82  80
  -5   7  -1 47874.9 1060.39  55
  -5   7  -1 50383.9 1285.48  52
  -5   7   0 36814.7 1206.12  80
  -5   7   0 34862.4 1040.04  85
  -5   7   0 34101.7 1150.18  52
  -5   7   0 34210.3 1077.63  55
  -5   7   1 27307.8 940.749  75
  -5   7   1 27941.3 1060.25  85
  -5   7   1 26575.8 1038.37  52
  -5   7   1 26774.4 1059.28  55
  -5   7   1 28764.4 1115.73  80
  -5   7   2 121068. 2454.47  80
  -5   7   2 121569. 2390.07  75
  -5   7   2 119372. 2468.72  85
  -5   7   2 123534. 2354.09  52
  -5   7   3 110489. 2333.85  75
  -5   7   3 115782. 2302.71  80
  -5   7   3 110871. 2379.47  85
  -5   7   3 115240. 2135.95  52
  -5   7   4 31450.1 1157.30  85
  -5   7   4 31445.0 1055.64  94
  -5   7   4 33249.7 1053.80  80
  -5   7   4 30503.3 1149.30  75
  -5   7   4 30617.8 1153.84  39
  -5   7   5 22500.9 897.312  85
  -5   7   5 22970.2 940.938  39
  -5   7   5 23709.1 936.278  94
  -5   7   5 23896.0 974.720  75
  -5   7   6 39926.4 1205.76  94
  -5   7   6 40451.4 1135.15  34
  -5   7   6 39669.4 1044.38  85
  -5   7   6 39376.4 1153.36  75
  -5   7   7 119804. 2009.93  34
  -5   7   7 117376. 2058.78  94
  -5   7   8 113177. 1774.25  94
  -5   8   2 9303.29 453.980  55
  -5   8   3 97955.4 1687.77  55
  -5   8   4 52791.3 1064.25  55
  -5   8   4 16462.0 635.737  88
  -4 -11  -7 27265.6 772.988  86
  -4 -11  -7 26421.5 814.462  81
  -4 -11  -7 25534.2 770.959  89
  -4 -11  -7 27074.4 806.515  46
  -4 -11  -6 63744.2 1370.26  89
  -4 -11  -6 63287.5 1425.03  86
  -4 -11  -6 65578.1 1451.03  46
  -4 -11  -6 63176.3 1436.39  81
  -4 -11  -5 55908.4 1441.25  86
  -4 -11  -5 58415.9 1343.06  89
  -4 -11  -5 56899.9 1393.20  81
  -4 -11  -5 59078.0 1460.49  46
  -4 -11  -4 48561.4 1366.99  46
  -4 -11  -4 47667.2 1184.31  89
  -4 -11  -4 47801.9 1264.30  81
  -4 -11  -4 49160.5 1384.40  86
  -4 -11  -3 25926.5 849.879  81
  -4 -11  -3 28933.8 1040.83  46
  -4 -11  -2 58390.0 1474.19  46
  -4 -11  -1 99019.0 1851.40  46
  -4 -10  -9 32441.4 841.094  81
  -4 -10  -9 34174.8 847.836  46
  -4 -10  -9 32964.1 838.251  77
  -4 -10  -9 33484.6 892.515  89
  -4 -10  -8 28814.6 954.938  89
  -4 -10  -8 27411.2 862.918  77
  -4 -10  -8 28386.0 923.370  46
  -4 -10  -8 29601.7 968.299  81
  -4 -10  -8 28060.2 844.710  86
  -4 -10  -8 27760.2 804.630  32
  -4 -10  -7 34192.1 1118.99  86
  -4 -10  -7 32778.0 1007.64  77
  -4 -10  -7 35212.1 1166.80  89
  -4 -10  -7 35258.6 1188.55  81
  -4 -10  -7 36248.0 1112.17  74
  -4 -10  -7 37381.8 1195.72  46
  -4 -10  -6 75033.9 1902.14  81
  -4 -10  -6 74660.7 1876.80  86
  -4 -10  -6 76666.3 1893.37  46
  -4 -10  -6 69683.3 1646.06  37
  -4 -10  -6 72971.8 1846.86  74
  -4 -10  -6 75144.2 1854.18  89
  -4 -10  -5 108574. 2334.73  89
  -4 -10  -5 108265. 2407.11  81
  -4 -10  -5 112962. 2515.69  31
  -4 -10  -5 110052. 2496.33  74
  -4 -10  -5 107688. 2436.79  46
  -4 -10  -4 112093. 2388.27  89
  -4 -10  -4 109074. 2532.22  46
  -4 -10  -4 112132. 2471.27  81
  -4 -10  -4 111172. 2627.72  31
  -4 -10  -3 78467.3 2194.06  31
  -4 -10  -3 72163.3 1890.37  81
  -4 -10  -3 77162.9 2186.31  74
  -4 -10  -3 75600.9 1855.91  89
  -4 -10  -2 21590.5 1123.95  31
  -4 -10  -2 18996.5 1052.23  74
  -4 -10  -1 75077.9 2109.93  74
  -4 -10  -1 76634.1 2112.55  31
  -4 -10   0 93464.8 2251.46  74
  -4 -10   0 98012.5 2277.62  31
  -4  -9 -10 52316.3 1154.11  89
  -4  -9 -10 51887.5 992.669  81
  -4  -9 -10 52655.7 1093.09  32
  -4  -9 -10 52070.6 1176.83  77
  -4  -9 -10 53281.8 1066.16  46
  -4  -9  -9 78617.1 1617.18  32
  -4  -9  -9 79777.2 1658.61  81
  -4  -9  -9 78583.0 1727.50  77
  -4  -9  -9 79286.8 1724.49  89
  -4  -9  -9 82071.2 1680.59  46
  -4  -9  -8 59722.4 1491.70  86
  -4  -9  -8 60759.2 1625.74  77
  -4  -9  -8 61762.5 1650.79  81
  -4  -9  -8 62504.0 1488.83  74
  -4  -9  -8 60407.3 1519.21  32
  -4  -9  -8 63323.9 1679.19  89
  -4  -9  -8 61639.5 1617.39  46
  -4  -9  -7 48114.6 1548.62  89
  -4  -9  -7 46035.7 1470.18  86
  -4  -9  -7 46666.1 1460.75  74
  -4  -9  -7 47299.5 1557.14  81
  -4  -9  -7 46132.9 1457.41  77
  -4  -9  -7 49702.2 1466.65  29
  -4  -9  -7 46161.2 1378.15  32
  -4  -9  -7 46575.9 1515.68  46
  -4  -9  -6 105523. 2479.38  86
  -4  -9  -6 107269. 2210.32  32
  -4  -9  -6 102918. 2262.40  77
  -4  -9  -6 113579. 2605.11  31
  -4  -9  -6 101853. 2485.55  81
  -4  -9  -6 116300. 2396.68  29
  -4  -9  -6 105717. 2495.78  74
  -4  -9  -6 100115. 2422.34  89
  -4  -9  -6 113438. 2594.35  46
  -4  -9  -6 104489. 2360.41  70
  -4  -9  -5 99223.2 2532.49  74
  -4  -9  -5 94230.2 2352.90  89
  -4  -9  -5 100241. 2558.83  31
  -4  -9  -5 104315. 2302.69  29
  -4  -9  -5 90903.0 2378.86  81
  -4  -9  -5 91492.6 2410.36  46
  -4  -9  -5 92443.7 2352.11  70
  -4  -9  -4 108068. 2665.15  70
  -4  -9  -4 117639. 2628.72  89
  -4  -9  -4 114637. 2488.27  67
  -4  -9  -4 105613. 2594.82  81
  -4  -9  -4 119375. 2900.49  74
  -4  -9  -4 121478. 2911.06  31
  -4  -9  -4 107462. 2669.41  46
  -4  -9  -3 138985. 3080.65  70
  -4  -9  -3 152100. 3351.57  31
  -4  -9  -3 142316. 2934.60  67
  -4  -9  -3 134149. 2896.35  81
  -4  -9  -3 146089. 3322.77  74
  -4  -9  -3 137992. 3158.89  18
  -4  -9  -3 140655. 2883.32  89
  -4  -9  -2 43095.7 1735.45  74
  -4  -9  -2 45355.9 1763.68  31
  -4  -9  -2 41267.2 1611.60  70
  -4  -9  -2 41421.8 1649.50  18
  -4  -9  -2 42335.6 1550.64  67
  -4  -9  -2 37977.2 1391.21  81
  -4  -9  -1 37831.1 1493.63  67
  -4  -9  -1 35974.6 1495.75  70
  -4  -9  -1 38157.1 1597.42  31
  -4  -9  -1 37439.4 1598.86  74
  -4  -9  -1 34092.0 1487.88  18
  -4  -9   0 67183.1 2051.55  70
  -4  -9   0 72354.4 2168.32  31
  -4  -9   0 72417.4 2190.86  74
  -4  -9   0 68732.5 2100.17  18
  -4  -9   1 65348.2 1970.06  70
  -4  -9   1 69141.6 2061.66  67
  -4  -9   1 73057.5 2035.93  31
  -4  -9   1 70697.3 2018.10  74
  -4  -9   1 66648.2 2014.22  18
  -4  -8 -11 19250.0 592.085  89
  -4  -8 -11 20404.1 654.273  77
  -4  -8 -10 22187.9 778.970  46
  -4  -8 -10 23132.6 846.507  89
  -4  -8 -10 22714.3 829.929  32
  -4  -8 -10 21916.0 858.934  77
  -4  -8 -10 22766.6 783.432  76
  -4  -8 -10 22617.1 728.873  81
  -4  -8  -9 109993. 2209.04  46
  -4  -8  -9 114443. 2315.57  89
  -4  -8  -9 110488. 2116.78  76
  -4  -8  -9 114902. 2258.54  32
  -4  -8  -9 108576. 2173.11  81
  -4  -8  -9 113903. 2364.71  77
  -4  -8  -8 195871. 3188.29  86
  -4  -8  -8 197960. 3435.75  89
  -4  -8  -8 195338. 3387.14  81
  -4  -8  -8 188758. 3418.65  77
  -4  -8  -8 194778. 3292.01  32
  -4  -8  -8 203507. 3178.65  76
  -4  -8  -8 200158. 3191.76  74
  -4  -8  -8 200758. 3395.68  46
  -4  -8  -7 54716.0 1682.69  86
  -4  -8  -7 56938.8 1662.60  32
  -4  -8  -7 56227.1 1778.02  89
  -4  -8  -7 54025.4 1725.62  77
  -4  -8  -7 55631.5 1765.52  81
  -4  -8  -7 50807.7 1500.44  72
  -4  -8  -7 60075.9 1738.82  29
  -4  -8  -7 57677.6 1730.33  74
  -4  -8  -7 59334.4 1793.65  46
  -4  -8  -6 110372. 2372.06  32
  -4  -8  -6 108790. 2574.81  86
  -4  -8  -6 107628. 2469.39  77
  -4  -8  -6 112716. 2670.03  81
  -4  -8  -6 111587. 2605.81  89
  -4  -8  -6 117767. 2747.23  31
  -4  -8  -6 110180. 2628.83  46
  -4  -8  -6 116336. 2522.59  29
  -4  -8  -6 116040. 2678.69  74
  -4  -8  -6 107592. 2437.46  70
  -4  -8  -5 34570.0 1288.66  77
  -4  -8  -5 36103.3 1469.09  81
  -4  -8  -5 39881.3 1578.09  31
  -4  -8  -5 40195.8 1572.93  74
  -4  -8  -5 42044.2 1453.07  29
  -4  -8  -5 37064.6 1488.25  46
  -4  -8  -5 35180.1 1401.57  70
  -4  -8  -5 38654.7 1470.72  89
  -4  -8  -4 122435. 2939.84  74
  -4  -8  -4 119572. 2663.41  89
  -4  -8  -4 110896. 2654.19  81
  -4  -8  -4 116216. 2790.45  18
  -4  -8  -4 111152. 2669.57  70
  -4  -8  -4 123925. 2953.87  31
  -4  -8  -4 117108. 2461.87  67
  -4  -8  -4 101062. 2610.69  46
  -4  -8  -3 204507. 3933.87  31
  -4  -8  -3 188088. 3653.07  70
  -4  -8  -3 194522. 3754.58  18
  -4  -8  -3 199328. 3927.56  74
  -4  -8  -3 192281. 3475.86  89
  -4  -8  -2 143302. 3100.52  70
  -4  -8  -2 147650. 3294.49  31
  -4  -8  -2 142485. 3277.08  74
  -4  -8  -2 141316. 3125.28  18
  -4  -8  -1 17398.1 1017.85  24
  -4  -8  -1 17977.6 1033.57  70
  -4  -8  -1 16591.0 1042.68  31
  -4  -8  -1 15788.8 1032.70  74
  -4  -8  -1 18228.8 1052.60  18
  -4  -8   0 8509.54 698.397  24
  -4  -8   0 7829.17 702.426  74
  -4  -8   0 9604.92 766.600  18
  -4  -8   0 8574.97 731.767  31
  -4  -8   0 9067.11 723.770  70
  -4  -8   1 72973.1 2086.01  24
  -4  -8   1 77108.7 2214.49  70
  -4  -8   1 76268.1 2190.26  31
  -4  -8   1 78123.0 2240.70  74
  -4  -8   1 78815.2 2266.34  18
  -4  -8   2 108361. 2628.43  70
  -4  -8   2 111673. 2693.25  18
  -4  -8   3 159703. 3163.80  70
  -4  -8   3 166382. 3245.84  18
  -4  -7 -11 82578.3 1587.13  77
  -4  -7 -11 81842.8 1390.70  46
  -4  -7 -11 80187.4 1486.49  89
  -4  -7 -11 81214.9 1510.62  76
  -4  -7 -10 37452.3 1166.71  76
  -4  -7 -10 38737.8 1260.51  77
  -4  -7 -10 36439.6 1171.04  89
  -4  -7 -10 38254.7 1029.45  81
  -4  -7 -10 37629.1 1203.19  32
  -4  -7 -10 38014.4 1143.83  46
  -4  -7  -9 53490.9 1591.32  32
  -4  -7  -9 57098.4 1662.92  89
  -4  -7  -9 54684.4 1526.46  81
  -4  -7  -9 52122.5 1647.67  77
  -4  -7  -9 56479.6 1588.55  46
  -4  -7  -9 55623.5 1576.43  76
  -4  -7  -8 122424. 2683.22  89
  -4  -7  -8 121943. 2616.58  81
  -4  -7  -8 116287. 2523.31  72
  -4  -7  -8 124990. 2476.69  74
  -4  -7  -8 123878. 2755.40  77
  -4  -7  -8 124710. 2641.51  46
  -4  -7  -8 123982. 2464.68  86
  -4  -7  -8 119602. 2579.03  32
  -4  -7  -8 122702. 2525.13  76
  -4  -7  -7 141299. 2979.10  89
  -4  -7  -7 142135. 2971.18  81
  -4  -7  -7 142338. 2949.21  46
  -4  -7  -7 136094. 2945.28  77
  -4  -7  -7 139201. 2818.87  86
  -4  -7  -7 142557. 2713.41  76
  -4  -7  -7 152353. 2961.51  29
  -4  -7  -7 147442. 2928.70  74
  -4  -7  -7 140919. 2814.03  32
  -4  -7  -7 136285. 2814.00  72
  -4  -7  -6 122873. 2728.36  77
  -4  -7  -6 137551. 2899.67  89
  -4  -7  -6 133389. 2824.14  86
  -4  -7  -6 131023. 2866.18  81
  -4  -7  -6 132512. 2727.07  72
  -4  -7  -6 131682. 2651.05  37
  -4  -7  -6 133683. 2743.22  29
  -4  -7  -6 142760. 2965.75  74
  -4  -7  -6 135178. 2872.26  46
  -4  -7  -6 130300. 2620.04  32
  -4  -7  -5 108893. 2451.01  70
  -4  -7  -5 105869. 2459.60  89
  -4  -7  -5 103864. 2335.44  72
  -4  -7  -5 109200. 2609.70  74
  -4  -7  -5 111047. 2638.13  31
  -4  -7  -5 105739. 2511.04  81
  -4  -7  -5 103098. 2322.82  77
  -4  -7  -5 112930. 2420.31  29
  -4  -7  -5 104169. 2489.45  46
  -4  -7  -4 17298.8 942.577  70
  -4  -7  -4 17747.4 887.290  29
  -4  -7  -4 17452.9 948.018  81
  -4  -7  -4 16975.8 927.222   3
  -4  -7  -4 17809.7 927.536  89
  -4  -7  -4 17881.9 971.033  18
  -4  -7  -4 17712.1 895.571  72
  -4  -7  -4 19368.1 1059.14  31
  -4  -7  -4 20223.5 1086.82  74
  -4  -7  -4 16539.4 939.022  46
  -4  -7  -3 66360.0 1902.07  70
  -4  -7  -3 66623.1 2057.56  74
  -4  -7  -3 70282.0 1815.13  72
  -4  -7  -3 68089.5 2057.54  31
  -4  -7  -3 66132.5 1923.35  18
  -4  -7  -3 69563.8 1909.70   3
  -4  -7  -2 164204. 3379.48  31
  -4  -7  -2 181431. 3432.81  24
  -4  -7  -2 182231. 3352.63  18
  -4  -7  -2 183946. 3334.49  70
  -4  -7  -2 168274. 3126.39   3
  -4  -7  -2 173906. 3048.69  72
  -4  -7  -2 165488. 3404.30  74
  -4  -7  -1 172971. 3328.17  24
  -4  -7  -1 166073. 3014.50  72
  -4  -7  -1 182523. 3355.52  18
  -4  -7  -1 166929. 3404.76  74
  -4  -7  -1 169286. 3389.65  31
  -4  -7  -1 173234. 3113.52   3
  -4  -7  -1 184878. 3338.22  70
  -4  -7   0 62859.5 1876.40  24
  -4  -7   0 60065.7 1884.29  31
  -4  -7   0 54591.9 1823.45  74
  -4  -7   0 57254.5 1647.64  72
  -4  -7   1 59054.0 1836.34  24
  -4  -7   1 54729.1 2000.72  10
  -4  -7   1 54489.2 1779.74  74
  -4  -7   2 70115.9 2249.52  10
  -4  -7   2 71795.4 2064.57  24
  -4  -7   2 67663.9 2075.77   9
  -4  -7   3 237988. 4070.97  24
  -4  -6 -11 129582. 1994.62  40
  -4  -6 -11 124143. 1962.93  46
  -4  -6 -11 130892. 2172.97  77
  -4  -6 -11 127017. 2075.58  89
  -4  -6 -11 132072. 2200.79  76
  -4  -6 -10 105644. 2200.62  89
  -4  -6 -10 106678. 2232.51  76
  -4  -6 -10 104605. 2228.11  32
  -4  -6 -10 105282. 2065.60  40
  -4  -6 -10 106163. 2123.89  46
  -4  -6 -10 111349. 2311.53  77
  -4  -6  -9 53479.4 1635.52  76
  -4  -6  -9 53932.4 1660.45  89
  -4  -6  -9 55593.3 1733.92  77
  -4  -6  -9 57813.6 1569.75  81
  -4  -6  -9 51895.0 1627.47  32
  -4  -6  -9 53315.7 1607.85  46
  -4  -6  -8 45484.1 1577.04  72
  -4  -6  -8 49360.3 1692.44  77
  -4  -6  -8 48721.9 1593.47  32
  -4  -6  -8 50858.6 1600.27  81
  -4  -6  -8 47035.5 1544.01  76
  -4  -6  -8 49965.2 1482.78  86
  -4  -6  -8 48940.5 1492.56  74
  -4  -6  -8 50589.4 1623.62  46
  -4  -6  -8 48891.8 1644.21  89
  -4  -6  -7 118425. 2492.71  86
  -4  -6  -7 118641. 2609.93  81
  -4  -6  -7 116292. 2441.11  76
  -4  -6  -7 121404. 2565.06  74
  -4  -6  -7 112688. 2565.84  72
  -4  -6  -7 117530. 2668.87  77
  -4  -6  -7 117719. 2630.74  89
  -4  -6  -7 121398. 2598.88  29
  -4  -6  -7 115441. 2496.57  32
  -4  -6  -7 115678. 2569.68  46
  -4  -6  -6 73473.1 1984.93  77
  -4  -6  -6 70714.2 1966.95  81
  -4  -6  -6 71531.3 1959.43  60
  -4  -6  -6 73016.5 1990.65  89
  -4  -6  -6 75977.0 1875.60  37
  -4  -6  -6 78887.4 2044.99  74
  -4  -6  -6 75967.1 1880.55  32
  -4  -6  -6 78470.1 2044.08  46
  -4  -6  -6 75972.7 1945.59   3
  -4  -6  -6 80522.9 1998.19  29
  -4  -6  -6 81516.0 2068.09  72
  -4  -6  -6 76151.6 1973.68  86
  -4  -6  -5 227242. 3680.78   3
  -4  -6  -5 221899. 3684.10  81
  -4  -6  -5 216647. 3609.78  86
  -4  -6  -5 239854. 3571.01  70
  -4  -6  -5 225600. 3552.81  29
  -4  -6  -5 237393. 3744.27  72
  -4  -6  -5 213389. 3580.41  60
  -4  -6  -5 239263. 3936.63  31
  -4  -6  -5 230387. 3822.16  74
  -4  -6  -5 222211. 3676.55  46
  -4  -6  -4 31403.7 1151.65  70
  -4  -6  -4 29151.8 1083.78  60
  -4  -6  -4 32222.1 1195.19  72
  -4  -6  -4 29367.2 1135.83  18
  -4  -6  -4 31623.3 1283.98  31
  -4  -6  -4 32357.8 1124.57  29
  -4  -6  -4 30969.8 1187.94   3
  -4  -6  -4 30433.8 1244.11  74
  -4  -6  -3 51594.4 1526.62  72
  -4  -6  -3 48047.7 1575.89  24
  -4  -6  -3 49207.3 1482.65   3
  -4  -6  -3 53952.0 1524.91  70
  -4  -6  -3 46043.7 1538.92  31
  -4  -6  -3 52502.0 1524.28  18
  -4  -6  -3 44709.0 1528.41  74
  -4  -6  -2 89462.6 2128.71  24
  -4  -6  -2 79698.7 2067.55  74
  -4  -6  -2 89463.9 2046.70  72
  -4  -6  -2 81601.0 2074.11  31
  -4  -6  -2 87788.6 2002.12   3
  -4  -6  -1 269212. 4023.75  24
  -4  -6  -1 258973. 3787.94   3
  -4  -6  -1 241476. 3885.80  31
  -4  -6  -1 239701. 3919.76  74
  -4  -6  -1 253160. 3832.56  72
  -4  -6   0 410092. 5250.14  24
  -4  -6   0 367619. 4776.70   3
  -4  -6   0 357648. 4954.62  31
  -4  -6   0 325814. 4860.53  74
  -4  -6   0 382527. 4974.03  72
  -4  -6   1 146150. 3140.69  10
  -4  -6   1 143763. 2797.25  72
  -4  -6   2 89192.2 2211.25  72
  -4  -6   2 88059.5 2393.45  10
  -4  -6   2 91633.0 2289.34   9
  -4  -6   3 59993.5 1911.41  10
  -4  -6   3 58568.4 1851.35   9
  -4  -6   3 61760.2 1774.40  65
  -4  -6   3 56235.3 1806.93  72
  -4  -6   4 210915. 3812.34   9
  -4  -6   4 216098. 3671.22  65
  -4  -5 -11 67506.8 1477.27  77
  -4  -5 -11 67596.0 1543.61  91
  -4  -5 -11 68657.6 1511.08  40
  -4  -5 -11 64479.9 1431.95  89
  -4  -5 -11 67285.2 1571.36  76
  -4  -5 -11 67065.1 1390.33  46
  -4  -5 -10 124961. 2468.37  89
  -4  -5 -10 126412. 2566.29  76
  -4  -5 -10 124652. 2487.04  40
  -4  -5 -10 129199. 2553.70  77
  -4  -5 -10 126453. 2415.88  46
  -4  -5  -9 62518.2 1850.83  76
  -4  -5  -9 67485.4 1880.02  89
  -4  -5  -9 68511.7 1945.81  77
  -4  -5  -9 69508.5 1710.37  81
  -4  -5  -9 60172.1 1805.34  72
  -4  -5  -9 67017.8 1853.33  40
  -4  -5  -9 66106.4 1892.01  32
  -4  -5  -9 65768.5 1825.93  46
  -4  -5  -8 84780.8 2184.90  89
  -4  -5  -8 77622.5 1936.96  14
  -4  -5  -8 84342.8 1930.91  86
  -4  -5  -8 76970.0 2066.67  32
  -4  -5  -8 82458.3 2031.76  81
  -4  -5  -8 77238.9 2107.64  72
  -4  -5  -8 80256.3 2037.52  40
  -4  -5  -8 73593.5 2205.70  83
  -4  -5  -8 77566.8 2063.60  76
  -4  -5  -8 83579.1 1986.20  74
  -4  -5  -8 80763.3 2194.28  77
  -4  -5  -8 82493.1 2105.45  46
  -4  -5  -7 49656.0 1656.24  77
  -4  -5  -7 51236.6 1643.79  89
  -4  -5  -7 53234.4 1556.39  86
  -4  -5  -7 51618.8 1519.24  14
  -4  -5  -7 50034.7 1582.22  81
  -4  -5  -7 54111.6 1610.58  76
  -4  -5  -7 53475.9 1603.94  74
  -4  -5  -7 54028.1 1705.82  72
  -4  -5  -7 52838.6 1631.70  46
  -4  -5  -7 50705.0 1575.50  32
  -4  -5  -6 78422.9 1818.75  14
  -4  -5  -6 77175.1 1955.70  89
  -4  -5  -6 75653.7 1880.87  86
  -4  -5  -6 77006.2 1978.60  77
  -4  -5  -6 78660.7 1959.54  81
  -4  -5  -6 77006.6 1827.89   3
  -4  -5  -6 73319.0 1967.73  60
  -4  -5  -6 79794.0 1941.69  29
  -4  -5  -6 82439.9 2059.87  72
  -4  -5  -6 75157.7 1947.20  74
  -4  -5  -6 76517.5 1928.32  46
  -4  -5  -5 102989. 2256.88  60
  -4  -5  -5 113475. 2369.82  72
  -4  -5  -5 106427. 2177.15  29
  -4  -5  -5 114907. 2272.36   3
  -4  -5  -5 108089. 2355.32  74
  -4  -5  -4 139329. 2371.72  70
  -4  -5  -4 142062. 2414.29  18
  -4  -5  -4 150831. 2731.58  72
  -4  -5  -4 139787. 2687.23  31
  -4  -5  -4 138776. 2523.75   3
  -4  -5  -4 141850. 2402.30  29
  -4  -5  -4 139127. 2670.51  74
  -4  -5  -4 142045. 2512.57  60
  -4  -5  -3 197996. 2885.70  70
  -4  -5  -3 197137. 3196.74  24
  -4  -5  -3 166561. 3003.37  31
  -4  -5  -3 166850. 3008.29  74
  -4  -5  -3 190073. 3086.41  72
  -4  -5  -3 194656. 2895.86  18
  -4  -5  -3 184558. 2703.03  29
  -4  -5  -3 198334. 2823.09  60
  -4  -5  -3 188783. 2980.27   3
  -4  -5  -3 184035. 2642.37   9
  -4  -5  -2 185252. 2978.68  24
  -4  -5  -2 175631. 2404.37  60
  -4  -5  -2 151855. 2760.74  31
  -4  -5  -2 175314. 2781.79   3
  -4  -5  -2 148573. 2765.92  74
  -4  -5  -2 174913. 2894.47  72
  -4  -5  -1 244308. 3475.03  24
  -4  -5  -1 192410. 3161.33  74
  -4  -5  -1 230115. 3241.84   3
  -4  -5  -1 187728. 3109.20  31
  -4  -5  -1 215560. 3297.42  72
  -4  -5   0 262800. 3774.18  31
  -4  -5   0 303236. 3787.65  15
  -4  -5   0 307985. 3900.71   3
  -4  -5   0 256637. 3794.27  74
  -4  -5   0 288379. 4020.47  72
  -4  -5   1 305058. 4247.35   9
  -4  -5   1 300042. 3949.93   3
  -4  -5   2 101437. 2358.96  10
  -4  -5   2 100469. 2214.40  15
  -4  -5   3 56132.0 1693.44  10
  -4  -5   3 58384.4 1620.06  65
  -4  -5   3 52437.7 1685.06  15
  -4  -5   3 58419.7 1730.34   9
  -4  -5   4 110981. 2399.42  65
  -4  -5   4 111678. 2536.60   9
  -4  -5   5 98679.5 2383.98   9
  -4  -5   5 98570.4 2322.08  65
  -4  -5   6 64013.2 2181.01  15
  -4  -4 -11 18005.4 764.994  91
  -4  -4 -11 18109.5 711.590  89
  -4  -4 -11 18516.9 700.624  77
  -4  -4 -11 17606.2 778.178  76
  -4  -4 -11 17902.8 773.975  40
  -4  -4 -10 109380. 2300.98  89
  -4  -4 -10 111603. 2320.86  77
  -4  -4 -10 111744. 2425.39  76
  -4  -4 -10 111363. 2269.13  46
  -4  -4 -10 113021. 2422.17  40
  -4  -4  -9 96818.0 2302.59  89
  -4  -4  -9 92847.0 2323.71  76
  -4  -4  -9 92215.0 2317.24  40
  -4  -4  -9 90611.1 2272.20  77
  -4  -4  -9 91534.7 2214.86  46
  -4  -4  -9 88576.2 2228.03  72
  -4  -4  -8 85508.5 2159.35  14
  -4  -4  -8 89341.7 2240.21  89
  -4  -4  -8 83562.8 2411.41  83
  -4  -4  -8 86507.2 2221.36  76
  -4  -4  -8 81871.8 2206.41  77
  -4  -4  -8 84311.3 2188.29  32
  -4  -4  -8 87565.7 2057.65  81
  -4  -4  -8 87746.2 2051.44  74
  -4  -4  -8 89412.8 2217.83  46
  -4  -4  -8 88674.9 2261.30  72
  -4  -4  -8 87067.1 2219.89  40
  -4  -4  -7 27003.3 1138.78  14
  -4  -4  -7 27410.7 1196.89  77
  -4  -4  -7 26938.0 1138.48  46
  -4  -4  -7 28613.6 1168.70  76
  -4  -4  -7 28068.1 1181.78  89
  -4  -4  -7 28261.7 1129.98  81
  -4  -4  -7 27661.3 1153.59  32
  -4  -4  -7 29612.4 1113.33  86
  -4  -4  -7 27936.2 1146.93  40
  -4  -4  -7 29020.4 1227.18  72
  -4  -4  -7 24999.6 1213.74  83
  -4  -4  -7 28402.9 1139.62  74
  -4  -4  -6 79895.6 1928.39  14
  -4  -4  -6 87209.9 2090.75  60
  -4  -4  -6 87198.5 2102.73  72
  -4  -4  -6 83433.8 1980.38  74
  -4  -4  -5 264306. 3565.48   3
  -4  -4  -5 260332. 3845.32  72
  -4  -4  -5 267183. 3885.05  60
  -4  -4  -5 250714. 3583.72  29
  -4  -4  -5 253591. 3775.27  74
  -4  -4  -4 330547. 4418.16  74
  -4  -4  -4 355764. 4402.92  60
  -4  -4  -4 338322. 4231.84   3
  -4  -4  -4 329696. 4397.92  72
  -4  -4  -4 346079. 4118.70  29
  -4  -4  -3 376708. 4161.10  70
  -4  -4  -3 366266. 4572.04  24
  -4  -4  -3 379205. 4196.96  18
  -4  -4  -3 374241. 4382.90   5
  -4  -4  -3 371108. 4658.09  72
  -4  -4  -3 373162. 4478.15   3
  -4  -4  -3 361148. 4602.90  31
  -4  -4  -3 381082. 4412.27  60
  -4  -4  -3 381652. 4157.25  29
  -4  -4  -3 353900. 4575.38  74
  -4  -4  -2 136020. 2300.41  24
  -4  -4  -2 137984. 2026.18  60
  -4  -4  -2 133560. 2072.12   9
  -4  -4  -2 123112. 2218.04  74
  -4  -4  -2 124805. 2237.54  31
  -4  -4  -2 135307. 2246.89   3
  -4  -4  -2 130847. 2334.90  72
  -4  -4  -2 138937. 2115.35   5
  -4  -4  -1 114707. 2007.52  15
  -4  -4  -1 116039. 1884.95   5
  -4  -4  -1 111558. 1984.51   9
  -4  -4  -1 116770. 1662.99  60
  -4  -4  -1 114916. 2023.00   3
  -4  -4  -1 110958. 2116.19  72
  -4  -4   0 94446.5 1685.18   5
  -4  -4   0 89107.6 1807.71   9
  -4  -4   0 89680.3 1804.96  15
  -4  -4   0 90790.6 1887.60  72
  -4  -4   1 619291. 6679.51   9
  -4  -4   1 619132. 6716.46  15
  -4  -4   2 153016. 2615.14  23
  -4  -4   2 158435. 2607.58   5
  -4  -4   2 156656. 2829.63  15
  -4  -4   3 56821.4 1495.27  65
  -4  -4   3 60233.3 1646.36   9
  -4  -4   3 55957.8 1618.43  23
  -4  -4   4 13349.6 849.878  23
  -4  -4   4 15119.0 800.039  65
  -4  -4   4 13508.8 795.796   9
  -4  -4   5 63389.4 1776.82  65
  -4  -4   5 53710.8 1900.01  23
  -4  -4   6 181470. 3885.05  23
  -4  -4   6 201376. 4020.85  11
  -4  -4   7 135031. 3300.34  23
  -4  -4   7 158321. 3369.20  27
  -4  -4   8 96485.1 2382.59  27
  -4  -3 -11 12522.7 627.830  91
  -4  -3 -11 11857.4 620.382  40
  -4  -3 -11 11862.0 546.913  89
  -4  -3 -10 14607.7 828.622  40
  -4  -3 -10 16610.2 884.325  91
  -4  -3 -10 15702.7 774.064  77
  -4  -3 -10 15360.6 795.091  89
  -4  -3 -10 14314.9 820.006  76
  -4  -3  -9 62430.4 1823.79  72
  -4  -3  -9 67535.5 1977.21  76
  -4  -3  -9 66359.5 1900.55  89
  -4  -3  -9 69711.0 1916.41  77
  -4  -3  -9 67108.7 1869.58  46
  -4  -3  -9 68964.9 2002.13  40
  -4  -3  -8 165862. 3285.85  76
  -4  -3  -8 171792. 3324.68  40
  -4  -3  -8 168749. 2934.27  81
  -4  -3  -8 166212. 2930.66  21
  -4  -3  -8 158258. 3163.71  72
  -4  -3  -8 163539. 3202.06  77
  -4  -3  -8 156680. 3147.01  14
  -4  -3  -8 176267. 3060.30  74
  -4  -3  -8 165165. 3174.56  46
  -4  -3  -8 161750. 3186.40  89
  -4  -3  -7 214339. 3434.55  86
  -4  -3  -7 220818. 3736.08  77
  -4  -3  -7 223295. 3762.87  14
  -4  -3  -7 214912. 3645.41  46
  -4  -3  -7 225351. 3732.18  89
  -4  -3  -7 232096. 3490.09  21
  -4  -3  -7 231478. 3655.52  74
  -4  -3  -7 205181. 3873.23  83
  -4  -3  -7 227621. 3549.28  81
  -4  -3  -7 226728. 3766.22  40
  -4  -3  -7 226392. 3732.76  76
  -4  -3  -7 221485. 3677.27  32
  -4  -3  -7 222802. 3757.59  72
  -4  -3  -6 117161. 2468.94  72
  -4  -3  -6 113964. 2192.50  21
  -4  -3  -6 118936. 2457.51  14
  -4  -3  -6 122156. 2489.35  60
  -4  -3  -6 115274. 2357.62  74
  -4  -3  -5 243351. 3214.02  25
  -4  -3  -5 242165. 3630.43  72
  -4  -3  -5 251970. 3643.83  60
  -4  -3  -5 242644. 3346.15  59
  -4  -3  -5 239565. 3558.83  74
  -4  -3  -4 106268. 1741.85  25
  -4  -3  -4 103789. 2007.40  60
  -4  -3  -4 98910.9 1743.28  59
  -4  -3  -4 101761. 1817.94   3
  -4  -3  -4 100541. 1989.09  74
  -4  -3  -4 99133.5 2015.05  72
  -4  -3  -3 500698. 4902.60  25
  -4  -3  -3 488148. 5364.98   5
  -4  -3  -3 472349. 5416.70  72
  -4  -3  -3 494185. 5268.21  60
  -4  -3  -3 470765. 4780.41  59
  -4  -3  -3 457707. 5130.97   3
  -4  -3  -3 454127. 5261.82  74
  -4  -3  -2 365002. 4180.54   5
  -4  -3  -2 344069. 3865.96   9
  -4  -3  -2 351638. 4056.32  24
  -4  -3  -2 367047. 3997.59  60
  -4  -3  -2 345024. 4242.79  72
  -4  -3  -1 212413. 2943.30  15
  -4  -3  -1 209255. 2781.60   9
  -4  -3  -1 214394. 2563.22  60
  -4  -3  -1 205717. 2851.40   5
  -4  -3   0 3045.47 284.194   5
  -4  -3   0 3067.95 204.301  60
  -4  -3   0 3616.11 320.094  72
  -4  -3   0 3102.50 297.476  15
  -4  -3   1 53839.2 1384.52  15
  -4  -3   1 54868.4 1333.72   9
  -4  -3   1 53230.2 1263.94  23
  -4  -3   2 275845. 3499.13  65
  -4  -3   2 283715. 3761.66   9
  -4  -3   2 272292. 3885.77  15
  -4  -3   2 278749. 3764.81  23
  -4  -3   3 209155. 3055.03  65
  -4  -3   3 208617. 3228.14   9
  -4  -3   3 203816. 3360.77  23
  -4  -3   4 210452. 3672.21  23
  -4  -3   4 207749. 3303.39  68
  -4  -3   4 213455. 3253.95  65
  -4  -3   5 45648.4 1454.06  65
  -4  -3   5 39023.6 1587.45  23
  -4  -3   5 43337.3 1503.85  68
  -4  -3   5 35856.8 1524.34   2
  -4  -3   6 134842. 3279.00  23
  -4  -3   6 132917. 2985.04  68
  -4  -3   6 132732. 3119.95  11
  -4  -3   6 134337. 2770.84  65
  -4  -3   7 165542. 3786.42  23
  -4  -3   7 156071. 3402.77  68
  -4  -3   8 154526. 3570.61  23
  -4  -3   8 149650. 3246.00  68
  -4  -2 -11 90691.3 1759.13  40
  -4  -2 -11 86258.7 1684.11  91
  -4  -2 -11 86991.5 1479.56  89
  -4  -2 -10 31119.7 1189.59  40
  -4  -2 -10 30112.8 1171.86  91
  -4  -2 -10 29269.5 1069.88  89
  -4  -2  -9 56282.5 1820.32  91
  -4  -2  -9 54531.4 1768.41  76
  -4  -2  -9 57049.7 1801.94  40
  -4  -2  -9 55116.7 1707.07  89
  -4  -2  -9 49969.8 1531.01  21
  -4  -2  -9 51982.4 1593.78  77
  -4  -2  -9 52964.1 1592.11  72
  -4  -2  -8 166175. 3261.16  89
  -4  -2  -8 163996. 3216.71  46
  -4  -2  -8 171062. 3369.29  40
  -4  -2  -8 156588. 3026.27  21
  -4  -2  -8 165940. 3158.99  72
  -4  -2  -8 167987. 3337.75  76
  -4  -2  -8 177061. 3096.78  74
  -4  -2  -8 166639. 3194.36  77
  -4  -2  -8 152446. 3161.91  14
  -4  -2  -7 203909. 3580.43  76
  -4  -2  -7 195548. 3563.08  14
  -4  -2  -7 191719. 3350.36  21
  -4  -2  -7 203706. 3564.31  89
  -4  -2  -7 204527. 3306.74  86
  -4  -2  -7 204257. 3321.48  81
  -4  -2  -7 201347. 3604.06  40
  -4  -2  -7 208545. 3485.81  74
  -4  -2  -7 200900. 3510.70  77
  -4  -2  -7 194719. 3469.60  72
  -4  -2  -7 199678. 3535.51  46
  -4  -2  -6 236289. 3796.61  14
  -4  -2  -6 231058. 3633.07  59
  -4  -2  -6 227053. 3639.14  60
  -4  -2  -6 235103. 3673.28  74
  -4  -2  -6 237430. 3728.84  72
  -4  -2  -5 203731. 3227.36  60
  -4  -2  -5 211693. 3093.31  25
  -4  -2  -5 208619. 3252.78  72
  -4  -2  -5 210312. 3255.55  74
  -4  -2  -4 164644. 2277.00   3
  -4  -2  -4 162053. 2624.53  72
  -4  -2  -4 158052. 2612.43  74
  -4  -2  -4 164584. 2493.55  25
  -4  -2  -3 137586. 2261.92  72
  -4  -2  -3 135279. 2298.55   5
  -4  -2  -3 130502. 2000.42  59
  -4  -2  -3 135660. 2213.60  74
  -4  -2  -3 139238. 2107.76  25
  -4  -2  -3 141646. 2234.21  60
  -4  -2  -2 249951. 2889.60  24
  -4  -2  -2 247897. 3254.21   5
  -4  -2  -2 241785. 2776.26  59
  -4  -2  -2 241504. 3031.45  60
  -4  -2  -2 240009. 3170.69  72
  -4  -2  -1 171041. 2545.52   5
  -4  -2  -1 182993. 2529.59  72
  -4  -2  -1 174834. 2279.62  60
  -4  -2  -1 180403. 2021.98  59
  -4  -2  -1 170225. 2112.31  65
  -4  -2   0 91049.3 1724.18   5
  -4  -2   0 87242.7 1133.16  59
  -4  -2   0 91123.5 1734.06  15
  -4  -2   0 90427.3 1385.52  60
  -4  -2   0 84770.0 1420.63  65
  -4  -2   0 93718.2 1673.70  72
  -4  -2   1 25057.8 895.316   5
  -4  -2   1 24964.6 706.036  68
  -4  -2   1 23409.7 834.878  23
  -4  -2   1 24853.7 750.366  65
  -4  -2   1 24585.1 890.104  15
  -4  -2   2 201701. 3091.76  23
  -4  -2   2 214529. 2842.69  68
  -4  -2   2 202400. 3154.26  15
  -4  -2   2 219127. 2876.82  65
  -4  -2   3 323421. 4128.91  68
  -4  -2   3 321080. 4429.64  23
  -4  -2   3 323863. 4521.61   2
  -4  -2   3 321515. 4036.35  65
  -4  -2   4 370168. 4890.77  68
  -4  -2   4 361141. 5157.51  23
  -4  -2   5 141936. 3090.09  23
  -4  -2   5 138632. 2660.41  65
  -4  -2   5 132784. 2819.71  68
  -4  -2   6 103185. 2784.60  23
  -4  -2   6 101351. 2547.21  11
  -4  -2   6 95269.2 2714.44   2
  -4  -2   6 98581.1 2566.95  68
  -4  -2   7 132927. 3366.68  23
  -4  -2   7 129109. 3119.14  68
  -4  -2   8 156827. 3682.92  23
  -4  -2   8 153990. 3462.35  68
  -4  -2   9 113115. 2719.58  27
  -4  -1 -11 164122. 2306.79  40
  -4  -1 -11 162734. 2278.94  91
  -4  -1 -10 101082. 2154.40  91
  -4  -1 -10 99154.7 2121.72  40
  -4  -1 -10 98614.4 1956.86  89
  -4  -1  -9 53480.3 1711.24  40
  -4  -1  -9 53587.5 1647.16  89
  -4  -1  -9 56339.9 1783.68  91
  -4  -1  -8 95021.0 2435.57  40
  -4  -1  -8 98868.6 2533.64  91
  -4  -1  -8 96176.4 2277.09  77
  -4  -1  -8 92524.7 2358.83  89
  -4  -1  -8 84132.1 2192.74  21
  -4  -1  -8 95153.6 2212.36  74
  -4  -1  -8 93137.0 2430.76  76
  -4  -1  -8 83707.7 2258.10  14
  -4  -1  -7 174197. 3357.51  76
  -4  -1  -7 160735. 3139.94  21
  -4  -1  -7 175090. 3067.22  86
  -4  -1  -7 173467. 3371.02  40
  -4  -1  -7 166249. 3181.88  77
  -4  -1  -7 171822. 3031.85  81
  -4  -1  -7 173696. 3317.09  46
  -4  -1  -7 166084. 3311.19  14
  -4  -1  -7 180730. 3521.31  91
  -4  -1  -7 175414. 3140.86  72
  -4  -1  -7 176587. 3247.55  74
  -4  -1  -7 172482. 3311.38  89
  -4  -1  -6 250429. 3773.26  60
  -4  -1  -6 239045. 3967.13  14
  -4  -1  -6 247315. 3955.68  40
  -4  -1  -6 240817. 3845.60  21
  -4  -1  -6 242873. 3879.08  59
  -4  -1  -6 247585. 3734.28  81
  -4  -1  -6 235809. 3806.88  77
  -4  -1  -6 254634. 3825.91  37
  -4  -1  -6 254744. 3992.32  74
  -4  -1  -6 255496. 3814.63  86
  -4  -1  -6 250358. 3936.19  76
  -4  -1  -6 240518. 3882.19  46
  -4  -1  -6 248152. 3925.52  89
  -4  -1  -6 260341. 3880.67  72
  -4  -1  -5 174718. 2940.95  25
  -4  -1  -5 173106. 2910.41  60
  -4  -1  -5 182722. 2974.26  72
  -4  -1  -5 182762. 3091.97  74
  -4  -1  -5 167420. 2931.51  59
  -4  -1  -4 77925.8 1703.45  25
  -4  -1  -4 81430.5 1745.66  60
  -4  -1  -4 80917.3 1714.31  72
  -4  -1  -4 79439.0 1778.59  74
  -4  -1  -3 12266.7 546.355  68
  -4  -1  -3 12901.7 651.816   5
  -4  -1  -3 10617.3 554.384  25
  -4  -1  -3 10602.7 537.956  59
  -4  -1  -3 10404.7 532.643  72
  -4  -1  -3 10882.1 567.971  74
  -4  -1  -3 10675.6 555.662  60
  -4  -1  -2 212847. 2635.08  68
  -4  -1  -2 200835. 2727.15  60
  -4  -1  -2 201021. 2623.11  59
  -4  -1  -2 209163. 2744.54  72
  -4  -1  -2 198638. 2891.62   5
  -4  -1  -1 373094. 3890.15  68
  -4  -1  -1 371698. 3990.92  60
  -4  -1  -1 367236. 3824.16  59
  -4  -1  -1 361897. 3992.63  72
  -4  -1   0 471425. 5143.72  15
  -4  -1   0 469669. 5222.87   5
  -4  -1   0 447685. 4712.80  65
  -4  -1   0 460034. 4739.45  60
  -4  -1   0 453609. 4551.07  59
  -4  -1   0 484562. 4779.96  68
  -4  -1   0 492192. 4904.82  72
  -4  -1   1 241131. 2753.66  60
  -4  -1   1 237501. 2912.89  68
  -4  -1   1 237390. 3191.23  15
  -4  -1   1 229785. 2619.69  59
  -4  -1   1 222009. 2893.88  65
  -4  -1   1 217794. 3160.44   5
  -4  -1   2 3983.24 367.629  23
  -4  -1   2 4815.26 356.291  65
  -4  -1   2 3624.18 314.908  68
  -4  -1   2 5339.63 306.864  60
  -4  -1   2 4210.31 372.526  15
  -4  -1   2 3731.77 259.167  59
  -4  -1   3 286131. 3510.59  58
  -4  -1   3 290516. 4184.15  23
  -4  -1   3 315934. 4068.31  68
  -4  -1   3 307955. 3374.01  60
  -4  -1   3 298892. 3863.79  65
  -4  -1   3 285262. 4229.03   2
  -4  -1   4 428764. 5615.45  23
  -4  -1   4 410826. 5640.48   2
  -4  -1   4 421362. 5392.84  68
  -4  -1   4 399523. 5054.23  65
  -4  -1   5 459427. 6201.03  68
  -4  -1   5 467448. 6522.91   2
  -4  -1   6 123798. 3038.90  23
  -4  -1   6 122870. 2718.95  11
  -4  -1   6 121897. 2910.22  68
  -4  -1   7 36009.6 1526.54  11
  -4  -1   7 36976.0 1625.01  68
  -4  -1   7 34038.3 1618.18  23
  -4  -1   7 36856.2 1527.91  27
  -4  -1   8 50622.5 2006.96  23
  -4  -1   8 49489.0 1925.77  68
  -4  -1   8 49425.6 1877.10  11
  -4  -1   8 53964.5 1930.80  27
  -4  -1   9 92903.4 2527.90  27
  -4  -1   9 81717.6 2411.17  68
  -4  -1  11 29902.7 940.500  47
  -4   0 -10 178980. 2751.96  40
  -4   0 -10 171369. 2744.60  91
  -4   0  -9 164025. 3042.06  40
  -4   0  -9 160850. 2924.04  89
  -4   0  -9 165772. 3124.02  91
  -4   0  -8 49326.1 1691.26  40
  -4   0  -8 49114.3 1668.88  89
  -4   0  -8 44602.3 1558.20  21
  -4   0  -8 47556.7 1518.08  74
  -4   0  -8 49249.8 1743.47  91
  -4   0  -7 85140.2 2295.64  40
  -4   0  -7 78342.1 2156.04  21
  -4   0  -7 90292.1 2132.15  86
  -4   0  -7 86078.8 2303.05  89
  -4   0  -7 80245.7 2211.01  14
  -4   0  -7 86255.1 2104.33  37
  -4   0  -7 92521.7 2451.36  91
  -4   0  -7 89124.2 2269.50  74
  -4   0  -6 10785.9 769.860  91
  -4   0  -6 8341.29 660.714  40
  -4   0  -6 8596.32 671.551  14
  -4   0  -6 9134.94 634.706  81
  -4   0  -6 7736.68 625.464  21
  -4   0  -6 9982.17 693.914  77
  -4   0  -6 8191.76 654.778  89
  -4   0  -6 8718.52 651.343  37
  -4   0  -6 9177.56 616.534  60
  -4   0  -6 10320.8 732.040  76
  -4   0  -6 9611.01 682.040  86
  -4   0  -5 222326. 3598.97  25
  -4   0  -5 225739. 3717.82  14
  -4   0  -5 229828. 3489.61  60
  -4   0  -5 216648. 3613.96  59
  -4   0  -5 238026. 3794.28  74
  -4   0  -4 162940. 2820.44  25
  -4   0  -4 156015. 2760.56  59
  -4   0  -4 157446. 2660.64  60
  -4   0  -3 187851. 2946.89  25
  -4   0  -3 212579. 2981.92  68
  -4   0  -3 205739. 3042.52  74
  -4   0  -3 182806. 2890.54  59
  -4   0  -3 194590. 2894.62  60
  -4   0  -2 102273. 1842.34  59
  -4   0  -2 103698. 1830.94  68
  -4   0  -2 96537.4 1901.24   5
  -4   0  -2 96318.6 1779.67  60
  -4   0  -2 102043. 1831.06  74
  -4   0  -1 77020.4 1472.06  59
  -4   0  -1 83208.9 1673.51   5
  -4   0  -1 75510.3 1495.80  68
  -4   0  -1 83530.5 1535.21  60
  -4   0   0 374241. 4428.66   5
  -4   0   0 381182. 4107.47  60
  -4   0   0 373557. 4205.88  68
  -4   0   1 709397. 7181.80  68
  -4   0   1 699345. 7225.77  15
  -4   0   2 454497. 5266.44  68
  -4   0   2 491240. 4720.26  17
  -4   0   2 449572. 5446.98  23
  -4   0   2 436699. 4829.39  60
  -4   0   2 465647. 4953.85  59
  -4   0   2 459631. 5265.34  15
  -4   0   2 457386. 5445.01   5
  -4   0   2 497108. 4719.47  71
  -4   0   3 36024.3 965.406  60
  -4   0   3 34426.5 1220.03  23
  -4   0   3 36615.5 1206.06  68
  -4   0   3 35091.1 1068.27  58
  -4   0   3 36358.1 1175.15  15
  -4   0   3 38574.9 969.435  71
  -4   0   4 202071. 2791.41  60
  -4   0   4 196442. 3446.71  23
  -4   0   4 188459. 3000.65  58
  -4   0   4 188467. 2836.57  71
  -4   0   4 198036. 3509.96   2
  -4   0   4 201392. 3387.26  68
  -4   0   5 139780. 2623.20  58
  -4   0   5 143340. 3023.25  68
  -4   0   5 149383. 2654.95  71
  -4   0   5 143831. 3119.77   2
  -4   0   5 142661. 2650.14  11
  -4   0   6 238875. 3900.01  11
  -4   0   6 228465. 3715.61  71
  -4   0   6 231792. 3923.61  27
  -4   0   6 217868. 4173.09  23
  -4   0   6 223992. 4183.28  68
  -4   0   6 221043. 4268.98   2
  -4   0   7 143658. 3439.17  23
  -4   0   7 147353. 3202.69  11
  -4   0   7 151330. 3481.04  68
  -4   0   7 154010. 3291.70  27
  -4   0   7 151514. 3065.10  71
  -4   0   8 42279.6 1555.32  35
  -4   0   8 45332.5 1492.76  92
  -4   0   8 46092.7 1874.22  68
  -4   0   8 45511.3 1892.43  23
  -4   0   8 41830.6 1684.95  27
  -4   0   8 45288.2 1746.85  11
  -4   0   9 48411.9 1887.35  23
  -4   0   9 52613.7 1595.52  35
  -4   0   9 48762.0 1871.26  68
  -4   0   9 47119.0 1782.97  27
  -4   0  10 99853.2 2457.56  27
  -4   0  10 107510. 2309.91  45
  -4   0  11 94703.8 1979.74  47
  -4   1 -10 87467.5 1571.70  91
  -4   1 -10 87460.3 1562.76  56
  -4   1  -9 77824.7 1811.96  40
  -4   1  -9 82927.5 1939.19  91
  -4   1  -8 61030.3 1807.49  40
  -4   1  -8 58932.3 1839.70  91
  -4   1  -8 57861.3 1748.92  89
  -4   1  -8 58677.5 1618.58  74
  -4   1  -7 87381.0 2311.72  40
  -4   1  -7 87499.3 2162.24  37
  -4   1  -7 91842.1 2322.94  74
  -4   1  -7 92825.6 2447.40  91
  -4   1  -7 87897.3 2343.18  89
  -4   1  -6 30476.2 1301.04  37
  -4   1  -6 35862.6 1372.71  86
  -4   1  -6 26119.2 1210.94  21
  -4   1  -6 30337.0 1213.93  81
  -4   1  -6 28182.5 1260.54  40
  -4   1  -6 31292.9 1359.25  91
  -4   1  -6 28366.7 1285.34  89
  -4   1  -6 30645.0 1345.57  74
  -4   1  -6 26372.3 1209.37  14
  -4   1  -5 139062. 2849.07  25
  -4   1  -5 143477. 2873.28  40
  -4   1  -5 144163. 2892.68  14
  -4   1  -5 131721. 2591.52  51
  -4   1  -5 137579. 2860.81  89
  -4   1  -5 148382. 2937.89  86
  -4   1  -5 132485. 2799.03  59
  -4   1  -5 133895. 2881.64  37
  -4   1  -5 130502. 2529.27  60
  -4   1  -5 140251. 2960.95  74
  -4   1  -5 142661. 2884.54  91
  -4   1  -5 143030. 2793.45  81
  -4   1  -4 134348. 2683.64  25
  -4   1  -4 131795. 2651.76  59
  -4   1  -4 145364. 2734.66  14
  -4   1  -4 142448. 2825.73  74
  -4   1  -4 131049. 2462.34  60
  -4   1  -3 188492. 2913.83  60
  -4   1  -3 180732. 2976.94  68
  -4   1  -3 180830. 3047.37  25
  -4   1  -3 175169. 2962.48  59
  -4   1  -3 187593. 3086.26  74
  -4   1  -2 204615. 3056.74  68
  -4   1  -2 198320. 3023.05   5
  -4   1  -2 209741. 2976.72  60
  -4   1  -2 205017. 3049.24  74
  -4   1  -2 206436. 3121.23  25
  -4   1  -1 252799. 3182.51  71
  -4   1  -1 257076. 3418.64  59
  -4   1  -1 250958. 3448.71   5
  -4   1  -1 263951. 3492.61  68
  -4   1  -1 265610. 3391.71  60
  -4   1  -1 262013. 3332.88  74
  -4   1   0 249546. 3056.17  71
  -4   1   0 252278. 3282.69  59
  -4   1   0 257441. 3411.52  68
  -4   1   0 250110. 3399.96   5
  -4   1   0 256644. 3100.82  17
  -4   1   1 346385. 4335.52   5
  -4   1   1 364157. 4160.83  15
  -4   1   1 360675. 4206.01  59
  -4   1   1 358217. 3930.16  71
  -4   1   1 347703. 3941.50  17
  -4   1   1 361923. 4130.31  60
  -4   1   2 685390. 6963.56  15
  -4   1   2 656401. 6691.30  17
  -4   1   2 700951. 7295.37  68
  -4   1   2 694910. 6994.40  59
  -4   1   2 652514. 6671.26  71
  -4   1   2 695198. 7298.67   5
  -4   1   3 5094.21 461.450  23
  -4   1   3 3602.61 323.036  60
  -4   1   3 3838.39 377.367  58
  -4   1   3 5428.98 387.290  17
  -4   1   3 5961.64 404.693  71
  -4   1   3 3822.50 387.340  68
  -4   1   3 5257.84 409.508  59
  -4   1   3 4552.60 383.910  15
  -4   1   4 183445. 2897.26  71
  -4   1   4 186076. 2859.86  60
  -4   1   4 182851. 3311.62  23
  -4   1   4 174115. 3069.46  58
  -4   1   4 205371. 2878.26  11
  -4   1   4 183197. 3319.04  68
  -4   1   4 180812. 3026.00  15
  -4   1   4 198140. 3029.35  27
  -4   1   5 72959.6 2100.65  68
  -4   1   5 71675.9 2071.72  23
  -4   1   5 77335.7 1809.79  11
  -4   1   5 70935.9 1913.03  58
  -4   1   5 75208.3 1900.87  27
  -4   1   5 75148.8 2163.15   2
  -4   1   5 73380.6 1843.02  71
  -4   1   6 176450. 3335.42  58
  -4   1   6 180616. 3690.97  23
  -4   1   6 184384. 3733.72  68
  -4   1   6 177790. 3301.39  71
  -4   1   6 175610. 3721.52   2
  -4   1   6 177288. 3369.57  27
  -4   1   7 225104. 3807.28  92
  -4   1   7 204116. 3853.64  35
  -4   1   7 245412. 4109.39  11
  -4   1   7 225388. 4409.58  68
  -4   1   7 222167. 3954.97  71
  -4   1   7 236404. 4429.74  23
  -4   1   7 236462. 4176.45  27
  -4   1   8 75826.3 2056.71  92
  -4   1   8 75616.1 2414.18  23
  -4   1   8 74282.0 2417.28  68
  -4   1   8 75122.4 2128.34  35
  -4   1   8 75333.3 2287.19  27
  -4   1   8 75845.4 2175.22  71
  -4   1   9 66452.0 1867.77  35
  -4   1   9 64972.9 1805.50  92
  -4   1   9 62925.3 2101.98  23
  -4   1   9 66594.9 2127.85  27
  -4   1   9 66925.4 1941.80  71
  -4   1  10 58019.5 1731.61  45
  -4   1  10 56369.7 1802.91  27
  -4   1  11 156160. 2723.97  47
  -4   1  11 156877. 2525.61  45
  -4   2  -9 50298.4 1263.24  91
  -4   2  -9 50266.5 1261.26  56
  -4   2  -8 103972. 2198.58  40
  -4   2  -8 107541. 2334.36  91
  -4   2  -7 85297.1 2085.78  37
  -4   2  -7 89434.9 2320.18  91
  -4   2  -7 90778.6 2260.35  40
  -4   2  -6 58666.1 1865.86  21
  -4   2  -6 63710.2 1991.75  91
  -4   2  -6 63609.0 1949.64  40
  -4   2  -6 66131.2 1996.90  37
  -4   2  -6 64918.6 2018.23  89
  -4   2  -6 68556.9 1972.13  86
  -4   2  -6 64156.1 2018.07  74
  -4   2  -5 52887.3 1822.28  37
  -4   2  -5 53903.4 1790.82  86
  -4   2  -5 51330.1 1714.60  91
  -4   2  -5 52376.9 1830.82  74
  -4   2  -5 51053.7 1700.11  40
  -4   2  -5 53930.2 1711.71  81
  -4   2  -5 48601.0 1711.86  89
  -4   2  -5 50289.3 1707.84  21
  -4   2  -4 185922. 3404.59  25
  -4   2  -4 190977. 3518.16  86
  -4   2  -4 180364. 3030.87  60
  -4   2  -4 192693. 3399.06  40
  -4   2  -4 182887. 3260.51  91
  -4   2  -4 188027. 3414.26  89
  -4   2  -4 192221. 3414.94  81
  -4   2  -4 187967. 3565.63  74
  -4   2  -4 187214. 3580.00  37
  -4   2  -3 271000. 4135.66  25
  -4   2  -3 269453. 4096.49  68
  -4   2  -3 270271. 4111.05  59
  -4   2  -3 266808. 3817.52  60
  -4   2  -3 282648. 4308.44  74
  -4   2  -2 214626. 3450.95  59
  -4   2  -2 230608. 3594.38  25
  -4   2  -2 236714. 3375.26  60
  -4   2  -2 222127. 3511.80  68
  -4   2  -2 236920. 3629.81  74
  -4   2  -1 292060. 3831.88  71
  -4   2  -1 283754. 3956.62  59
  -4   2  -1 296455. 3867.01  60
  -4   2  -1 296020. 3854.70   5
  -4   2  -1 293740. 3936.45  74
  -4   2  -1 295335. 4076.50  68
  -4   2   0 48166.7 1344.80  59
  -4   2   0 49370.2 1279.56   5
  -4   2   0 48506.6 1375.96  68
  -4   2   0 51029.2 1307.55  60
  -4   2   0 49534.9 1234.68  74
  -4   2   0 49025.9 1259.96  71
  -4   2   0 50336.7 1292.72  17
  -4   2   1 116213. 2110.72   5
  -4   2   1 114553. 2085.03  60
  -4   2   1 119931. 2293.13  68
  -4   2   1 117714. 2185.59  59
  -4   2   1 112960. 2048.72  17
  -4   2   1 111490. 2012.37  71
  -4   2   2 388044. 5004.79  68
  -4   2   2 403491. 4850.58   5
  -4   2   2 396241. 4684.83  71
  -4   2   2 394000. 4697.33  60
  -4   2   2 380374. 4789.31  59
  -4   2   2 391476. 4681.64  17
  -4   2   3 212042. 3460.97  68
  -4   2   3 203708. 3220.47  59
  -4   2   3 199851. 3066.80  60
  -4   2   3 208988. 3150.97  17
  -4   2   3 204762. 3098.31  71
  -4   2   3 213623. 3328.73   5
  -4   2   4 82676.8 2151.18  68
  -4   2   4 86161.2 1980.29  17
  -4   2   4 89792.0 2070.86  59
  -4   2   4 89346.2 2134.06   5
  -4   2   4 82266.2 1893.23  60
  -4   2   4 85979.4 2136.43  58
  -4   2   4 87601.0 1980.77  71
  -4   2   5 92856.9 2432.41  68
  -4   2   5 90752.4 2328.47  23
  -4   2   5 96270.6 2225.82  71
  -4   2   5 94446.7 2225.70  17
  -4   2   5 88924.6 2291.67  58
  -4   2   5 97297.4 2238.96  27
  -4   2   6 98405.8 2448.15  35
  -4   2   6 105551. 2394.20  92
  -4   2   6 91105.6 2460.55  23
  -4   2   6 96114.2 2467.00  58
  -4   2   6 94898.4 2155.59  94
  -4   2   6 96555.3 2622.09  68
  -4   2   6 93024.7 2354.52  71
  -4   2   6 100433. 2438.82  27
  -4   2   6 93305.8 2555.69   2
  -4   2   7 179423. 3170.27  94
  -4   2   7 182039. 3585.42  35
  -4   2   7 188555. 3490.02  92
  -4   2   7 185412. 3761.36  23
  -4   2   7 181986. 3890.93  68
  -4   2   7 194995. 3786.54  27
  -4   2   7 191814. 3644.91  71
  -4   2   8 238479. 4070.29  92
  -4   2   8 235225. 4328.33  23
  -4   2   8 224171. 4034.76  35
  -4   2   8 248489. 4420.67  27
  -4   2   8 237766. 4192.09  71
  -4   2   8 227359. 4473.43  68
  -4   2   9 64962.1 1869.10  35
  -4   2   9 62338.2 1974.27  23
  -4   2   9 68176.7 1926.54  92
  -4   2   9 63278.6 2136.07  68
  -4   2   9 70918.0 2157.65  27
  -4   2   9 61589.3 1888.75  71
  -4   2  10 57868.8 1582.77  92
  -4   2  10 59300.4 1761.28  45
  -4   2  10 60057.2 1824.75  27
  -4   2  11 80974.2 1701.30  36
  -4   2  11 85958.3 1881.44  47
  -4   2  11 85519.7 1819.91  45
  -4   3  -8 51136.5 1323.36  91
  -4   3  -8 53411.2 1347.67  56
  -4   3  -7 152398. 2876.08  91
  -4   3  -7 152551. 2871.66  56
  -4   3  -7 149705. 2645.86  37
  -4   3  -6 123379. 2755.13  37
  -4   3  -6 117496. 2660.38  56
  -4   3  -6 118626. 2678.14  91
  -4   3  -6 115521. 2574.45  21
  -4   3  -6 122228. 2610.90  86
  -4   3  -5 87625.1 2300.91  21
  -4   3  -5 92189.3 2433.45  86
  -4   3  -5 92444.9 2352.81  91
  -4   3  -5 92172.0 2299.28  81
  -4   3  -5 92175.6 2523.57  37
  -4   3  -4 89872.7 2334.20  21
  -4   3  -4 92777.6 2275.10  91
  -4   3  -4 92363.6 2241.71  52
  -4   3  -4 94300.8 2565.35  37
  -4   3  -4 94488.2 2504.41  86
  -4   3  -4 90682.3 2367.32  81
  -4   3  -4 94608.2 2529.59  74
  -4   3  -4 96876.0 2212.85  80
  -4   3  -3 191315. 3508.22  25
  -4   3  -3 194798. 3575.92  81
  -4   3  -3 198439. 3273.76  91
  -4   3  -3 194878. 3445.59  80
  -4   3  -3 190204. 3535.50  52
  -4   3  -3 191600. 3735.44  37
  -4   3  -3 196201. 3669.16  74
  -4   3  -3 194566. 3684.49  86
  -4   3  -3 193030. 3557.93  95
  -4   3  -2 203317. 3559.49  68
  -4   3  -2 218973. 3770.85  95
  -4   3  -2 200840. 3611.16  86
  -4   3  -2 214372. 3326.99  60
  -4   3  -2 214483. 3742.01  37
  -4   3  -2 213344. 3664.52  74
  -4   3  -2 201506. 3497.35  59
  -4   3  -2 199264. 3544.00  81
  -4   3  -2 214434. 3768.77  52
  -4   3  -2 209313. 3572.56  25
  -4   3  -1 233185. 3672.93  25
  -4   3  -1 217927. 3576.15  59
  -4   3  -1 225846. 3692.72  68
  -4   3  -1 225281. 3425.81  60
  -4   3  -1 227431. 3611.45  74
  -4   3   0 73664.6 1769.70  71
  -4   3   0 73560.4 1886.29  68
  -4   3   0 73285.8 1826.55  59
  -4   3   0 74002.8 1791.33  17
  -4   3   0 74498.3 1757.00  60
  -4   3   0 71598.2 1702.66  74
  -4   3   1 13864.0 787.602  68
  -4   3   1 15073.7 768.971  17
  -4   3   1 13868.2 761.768  59
  -4   3   1 13359.6 705.635  60
  -4   3   1 14371.8 749.919  71
  -4   3   2 138342. 2719.67  68
  -4   3   2 133539. 2481.22  60
  -4   3   2 127571. 2537.27  59
  -4   3   2 135037. 2579.51  17
  -4   3   2 135516. 2559.08  71
  -4   3   3 433000. 5672.40  68
  -4   3   3 426918. 5491.02  59
  -4   3   3 410056. 5342.33  17
  -4   3   3 424915. 5303.09  60
  -4   3   3 411120. 5316.30  71
  -4   3   4 266531. 4302.19  68
  -4   3   4 260460. 3919.52  60
  -4   3   4 257860. 4052.25  59
  -4   3   4 255836. 4234.49  58
  -4   3   4 248063. 3937.62  71
  -4   3   4 251678. 3987.40  17
  -4   3   5 96374.9 2384.89  59
  -4   3   5 93973.7 2487.26  68
  -4   3   5 100427. 2309.34  94
  -4   3   5 87784.0 2402.50  58
  -4   3   5 104436. 2516.33  35
  -4   3   5 100290. 2322.57  92
  -4   3   5 96842.7 2363.52  17
  -4   3   5 97963.3 2360.31  71
  -4   3   6 57207.6 1892.79  35
  -4   3   6 54708.1 1683.53  94
  -4   3   6 57795.8 1803.97  92
  -4   3   6 55739.3 1604.60  39
  -4   3   6 53326.2 1908.67  68
  -4   3   6 51999.5 1790.14  17
  -4   3   6 53433.7 1795.08  71
  -4   3   7 53512.3 1670.40  94
  -4   3   7 52696.3 1767.15  92
  -4   3   7 55207.6 1850.66  27
  -4   3   7 53491.1 1839.38  71
  -4   3   7 50006.6 1905.03  68
  -4   3   7 52686.3 1833.99  17
  -4   3   7 52111.8 1818.97  35
  -4   3   8 305494. 4864.37  35
  -4   3   8 300532. 5171.53  68
  -4   3   8 306594. 4819.91  92
  -4   3   8 309563. 4956.74  17
  -4   3   8 307887. 4463.03  94
  -4   3   8 302725. 4919.99  71
  -4   3   9 158205. 3158.24  17
  -4   3   9 152642. 3309.29  68
  -4   3   9 162850. 3159.63  92
  -4   3   9 154091. 3039.47  35
  -4   3   9 157461. 3138.01  71
  -4   3  10 74697.8 1859.80  92
  -4   3  10 74876.0 1944.67  45
  -4   3  11 23809.1 784.526  92
  -4   3  11 23128.1 865.068  47
  -4   3  11 23269.3 885.500  45
  -4   4  -7 73738.3 1578.43  56
  -4   4  -7 73687.3 1583.06  91
  -4   4  -6 165347. 2906.65  56
  -4   4  -6 161518. 2885.57  91
  -4   4  -5 215342. 3612.89  56
  -4   4  -5 215142. 3630.85  91
  -4   4  -4 93967.1 2249.70  56
  -4   4  -4 91454.8 2488.10  86
  -4   4  -4 95301.4 2270.34  91
  -4   4  -4 92096.2 2280.36  52
  -4   4  -4 95043.4 2603.06  37
  -4   4  -4 90294.1 2212.76  80
  -4   4  -3 27953.1 1266.36  80
  -4   4  -3 26992.0 1116.60  91
  -4   4  -3 26427.5 1246.17  95
  -4   4  -3 27302.0 1363.07  37
  -4   4  -3 27670.9 1346.21  86
  -4   4  -3 26647.2 1108.01  56
  -4   4  -3 27558.3 1294.87  52
  -4   4  -2 42761.4 1669.26  95
  -4   4  -2 42361.8 1514.91  25
  -4   4  -2 40319.0 1528.80  68
  -4   4  -2 43511.6 1651.76  86
  -4   4  -2 45156.8 1676.66  80
  -4   4  -2 43777.7 1676.16  37
  -4   4  -2 45148.3 1720.41  52
  -4   4  -1 133019. 2885.90  86
  -4   4  -1 126686. 2788.29  68
  -4   4  -1 135591. 2765.81  25
  -4   4  -1 134580. 2900.80  37
  -4   4  -1 132438. 2583.40  60
  -4   4  -1 127010. 2976.53  95
  -4   4  -1 136311. 2914.33  85
  -4   4  -1 131754. 3054.63  52
  -4   4   0 357795. 4775.12  25
  -4   4   0 310908. 4736.29  39
  -4   4   0 324296. 4878.79  68
  -4   4   0 327328. 5132.85  52
  -4   4   0 337931. 4749.94  37
  -4   4   0 331974. 4761.78  71
  -4   4   0 322729. 4984.24  85
  -4   4   0 340872. 5144.48  95
  -4   4   0 344435. 4634.07  60
  -4   4   0 335295. 4920.10  75
  -4   4   0 325307. 4752.80  86
  -4   4   0 305284. 4648.66  59
  -4   4   1 136384. 2731.63  71
  -4   4   1 133183. 2912.72  85
  -4   4   1 132314. 2815.20  68
  -4   4   1 137046. 2894.01  39
  -4   4   1 139967. 2915.42  95
  -4   4   1 132947. 2758.54  59
  -4   4   1 142495. 2982.54  52
  -4   4   1 138380. 2913.14  75
  -4   4   1 139673. 2673.35  60
  -4   4   1 131184. 2723.29  17
  -4   4   2 32113.2 1307.84  68
  -4   4   2 31188.6 1195.73  60
  -4   4   2 29212.3 1218.49  59
  -4   4   2 29330.0 1291.14  39
  -4   4   2 32845.0 1334.79  75
  -4   4   2 32327.9 1329.76  85
  -4   4   2 31275.1 1250.25  17
  -4   4   2 30989.7 1224.23  71
  -4   4   3 46475.4 1574.01  94
  -4   4   3 42654.0 1554.92  68
  -4   4   3 43852.1 1520.33  85
  -4   4   3 40545.4 1401.39  60
  -4   4   3 42089.3 1476.65  71
  -4   4   3 38449.9 1436.55  17
  -4   4   3 43994.6 1535.64  75
  -4   4   3 45041.5 1612.89  39
  -4   4   3 39833.9 1456.13  59
  -4   4   4 274267. 4542.51  68
  -4   4   4 307445. 4641.35  94
  -4   4   4 276484. 4448.33  59
  -4   4   4 309382. 4468.10  92
  -4   4   4 294147. 4593.82  39
  -4   4   4 262380. 4366.21  71
  -4   4   4 294703. 4587.23  35
  -4   4   4 288246. 4360.01  85
  -4   4   4 271319. 4428.48  17
  -4   4   4 291315. 4438.85  75
  -4   4   4 270947. 4260.81  60
  -4   4   5 243429. 4331.28  68
  -4   4   5 252350. 4369.31  35
  -4   4   5 266716. 4280.23  92
  -4   4   5 258239. 3922.21  85
  -4   4   5 259916. 4092.24  75
  -4   4   5 266015. 4305.86  94
  -4   4   5 236756. 4192.91  17
  -4   4   5 238365. 4195.63  71
  -4   4   5 256838. 4181.55  39
  -4   4   6 212987. 3635.26  75
  -4   4   6 221520. 4143.20  68
  -4   4   6 234880. 3803.28  39
  -4   4   6 226220. 3926.44  94
  -4   4   6 226024. 4008.08  92
  -4   4   6 215950. 3976.62  71
  -4   4   6 219065. 4083.85  35
  -4   4   6 221245. 4059.98  17
  -4   4   7 42968.6 1706.77  68
  -4   4   7 45780.7 1701.09  35
  -4   4   7 46886.8 1674.42  92
  -4   4   7 47965.4 1644.75  94
  -4   4   7 41401.0 1633.42  17
  -4   4   7 43162.6 1654.85  71
  -4   4   8 40952.3 1490.16  27
  -4   4   8 34163.4 1459.96  68
  -4   4   8 34125.6 1428.42  17
  -4   4   8 37239.5 1384.38  94
  -4   4   8 38078.6 1494.84  92
  -4   4   8 32897.9 1400.64  71
  -4   4   9 119286. 2647.59  92
  -4   4   9 123466. 2609.68  27
  -4   4   9 121643. 2385.17  94
  -4   4   9 123572. 2486.33  47
  -4   4   9 120174. 2619.88  45
  -4   4  10 90745.4 2038.18  92
  -4   4  10 89795.9 1895.99  47
  -4   4  10 89732.4 2022.59  45
  -4   4  11 81537.8 1533.59  92
  -4   4  11 79590.5 1461.92  47
  -4   4  11 78282.7 1586.28  45
  -4   5  -6 51101.5 1177.28  56
  -4   5  -6 48698.4 1153.21  91
  -4   5  -5 52288.9 1392.78  91
  -4   5  -5 51759.3 1385.97  56
  -4   5  -4 101081. 2162.88  56
  -4   5  -4 104263. 2260.78  80
  -4   5  -4 99853.6 2144.89  91
  -4   5  -4 97160.9 2186.57  52
  -4   5  -3 68827.6 1994.40  95
  -4   5  -3 67317.7 1747.04  91
  -4   5  -3 69288.6 1780.03  56
  -4   5  -3 71428.8 2199.53  37
  -4   5  -3 69281.3 2068.71  52
  -4   5  -3 68662.9 2031.59  80
  -4   5  -2 86271.0 2468.84  80
  -4   5  -2 91433.8 2551.62  52
  -4   5  -2 88438.9 2476.04  37
  -4   5  -2 87364.8 2462.32  95
  -4   5  -1 75205.9 2362.34  52
  -4   5  -1 70478.3 1931.55  39
  -4   5  -1 69248.1 2066.36  68
  -4   5  -1 74928.8 2332.49  95
  -4   5  -1 71421.1 2143.45  37
  -4   5  -1 75305.5 2354.27  80
  -4   5  -1 75120.3 2177.05  85
  -4   5   0 95393.3 2451.32  39
  -4   5   0 93723.5 2418.50  68
  -4   5   0 99544.1 2766.61  80
  -4   5   0 90449.6 2599.46  52
  -4   5   0 93818.6 2361.51  37
  -4   5   0 100544. 2688.31  95
  -4   5   0 99815.1 2637.55  85
  -4   5   0 104636. 2571.63  75
  -4   5   1 164939. 3270.02  71
  -4   5   1 183393. 3636.80  39
  -4   5   1 171840. 3543.07  95
  -4   5   1 175536. 3600.91  52
  -4   5   1 180152. 3568.14  75
  -4   5   1 169372. 3613.11  85
  -4   5   1 167994. 3091.04  37
  -4   5   1 167317. 3348.86  68
  -4   5   1 165596. 3301.44  17
  -4   5   2 119441. 2734.77  71
  -4   5   2 128074. 3021.33  39
  -4   5   2 127343. 2860.83  68
  -4   5   2 129201. 2893.11  95
  -4   5   2 130416. 2903.28  52
  -4   5   2 135261. 2865.34  94
  -4   5   2 130516. 3067.59  85
  -4   5   2 131336. 3021.98  75
  -4   5   2 122070. 2787.86  17
  -4   5   3 67935.9 2046.23  94
  -4   5   3 67768.5 1949.08  95
  -4   5   3 67647.5 2032.49  68
  -4   5   3 63605.1 2084.21  39
  -4   5   3 60446.6 1912.55  71
  -4   5   3 73958.4 2186.47  85
  -4   5   3 73813.7 2101.85  34
  -4   5   3 70020.0 1929.87  52
  -4   5   3 70249.0 2125.17  75
  -4   5   3 60835.6 1925.17  17
  -4   5   4 150515. 3214.29  75
  -4   5   4 147879. 3154.67  68
  -4   5   4 143773. 3193.16  39
  -4   5   4 147674. 3101.27  85
  -4   5   4 137500. 2741.30  95
  -4   5   4 137164. 3026.93  71
  -4   5   4 137655. 3057.27  17
  -4   5   4 150263. 3202.51  94
  -4   5   5 194638. 3724.86  68
  -4   5   5 200945. 3747.61  39
  -4   5   5 201222. 3793.74  94
  -4   5   5 192213. 3488.77  85
  -4   5   5 188565. 3742.24  17
  -4   5   5 205002. 3679.10  92
  -4   5   5 200345. 3697.83  75
  -4   5   5 191523. 3721.58  71
  -4   5   6 124693. 2700.03  39
  -4   5   6 121541. 2684.71  75
  -4   5   6 121045. 2780.69  92
  -4   5   6 124688. 2896.87  94
  -4   5   6 116135. 2760.36  68
  -4   5   6 113464. 2785.05  17
  -4   5   6 108870. 2718.59  71
  -4   5   7 108169. 2586.21  68
  -4   5   7 123162. 2471.78  39
  -4   5   7 104240. 2644.98  17
  -4   5   7 118146. 2762.89  92
  -4   5   7 111761. 2415.78  75
  -4   5   7 112164. 2667.74  94
  -4   5   7 119164. 2505.64  45
  -4   5   7 106141. 2633.85  71
  -4   5   8 26118.9 1161.02  94
  -4   5   8 27452.4 1224.83  92
  -4   5   8 25319.4 1172.52  17
  -4   5   8 29279.7 1163.57  45
  -4   5   8 23840.4 1130.79  71
  -4   5   9 54444.0 1643.30  92
  -4   5   9 55648.4 1684.04  34
  -4   5   9 52356.8 1485.39  94
  -4   5   9 51529.9 1488.26  45
  -4   5  10 72044.6 1696.26  92
  -4   5  10 71628.1 1642.41  34
  -4   5  10 75630.9 1627.72  45
  -4   5  11 60532.3 1251.33  87
  -4   5  11 62702.3 1215.41  92
  -4   6  -4 107148. 1957.26  80
  -4   6  -4 105342. 1799.62  91
  -4   6  -4 109124. 1833.55  56
  -4   6  -3 68467.6 1822.52  80
  -4   6  -3 66202.3 1798.43  52
  -4   6  -2 52425.3 1764.90  80
  -4   6  -2 50915.1 1531.80  55
  -4   6  -2 49508.6 1741.75  52
  -4   6  -2 49217.7 1676.61  95
  -4   6  -1 52722.6 1867.21  95
  -4   6  -1 53338.7 1717.97  85
  -4   6  -1 53031.5 1907.04  52
  -4   6  -1 55988.8 1958.56  80
  -4   6   0 84668.7 2270.92  39
  -4   6   0 86176.6 2239.26  68
  -4   6   0 93774.3 2587.54  95
  -4   6   0 96014.9 2704.52  80
  -4   6   0 89565.4 2486.13  85
  -4   6   0 91147.8 2590.90  52
  -4   6   0 96207.1 2381.60  75
  -4   6   1 150745. 3303.52  39
  -4   6   1 145499. 3031.67  68
  -4   6   1 158929. 3443.00  95
  -4   6   1 159628. 3602.96  80
  -4   6   1 150092. 3404.96  85
  -4   6   1 156625. 3416.13  52
  -4   6   1 155979. 3335.63  75
  -4   6   2 229488. 4096.69  71
  -4   6   2 259109. 4615.44  39
  -4   6   2 246631. 4122.32  68
  -4   6   2 248120. 4389.41  95
  -4   6   2 258157. 4615.85  85
  -4   6   2 255749. 4665.93  80
  -4   6   2 254247. 4370.16  52
  -4   6   2 232424. 4148.36  17
  -4   6   2 264414. 4623.92  75
  -4   6   3 63093.4 1967.59  71
  -4   6   3 62929.1 2104.20  75
  -4   6   3 62494.1 2107.53  39
  -4   6   3 62956.6 1905.85  68
  -4   6   3 65560.2 2015.91  94
  -4   6   3 62358.0 1937.36  95
  -4   6   3 64468.4 1923.66  52
  -4   6   3 61427.2 1968.30  17
  -4   6   3 67952.8 2144.10  80
  -4   6   4 27801.4 1218.17  68
  -4   6   4 27606.3 1173.12  95
  -4   6   4 30240.6 1393.53  94
  -4   6   4 28362.3 1326.71  85
  -4   6   4 29161.8 1342.08  34
  -4   6   4 29519.3 1303.48  80
  -4   6   4 26948.0 1279.69  17
  -4   6   4 28317.2 1361.14  75
  -4   6   4 28227.1 1355.38  39
  -4   6   4 26020.3 1253.94  71
  -4   6   5 117415. 2783.12  39
  -4   6   5 105842. 2630.34  71
  -4   6   5 130291. 3029.86  34
  -4   6   5 120557. 2726.05  85
  -4   6   5 127060. 2967.74  94
  -4   6   5 122314. 2833.49  75
  -4   6   5 105373. 2663.59  17
  -4   6   6 89551.3 2478.36  34
  -4   6   6 79782.3 2211.81  71
  -4   6   6 85176.6 2198.77  39
  -4   6   6 85366.8 2067.93  85
  -4   6   6 88701.0 2202.46  87
  -4   6   6 87898.3 2254.86  75
  -4   6   6 86650.0 2364.34  94
  -4   6   6 78934.0 2219.14  17
  -4   6   6 87519.1 2229.78  92
  -4   6   7 133258. 2543.86  39
  -4   6   7 137269. 2902.19  94
  -4   6   7 137250. 3026.65  34
  -4   6   7 131630. 2792.79  92
  -4   6   7 137784. 2821.87  87
  -4   6   7 135661. 2664.82  75
  -4   6   8 57759.1 1672.66  92
  -4   6   8 57827.4 1685.92  94
  -4   6   8 62373.9 1832.01  34
  -4   6   8 57823.9 1675.34  87
  -4   6   9 13907.0 721.369  87
  -4   6   9 14384.9 752.469  34
  -4   6   9 14617.2 706.833  94
  -4   6   9 13896.4 731.889  92
  -4   6  10 49734.2 1171.22  34
  -4   6  10 49663.0 1166.82  87
  -4   7  -3 95060.4 1714.12  80
  -4   7  -2 83929.3 1624.66  55
  -4   7  -2 89476.6 1980.69  80
  -4   7  -2 84352.4 1915.68  52
  -4   7  -1 65562.9 1702.42  55
  -4   7  -1 66681.9 1883.62  52
  -4   7  -1 63271.9 1831.04  80
  -4   7   0 77909.6 2178.63  80
  -4   7   0 74829.8 2045.02  55
  -4   7   0 71688.0 1946.10  85
  -4   7   0 76316.3 2129.93  52
  -4   7   1 34771.5 1335.02  75
  -4   7   1 35223.6 1438.96  85
  -4   7   1 36485.9 1451.25  52
  -4   7   1 37091.9 1511.80  80
  -4   7   2 220481. 4015.60  85
  -4   7   2 223723. 3860.88  52
  -4   7   2 212519. 3877.60  75
  -4   7   2 225018. 4039.19  80
  -4   7   3 121633. 2826.68  85
  -4   7   3 118580. 2805.43  39
  -4   7   3 123128. 2574.84  94
  -4   7   3 116017. 2504.85  52
  -4   7   3 116354. 2677.98  80
  -4   7   3 115350. 2756.18  75
  -4   7   4 36726.7 1457.58  75
  -4   7   4 33526.7 1408.42  39
  -4   7   4 33586.6 1282.76  34
  -4   7   4 36047.2 1423.27  85
  -4   7   4 33531.0 1339.41  94
  -4   7   4 34050.2 1261.16  80
  -4   7   5 26421.2 1144.55  85
  -4   7   5 26463.6 1184.41  75
  -4   7   5 26828.7 1176.97  34
  -4   7   5 23851.7 1127.19  39
  -4   7   5 26818.2 1204.60  94
  -4   7   6 47242.5 1392.87  85
  -4   7   6 49346.6 1606.35  34
  -4   7   6 47043.3 1507.72  75
  -4   7   6 44768.0 1426.73  39
  -4   7   6 50015.3 1614.92  94
  -4   7   7 92068.5 2162.75  34
  -4   7   7 94174.4 2147.61  94
  -4   7   7 92357.3 1951.81  92
  -4   7   7 87515.5 1901.47  75
  -4   7   8 124168. 2316.28  94
  -4   7   8 124686. 2081.14  87
  -4   7   8 122927. 2345.62  34
  -4   7   8 125194. 2206.99  92
  -4   7   9 49599.4 1152.36  92
  -4   7   9 51100.3 1170.42  94
  -4   7   9 53754.3 1258.45  34
  -4   8  -1 110865. 1888.79  80
  -4   8   0 76406.3 1608.66  55
  -4   8   0 78400.7 1709.15  80
  -4   8   1 13299.8 699.567  80
  -4   8   1 12659.2 694.289  55
  -4   8   2 31282.4 1095.88  80
  -4   8   2 31490.8 1169.17  55
  -4   8   3 108653. 2289.61  85
  -4   8   3 107494. 2280.08  55
  -4   8   3 107648. 2065.24  80
  -4   8   3 105839. 2221.87  75
  -4   8   4 101143. 2133.28  55
  -4   8   4 104546. 1948.64  94
  -4   8   4 102440. 2170.87  85
  -4   8   4 102934. 2184.70  75
  -4   8   5 41321.1 1142.13  34
  -4   8   5 40368.2 1167.66  55
  -4   8   5 42111.0 1234.66  94
  -4   8   5 40552.8 1268.80  75
  -4   8   6 30290.7 973.094  34
  -4   8   6 28709.7 995.586  94
  -4   8   7 23513.3 820.671  94
  -4   8   7 23342.0 788.630  34
  -3 -11  -8 17429.3 553.159  89
  -3 -11  -7 56849.5 1226.02  89
  -3 -11  -7 54356.4 1095.27  86
  -3 -11  -7 55645.5 1231.21  81
  -3 -11  -7 58348.3 1200.58  46
  -3 -11  -6 97725.7 1815.23  89
  -3 -11  -6 98163.9 1857.13  81
  -3 -11  -6 102993. 1854.04  46
  -3 -11  -5 44752.0 1211.63  89
  -3 -11  -5 44510.6 1238.27  81
  -3 -11  -5 45375.1 1271.68  46
  -3 -11  -4 29802.6 980.887  89
  -3 -11  -4 29553.1 997.838  81
  -3 -11  -4 29683.5 1064.35  46
  -3 -11  -3 20009.4 778.576  81
  -3 -11  -3 21073.5 788.790  89
  -3 -11  -3 19425.9 863.445  46
  -3 -10  -9 45908.0 1061.83  77
  -3 -10  -9 46308.4 1026.25  32
  -3 -10  -9 47828.2 983.681  46
  -3 -10  -9 44587.5 1003.27  81
  -3 -10  -9 45085.8 1074.36  89
  -3 -10  -8 24038.5 842.312  77
  -3 -10  -8 24732.3 902.146  89
  -3 -10  -8 24097.4 746.247  86
  -3 -10  -8 24931.8 838.414  32
  -3 -10  -8 23153.5 863.349  81
  -3 -10  -8 25316.6 855.429  46
  -3 -10  -7 16067.0 729.100  77
  -3 -10  -7 17454.2 824.227  89
  -3 -10  -7 16778.8 756.182  86
  -3 -10  -7 17197.0 747.953  32
  -3 -10  -7 16681.9 783.651  46
  -3 -10  -7 17188.2 820.079  81
  -3 -10  -6 100499. 2000.85  77
  -3 -10  -6 102489. 2301.00  81
  -3 -10  -6 108485. 2337.68  89
  -3 -10  -6 109120. 2125.41  32
  -3 -10  -6 110906. 2297.38  31
  -3 -10  -6 108349. 2278.75  74
  -3 -10  -6 107035. 2320.98  46
  -3 -10  -5 100490. 2321.61  74
  -3 -10  -5 93308.6 2212.26  89
  -3 -10  -5 93481.0 2248.91  81
  -3 -10  -5 95451.9 1999.08  32
  -3 -10  -5 90868.2 2240.31  31
  -3 -10  -5 96684.5 2133.80  29
  -3 -10  -5 87943.4 2209.67  46
  -3 -10  -4 89973.6 2309.74  74
  -3 -10  -4 89904.1 2297.18  31
  -3 -10  -4 83440.0 2129.90  89
  -3 -10  -3 34071.1 1431.85  74
  -3 -10  -3 33164.2 1280.59  89
  -3 -10  -3 35991.9 1459.85  31
  -3 -10  -2 36705.7 1304.84  89
  -3 -10  -2 39359.3 1549.54  74
  -3 -10  -2 38847.9 1524.97  31
  -3 -10  -1 72221.0 2088.37  31
  -3 -10  -1 69080.1 2068.89  74
  -3 -10   0 116505. 2636.64  74
  -3 -10   0 118547. 2626.90  31
  -3  -9 -10 67031.8 1273.08  76
  -3  -9 -10 66401.5 1332.42  89
  -3  -9 -10 64974.1 1165.78  46
  -3  -9 -10 67917.2 1365.03  32
  -3  -9 -10 64652.3 1389.56  77
  -3  -9  -9 62255.7 1418.75  76
  -3  -9  -9 59198.1 1417.30  81
  -3  -9  -9 62017.6 1527.43  89
  -3  -9  -9 60748.0 1488.46  32
  -3  -9  -9 61713.7 1550.12  77
  -3  -9  -9 62788.1 1418.07  46
  -3  -9  -8 74899.8 1873.94  89
  -3  -9  -8 72091.9 1773.93  46
  -3  -9  -8 79299.9 1754.25  76
  -3  -9  -8 74676.0 1653.36  86
  -3  -9  -8 71351.4 1831.45  77
  -3  -9  -8 76101.8 1857.52  81
  -3  -9  -8 78221.9 1850.63  29
  -3  -9  -8 77471.1 1841.51  32
  -3  -9  -7 43472.2 1412.94  86
  -3  -9  -7 47422.0 1375.64  76
  -3  -9  -7 48293.7 1576.50  89
  -3  -9  -7 46194.1 1502.31  77
  -3  -9  -7 47184.2 1479.73  32
  -3  -9  -7 46508.2 1546.21  81
  -3  -9  -7 47149.9 1497.65  29
  -3  -9  -7 46937.9 1445.49  74
  -3  -9  -7 47123.0 1522.85  46
  -3  -9  -6 48408.3 1605.27  70
  -3  -9  -6 55569.1 1655.20  77
  -3  -9  -6 47541.3 1619.52  74
  -3  -9  -6 50719.1 1572.06  32
  -3  -9  -6 47060.7 1651.36  81
  -3  -9  -6 51018.9 1700.18  89
  -3  -9  -6 50919.4 1674.04  31
  -3  -9  -6 52637.9 1657.91  29
  -3  -9  -6 48493.9 1650.19  46
  -3  -9  -5 83581.0 2062.67  32
  -3  -9  -5 80012.9 1970.38  77
  -3  -9  -5 82175.9 2218.41  70
  -3  -9  -5 82888.8 2249.84  89
  -3  -9  -5 80088.9 2258.02  31
  -3  -9  -5 78653.3 2243.04  74
  -3  -9  -5 76851.9 2206.36  46
  -3  -9  -4 89985.7 2399.01  89
  -3  -9  -4 97094.3 2575.71  31
  -3  -9  -4 97330.0 2354.27  67
  -3  -9  -4 98115.6 2237.41  32
  -3  -9  -4 95971.5 2593.05  74
  -3  -9  -4 93570.7 2449.22  70
  -3  -9  -3 130823. 2993.04  70
  -3  -9  -3 133552. 2910.10  67
  -3  -9  -3 147266. 3311.16  74
  -3  -9  -3 148483. 3305.98  31
  -3  -9  -2 103951. 2651.74  70
  -3  -9  -2 104669. 2603.70  67
  -3  -9  -2 113472. 2910.17  74
  -3  -9  -2 114530. 2888.32  31
  -3  -9  -2 106000. 2744.63  18
  -3  -9  -1 104423. 2638.02  70
  -3  -9  -1 114025. 2745.67  67
  -3  -9  -1 115814. 2956.66  74
  -3  -9  -1 105448. 2700.25  18
  -3  -9   0 55859.1 1831.16  70
  -3  -9   0 60542.5 1949.96  67
  -3  -9   0 55566.0 1860.94  18
  -3  -9   1 54327.7 1810.63  67
  -3  -8 -11 8967.32 401.590  89
  -3  -8 -11 9521.43 462.146  32
  -3  -8 -11 9974.03 475.498  77
  -3  -8 -11 9823.32 454.497  76
  -3  -8 -10 79067.9 1773.21  77
  -3  -8 -10 76880.9 1526.41  46
  -3  -8 -10 79821.5 1683.30  89
  -3  -8 -10 77889.1 1722.77  32
  -3  -8 -10 80507.2 1705.90  76
  -3  -8  -9 117779. 2394.34  89
  -3  -8  -9 116542. 2324.98  76
  -3  -8  -9 117136. 2260.68  46
  -3  -8  -9 119511. 2414.23  32
  -3  -8  -9 116459. 2456.12  77
  -3  -8  -9 114434. 2240.26  81
  -3  -8  -8 114773. 2254.19  86
  -3  -8  -8 113534. 2481.10  32
  -3  -8  -8 108761. 2420.54  81
  -3  -8  -8 115358. 2413.09  76
  -3  -8  -8 121206. 2554.63  29
  -3  -8  -8 110807. 2539.07  77
  -3  -8  -8 109962. 2395.54  46
  -3  -8  -8 114999. 2536.71  89
  -3  -8  -7 30954.6 1209.99  70
  -3  -8  -7 32684.0 1351.40  89
  -3  -8  -7 32568.2 1227.39  76
  -3  -8  -7 29224.7 1189.33  86
  -3  -8  -7 30418.6 1288.18  81
  -3  -8  -7 28448.3 1254.69  77
  -3  -8  -7 30476.3 1245.80  32
  -3  -8  -7 32567.5 1308.26  29
  -3  -8  -7 30545.5 1215.89  74
  -3  -8  -7 30682.0 1275.04  46
  -3  -8  -6 46780.2 1669.69  81
  -3  -8  -6 49703.0 1707.95  89
  -3  -8  -6 47570.1 1574.52  32
  -3  -8  -6 50175.9 1711.18  31
  -3  -8  -6 47273.1 1614.65  77
  -3  -8  -6 48563.1 1637.68  70
  -3  -8  -6 50449.2 1680.37  29
  -3  -8  -6 47583.5 1654.01  74
  -3  -8  -6 49127.5 1501.29  76
  -3  -8  -6 46409.6 1645.11  46
  -3  -8  -5 98949.4 2297.47  32
  -3  -8  -5 92354.8 2233.67  77
  -3  -8  -5 92426.9 2408.12  70
  -3  -8  -5 100926. 2510.99  89
  -3  -8  -5 97413.6 2505.43  31
  -3  -8  -5 94271.5 2480.33  74
  -3  -8  -4 297317. 4762.84  70
  -3  -8  -4 292474. 4415.64  67
  -3  -8  -4 300582. 4945.77  74
  -3  -8  -4 296238. 4353.44  32
  -3  -8  -4 306027. 4937.86  31
  -3  -8  -3 229028. 4255.95  31
  -3  -8  -3 233815. 4156.12  70
  -3  -8  -3 233699. 3938.13  67
  -3  -8  -3 234710. 4343.59  74
  -3  -8  -3 241052. 4251.61  18
  -3  -8  -2 68484.9 2065.66  70
  -3  -8  -2 60550.8 1987.93  18
  -3  -8  -1 36432.8 1497.94  70
  -3  -8  -1 39646.5 1484.58  26
  -3  -8  -1 40689.4 1714.62  10
  -3  -8  -1 37095.3 1532.66  18
  -3  -8   0 50317.7 1636.38  24
  -3  -8   0 51062.3 1766.84  70
  -3  -8   0 55685.7 2055.34  10
  -3  -8   0 51887.7 1806.93  18
  -3  -8   1 81232.1 2236.24  70
  -3  -8   1 82603.6 2282.49  18
  -3  -8   2 124204. 2775.18  70
  -3  -8   2 129552. 2839.97  18
  -3  -7 -11 52359.8 1176.29  89
  -3  -7 -11 51306.1 1282.13  32
  -3  -7 -11 53441.9 1292.95  77
  -3  -7 -11 54552.6 1319.87  76
  -3  -7 -10 7147.52 531.243  32
  -3  -7 -10 7937.39 539.797  89
  -3  -7 -10 7358.09 481.425  46
  -3  -7 -10 8321.60 572.209  76
  -3  -7  -9 43565.1 1446.91  89
  -3  -7  -9 43180.2 1456.12  76
  -3  -7  -9 43772.7 1376.57  46
  -3  -7  -9 40122.7 1405.15  83
  -3  -7  -9 40252.6 1293.19  81
  -3  -7  -9 46274.5 1504.51  32
  -3  -7  -9 44608.0 1528.40  77
  -3  -7  -9 37510.8 1265.07  72
  -3  -7  -8 165921. 3163.60  32
  -3  -7  -8 164838. 3062.07  81
  -3  -7  -8 169468. 3221.80  89
  -3  -7  -8 140572. 2892.64  83
  -3  -7  -8 165758. 3272.10  77
  -3  -7  -8 162698. 3096.46  76
  -3  -7  -8 179516. 3263.07  29
  -3  -7  -8 163577. 3064.38  46
  -3  -7  -8 146789. 2829.19  72
  -3  -7  -7 191293. 3338.22  86
  -3  -7  -7 183219. 3535.13  77
  -3  -7  -7 192219. 3576.89  89
  -3  -7  -7 192099. 3467.23  32
  -3  -7  -7 193557. 3527.27  81
  -3  -7  -7 205123. 3478.19  76
  -3  -7  -7 213975. 3680.30  29
  -3  -7  -7 199445. 3439.40  74
  -3  -7  -7 209129. 3367.11  70
  -3  -7  -7 195575. 3528.56  46
  -3  -7  -7 186486. 3242.11  72
  -3  -7  -6 315833. 4595.37  70
  -3  -7  -6 309371. 4568.50  32
  -3  -7  -6 315612. 4719.05  77
  -3  -7  -6 313534. 4777.08  89
  -3  -7  -6 309201. 4444.00  76
  -3  -7  -6 317090. 4772.42  74
  -3  -7  -6 315775. 4783.62  81
  -3  -7  -6 318157. 4781.33  31
  -3  -7  -6 316751. 4746.48  29
  -3  -7  -6 300596. 4679.44  46
  -3  -7  -6 315710. 4387.00  72
  -3  -7  -5 15082.9 887.769  89
  -3  -7  -5 15697.5 924.755  74
  -3  -7  -5 15768.0 840.671  32
  -3  -7  -5 14022.5 841.937  70
  -3  -7  -5 14861.1 836.910  77
  -3  -7  -5 13984.4 821.638  60
  -3  -7  -5 16370.0 941.934  31
  -3  -7  -5 13823.4 858.979  46
  -3  -7  -5 15143.0 879.678   3
  -3  -7  -5 15220.9 767.224  72
  -3  -7  -4 67155.5 1981.98  31
  -3  -7  -4 62950.6 1848.23  70
  -3  -7  -4 64440.4 1684.71  67
  -3  -7  -4 61349.6 1821.18  89
  -3  -7  -4 68413.6 1641.43  72
  -3  -7  -4 66935.9 1950.04  18
  -3  -7  -4 65129.2 1977.55  74
  -3  -7  -4 67133.7 1885.98   3
  -3  -7  -3 125441. 2702.34  70
  -3  -7  -3 132008. 2890.06  31
  -3  -7  -3 128406. 2768.06  18
  -3  -7  -3 130282. 2686.88   3
  -3  -7  -3 130704. 2902.42  74
  -3  -7  -2 202705. 3547.53  70
  -3  -7  -2 193464. 3518.42  24
  -3  -7  -2 209494. 3534.23  26
  -3  -7  -2 205054. 3615.19  18
  -3  -7  -2 197823. 3393.10   3
  -3  -7  -1 162256. 3087.02  70
  -3  -7  -1 162532. 3396.18  10
  -3  -7  -1 158424. 2982.24  26
  -3  -7  -1 160456. 3102.63  18
  -3  -7  -1 159625. 2886.14   3
  -3  -7   0 61963.1 1819.85  70
  -3  -7   0 64260.3 1868.86  18
  -3  -7   0 65203.7 2120.14  10
  -3  -7   1 24414.8 1085.93  24
  -3  -7   1 23953.2 1297.57  10
  -3  -7   2 21922.0 1244.96  10
  -3  -7   3 232001. 3936.18  70
  -3  -7   3 239971. 4015.33  18
  -3  -6 -12 45139.1 1016.47  76
  -3  -6 -11 131556. 2148.06  89
  -3  -6 -11 135659. 2293.50  77
  -3  -6 -11 130674. 2214.49  40
  -3  -6 -11 134816. 2396.47  76
  -3  -6 -10 54423.7 1602.51  76
  -3  -6 -10 53514.3 1513.82  40
  -3  -6 -10 52105.2 1494.97  89
  -3  -6 -10 50172.0 1541.61  77
  -3  -6 -10 49796.8 1613.63  83
  -3  -6 -10 53982.7 1588.84  32
  -3  -6 -10 52163.5 1411.23  46
  -3  -6  -9 95662.8 2204.39  40
  -3  -6  -9 96010.3 2320.60  76
  -3  -6  -9 90884.4 2364.35  83
  -3  -6  -9 96007.8 2269.38  89
  -3  -6  -9 98316.0 2330.22  32
  -3  -6  -9 95442.3 2054.54  81
  -3  -6  -9 99441.3 2392.99  77
  -3  -6  -9 94953.3 2157.05  46
  -3  -6  -8 99835.4 2336.76  72
  -3  -6  -8 96227.7 2364.22  89
  -3  -6  -8 90751.6 2373.84  83
  -3  -6  -8 102814. 2501.11  77
  -3  -6  -8 104493. 2317.32  81
  -3  -6  -8 106408. 2453.67  32
  -3  -6  -8 102927. 2404.76  76
  -3  -6  -8 109361. 2499.90  29
  -3  -6  -8 104033. 2351.63  46
  -3  -6  -7 119376. 2622.44  89
  -3  -6  -7 115830. 2641.03  77
  -3  -6  -7 117409. 2396.52  86
  -3  -6  -7 118620. 2561.04  32
  -3  -6  -7 122677. 2592.21  81
  -3  -6  -7 118719. 2536.24  72
  -3  -6  -7 118829. 2536.94  76
  -3  -6  -7 125765. 2677.26  29
  -3  -6  -7 120857. 2482.79  74
  -3  -6  -7 120166. 2559.15  46
  -3  -6  -7 112121. 2541.01  83
  -3  -6  -6 290261. 4292.98  74
  -3  -6  -6 283684. 4310.50  89
  -3  -6  -6 307134. 4156.15  70
  -3  -6  -6 265654. 4303.52  60
  -3  -6  -6 278825. 4285.79  77
  -3  -6  -6 270116. 4092.92  32
  -3  -6  -6 273420. 4174.32   3
  -3  -6  -6 285601. 4277.55  81
  -3  -6  -6 297650. 4374.75  31
  -3  -6  -6 291074. 4195.30  72
  -3  -6  -6 285745. 4080.61  76
  -3  -6  -6 296466. 4334.53  29
  -3  -6  -6 280273. 4106.74  86
  -3  -6  -6 272220. 4227.93  46
  -3  -6  -5 139063. 2647.82  70
  -3  -6  -5 128024. 2637.79  60
  -3  -6  -5 139522. 2784.72  31
  -3  -6  -5 139491. 2708.12  29
  -3  -6  -5 140194. 2798.24  74
  -3  -6  -5 137504. 2692.46   3
  -3  -6  -5 138231. 2558.76  72
  -3  -6  -4 34322.0 1226.23  70
  -3  -6  -4 36281.7 1173.80  72
  -3  -6  -4 35301.5 1259.00  18
  -3  -6  -4 33082.9 1166.07  60
  -3  -6  -4 35613.7 1323.81  74
  -3  -6  -4 36159.1 1318.64  31
  -3  -6  -4 36715.0 1270.29   3
  -3  -6  -3 71886.5 1784.68  70
  -3  -6  -3 71106.6 1791.87  18
  -3  -6  -3 67480.3 1857.72  74
  -3  -6  -3 67532.8 1834.45  31
  -3  -6  -3 71433.5 1772.91   3
  -3  -6  -3 69933.6 1625.13  72
  -3  -6  -2 129849. 2491.17  70
  -3  -6  -2 139699. 2637.93  24
  -3  -6  -2 130628. 2442.94  26
  -3  -6  -2 130557. 2513.48  18
  -3  -6  -2 131650. 2474.81   3
  -3  -6  -2 129763. 2318.11  72
  -3  -6  -1 101831. 2173.10  24
  -3  -6  -1 94671.7 2012.36  26
  -3  -6  -1 97971.6 2351.32  10
  -3  -6  -1 96431.3 2024.36   3
  -3  -6  -1 100048. 1963.44  72
  -3  -6   0 205513. 3703.92  10
  -3  -6   0 211675. 3173.59   3
  -3  -6   0 204217. 3107.82  72
  -3  -6   1 139859. 3021.24  10
  -3  -6   1 139065. 2497.17  72
  -3  -6   2 37627.1 1541.45  63
  -3  -6   2 37900.2 1566.54   7
  -3  -6   3 183199. 3712.13  63
  -3  -6   3 183459. 3638.53  10
  -3  -6   3 179033. 3380.31   9
  -3  -6   3 186394. 3788.26   7
  -3  -6   4 210069. 3704.13   9
  -3  -5 -12 31946.0 844.751  40
  -3  -5 -12 31889.9 890.787  76
  -3  -5 -11 110074. 1951.92  89
  -3  -5 -11 112143. 2225.60  76
  -3  -5 -11 103693. 2017.18  91
  -3  -5 -11 106132. 1998.87  77
  -3  -5 -11 104557. 1810.40  46
  -3  -5 -11 115371. 2198.91  40
  -3  -5 -10 156300. 2921.02  40
  -3  -5 -10 147411. 2716.68  89
  -3  -5 -10 146559. 3061.92  83
  -3  -5 -10 148042. 2873.25  32
  -3  -5 -10 154002. 2858.93  77
  -3  -5 -10 149473. 2911.12  76
  -3  -5 -10 144392. 2596.48  46
  -3  -5  -9 89670.5 2129.13  46
  -3  -5  -9 95707.3 2502.64  83
  -3  -5  -9 92448.6 2132.92  93
  -3  -5  -9 95792.8 2268.20  89
  -3  -5  -9 92507.8 2309.62  32
  -3  -5  -9 96125.5 2351.86  77
  -3  -5  -9 92945.3 2325.14  76
  -3  -5  -9 84674.5 2183.45  72
  -3  -5  -9 91393.8 2272.89  40
  -3  -5  -8 103622. 2397.91  89
  -3  -5  -8 101843. 2550.66  83
  -3  -5  -8 109189. 2281.82  81
  -3  -5  -8 98388.2 2379.71  32
  -3  -5  -8 99244.2 2429.51  77
  -3  -5  -8 99824.3 2387.51  76
  -3  -5  -8 103730. 2428.97  72
  -3  -5  -8 104920. 2337.20  46
  -3  -5  -7 52469.4 1511.45  74
  -3  -5  -7 52229.2 1691.35  60
  -3  -5  -7 50027.6 1565.63  32
  -3  -5  -7 48213.7 1627.82  83
  -3  -5  -7 54194.0 1638.78  89
  -3  -5  -7 54519.7 1567.59  81
  -3  -5  -7 53682.3 1633.51  72
  -3  -5  -7 54086.9 1612.69  76
  -3  -5  -7 49834.5 1622.14  77
  -3  -5  -7 53578.4 1645.57  29
  -3  -5  -7 50933.4 1555.69  46
  -3  -5  -6 109358. 2459.78  60
  -3  -5  -6 115702. 2394.13  72
  -3  -5  -6 115667. 2404.47  29
  -3  -5  -6 115868. 2329.71  74
  -3  -5  -6 114722. 2274.33   3
  -3  -5  -5 275443. 3840.31   3
  -3  -5  -5 252926. 3897.52  60
  -3  -5  -5 276314. 3870.20  29
  -3  -5  -5 255154. 3876.65  31
  -3  -5  -5 279645. 3682.44  70
  -3  -5  -5 254466. 3851.73  74
  -3  -5  -5 294560. 3945.13  72
  -3  -5  -4 71087.2 1592.80  70
  -3  -5  -4 70661.7 1620.92  18
  -3  -5  -4 61557.2 1579.51  60
  -3  -5  -4 70221.3 1621.70  72
  -3  -5  -4 66373.6 1676.97  31
  -3  -5  -4 64400.6 1584.79   3
  -3  -5  -4 67956.7 1697.98  74
  -3  -5  -3 98421.4 1892.03  70
  -3  -5  -3 96847.3 2038.13  24
  -3  -5  -3 99627.7 1961.40   3
  -3  -5  -3 89675.3 1956.36  31
  -3  -5  -3 91039.4 1982.80  74
  -3  -5  -3 97562.4 1851.97  60
  -3  -5  -3 99039.0 1919.65  18
  -3  -5  -3 98672.0 1914.81  72
  -3  -5  -2 143474. 2470.82  24
  -3  -5  -2 139463. 2458.76  31
  -3  -5  -2 140267. 2083.93  60
  -3  -5  -2 143843. 2346.15  72
  -3  -5  -1 74370.6 1658.70  24
  -3  -5  -1 67193.4 1516.75   3
  -3  -5  -1 69073.1 1459.29  26
  -3  -5  -1 73426.4 1812.86  10
  -3  -5  -1 70364.0 1548.75  72
  -3  -5   0 243793. 3784.49  10
  -3  -5   0 252289. 3336.25   3
  -3  -5   0 249918. 3392.22  72
  -3  -5   1 352615. 4913.99  10
  -3  -5   1 365117. 4533.66  72
  -3  -5   1 364258. 4303.31   3
  -3  -5   1 380666. 5077.78   7
  -3  -5   1 372229. 5000.15  63
  -3  -5   2 283758. 4333.01   7
  -3  -5   2 279225. 4258.17  63
  -3  -5   3 113950. 2591.99  63
  -3  -5   3 118240. 2443.17   9
  -3  -5   3 116586. 2658.19   7
  -3  -5   4 157064. 2841.59  65
  -3  -5   4 149163. 3123.88  63
  -3  -5   4 146727. 3155.70   7
  -3  -5   5 116904. 2821.95  64
  -3  -5   5 113826. 2796.09   8
  -3  -5   6 119797. 2916.09  11
  -3  -4 -12 66774.5 1334.36  40
  -3  -4 -12 64380.3 1339.22  76
  -3  -4 -11 53750.7 1494.59  40
  -3  -4 -11 50251.7 1261.05  89
  -3  -4 -11 50425.3 1360.02  91
  -3  -4 -11 51176.0 1460.66  76
  -3  -4 -11 52116.5 1275.78  77
  -3  -4 -10 177694. 3266.99  40
  -3  -4 -10 165936. 3180.58  76
  -3  -4 -10 168767. 2882.20  46
  -3  -4 -10 162668. 2929.61  89
  -3  -4 -10 170253. 3363.40  83
  -3  -4 -10 173613. 3031.33  77
  -3  -4  -9 73904.2 2086.91  40
  -3  -4  -9 67929.5 1885.99  89
  -3  -4  -9 71545.7 2171.98  83
  -3  -4  -9 73638.7 1988.75  77
  -3  -4  -9 69580.0 1990.79  32
  -3  -4  -9 68733.7 2003.49  76
  -3  -4  -9 74330.0 1921.48  46
  -3  -4  -9 67789.9 1950.65  72
  -3  -4  -8 74372.1 2018.13  77
  -3  -4  -8 77877.5 2078.21  40
  -3  -4  -8 76067.1 1946.59  14
  -3  -4  -8 74180.2 2030.19  76
  -3  -4  -8 72569.5 2010.29  32
  -3  -4  -8 71828.5 1906.07  93
  -3  -4  -8 77444.5 2015.64  89
  -3  -4  -8 76105.9 2068.81  72
  -3  -4  -8 78819.8 2228.43  83
  -3  -4  -8 79800.3 1998.59  46
  -3  -4  -7 39378.0 1354.87  76
  -3  -4  -7 40092.1 1363.95  32
  -3  -4  -7 38000.1 1239.61  74
  -3  -4  -7 39954.9 1352.49  89
  -3  -4  -7 40040.2 1409.54  60
  -3  -4  -7 40779.3 1318.68  14
  -3  -4  -7 39676.5 1381.37  77
  -3  -4  -7 41075.0 1341.24  46
  -3  -4  -7 36853.7 1399.72  83
  -3  -4  -7 44823.6 1474.33  72
  -3  -4  -6 96955.5 1985.51  14
  -3  -4  -6 93587.2 2083.92  72
  -3  -4  -6 93334.1 2136.99  60
  -3  -4  -6 94090.3 2057.84  29
  -3  -4  -6 89069.6 1934.54  74
  -3  -4  -6 93109.4 1852.13   3
  -3  -4  -5 234863. 3575.89  60
  -3  -4  -5 250423. 3483.02  29
  -3  -4  -5 252773. 3369.61   3
  -3  -4  -5 226683. 3407.12  74
  -3  -4  -5 260979. 3588.80  72
  -3  -4  -4 239668. 2992.10  70
  -3  -4  -4 238201. 3310.87  60
  -3  -4  -4 224066. 3090.58  29
  -3  -4  -4 244888. 3045.38  18
  -3  -4  -4 238012. 3170.33   3
  -3  -4  -4 203218. 3139.01  31
  -3  -4  -4 200624. 3116.48  74
  -3  -4  -4 236754. 3254.72  72
  -3  -4  -3 76471.1 1429.41  70
  -3  -4  -3 75067.2 1606.42  24
  -3  -4  -3 75195.1 1529.11  60
  -3  -4  -3 79706.9 1563.81   3
  -3  -4  -3 76208.1 1449.66  18
  -3  -4  -3 71163.1 1543.98  72
  -3  -4  -2 147436. 2308.90  24
  -3  -4  -2 142018. 2079.02  60
  -3  -4  -2 154485. 1990.80   5
  -3  -4  -2 153690. 2288.49   3
  -3  -4  -2 148046. 2300.18  72
  -3  -4  -1 405048. 4375.78  15
  -3  -4  -1 436638. 4205.40   5
  -3  -4  -1 434272. 4658.81   3
  -3  -4  -1 409138. 4145.51  60
  -3  -4  -1 426992. 4698.20  72
  -3  -4   0 353496. 3629.96   5
  -3  -4   0 354612. 3975.22   3
  -3  -4   1 485164. 5647.50   7
  -3  -4   1 481953. 5591.12  63
  -3  -4   1 472740. 5117.15   3
  -3  -4   1 473142. 5576.49  10
  -3  -4   2 233390. 3404.19  63
  -3  -4   2 223605. 3354.45  10
  -3  -4   2 234457. 3451.52   7
  -3  -4   2 227534. 2918.48   3
  -3  -4   3 83818.1 1919.49  63
  -3  -4   3 78996.3 1817.75  10
  -3  -4   3 79675.1 1806.20   9
  -3  -4   3 81805.9 1933.16   7
  -3  -4   4 53347.5 1432.03  65
  -3  -4   4 46470.0 1475.50  63
  -3  -4   4 48706.4 1525.39   7
  -3  -4   4 50598.8 1466.79   9
  -3  -4   5 120156. 2408.24  65
  -3  -4   5 123073. 2474.55   9
  -3  -4   6 158765. 3448.64  11
  -3  -4   7 100740. 2746.55  11
  -3  -3 -12 94679.7 1619.73  40
  -3  -3 -11 14824.6 758.006  40
  -3  -3 -11 14128.5 743.686  76
  -3  -3 -11 13757.0 686.683  91
  -3  -3 -11 13672.4 605.440  89
  -3  -3 -10 42797.4 1362.58  89
  -3  -3 -10 44624.5 1536.95  40
  -3  -3 -10 44452.5 1509.78  91
  -3  -3 -10 38935.3 1373.14  72
  -3  -3 -10 41915.7 1324.35  77
  -3  -3 -10 41975.5 1320.54  46
  -3  -3 -10 41761.2 1491.22  76
  -3  -3  -9 129130. 2805.40  72
  -3  -3  -9 136535. 3080.25  83
  -3  -3  -9 139119. 2987.51  40
  -3  -3  -9 136606. 2754.59  77
  -3  -3  -9 135836. 2770.37  89
  -3  -3  -9 136467. 2944.47  76
  -3  -3  -9 130145. 2683.68  46
  -3  -3  -8 141992. 2973.62  40
  -3  -3  -8 139268. 2836.66  14
  -3  -3  -8 141442. 2923.82  76
  -3  -3  -8 141370. 2603.18  21
  -3  -3  -8 137132. 2778.24  89
  -3  -3  -8 140733. 3073.11  83
  -3  -3  -8 135199. 2856.68  32
  -3  -3  -8 147256. 2869.90  77
  -3  -3  -8 143565. 2815.25  46
  -3  -3  -8 135253. 2869.50  72
  -3  -3  -7 106334. 2319.53  14
  -3  -3  -7 104180. 2296.83  76
  -3  -3  -7 107039. 2283.55  46
  -3  -3  -7 101159. 2408.78  83
  -3  -3  -7 108041. 2306.40  89
  -3  -3  -7 105114. 2094.78  21
  -3  -3  -7 107590. 2315.79  77
  -3  -3  -7 110421. 2413.03  72
  -3  -3  -7 108647. 2178.00  74
  -3  -3  -7 108572. 2351.34  60
  -3  -3  -7 106556. 2315.28  32
  -3  -3  -6 17041.2 808.406  14
  -3  -3  -6 19648.1 767.271  21
  -3  -3  -6 21098.5 928.839  60
  -3  -3  -6 19147.2 823.057  74
  -3  -3  -6 22168.3 952.185  72
  -3  -3  -5 63525.0 1325.77   3
  -3  -3  -5 64373.8 1497.84  29
  -3  -3  -5 65840.6 1509.18  74
  -3  -3  -5 62297.9 1574.17  60
  -3  -3  -5 65757.3 1570.83  72
  -3  -3  -4 416572. 4090.72  25
  -3  -3  -4 398147. 4347.46   3
  -3  -3  -4 386771. 4610.07  60
  -3  -3  -4 391200. 4421.16  29
  -3  -3  -4 393723. 4617.30  72
  -3  -3  -4 371504. 4472.80  74
  -3  -3  -3 826345. 7342.99  70
  -3  -3  -3 808831. 7345.59  18
  -3  -3  -2 435537. 4372.82  24
  -3  -3  -2 405834. 4196.61   5
  -3  -3  -2 367739. 3960.75   9
  -3  -3  -2 425259. 4330.52   3
  -3  -3  -2 381629. 4353.06  72
  -3  -3  -1 348413. 3778.69  15
  -3  -3  -1 349147. 3516.41  60
  -3  -3   0 75261.8 1304.78   5
  -3  -3   0 72746.6 997.040  60
  -3  -3   0 74424.3 1371.82  15
  -3  -3   1 183761. 2606.17  10
  -3  -3   1 189952. 2408.20  23
  -3  -3   1 187768. 2572.36  15
  -3  -3   2 247891. 3274.87   7
  -3  -3   2 264678. 3316.41  10
  -3  -3   2 259281. 3310.91   9
  -3  -3   2 257212. 3268.15  63
  -3  -3   2 252312. 3331.60   2
  -3  -3   3 299696. 3748.73  65
  -3  -3   3 326642. 3997.24   9
  -3  -3   3 327469. 3956.81   7
  -3  -3   3 326534. 3907.54  63
  -3  -3   3 304106. 3798.37  68
  -3  -3   3 319778. 3841.75  10
  -3  -3   3 298762. 4091.56   2
  -3  -3   4 54838.8 1374.67  65
  -3  -3   4 55729.3 1430.24   9
  -3  -3   4 52326.2 1433.75  68
  -3  -3   5 21584.1 1005.42  68
  -3  -3   5 18847.6 852.277   9
  -3  -3   5 21003.4 894.026  65
  -3  -3   6 87315.7 2393.19  11
  -3  -3   6 83332.6 2252.82  68
  -3  -3   7 190256. 3923.97  11
  -3  -3   7 200169. 3798.45  27
  -3  -3   8 155756. 3388.34  68
  -3  -3   8 174468. 3444.83  27
  -3  -2 -12 82166.2 1372.04  40
  -3  -2 -11 79104.8 1786.96  40
  -3  -2 -11 75716.4 1676.61  91
  -3  -2 -10 24550.8 1108.12  40
  -3  -2 -10 23415.6 969.708  89
  -3  -2 -10 22224.0 1072.78  76
  -3  -2 -10 24176.3 1088.78  91
  -3  -2  -9 38717.9 1501.26  40
  -3  -2  -9 37528.7 1375.13  89
  -3  -2  -9 37321.5 1474.35  76
  -3  -2  -9 34409.6 1279.49  21
  -3  -2  -9 36121.9 1388.85  72
  -3  -2  -9 40476.8 1548.62  91
  -3  -2  -9 37386.5 1316.05  77
  -3  -2  -9 35797.7 1334.28  46
  -3  -2  -8 117919. 2666.57  14
  -3  -2  -8 120288. 2728.73  76
  -3  -2  -8 120478. 2529.67  21
  -3  -2  -8 124209. 2645.95  46
  -3  -2  -8 125231. 2739.79  72
  -3  -2  -8 120935. 2633.44  89
  -3  -2  -8 124111. 2785.40  40
  -3  -2  -8 122319. 2828.85  83
  -3  -2  -8 129196. 2631.84  77
  -3  -2  -7 152639. 2939.99  40
  -3  -2  -7 154613. 2860.46  89
  -3  -2  -7 150802. 2920.42  14
  -3  -2  -7 150172. 2773.56  60
  -3  -2  -7 148207. 3000.45  83
  -3  -2  -7 148605. 2851.84  32
  -3  -2  -7 154106. 2811.67  77
  -3  -2  -7 144482. 2857.77  76
  -3  -2  -7 149251. 2686.93  74
  -3  -2  -7 152497. 2838.59  46
  -3  -2  -7 149565. 2909.65  72
  -3  -2  -6 259777. 3895.85  14
  -3  -2  -6 278062. 3769.28  21
  -3  -2  -6 274123. 3980.14  72
  -3  -2  -6 276721. 3812.78  74
  -3  -2  -6 265183. 3890.17  59
  -3  -2  -6 286332. 3954.23  60
  -3  -2  -5 215346. 3135.40  59
  -3  -2  -5 227421. 3245.86  60
  -3  -2  -5 225030. 3168.89  74
  -3  -2  -5 217025. 3232.47  72
  -3  -2  -5 231281. 3054.82  25
  -3  -2  -4 125948. 2098.63  60
  -3  -2  -4 122652. 1989.15  59
  -3  -2  -4 121081. 1762.97   3
  -3  -2  -4 119355. 2058.16  72
  -3  -2  -3 634225. 6379.38  59
  -3  -2  -3 659194. 6657.86  72
  -3  -2  -2 282978. 3123.82  60
  -3  -2  -2 278683. 2872.50  59
  -3  -2  -1 299059. 3231.41   9
  -3  -2  -1 320884. 3464.82  15
  -3  -2  -1 299822. 3395.11   5
  -3  -2  -1 313542. 2896.88  59
  -3  -2  -1 315621. 3432.37  72
  -3  -2   0 265286. 3057.92   5
  -3  -2   0 254594. 2646.02  60
  -3  -2   0 253639. 2943.38   9
  -3  -2   0 270540. 2342.37  59
  -3  -2   0 278849. 3108.75  15
  -3  -2   1 102210. 1645.79   9
  -3  -2   1 102727. 1218.53  60
  -3  -2   1 105407. 1105.80  59
  -3  -2   1 102476. 1706.72  15
  -3  -2   2 51921.0 1074.82  65
  -3  -2   2 52479.1 1165.48   9
  -3  -2   2 51505.3 1263.60   2
  -3  -2   3 171119. 2410.20  65
  -3  -2   3 174878. 2525.02  68
  -3  -2   3 166662. 2489.74   9
  -3  -2   3 167599. 2215.17   7
  -3  -2   3 174814. 2212.54  63
  -3  -2   4 318987. 3747.44  22
  -3  -2   4 308184. 4097.82  68
  -3  -2   4 304294. 3891.84   9
  -3  -2   4 309589. 3843.61  65
  -3  -2   4 315827. 3744.14  71
  -3  -2   5 75004.9 1915.88  68
  -3  -2   5 71447.0 1666.75  22
  -3  -2   5 74380.4 1736.82  65
  -3  -2   5 71557.2 1673.72  71
  -3  -2   6 151829. 2841.81  71
  -3  -2   6 152008. 3136.76  11
  -3  -2   6 151381. 3121.34  68
  -3  -2   6 151143. 2821.22  22
  -3  -2   7 129338. 3087.67  11
  -3  -2   7 125547. 2927.43  27
  -3  -2   7 121883. 2954.42  68
  -3  -2   7 126630. 2743.10  22
  -3  -2   7 125399. 2739.37  71
  -3  -2   8 245566. 4628.39  11
  -3  -2   8 247761. 4437.14  27
  -3  -2   9 128817. 3169.84  23
  -3  -2   9 126548. 3008.25  68
  -3  -2   9 133180. 2950.09  27
  -3  -1 -11 79932.5 1674.27  40
  -3  -1 -11 78570.9 1608.60  91
  -3  -1 -10 80322.3 2009.27  40
  -3  -1 -10 81571.3 2023.42  91
  -3  -1 -10 77443.3 1773.86  89
  -3  -1  -9 21638.6 1105.37  40
  -3  -1  -9 21156.0 1112.65  91
  -3  -1  -9 21862.1 1020.71  72
  -3  -1  -9 20670.6 1013.74  21
  -3  -1  -9 19979.5 1070.81  76
  -3  -1  -9 20142.9 993.277  89
  -3  -1  -8 244792. 3999.25  89
  -3  -1  -8 226735. 3870.34  21
  -3  -1  -8 232520. 4207.54  91
  -3  -1  -8 251668. 4194.93  40
  -3  -1  -8 242319. 3977.87  72
  -3  -1  -8 235252. 3766.23  77
  -3  -1  -8 244395. 4173.86  76
  -3  -1  -8 228631. 3916.30  46
  -3  -1  -7 125215. 2690.48  59
  -3  -1  -7 123805. 2573.53  21
  -3  -1  -7 129532. 2663.56  89
  -3  -1  -7 115990. 2645.23  83
  -3  -1  -7 119155. 2478.17  77
  -3  -1  -7 122573. 2675.56  76
  -3  -1  -7 131202. 2555.90  74
  -3  -1  -7 124873. 2635.53  46
  -3  -1  -7 128867. 2474.70  60
  -3  -1  -7 133496. 2773.20  14
  -3  -1  -7 133185. 2704.64  72
  -3  -1  -7 126147. 2711.18  40
  -3  -1  -6 411393. 5329.36  14
  -3  -1  -6 409706. 5165.95  21
  -3  -1  -6 408194. 5048.77  60
  -3  -1  -6 421511. 5303.95  72
  -3  -1  -6 412824. 5284.28  59
  -3  -1  -5 254065. 3452.63  25
  -3  -1  -5 237367. 3507.04  59
  -3  -1  -5 249268. 3457.57  60
  -3  -1  -5 255488. 3623.45  14
  -3  -1  -5 240436. 3481.15  74
  -3  -1  -5 260326. 3583.22  72
  -3  -1  -4 72808.3 1481.43  25
  -3  -1  -4 69462.0 1502.68  59
  -3  -1  -4 69373.3 1498.03  74
  -3  -1  -4 73633.8 1532.51  72
  -3  -1  -3 236214. 2920.15  25
  -3  -1  -3 224951. 2934.25  60
  -3  -1  -3 251559. 2858.68  68
  -3  -1  -3 241185. 2961.11  72
  -3  -1  -3 239530. 2947.59  59
  -3  -1  -2 389927. 4185.84   5
  -3  -1  -2 379536. 4024.77  72
  -3  -1  -1 246925. 2957.20   5
  -3  -1  -1 241467. 2507.24  65
  -3  -1   0 41330.4 961.929   5
  -3  -1   0 39959.9 775.927  65
  -3  -1   0 42426.9 798.000  60
  -3  -1   1 348222. 3785.75  23
  -3  -1   1 362591. 3817.95  15
  -3  -1   2 7364.78 398.579  68
  -3  -1   2 7417.28 311.942  60
  -3  -1   2 6691.23 326.634  58
  -3  -1   2 6917.87 440.316   2
  -3  -1   3 291647. 3086.12  60
  -3  -1   3 302519. 3736.31  68
  -3  -1   3 290847. 3357.52  58
  -3  -1   3 308825. 3600.92  65
  -3  -1   4 499594. 5370.70  22
  -3  -1   4 492758. 5376.39  71
  -3  -1   4 507342. 5287.83  58
  -3  -1   4 484519. 5445.08  65
  -3  -1   4 511148. 5788.53  68
  -3  -1   4 482926. 5994.58   2
  -3  -1   5 291245. 4208.85  68
  -3  -1   5 268654. 4312.97   2
  -3  -1   5 261770. 3751.84  65
  -3  -1   5 278866. 3821.44  22
  -3  -1   5 278739. 3840.30  71
  -3  -1   6 180887. 3450.89  68
  -3  -1   6 173418. 3306.63  11
  -3  -1   6 175126. 3594.34   2
  -3  -1   6 187145. 3220.40  22
  -3  -1   6 184499. 3220.14  71
  -3  -1   7 69751.2 2151.40  11
  -3  -1   7 69407.8 2174.23  68
  -3  -1   7 67655.3 2273.01   2
  -3  -1   7 68750.8 2074.40  27
  -3  -1   7 67350.9 1978.16  71
  -3  -1   8 132562. 3244.59  11
  -3  -1   8 129694. 2964.38  71
  -3  -1   8 139664. 3205.64  27
  -3  -1   8 137139. 3272.16  68
  -3  -1   9 180167. 3811.01  68
  -3  -1   9 187413. 3954.91  23
  -3  -1   9 186608. 3752.76  27
  -3  -1   9 184186. 3519.14  71
  -3  -1  11 29793.1 956.250  47
  -3   0 -11 73550.7 1361.34  40
  -3   0 -11 74643.7 1379.56  91
  -3   0 -11 72668.8 1363.81  56
  -3   0 -10 152058. 2704.36  40
  -3   0 -10 150826. 2749.32  91
  -3   0  -9 103530. 2424.05  40
  -3   0  -9 100345. 2267.82  89
  -3   0  -9 101912. 2509.16  91
  -3   0  -8 100609. 2500.47  40
  -3   0  -8 92922.8 2346.35  21
  -3   0  -8 98652.0 2415.64  89
  -3   0  -8 99096.4 2537.05  76
  -3   0  -7 127054. 2750.41  40
  -3   0  -7 124904. 2611.81  74
  -3   0  -7 118198. 2716.83  76
  -3   0  -7 120229. 2729.25  14
  -3   0  -7 126558. 2590.77  72
  -3   0  -7 114138. 2310.28  51
  -3   0  -7 123943. 2509.25  77
  -3   0  -7 129366. 2939.78  91
  -3   0  -7 124249. 2704.86  89
  -3   0  -7 119722. 2628.72  21
  -3   0  -6 171422. 3170.37  14
  -3   0  -6 170364. 3066.92  21
  -3   0  -6 172265. 2840.89  60
  -3   0  -6 175112. 3119.77  74
  -3   0  -6 162277. 3083.54  59
  -3   0  -6 181478. 3074.36  72
  -3   0  -5 449773. 5440.68  25
  -3   0  -5 451546. 5566.94  14
  -3   0  -5 436588. 5195.73  60
  -3   0  -5 449148. 5512.00  74
  -3   0  -4 175188. 2687.11  25
  -3   0  -4 169528. 2700.80  59
  -3   0  -4 171231. 2729.76  74
  -3   0  -4 167280. 2561.32  60
  -3   0  -3 6328.87 403.904  59
  -3   0  -3 6482.15 377.072  72
  -3   0  -3 5713.34 365.167  60
  -3   0  -3 5778.56 385.885  25
  -3   0  -2 74989.5 1331.50  68
  -3   0  -2 74393.3 1339.63  60
  -3   0  -2 75432.4 1369.73  59
  -3   0  -1 141780. 1880.60  68
  -3   0  -1 140932. 1875.40  59
  -3   0  -1 139569. 1885.82  60
  -3   0   0 173194. 2343.49   5
  -3   0   0 172426. 2141.33  60
  -3   0   1 999999. 9071.11  68
  -3   0   2 148563. 2251.12  23
  -3   0   2 145531. 2164.61  68
  -3   0   2 139449. 2031.92  58
  -3   0   2 141286. 1880.12  60
  -3   0   2 148645. 2304.06   2
  -3   0   3 173741. 2714.00  23
  -3   0   3 187205. 2737.08  68
  -3   0   3 189699. 2466.11  71
  -3   0   3 179544. 2307.58  60
  -3   0   3 179589. 2533.55  58
  -3   0   3 174787. 2811.02   2
  -3   0   4 189351. 3027.43  23
  -3   0   4 181596. 2951.59  68
  -3   0   4 185438. 2725.53  71
  -3   0   4 189629. 3145.12   2
  -3   0   5 435369. 5710.98   2
  -3   0   5 423545. 5490.61  68
  -3   0   5 429411. 5211.33  71
  -3   0   6 352287. 4900.82  11
  -3   0   6 344116. 5060.40  68
  -3   0   6 340011. 5231.95   2
  -3   0   6 338730. 4808.40  27
  -3   0   6 312312. 4476.60  58
  -3   0   6 314989. 4667.44  71
  -3   0   7 145808. 3153.74  11
  -3   0   7 142905. 3108.92  27
  -3   0   7 142098. 3040.83  71
  -3   0   7 144586. 3362.54   2
  -3   0   7 143856. 3226.56  68
  -3   0   8 40108.0 1710.51  23
  -3   0   8 36917.6 1650.45  68
  -3   0   8 36354.9 1597.70  11
  -3   0   8 35830.3 1517.60  71
  -3   0   9 45893.7 1833.39  23
  -3   0   9 44245.4 1806.72  68
  -3   0   9 48479.6 1844.39  27
  -3   0   9 43791.6 1658.73  71
  -3   0  10 175614. 3499.25  27
  -3   0  10 185747. 3173.56  45
  -3   0  11 51591.1 1482.01  47
  -3   1 -10 74959.1 1555.71  40
  -3   1 -10 77027.8 1694.75  91
  -3   1  -9 169352. 3036.83  40
  -3   1  -9 172148. 3226.71  91
  -3   1  -8 92628.6 2128.97  51
  -3   1  -8 95171.4 2364.26  40
  -3   1  -8 100251. 2389.64  89
  -3   1  -8 99354.9 2572.44  91
  -3   1  -7 183371. 3424.70  40
  -3   1  -7 170973. 3099.44  51
  -3   1  -7 167959. 3344.22  89
  -3   1  -7 169581. 3331.52  21
  -3   1  -7 167934. 3235.58  74
  -3   1  -7 190197. 3713.35  91
  -3   1  -6 23662.1 1012.39  51
  -3   1  -6 23212.5 1102.22  59
  -3   1  -6 23907.5 1093.84  40
  -3   1  -6 23288.3 1116.85  14
  -3   1  -6 22580.6 1079.06  21
  -3   1  -6 24051.0 1064.07  37
  -3   1  -6 24918.2 1144.88  89
  -3   1  -6 26518.7 1188.51  74
  -3   1  -5 122262. 2488.24  25
  -3   1  -5 120997. 2513.36  59
  -3   1  -5 119446. 2226.45  60
  -3   1  -5 123332. 2599.09  74
  -3   1  -5 121602. 2536.97  14
  -3   1  -4 171207. 2836.16  25
  -3   1  -4 173737. 2871.29  14
  -3   1  -4 166714. 2837.04  59
  -3   1  -4 166961. 2608.63  60
  -3   1  -4 172178. 2941.66  74
  -3   1  -3 72466.5 1571.12  68
  -3   1  -3 67510.4 1546.12  59
  -3   1  -3 69055.4 1455.34  60
  -3   1  -3 72425.9 1591.05  25
  -3   1  -3 70511.7 1613.11  74
  -3   1  -2 181564. 2604.50  25
  -3   1  -2 188123. 2616.11  68
  -3   1  -2 184143. 2509.45  60
  -3   1  -2 184570. 2592.95  59
  -3   1  -1 227708. 2662.90  71
  -3   1  -1 208736. 2744.76   5
  -3   1  -1 214680. 2775.22  68
  -3   1  -1 211374. 2692.58  60
  -3   1  -1 207080. 2743.93  59
  -3   1  -1 229626. 2679.25  17
  -3   1   0 267809. 3203.67   5
  -3   1   0 259166. 3179.55  68
  -3   1   0 265463. 2982.02  71
  -3   1   0 275811. 3129.30  60
  -3   1   0 277412. 3179.97  59
  -3   1   0 272792. 3028.04  17
  -3   1   1 268576. 3273.15  68
  -3   1   1 280618. 3216.14  59
  -3   1   1 278713. 3056.00  17
  -3   1   1 269954. 3021.00  71
  -3   1   1 274382. 3292.29   5
  -3   1   2 631240. 6281.51  17
  -3   1   2 629586. 6634.14  23
  -3   1   2 648825. 6289.40  71
  -3   1   3 189572. 2577.54  60
  -3   1   3 190443. 2835.36  58
  -3   1   3 191735. 2898.35  23
  -3   1   3 192135. 2919.45  68
  -3   1   3 195287. 2966.16   2
  -3   1   3 188677. 2652.16  71
  -3   1   4 239661. 3661.37  68
  -3   1   4 246551. 3440.32  71
  -3   1   4 242337. 3521.88  58
  -3   1   4 247086. 3244.55  60
  -3   1   4 256671. 3385.32  11
  -3   1   4 259416. 3694.58  23
  -3   1   4 268761. 3831.63   2
  -3   1   5 156654. 3011.04  68
  -3   1   5 166315. 3138.96   2
  -3   1   5 162274. 2886.85  58
  -3   1   5 162441. 2999.16  23
  -3   1   5 163063. 2874.84  71
  -3   1   5 167824. 2904.59  27
  -3   1   6 162779. 3207.11  23
  -3   1   6 162550. 3275.14  68
  -3   1   6 169744. 3134.49  11
  -3   1   6 165088. 3077.03  58
  -3   1   6 167667. 3411.62   2
  -3   1   6 162691. 3113.39  27
  -3   1   6 160955. 3091.42  71
  -3   1   7 211359. 3949.74  23
  -3   1   7 198049. 3750.29  11
  -3   1   7 198055. 3325.11  92
  -3   1   7 195065. 3595.45  58
  -3   1   7 219833. 4161.33   2
  -3   1   7 205918. 3797.80  71
  -3   1   7 197070. 3925.17  68
  -3   1   7 201318. 3770.94  27
  -3   1   8 57098.0 2018.95  23
  -3   1   8 59481.5 2105.44  68
  -3   1   8 52524.4 1620.73  92
  -3   1   8 55726.7 1719.96  35
  -3   1   8 60514.3 2036.07  27
  -3   1   8 55268.3 1920.40  71
  -3   1   9 30049.8 1485.00  68
  -3   1   9 31085.9 1468.22  23
  -3   1   9 31880.8 1485.59  27
  -3   1   9 29045.0 1367.58  71
  -3   1  10 128387. 2963.69  27
  -3   1  10 129360. 2742.69  45
  -3   1  11 92030.9 2141.87  47
  -3   1  11 92059.0 1917.41  45
  -3   1  12 89755.7 1697.78  36
  -3   1  12 89626.1 1614.89  47
  -3   2 -10 65121.8 1277.95  91
  -3   2 -10 67075.4 1290.66  56
  -3   2  -9 73541.2 1626.95  40
  -3   2  -9 74909.2 1829.59  56
  -3   2  -9 75023.0 1829.96  91
  -3   2  -8 116975. 2491.86  40
  -3   2  -8 120373. 2736.95  91
  -3   2  -7 49516.6 1651.55  40
  -3   2  -7 45142.2 1616.51  21
  -3   2  -7 49276.4 1704.93  89
  -3   2  -7 53165.5 1867.22  91
  -3   2  -7 48987.5 1593.37  51
  -3   2  -6 32243.3 1420.07  91
  -3   2  -6 33119.2 1324.21  40
  -3   2  -6 31233.3 1306.04  37
  -3   2  -6 30409.5 1313.78  21
  -3   2  -6 32407.9 1279.42  51
  -3   2  -6 34468.8 1419.50  89
  -3   2  -6 32986.8 1400.18  74
  -3   2  -5 54867.0 1671.15  14
  -3   2  -5 52739.3 1679.41  21
  -3   2  -5 50875.6 1703.08  91
  -3   2  -5 54222.0 1628.13  40
  -3   2  -5 54308.3 1784.80  74
  -3   2  -5 52019.4 1702.34  37
  -3   2  -5 48573.6 1601.55  59
  -3   2  -5 53305.0 1590.55  51
  -3   2  -5 52189.7 1690.43  89
  -3   2  -5 51270.6 1643.27  86
  -3   2  -4 210270. 3434.48  25
  -3   2  -4 204913. 3062.54  60
  -3   2  -4 201224. 3385.23  59
  -3   2  -4 204270. 3600.77  74
  -3   2  -3 354125. 4557.17  25
  -3   2  -3 352162. 4400.70  14
  -3   2  -3 350932. 4523.13  68
  -3   2  -3 338774. 4467.67  59
  -3   2  -3 338896. 4181.93  60
  -3   2  -3 325677. 4600.48  74
  -3   2  -2 136386. 2334.58  25
  -3   2  -2 134041. 2307.17  68
  -3   2  -2 127966. 2133.73  60
  -3   2  -2 128141. 2269.60  59
  -3   2  -2 131831. 2363.01  74
  -3   2  -1 257610. 3222.17  71
  -3   2  -1 230553. 3235.57  68
  -3   2  -1 242598. 3080.26   5
  -3   2  -1 244428. 3270.13  59
  -3   2  -1 257277. 3237.06  17
  -3   2  -1 240916. 3115.51  60
  -3   2  -1 244580. 3241.69  74
  -3   2   0 182042. 2540.10  60
  -3   2   0 188490. 2647.56  59
  -3   2   0 179464. 2461.94   5
  -3   2   0 185698. 2571.43  17
  -3   2   0 185146. 2692.89  68
  -3   2   0 188211. 2557.63  71
  -3   2   1 275597. 3363.30   5
  -3   2   1 278741. 3569.76  68
  -3   2   1 285099. 3420.01  60
  -3   2   1 273466. 3474.08  59
  -3   2   1 295125. 3452.03  71
  -3   2   1 290080. 3448.30  17
  -3   2   2 487330. 5441.86  68
  -3   2   2 482697. 5235.19   5
  -3   2   2 495303. 5352.12  59
  -3   2   2 475986. 5456.81  58
  -3   2   2 483422. 5185.71  60
  -3   2   2 483531. 5244.36  17
  -3   2   2 485615. 5216.66  71
  -3   2   3 230129. 3385.11  68
  -3   2   3 221001. 3154.96  17
  -3   2   3 230585. 3365.94  58
  -3   2   3 217035. 3062.72  60
  -3   2   3 237604. 3120.32  27
  -3   2   3 234069. 3200.51  71
  -3   2   4 172427. 3020.45  68
  -3   2   4 172785. 2902.60  23
  -3   2   4 174059. 2986.79  58
  -3   2   4 167472. 2829.70  71
  -3   2   4 164144. 2679.97  60
  -3   2   4 171757. 2820.15  27
  -3   2   4 179277. 2988.82   2
  -3   2   5 47883.0 1596.50  68
  -3   2   5 45693.9 1481.05  23
  -3   2   5 50328.1 1577.92  58
  -3   2   5 53237.2 1645.92   2
  -3   2   5 54146.7 1600.99  27
  -3   2   5 52065.3 1565.29  71
  -3   2   6 90241.0 2268.02  23
  -3   2   6 90536.5 2290.54  71
  -3   2   6 88747.1 2288.13  58
  -3   2   6 91893.9 2390.29   2
  -3   2   6 90649.7 2414.65  68
  -3   2   6 95078.8 2351.26  27
  -3   2   7 257314. 4514.73   2
  -3   2   7 235582. 3866.42  92
  -3   2   7 241690. 4232.76  58
  -3   2   7 238234. 4005.02  35
  -3   2   7 242283. 4221.55  23
  -3   2   7 251104. 4337.11  27
  -3   2   7 247418. 4301.93  71
  -3   2   7 242199. 4436.01  68
  -3   2   8 181020. 3406.20  35
  -3   2   8 182358. 3879.53  68
  -3   2   8 178220. 3338.64  92
  -3   2   8 186747. 3716.64  23
  -3   2   8 179977. 3704.03  71
  -3   2   8 193944. 3880.85  27
  -3   2   9 51075.4 1638.48  92
  -3   2   9 52273.4 1961.40  68
  -3   2   9 52519.0 1838.97  23
  -3   2   9 49558.9 1585.01  35
  -3   2   9 56127.8 1990.12  27
  -3   2   9 49791.7 1817.48  71
  -3   2  10 32350.2 1437.19  68
  -3   2  10 35705.3 1493.61  27
  -3   2  11 118825. 2481.60  47
  -3   2  11 114322. 2312.30  45
  -3   2  12 79265.2 1602.50  82
  -3   2  12 76645.9 1542.38  47
  -3   2  12 77342.3 1506.42  36
  -3   3  -9 10420.1 530.456  56
  -3   3  -9 10090.1 522.433  91
  -3   3  -8 66680.9 1793.10  56
  -3   3  -8 65604.2 1781.55  91
  -3   3  -7 102506. 2276.10  40
  -3   3  -7 97941.0 2475.17  56
  -3   3  -7 97839.0 2479.29  91
  -3   3  -6 89640.0 2345.29  37
  -3   3  -6 91217.6 2293.34  51
  -3   3  -6 96654.3 2540.02  91
  -3   3  -6 93772.0 2283.24  40
  -3   3  -5 78929.7 2095.15  51
  -3   3  -5 78610.3 2085.20  40
  -3   3  -5 77030.0 2146.24  21
  -3   3  -5 76536.4 2249.14  37
  -3   3  -5 81859.7 2231.56  86
  -3   3  -5 84836.1 2309.96  91
  -3   3  -5 79606.2 2300.04  74
  -3   3  -4 60941.3 1732.61  40
  -3   3  -4 60719.4 1952.82  37
  -3   3  -4 62466.7 1829.85  21
  -3   3  -4 63723.3 1846.27  91
  -3   3  -4 60722.7 1892.71  86
  -3   3  -4 59730.5 1725.83  51
  -3   3  -4 59436.7 1770.84  59
  -3   3  -4 60570.0 1777.14  81
  -3   3  -4 58742.8 1913.21  74
  -3   3  -4 61438.8 1657.06  80
  -3   3  -3 303637. 4383.33  59
  -3   3  -3 289455. 4577.19  74
  -3   3  -2 251170. 3722.89  68
  -3   3  -2 248796. 3686.13  25
  -3   3  -2 240360. 3668.87  59
  -3   3  -2 250892. 3443.02  60
  -3   3  -2 246137. 3845.10  74
  -3   3  -1 336361. 4333.15  71
  -3   3  -1 349332. 4391.04  25
  -3   3  -1 333389. 4408.31  68
  -3   3  -1 350112. 4240.55  60
  -3   3  -1 330978. 4353.57  59
  -3   3  -1 347247. 4477.15  74
  -3   3   0 110816. 2058.32  71
  -3   3   0 110670. 2121.39  68
  -3   3   0 108376. 2009.29  74
  -3   3   0 110131. 2076.46  17
  -3   3   0 108679. 1987.24  60
  -3   3   0 105991. 2063.87  59
  -3   3   1 158607. 2635.19  68
  -3   3   1 154236. 2465.33  60
  -3   3   1 161356. 2581.07  59
  -3   3   1 154968. 2552.81  17
  -3   3   1 153615. 2511.25  71
  -3   3   2 109704. 2098.52  17
  -3   3   2 113581. 2188.11  68
  -3   3   2 108211. 2014.38  60
  -3   3   2 104928. 2067.73  59
  -3   3   2 110532. 2084.83  71
  -3   3   3 212780. 3349.06  68
  -3   3   3 216974. 3295.90  17
  -3   3   3 219234. 3025.13   5
  -3   3   3 215618. 3251.78  71
  -3   3   3 207946. 3228.87  59
  -3   3   3 209930. 3124.23  60
  -3   3   4 252257. 3988.50  68
  -3   3   4 266790. 3784.11  60
  -3   3   4 268035. 4127.30  58
  -3   3   4 252283. 3890.78  17
  -3   3   4 257074. 3891.69  71
  -3   3   5 101490. 2357.83  71
  -3   3   5 101721. 2446.30  68
  -3   3   5 101627. 2240.52  23
  -3   3   5 100675. 2438.74  58
  -3   3   5 100777. 2365.34  17
  -3   3   5 96640.6 2241.64   2
  -3   3   6 74595.0 1990.41  23
  -3   3   6 74313.0 2080.77   2
  -3   3   6 77381.0 2214.00  58
  -3   3   6 71357.6 2138.40  68
  -3   3   6 77551.1 2152.62  27
  -3   3   6 75963.2 2131.62  71
  -3   3   7 73813.3 2289.05  68
  -3   3   7 78674.8 2180.73  35
  -3   3   7 77811.1 2129.54  92
  -3   3   7 76729.6 1953.34  94
  -3   3   7 81475.3 2299.92   2
  -3   3   7 82347.1 2358.57  27
  -3   3   7 79209.5 2298.77  71
  -3   3   8 262482. 4741.19  68
  -3   3   8 261748. 4332.01  35
  -3   3   8 249185. 4248.55  92
  -3   3   8 278660. 4782.18  27
  -3   3   8 272000. 4698.54  71
  -3   3   9 120089. 3011.78  68
  -3   3   9 141936. 3214.77  27
  -3   3   9 121282. 2656.70  35
  -3   3   9 129856. 2812.42  92
  -3   3   9 138580. 3052.27  45
  -3   3   9 125905. 3004.27  71
  -3   3  10 60453.0 1708.29  92
  -3   3  10 63793.8 1960.07  27
  -3   3  10 61411.4 1871.33  45
  -3   3  11 56468.3 1491.92  36
  -3   3  11 56345.0 1590.39  47
  -3   3  11 57116.5 1570.66  45
  -3   3  12 51255.2 1230.98  82
  -3   3  12 49580.0 1168.71  47
  -3   4  -8 18783.8 750.832  91
  -3   4  -8 19006.7 752.585  56
  -3   4  -7 111083. 2392.96  91
  -3   4  -7 114253. 2420.57  56
  -3   4  -6 106090. 2553.76  56
  -3   4  -6 105076. 2542.32  91
  -3   4  -5 186675. 3432.38  21
  -3   4  -5 196223. 3686.85  56
  -3   4  -5 189520. 3657.65  91
  -3   4  -4 62326.7 2042.37  86
  -3   4  -4 68904.6 1956.06  21
  -3   4  -4 65715.2 2174.50  37
  -3   4  -4 68273.6 2007.35  91
  -3   4  -4 67779.8 1989.28  56
  -3   4  -4 61486.1 1825.48  52
  -3   4  -4 69300.7 1917.70  80
  -3   4  -3 102241. 2334.57  91
  -3   4  -3 102539. 2349.97  21
  -3   4  -3 90506.9 2527.16  37
  -3   4  -3 100888. 2315.88  56
  -3   4  -3 95104.0 2354.42  80
  -3   4  -3 91982.4 2380.19  52
  -3   4  -3 89991.8 2289.26  95
  -3   4  -3 92922.4 2473.89  86
  -3   4  -2 214002. 3512.63  25
  -3   4  -2 199560. 3692.67  86
  -3   4  -2 207980. 3553.37  68
  -3   4  -2 212612. 3723.20  80
  -3   4  -2 207840. 3804.82  37
  -3   4  -2 207692. 3507.79  59
  -3   4  -2 202146. 3741.56  52
  -3   4  -2 201591. 3703.24  95
  -3   4  -1 250474. 3918.77  68
  -3   4  -1 271001. 3886.81  25
  -3   4  -1 249074. 3865.58  59
  -3   4  -1 264288. 3707.10  60
  -3   4   0 167939. 2989.39  68
  -3   4   0 177156. 2875.88  60
  -3   4   0 176983. 3015.66  59
  -3   4   0 170215. 2979.18  71
  -3   4   0 171804. 3002.76  17
  -3   4   1 90011.4 2040.56  68
  -3   4   1 87663.2 1916.62  60
  -3   4   1 85145.2 1965.75  59
  -3   4   1 90423.7 2053.49  17
  -3   4   1 90022.9 2036.50  71
  -3   4   2 71584.4 1820.03  68
  -3   4   2 71716.4 1744.02  60
  -3   4   2 72398.1 1805.49  59
  -3   4   2 71930.8 1836.42  17
  -3   4   2 72832.7 1828.70  71
  -3   4   3 53666.8 1597.47  68
  -3   4   3 55723.0 1617.30  59
  -3   4   3 48861.3 1464.90  60
  -3   4   3 52924.4 1583.57  17
  -3   4   3 51614.1 1556.80  71
  -3   4   4 321606. 4491.88  60
  -3   4   4 310206. 4634.39  68
  -3   4   4 317534. 4827.83  58
  -3   4   4 314226. 4606.07  59
  -3   4   4 319877. 4705.32  17
  -3   4   4 323378. 4678.95  71
  -3   4   5 214050. 3784.28  68
  -3   4   5 210055. 3727.17  59
  -3   4   5 210755. 3874.16  58
  -3   4   5 210027. 3763.96  17
  -3   4   5 211351. 3745.47  71
  -3   4   6 147808. 3200.22  17
  -3   4   6 146985. 2732.93  75
  -3   4   6 141908. 3125.25  68
  -3   4   6 142030. 2959.01  94
  -3   4   6 152891. 3215.21  35
  -3   4   6 146842. 3257.76  58
  -3   4   6 142289. 3146.93  71
  -3   4   6 150827. 3105.43  92
  -3   4   7 37049.2 1559.95  68
  -3   4   7 38148.4 1421.09  94
  -3   4   7 38839.9 1520.92  92
  -3   4   7 41172.3 1652.54  17
  -3   4   7 39517.8 1565.63  35
  -3   4   7 41196.4 1621.15  27
  -3   4   7 41081.0 1637.94  71
  -3   4   8 115070. 2760.55  92
  -3   4   8 111356. 2807.12  68
  -3   4   8 112657. 2513.20  94
  -3   4   8 110717. 2688.93  35
  -3   4   8 113015. 2861.58  17
  -3   4   8 114602. 2863.35  71
  -3   4   9 163169. 3380.15  68
  -3   4   9 177502. 3437.56  92
  -3   4   9 172422. 3498.89  71
  -3   4   9 172435. 3520.82  17
  -3   4   9 181775. 3424.26  47
  -3   4   9 192472. 3712.74  27
  -3   4   9 186243. 3544.26  45
  -3   4  10 132826. 2720.61  47
  -3   4  10 134375. 2711.52  92
  -3   4  10 136987. 2819.91  45
  -3   4  11 43508.1 1206.58  92
  -3   4  11 42138.8 1260.58  47
  -3   4  12 22623.8 718.656  43
  -3   5  -7 38156.7 1068.91  91
  -3   5  -7 41297.1 1101.01  56
  -3   5  -6 81241.8 1930.59  91
  -3   5  -6 81265.5 1931.18  56
  -3   5  -5 149720. 2959.19  91
  -3   5  -5 147307. 2951.86  56
  -3   5  -5 144393. 2635.34  80
  -3   5  -4 166472. 3198.93  80
  -3   5  -4 162306. 3203.76  56
  -3   5  -4 166251. 3144.63  52
  -3   5  -4 159751. 3194.66  91
  -3   5  -3 60266.7 1893.67  95
  -3   5  -3 62497.0 1988.46  80
  -3   5  -3 61545.4 2125.69  37
  -3   5  -3 63068.2 1850.52  91
  -3   5  -3 62014.3 1833.60  56
  -3   5  -3 60425.9 1975.59  52
  -3   5  -2 52121.8 1857.82  95
  -3   5  -2 53475.2 1935.20  37
  -3   5  -2 53939.2 1624.97  91
  -3   5  -2 54833.0 1631.92  56
  -3   5  -2 52376.5 1900.50  52
  -3   5  -2 57825.2 1958.94  80
  -3   5  -1 101373. 2379.47  39
  -3   5  -1 109184. 2519.41  68
  -3   5  -1 107945. 2793.80  95
  -3   5  -1 104072. 2563.61  85
  -3   5  -1 115669. 2289.34  56
  -3   5  -1 114659. 2282.33  91
  -3   5  -1 106869. 2810.67  52
  -3   5  -1 107153. 2656.89  37
  -3   5  -1 108557. 2790.53  80
  -3   5   0 106847. 2550.23  39
  -3   5   0 113864. 2533.75  68
  -3   5   0 111435. 2555.06  37
  -3   5   0 118143. 2393.45  60
  -3   5   0 110178. 2445.75  59
  -3   5   0 108908. 2562.27  75
  -3   5   0 110632. 2760.96  95
  -3   5   0 116319. 2852.20  52
  -3   5   0 114779. 2549.35  71
  -3   5   0 114007. 2856.14  80
  -3   5   0 109546. 2690.44  85
  -3   5   1 188375. 3354.10  71
  -3   5   1 189823. 3589.63  39
  -3   5   1 180635. 3284.71  68
  -3   5   1 191309. 3210.18  60
  -3   5   1 179727. 3226.00  59
  -3   5   1 182973. 3612.33  85
  -3   5   1 178806. 3152.19  37
  -3   5   1 171423. 3472.97  52
  -3   5   1 175651. 3447.13  75
  -3   5   1 176400. 3491.99  95
  -3   5   1 186796. 3380.13  17
  -3   5   2 136669. 3044.40  39
  -3   5   2 152368. 2947.52  68
  -3   5   2 148906. 3033.04  95
  -3   5   2 151395. 2868.44  60
  -3   5   2 150674. 3175.19  85
  -3   5   2 153147. 3027.00  52
  -3   5   2 143896. 2853.91  59
  -3   5   2 137761. 3017.42  75
  -3   5   2 147474. 2968.35  17
  -3   5   2 144690. 2929.27  71
  -3   5   3 50369.1 1637.66  68
  -3   5   3 49615.5 1733.10  39
  -3   5   3 48958.7 1577.97  95
  -3   5   3 48672.7 1661.11  94
  -3   5   3 45719.1 1543.65  59
  -3   5   3 49544.6 1698.97  85
  -3   5   3 50189.2 1729.85  34
  -3   5   3 53376.3 1759.11  75
  -3   5   3 47160.9 1633.05  17
  -3   5   3 47519.0 1536.37  60
  -3   5   3 49263.2 1637.43  71
  -3   5   4 128203. 2696.69  92
  -3   5   4 127908. 2760.82  68
  -3   5   4 119277. 2770.59  39
  -3   5   4 125183. 2837.73  94
  -3   5   4 120375. 2781.90  17
  -3   5   4 119207. 2672.84  59
  -3   5   4 120409. 2774.51  71
  -3   5   4 122847. 2703.62  85
  -3   5   4 125326. 2806.50  75
  -3   5   5 176465. 3539.52  17
  -3   5   5 177652. 3438.50  68
  -3   5   5 184471. 3442.90  39
  -3   5   5 185663. 3580.94  94
  -3   5   5 183926. 3502.05  92
  -3   5   5 183610. 3304.83  85
  -3   5   5 174155. 3349.99  75
  -3   5   5 176949. 3528.67  71
  -3   5   6 244850. 4174.66  68
  -3   5   6 237111. 3881.55  39
  -3   5   6 227093. 4154.97  94
  -3   5   6 244391. 4240.51  92
  -3   5   6 233418. 4245.74  71
  -3   5   6 240851. 4330.79  17
  -3   5   6 235046. 3942.80  75
  -3   5   7 114243. 2714.74  68
  -3   5   7 114041. 2725.82  94
  -3   5   7 114263. 2785.56  92
  -3   5   7 112974. 2844.41  17
  -3   5   7 113505. 2830.87  71
  -3   5   8 47170.5 1635.36  68
  -3   5   8 46613.3 1627.26  94
  -3   5   8 52633.3 1823.41  92
  -3   5   8 47721.4 1763.17  17
  -3   5   8 49804.1 1795.40  71
  -3   5   8 52742.9 1744.47  45
  -3   5   9 53290.3 1756.31  17
  -3   5   9 58942.3 1658.81  47
  -3   5   9 60820.3 1881.72  34
  -3   5   9 56165.6 1628.05  94
  -3   5   9 58078.3 1836.32  92
  -3   5   9 55321.2 1733.26  45
  -3   5   9 51265.7 1721.35  71
  -3   5  10 122011. 2527.00  92
  -3   5  10 122518. 2396.38  34
  -3   5  10 122721. 2300.21  47
  -3   5  10 117084. 2420.67  45
  -3   5  11 76616.0 1606.90  92
  -3   5  11 78427.0 1545.92  82
  -3   5  11 75855.5 1472.66  47
  -3   5  11 75313.3 1617.46  45
  -3   6  -6 54410.9 1174.13  91
  -3   6  -6 55150.4 1177.51  56
  -3   6  -5 65352.2 1568.81  56
  -3   6  -5 64240.5 1399.46  80
  -3   6  -5 62652.9 1536.32  91
  -3   6  -4 114297. 2365.19  91
  -3   6  -4 113811. 2383.85  80
  -3   6  -4 112024. 2345.88  56
  -3   6  -3 76056.5 2147.67  80
  -3   6  -3 73259.0 1910.06  56
  -3   6  -3 69260.0 2045.97  52
  -3   6  -3 73071.9 1816.80  55
  -3   6  -3 74385.5 1926.64  91
  -3   6  -2 29861.4 1421.83  80
  -3   6  -2 28690.0 1353.07  95
  -3   6  -2 31114.6 1202.90  56
  -3   6  -2 30070.2 1285.50  55
  -3   6  -2 31001.0 1470.16  52
  -3   6  -2 30156.7 1175.03  91
  -3   6  -1 87804.8 2015.25  56
  -3   6  -1 86268.4 2007.17  91
  -3   6  -1 82613.8 2533.20  80
  -3   6  -1 85466.3 2594.32  52
  -3   6  -1 86083.9 2330.53  85
  -3   6   0 56364.6 1894.35  39
  -3   6   0 59993.2 1825.09  68
  -3   6   0 58528.4 2011.54  85
  -3   6   0 61720.5 2170.50  52
  -3   6   0 60654.2 2163.44  80
  -3   6   0 59811.5 2114.16  95
  -3   6   0 58951.3 1883.79  75
  -3   6   1 175256. 3428.11  71
  -3   6   1 171654. 3623.64  39
  -3   6   1 183259. 3361.66  68
  -3   6   1 174255. 3716.13  95
  -3   6   1 174727. 3474.63  17
  -3   6   1 165679. 3680.52  85
  -3   6   1 182697. 3766.63  52
  -3   6   1 183357. 3890.16  80
  -3   6   1 173360. 3612.25  75
  -3   6   2 160632. 3299.84  71
  -3   6   2 153525. 3516.04  39
  -3   6   2 173417. 3257.00  68
  -3   6   2 165990. 3489.26  95
  -3   6   2 169845. 3468.75  52
  -3   6   2 173964. 3691.05  80
  -3   6   2 164654. 3620.03  85
  -3   6   2 171495. 3640.07  75
  -3   6   2 158679. 3309.65  17
  -3   6   3 128479. 3138.24  39
  -3   6   3 134783. 2827.21  68
  -3   6   3 128576. 3099.27  85
  -3   6   3 135592. 2890.93  52
  -3   6   3 136168. 3102.21  80
  -3   6   3 126177. 2871.01  95
  -3   6   3 134426. 3065.37  94
  -3   6   3 135746. 3027.21  34
  -3   6   3 128218. 2946.42  17
  -3   6   3 134211. 3178.01  75
  -3   6   3 128202. 2913.14  71
  -3   6   4 63365.5 1863.05  95
  -3   6   4 68953.3 2130.85  85
  -3   6   4 67656.6 2163.61  39
  -3   6   4 71002.2 2258.21  34
  -3   6   4 71694.7 2215.81  75
  -3   6   4 65482.8 2080.77  17
  -3   6   4 68978.0 2095.69  71
  -3   6   5 96918.1 2446.92  85
  -3   6   5 89634.4 2439.44  39
  -3   6   5 102660. 2544.40  92
  -3   6   5 94734.7 2734.88  34
  -3   6   5 94089.2 2512.43  71
  -3   6   5 92726.1 2499.88  75
  -3   6   5 92440.6 2543.72  17
  -3   6   5 99053.8 2566.79  87
  -3   6   6 140590. 2960.37  39
  -3   6   6 138011. 3161.92  17
  -3   6   6 137348. 2787.32  85
  -3   6   6 152290. 3488.28  34
  -3   6   6 145179. 3261.90  94
  -3   6   6 145278. 3188.85  92
  -3   6   6 133596. 2978.49  75
  -3   6   6 134240. 3123.44  71
  -3   6   7 149042. 3201.84  94
  -3   6   7 151776. 3252.41  92
  -3   6   7 150722. 3404.81  34
  -3   6   7 144060. 2898.65  75
  -3   6   7 131631. 3060.27  17
  -3   6   7 132309. 3036.79  71
  -3   6   8 98805.7 2484.32  92
  -3   6   8 112846. 2735.29  34
  -3   6   8 102851. 2484.18  94
  -3   6   8 96117.3 2446.46  17
  -3   6   8 105895. 2310.20  45
  -3   6   8 92378.8 2389.22  71
  -3   6   9 14693.9 860.622  92
  -3   6   9 15147.5 866.384  34
  -3   6   9 14788.0 770.147  45
  -3   6  10 66694.8 1580.27  34
  -3   6  10 62862.6 1605.73  92
  -3   6  11 57304.4 1183.58  43
  -3   6  11 58429.2 1245.87  92
  -3   6  11 58517.3 1288.98  87
  -3   7  -4 55003.5 1216.93  56
  -3   7  -4 54192.1 1206.79  91
  -3   7  -4 55450.5 1274.48  80
  -3   7  -3 77495.6 1662.70  56
  -3   7  -3 79414.6 1921.08  80
  -3   7  -3 77634.7 1657.21  91
  -3   7  -2 71249.7 1659.23  56
  -3   7  -2 65209.5 1751.59  55
  -3   7  -2 71633.2 1658.05  91
  -3   7  -2 65205.6 1961.36  52
  -3   7  -2 70953.8 2032.34  80
  -3   7  -1 57305.1 1830.36  55
  -3   7  -1 55580.7 1940.02  52
  -3   7  -1 54970.3 1677.37  85
  -3   7   0 79540.2 2303.35  85
  -3   7   0 88337.4 2557.31  80
  -3   7   0 84463.6 2492.06  52
  -3   7   0 84899.0 2433.57  55
  -3   7   1 77474.3 2352.73  95
  -3   7   1 79487.9 2453.05  80
  -3   7   1 75757.3 2350.52  85
  -3   7   1 81994.2 2437.26  52
  -3   7   1 75020.0 2221.49  75
  -3   7   2 162568. 3309.86  71
  -3   7   2 163508. 3352.00  17
  -3   7   2 168957. 3652.53  39
  -3   7   2 170656. 3580.00  95
  -3   7   2 165599. 3673.13  85
  -3   7   2 178106. 3720.31  80
  -3   7   2 164908. 3595.16  75
  -3   7   2 181736. 3650.01  52
  -3   7   3 100575. 2563.17  71
  -3   7   3 104874. 2840.84  39
  -3   7   3 116492. 2813.57  80
  -3   7   3 115233. 2676.84  34
  -3   7   3 114386. 2722.17  94
  -3   7   3 114061. 2646.25  52
  -3   7   3 111392. 2895.92  75
  -3   7   3 101248. 2603.58  17
  -3   7   3 112089. 2902.43  85
  -3   7   4 85733.1 2350.99  71
  -3   7   4 94256.5 2608.83  39
  -3   7   4 93236.8 2525.52  34
  -3   7   4 94496.8 2553.99  85
  -3   7   4 90990.5 2522.73  94
  -3   7   4 97126.7 2635.69  75
  -3   7   4 84855.1 2366.13  17
  -3   7   5 67687.7 2095.81  39
  -3   7   5 69320.5 1990.73  87
  -3   7   5 68999.3 2063.31  85
  -3   7   5 73787.0 2279.65  34
  -3   7   5 71512.9 2167.10  75
  -3   7   5 70725.8 2214.94  94
  -3   7   6 58288.2 1785.18  39
  -3   7   6 61766.7 2015.92  94
  -3   7   6 61054.1 2044.79  34
  -3   7   6 56744.4 1697.81  85
  -3   7   6 61516.4 1901.05  87
  -3   7   6 60785.3 1837.81  92
  -3   7   6 59705.8 1878.13  75
  -3   7   7 91535.8 2189.27  75
  -3   7   7 103995. 2523.78  94
  -3   7   7 99227.1 2387.61  92
  -3   7   7 95199.8 2391.71  87
  -3   7   7 104622. 2612.36  34
  -3   7   8 104817. 2376.11  94
  -3   7   8 107687. 2483.84  34
  -3   7   8 104700. 2379.27  87
  -3   7   9 22827.1 954.730  92
  -3   7   9 21598.6 885.261  94
  -3   7   9 22050.5 936.655  34
  -3   7   9 24418.2 981.042  87
  -3   7  10 22602.9 803.614  92
  -3   7  10 23036.4 758.534  34
  -3   7  10 21551.2 769.177  87
  -3   8  -2 115811. 2140.93  80
  -3   8  -2 112167. 1810.39  55
  -3   8  -1 81574.7 1841.31  55
  -3   8  -1 82229.2 1994.63  80
  -3   8   0 63400.6 1859.57  80
  -3   8   0 63091.5 1801.11  55
  -3   8   1 20078.1 1059.86  55
  -3   8   1 17747.7 973.690  52
  -3   8   1 19554.2 1032.40  80
  -3   8   2 118123. 2643.82  80
  -3   8   2 113023. 2705.50  85
  -3   8   2 118359. 2623.55  52
  -3   8   2 115144. 2742.95  55
  -3   8   2 113440. 2599.40  75
  -3   8   3 110403. 2659.16  85
  -3   8   3 107862. 2362.29  52
  -3   8   3 112206. 2440.61  80
  -3   8   3 105590. 2571.82  75
  -3   8   4 126896. 2805.33  85
  -3   8   4 131019. 2687.16  34
  -3   8   4 131091. 2764.44  94
  -3   8   4 124235. 2818.36  75
  -3   8   5 54681.1 1668.23  85
  -3   8   5 58830.6 1775.25  34
  -3   8   5 57765.8 1787.59  75
  -3   8   5 54980.3 1733.90  94
  -3   8   6 12666.0 788.401  94
  -3   8   6 12054.2 670.925  87
  -3   8   6 12023.4 773.270  34
  -3   8   7 34181.9 1252.05  34
  -3   8   7 31913.3 1076.14  87
  -3   8   7 33819.2 1069.21  92
  -3   8   7 34488.4 1253.43  94
  -3   8   8 92817.3 1912.51  34
  -3   8   8 95871.8 1767.64  92
  -3   8   8 88526.4 1711.45  87
  -3   8   8 86617.3 1840.46  94
  -3   8   9 113693. 1825.97  94
  -3   8   9 111496. 1863.92  34
  -3   8   9 110503. 1775.56  92
  -3   9   0 84510.4 1536.40  55
  -3   9   0 87328.6 1575.09  80
  -3   9   1 47777.9 1189.75  80
  -3   9   1 46498.6 1248.66  55
  -3   9   2 35824.8 988.852  80
  -3   9   2 33142.0 1089.66  55
  -3   9   3 35608.1 1135.12  55
  -3   9   3 25591.6 977.219  88
  -3   9   4 63880.9 1476.58  55
  -3   9   4 55943.1 1520.82  88
  -3   9   5 83954.6 1602.51  34
  -3   9   5 82559.6 1529.40  55
  -3   9   5 82917.6 1640.70  94
  -3   9   6 53666.2 1234.79  34
  -3   9   6 51735.2 1250.07  94
  -3   9   7 13762.4 563.534  34
  -3   9   7 13657.5 575.587  94
  -2 -11  -7 82251.2 1485.83  89
  -2 -11  -7 82723.0 1489.63  81
  -2 -11  -7 85205.6 1376.25  32
  -2 -11  -7 83627.9 1362.03  46
  -2 -11  -6 123558. 2077.60  81
  -2 -11  -6 127410. 1897.12  32
  -2 -11  -6 123766. 2066.85  89
  -2 -11  -6 129114. 1996.19  86
  -2 -11  -6 124557. 1992.13  46
  -2 -11  -5 53443.6 1325.27  89
  -2 -11  -5 50607.8 1308.71  81
  -2 -11  -5 55078.4 1175.57  32
  -2 -11  -5 51489.4 1297.43  46
  -2 -11  -4 18974.1 777.972  81
  -2 -11  -4 20502.3 814.018  89
  -2 -11  -4 18535.6 796.677  46
  -2 -11  -3 21315.2 815.542  89
  -2 -11  -3 21965.8 812.598  81
  -2 -11  -2 52833.1 1238.63  89
  -2 -10  -9 53454.5 1048.40  81
  -2 -10  -9 56844.6 1183.88  32
  -2 -10  -9 55317.7 1184.38  77
  -2 -10  -9 54870.3 1154.15  89
  -2 -10  -9 57360.4 1083.02  76
  -2 -10  -8 35300.1 1035.35  32
  -2 -10  -8 34168.4 1046.83  89
  -2 -10  -8 34386.0 1027.45  77
  -2 -10  -8 33206.5 1007.78  81
  -2 -10  -8 34538.5 944.034  76
  -2 -10  -8 35023.9 948.222  46
  -2 -10  -7 32109.9 1117.19  81
  -2 -10  -7 30952.9 1050.76  32
  -2 -10  -7 29293.5 957.084  86
  -2 -10  -7 31109.7 1042.47  77
  -2 -10  -7 32254.2 1119.02  89
  -2 -10  -7 32097.7 977.208  76
  -2 -10  -7 30796.1 1034.22  46
  -2 -10  -6 85335.4 1841.51  77
  -2 -10  -6 84997.0 2018.65  89
  -2 -10  -6 89341.9 1966.55  32
  -2 -10  -6 83062.0 1868.30  74
  -2 -10  -6 81424.5 1981.86  81
  -2 -10  -6 87562.2 1915.12  31
  -2 -10  -6 80262.8 1930.53  46
  -2 -10  -5 102837. 2339.97  89
  -2 -10  -5 99432.0 2155.17  32
  -2 -10  -5 101776. 2269.22  31
  -2 -10  -5 97386.4 2237.04  74
  -2 -10  -4 68794.5 1753.57  32
  -2 -10  -4 63521.4 1849.80  89
  -2 -10  -4 67538.2 1920.38  31
  -2 -10  -4 63437.1 1885.11  74
  -2 -10  -3 19334.4 888.507  32
  -2 -10  -3 18501.5 1010.21  31
  -2 -10  -3 19371.1 1041.18  74
  -2 -10  -3 16962.4 939.301  89
  -2 -10  -2 38412.3 1489.48  31
  -2 -10  -2 38797.2 1516.44  74
  -2 -10  -1 74908.4 2138.07  74
  -2 -10  -1 75207.5 2109.60  31
  -2 -10   0 135309. 2804.17  31
  -2 -10   0 127106. 2771.29  74
  -2  -9 -10 94135.2 1585.94  89
  -2  -9 -10 97517.2 1723.03  32
  -2  -9 -10 94543.5 1735.99  77
  -2  -9 -10 96879.5 1670.13  76
  -2  -9  -9 159965. 2645.92  32
  -2  -9  -9 160684. 2602.38  89
  -2  -9  -9 159528. 2576.17  76
  -2  -9  -9 154224. 2419.88  81
  -2  -9  -9 157620. 2681.52  77
  -2  -9  -9 162888. 2350.66  46
  -2  -9  -8 64214.2 1587.40  46
  -2  -9  -8 65545.4 1725.87  89
  -2  -9  -8 65878.7 1700.84  81
  -2  -9  -8 66344.9 1730.60  32
  -2  -9  -8 66680.1 1671.52  76
  -2  -9  -8 66281.8 1766.28  77
  -2  -9  -8 70150.0 1764.41  29
  -2  -9  -7 51948.7 1621.30  77
  -2  -9  -7 53383.7 1673.91  89
  -2  -9  -7 52159.2 1629.49  81
  -2  -9  -7 54005.4 1633.54  32
  -2  -9  -7 52257.0 1575.93  70
  -2  -9  -7 55951.9 1671.81  29
  -2  -9  -7 53420.7 1556.45  76
  -2  -9  -7 51983.2 1584.33  46
  -2  -9  -6 7894.55 635.308  70
  -2  -9  -6 9327.14 641.158  76
  -2  -9  -6 8734.89 691.647  89
  -2  -9  -6 7737.61 626.166  32
  -2  -9  -6 8173.33 627.840  31
  -2  -9  -6 9713.88 687.758  77
  -2  -9  -6 7847.57 641.124  29
  -2  -9  -6 8232.09 638.578  74
  -2  -9  -6 7485.37 631.413  46
  -2  -9  -5 53645.7 1775.51  70
  -2  -9  -5 51561.3 1675.88  32
  -2  -9  -5 54694.8 1692.06  67
  -2  -9  -5 52753.1 1628.82  77
  -2  -9  -5 54845.3 1826.65  89
  -2  -9  -5 54875.0 1804.49  31
  -2  -9  -5 55883.8 1618.64  76
  -2  -9  -5 53346.6 1798.52  74
  -2  -9  -4 155024. 3317.33  89
  -2  -9  -4 160354. 3376.73  74
  -2  -9  -4 159479. 3194.78  67
  -2  -9  -4 161241. 3136.97  32
  -2  -9  -4 162419. 3375.87  31
  -2  -9  -4 152744. 3219.68  70
  -2  -9  -3 131320. 2936.40  67
  -2  -9  -3 129535. 2763.75  32
  -2  -9  -3 134732. 3099.19  31
  -2  -9  -3 133526. 3127.74  74
  -2  -9  -3 125931. 2911.68  70
  -2  -9  -2 87996.5 2350.85  70
  -2  -9  -2 94867.6 2480.88  67
  -2  -9  -2 95815.8 2520.47  26
  -2  -9  -2 88025.7 2208.29  32
  -2  -9  -1 46616.2 1707.20  67
  -2  -9  -1 48103.4 1715.87  26
  -2  -9   0 70687.7 1977.53  70
  -2  -9   0 69840.1 2115.33  67
  -2  -9   0 73028.8 2096.42  26
  -2  -9   1 106670. 2676.81  19
  -2  -9   1 101703. 2497.36  67
  -2  -8 -11 26242.5 656.845  89
  -2  -8 -11 27082.1 815.714  32
  -2  -8 -11 26629.6 800.616  77
  -2  -8 -11 26519.8 806.472  76
  -2  -8 -10 33264.9 1090.42  76
  -2  -8 -10 30966.0 980.371  89
  -2  -8 -10 32465.6 1081.93  32
  -2  -8 -10 32865.5 1103.44  77
  -2  -8  -9 111043. 2303.45  89
  -2  -8  -9 113519. 2369.76  32
  -2  -8  -9 113059. 2165.42  81
  -2  -8  -9 115694. 2466.52  77
  -2  -8  -9 111917. 2347.26  76
  -2  -8  -9 117039. 2369.86  29
  -2  -8  -9 117564. 2149.05  46
  -2  -8  -8 33591.6 1199.04  70
  -2  -8  -8 32364.6 1283.27  89
  -2  -8  -8 33901.9 1264.36  81
  -2  -8  -8 33724.1 1338.75  77
  -2  -8  -8 34993.9 1305.84  76
  -2  -8  -8 35656.8 1346.18  32
  -2  -8  -8 35375.9 1326.88  29
  -2  -8  -8 32501.8 1196.86  46
  -2  -8  -7 97260.7 2320.78  70
  -2  -8  -7 102704. 2486.06  77
  -2  -8  -7 102130. 2477.57  89
  -2  -8  -7 97128.3 2387.37  81
  -2  -8  -7 100434. 2414.28  32
  -2  -8  -7 98870.7 2341.26  76
  -2  -8  -7 103088. 2270.37  31
  -2  -8  -7 103567. 2471.02  29
  -2  -8  -7 101035. 2217.26  74
  -2  -8  -7 96996.2 2327.16  46
  -2  -8  -6 78886.2 2142.38  70
  -2  -8  -6 78403.4 2094.74  31
  -2  -8  -6 69712.9 2088.81  89
  -2  -8  -6 71352.0 2054.64  77
  -2  -8  -6 76543.9 2107.80  32
  -2  -8  -6 77837.0 2029.84  76
  -2  -8  -6 77338.3 2089.43  74
  -2  -8  -6 71732.1 2060.77  46
  -2  -8  -5 98305.8 2288.27  67
  -2  -8  -5 91802.4 2431.26  89
  -2  -8  -5 89273.8 2256.13  77
  -2  -8  -5 91028.8 2307.92  32
  -2  -8  -5 90145.3 2386.36  31
  -2  -8  -5 88732.1 2390.08  74
  -2  -8  -5 91332.4 2193.08  76
  -2  -8  -5 91590.9 2377.67  70
  -2  -8  -4 163711. 3324.22  70
  -2  -8  -4 159195. 3144.15  67
  -2  -8  -4 156625. 3104.96  32
  -2  -8  -4 164850. 3412.24  31
  -2  -8  -4 164716. 3446.08  74
  -2  -8  -3 108306. 2668.58  70
  -2  -8  -3 107078. 2548.50  67
  -2  -8  -3 112507. 2751.51  26
  -2  -8  -2 73798.9 2163.86  70
  -2  -8  -2 88601.9 2321.94  67
  -2  -8  -2 83357.0 2374.32  10
  -2  -8  -2 79220.0 2270.98  26
  -2  -8  -2 76999.9 2263.63  18
  -2  -8  -1 100378. 2545.42  70
  -2  -8  -1 99276.5 2542.30  67
  -2  -8  -1 107029. 2809.03  10
  -2  -8  -1 100517. 2592.89  18
  -2  -8  -1 106940. 2647.49  26
  -2  -8   0 167750. 3382.55  70
  -2  -8   0 183779. 3610.24  26
  -2  -8   0 180288. 3572.85  67
  -2  -8   0 188142. 3949.63  10
  -2  -8   0 173332. 3463.67  18
  -2  -8   1 121525. 2709.90  70
  -2  -8   1 121071. 2841.68  26
  -2  -8   1 122110. 2871.02  67
  -2  -8   1 121485. 2748.67  18
  -2  -8   2 108018. 2614.25  67
  -2  -8   3 17471.8 1015.83  19
  -2  -7 -12 93202.2 1474.41  76
  -2  -7 -11 33956.1 933.087  40
  -2  -7 -11 35514.6 902.127  89
  -2  -7 -11 37027.1 1091.86  32
  -2  -7 -11 35180.7 1037.13  77
  -2  -7 -11 38427.5 1127.34  76
  -2  -7 -10 1939.25 249.549  40
  -2  -7 -10 2569.71 293.940  89
  -2  -7 -10 1795.91 266.589  83
  -2  -7 -10 2877.92 341.141  32
  -2  -7 -10 1770.60 270.361  77
  -2  -7 -10 1610.68 260.012  76
  -2  -7  -9 36481.3 1325.44  83
  -2  -7  -9 40361.0 1424.32  32
  -2  -7  -9 40116.8 1370.16  89
  -2  -7  -9 38780.2 1430.95  77
  -2  -7  -9 41371.7 1265.15  81
  -2  -7  -9 41734.6 1458.46  76
  -2  -7  -9 40601.0 1408.29  29
  -2  -7  -9 39280.4 1245.07  46
  -2  -7  -8 232838. 3591.71  70
  -2  -7  -8 231942. 3891.13  89
  -2  -7  -8 236153. 3769.86  81
  -2  -7  -8 233863. 4045.79  77
  -2  -7  -8 226436. 3881.05  76
  -2  -7  -8 239679. 3966.76  29
  -2  -7  -8 228153. 3922.48  32
  -2  -7  -8 233718. 3701.05  46
  -2  -7  -7 171993. 3148.35  70
  -2  -7  -7 163237. 3239.91  89
  -2  -7  -7 168545. 3192.38  81
  -2  -7  -7 169421. 3256.28  32
  -2  -7  -7 179684. 3111.20  31
  -2  -7  -7 163327. 3280.42  77
  -2  -7  -7 170218. 3208.45  76
  -2  -7  -7 175785. 3332.16  29
  -2  -7  -7 171661. 3013.75  74
  -2  -7  -7 160340. 3108.74  46
  -2  -7  -6 206338. 3592.42  70
  -2  -7  -6 198506. 3624.98  89
  -2  -7  -6 196272. 3579.06  77
  -2  -7  -6 206851. 3556.87  31
  -2  -7  -6 202645. 3550.52  32
  -2  -7  -6 208703. 3508.96  76
  -2  -7  -6 202406. 3532.48  74
  -2  -7  -5 8220.20 646.008   3
  -2  -7  -5 6305.80 570.243  70
  -2  -7  -5 5128.00 494.137  32
  -2  -7  -5 5002.30 503.799  60
  -2  -7  -5 6367.14 511.368  67
  -2  -7  -5 4534.54 493.750  89
  -2  -7  -5 6583.02 530.654  76
  -2  -7  -5 5792.03 548.746  31
  -2  -7  -5 5825.36 555.782  74
  -2  -7  -4 76513.0 2078.87  70
  -2  -7  -4 78330.7 2150.96  74
  -2  -7  -4 79228.4 1948.04  67
  -2  -7  -4 76757.0 2105.74  31
  -2  -7  -4 77673.8 2051.51   3
  -2  -7  -3 328463. 4885.69  70
  -2  -7  -3 326120. 4657.42  67
  -2  -7  -3 327434. 4731.42   3
  -2  -7  -3 331105. 4962.81  18
  -2  -7  -3 333675. 4975.70  26
  -2  -7  -3 346123. 4991.65  10
  -2  -7  -2 298704. 4599.53  70
  -2  -7  -2 313146. 4725.81  26
  -2  -7  -2 292680. 4363.90   3
  -2  -7  -2 310926. 4720.31  18
  -2  -7  -1 187268. 3411.06  70
  -2  -7  -1 189656. 3471.97  18
  -2  -7  -1 187162. 3159.11   3
  -2  -7  -1 192767. 3701.92  10
  -2  -7  -1 195469. 3508.49  26
  -2  -7   0 33014.9 1314.00  70
  -2  -7   0 33162.7 1472.50  10
  -2  -7   0 33561.7 1338.40  18
  -2  -7   0 35953.7 1535.55  63
  -2  -7   0 32569.2 1334.16  26
  -2  -7   1 14032.3 845.793  70
  -2  -7   1 16079.0 1047.10  63
  -2  -7   1 15851.4 1052.81  10
  -2  -7   1 15255.0 887.890  18
  -2  -7   1 15984.4 1064.06   7
  -2  -7   1 15075.8 907.897  26
  -2  -7   2 102035. 2375.19  70
  -2  -7   2 102596. 2835.94  10
  -2  -7   2 102650. 2406.66  18
  -2  -7   3 126006. 2778.41  67
  -2  -6 -12 48159.4 1116.90  76
  -2  -6 -12 48946.8 1040.57  40
  -2  -6 -11 177792. 2812.38  40
  -2  -6 -11 170344. 2475.56  89
  -2  -6 -11 177625. 2983.66  83
  -2  -6 -11 180419. 2885.63  32
  -2  -6 -11 178576. 2743.94  77
  -2  -6 -10 111177. 2219.30  93
  -2  -6 -10 110957. 2373.50  77
  -2  -6 -10 107845. 2187.30  89
  -2  -6 -10 109700. 2489.56  83
  -2  -6 -10 111716. 2439.31  76
  -2  -6 -10 112651. 2418.10  32
  -2  -6  -9 13967.8 803.403  89
  -2  -6  -9 16462.4 921.861  76
  -2  -6  -9 12639.6 834.807  83
  -2  -6  -9 13576.6 806.132  84
  -2  -6  -9 13491.1 826.362  32
  -2  -6  -9 13235.5 829.771  77
  -2  -6  -9 14662.8 759.500  46
  -2  -6  -9 12954.7 758.992  72
  -2  -6  -8 52528.8 1602.32  84
  -2  -6  -8 53199.5 1740.06  77
  -2  -6  -8 49891.9 1650.25  32
  -2  -6  -8 48962.0 1654.03  83
  -2  -6  -8 54431.4 1675.10  89
  -2  -6  -8 52430.7 1549.74  81
  -2  -6  -8 52274.1 1681.90  29
  -2  -6  -8 50488.5 1665.92  76
  -2  -6  -8 51399.2 1544.84  46
  -2  -6  -8 49514.5 1534.14  72
  -2  -6  -7 79426.2 1901.01  70
  -2  -6  -7 72300.6 1967.93  32
  -2  -6  -7 66631.1 1858.38  83
  -2  -6  -7 72440.8 1963.71  89
  -2  -6  -7 69097.9 1860.22  81
  -2  -6  -7 69422.5 1986.67  77
  -2  -6  -7 75909.0 1993.28  76
  -2  -6  -7 81407.5 2099.92  29
  -2  -6  -7 80138.8 1861.00  74
  -2  -6  -7 73267.0 1893.33  46
  -2  -6  -7 72192.8 1832.41  72
  -2  -6  -6 427433. 5613.71   3
  -2  -6  -6 450501. 5591.46  70
  -2  -6  -6 441605. 5697.39  89
  -2  -6  -6 448970. 5572.60  31
  -2  -6  -6 411837. 5506.43  32
  -2  -6  -6 406436. 5730.91  60
  -2  -6  -6 453726. 5811.29  29
  -2  -6  -6 446214. 5552.44  74
  -2  -6  -6 423427. 5516.27  46
  -2  -6  -6 427673. 5290.31  72
  -2  -6  -6 429553. 5677.32  77
  -2  -6  -5 279940. 4097.18  70
  -2  -6  -5 273344. 4111.56  74
  -2  -6  -5 278072. 4102.86  31
  -2  -6  -5 282546. 3734.22  72
  -2  -6  -5 279139. 4137.34   3
  -2  -6  -4 119524. 2450.67  70
  -2  -6  -4 129546. 2290.69  67
  -2  -6  -4 130024. 2586.54  18
  -2  -6  -4 125014. 2525.48  31
  -2  -6  -4 124452. 2544.51  74
  -2  -6  -4 122192. 2458.93   3
  -2  -6  -4 126476. 2133.12  72
  -2  -6  -3 103875. 2222.86  70
  -2  -6  -3 103696. 2265.59  26
  -2  -6  -3 102367. 2245.36  10
  -2  -6  -3 103379. 2242.96  18
  -2  -6  -3 107523. 2217.74   3
  -2  -6  -2 99861.2 2139.99  70
  -2  -6  -2 95757.3 2081.61  24
  -2  -6  -2 97308.8 2060.56   3
  -2  -6  -2 100452. 2163.55  18
  -2  -6  -2 100512. 2258.05  10
  -2  -6  -2 97424.9 2150.02  26
  -2  -6  -1 164682. 2867.22  70
  -2  -6  -1 166902. 2813.65  24
  -2  -6  -1 169999. 2783.47   3
  -2  -6  -1 161327. 2879.47  18
  -2  -6  -1 168362. 2920.72  26
  -2  -6   0 162375. 2834.35  70
  -2  -6   0 157265. 2687.05  24
  -2  -6   0 156714. 3118.04  10
  -2  -6   0 166038. 3191.19  63
  -2  -6   0 160632. 2855.91  18
  -2  -6   0 169527. 3252.45   7
  -2  -6   0 158564. 2598.25   3
  -2  -6   1 67280.4 1651.27  24
  -2  -6   1 74019.7 2135.63   7
  -2  -6   1 66855.5 2001.79  10
  -2  -6   1 71724.8 2079.65  63
  -2  -6   2 23892.9 1219.72  10
  -2  -6   2 26137.6 1304.00   7
  -2  -6   2 25622.5 1279.61  63
  -2  -6   3 149387. 3414.98  63
  -2  -6   3 154850. 3383.24  10
  -2  -6   3 151611. 3484.73   7
  -2  -6   4 78812.4 2315.31  10
  -2  -5 -12 21748.1 750.819  40
  -2  -5 -12 21361.6 761.119  76
  -2  -5 -11 92049.9 2040.07  40
  -2  -5 -11 95735.5 2172.49  83
  -2  -5 -11 91614.6 1830.64  77
  -2  -5 -11 87802.7 2008.80  76
  -2  -5 -10 172368. 3078.74  93
  -2  -5 -10 170338. 3052.35  77
  -2  -5 -10 174170. 3232.05  40
  -2  -5 -10 170076. 2891.44  89
  -2  -5 -10 174749. 3364.97  83
  -2  -5 -10 173999. 3170.83  32
  -2  -5 -10 179159. 2956.75  50
  -2  -5 -10 178321. 3267.65  76
  -2  -5  -9 153432. 2892.59  89
  -2  -5  -9 145867. 3012.74  84
  -2  -5  -9 154822. 3231.56  83
  -2  -5  -9 154388. 3075.29  32
  -2  -5  -9 157358. 2832.81  50
  -2  -5  -9 151409. 3014.50  77
  -2  -5  -9 156039. 2966.52  93
  -2  -5  -9 156654. 3113.50  76
  -2  -5  -9 160479. 2816.27  46
  -2  -5  -8 45580.8 1560.41  77
  -2  -5  -8 44143.1 1441.47  93
  -2  -5  -8 44044.9 1503.10  84
  -2  -5  -8 46689.4 1503.23  89
  -2  -5  -8 42684.2 1574.96  83
  -2  -5  -8 44091.9 1523.33  32
  -2  -5  -8 47065.8 1573.42  29
  -2  -5  -8 45726.4 1418.07  46
  -2  -5  -8 43226.5 1519.37  76
  -2  -5  -8 44322.8 1496.38  72
  -2  -5  -7 110041. 2214.88   3
  -2  -5  -7 99045.5 2200.19  84
  -2  -5  -7 106900. 2493.07  60
  -2  -5  -7 103389. 2277.47  89
  -2  -5  -7 98274.4 2309.14  83
  -2  -5  -7 98848.9 2122.43  81
  -2  -5  -7 103226. 2301.12  32
  -2  -5  -7 101361. 2324.63  77
  -2  -5  -7 108234. 2392.20  29
  -2  -5  -7 106332. 2213.57  46
  -2  -5  -7 104719. 2307.45  76
  -2  -5  -7 105022. 2274.01  72
  -2  -5  -6 190821. 3380.13  60
  -2  -5  -6 195318. 3104.81  31
  -2  -5  -6 194758. 3272.47  29
  -2  -5  -6 191383. 3044.06  74
  -2  -5  -6 187539. 3083.47  72
  -2  -5  -6 201439. 3187.34   3
  -2  -5  -5 361451. 4640.11  31
  -2  -5  -5 392304. 4707.51  70
  -2  -5  -5 356262. 4626.65  74
  -2  -5  -5 354861. 4876.32  60
  -2  -5  -5 369141. 4703.49   3
  -2  -5  -5 382195. 4556.36  72
  -2  -5  -4 237047. 3363.81  70
  -2  -5  -4 255202. 3103.99  67
  -2  -5  -4 224271. 3448.61  60
  -2  -5  -4 239473. 3450.38  18
  -2  -5  -4 232295. 3387.33  31
  -2  -5  -4 225670. 3382.48  74
  -2  -5  -4 232860. 3388.00   3
  -2  -5  -4 251620. 3220.60  72
  -2  -5  -3 46386.5 1271.03  70
  -2  -5  -3 48619.0 1328.12  26
  -2  -5  -3 49853.1 1328.87  18
  -2  -5  -3 49370.8 1303.50   3
  -2  -5  -3 48573.0 1158.29  72
  -2  -5  -2 102515. 1933.26  70
  -2  -5  -2 99772.4 1957.54  24
  -2  -5  -2 110404. 2025.63  26
  -2  -5  -2 108233. 1995.73  18
  -2  -5  -2 109282. 2120.80  10
  -2  -5  -2 110784. 1983.61   3
  -2  -5  -2 101071. 1730.55  72
  -2  -5  -1 24521.2 872.533  24
  -2  -5  -1 22974.9 945.515  10
  -2  -5  -1 26227.3 874.183   3
  -2  -5  -1 26855.2 799.916  72
  -2  -5  -1 23718.0 861.328  26
  -2  -5   0 333736. 3989.47  24
  -2  -5   0 314746. 4343.06  63
  -2  -5   0 307213. 4294.32  10
  -2  -5   0 314939. 4395.48   7
  -2  -5   0 304451. 3782.67   3
  -2  -5   0 328753. 3729.96  72
  -2  -5   1 201166. 3368.36   7
  -2  -5   1 204015. 2714.14   3
  -2  -5   1 196780. 2743.39  72
  -2  -5   1 199983. 3325.18  63
  -2  -5   2 98521.9 2339.07   7
  -2  -5   2 95065.9 2294.70  63
  -2  -5   3 184988. 3061.04   8
  -2  -5   3 196020. 3123.88  64
  -2  -5   3 174494. 3445.99   7
  -2  -5   3 180976. 2992.16   6
  -2  -5   3 168481. 3376.92  63
  -2  -5   4 112401. 2807.26  63
  -2  -5   4 115106. 2653.56  10
  -2  -5   4 130338. 2565.84   9
  -2  -5   4 114031. 2859.54   7
  -2  -5   4 131468. 2717.47   8
  -2  -5   4 133970. 2735.80  64
  -2  -5   5 208442. 3815.97  64
  -2  -5   5 201976. 3796.89   8
  -2  -5   6 214409. 3977.38  12
  -2  -4 -12 31305.8 946.673  40
  -2  -4 -12 29715.1 925.831  76
  -2  -4 -11 48990.7 1485.13  40
  -2  -4 -11 46388.2 1433.53  76
  -2  -4 -11 46675.8 1261.46  91
  -2  -4 -11 48318.6 1519.46  83
  -2  -4 -10 116389. 2620.70  40
  -2  -4 -10 112541. 2254.52  89
  -2  -4 -10 108622. 2471.96  93
  -2  -4 -10 112502. 2656.78  83
  -2  -4 -10 114115. 2347.58  77
  -2  -4 -10 107458. 2443.79  32
  -2  -4 -10 109254. 2518.32  76
  -2  -4  -9 298865. 4533.31  93
  -2  -4  -9 301182. 4319.63  89
  -2  -4  -9 308057. 4844.57  83
  -2  -4  -9 296721. 4410.74  77
  -2  -4  -9 283198. 4472.92  32
  -2  -4  -9 298248. 4340.34  50
  -2  -4  -9 289608. 4556.99  76
  -2  -4  -9 284193. 4117.69  46
  -2  -4  -9 277500. 4421.48  72
  -2  -4  -8 153799. 3052.31  84
  -2  -4  -8 163241. 3040.29  77
  -2  -4  -8 164569. 2972.85  89
  -2  -4  -8 164293. 3044.99  93
  -2  -4  -8 163827. 2893.41  50
  -2  -4  -8 162128. 3083.07  32
  -2  -4  -8 163435. 3113.63  76
  -2  -4  -8 156861. 2826.01  46
  -2  -4  -8 160238. 3226.63  83
  -2  -4  -8 157822. 3047.31  72
  -2  -4  -7 70433.5 1677.55  14
  -2  -4  -7 74066.3 1955.82  60
  -2  -4  -7 68327.9 1817.26  29
  -2  -4  -7 67748.1 1795.32  72
  -2  -4  -6 116444. 2054.18  14
  -2  -4  -6 112572. 2079.43   3
  -2  -4  -6 111325. 2239.25  29
  -2  -4  -6 112841. 2067.82  74
  -2  -4  -6 113484. 2234.25  72
  -2  -4  -5 68098.8 1358.42  14
  -2  -4  -5 66280.2 1650.48  60
  -2  -4  -5 67324.4 1514.78  31
  -2  -4  -5 71838.4 1471.78  70
  -2  -4  -5 63371.5 1538.95  29
  -2  -4  -5 65888.4 1499.13  74
  -2  -4  -5 65029.5 1480.49   3
  -2  -4  -5 72443.9 1577.44  72
  -2  -4  -4 270040. 3403.29  70
  -2  -4  -4 270097. 3654.75  60
  -2  -4  -4 277709. 3481.83  18
  -2  -4  -4 266425. 3470.61   3
  -2  -4  -3 115581. 1863.20  70
  -2  -4  -3 118279. 1898.26  18
  -2  -4  -3 112988. 1948.39  60
  -2  -4  -3 116692. 1926.81   3
  -2  -4  -3 113634. 1830.15  72
  -2  -4  -2 247855. 2988.58  70
  -2  -4  -2 241868. 3070.96  24
  -2  -4  -2 240356. 3167.57  10
  -2  -4  -2 248846. 3016.96  18
  -2  -4  -2 248152. 3048.76   3
  -2  -4  -2 242047. 2922.95  72
  -2  -4  -1 88051.6 1550.58  24
  -2  -4  -1 81790.8 1295.83  60
  -2  -4  -1 84926.0 1503.29   3
  -2  -4  -1 85293.1 1673.79  10
  -2  -4  -1 85067.7 1438.87  72
  -2  -4   0 290801. 3361.69   3
  -2  -4   0 293241. 3733.65  10
  -2  -4   0 295647. 3753.50  63
  -2  -4   0 294087. 3785.11   7
  -2  -4   0 294123. 3347.44  72
  -2  -4   1 332479. 4198.59  63
  -2  -4   1 332084. 4223.66   7
  -2  -4   1 324677. 3605.34   3
  -2  -4   2 228939. 3431.66  63
  -2  -4   2 231996. 3477.01   7
  -2  -4   3 228030. 3674.27   7
  -2  -4   3 232132. 3674.98  63
  -2  -4   4 203540. 3606.41  63
  -2  -4   4 237194. 3219.98  65
  -2  -4   4 202489. 3633.85   7
  -2  -4   4 234239. 3369.38   9
  -2  -4   5 133003. 2889.91  63
  -2  -4   5 134383. 2936.52   7
  -2  -4   6 135457. 3165.34  64
  -2  -4   6 135456. 3020.54  11
  -2  -4   6 134763. 3157.34   8
  -2  -4   6 128246. 2711.40  71
  -2  -4   7 106501. 2671.73  68
  -2  -3 -12 62111.4 1369.71  40
  -2  -3 -12 63682.5 1370.19  76
  -2  -3 -11 48439.0 1469.90  40
  -2  -3 -11 45122.5 1266.92  91
  -2  -3 -11 44959.4 1410.74  76
  -2  -3 -10 53696.6 1741.68  40
  -2  -3 -10 51087.0 1592.74  91
  -2  -3 -10 51210.5 1449.08  89
  -2  -3 -10 52209.7 1747.40  83
  -2  -3 -10 50012.1 1654.30  76
  -2  -3  -9 200444. 3699.39  40
  -2  -3  -9 194927. 3593.49  93
  -2  -3  -9 203119. 3355.35  89
  -2  -3  -9 202610. 3783.34  83
  -2  -3  -9 183635. 3466.02  32
  -2  -3  -9 193684. 3416.39  50
  -2  -3  -9 201921. 3365.13  77
  -2  -3  -9 196078. 3617.30  76
  -2  -3  -9 202426. 3298.53  46
  -2  -3  -9 191392. 3527.02  72
  -2  -3  -8 290582. 4429.22  93
  -2  -3  -8 296958. 4272.51  89
  -2  -3  -8 289617. 4416.00  32
  -2  -3  -8 296779. 4279.69  50
  -2  -3  -8 298173. 4299.57  77
  -2  -3  -8 290205. 4450.31  76
  -2  -3  -8 286497. 4275.92  60
  -2  -3  -8 294002. 4167.47  46
  -2  -3  -8 303793. 4664.63  83
  -2  -3  -8 295348. 4482.10  72
  -2  -3  -7 41237.7 1315.21  14
  -2  -3  -7 45291.5 1253.68  21
  -2  -3  -7 44785.0 1426.97  60
  -2  -3  -7 44919.9 1434.45  72
  -2  -3  -6 58935.2 1460.91  14
  -2  -3  -6 62731.1 1628.26  60
  -2  -3  -6 60571.3 1326.97  21
  -2  -3  -6 61741.9 1551.70  29
  -2  -3  -6 62023.0 1409.96  74
  -2  -3  -6 63330.7 1589.65  72
  -2  -3  -5 9589.39 497.077  14
  -2  -3  -5 8447.59 404.067  21
  -2  -3  -5 8207.00 518.470  60
  -2  -3  -5 8536.67 447.373   3
  -2  -3  -5 8016.20 485.096  29
  -2  -3  -5 8221.85 497.058  72
  -2  -3  -4 299454. 3265.42  70
  -2  -3  -4 299175. 3672.98  60
  -2  -3  -4 298694. 3519.81  72
  -2  -3  -3 504984. 4948.71  70
  -2  -3  -3 511828. 4978.08  18
  -2  -3  -3 504191. 5143.31  72
  -2  -3  -2 272282. 2835.62   5
  -2  -3  -2 276202. 3066.51   3
  -2  -3  -2 273512. 3056.85  60
  -2  -3  -2 268265. 3051.91  72
  -2  -3  -1 269829. 2795.59  60
  -2  -3  -1 264551. 2976.50   3
  -2  -3   0 177889. 1985.08   5
  -2  -3   0 187017. 1829.03  60
  -2  -3   0 173915. 2400.59  10
  -2  -3   0 186725. 2442.91  63
  -2  -3   0 173248. 2181.05   3
  -2  -3   0 188593. 2470.82   7
  -2  -3   2 428128. 4246.99   3
  -2  -3   2 422870. 4785.59   7
  -2  -3   2 428221. 4784.69  63
  -2  -3   3 300517. 3876.22   2
  -2  -3   3 333193. 3554.30   6
  -2  -3   4 84146.9 1596.57  65
  -2  -3   4 82877.8 1654.68   9
  -2  -3   5 101371. 1895.12  65
  -2  -3   5 80670.5 2129.27   2
  -2  -3   6 46236.7 1510.50  22
  -2  -3   6 49568.0 1733.32  11
  -2  -3   6 45848.5 1503.79  71
  -2  -3   7 135673. 2921.26  22
  -2  -3   7 134604. 2931.45  71
  -2  -3   8 100116. 2675.50  68
  -2  -3   8 100257. 2501.09  22
  -2  -3   8 102536. 2540.12  71
  -2  -2 -12 152522. 2215.80  40
  -2  -2 -11 76354.7 1845.21  76
  -2  -2 -11 74922.2 1672.20  91
  -2  -2 -10 15973.2 918.832  40
  -2  -2 -10 15116.2 890.552  76
  -2  -2 -10 16362.5 884.882  91
  -2  -2 -10 15934.8 886.187  72
  -2  -2 -10 17999.4 978.348  83
  -2  -2 -10 15236.3 789.723  21
  -2  -2  -9 18176.9 1019.68  40
  -2  -2  -9 17243.6 986.514  76
  -2  -2  -9 18707.1 917.040  89
  -2  -2  -9 21356.1 1104.62  83
  -2  -2  -9 19220.8 1025.21  72
  -2  -2  -9 18014.4 909.104  21
  -2  -2  -9 18704.6 906.801  46
  -2  -2  -8 146328. 2990.59  40
  -2  -2  -8 147698. 2778.83  89
  -2  -2  -8 138003. 2692.25  21
  -2  -2  -8 140254. 2920.75  93
  -2  -2  -8 135502. 2827.74  32
  -2  -2  -8 147676. 3028.19  83
  -2  -2  -8 142133. 2804.37  50
  -2  -2  -8 143015. 2682.64  77
  -2  -2  -8 141561. 2911.96  76
  -2  -2  -8 153714. 2735.89  60
  -2  -2  -8 144777. 2746.99  46
  -2  -2  -8 150248. 2996.56  72
  -2  -2  -7 252170. 3885.11  14
  -2  -2  -7 263026. 3761.60  21
  -2  -2  -7 257619. 3809.80  60
  -2  -2  -6 134416. 2438.05  14
  -2  -2  -6 143778. 2345.69  21
  -2  -2  -6 141750. 2464.70  60
  -2  -2  -6 137306. 2256.19  74
  -2  -2  -6 139605. 2538.59  72
  -2  -2  -5 111163. 1983.56  59
  -2  -2  -5 116063. 1995.98  14
  -2  -2  -5 106650. 1800.59  21
  -2  -2  -5 104549. 1971.67  60
  -2  -2  -5 115278. 1647.86   3
  -2  -2  -5 109144. 2016.41  72
  -2  -2  -4 17672.1 560.244  25
  -2  -2  -4 19038.8 652.242  59
  -2  -2  -4 18490.8 687.304  60
  -2  -2  -4 16806.1 535.519   3
  -2  -2  -4 15843.8 601.681  29
  -2  -2  -4 18622.6 685.261  72
  -2  -2  -3 548370. 5403.03  72
  -2  -2   1 153409. 1983.77  10
  -2  -2   1 148343. 1388.85  60
  -2  -2   1 164879. 1985.99  63
  -2  -2   1 164366. 2001.55   7
  -2  -2   1 158151. 1987.35   2
  -2  -2   2 282555. 3356.18   2
  -2  -2   2 306133. 3271.21   7
  -2  -2   2 284469. 2697.63  58
  -2  -2   2 295923. 3200.13  10
  -2  -2   2 308122. 3262.03  63
  -2  -2   3 251513. 2955.74  65
  -2  -2   3 245924. 2671.16  58
  -2  -2   3 246869. 3313.48   2
  -2  -2   4 85552.7 1542.46  65
  -2  -2   4 83026.0 1538.14   9
  -2  -2   5 85325.3 1701.15  65
  -2  -2   5 85920.9 1661.09   9
  -2  -2   5 82470.2 2091.18   2
  -2  -2   6 50946.3 1688.15  11
  -2  -2   6 54250.7 1590.28  22
  -2  -2   6 53752.3 1585.59  71
  -2  -2   7 88523.8 2293.72  22
  -2  -2   7 88845.8 2304.28  71
  -2  -2   7 83772.4 2500.46   2
  -2  -2   7 91557.7 2346.41  27
  -2  -2   8 215944. 4200.81  68
  -2  -2   8 216926. 4006.11  22
  -2  -2   8 221786. 4315.37  11
  -2  -2   8 218483. 4025.23  71
  -2  -2   8 222077. 4007.75  27
  -2  -2   9 166635. 3561.22  68
  -2  -2   9 173664. 3416.99  22
  -2  -2   9 166969. 3369.47  71
  -2  -2  11 27158.2 911.291  36
  -2  -1 -11 102690. 2049.10  40
  -2  -1 -11 99869.3 1900.81  91
  -2  -1 -10 91788.0 2193.16  91
  -2  -1 -10 88109.7 2212.58  76
  -2  -1 -10 90544.8 2213.41  40
  -2  -1  -9 4693.41 496.685  72
  -2  -1  -9 6682.80 609.790  40
  -2  -1  -9 4717.46 514.238  91
  -2  -1  -9 5348.88 515.451  21
  -2  -1  -9 4958.99 465.705  89
  -2  -1  -9 5254.78 519.747  83
  -2  -1  -9 4629.21 509.448  76
  -2  -1  -8 28681.5 1245.01  40
  -2  -1  -8 27043.6 1158.50  21
  -2  -1  -8 28584.4 1157.21  89
  -2  -1  -8 28347.8 1286.84  91
  -2  -1  -8 25889.0 1183.64  72
  -2  -1  -8 27481.3 1202.91  83
  -2  -1  -8 26901.3 1218.73  76
  -2  -1  -8 27519.6 1147.59  46
  -2  -1  -7 155242. 2968.46  14
  -2  -1  -7 164451. 2733.82  60
  -2  -1  -7 163761. 2915.27  21
  -2  -1  -7 156302. 2993.67  72
  -2  -1  -6 436590. 5324.07  14
  -2  -1  -6 459075. 5232.36  21
  -2  -1  -6 438651. 5037.68  60
  -2  -1  -6 389721. 4866.80  74
  -2  -1  -6 408760. 5241.39  72
  -2  -1  -6 427383. 5259.50  59
  -2  -1  -5 418061. 5004.21  14
  -2  -1  -5 446673. 5066.89  59
  -2  -1  -5 445891. 4912.75  21
  -2  -1  -5 424734. 4835.19  60
  -2  -1  -5 444491. 5099.43  72
  -2  -1  -4 134522. 1950.01  25
  -2  -1  -4 134315. 2057.45  59
  -2  -1  -4 129384. 2051.24  72
  -2  -1  -4 128865. 1565.15   3
  -2  -1  -4 130430. 1994.01  60
  -2  -1  -3 207075. 2417.83  25
  -2  -1  -3 201733. 2498.01  59
  -2  -1  -3 209730. 2526.02  60
  -2  -1  -3 206855. 2191.86   3
  -2  -1  -3 209282. 2535.84  72
  -2  -1   1 74578.9 939.348  58
  -2  -1   1 72305.8 882.949  60
  -2  -1   2 16814.4 486.538  65
  -2  -1   2 13956.8 322.362  60
  -2  -1   2 13778.9 536.874   2
  -2  -1   2 13474.0 398.292  58
  -2  -1   2 13962.2 383.023  10
  -2  -1   2 14891.9 379.776  63
  -2  -1   2 15503.3 495.032   9
  -2  -1   2 14600.9 380.104   7
  -2  -1   2 16838.5 256.044   6
  -2  -1   3 130807. 1829.05  65
  -2  -1   3 129296. 1517.28  10
  -2  -1   3 129546. 1837.68   9
  -2  -1   3 130618. 2150.65   2
  -2  -1   3 128328. 1753.77  58
  -2  -1   3 133910. 1342.13   6
  -2  -1   4 239089. 2960.64  58
  -2  -1   4 245140. 3523.76   2
  -2  -1   4 250435. 3101.23  22
  -2  -1   4 250992. 3106.34  71
  -2  -1   5 199580. 3000.59  22
  -2  -1   5 201392. 3183.82  11
  -2  -1   5 206698. 3432.54   2
  -2  -1   5 200685. 3010.53  71
  -2  -1   5 206933. 2873.40  58
  -2  -1   6 248688. 3831.91  22
  -2  -1   6 246748. 4034.13  11
  -2  -1   6 253227. 4279.11   2
  -2  -1   6 256237. 3874.23  71
  -2  -1   7 64459.3 2012.78  68
  -2  -1   7 63478.4 1902.32  22
  -2  -1   7 66075.7 2083.70  11
  -2  -1   7 64082.2 2125.26   2
  -2  -1   7 64774.1 1931.68  71
  -2  -1   7 61595.0 1906.09  27
  -2  -1   8 75772.3 2390.13  11
  -2  -1   8 75215.1 2321.15  68
  -2  -1   8 76365.8 2246.49  22
  -2  -1   8 79893.5 2309.87  27
  -2  -1   8 77502.7 2267.23  71
  -2  -1   9 266646. 4803.41  68
  -2  -1   9 282160. 4671.57  27
  -2  -1   9 272529. 4669.21  71
  -2   0 -11 59555.5 1330.33  40
  -2   0 -11 58738.5 1287.23  91
  -2   0 -10 126178. 2514.28  40
  -2   0 -10 117734. 2472.51  91
  -2   0  -9 83520.3 2190.86  40
  -2   0  -9 83287.0 1882.04  51
  -2   0  -9 82178.6 2262.98  91
  -2   0  -9 78945.3 2193.31  76
  -2   0  -8 98383.9 2483.15  76
  -2   0  -8 100496. 2592.40  91
  -2   0  -8 98434.1 2400.76  21
  -2   0  -8 102006. 2343.18  89
  -2   0  -8 104276. 2483.33  40
  -2   0  -8 99696.5 2148.40  51
  -2   0  -8 98667.9 2391.96  72
  -2   0  -7 25319.5 1105.38  40
  -2   0  -7 23363.5 1066.95  21
  -2   0  -7 24948.2 1194.32  91
  -2   0  -7 26236.9 1139.13  72
  -2   0  -7 25024.5 1121.86  59
  -2   0  -7 23708.8 1097.20  76
  -2   0  -7 24494.9 1062.06  89
  -2   0  -7 21478.3 1021.82  46
  -2   0  -7 22905.0 937.797  51
  -2   0  -6 421510. 5472.11  14
  -2   0  -6 432592. 4972.27  60
  -2   0  -6 402867. 5328.28  59
  -2   0  -6 409964. 5114.79  74
  -2   0  -6 429200. 5409.36  72
  -2   0  -5 420470. 4862.57  21
  -2   0  -5 383595. 4553.14  60
  -2   0  -5 415658. 4993.43  14
  -2   0  -5 367434. 4668.58  74
  -2   0  -5 433665. 4979.83  72
  -2   0  -5 411174. 4923.53  59
  -2   0  -4 528836. 5626.68  14
  -2   0  -4 518396. 5538.72  72
  -2   0  -4 531503. 5596.23  59
  -2   0  -3 188694. 2467.23  59
  -2   0  -3 191636. 1868.19   3
  -2   0  -3 191636. 2374.97  60
  -2   0  -3 195605. 2444.89  72
  -2   0  -2 87221.3 1331.09  59
  -2   0  -2 85321.1 1364.46   5
  -2   0  -2 84296.8 1281.95  60
  -2   0  -1 219386. 2277.36  59
  -2   0  -1 197868. 2322.81   5
  -2   0   0 28063.1 640.284   5
  -2   0   0 28829.4 573.687  60
  -2   0   0 28564.3 584.342  65
  -2   0   2 8855.25 316.198  60
  -2   0   2 9844.95 388.804  58
  -2   0   2 9704.34 436.390   2
  -2   0   3 376718. 4141.57  68
  -2   0   3 357888. 4006.67  65
  -2   0   3 387107. 4044.86  58
  -2   0   3 359128. 3711.70  60
  -2   0   3 404658. 4379.60   2
  -2   0   4 252844. 3221.81  58
  -2   0   4 258250. 3564.24   2
  -2   0   4 254729. 3249.70  22
  -2   0   4 263659. 3296.24  71
  -2   0   5 198927. 3159.15  68
  -2   0   5 201243. 3341.29   2
  -2   0   5 200959. 2976.99  58
  -2   0   5 200994. 3071.69  71
  -2   0   5 201855. 3134.82  11
  -2   0   5 199417. 3049.43  22
  -2   0   6 417940. 5476.86  68
  -2   0   6 410657. 5691.94   2
  -2   0   6 393246. 5379.51  11
  -2   0   6 396998. 5267.60  71
  -2   0   6 403292. 5278.37  22
  -2   0   6 406086. 5102.17  58
  -2   0   6 398248. 5299.20  27
  -2   0   7 191422. 3613.78  68
  -2   0   7 182075. 3230.08  58
  -2   0   7 189887. 3801.79   2
  -2   0   7 184988. 3496.18  22
  -2   0   7 189569. 3678.80  11
  -2   0   7 184907. 3513.30  27
  -2   0   7 188126. 3511.69  71
  -2   0   8 72123.3 2250.44  68
  -2   0   8 65457.2 2110.08  27
  -2   0   8 66640.0 2118.31  71
  -2   0   9 84861.6 2510.82  68
  -2   0   9 81558.3 2412.48  27
  -2   0   9 81593.1 2399.02  71
  -2   0  10 186640. 3717.00  23
  -2   0  10 198926. 3666.15  27
  -2   0  11 72186.6 1774.44  47
  -2   0  12 47263.3 1204.32  36
  -2   1 -10 82141.2 1762.06  40
  -2   1 -10 81314.6 1604.17  51
  -2   1 -10 80411.5 1856.94  91
  -2   1  -9 215526. 3384.25  51
  -2   1  -9 220443. 3638.15  40
  -2   1  -9 213063. 3814.38  91
  -2   1  -8 226111. 3849.07  40
  -2   1  -8 227659. 4173.61  91
  -2   1  -8 216526. 3686.22  89
  -2   1  -8 219414. 3594.20  51
  -2   1  -8 209205. 3778.53  21
  -2   1  -7 47252.6 1562.90  40
  -2   1  -7 47240.2 1600.77  21
  -2   1  -7 49896.1 1777.65  91
  -2   1  -7 43822.3 1426.44  51
  -2   1  -7 44824.3 1540.98  89
  -2   1  -7 42633.1 1566.99  76
  -2   1  -6 108824. 2442.44  14
  -2   1  -6 102627. 2308.02  21
  -2   1  -6 98863.1 2290.40  59
  -2   1  -6 107462. 2318.68  74
  -2   1  -6 114483. 2313.08  72
  -2   1  -5 256086. 3838.26  14
  -2   1  -5 264713. 3776.93  21
  -2   1  -5 263248. 3818.61  59
  -2   1  -5 259470. 3380.62  60
  -2   1  -4 362888. 4462.70  25
  -2   1  -4 374225. 4596.33  14
  -2   1  -4 364463. 4195.23  60
  -2   1  -4 361599. 4529.90  74
  -2   1  -3 226937. 2997.16  25
  -2   1  -3 239242. 3052.30  14
  -2   1  -3 224769. 2797.61  60
  -2   1  -3 235945. 3039.98  59
  -2   1  -2 77706.3 1370.11  25
  -2   1  -2 82213.3 1382.62  68
  -2   1  -2 78757.9 1293.09  60
  -2   1  -2 82555.1 1412.64  59
  -2   1  -1 25700.9 642.213   5
  -2   1  -1 26047.7 665.146  59
  -2   1  -1 24884.9 626.128  60
  -2   1   0 20388.9 546.325   5
  -2   1   0 21490.0 568.358  59
  -2   1   2 179056. 2213.39  60
  -2   1   2 182809. 2385.15  58
  -2   1   2 196697. 2183.73  11
  -2   1   2 196375. 2440.84   2
  -2   1   3 422362. 4571.86  23
  -2   1   3 413177. 4640.69  68
  -2   1   3 432526. 4488.78  11
  -2   1   3 427094. 4637.66  58
  -2   1   3 416859. 4542.90  71
  -2   1   4 315287. 3875.22  11
  -2   1   4 304284. 3933.47  68
  -2   1   4 331680. 4120.64   2
  -2   1   4 315759. 3913.07  58
  -2   1   4 323179. 3934.13  27
  -2   1   5 221531. 3379.55  68
  -2   1   5 214320. 3248.92  58
  -2   1   5 227636. 3384.49  11
  -2   1   5 225894. 3518.99   2
  -2   1   5 209935. 3270.61  27
  -2   1   5 201229. 3233.09  71
  -2   1   6 217819. 3623.29  71
  -2   1   6 212835. 3619.66  68
  -2   1   6 219242. 3532.38  58
  -2   1   6 217753. 3664.27  11
  -2   1   6 218729. 3638.84  27
  -2   1   7 310094. 4603.28  58
  -2   1   7 298331. 4788.77  68
  -2   1   7 296267. 4738.50  71
  -2   1   7 309698. 4991.13   2
  -2   1   7 301733. 4828.64  11
  -2   1   7 304428. 4798.12  27
  -2   1   8 136747. 3183.64  68
  -2   1   8 129979. 3075.25  27
  -2   1   8 134425. 3121.97  71
  -2   1   9 12579.5 938.867  68
  -2   1   9 12580.9 922.565  27
  -2   1   9 12511.7 836.193  45
  -2   1   9 14369.5 989.075  71
  -2   1  10 107305. 2683.04  23
  -2   1  10 105755. 2760.17  68
  -2   1  10 114088. 2782.42  27
  -2   1  10 110581. 2483.07  45
  -2   1  10 102817. 2645.42  71
  -2   1  11 54045.6 1636.74  47
  -2   1  12 105648. 2048.80  36
  -2   1  12 103853. 1862.44  82
  -2   1  12 102366. 1814.54  47
  -2   2 -10 64119.8 1419.97  56
  -2   2 -10 61919.8 1401.81  91
  -2   2  -9 109333. 2171.82  40
  -2   2  -9 108935. 2427.01  91
  -2   2  -9 107919. 2166.22  51
  -2   2  -8 264266. 4055.27  40
  -2   2  -8 233726. 4022.96  21
  -2   2  -8 267507. 4498.41  91
  -2   2  -8 245673. 3928.56  51
  -2   2  -7 164149. 3126.94  51
  -2   2  -7 171885. 3207.62  40
  -2   2  -7 160520. 3271.76  21
  -2   2  -7 172396. 3602.71  91
  -2   2  -7 168528. 3259.03  89
  -2   2  -6 24568.7 1068.82  40
  -2   2  -6 25032.1 1235.02  91
  -2   2  -6 23420.6 1112.04  21
  -2   2  -6 24697.6 1137.77  89
  -2   2  -6 25414.4 1145.13  74
  -2   2  -6 24275.6 1057.93  51
  -2   2  -5 74628.6 1907.25  21
  -2   2  -5 72957.2 1874.37  59
  -2   2  -5 71228.9 1925.31  74
  -2   2  -4 136872. 2486.03  25
  -2   2  -4 150916. 2590.00  14
  -2   2  -4 133154. 2149.27  60
  -2   2  -4 134071. 2459.03  59
  -2   2  -4 145407. 2551.57  21
  -2   2  -4 127263. 2540.84  74
  -2   2  -3 146613. 2373.81  25
  -2   2  -3 153411. 2385.86  14
  -2   2  -3 138723. 2110.47  60
  -2   2  -3 146643. 2386.00  59
  -2   2  -3 136243. 2446.84  74
  -2   2  -2 303457. 3578.52  25
  -2   2  -2 297922. 3445.83  14
  -2   2  -2 291345. 3543.99  68
  -2   2  -2 309033. 3632.35  59
  -2   2  -1 68085.9 1270.52  71
  -2   2  -1 68732.3 1302.70  68
  -2   2  -1 67164.6 1174.18   5
  -2   2  -1 66976.6 1294.58  59
  -2   2  -1 71274.2 1254.89   1
  -2   2  -1 65728.5 1213.64  60
  -2   2  -1 66338.3 1272.04  17
  -2   2  -1 66198.1 1260.17  25
  -2   2   0 240902. 2868.30  68
  -2   2   0 239235. 2527.18   1
  -2   2   0 248460. 2874.91  59
  -2   2   0 246653. 2856.22  17
  -2   2   0 235314. 2766.40  60
  -2   2   0 242557. 2824.15  71
  -2   2   1 340381. 3622.56   5
  -2   2   1 356389. 3874.26  68
  -2   2   1 354298. 3845.25  59
  -2   2   1 352970. 3933.36  58
  -2   2   1 349929. 3237.38   1
  -2   2   1 368625. 3849.54  17
  -2   2   1 368278. 3844.11  71
  -2   2   2 587963. 5996.66  68
  -2   2   2 592681. 5912.04  17
  -2   2   2 604782. 5919.92  71
  -2   2   3 218630. 3080.16  68
  -2   2   3 233360. 2973.52  23
  -2   2   3 231458. 2928.26  60
  -2   2   3 236686. 3174.52  58
  -2   2   3 244803. 3059.08   2
  -2   2   3 225728. 3038.34  71
  -2   2   4 214286. 3236.15  68
  -2   2   4 243611. 3313.19   2
  -2   2   4 217061. 3238.39  58
  -2   2   4 218856. 3224.55  71
  -2   2   4 239047. 3247.41  11
  -2   2   4 222646. 3089.14  23
  -2   2   4 236643. 3318.90  27
  -2   2   5 307801. 4038.47  23
  -2   2   5 291543. 4181.47  68
  -2   2   5 300042. 4205.98  58
  -2   2   5 305158. 4238.22   2
  -2   2   5 294857. 4237.72  27
  -2   2   5 289303. 4182.52  71
  -2   2   6 95877.6 2156.71  23
  -2   2   6 90325.8 2240.28  68
  -2   2   6 93301.8 2268.42  71
  -2   2   6 95745.9 2252.16  58
  -2   2   6 93577.8 2307.09  27
  -2   2   7 253125. 4244.79  58
  -2   2   7 251213. 4358.11  71
  -2   2   7 253284. 4394.71  27
  -2   2   8 131332. 2927.06  23
  -2   2   8 123445. 3020.88  68
  -2   2   8 122448. 2558.97  92
  -2   2   8 131063. 3130.60  27
  -2   2   8 120750. 2979.58  71
  -2   2   9 43350.4 1644.19  23
  -2   2   9 41581.0 1727.78  68
  -2   2   9 44917.9 1799.15  27
  -2   2   9 42812.3 1617.05  45
  -2   2   9 40969.3 1707.34  71
  -2   2  10 27805.4 1347.35  68
  -2   2  10 30922.0 1314.29  45
  -2   2  10 29927.8 1410.25  27
  -2   2  10 27861.1 1337.29  71
  -2   2  11 71917.9 1973.16  47
  -2   2  11 71610.0 1806.19  45
  -2   2  12 120271. 2145.95  47
  -2   2  12 117031. 2195.27  36
  -2   2  12 120391. 2199.19  82
  -2   3  -9 24786.8 960.913  91
  -2   3  -9 24166.7 954.447  56
  -2   3  -8 138392. 2928.41  56
  -2   3  -8 139166. 2945.52  91
  -2   3  -8 135110. 2636.26  51
  -2   3  -7 216319. 4060.71  91
  -2   3  -7 208207. 3610.00  51
  -2   3  -6 72433.9 1911.14  40
  -2   3  -6 66595.9 1907.60  37
  -2   3  -6 66553.4 2000.94  21
  -2   3  -6 70862.8 2215.84  91
  -2   3  -6 70056.4 1960.44  51
  -2   3  -5 8269.03 586.163  40
  -2   3  -5 6952.70 610.519  37
  -2   3  -5 7710.47 598.082  51
  -2   3  -5 8789.58 642.190  59
  -2   3  -5 6384.77 570.045  21
  -2   3  -5 8418.33 687.823  74
  -2   3  -5 9651.31 711.037  89
  -2   3  -5 6033.78 592.342  91
  -2   3  -4 33696.1 1243.70  21
  -2   3  -4 32357.5 1192.26  59
  -2   3  -3 163689. 2753.11  25
  -2   3  -3 162180. 2735.97  59
  -2   3  -2 473348. 5353.83  25
  -2   3  -2 475311. 5398.57  68
  -2   3  -2 487134. 5135.32  60
  -2   3  -2 478891. 5393.61  59
  -2   3  -1 434447. 4974.16  71
  -2   3  -1 443775. 4890.08  25
  -2   3  -1 466727. 5044.62  68
  -2   3  -1 439701. 4948.10  59
  -2   3  -1 466425. 4901.19   1
  -2   3  -1 441332. 5109.38  74
  -2   3  -1 449536. 4817.35  60
  -2   3  -1 434690. 4984.59  17
  -2   3   0 104445. 1843.47  68
  -2   3   0 106142. 1841.56  59
  -2   3   0 106817. 1786.61  60
  -2   3   0 117092. 1695.90   1
  -2   3   0 112501. 1915.31  17
  -2   3   0 113539. 1906.56  71
  -2   3   1 158825. 2331.24  68
  -2   3   1 156963. 1891.01   1
  -2   3   1 155115. 2329.38  17
  -2   3   1 161095. 2349.56  71
  -2   3   2 233142. 3148.99  68
  -2   3   2 233146. 3064.22  60
  -2   3   2 244053. 3176.77  59
  -2   3   2 244377. 3296.83  58
  -2   3   2 242973. 2776.06   5
  -2   3   2 234686. 3176.92  17
  -2   3   2 237140. 3166.73  71
  -2   3   3 534084. 5888.83  68
  -2   3   3 529461. 5963.01  58
  -2   3   3 543469. 5918.18  17
  -2   3   3 539835. 5895.50  71
  -2   3   4 231476. 3533.22  68
  -2   3   4 236326. 3253.27  23
  -2   3   4 240382. 3622.13  58
  -2   3   4 250354. 3370.00   2
  -2   3   4 247757. 3607.22  71
  -2   3   5 161005. 2665.34  23
  -2   3   5 162831. 3018.54  58
  -2   3   5 170829. 2857.23   2
  -2   3   5 163077. 3036.92  27
  -2   3   5 157636. 2948.15  71
  -2   3   6 29255.7 1251.19  68
  -2   3   6 31975.2 1255.51   2
  -2   3   6 31657.9 1305.99  58
  -2   3   6 31612.5 1343.26  27
  -2   3   6 28178.0 1246.76  71
  -2   3   7 72900.2 2149.36  58
  -2   3   7 75383.6 2134.88   2
  -2   3   7 75177.0 2252.02  27
  -2   3   7 68354.6 2113.90  71
  -2   3   8 184177. 3779.59  68
  -2   3   8 186015. 3463.33  92
  -2   3   8 185223. 3382.89  35
  -2   3   8 190986. 3861.37  71
  -2   3   9 198329. 3968.58  68
  -2   3   9 203422. 4055.82  71
  -2   3   9 203135. 3649.55  92
  -2   3   9 206522. 3910.69  45
  -2   3  10 71533.0 1882.44  92
  -2   3  10 65821.4 2051.38  68
  -2   3  10 72088.0 2165.71  47
  -2   3  10 75993.7 2262.09  27
  -2   3  10 71815.9 2086.72  45
  -2   3  10 69275.0 2125.80  71
  -2   3  11 22117.1 1043.55  36
  -2   3  11 23110.6 1073.78  47
  -2   3  12 52023.4 1378.23  82
  -2   3  12 50225.8 1278.15  36
  -2   3  12 51072.9 1326.53  47
  -2   4  -9 25884.7 753.534  91
  -2   4  -9 25895.6 752.610  56
  -2   4  -8 5525.58 469.786  91
  -2   4  -8 5908.10 485.016  56
  -2   4  -7 67713.4 2007.80  56
  -2   4  -7 65263.4 1974.09  91
  -2   4  -7 66596.0 1817.47  51
  -2   4  -6 174088. 3599.35  91
  -2   4  -6 173150. 3575.98  56
  -2   4  -6 177695. 3308.74  51
  -2   4  -5 136427. 2896.14  21
  -2   4  -5 134449. 3091.07  56
  -2   4  -5 136709. 3122.59  91
  -2   4  -5 134240. 2831.75  51
  -2   4  -5 140172. 2677.00  80
  -2   4  -4 68936.9 2149.47  37
  -2   4  -4 70835.1 2067.02  86
  -2   4  -4 79874.7 2182.96  56
  -2   4  -4 76044.0 2140.38  91
  -2   4  -4 72681.1 1950.69  51
  -2   4  -4 80361.6 2015.46  80
  -2   4  -4 81605.8 2091.17  21
  -2   4  -3 80647.6 1954.20  21
  -2   4  -3 72555.9 1852.51  59
  -2   4  -2 128547. 2402.94  25
  -2   4  -2 132391. 2485.51  68
  -2   4  -1 452532. 5389.76  71
  -2   4  -1 472408. 5233.40  25
  -2   4  -1 441512. 5320.01  68
  -2   4  -1 460807. 5132.55  60
  -2   4   0 312812. 4129.94  71
  -2   4   0 319024. 4100.11  68
  -2   4   0 324471. 4109.38  59
  -2   4   0 305709. 4131.33  17
  -2   4   0 326459. 3999.30  60
  -2   4   1 281148. 3688.79  68
  -2   4   1 283071. 3653.94  60
  -2   4   1 278399. 3788.13  17
  -2   4   1 283217. 3786.67  71
  -2   4   2 59267.4 1462.04  68
  -2   4   2 60014.1 1463.81  60
  -2   4   2 57845.8 1448.58  59
  -2   4   2 55440.1 1481.32  17
  -2   4   2 58070.8 1496.22  71
  -2   4   3 122764. 2294.92  68
  -2   4   3 121751. 2258.69  60
  -2   4   3 121293. 2310.47  59
  -2   4   3 119424. 2389.26  58
  -2   4   3 121428. 2346.10  71
  -2   4   3 122428. 2389.67  17
  -2   4   4 156395. 2810.59  68
  -2   4   4 157322. 2959.89  58
  -2   4   4 154213. 2893.94  17
  -2   4   4 155457. 2891.31  71
  -2   4   5 151091. 2933.91  68
  -2   4   5 149171. 3048.14  58
  -2   4   5 156552. 3070.25  17
  -2   4   5 155444. 3047.13  71
  -2   4   6 212478. 3863.96  27
  -2   4   6 204438. 3760.62  71
  -2   4   7 65999.4 1989.38  92
  -2   4   7 69582.7 2091.79  68
  -2   4   7 65432.2 1978.76  35
  -2   4   7 69485.8 1885.37  94
  -2   4   7 66789.2 2117.69  58
  -2   4   7 73727.1 2278.30  27
  -2   4   7 71443.8 2201.95  71
  -2   4   8 96189.6 2471.60  92
  -2   4   8 100288. 2590.88  45
  -2   4   8 101834. 2728.44  71
  -2   4   9 115827. 2815.43  68
  -2   4   9 118690. 2773.60  92
  -2   4   9 124843. 2951.93  47
  -2   4   9 130742. 2992.91  45
  -2   4   9 127046. 3068.95  71
  -2   4  10 181117. 3302.58  92
  -2   4  10 185951. 3390.08  36
  -2   4  10 179784. 3489.02  47
  -2   4  10 190263. 3682.71  27
  -2   4  10 179548. 3459.58  45
  -2   4  11 52860.2 1481.57  36
  -2   4  11 55016.7 1432.09  92
  -2   4  11 53437.3 1589.94  47
  -2   4  11 50385.1 1528.33  45
  -2   4  12 41811.5 1129.51  43
  -2   4  12 38569.0 948.524  36
  -2   4  12 40602.7 1107.29  47
  -2   4  12 40516.2 1134.18  82
  -2   5  -8 21911.7 723.864  56
  -2   5  -8 21309.9 716.159  91
  -2   5  -7 19015.5 887.410  56
  -2   5  -7 19227.0 894.666  91
  -2   5  -6 100144. 2454.97  56
  -2   5  -6 102125. 2473.07  91
  -2   5  -5 229503. 3729.38  80
  -2   5  -5 236108. 4205.64  56
  -2   5  -5 238867. 4228.46  91
  -2   5  -4 126401. 2922.45  91
  -2   5  -4 124165. 2748.89  80
  -2   5  -4 123075. 2885.80  56
  -2   5  -4 117122. 2585.32  52
  -2   5  -3 109143. 2569.35  91
  -2   5  -3 94304.1 2675.49  37
  -2   5  -3 116367. 2415.80  55
  -2   5  -3 106707. 2537.26  56
  -2   5  -3 100830. 2542.23  52
  -2   5  -3 107726. 2615.16  80
  -2   5  -2 77601.2 2286.43  37
  -2   5  -2 84730.3 2077.37  91
  -2   5  -2 79912.0 1980.37  59
  -2   5  -2 85399.3 2090.18  56
  -2   5  -2 75104.9 2196.09  52
  -2   5  -2 83020.4 2276.18  80
  -2   5  -2 72091.4 2109.20  95
  -2   5  -1 167464. 2986.79  68
  -2   5  -1 162959. 2900.81  59
  -2   5   0 235090. 3729.46  71
  -2   5   0 242260. 3655.30  68
  -2   5   0 240285. 3617.29  59
  -2   5   0 230071. 3721.72  17
  -2   5   1 158732. 2902.92  71
  -2   5   1 161911. 2794.99  68
  -2   5   1 161483. 2766.52  60
  -2   5   1 153634. 2751.90  59
  -2   5   1 163076. 2960.93  17
  -2   5   2 90617.2 2012.32  68
  -2   5   2 92813.3 2060.49  60
  -2   5   2 90861.4 2024.22  59
  -2   5   2 91090.1 2148.44  17
  -2   5   2 92370.9 2144.18  71
  -2   5   3 41147.1 1321.67  68
  -2   5   3 37852.2 1305.73  60
  -2   5   3 38524.7 1316.85  59
  -2   5   3 39615.3 1400.88  17
  -2   5   3 39428.1 1392.67  71
  -2   5   4 234680. 3956.06  17
  -2   5   4 226606. 3745.61  59
  -2   5   4 230203. 3902.66  58
  -2   5   4 239954. 3968.81  71
  -2   5   5 144313. 2852.68  68
  -2   5   5 137028. 2879.60  59
  -2   5   5 132785. 2951.55  58
  -2   5   5 146777. 3080.13  17
  -2   5   5 143121. 3035.60  71
  -2   5   6 184159. 3662.35  17
  -2   5   6 178154. 3358.20  68
  -2   5   6 179569. 3453.64  94
  -2   5   6 175173. 3479.60  92
  -2   5   6 177720. 3594.30  58
  -2   5   6 173094. 3152.53  75
  -2   5   6 175015. 3329.60  45
  -2   5   6 181573. 3615.54  71
  -2   5   7 123746. 2782.28  68
  -2   5   7 122050. 2807.33  94
  -2   5   7 125111. 2962.46  92
  -2   5   7 121154. 2975.76  17
  -2   5   7 126577. 2867.05  45
  -2   5   7 121273. 2980.50  71
  -2   5   8 51541.7 1699.37  94
  -2   5   8 52274.3 1859.12  92
  -2   5   8 56351.3 1827.98  47
  -2   5   8 56648.7 1986.25  17
  -2   5   8 56991.4 1908.05  45
  -2   5   8 54746.7 1945.42  71
  -2   5   9 85895.1 2361.19  92
  -2   5   9 89678.7 2354.84  34
  -2   5   9 84323.9 2319.41  45
  -2   5   9 87173.0 2290.73  47
  -2   5  10 163466. 3159.80  92
  -2   5  10 169337. 2959.59  34
  -2   5  10 163932. 3105.21  47
  -2   5  10 164064. 3179.07  45
  -2   5  11 126995. 2308.39  92
  -2   5  11 120409. 2299.67  47
  -2   5  11 123282. 2380.13  45
  -2   5  12 29224.3 868.859  43
  -2   5  12 28159.7 792.806  82
  -2   6  -7 22757.0 710.171  56
  -2   6  -7 22091.0 701.997  91
  -2   6  -6 26637.3 1012.13  56
  -2   6  -6 27026.9 1019.41  91
  -2   6  -5 153564. 2723.31  80
  -2   6  -5 157683. 3022.03  91
  -2   6  -5 156389. 3013.60  56
  -2   6  -4 185523. 3458.46  80
  -2   6  -4 191454. 3554.96  56
  -2   6  -4 188882. 3528.27  91
  -2   6  -3 142844. 2826.10  55
  -2   6  -3 144749. 3037.07  91
  -2   6  -3 149895. 3066.93  56
  -2   6  -3 143307. 3175.82  80
  -2   6  -2 39687.4 1612.81  95
  -2   6  -2 46226.9 1583.03  91
  -2   6  -2 46976.8 1588.69  56
  -2   6  -2 44454.3 1611.98  55
  -2   6  -2 42151.9 1739.53  52
  -2   6  -2 43967.9 1756.59  80
  -2   6  -1 35789.4 1323.44  91
  -2   6  -1 33058.9 1518.80  95
  -2   6  -1 33227.2 1396.47  85
  -2   6  -1 35800.2 1313.12  56
  -2   6  -1 34720.1 1592.91  52
  -2   6  -1 37161.3 1625.87  80
  -2   6   0 56052.5 1754.43  71
  -2   6   0 48283.1 1726.14  39
  -2   6   0 50574.2 1903.92  95
  -2   6   0 58020.4 1595.82  91
  -2   6   0 54933.5 1979.71  80
  -2   6   0 51780.2 1856.13  85
  -2   6   0 58019.6 1594.79  56
  -2   6   0 51533.7 1931.52  52
  -2   6   0 50952.1 1717.64  75
  -2   6   1 240505. 3966.14  71
  -2   6   1 218457. 4079.63  39
  -2   6   1 237345. 3705.42  59
  -2   6   1 211832. 4122.05  85
  -2   6   1 222355. 4198.12  95
  -2   6   1 250211. 4461.30  80
  -2   6   1 225670. 4225.22  52
  -2   6   1 207509. 3971.50  75
  -2   6   1 241183. 4001.59  17
  -2   6   2 170180. 3251.93  71
  -2   6   2 152773. 3107.44  94
  -2   6   2 153795. 3386.06  39
  -2   6   2 174843. 3108.52  59
  -2   6   2 152122. 3338.61  80
  -2   6   2 172905. 3269.27  34
  -2   6   2 160745. 3457.03  85
  -2   6   2 170303. 3387.77  52
  -2   6   2 165678. 3377.59  95
  -2   6   2 161214. 3420.70  75
  -2   6   2 168437. 3281.22  17
  -2   6   3 57243.7 1975.69  39
  -2   6   3 62569.0 1887.91  95
  -2   6   3 61599.7 1973.57  94
  -2   6   3 62869.6 1790.47  59
  -2   6   3 65086.9 2047.98  34
  -2   6   3 59930.9 1988.61  85
  -2   6   3 66071.4 1878.93  52
  -2   6   3 62847.9 1926.56  80
  -2   6   3 61405.5 2027.91  75
  -2   6   3 63278.4 1954.34  17
  -2   6   3 67606.0 1930.96  87
  -2   6   3 66809.6 1973.26  71
  -2   6   4 77592.6 2251.88  39
  -2   6   4 78992.4 2048.54  95
  -2   6   4 84828.9 2419.55  94
  -2   6   4 82910.1 2134.10  59
  -2   6   4 84888.5 2295.09  85
  -2   6   4 86592.1 2513.53  34
  -2   6   4 90569.3 2417.90  87
  -2   6   4 84518.1 2332.95  17
  -2   6   4 82043.6 2338.19  75
  -2   6   4 82975.0 2282.68  71
  -2   6   5 93035.2 2417.50  39
  -2   6   5 95782.5 2551.71  17
  -2   6   5 93958.5 2589.57  94
  -2   6   5 90776.8 2471.07  92
  -2   6   5 98229.1 2769.60  34
  -2   6   5 92266.2 2341.74  85
  -2   6   5 94484.9 2493.20  75
  -2   6   5 94517.0 2512.77  71
  -2   6   6 167963. 3559.61  17
  -2   6   6 160550. 3149.88  39
  -2   6   6 176471. 3636.94  94
  -2   6   6 174862. 3639.82  92
  -2   6   6 180735. 3905.61  34
  -2   6   6 168969. 3341.60  75
  -2   6   6 164873. 3525.16  71
  -2   6   7 211302. 3983.73  94
  -2   6   7 206978. 4074.04  92
  -2   6   7 207273. 3625.93  75
  -2   6   7 208251. 4047.74  17
  -2   6   7 216351. 3828.50  45
  -2   6   7 203601. 3980.88  71
  -2   6   8 129959. 3029.45  92
  -2   6   8 131726. 3087.66  34
  -2   6   8 119827. 2792.99  94
  -2   6   8 116645. 2886.02  17
  -2   6   8 122283. 2762.71  45
  -2   6   8 117634. 2860.37  71
  -2   6   9 23400.4 1058.04  94
  -2   6   9 22249.1 1149.72  92
  -2   6   9 23136.3 1136.94  34
  -2   6   9 20348.1 1037.50  45
  -2   6  10 47262.4 1392.71  34
  -2   6  10 44476.8 1465.27  92
  -2   6  10 44739.6 1291.31  47
  -2   6  10 44670.1 1412.46  45
  -2   6  11 94044.0 1897.60  43
  -2   6  11 92538.6 1842.38  92
  -2   7  -5 27492.6 818.789  80
  -2   7  -5 27315.0 913.559  91
  -2   7  -5 26922.0 913.441  56
  -2   7  -4 83885.5 1947.77  80
  -2   7  -4 86713.5 1975.92  91
  -2   7  -4 86262.7 1964.12  56
  -2   7  -3 92155.8 2177.25  56
  -2   7  -3 92341.6 2176.68  91
  -2   7  -3 92925.5 2357.31  80
  -2   7  -3 93072.6 2055.71  55
  -2   7  -2 101682. 2353.19  91
  -2   7  -2 103949. 2370.29  56
  -2   7  -2 103145. 2473.68  55
  -2   7  -2 96405.0 2618.10  52
  -2   7  -2 101774. 2691.53  80
  -2   7  -1 85238.1 2276.70  85
  -2   7  -1 91483.8 2183.34  56
  -2   7  -1 90032.0 2493.47  55
  -2   7  -1 84767.0 2571.41  52
  -2   7  -1 93258.7 2672.36  80
  -2   7  -1 92343.1 2182.44  91
  -2   7   0 8710.41 620.891  56
  -2   7   0 8129.06 739.929  85
  -2   7   0 8873.11 627.080  91
  -2   7   0 9599.87 828.939  55
  -2   7   0 7612.58 756.028  52
  -2   7   0 8285.07 792.052  80
  -2   7   1 101985. 2533.58  71
  -2   7   1 98762.0 2800.08  85
  -2   7   1 104777. 2859.41  52
  -2   7   1 105711. 2878.42  80
  -2   7   1 101016. 2686.60  75
  -2   7   1 97180.0 2754.22  95
  -2   7   2 116948. 2748.31  71
  -2   7   2 102734. 2851.43  39
  -2   7   2 124798. 2777.62  34
  -2   7   2 109756. 2977.89  85
  -2   7   2 116643. 2911.39  52
  -2   7   2 116152. 2944.85  80
  -2   7   2 110722. 2923.64  75
  -2   7   2 113989. 2753.13  17
  -2   7   3 161655. 3339.15  71
  -2   7   3 152670. 3545.15  39
  -2   7   3 156368. 3438.70  34
  -2   7   3 153773. 3543.24  85
  -2   7   3 163907. 3315.77  52
  -2   7   3 168435. 3416.35  80
  -2   7   3 160700. 3451.01  94
  -2   7   3 157841. 3587.55  75
  -2   7   3 159991. 3372.41  17
  -2   7   4 122829. 2880.36  71
  -2   7   4 118320. 3001.29  39
  -2   7   4 119455. 3041.86  94
  -2   7   4 121729. 3104.06  34
  -2   7   4 120130. 3002.48  85
  -2   7   4 113743. 2972.83  75
  -2   7   4 116987. 2862.94  17
  -2   7   4 124782. 2903.39  87
  -2   7   5 100781. 2632.80  39
  -2   7   5 98769.4 2795.43  94
  -2   7   5 96820.6 2554.25  85
  -2   7   5 109308. 2983.94  34
  -2   7   5 112031. 2837.85  87
  -2   7   5 103264. 2586.93  92
  -2   7   5 100502. 2698.71  75
  -2   7   5 99094.5 2645.43  17
  -2   7   5 104460. 2676.41  71
  -2   7   6 77697.6 2119.67  39
  -2   7   6 78390.9 2400.71  94
  -2   7   6 77403.7 2086.61  85
  -2   7   6 82136.9 2537.37  34
  -2   7   6 83428.9 2501.36  87
  -2   7   6 81537.9 2348.96  92
  -2   7   6 76967.4 2269.06  71
  -2   7   6 77474.4 2251.44  75
  -2   7   6 76257.8 2295.57  17
  -2   7   7 70643.2 1985.52  75
  -2   7   7 73331.5 2334.01  87
  -2   7   7 74821.1 2335.27  34
  -2   7   7 72935.1 2208.76  92
  -2   7   7 65855.7 2060.85  17
  -2   7   7 74213.5 2227.47  94
  -2   7   7 62288.2 1999.98  71
  -2   7   8 163644. 3280.65  94
  -2   7   8 164835. 3359.49  92
  -2   7   8 166677. 3406.75  34
  -2   7   8 166481. 3505.02  87
  -2   7   9 33871.8 1196.16  43
  -2   7   9 35817.2 1404.27  87
  -2   7   9 38142.3 1376.81  34
  -2   7   9 34287.2 1335.52  92
  -2   7   9 34574.7 1254.22  94
  -2   7  10 55380.9 1387.22  34
  -2   7  10 56409.4 1514.74  92
  -2   7  10 57958.1 1404.70  43
  -2   7  10 57605.4 1300.67  94
  -2   7  10 55749.7 1558.08  87
  -2   7  11 23260.4 762.797  87
  -2   7  11 22634.7 740.009  92
  -2   8  -3 61436.5 1393.25  56
  -2   8  -3 58335.1 1221.31  55
  -2   8  -3 59199.9 1516.47  80
  -2   8  -3 59271.2 1359.99  91
  -2   8  -2 88139.6 1853.08  91
  -2   8  -2 88003.6 2170.08  80
  -2   8  -2 88596.3 1870.16  56
  -2   8  -2 85890.0 1932.08  55
  -2   8  -1 91109.8 1959.76  91
  -2   8  -1 85148.4 2203.19  55
  -2   8  -1 86114.7 2329.25  80
  -2   8   0 34938.4 1481.36  55
  -2   8   0 35759.0 1183.73  91
  -2   8   0 32771.2 1477.25  52
  -2   8   0 36080.4 1537.54  80
  -2   8   1 42889.0 1734.91  55
  -2   8   1 45584.8 1762.02  52
  -2   8   1 44909.9 1752.96  80
  -2   8   2 143395. 3350.66  85
  -2   8   2 147075. 3227.31  80
  -2   8   2 145776. 3225.01  52
  -2   8   2 152001. 3447.52  55
  -2   8   3 129476. 2883.06  71
  -2   8   3 139293. 2790.80  87
  -2   8   3 143005. 3047.73  34
  -2   8   3 135724. 3236.44  85
  -2   8   3 138506. 2947.17  52
  -2   8   3 132541. 3177.75  75
  -2   8   3 138181. 3016.46  94
  -2   8   3 128677. 2909.14  17
  -2   8   3 132294. 2880.12  80
  -2   8   4 100363. 2495.99  71
  -2   8   4 101619. 2669.12  34
  -2   8   4 105624. 2729.30  85
  -2   8   4 103874. 2687.72  94
  -2   8   4 104536. 2758.90  75
  -2   8   4 101190. 2533.94  17
  -2   8   4 109498. 2535.65  87
  -2   8   5 57801.5 1836.57  71
  -2   8   5 62344.3 1933.33  87
  -2   8   5 62376.9 2060.89  94
  -2   8   5 64947.5 2133.41  34
  -2   8   5 64987.3 2067.08  75
  -2   8   5 57327.6 1854.82  17
  -2   8   6 43762.8 1527.28  92
  -2   8   6 45979.1 1720.49  94
  -2   8   6 42843.4 1592.86  87
  -2   8   6 46393.9 1753.74  34
  -2   8   7 59757.3 1797.28  92
  -2   8   7 59859.5 1848.30  87
  -2   8   7 57628.4 1731.05  88
  -2   8   7 63634.2 1972.70  34
  -2   8   7 58197.0 1841.77  94
  -2   8   8 119885. 2492.45  92
  -2   8   8 122579. 2535.05  94
  -2   8   8 116526. 2512.01  87
  -2   8   8 126763. 2627.62  34
  -2   8   9 57392.2 1486.32  34
  -2   8   9 60559.1 1547.47  92
  -2   8   9 56215.9 1444.33  94
  -2   8   9 56065.2 1504.13  87
  -2   8  10 35760.0 963.762  87
  -2   8  10 34434.3 963.043  92
  -2   9  -2 42269.5 1031.99  80
  -2   9  -1 137364. 2259.72  55
  -2   9  -1 140001. 2412.80  80
  -2   9   0 128359. 2467.42  80
  -2   9   0 129155. 2478.78  55
  -2   9   1 33807.1 1286.75  55
  -2   9   1 33602.8 1215.34  80
  -2   9   2 41849.0 1485.02  55
  -2   9   2 42328.6 1341.36  80
  -2   9   3 49460.8 1667.27  88
  -2   9   3 50564.9 1624.07  55
  -2   9   4 105041. 2044.39  87
  -2   9   4 103531. 2260.70  34
  -2   9   4 97592.5 2212.19  55
  -2   9   4 100196. 2211.23  94
  -2   9   4 103617. 2486.68  88
  -2   9   5 112451. 2137.94  55
  -2   9   5 109337. 2183.18  87
  -2   9   5 111429. 2430.53  34
  -2   9   5 111478. 2531.82  88
  -2   9   5 110377. 2424.35  94
  -2   9   6 46124.1 1483.78  94
  -2   9   6 43105.9 1428.75  34
  -2   9   6 45190.3 1314.55  87
  -2   9   6 45921.7 1444.04  88
  -2   9   7 20356.4 826.601  88
  -2   9   7 22933.2 953.582  34
  -2   9   7 22322.2 946.527  94
  -2   9   7 20927.6 836.777  87
  -2   9   8 29778.3 967.144  34
  -2   9   8 28879.0 818.513  92
  -2   9   8 29592.6 897.006  87
  -2   9   8 28169.2 940.411  94
  -2  10   2 31827.6 894.056  55
  -2  10   3 21953.3 726.678  55
  -2  10   4 32240.7 934.639  88
  -2  10   5 61411.4 1312.08  88
  -1 -11  -7 86920.2 1407.56  81
  -1 -11  -7 94615.0 1454.49  89
  -1 -11  -6 82257.3 1508.39  89
  -1 -11  -6 82259.4 1506.92  81
  -1 -11  -6 86042.6 1443.32  32
  -1 -11  -6 82798.3 1344.12  46
  -1 -11  -5 46002.6 1151.99  89
  -1 -11  -5 45143.6 1142.83  81
  -1 -11  -5 45191.5 1075.40  46
  -1 -11  -4 8895.10 501.387  89
  -1 -11  -4 8557.14 435.952  32
  -1 -11  -4 7578.44 454.842  46
  -1 -11  -3 59571.9 1356.46  89
  -1 -11  -3 60605.5 1200.24  32
  -1 -11  -2 84245.9 1567.75  89
  -1 -10  -9 70637.3 1291.00  32
  -1 -10  -9 66364.4 1150.16  89
  -1 -10  -9 67841.3 1273.05  77
  -1 -10  -9 69926.6 1217.43  76
  -1 -10  -8 20524.2 743.892  89
  -1 -10  -8 21392.4 734.806  81
  -1 -10  -8 21610.0 779.169  32
  -1 -10  -8 21129.8 730.721  76
  -1 -10  -8 21149.2 766.531  77
  -1 -10  -7 51478.0 1281.90  76
  -1 -10  -7 47468.8 1325.61  81
  -1 -10  -7 50909.2 1349.92  32
  -1 -10  -7 49802.8 1306.71  77
  -1 -10  -7 48909.3 1191.35  46
  -1 -10  -7 48079.9 1335.60  89
  -1 -10  -6 74974.7 1833.35  89
  -1 -10  -6 78080.8 1728.50  77
  -1 -10  -6 76339.3 1803.39  32
  -1 -10  -6 78580.7 1706.70  76
  -1 -10  -5 162626. 2955.42  89
  -1 -10  -5 158505. 2613.87  77
  -1 -10  -5 159442. 2835.99  32
  -1 -10  -5 163360. 2670.96  76
  -1 -10  -5 159992. 2760.69  31
  -1 -10  -5 150863. 2705.19  74
  -1 -10  -4 61260.7 1786.75  89
  -1 -10  -4 60780.5 1675.58  32
  -1 -10  -4 63060.8 1743.70  31
  -1 -10  -4 61130.7 1732.75  74
  -1 -10  -4 63842.6 1555.23  76
  -1 -10  -3 14551.7 841.778  31
  -1 -10  -3 16579.4 844.003  32
  -1 -10  -3 14759.5 864.159  74
  -1 -10  -2 50562.4 1657.26  74
  -1 -10  -2 49856.2 1469.02  32
  -1 -10  -1 55518.6 1477.79  32
  -1  -9 -10 52797.6 1000.40  89
  -1  -9 -10 57344.2 1226.73  32
  -1  -9 -10 56508.4 1234.09  77
  -1  -9 -10 55969.8 1207.90  76
  -1  -9  -9 131069. 2328.38  77
  -1  -9  -9 128741. 2143.11  89
  -1  -9  -9 123599. 1974.05  81
  -1  -9  -9 128977. 2287.94  32
  -1  -9  -9 131370. 2278.29  76
  -1  -9  -8 69766.6 1725.17  89
  -1  -9  -8 71101.3 1776.69  32
  -1  -9  -8 73766.7 1773.30  76
  -1  -9  -8 69990.3 1517.18  46
  -1  -9  -8 72224.4 1808.99  77
  -1  -9  -7 46828.9 1517.11  89
  -1  -9  -7 47884.4 1529.70  32
  -1  -9  -7 47507.3 1532.18  77
  -1  -9  -7 46864.0 1476.61  76
  -1  -9  -7 49538.5 1557.52  29
  -1  -9  -7 47303.8 1406.33  46
  -1  -9  -6 43241.1 1540.77  89
  -1  -9  -6 47816.0 1597.65  32
  -1  -9  -6 46710.1 1442.71  31
  -1  -9  -6 44794.3 1519.46  77
  -1  -9  -6 45297.2 1496.99  76
  -1  -9  -6 41350.6 1439.67  46
  -1  -9  -6 44264.6 1413.94  74
  -1  -9  -5 99904.7 2435.17  70
  -1  -9  -5 99648.7 2375.26  67
  -1  -9  -5 99481.3 2327.48  77
  -1  -9  -5 93946.4 2456.95  89
  -1  -9  -5 96925.3 2403.91  32
  -1  -9  -5 100230. 2388.79  31
  -1  -9  -5 98261.1 2388.48  74
  -1  -9  -5 103080. 2354.56  76
  -1  -9  -4 207445. 3744.46  70
  -1  -9  -4 204596. 3767.93  67
  -1  -9  -4 200161. 3738.92  31
  -1  -9  -4 203021. 3460.44  77
  -1  -9  -4 199965. 3684.19  32
  -1  -9  -4 217402. 3549.87  19
  -1  -9  -4 205403. 3550.38  76
  -1  -9  -4 200716. 3775.64  74
  -1  -9  -3 32257.9 1344.90  70
  -1  -9  -3 32215.8 1407.01  67
  -1  -9  -3 33885.7 1356.96  19
  -1  -9  -3 30758.5 1320.91  32
  -1  -9  -3 31167.5 1234.56  76
  -1  -9  -3 31686.8 1438.68  26
  -1  -9  -2 27408.2 1295.41  67
  -1  -9  -2 25267.4 1165.83  70
  -1  -9  -2 29939.5 1327.59  19
  -1  -9  -2 27799.6 1342.99  26
  -1  -9  -1 43389.7 1653.15  67
  -1  -9  -1 44415.2 1662.61  19
  -1  -9  -1 41898.3 1639.35  26
  -1  -9   0 71664.2 2122.59  26
  -1  -9   0 76599.4 2162.08  67
  -1  -9   1 175090. 3373.69  26
  -1  -8 -11 56687.5 1180.43  32
  -1  -8 -11 53997.1 1135.89  77
  -1  -8 -11 55266.1 1197.40  76
  -1  -8 -10 23391.7 905.256  77
  -1  -8 -10 23715.6 781.423  89
  -1  -8 -10 23898.9 916.098  76
  -1  -8 -10 23664.8 903.242  32
  -1  -8  -9 84937.2 1889.72  89
  -1  -8  -9 87738.4 2027.14  32
  -1  -8  -9 88402.1 2082.18  77
  -1  -8  -9 84074.3 2010.74  76
  -1  -8  -9 87914.5 1975.50  29
  -1  -8  -8 85807.5 2061.23  70
  -1  -8  -8 88646.8 2134.36  89
  -1  -8  -8 83960.3 2006.02  81
  -1  -8  -8 89198.1 2186.58  32
  -1  -8  -8 90859.5 2262.13  77
  -1  -8  -8 90988.5 2208.93  76
  -1  -8  -8 89910.3 2170.95  29
  -1  -8  -8 87031.7 1917.15  46
  -1  -8  -7 169940. 3225.75  70
  -1  -8  -7 171792. 3314.15  32
  -1  -8  -7 168666. 3269.03  89
  -1  -8  -7 175847. 3310.98  76
  -1  -8  -7 181664. 3397.84  29
  -1  -8  -7 176487. 3389.05  77
  -1  -8  -7 166306. 3056.51  46
  -1  -8  -6 51666.1 1723.21  70
  -1  -8  -6 49155.0 1725.98  89
  -1  -8  -6 49169.7 1691.56  77
  -1  -8  -6 51683.0 1732.99  32
  -1  -8  -6 50215.9 1579.25  31
  -1  -8  -6 50847.1 1673.85  76
  -1  -8  -6 48375.6 1557.30  74
  -1  -8  -6 44519.5 1554.73  46
  -1  -8  -5 35852.9 1455.41  70
  -1  -8  -5 37015.5 1434.13  77
  -1  -8  -5 39588.8 1466.46  67
  -1  -8  -5 37932.1 1487.00  32
  -1  -8  -5 38015.2 1427.78  76
  -1  -8  -5 36199.3 1429.38  74
  -1  -8  -5 37216.2 1438.66  31
  -1  -8  -4 115075. 2705.76  70
  -1  -8  -4 107505. 2589.07  67
  -1  -8  -4 106344. 2579.46  32
  -1  -8  -4 106745. 2480.22  77
  -1  -8  -4 111209. 2525.59  76
  -1  -8  -3 126501. 2895.41  70
  -1  -8  -3 129585. 2924.32  67
  -1  -8  -3 129884. 3040.06  26
  -1  -8  -3 129704. 2829.92  10
  -1  -8  -3 126734. 2703.54  76
  -1  -8  -2 62654.9 1961.41  70
  -1  -8  -2 69337.3 1918.14  76
  -1  -8  -2 71583.8 2127.58  10
  -1  -8  -2 67487.8 2079.29  67
  -1  -8  -2 68854.9 2155.11  26
  -1  -8  -1 125383. 2826.23  70
  -1  -8  -1 129666. 2996.36  67
  -1  -8  -1 129794. 3063.45  10
  -1  -8  -1 129235. 3090.48  26
  -1  -8   0 92945.6 2325.62  70
  -1  -8   0 99825.4 2594.77  67
  -1  -8   0 97736.4 2621.85  26
  -1  -8   1 98477.5 2554.01  67
  -1  -8   1 96389.5 2608.47  26
  -1  -8   2 166673. 3270.73  67
  -1  -8   2 164130. 3493.28  19
  -1  -8   2 168561. 3492.04  26
  -1  -7 -12 66982.4 1190.27  76
  -1  -7 -11 49922.9 1290.49  76
  -1  -7 -11 47228.4 1203.74  83
  -1  -7 -11 49288.7 1246.10  32
  -1  -7 -11 48663.5 1188.54  77
  -1  -7 -10 78229.2 1779.56  84
  -1  -7 -10 77980.9 1644.41  89
  -1  -7 -10 76834.2 1858.23  32
  -1  -7 -10 78433.5 1877.16  77
  -1  -7 -10 77719.4 1900.97  76
  -1  -7 -10 75363.1 1798.70  83
  -1  -7  -9 86083.9 2123.73  32
  -1  -7  -9 86644.3 2018.49  84
  -1  -7  -9 86003.1 1998.63  89
  -1  -7  -9 90278.1 2206.29  76
  -1  -7  -9 87905.5 2112.32  29
  -1  -7  -8 66539.1 1805.69  70
  -1  -7  -8 64840.7 1840.75  89
  -1  -7  -8 65336.5 1751.78  84
  -1  -7  -8 67272.6 1775.33  81
  -1  -7  -8 68915.3 1965.40  32
  -1  -7  -8 70389.1 2017.67  77
  -1  -7  -8 65689.6 1934.65  76
  -1  -7  -8 71045.8 1970.55  29
  -1  -7  -8 63738.1 1657.74  46
  -1  -7  -7 160541. 3081.49  70
  -1  -7  -7 155193. 3089.47  89
  -1  -7  -7 158325. 3148.92  32
  -1  -7  -7 146458. 3109.12  77
  -1  -7  -7 159184. 3151.93  76
  -1  -7  -7 158907. 3173.67  29
  -1  -7  -7 154759. 2903.37  46
  -1  -7  -6 35231.4 1377.89  70
  -1  -7  -6 35742.8 1404.05  89
  -1  -7  -6 34515.8 1272.10  31
  -1  -7  -6 36574.8 1420.66  77
  -1  -7  -6 35487.8 1364.20  76
  -1  -7  -6 32873.6 1242.79  74
  -1  -7  -6 35112.7 1383.01  32
  -1  -7  -6 31702.8 1264.45  46
  -1  -7  -5 48810.2 1632.19  70
  -1  -7  -5 45627.0 1568.63  32
  -1  -7  -5 46198.1 1539.36  31
  -1  -7  -5 49744.1 1555.81  67
  -1  -7  -5 46017.8 1562.19  77
  -1  -7  -5 46303.8 1543.58  76
  -1  -7  -5 46250.8 1560.92  74
  -1  -7  -4 115891. 2618.64  70
  -1  -7  -4 107363. 2489.96   3
  -1  -7  -4 114660. 2506.95  67
  -1  -7  -4 111610. 2434.41  76
  -1  -7  -4 109262. 2487.82  32
  -1  -7  -4 111546. 2663.38  26
  -1  -7  -4 110829. 2435.50  77
  -1  -7  -3 413653. 5496.92   3
  -1  -7  -3 404120. 5515.91  67
  -1  -7  -3 406684. 5779.62  26
  -1  -7  -2 209892. 3686.16  70
  -1  -7  -2 211203. 3496.49   3
  -1  -7  -2 214579. 3724.48  67
  -1  -7  -2 222874. 3834.93  10
  -1  -7  -2 217924. 3821.94  18
  -1  -7  -2 219803. 3894.86  26
  -1  -7  -1 66388.4 1924.86  70
  -1  -7  -1 71103.1 1991.36  67
  -1  -7  -1 71790.1 2115.67  10
  -1  -7  -1 64382.0 1928.35  18
  -1  -7  -1 72909.9 2128.32  63
  -1  -7  -1 72109.1 2086.23  26
  -1  -7   0 111523. 2524.68  70
  -1  -7   0 116784. 2675.69  67
  -1  -7   0 115048. 2860.39  10
  -1  -7   0 116820. 2607.11  18
  -1  -7   0 118100. 2896.42   7
  -1  -7   0 119315. 2867.78  63
  -1  -7   1 26818.0 1150.56  70
  -1  -7   1 26656.2 1235.52  67
  -1  -7   1 26697.1 1162.81  18
  -1  -7   1 25057.5 1331.77  10
  -1  -7   2 292519. 4598.24  67
  -1  -7   2 278413. 5063.23  10
  -1  -7   3 115727. 2808.58  19
  -1  -7   4 46557.8 1687.34  69
  -1  -6 -12 113815. 1789.00  40
  -1  -6 -12 116027. 1901.07  83
  -1  -6 -12 114606. 1854.43  76
  -1  -6 -11 83231.1 1830.67  40
  -1  -6 -11 85828.8 1772.00  93
  -1  -6 -11 84167.2 1908.00  83
  -1  -6 -11 84531.1 1819.49  32
  -1  -6 -11 85938.8 1687.60  50
  -1  -6 -11 84927.8 1709.89  77
  -1  -6 -11 84146.2 1874.89  76
  -1  -6 -10 96468.6 2126.41  93
  -1  -6 -10 93553.1 2242.83  83
  -1  -6 -10 95229.4 1916.22  89
  -1  -6 -10 96248.4 2213.66  84
  -1  -6 -10 93026.7 2132.48  77
  -1  -6 -10 95635.1 2180.57  32
  -1  -6 -10 94873.2 2037.97  50
  -1  -6 -10 95229.3 2232.20  76
  -1  -6  -9 31762.9 1170.75  89
  -1  -6  -9 31147.5 1301.31  83
  -1  -6  -9 30671.5 1204.34  93
  -1  -6  -9 30613.5 1249.39  84
  -1  -6  -9 30672.2 1259.84  32
  -1  -6  -9 31765.8 1192.48  50
  -1  -6  -9 31406.3 1282.21  77
  -1  -6  -9 30801.2 1285.65  76
  -1  -6  -9 29184.7 1204.74  29
  -1  -6  -8 21674.9 978.570  70
  -1  -6  -8 19887.3 969.948  89
  -1  -6  -8 20209.4 997.042  84
  -1  -6  -8 20437.2 1035.32  32
  -1  -6  -8 20059.1 960.818  93
  -1  -6  -8 20330.5 941.741  50
  -1  -6  -8 20299.7 1048.61  77
  -1  -6  -8 18447.6 994.921  76
  -1  -6  -8 19599.6 1002.70  29
  -1  -6  -8 20065.8 892.316  46
  -1  -6  -8 19889.0 1016.30  83
  -1  -6  -7 146408. 2809.25  70
  -1  -6  -7 143268. 2812.04  89
  -1  -6  -7 138604. 2890.79  77
  -1  -6  -7 139802. 2690.35  84
  -1  -6  -7 131865. 2670.60  83
  -1  -6  -7 129171. 2775.05  76
  -1  -6  -7 137566. 2832.34  32
  -1  -6  -7 140704. 2875.99  29
  -1  -6  -7 133862. 2598.96  46
  -1  -6  -6 327240. 4627.24  70
  -1  -6  -6 324997. 4661.92   3
  -1  -6  -6 305590. 4584.58  77
  -1  -6  -6 303480. 4498.54  89
  -1  -6  -6 320423. 4320.58  31
  -1  -6  -6 312665. 4565.39  32
  -1  -6  -6 316360. 4555.35  76
  -1  -6  -6 316704. 4310.80  74
  -1  -6  -5 162347. 2961.53  70
  -1  -6  -5 164692. 2744.83  67
  -1  -6  -5 163298. 3011.47   3
  -1  -6  -5 154594. 2802.84  31
  -1  -6  -5 155731. 2827.45  74
  -1  -6  -4 68899.8 1797.41   3
  -1  -6  -4 65803.9 1770.56  70
  -1  -6  -4 63816.3 1631.02  67
  -1  -6  -4 64359.0 1825.98  26
  -1  -6  -3 167567. 2979.38  70
  -1  -6  -3 174080. 2902.78  67
  -1  -6  -3 171646. 2929.04  10
  -1  -6  -3 176310. 3100.91  18
  -1  -6  -3 164230. 3057.33  26
  -1  -6  -3 168474. 2952.82   3
  -1  -6  -2 322436. 4512.01  70
  -1  -6  -2 347544. 4548.46  67
  -1  -6  -2 326067. 4589.52  18
  -1  -6  -2 347235. 4685.65  10
  -1  -6  -2 338856. 4474.01   3
  -1  -6  -2 332375. 4669.95  26
  -1  -6  -1 277435. 4045.64  70
  -1  -6  -1 294281. 4348.50  63
  -1  -6  -1 290172. 4165.13  18
  -1  -6  -1 293363. 4405.74   7
  -1  -6  -1 296984. 4356.12  10
  -1  -6  -1 288597. 3908.92   3
  -1  -6   0 211195. 3368.30  70
  -1  -6   0 214015. 3414.95  18
  -1  -6   0 218236. 3766.55   7
  -1  -6   0 210866. 3679.29  63
  -1  -6   1 34119.7 1198.18  70
  -1  -6   1 36211.9 1244.94  18
  -1  -6   1 36286.7 1461.73  63
  -1  -6   1 37250.1 1497.46   7
  -1  -6   2 31982.7 1469.33   7
  -1  -6   2 29448.6 1390.63  63
  -1  -6   2 29856.3 1262.28   6
  -1  -6   3 129301. 2648.44  67
  -1  -6   3 121300. 3073.95  63
  -1  -6   3 120702. 3117.57   7
  -1  -5 -12 21497.9 769.703  40
  -1  -5 -12 19490.0 770.606  83
  -1  -5 -12 21557.1 764.908  76
  -1  -5 -11 69030.4 1769.70  40
  -1  -5 -11 66493.6 1794.31  83
  -1  -5 -11 65034.0 1472.52  77
  -1  -5 -11 63438.5 1621.55  32
  -1  -5 -11 68720.4 1624.31  50
  -1  -5 -11 67947.6 1721.25  76
  -1  -5 -11 67975.1 1703.53  93
  -1  -5 -10 77649.5 2076.86  84
  -1  -5 -10 72598.7 1862.91  72
  -1  -5 -10 80855.3 2169.22  83
  -1  -5 -10 79510.3 2036.88  93
  -1  -5 -10 80942.5 2024.60  32
  -1  -5 -10 81229.6 1979.47  50
  -1  -5 -10 79285.9 1925.48  77
  -1  -5 -10 81835.0 2091.01  76
  -1  -5  -9 185568. 3469.77  84
  -1  -5  -9 189737. 3426.06  32
  -1  -5  -9 190125. 3150.48  89
  -1  -5  -9 190499. 3491.52  76
  -1  -5  -9 191342. 3388.52  77
  -1  -5  -9 191968. 3327.76  50
  -1  -5  -9 192109. 3612.12  83
  -1  -5  -9 187440. 3396.42  93
  -1  -5  -8 64071.4 1862.34  76
  -1  -5  -8 59251.4 1672.24  89
  -1  -5  -8 61309.0 1871.86  83
  -1  -5  -8 62740.3 1832.81  84
  -1  -5  -8 62652.5 1816.03  32
  -1  -5  -8 65354.4 1758.51  50
  -1  -5  -8 65816.1 1864.95  77
  -1  -5  -8 65463.4 1839.62  29
  -1  -5  -8 65117.7 1809.82  93
  -1  -5  -8 60909.6 1706.13  72
  -1  -5  -7 58589.5 1616.29   3
  -1  -5  -7 62650.2 1641.83  70
  -1  -5  -7 54098.9 1598.81  84
  -1  -5  -7 61178.4 1726.66  29
  -1  -5  -7 56596.1 1777.79  60
  -1  -5  -7 58857.6 1619.04  89
  -1  -5  -7 53705.8 1643.13  83
  -1  -5  -7 61204.6 1727.41  77
  -1  -5  -7 56885.5 1667.27  76
  -1  -5  -7 56437.7 1652.36  32
  -1  -5  -7 57461.2 1564.27  72
  -1  -5  -6 276696. 3981.32   3
  -1  -5  -6 269414. 4222.18  60
  -1  -5  -6 267995. 4022.70  29
  -1  -5  -6 274869. 3731.31  72
  -1  -5  -5 283261. 3952.09   3
  -1  -5  -5 287560. 3921.21  70
  -1  -5  -5 296276. 3614.59  67
  -1  -5  -5 276638. 3718.30  31
  -1  -5  -5 270296. 3723.39  74
  -1  -5  -5 268076. 3510.46  72
  -1  -5  -4 284968. 3864.31   3
  -1  -5  -4 271430. 3770.61  70
  -1  -5  -4 273119. 3543.74  67
  -1  -5  -4 289380. 3366.74  72
  -1  -5  -3 101335. 1994.93  70
  -1  -5  -3 104753. 1880.56  67
  -1  -5  -3 102990. 1930.40  10
  -1  -5  -3 100397. 2016.19  18
  -1  -5  -3 100876. 1985.10   3
  -1  -5  -2 192128. 2887.88  10
  -1  -5  -2 192406. 2876.48  18
  -1  -5  -2 184459. 2789.36   3
  -1  -5  -2 188980. 2903.54  26
  -1  -5  -1 338639. 4166.90  70
  -1  -5  -1 334874. 4005.70  24
  -1  -5  -1 345664. 4431.00  63
  -1  -5  -1 339473. 4203.90  18
  -1  -5  -1 334534. 4440.05   7
  -1  -5  -1 339271. 4102.51   3
  -1  -5   0 182509. 2781.86  70
  -1  -5   0 201060. 3217.96   7
  -1  -5   0 187804. 2642.56  24
  -1  -5   0 198144. 3178.82  63
  -1  -5   0 185833. 2821.65  18
  -1  -5   0 198645. 2711.34   3
  -1  -5   1 155638. 2325.06  24
  -1  -5   1 149859. 2859.53  63
  -1  -5   1 157481. 2925.38   7
  -1  -5   2 3956.29 352.843  13
  -1  -5   2 4230.08 353.653  66
  -1  -5   2 3458.56 419.072  63
  -1  -5   2 3636.46 433.054   7
  -1  -5   3 59816.1 1611.79  13
  -1  -5   3 62196.8 1606.75  64
  -1  -5   3 58618.1 1566.66  66
  -1  -5   3 62320.2 1621.13   8
  -1  -5   3 50328.1 1782.14  63
  -1  -5   3 51325.2 1810.30   7
  -1  -5   3 58435.2 1671.94   6
  -1  -5   4 147748. 2919.82   8
  -1  -5   4 121210. 3083.57  63
  -1  -5   4 152204. 2922.22  66
  -1  -5   4 151969. 2934.50  64
  -1  -5   4 128064. 3189.53   7
  -1  -5   4 152800. 2979.45  13
  -1  -5   4 159420. 2936.21  12
  -1  -5   4 147166. 2890.33   6
  -1  -5   5 221472. 4000.82  13
  -1  -5   5 218314. 3908.56  66
  -1  -5   5 220215. 3904.20  12
  -1  -5   6 191623. 3818.25  13
  -1  -5   6 189015. 3719.98  66
  -1  -4 -12 13226.4 626.121  40
  -1  -4 -12 12626.3 626.421  83
  -1  -4 -12 12670.5 592.712  76
  -1  -4 -11 58033.7 1663.96  40
  -1  -4 -11 57734.3 1694.66  83
  -1  -4 -11 56536.7 1592.39  76
  -1  -4 -11 56212.8 1617.96  93
  -1  -4 -10 40386.2 1420.54  72
  -1  -4 -10 44582.1 1550.20  93
  -1  -4 -10 44268.0 1602.92  83
  -1  -4 -10 42402.7 1458.30  32
  -1  -4 -10 42063.2 1444.19  50
  -1  -4 -10 44568.6 1362.44  77
  -1  -4 -10 45049.4 1550.10  76
  -1  -4  -9 210585. 3765.93  84
  -1  -4  -9 215175. 3874.41  83
  -1  -4  -9 195338. 3519.37  32
  -1  -4  -9 207723. 3560.80  50
  -1  -4  -9 202196. 3426.67  77
  -1  -4  -9 200478. 3619.88  76
  -1  -4  -9 216475. 3734.24  93
  -1  -4  -9 194438. 3501.59  72
  -1  -4  -8 254899. 4181.57  83
  -1  -4  -8 239840. 3981.21  60
  -1  -4  -8 246218. 3687.77  89
  -1  -4  -8 244018. 3835.23  50
  -1  -4  -8 256506. 3901.10  77
  -1  -4  -8 245657. 4012.47  84
  -1  -4  -8 256554. 4041.67  76
  -1  -4  -8 247683. 3930.40  32
  -1  -4  -8 252414. 3951.31  72
  -1  -4  -8 251170. 3985.11  93
  -1  -4  -7 116757. 2567.25  60
  -1  -4  -7 124541. 2509.23  29
  -1  -4  -7 122927. 2443.66  72
  -1  -4  -6 130737. 2267.09  70
  -1  -4  -6 126931. 2269.78   3
  -1  -4  -6 121955. 2508.63  60
  -1  -4  -6 127082. 2384.59  29
  -1  -4  -6 119858. 2235.38  72
  -1  -4  -5 223428. 3048.98  72
  -1  -4  -5 223042. 3171.42   3
  -1  -4  -4 365685. 4318.55  70
  -1  -4  -4 387825. 4049.60  67
  -1  -4  -4 359447. 4362.96   3
  -1  -4  -4 383646. 4142.02  72
  -1  -4  -3 198965. 2727.56  70
  -1  -4  -3 207296. 2862.74  26
  -1  -4  -3 201600. 2533.89  67
  -1  -4  -3 198406. 2660.23  10
  -1  -4  -3 207492. 2477.60  72
  -1  -4  -3 194854. 2748.67  18
  -1  -4  -3 198556. 2760.43   3
  -1  -4  -2 72178.5 1401.13  70
  -1  -4  -2 77304.8 1471.77  10
  -1  -4  -2 75352.8 1438.69  18
  -1  -4  -2 76615.9 1449.37   3
  -1  -4  -1 81820.1 1452.52  70
  -1  -4  -1 81691.5 1412.19  24
  -1  -4  -1 82042.7 1469.78  18
  -1  -4  -1 80384.4 1599.54   7
  -1  -4  -1 76707.3 1420.08   3
  -1  -4  -1 77744.6 1568.37  63
  -1  -4   0 224721. 2669.50  24
  -1  -4   0 218903. 3020.65  63
  -1  -4   0 219696. 2388.98  66
  -1  -4   0 229207. 3080.98   7
  -1  -4   0 221160. 2424.50  13
  -1  -4   0 223346. 2299.19   8
  -1  -4   1 177434. 2285.66  13
  -1  -4   1 176916. 2254.73  66
  -1  -4   1 169258. 2743.07  63
  -1  -4   1 174387. 2786.90   7
  -1  -4   1 178914. 2221.38   3
  -1  -4   3 91141.0 1909.23  64
  -1  -4   3 88027.2 1882.11   8
  -1  -4   3 84610.1 1802.90   6
  -1  -4   4 177148. 3144.90  64
  -1  -4   4 176878. 3149.76   8
  -1  -4   4 174478. 2904.71   6
  -1  -4   5 217572. 3864.79  64
  -1  -4   5 212582. 3853.80   8
  -1  -4   6 220757. 4155.52  64
  -1  -4   6 226100. 4196.62  12
  -1  -4   6 215200. 4144.92   8
  -1  -4   7 166788. 3400.37  22
  -1  -4   7 168254. 3418.65  71
  -1  -3 -12 63660.5 1429.05  40
  -1  -3 -12 59376.7 1329.01  76
  -1  -3 -11 71236.0 1853.17  40
  -1  -3 -11 69250.1 1847.07  83
  -1  -3 -11 66353.5 1752.84  76
  -1  -3 -10 84880.6 2254.02  93
  -1  -3 -10 90805.0 2328.69  83
  -1  -3 -10 88199.4 2164.91  32
  -1  -3 -10 86365.7 2174.57  50
  -1  -3 -10 90199.6 2250.67  76
  -1  -3 -10 84697.5 2161.80  72
  -1  -3  -9 91894.2 2365.11  83
  -1  -3  -9 86487.0 2279.02  84
  -1  -3  -9 86605.0 2266.85  93
  -1  -3  -9 80736.1 2119.13  32
  -1  -3  -9 84826.0 2195.38  72
  -1  -3  -9 86277.8 2187.33  50
  -1  -3  -9 86287.3 2229.18  76
  -1  -3  -8 247003. 4043.82  84
  -1  -3  -8 244368. 3857.95  60
  -1  -3  -8 266268. 3735.98  89
  -1  -3  -8 272312. 4258.26  83
  -1  -3  -8 233679. 3833.50  32
  -1  -3  -8 248769. 4007.85  93
  -1  -3  -8 249407. 3902.60  50
  -1  -3  -8 256131. 3771.68  77
  -1  -3  -8 249064. 3966.88  76
  -1  -3  -8 270132. 4109.45  72
  -1  -3  -7 207947. 3398.49  60
  -1  -3  -7 209350. 3345.06  29
  -1  -3  -7 213420. 3386.03  72
  -1  -3  -6 196485. 2719.91  70
  -1  -3  -6 205691. 2782.19   3
  -1  -3  -6 194263. 2810.12  14
  -1  -3  -6 175555. 2987.38  60
  -1  -3  -6 195844. 2600.84  21
  -1  -3  -6 171204. 2847.45  29
  -1  -3  -6 191264. 2956.68  72
  -1  -3  -5 80903.0 1478.69  14
  -1  -3  -5 81593.5 1739.62  60
  -1  -3  -5 82407.8 1538.75  70
  -1  -3  -5 83814.0 1633.29  72
  -1  -3  -5 83492.4 1554.15   3
  -1  -3  -4 273509. 3021.38  14
  -1  -3  -4 273184. 3278.22   3
  -1  -3  -4 268715. 3224.93  72
  -1  -3  -3 167018. 2165.39  70
  -1  -3  -3 162800. 2179.57  18
  -1  -3  -3 167778. 2202.39   3
  -1  -3  -2 54738.9 1056.13  10
  -1  -3  -2 56251.9 1061.33   3
  -1  -3  -1 10087.7 432.729  63
  -1  -3  -1 9160.14 376.330   3
  -1  -3  -1 10445.6 449.010   7
  -1  -3   0 466969. 4803.02   7
  -1  -3   0 462477. 4460.57   3
  -1  -3   0 460603. 4779.35  63
  -1  -3   1 325092. 3171.10   2
  -1  -3   1 351142. 3357.10   3
  -1  -3   2 546539. 5296.22   2
  -1  -3   3 389281. 4324.47   6
  -1  -3   4 95212.1 1617.14  65
  -1  -3   4 99846.2 1828.26   6
  -1  -3   5 210306. 3610.29  64
  -1  -3   5 199972. 3307.38  11
  -1  -3   5 203813. 3571.96   8
  -1  -3   6 120628. 2890.62  64
  -1  -3   6 126718. 2782.90  11
  -1  -3   6 126383. 2970.45   8
  -1  -3   7 164220. 3354.83  22
  -1  -3   7 160860. 3337.39  11
  -1  -3   7 165892. 3371.08  71
  -1  -3   8 74527.8 2206.56  22
  -1  -3   8 74519.1 2210.40  71
  -1  -2 -12 143957. 2222.12  40
  -1  -2 -11 106735. 2267.68  40
  -1  -2 -11 103065. 2176.93  83
  -1  -2 -11 99551.5 2165.51  76
  -1  -2 -10 75764.7 2074.92  40
  -1  -2 -10 66516.1 1731.33  21
  -1  -2 -10 80742.9 1921.91  91
  -1  -2 -10 73599.4 2037.57  83
  -1  -2 -10 67748.3 1945.25  76
  -1  -2  -9 119806. 2697.56  83
  -1  -2  -9 111776. 2642.62  93
  -1  -2  -9 109223. 2500.24  32
  -1  -2  -9 110243. 2551.77  50
  -1  -2  -9 113629. 2595.43  76
  -1  -2  -9 108656. 2364.13  21
  -1  -2  -9 110378. 2578.21  72
  -1  -2  -8 68464.3 1912.26  93
  -1  -2  -8 65269.3 1869.76  84
  -1  -2  -8 72413.1 1967.87  83
  -1  -2  -8 63118.3 1706.31  21
  -1  -2  -8 69414.8 1853.31  32
  -1  -2  -8 66839.0 1838.76  50
  -1  -2  -8 64795.5 1831.22  76
  -1  -2  -8 69191.3 1916.02  72
  -1  -2  -7 249330. 3654.40  60
  -1  -2  -7 252739. 3590.74  21
  -1  -2  -7 252326. 3836.53  72
  -1  -2  -6 214707. 3102.49  14
  -1  -2  -6 210463. 2944.94  21
  -1  -2  -5 25409.4 709.336   3
  -1  -2  -5 24610.2 797.593  14
  -1  -2  -5 24139.1 729.507  21
  -1  -2  -5 24441.4 850.522  60
  -1  -2  -5 22297.9 783.594  29
  -1  -2  -5 23964.7 830.195  72
  -1  -2  -4 161311. 2128.55  14
  -1  -2  -4 163210. 2324.32  60
  -1  -2  -4 165112. 2242.02  72
  -1  -2  -3 158333. 1941.78   3
  -1  -2  -1 68656.2 992.679   3
  -1  -2  -1 69949.9 816.891   5
  -1  -2   4 43289.2 948.155  65
  -1  -2   4 45212.3 987.134  58
  -1  -2   4 42943.8 957.840   9
  -1  -2   4 45102.9 1016.31   6
  -1  -2   5 113186. 2310.77  11
  -1  -2   6 83290.8 2239.07  64
  -1  -2   6 86841.8 2288.11   8
  -1  -2   6 83016.3 1959.26  27
  -1  -2   7 109731. 2599.91  22
  -1  -2   7 104689. 2741.32  64
  -1  -2   7 105127. 2671.88  11
  -1  -2   7 109808. 2803.83   8
  -1  -2   7 107100. 2572.33  71
  -1  -2   8 114982. 2837.24  22
  -1  -2   8 118171. 2885.87  71
  -1  -2   9 54302.7 1945.20  68
  -1  -2   9 52959.8 1855.96  71
  -1  -2   9 54077.4 1867.92  22
  -1  -1 -12 118402. 1757.68  40
  -1  -1 -11 166376. 2810.72  40
  -1  -1 -11 163846. 2753.35  76
  -1  -1 -10 48761.7 1604.61  40
  -1  -1 -10 45188.3 1448.29  91
  -1  -1 -10 47845.6 1511.51  83
  -1  -1 -10 46053.0 1555.28  76
  -1  -1  -9 135452. 2898.55  40
  -1  -1  -9 139702. 2853.09  91
  -1  -1  -9 129912. 2765.60  83
  -1  -1  -9 127514. 2825.24  76
  -1  -1  -9 126140. 2690.04  21
  -1  -1  -9 127887. 2847.45  72
  -1  -1  -8 12672.6 779.230  83
  -1  -1  -8 11940.2 791.407  93
  -1  -1  -8 11972.2 776.466  50
  -1  -1  -8 13076.7 785.539  21
  -1  -1  -8 12713.1 798.513  76
  -1  -1  -8 12257.2 809.036  72
  -1  -1  -7 138138. 2589.74  21
  -1  -1  -7 137367. 2420.89  60
  -1  -1  -6 259655. 3669.96  14
  -1  -1  -6 257242. 3542.65  21
  -1  -1  -6 261402. 3434.29  60
  -1  -1  -6 267412. 3789.27  72
  -1  -1  -5 81821.2 1633.58  14
  -1  -1  -5 80592.7 1543.23  21
  -1  -1  -5 83078.9 1562.47  60
  -1  -1  -5 85396.4 1672.22  59
  -1  -1  -5 80420.0 1671.58  72
  -1  -1  -4 36524.7 915.500  14
  -1  -1  -4 41343.5 909.870  21
  -1  -1  -4 37679.1 915.388  60
  -1  -1  -4 41709.6 987.372  59
  -1  -1  -4 36425.1 947.816  72
  -1  -1  -4 38736.2 724.667   3
  -1  -1  -3 345207. 3576.95  59
  -1  -1   1 5248.36 221.284   2
  -1  -1   1 5007.22 139.807  58
  -1  -1   2 190821. 1854.20   6
  -1  -1   2 173844. 1888.42  58
  -1  -1   4 586163. 5642.15  65
  -1  -1   5 102511. 1847.07  58
  -1  -1   5 107139. 2141.48  11
  -1  -1   6 9317.31 623.487  22
  -1  -1   6 11595.4 753.729  11
  -1  -1   6 10271.6 599.622  58
  -1  -1   6 8709.17 598.658  27
  -1  -1   6 10291.9 654.984  71
  -1  -1   7 14665.9 949.621  11
  -1  -1   7 15005.1 898.287  22
  -1  -1   7 14651.6 887.130  71
  -1  -1   7 20085.8 1088.07  64
  -1  -1   7 19164.9 1072.60   8
  -1  -1   7 16226.6 906.148  27
  -1  -1   8 92660.7 2513.80  22
  -1  -1   8 95909.6 2611.76  64
  -1  -1   8 93815.0 2598.69   8
  -1  -1   8 89143.4 2463.80  71
  -1  -1   9 279330. 4913.84  68
  -1  -1   9 286404. 4890.64  22
  -1  -1   9 285652. 4894.45  71
  -1  -1  11 68274.7 1736.28  36
  -1   0 -11 76305.9 1602.97  40
  -1   0 -10 134189. 2680.02  40
  -1   0 -10 134500. 2622.17  91
  -1   0  -9 118083. 2636.25  40
  -1   0  -9 119421. 2686.84  91
  -1   0  -9 119541. 2387.39  51
  -1   0  -9 111261. 2617.47  76
  -1   0  -9 107479. 2512.41  21
  -1   0  -8 89245.9 2219.59  40
  -1   0  -8 88765.5 2309.83  91
  -1   0  -8 80512.7 2136.40  21
  -1   0  -8 88693.8 2029.04  51
  -1   0  -8 85045.3 2218.16  76
  -1   0  -8 88000.1 2297.36  72
  -1   0  -7 9458.42 648.650  21
  -1   0  -7 8214.84 629.278  72
  -1   0  -6 167125. 2494.27  60
  -1   0  -6 164231. 2802.95  21
  -1   0  -6 161377. 2827.84  59
  -1   0  -5 603320. 6345.20  59
  -1   0  -5 604764. 6268.74  21
  -1   0  -5 598581. 6422.43  72
  -1   0  -4 633254. 6247.64  14
  -1   0  -4 638641. 6132.13  21
  -1   0  -4 583871. 6138.02  59
  -1   0  -4 603381. 6225.63  72
  -1   0  -3 576129. 5287.27  25
  -1   0  -3 527288. 5327.35  14
  -1   0  -2 107965. 1392.38  59
  -1   0  -2 107763. 1048.77   3
  -1   0   2 265272. 2688.64  65
  -1   0   2 260868. 2674.65  58
  -1   0   3 2429.13 191.161  65
  -1   0   3 2870.06 159.044   4
  -1   0   3 3076.94 221.002  58
  -1   0   4 105291. 1732.66  22
  -1   0   4 100748. 1819.75  11
  -1   0   4 103839. 1700.36  58
  -1   0   4 106429. 1742.20  71
  -1   0   5 208731. 3000.34  22
  -1   0   5 198511. 2877.51  58
  -1   0   5 199265. 3123.90  11
  -1   0   5 194298. 2975.35  27
  -1   0   5 211703. 3014.64  71
  -1   0   6 258900. 3901.80  22
  -1   0   6 275491. 3823.16  58
  -1   0   6 280871. 4262.42  11
  -1   0   6 266904. 3971.44  27
  -1   0   6 264921. 3930.56  71
  -1   0   7 227656. 3906.81  22
  -1   0   7 232903. 3695.14  58
  -1   0   7 230792. 4132.16  11
  -1   0   7 227993. 3893.02  71
  -1   0   7 221531. 3870.39  27
  -1   0   8 45012.7 1721.18  68
  -1   0   8 47848.9 1717.62  64
  -1   0   8 46286.9 1707.72   8
  -1   0   8 45336.0 1717.07  22
  -1   0   8 43639.1 1653.44  27
  -1   0   8 46979.7 1750.62  71
  -1   0   9 166586. 3585.38  68
  -1   0   9 160624. 3540.40  22
  -1   0   9 165278. 3428.02  27
  -1   0   9 163223. 3577.77  71
  -1   0  10 82113.8 2143.48  47
  -1   0  10 81349.9 2349.06  71
  -1   0  12 65819.1 1424.88  36
  -1   0  12 66353.9 1457.48  33
  -1   1 -11 18550.0 564.547  51
  -1   1 -10 45464.9 1314.87  40
  -1   1 -10 43066.2 1326.60  91
  -1   1  -9 44334.2 1488.18  40
  -1   1  -9 45607.3 1597.31  91
  -1   1  -9 44984.6 1434.02  51
  -1   1  -9 40987.0 1483.75  21
  -1   1  -8 273389. 4128.95  41
  -1   1  -8 295450. 4432.29  40
  -1   1  -8 291840. 4729.19  91
  -1   1  -8 269415. 4414.12  21
  -1   1  -8 279060. 4214.52  51
  -1   1  -8 283774. 4537.29  76
  -1   1  -7 114488. 2358.33  41
  -1   1  -7 123645. 2533.61  40
  -1   1  -7 117342. 2583.40  21
  -1   1  -7 118012. 2735.91  91
  -1   1  -7 118029. 2568.96  59
  -1   1  -7 117601. 2418.19  51
  -1   1  -7 118692. 2595.28  76
  -1   1  -6 158379. 2884.36  21
  -1   1  -6 155216. 2837.00  59
  -1   1  -5 304631. 4016.46  14
  -1   1  -5 305034. 3933.77  21
  -1   1  -5 291424. 3886.59  59
  -1   1  -5 294852. 3931.66  72
  -1   1  -4 270940. 3449.56  14
  -1   1  -4 261198. 3328.88  21
  -1   1  -4 272032. 3368.74  59
  -1   1  -4 263213. 3331.84  72
  -1   1  -3 397868. 4198.91  25
  -1   1  -3 390113. 4244.78  14
  -1   1  -3 399261. 4233.67  59
  -1   1  -2 303861. 2999.73  60
  -1   1  -2 294016. 3282.95   1
  -1   1   1 254783. 2604.34  58
  -1   1   2 16978.6 456.694  60
  -1   1   2 17903.0 506.325  11
  -1   1   2 17068.5 508.676  58
  -1   1   3 176593. 2351.99  58
  -1   1   3 177781. 2417.97  11
  -1   1   4 162042. 2406.45  22
  -1   1   4 172529. 2445.71  58
  -1   1   4 173011. 2604.52  11
  -1   1   4 167613. 1944.61   4
  -1   1   4 161690. 2424.86  71
  -1   1   5 367679. 4588.30  22
  -1   1   5 385382. 4860.93  11
  -1   1   5 388965. 4573.66  58
  -1   1   5 373643. 4697.84  27
  -1   1   5 366852. 4602.48  71
  -1   1   6 411563. 5543.99  11
  -1   1   6 414805. 5320.43  22
  -1   1   6 427013. 5236.13  58
  -1   1   6 415220. 5335.98  71
  -1   1   7 220167. 3700.50  58
  -1   1   7 236479. 3933.23  68
  -1   1   7 234241. 3972.02  71
  -1   1   7 231270. 3954.44  22
  -1   1   7 223861. 3923.67  27
  -1   1   8 121457. 2880.07  68
  -1   1   8 130324. 2766.39  64
  -1   1   8 114912. 2848.47  22
  -1   1   8 122506. 3048.49   2
  -1   1   8 126723. 2738.71   8
  -1   1   8 114123. 2650.00  58
  -1   1   8 113499. 2831.53  27
  -1   1   8 115854. 2873.34  71
  -1   1   9 69023.1 2218.37  68
  -1   1   9 74096.1 2278.53  27
  -1   1   9 71111.3 1972.82  45
  -1   1   9 69470.5 2257.23  71
  -1   1  10 106004. 2620.58  47
  -1   1  10 100648. 2680.32  68
  -1   1  10 108866. 2660.46  27
  -1   1  10 103808. 2740.69  71
  -1   1  11 69230.3 1845.95  47
  -1   1  12 103020. 2065.92  36
  -1   1  12 100222. 1807.29  82
  -1   1  12 100545. 1727.43  47
  -1   2 -10 26269.7 912.299  91
  -1   2 -10 25422.4 894.782  56
  -1   2 -10 27450.1 899.097  51
  -1   2  -9 101610. 2389.39  91
  -1   2  -9 104374. 2234.95  51
  -1   2  -8 173852. 3234.96  51
  -1   2  -8 168338. 3326.25  21
  -1   2  -7 278490. 4315.22  41
  -1   2  -7 312510. 4408.60  40
  -1   2  -7 298541. 4919.49  91
  -1   2  -7 279326. 4527.06  21
  -1   2  -7 299795. 4445.51  51
  -1   2  -6 117965. 2418.69  41
  -1   2  -6 124240. 2521.82  59
  -1   2  -6 127073. 2643.43  21
  -1   2  -6 121076. 2764.27  91
  -1   2  -6 122778. 2458.02  51
  -1   2  -5 104834. 2147.60  59
  -1   2  -5 110396. 2254.73  21
  -1   2  -4 322264. 4006.10  21
  -1   2  -4 318578. 3939.04  59
  -1   2  -3 141391. 2148.99  25
  -1   2  -3 139513. 2156.66  14
  -1   2  -3 134993. 2101.18  59
  -1   2  -3 129836. 1813.76  60
  -1   2  -3 135883. 2295.95   1
  -1   2  -3 145621. 2179.16  21
  -1   2  -2 374557. 3902.78  25
  -1   2  -2 380878. 3930.60  68
  -1   2  -2 375312. 3927.90  59
  -1   2  -1 6667.34 317.935  71
  -1   2  -1 6497.13 319.264   1
  -1   2  -1 6298.59 306.779  59
  -1   2   0 181010. 1826.49   5
  -1   2   0 176768. 2044.32  60
  -1   2   0 175535. 1996.93   1
  -1   2   2 109994. 1552.60  60
  -1   2   2 112862. 1477.09   2
  -1   2   3 439215. 4721.09  68
  -1   2   3 443939. 4844.75  71
  -1   2   4 185199. 2642.42  68
  -1   2   4 184025. 2707.78  58
  -1   2   4 194878. 2235.29   4
  -1   2   4 172865. 2765.45  27
  -1   2   4 180326. 2742.45  71
  -1   2   5 227169. 3461.67  71
  -1   2   5 222266. 3527.84  27
  -1   2   6 324356. 4478.78  68
  -1   2   6 314289. 4676.07  27
  -1   2   6 311800. 4583.34  71
  -1   2   7 279888. 4335.37  68
  -1   2   7 263665. 4246.29  58
  -1   2   7 257132. 4434.85  27
  -1   2   7 275035. 4427.81  71
  -1   2   8 159550. 3349.35  68
  -1   2   8 159957. 3276.74  58
  -1   2   8 170940. 3565.17   2
  -1   2   8 163991. 3524.82  27
  -1   2   8 158177. 3447.85  71
  -1   2   9 53940.2 1921.68  68
  -1   2   9 51649.3 1744.31  45
  -1   2   9 55238.6 2011.02  71
  -1   2  10 88974.0 2296.86  23
  -1   2  10 84662.2 2406.60  68
  -1   2  10 87005.7 2429.97  47
  -1   2  10 88769.2 2480.69  27
  -1   2  10 85857.0 2227.14  45
  -1   2  10 82498.1 2427.19  71
  -1   2  11 30432.5 1261.85  47
  -1   2  11 30478.8 1119.80  45
  -1   2  12 84382.1 1931.21  36
  -1   2  12 90773.2 1909.92  82
  -1   2  12 87424.3 1798.71  47
  -1   3 -10 42464.7 949.028  91
  -1   3 -10 41412.4 937.928  56
  -1   3  -9 66649.6 1733.80  56
  -1   3  -9 71827.7 1682.31  51
  -1   3  -9 66234.5 1723.22  91
  -1   3  -8 120962. 2796.98  91
  -1   3  -8 121670. 2814.45  56
  -1   3  -8 119414. 2533.06  51
  -1   3  -7 185189. 3409.99  41
  -1   3  -7 186010. 3546.43  21
  -1   3  -7 192294. 3861.25  91
  -1   3  -7 195126. 3492.63  51
  -1   3  -6 212998. 3634.70  41
  -1   3  -6 217427. 3833.75  21
  -1   3  -6 217393. 4086.42  91
  -1   3  -6 221684. 3690.66  51
  -1   3  -5 35164.2 1307.48  21
  -1   3  -5 34977.4 1229.30  59
  -1   3  -4 114796. 2207.23  59
  -1   3  -4 122290. 2357.79  21
  -1   3  -3 88183.2 1782.22  21
  -1   3  -3 90996.8 1940.17   1
  -1   3  -2 271095. 3297.19  25
  -1   3  -2 271677. 3315.32  68
  -1   3  -2 259279. 2999.57  60
  -1   3  -2 263218. 3271.99  59
  -1   3  -2 256866. 3439.51   1
  -1   3  -1 67292.2 1309.45  71
  -1   3  -1 66616.1 1229.60  25
  -1   3  -1 67471.4 1275.92  68
  -1   3  -1 66200.8 1183.07  60
  -1   3  -1 64942.6 1256.97  59
  -1   3  -1 68807.5 1331.69  17
  -1   3  -1 69234.7 1344.09   1
  -1   3   0 28615.4 740.542  68
  -1   3   0 30950.1 766.899   1
  -1   3   0 29645.5 752.001  60
  -1   3   0 28563.6 757.278  59
  -1   3   0 29846.9 804.610  17
  -1   3   0 30457.5 804.465  71
  -1   3   1 512537. 5152.03  17
  -1   3   1 502993. 4982.20  68
  -1   3   1 506764. 5119.49  58
  -1   3   1 508977. 5129.32  71
  -1   3   2 617254. 5881.86  68
  -1   3   2 601001. 6041.29  58
  -1   3   2 604982. 6043.22  17
  -1   3   2 603867. 6022.55  71
  -1   3   3 594926. 6113.76  68
  -1   3   3 597210. 6261.28  58
  -1   3   3 613025. 6301.34  71
  -1   3   4 239417. 3321.05  68
  -1   3   4 236411. 3397.52  58
  -1   3   4 240661. 3568.76  27
  -1   3   4 247855. 3522.59  71
  -1   3   5 60548.2 1567.63  68
  -1   3   5 61653.7 1636.17  58
  -1   3   5 62970.7 1764.26  27
  -1   3   5 62158.4 1694.83  71
  -1   3   6 45665.9 1467.43  68
  -1   3   6 48205.3 1549.85  58
  -1   3   6 47027.3 1659.81  27
  -1   3   6 47635.8 1588.91  71
  -1   3   7 308507. 4774.76  68
  -1   3   7 320849. 4936.37  58
  -1   3   7 316343. 5035.00  71
  -1   3   8 172906. 3509.26  68
  -1   3   8 172783. 3243.56  92
  -1   3   8 177993. 3791.62  27
  -1   3   8 177780. 3467.31  45
  -1   3   8 181368. 3741.56  71
  -1   3   9 135624. 2794.53  92
  -1   3   9 131313. 3064.12  68
  -1   3   9 135076. 3233.38  71
  -1   3   9 129831. 2998.72  45
  -1   3  10 35982.4 1486.38  68
  -1   3  10 37181.7 1566.21  47
  -1   3  10 40219.1 1661.89  27
  -1   3  10 37919.8 1500.46  45
  -1   3  10 36596.9 1564.01  71
  -1   3  11 21863.7 1114.66  36
  -1   3  11 21697.3 1074.23  47
  -1   3  11 20597.0 975.867  45
  -1   3  12 51331.5 1265.79  43
  -1   3  12 48671.7 1402.74  82
  -1   3  12 45705.8 1354.18  36
  -1   3  12 48527.4 1350.88  47
  -1   4  -9 31407.4 945.762  91
  -1   4  -9 31468.5 948.126  56
  -1   4  -8 43664.8 1359.40  51
  -1   4  -8 43324.0 1474.21  91
  -1   4  -8 43838.1 1479.64  56
  -1   4  -7 33364.8 1464.16  91
  -1   4  -7 37926.6 1556.58  56
  -1   4  -7 34789.2 1339.84  21
  -1   4  -7 38867.1 1407.27  51
  -1   4  -6 227961. 3871.52  41
  -1   4  -6 226843. 4311.44  56
  -1   4  -6 231045. 3900.71  51
  -1   4  -6 238269. 4029.24  21
  -1   4  -6 228138. 4327.43  91
  -1   4  -5 139272. 2768.81  41
  -1   4  -5 141478. 2918.20  21
  -1   4  -5 129370. 3035.17  56
  -1   4  -5 137764. 2644.02  80
  -1   4  -5 137372. 2780.31  51
  -1   4  -5 131821. 3072.75  91
  -1   4  -4 21562.9 950.188  41
  -1   4  -4 19966.6 1048.20  91
  -1   4  -4 21975.8 947.992  59
  -1   4  -4 23070.0 1041.66  21
  -1   4  -4 21018.1 948.181  51
  -1   4  -3 27300.2 1137.50   1
  -1   4  -3 26176.2 979.755  59
  -1   4  -3 29139.1 1068.47  21
  -1   4  -2 116108. 2112.19  59
  -1   4  -2 129919. 2380.78   1
  -1   4  -1 544669. 5838.75  71
  -1   4  -1 544509. 5884.21   1
  -1   4  -1 520320. 5662.35  68
  -1   4  -1 537904. 5487.77  60
  -1   4  -1 525937. 5660.33  59
  -1   4   0 346138. 4142.80  71
  -1   4   0 356488. 4055.08   1
  -1   4   0 348137. 3972.04  60
  -1   4   0 354852. 4035.85  59
  -1   4   0 346872. 4173.85  17
  -1   4   1 222013. 2795.25   1
  -1   4   1 219764. 2808.69  68
  -1   4   1 218228. 2891.46  60
  -1   4   1 214821. 2960.89  71
  -1   4   1 215978. 2862.79  59
  -1   4   1 213409. 2980.36  17
  -1   4   2 110000. 1813.01  68
  -1   4   2 105074. 1883.85  60
  -1   4   2 107764. 1959.09  17
  -1   4   2 105818. 1864.88  59
  -1   4   2 104713. 1901.51  58
  -1   4   2 101942. 1674.57   1
  -1   4   2 106738. 1942.29  71
  -1   4   3 253606. 3100.46   1
  -1   4   3 254249. 3557.61  17
  -1   4   3 255420. 3537.97  71
  -1   4   4 359596. 4168.17   1
  -1   4   4 356932. 4674.53  58
  -1   4   4 364567. 4759.65  17
  -1   4   4 353185. 4723.03  27
  -1   4   4 367842. 4741.50  71
  -1   4   5 356801. 4707.48  68
  -1   4   5 357791. 4935.61  58
  -1   4   5 360922. 5136.18  27
  -1   4   5 363657. 5028.90  71
  -1   4   6 50129.1 1573.32  68
  -1   4   6 49982.6 1667.79  58
  -1   4   6 54486.5 1851.86  27
  -1   4   6 49632.8 1683.56  71
  -1   4   7 56684.0 1782.77  68
  -1   4   7 55357.2 1731.11  92
  -1   4   7 57924.3 1908.49  58
  -1   4   7 59197.2 2051.26  27
  -1   4   7 60453.8 1864.12  45
  -1   4   7 53288.3 1869.08  71
  -1   4   8 59260.5 1879.57  92
  -1   4   8 60608.1 1933.06  68
  -1   4   8 64802.5 2219.23  27
  -1   4   8 61204.9 1977.37  45
  -1   4   8 63893.7 2121.90  71
  -1   4   9 134028. 2983.36  68
  -1   4   9 127206. 2866.89  92
  -1   4   9 137980. 3198.65  47
  -1   4   9 128881. 3039.41  45
  -1   4   9 128034. 3146.40  71
  -1   4  10 162297. 3086.32  92
  -1   4  10 154877. 3329.01  36
  -1   4  10 155805. 3350.97  47
  -1   4  10 156896. 3282.54  45
  -1   4  11 70865.3 1947.97  36
  -1   4  11 70425.9 1951.50  47
  -1   4  11 68499.5 1864.58  45
  -1   4  12 44786.9 1230.62  43
  -1   4  12 42338.3 1271.52  82
  -1   4  12 41591.6 1185.19  36
  -1   4  12 41658.1 1147.00  33
  -1   4  12 45836.6 1283.36  47
  -1   5  -8 38290.4 1138.31  56
  -1   5  -8 38444.8 1133.60  91
  -1   5  -7 11227.5 754.528  91
  -1   5  -7 10760.8 734.937  56
  -1   5  -7 11422.3 685.435  51
  -1   5  -6 15577.8 874.564  51
  -1   5  -6 15964.0 1003.77  56
  -1   5  -6 16483.5 1022.19  91
  -1   5  -5 151971. 3415.69  56
  -1   5  -5 155107. 3005.61  80
  -1   5  -5 160268. 3116.94  51
  -1   5  -4 155839. 2893.87  41
  -1   5  -4 147476. 3245.49  91
  -1   5  -4 143879. 3214.38  56
  -1   5  -4 156122. 2969.53  51
  -1   5  -4 151904. 3047.77  80
  -1   5  -3 128343. 2448.98  41
  -1   5  -3 136190. 2597.64  55
  -1   5  -3 135436. 2894.85  91
  -1   5  -3 135603. 2881.29  56
  -1   5  -3 123673. 2700.32  52
  -1   5  -3 139361. 2626.06  51
  -1   5  -3 132385. 2835.36  80
  -1   5  -2 164731. 2798.42  59
  -1   5  -2 182239. 3172.94   1
  -1   5  -1 130789. 2340.18  68
  -1   5  -1 130946. 2461.82   1
  -1   5   0 312421. 4160.30  71
  -1   5   0 312997. 3936.74  68
  -1   5   0 322073. 3944.49  60
  -1   5   0 299267. 3914.45  59
  -1   5   0 307020. 4167.19  17
  -1   5   0 303863. 4005.46   1
  -1   5   1 144527. 2339.10  68
  -1   5   1 148686. 2479.45  60
  -1   5   1 147415. 2413.30  59
  -1   5   1 149853. 2409.32   1
  -1   5   1 148050. 2605.82  17
  -1   5   1 148793. 2585.74  71
  -1   5   2 153803. 2589.44  60
  -1   5   2 155905. 2536.59  59
  -1   5   2 144430. 2637.38  17
  -1   5   2 146066. 2313.27   1
  -1   5   2 143587. 2606.40  71
  -1   5   3 224043. 3299.72  59
  -1   5   3 210273. 3311.17  58
  -1   5   3 215680. 3452.73  17
  -1   5   3 217863. 3458.63  71
  -1   5   4 120820. 2536.29  17
  -1   5   4 118049. 2387.07  59
  -1   5   4 116997. 2452.74  58
  -1   5   4 117506. 2503.12  71
  -1   5   5 198687. 3523.49  58
  -1   5   5 191917. 3526.67  17
  -1   5   5 190572. 3505.29  71
  -1   5   6 89164.2 2360.93  58
  -1   5   6 95734.5 2475.30  71
  -1   5   6 93091.2 2452.47  17
  -1   5   7 76521.1 2069.65  94
  -1   5   7 77602.6 2170.78  47
  -1   5   7 76109.9 2191.53  45
  -1   5   7 77330.3 2302.50  71
  -1   5   8 76685.3 2283.91  92
  -1   5   8 71012.4 1974.94  94
  -1   5   8 78724.6 2300.98  47
  -1   5   8 74127.1 2248.23  45
  -1   5   8 75486.2 2323.18  71
  -1   5   9 106314. 2582.19  36
  -1   5   9 105190. 2492.59  34
  -1   5   9 101189. 2599.01  92
  -1   5   9 101317. 2651.36  47
  -1   5   9 102343. 2659.52  45
  -1   5   9 101012. 2697.24  71
  -1   5  10 138588. 3038.40  17
  -1   5  10 142652. 2950.30  92
  -1   5  10 141582. 3059.72  47
  -1   5  10 143276. 3044.97  45
  -1   5  10 134030. 2980.96  71
  -1   5  11 88900.7 1961.66  36
  -1   5  11 87998.3 2113.67  82
  -1   5  11 90639.5 1962.75  92
  -1   5  11 84946.3 2069.49  47
  -1   5  12 87786.9 1744.92  43
  -1   5  12 83800.0 1695.72  82
  -1   6  -7 36001.6 1103.28  56
  -1   6  -7 36447.6 1105.16  91
  -1   6  -6 15833.1 872.071  56
  -1   6  -6 14815.3 683.099  80
  -1   6  -6 14698.6 845.103  91
  -1   6  -5 101887. 2560.94  91
  -1   6  -5 100455. 2562.95  56
  -1   6  -5 103825. 2323.27  80
  -1   6  -4 199869. 3701.12  80
  -1   6  -4 199529. 3869.53  56
  -1   6  -4 198180. 3861.49  91
  -1   6  -3 116413. 2841.71  80
  -1   6  -3 122137. 2872.41  91
  -1   6  -3 123762. 2884.38  56
  -1   6  -3 124008. 2641.59  55
  -1   6  -3 113970. 2743.06  52
  -1   6  -2 131841. 2878.84  91
  -1   6  -2 135384. 2919.99  56
  -1   6  -2 138332. 2920.18  55
  -1   6  -2 128003. 3046.27  52
  -1   6  -2 139452. 3155.63  80
  -1   6  -1 61949.9 1777.89  91
  -1   6  -1 51198.4 1823.35  95
  -1   6  -1 58624.0 1782.60  85
  -1   6  -1 60366.4 1754.19  56
  -1   6  -1 62206.7 1920.58  55
  -1   6  -1 51305.7 1892.89  52
  -1   6  -1 60274.1 1991.54  80
  -1   6   0 202656. 3391.29  71
  -1   6   0 195584. 3723.26  80
  -1   6   1 231373. 3718.60  71
  -1   6   1 230999. 3753.50  17
  -1   6   2 77499.7 1802.40  59
  -1   6   2 73107.1 1955.93  17
  -1   6   2 71205.5 1903.18  71
  -1   6   3 52726.2 1514.78  59
  -1   6   3 50205.1 1643.73  17
  -1   6   3 51099.5 1635.36  71
  -1   6   4 79616.9 1977.36  59
  -1   6   4 72892.8 1963.10  58
  -1   6   4 75141.8 2107.21  17
  -1   6   4 77555.6 2115.38  71
  -1   6   5 113073. 2756.46  92
  -1   6   5 118631. 2584.75  39
  -1   6   5 117290. 2830.46  94
  -1   6   5 116435. 2570.31  59
  -1   6   5 118978. 2691.81  58
  -1   6   5 117041. 2580.69  85
  -1   6   5 111240. 2906.19  34
  -1   6   5 119853. 2790.74  71
  -1   6   5 124063. 2760.56  75
  -1   6   5 119326. 2810.44  17
  -1   6   6 210219. 3981.02  94
  -1   6   6 214514. 4115.56  92
  -1   6   6 208805. 4224.02  34
  -1   6   6 223738. 4141.38  17
  -1   6   6 210839. 3770.82  75
  -1   6   6 219417. 3823.49  45
  -1   6   6 222216. 4110.51  71
  -1   6   7 171471. 3648.92  17
  -1   6   7 164846. 3493.16  94
  -1   6   7 177622. 3725.74  92
  -1   6   7 178726. 3797.93  34
  -1   6   7 169057. 3163.17  75
  -1   6   7 174531. 3503.67  45
  -1   6   7 175636. 3658.12  71
  -1   6   8 40546.0 1562.94  94
  -1   6   8 38222.8 1624.22  92
  -1   6   8 42741.0 1702.77  34
  -1   6   8 37176.4 1600.81  17
  -1   6   8 42280.6 1564.38  47
  -1   6   8 38691.5 1589.94  45
  -1   6   8 37026.4 1578.41  71
  -1   6   9 74381.5 1981.40  94
  -1   6   9 71957.7 2052.42  34
  -1   6   9 62944.2 2024.81  17
  -1   6   9 68714.4 2016.11  47
  -1   6   9 67926.7 2125.82  92
  -1   6   9 69482.4 2091.43  45
  -1   6   9 64508.1 2041.05  71
  -1   6  10 81810.6 2024.79  82
  -1   6  10 80022.5 2130.21  92
  -1   6  10 79320.2 2030.01  47
  -1   6  11 104057. 2031.32  82
  -1   6  11 102485. 2074.09  92
  -1   6  12 87302.1 1591.60  43
  -1   7  -6 49056.0 1230.48  91
  -1   7  -6 49765.8 1237.67  56
  -1   7  -5 25830.8 955.567  80
  -1   7  -5 25639.4 1057.38  56
  -1   7  -5 25776.8 1057.59  91
  -1   7  -4 97114.1 2363.65  56
  -1   7  -4 93595.4 2268.08  80
  -1   7  -4 93403.4 2312.36  91
  -1   7  -3 181994. 3480.53  91
  -1   7  -3 175280. 3219.02  55
  -1   7  -3 178712. 3469.28  56
  -1   7  -3 170480. 3508.92  80
  -1   7  -2 136990. 2958.92  56
  -1   7  -2 138634. 2970.38  91
  -1   7  -2 134534. 3190.21  80
  -1   7  -1 108458. 2530.84  91
  -1   7  -1 110463. 2547.96  56
  -1   7  -1 105404. 2865.09  80
  -1   7   0 5611.92 618.249  80
  -1   7   0 5606.55 519.441  91
  -1   7   0 5811.71 535.669  56
  -1   7   0 5327.93 599.246  55
  -1   7   0 4367.02 567.696  52
  -1   7   0 4665.00 549.282  85
  -1   7   1 161283. 3171.32  71
  -1   7   1 169281. 3047.84  91
  -1   7   1 167693. 3183.93  34
  -1   7   1 173655. 3083.68  56
  -1   7   1 142735. 3410.95  85
  -1   7   1 149776. 3482.79  52
  -1   7   1 149268. 3431.11  80
  -1   7   1 171754. 3149.34  87
  -1   7   1 144408. 3274.76  75
  -1   7   1 161309. 3211.89  17
  -1   7   2 108254. 2558.79  71
  -1   7   2 118178. 2660.52  87
  -1   7   2 104308. 2624.77  34
  -1   7   2 97294.4 2767.00  85
  -1   7   2 101497. 2663.59  52
  -1   7   2 102732. 2667.50  80
  -1   7   2 97896.5 2504.96  94
  -1   7   2 117387. 2385.87  91
  -1   7   2 98971.3 2729.67  75
  -1   7   2 107244. 2570.63  17
  -1   7   3 91376.9 2607.02  39
  -1   7   3 92715.4 2597.68  94
  -1   7   3 104449. 2630.66  87
  -1   7   3 100192. 2711.37  34
  -1   7   3 96125.0 2694.56  85
  -1   7   3 100092. 2479.53  52
  -1   7   3 98221.1 2733.94  75
  -1   7   3 105581. 2580.25  17
  -1   7   3 105614. 2561.49  71
  -1   7   4 130342. 3099.73  87
  -1   7   4 113522. 2873.99  39
  -1   7   4 109499. 2918.19  94
  -1   7   4 121894. 3126.22  34
  -1   7   4 122349. 2972.88  85
  -1   7   4 120853. 3045.67  75
  -1   7   4 123245. 2891.45  17
  -1   7   4 123655. 2866.03  71
  -1   7   5 37195.0 1505.09  39
  -1   7   5 36119.1 1547.19  92
  -1   7   5 37856.2 1667.22  94
  -1   7   5 42345.0 1784.47  87
  -1   7   5 34067.4 1654.22  34
  -1   7   5 36912.7 1501.16  85
  -1   7   5 36915.2 1580.19  75
  -1   7   5 37116.0 1548.47  17
  -1   7   5 37646.8 1554.47  71
  -1   7   6 105374. 2836.27  94
  -1   7   6 108689. 3003.14  34
  -1   7   6 104277. 2737.95  17
  -1   7   6 99815.2 2593.05  75
  -1   7   6 103485. 2803.29  92
  -1   7   6 112830. 3089.36  87
  -1   7   6 102388. 2676.10  71
  -1   7   7 192505. 3913.95  94
  -1   7   7 195247. 4055.23  34
  -1   7   7 185075. 3900.36  92
  -1   7   7 181982. 3718.21  17
  -1   7   7 203630. 4280.63  87
  -1   7   7 181098. 3701.05  71
  -1   7   8 134004. 3131.46  92
  -1   7   8 140007. 3186.63  34
  -1   7   8 134294. 3007.80  94
  -1   7   8 124153. 2909.78  17
  -1   7   8 127860. 2936.73  71
  -1   7   9 61631.5 1945.63  92
  -1   7   9 63003.0 1796.32  94
  -1   7   9 62670.7 2072.83  87
  -1   7   9 63424.8 1869.58  34
  -1   7  10 54467.1 1581.67  43
  -1   7  10 55216.6 1710.13  87
  -1   7  10 55865.7 1440.88  34
  -1   7  10 54902.8 1649.89  92
  -1   7  11 29542.0 953.712  43
  -1   7  11 29305.4 960.238  92
  -1   7  11 29746.9 992.289  87
  -1   8  -4 33365.2 1085.38  56
  -1   8  -4 33191.0 1063.62  80
  -1   8  -4 32714.6 1064.19  91
  -1   8  -3 52085.4 1531.27  91
  -1   8  -3 54921.8 1656.78  80
  -1   8  -3 52019.4 1537.77  56
  -1   8  -3 52572.2 1421.10  55
  -1   8  -2 67653.0 1900.93  55
  -1   8  -2 68632.6 1882.09  56
  -1   8  -2 69362.7 1881.50  91
  -1   8  -2 67793.5 2068.15  80
  -1   8  -1 131115. 2708.80  91
  -1   8  -1 116837. 2839.86  55
  -1   8  -1 133744. 2760.62  56
  -1   8  -1 116788. 2959.63  80
  -1   8   0 27012.2 1160.95  91
  -1   8   0 26447.5 1154.34  56
  -1   8   0 26694.1 1368.00  55
  -1   8   0 24896.7 1339.37  80
  -1   8   1 76532.4 1970.21  91
  -1   8   1 68198.0 2199.36  88
  -1   8   1 70041.5 2325.96  55
  -1   8   1 66257.8 2215.79  80
  -1   8   1 74958.1 1984.80  87
  -1   8   2 109203. 2598.04  71
  -1   8   2 121690. 2692.37  87
  -1   8   2 108621. 2668.75  34
  -1   8   2 92422.4 2754.92  85
  -1   8   2 104046. 2891.82  55
  -1   8   2 100854. 2680.61  80
  -1   8   3 85999.3 2297.29  71
  -1   8   3 81136.9 2394.98  94
  -1   8   3 77526.3 2379.53  34
  -1   8   3 77477.1 2468.74  85
  -1   8   3 78407.3 2423.87  55
  -1   8   3 75675.3 2440.05  75
  -1   8   3 83390.1 2293.03  17
  -1   8   3 86815.6 2375.92  87
  -1   8   4 112825. 2701.42  71
  -1   8   4 110256. 2830.56  87
  -1   8   4 106426. 2919.25  94
  -1   8   4 108936. 2965.78  34
  -1   8   4 105522. 2694.80  55
  -1   8   4 105908. 2895.87  75
  -1   8   4 109362. 2703.06  17
  -1   8   5 91904.5 2433.48  92
  -1   8   5 90670.9 2602.93  87
  -1   8   5 92349.3 2740.36  34
  -1   8   5 88652.9 2639.03  94
  -1   8   5 88670.4 2413.30  17
  -1   8   5 89357.8 2386.53  71
  -1   8   6 64258.6 2190.12  87
  -1   8   6 63259.3 2155.29  94
  -1   8   6 63507.0 2229.95  34
  -1   8   6 59556.2 1920.68  17
  -1   8   6 63777.5 2076.66  92
  -1   8   6 59025.3 1897.51  71
  -1   8   7 110677. 2812.60  94
  -1   8   7 103201. 2677.16  92
  -1   8   7 115422. 2910.60  34
  -1   8   7 111690. 2603.54  88
  -1   8   7 112246. 2881.10  87
  -1   8   7 102139. 2497.13  17
  -1   8   7 97304.1 2417.92  71
  -1   8   8 143215. 3093.06  92
  -1   8   8 144611. 3019.95  94
  -1   8   8 150007. 3229.10  87
  -1   8   8 149380. 3131.17  34
  -1   8   8 139517. 2614.16  88
  -1   8   9 28403.3 1114.94  34
  -1   8   9 28861.4 1108.94  94
  -1   8   9 30446.9 1216.27  92
  -1   8   9 27219.1 1175.11  87
  -1   8  10 66217.0 1346.12  43
  -1   8  10 67408.8 1607.89  87
  -1   8  10 64076.6 1359.53  34
  -1   8  10 63483.0 1314.22  94
  -1   8  10 67426.8 1620.23  92
  -1   9  -3 11268.4 523.247  80
  -1   9  -2 66228.5 1494.09  55
  -1   9  -2 68806.9 1671.91  80
  -1   9  -1 98379.5 2281.19  80
  -1   9  -1 101415. 2230.13  55
  -1   9   0 80493.2 2163.34  55
  -1   9   0 82007.4 2167.92  80
  -1   9   1 19010.2 939.363  88
  -1   9   1 21778.0 1146.06  55
  -1   9   1 20407.8 1054.73  80
  -1   9   2 56247.3 1640.70  34
  -1   9   2 55012.6 1702.45  80
  -1   9   2 53228.6 1818.91  88
  -1   9   2 58023.7 1630.10  87
  -1   9   2 54967.5 1878.82  55
  -1   9   3 121384. 2604.03  87
  -1   9   3 116391. 2911.78  88
  -1   9   3 119632. 2812.77  55
  -1   9   3 120191. 2634.43  94
  -1   9   3 122114. 2742.17  34
  -1   9   4 116188. 2805.14  34
  -1   9   4 114818. 2593.77  55
  -1   9   4 111927. 2721.54  94
  -1   9   4 121160. 2970.27  88
  -1   9   4 112760. 2608.24  87
  -1   9   5 148225. 3228.58  88
  -1   9   5 145047. 3189.98  34
  -1   9   5 137224. 2959.26  87
  -1   9   5 137519. 3114.00  94
  -1   9   6 25424.1 1179.80  88
  -1   9   6 23834.0 1201.84  34
  -1   9   6 24491.8 1214.41  94
  -1   9   6 25488.1 1179.77  87
  -1   9   7 22574.4 1094.50  34
  -1   9   7 22103.7 1078.95  94
  -1   9   7 23425.0 1010.08  92
  -1   9   7 21138.7 1036.33  87
  -1   9   7 24039.0 1019.43  88
  -1   9   8 74293.3 1564.86  88
  -1   9   8 78448.3 1890.44  94
  -1   9   8 78694.3 1821.34  92
  -1   9   8 74567.3 1859.17  87
  -1   9   8 79369.9 1905.50  34
  -1   9   9 62316.6 1442.89  92
  -1   9   9 59570.4 1427.64  87
  -1   9   9 61950.2 1396.27  34
  -1   9   9 60991.0 1386.02  94
  -1  10   0 87981.3 1589.56  80
  -1  10   0 88738.1 1703.27  55
  -1  10   1 107641. 2110.03  55
  -1  10   1 110162. 1881.45  80
  -1  10   2 34231.0 1015.72  88
  -1  10   2 37864.2 1211.74  55
  -1  10   3 54937.9 1477.65  88
  -1  10   3 55476.0 1269.48  87
  -1  10   3 52423.1 1420.17  55
  -1  10   4 40832.1 1147.69  55
  -1  10   4 42576.4 1339.99  88
  -1  10   4 41070.4 1231.58  34
  -1  10   4 43431.4 1177.51  87
  -1  10   5 86526.8 1765.82  87
  -1  10   5 89619.1 1887.26  94
  -1  10   5 91756.9 1990.17  88
  -1  10   5 87734.7 1931.15  34
  -1  10   6 74656.2 1716.18  34
  -1  10   6 72833.8 1577.03  87
  -1  10   6 76362.0 1681.80  88
  -1  10   6 72779.4 1676.67  94
  -1  10   7 25095.0 878.302  34
  -1  10   7 24509.2 808.963  87
  -1  10   7 25060.9 796.522  88
  -1  10   7 25639.6 888.419  94
   0 -11  -5 55923.9 1113.41  89
   0 -11  -5 52400.6 1092.30  81
   0 -11  -4 21284.0 690.464  89
   0 -11  -4 22509.8 655.820  32
   0 -11  -3 36728.4 909.826  89
   0 -11  -3 30477.8 798.671  46
   0 -10  -8 9740.59 428.617  89
   0 -10  -8 9273.27 406.855  81
   0 -10  -8 10319.8 486.541  32
   0 -10  -8 11277.0 506.973  77
   0 -10  -8 10030.9 467.960  76
   0 -10  -7 43689.8 1141.59  89
   0 -10  -7 41613.6 1111.10  81
   0 -10  -7 45560.6 1194.15  32
   0 -10  -7 45935.3 1172.94  77
   0 -10  -7 45495.8 1160.08  76
   0 -10  -6 93507.1 1923.50  89
   0 -10  -6 93181.6 1920.81  32
   0 -10  -6 94901.4 1854.67  76
   0 -10  -6 90179.9 1802.50  77
   0 -10  -5 161973. 2797.76  89
   0 -10  -5 167200. 2795.23  32
   0 -10  -5 160641. 2622.92  76
   0 -10  -5 160377. 2552.48  77
   0 -10  -4 83909.8 1982.96  89
   0 -10  -4 87273.8 1966.19  32
   0 -10  -4 82332.2 1823.97  31
   0 -10  -4 89000.3 1860.28  76
   0 -10  -4 79854.1 1818.84  74
   0 -10  -3 18028.9 853.665  32
   0 -10  -3 17454.8 841.625  31
   0 -10  -3 19350.9 809.541  76
   0 -10  -3 17859.2 861.474  74
   0 -10  -2 22816.6 946.040  32
   0 -10  -2 24116.8 869.771  76
   0 -10  -1 99917.1 2011.32  32
   0 -10   0 93181.3 1773.73  32
   0  -9 -10 67556.3 1231.63  32
   0  -9 -10 66345.1 1251.99  77
   0  -9 -10 67794.8 1270.92  76
   0  -9  -9 73707.5 1557.58  32
   0  -9  -9 74471.1 1368.02  89
   0  -9  -9 73817.6 1593.77  77
   0  -9  -9 74100.7 1576.26  76
   0  -9  -8 106467. 2132.92  32
   0  -9  -8 102925. 1980.68  89
   0  -9  -8 97691.9 1884.00  81
   0  -9  -8 101521. 2123.55  77
   0  -9  -8 107366. 2148.82  76
   0  -9  -7 35851.2 1240.00  89
   0  -9  -7 35325.3 1263.22  32
   0  -9  -7 35542.5 1269.17  77
   0  -9  -7 35597.0 1256.24  76
   0  -9  -7 34751.0 1223.38  29
   0  -9  -6 47848.1 1571.23  89
   0  -9  -6 51954.6 1599.15  76
   0  -9  -6 50940.7 1609.68  32
   0  -9  -6 49978.3 1579.77  77
   0  -9  -6 46365.3 1408.52  46
   0  -9  -5 96788.3 2292.74  70
   0  -9  -5 99779.7 2330.84  67
   0  -9  -5 97162.9 2297.45  77
   0  -9  -5 99504.3 2393.98  32
   0  -9  -5 95581.8 2169.48  31
   0  -9  -5 97297.9 2311.57  76
   0  -9  -5 94458.7 2181.12  74
   0  -9  -4 174608. 3366.34  67
   0  -9  -4 168422. 3117.77  77
   0  -9  -4 170949. 3338.26  32
   0  -9  -4 173267. 3229.84  31
   0  -9  -4 175620. 3224.82  70
   0  -9  -4 166206. 3185.92  76
   0  -9  -4 163025. 3195.75  74
   0  -9  -3 119235. 2572.21  70
   0  -9  -3 123434. 2705.00  19
   0  -9  -3 122987. 2660.80  76
   0  -9  -3 121793. 2877.12  26
   0  -9  -2 20550.0 1100.59  67
   0  -9  -2 20870.6 1094.79  19
   0  -9  -2 19547.4 986.130  76
   0  -9  -2 18154.4 1058.16  26
   0  -9  -1 39478.1 1514.68  67
   0  -9  -1 38192.8 1363.78  76
   0  -9  -1 36356.7 1491.44  26
   0  -9   0 59078.6 1881.19  26
   0  -8 -11 25700.9 679.669  32
   0  -8 -11 25264.1 663.898  77
   0  -8 -11 24527.3 718.551  76
   0  -8 -10 80666.9 1702.34  76
   0  -8 -10 78981.9 1662.36  77
   0  -8 -10 80242.3 1650.78  32
   0  -8  -9 86625.9 1756.08  89
   0  -8  -9 89237.5 1978.14  32
   0  -8  -9 90801.4 1785.59  50
   0  -8  -9 89416.1 2023.62  77
   0  -8  -9 88929.6 2014.68  76
   0  -8  -8 146730. 2636.84  81
   0  -8  -8 156720. 2947.06  32
   0  -8  -8 156756. 2665.22  50
   0  -8  -8 155514. 2995.98  77
   0  -8  -8 155403. 2958.58  76
   0  -8  -8 157513. 2870.44  29
   0  -8  -7 105758. 2435.18  70
   0  -8  -7 98751.5 2362.01  89
   0  -8  -7 114237. 2296.62  50
   0  -8  -7 109795. 2562.06  77
   0  -8  -7 106859. 2492.19  76
   0  -8  -7 110810. 2513.27  29
   0  -8  -7 105914. 2498.34  32
   0  -8  -6 33447.2 1351.90  70
   0  -8  -6 29389.0 1293.13  89
   0  -8  -6 33753.7 1270.02  67
   0  -8  -6 30528.3 1326.36  32
   0  -8  -6 32270.9 1189.95  50
   0  -8  -6 33672.6 1383.60  77
   0  -8  -6 32947.2 1362.70  76
   0  -8  -5 60456.6 1881.48  70
   0  -8  -5 58178.5 1835.84  67
   0  -8  -5 57962.6 1844.45  77
   0  -8  -5 56435.6 1864.09  32
   0  -8  -5 55756.1 1702.68  31
   0  -8  -5 56970.0 1833.43  76
   0  -8  -5 58934.6 1771.96  74
   0  -8  -4 113239. 2665.13  70
   0  -8  -4 112853. 2731.81  67
   0  -8  -4 108243. 2561.34  77
   0  -8  -4 118102. 2565.35  19
   0  -8  -4 104331. 2626.61  32
   0  -8  -4 107959. 2595.92  76
   0  -8  -4 112404. 2795.75  26
   0  -8  -3 209103. 3771.80  70
   0  -8  -3 205211. 3938.37  67
   0  -8  -3 215524. 3822.89  19
   0  -8  -3 199882. 3584.25  77
   0  -8  -3 200297. 3705.10  76
   0  -8  -3 214842. 4064.09  26
   0  -8  -2 97144.6 2392.63  70
   0  -8  -2 101382. 2660.92  67
   0  -8  -2 105093. 2635.19  19
   0  -8  -2 96060.7 2622.45  26
   0  -8  -1 34858.6 1509.74  67
   0  -8  -1 31931.6 1472.47  26
   0  -8   0 25444.7 1263.41  67
   0  -8   0 26930.0 1345.01  19
   0  -8   0 24899.0 1293.14  26
   0  -8   1 122668. 2816.36  67
   0  -8   1 126625. 3056.65  19
   0  -8   1 117616. 2943.75  26
   0  -8   2 142239. 3190.60  69
   0  -8   2 133134. 3056.19  19
   0  -8   2 143263. 3179.02  26
   0  -8   3 87364.4 2318.43  26
   0  -7 -11 52291.5 1211.82  83
   0  -7 -11 55684.0 1191.38  93
   0  -7 -11 54655.8 1227.61  32
   0  -7 -11 54860.4 1159.02  50
   0  -7 -11 55059.8 1188.53  77
   0  -7 -11 54517.8 1306.79  76
   0  -7 -10 48933.4 1375.01  84
   0  -7 -10 51949.0 1363.44  93
   0  -7 -10 48520.5 1348.34  83
   0  -7 -10 49737.1 1326.64  50
   0  -7 -10 50429.2 1411.84  77
   0  -7 -10 50674.7 1465.40  76
   0  -7 -10 47029.1 1358.67  32
   0  -7  -9 97492.1 2127.18  70
   0  -7  -9 108218. 2244.90  93
   0  -7  -9 101717. 2070.32  89
   0  -7  -9 107692. 2292.27  84
   0  -7  -9 101092. 2186.07  83
   0  -7  -9 107046. 2336.68  32
   0  -7  -9 107694. 2394.05  77
   0  -7  -9 107339. 2232.44  50
   0  -7  -9 110438. 2440.67  76
   0  -7  -9 105968. 2230.11  29
   0  -7  -8 60731.5 1766.62  70
   0  -7  -8 61208.8 1709.12  89
   0  -7  -8 61459.5 1841.04  32
   0  -7  -8 64505.8 1759.46  50
   0  -7  -8 60381.9 1859.41  77
   0  -7  -8 65778.2 1765.72  93
   0  -7  -8 63220.0 1753.82  84
   0  -7  -8 64238.6 1897.67  76
   0  -7  -8 63571.6 1829.04  29
   0  -7  -7 290266. 4450.59  70
   0  -7  -7 269833. 4283.39  89
   0  -7  -7 287487. 4231.50  50
   0  -7  -7 266455. 4419.15  76
   0  -7  -7 280441. 4552.25  77
   0  -7  -7 286686. 4472.09  29
   0  -7  -7 288608. 4176.05  93
   0  -7  -7 262897. 4369.43  32
   0  -7  -7 281891. 4146.22  84
   0  -7  -6 57266.4 1785.83  70
   0  -7  -6 54073.3 1612.67  67
   0  -7  -6 48327.4 1676.45  89
   0  -7  -6 50263.1 1711.71  32
   0  -7  -6 54471.1 1605.06  50
   0  -7  -6 53684.1 1769.20  77
   0  -7  -6 52311.4 1730.96  76
   0  -7  -5 55820.1 1785.08  70
   0  -7  -5 56491.8 1622.46  50
   0  -7  -5 52734.4 1732.11  77
   0  -7  -5 54154.5 1701.69  67
   0  -7  -5 50034.4 1705.25  32
   0  -7  -5 51559.5 1707.00  76
   0  -7  -5 53322.1 1628.48  74
   0  -7  -5 51661.6 1589.45  31
   0  -7  -4 57347.2 1806.32  70
   0  -7  -4 55657.7 1741.36  77
   0  -7  -4 56525.8 1784.42   3
   0  -7  -4 63627.0 1903.71  67
   0  -7  -4 57634.5 1644.84  50
   0  -7  -4 52215.9 1713.51  76
   0  -7  -4 62490.9 1708.71  19
   0  -7  -4 57667.0 1907.21  26
   0  -7  -3 101827. 2424.89  70
   0  -7  -3 101020. 2364.44   3
   0  -7  -3 102193. 2485.35  67
   0  -7  -3 100470. 2289.12  10
   0  -7  -3 104216. 2383.32  19
   0  -7  -3 95442.3 2283.44  77
   0  -7  -3 100795. 2563.68  26
   0  -7  -2 299851. 4615.21  70
   0  -7  -2 313539. 4467.08   3
   0  -7  -2 316116. 4876.81  67
   0  -7  -2 305762. 4658.58  10
   0  -7  -2 294621. 4361.63  77
   0  -7  -2 301471. 4861.32  26
   0  -7  -1 128070. 2700.40  70
   0  -7  -1 126951. 2882.80  67
   0  -7  -1 134228. 2918.82  63
   0  -7  -1 128906. 2967.86  26
   0  -7   0 67218.3 2045.49  67
   0  -7   0 64865.1 2037.95  63
   0  -7   0 68640.9 2127.36   7
   0  -7   1 68340.3 2064.82  67
   0  -7   1 71181.8 2219.36  19
   0  -7   2 191008. 3555.48  67
   0  -7   2 193294. 3869.56  19
   0  -7   3 153182. 3368.65  69
   0  -7   3 141251. 3164.54  19
   0  -7   4 76379.1 2212.29  69
   0  -7   4 77891.5 2217.21  16
   0  -6 -12 106242. 1734.76  83
   0  -6 -12 105441. 1649.73  76
   0  -6 -11 82920.9 1767.47  93
   0  -6 -11 82301.1 1841.93  83
   0  -6 -11 81354.0 1679.13  32
   0  -6 -11 84083.3 1726.01  50
   0  -6 -11 83403.0 1594.43  77
   0  -6 -11 81359.3 1786.01  76
   0  -6 -10 55469.5 1637.20  84
   0  -6 -10 56011.1 1602.99  93
   0  -6 -10 54053.2 1632.10  83
   0  -6 -10 52915.0 1527.77  50
   0  -6 -10 56625.1 1556.75  77
   0  -6 -10 55067.7 1619.21  76
   0  -6 -10 51451.7 1512.65  32
   0  -6  -9 73120.7 1819.91  70
   0  -6  -9 74730.9 2025.70  84
   0  -6  -9 71969.5 1995.29  83
   0  -6  -9 75107.6 1977.16  32
   0  -6  -9 74174.5 1939.84  50
   0  -6  -9 74060.1 1984.63  77
   0  -6  -9 75062.1 2040.53  76
   0  -6  -9 74147.7 1905.45  29
   0  -6  -9 75230.4 1991.07  93
   0  -6  -8 34069.5 1286.96  70
   0  -6  -8 34123.9 1226.09  89
   0  -6  -8 34461.5 1345.16  32
   0  -6  -8 34283.2 1296.84  50
   0  -6  -8 35412.6 1386.37  77
   0  -6  -8 33543.8 1358.15  76
   0  -6  -8 33735.7 1305.54  29
   0  -6  -8 34707.3 1321.73  93
   0  -6  -8 30929.9 1273.76  83
   0  -6  -8 34468.8 1338.75  84
   0  -6  -7 223468. 3698.02  70
   0  -6  -7 197727. 3440.80  83
   0  -6  -7 202383. 3477.98  89
   0  -6  -7 211436. 3679.33  32
   0  -6  -7 210590. 3519.98  50
   0  -6  -7 211783. 3727.32  77
   0  -6  -7 209152. 3697.46  76
   0  -6  -7 206602. 3638.45  29
   0  -6  -7 223465. 3593.73  93
   0  -6  -7 220609. 3610.71  84
   0  -6  -6 189023. 3375.38  70
   0  -6  -6 194821. 3221.66  50
   0  -6  -6 186659. 3415.08   3
   0  -6  -6 199466. 3151.04  67
   0  -6  -6 183522. 3275.22  89
   0  -6  -6 197983. 3231.28  84
   0  -6  -6 201266. 3246.87  93
   0  -6  -6 180421. 3370.32  77
   0  -6  -6 187363. 3366.35  32
   0  -6  -6 188704. 3397.64  76
   0  -6  -5 97554.6 2251.79  70
   0  -6  -5 88257.2 2190.44   3
   0  -6  -5 92162.5 2097.56  67
   0  -6  -5 90973.7 1988.63  31
   0  -6  -5 91566.6 2018.23  74
   0  -6  -4 72047.1 1913.45   3
   0  -6  -4 72048.0 1846.26  67
   0  -6  -4 73592.8 1999.60  26
   0  -6  -4 70375.1 1860.76  70
   0  -6  -3 42494.0 1408.53  70
   0  -6  -3 42747.6 1407.33   3
   0  -6  -3 43285.7 1420.45  67
   0  -6  -3 43953.4 1323.20  10
   0  -6  -3 41070.0 1454.36  26
   0  -6  -2 195696. 3311.22  70
   0  -6  -2 198104. 3205.24   3
   0  -6  -2 200447. 3353.35  67
   0  -6  -2 203443. 3329.11  63
   0  -6  -1 466009. 5841.05  70
   0  -6  -1 485900. 5665.10   3
   0  -6  -1 470412. 6016.27  67
   0  -6  -1 490843. 6099.92  63
   0  -6  -1 491222. 6010.27  18
   0  -6  -1 486000. 6156.40   7
   0  -6   0 241882. 3736.35  70
   0  -6   0 258424. 4016.00  67
   0  -6   0 262164. 4181.02  63
   0  -6   0 242154. 3788.94  18
   0  -6   0 257875. 4191.98   7
   0  -6   1 59320.9 1762.23  67
   0  -6   1 62324.0 1949.53  63
   0  -6   2 138944. 2808.34  67
   0  -6   2 129761. 3097.12  63
   0  -6   2 134341. 3180.61   7
   0  -6   2 128002. 2867.02   6
   0  -6   3 77823.5 2217.46  19
   0  -6   4 127926. 2975.07  69
   0  -6   5 60142.1 1893.17  16
   0  -5 -12 59575.7 1345.69  40
   0  -5 -12 60974.1 1390.88  83
   0  -5 -12 61771.7 1282.32  76
   0  -5 -11 96587.7 2095.55  93
   0  -5 -11 94885.4 2145.68  83
   0  -5 -11 91917.5 1893.18  32
   0  -5 -11 100042. 2060.76  50
   0  -5 -11 92823.1 2004.56  76
   0  -5 -10 125113. 2643.39  93
   0  -5 -10 120468. 2676.38  83
   0  -5 -10 123286. 2667.56  84
   0  -5 -10 116619. 2432.52  32
   0  -5 -10 121152. 2552.35  50
   0  -5 -10 117157. 2348.97  77
   0  -5 -10 122600. 2579.24  76
   0  -5  -9 61659.2 1851.54  93
   0  -5  -9 60082.6 1855.34  84
   0  -5  -9 61938.2 1812.23  50
   0  -5  -9 58915.6 1721.39  77
   0  -5  -9 60996.7 1831.18  76
   0  -5  -9 63928.4 1944.58  83
   0  -5  -9 57508.3 1729.02  32
   0  -5  -9 54634.4 1581.78  72
   0  -5  -8 44669.6 1445.01  70
   0  -5  -8 42871.7 1490.27  93
   0  -5  -8 42665.2 1515.53  84
   0  -5  -8 41956.8 1530.50  83
   0  -5  -8 40939.3 1446.12  77
   0  -5  -8 43043.9 1469.74  32
   0  -5  -8 43397.4 1466.16  50
   0  -5  -8 44265.0 1533.96  76
   0  -5  -8 42146.4 1441.14  29
   0  -5  -8 40673.3 1313.41  72
   0  -5  -7 62651.5 1721.09  70
   0  -5  -7 57433.5 1573.79  89
   0  -5  -7 59443.8 1706.81  32
   0  -5  -7 61381.2 1743.79  84
   0  -5  -7 59663.2 1734.27  83
   0  -5  -7 63071.2 1771.66  77
   0  -5  -7 62708.3 1702.68  50
   0  -5  -7 59140.8 1724.88  76
   0  -5  -7 59545.5 1683.64   3
   0  -5  -7 65192.0 1779.50  29
   0  -5  -7 57645.0 1504.64  72
   0  -5  -6 278971. 4040.00  70
   0  -5  -6 270335. 4071.27   3
   0  -5  -5 264813. 3855.41  70
   0  -5  -5 257334. 3885.82   3
   0  -5  -4 142467. 2539.86  70
   0  -5  -4 145990. 2607.14   3
   0  -5  -4 145332. 2463.65  67
   0  -5  -4 137446. 2603.63  26
   0  -5  -3 195576. 3107.50  70
   0  -5  -3 208725. 3191.41   3
   0  -5  -3 209095. 3113.83  67
   0  -5  -3 226352. 3032.05  10
   0  -5  -3 215014. 3306.89  26
   0  -5  -2 15278.8 728.987  70
   0  -5  -2 16012.9 732.857   3
   0  -5  -2 16411.3 748.451  67
   0  -5  -2 17249.1 763.734  63
   0  -5  -2 15905.2 756.958  18
   0  -5  -2 16068.1 781.481  26
   0  -5  -1 522222. 6121.59  70
   0  -5  -1 579633. 6134.35   3
   0  -5  -1 576155. 6327.95  67
   0  -5  -1 600488. 6455.31  63
   0  -5  -1 536495. 6199.57  18
   0  -5  -1 606399. 6515.19   7
   0  -5   0 458571. 5273.55  70
   0  -5   0 472778. 5072.63   3
   0  -5   0 479117. 5530.42  67
   0  -5   0 446296. 5616.15  63
   0  -5   0 448229. 5283.93  18
   0  -5   0 462230. 5672.07   7
   0  -5   1 102969. 1959.93  70
   0  -5   1 106125. 2048.39  13
   0  -5   1 110309. 2186.79  67
   0  -5   1 106668. 2008.05  66
   0  -5   1 105804. 1998.56  18
   0  -5   1 107651. 2379.74   7
   0  -5   1 102964. 2308.84  63
   0  -5   2 48591.1 1397.10  66
   0  -5   2 51870.9 1562.13   6
   0  -5   2 48786.5 1433.93  13
   0  -5   3 34629.8 1277.78  66
   0  -5   3 34962.9 1314.03  13
   0  -5   3 33473.7 1318.66   6
   0  -5   4 124233. 2814.13  13
   0  -5   4 121607. 2738.61  66
   0  -5   5 133464. 3034.98  66
   0  -5   5 132184. 3082.61  13
   0  -5   5 129660. 2877.89  16
   0  -4 -12 25998.6 886.352  40
   0  -4 -12 25923.6 905.619  83
   0  -4 -12 26177.9 819.836  76
   0  -4 -11 40267.8 1360.95  93
   0  -4 -11 41735.6 1340.60  50
   0  -4 -11 41370.8 1409.19  83
   0  -4 -11 39291.1 1276.46  76
   0  -4 -10 111428. 2589.25  84
   0  -4 -10 119996. 2706.63  83
   0  -4 -10 115348. 2552.14  50
   0  -4 -10 113538. 2507.98  76
   0  -4 -10 119227. 2653.26  93
   0  -4  -9 174935. 3353.04  84
   0  -4  -9 167784. 3106.13  32
   0  -4  -9 167275. 3284.69  93
   0  -4  -9 164409. 2954.36  77
   0  -4  -9 176140. 3419.25  83
   0  -4  -9 165298. 3197.99  50
   0  -4  -9 169542. 3223.62  76
   0  -4  -9 160356. 3066.65  72
   0  -4  -8 90974.5 2017.67  70
   0  -4  -8 84325.1 2220.04  83
   0  -4  -8 88819.1 2199.44  93
   0  -4  -8 83112.6 2039.60  32
   0  -4  -8 87274.0 2127.42  50
   0  -4  -8 86435.6 2030.60  77
   0  -4  -8 83385.7 2103.60  76
   0  -4  -8 87124.5 2079.58  29
   0  -4  -8 82170.0 2145.14  84
   0  -4  -8 81758.9 2012.29  72
   0  -4  -7 69504.1 1713.75  70
   0  -4  -7 63581.1 1821.41  60
   0  -4  -7 65438.3 1648.95   3
   0  -4  -7 62990.4 1681.73  29
   0  -4  -7 57856.7 1562.19  72
   0  -4  -6 54600.8 1458.45  70
   0  -4  -6 54204.8 1467.50   3
   0  -4  -6 53641.1 1471.35  29
   0  -4  -6 51432.4 1326.78  72
   0  -4  -5 507966. 5644.71  70
   0  -4  -5 499959. 5671.06   3
   0  -4  -5 507918. 5262.62  67
   0  -4  -4 545942. 5867.41  70
   0  -4  -4 542764. 5911.42   3
   0  -4  -4 544284. 5640.30  67
   0  -4  -4 524694. 5297.91  72
   0  -4  -3 651630. 6707.09  70
   0  -4  -3 650753. 6778.49  26
   0  -4  -2 29066.6 882.837  70
   0  -4  -2 28255.8 849.680  67
   0  -4  -2 29448.6 884.394   7
   0  -4  -2 29074.2 895.051  18
   0  -4  -2 28593.5 860.906  63
   0  -4  -2 31200.4 914.949   3
   0  -4  -2 28109.0 891.959  26
   0  -4  -1 6776.52 401.507  70
   0  -4  -1 7610.11 446.230  63
   0  -4  -1 7083.10 416.072  18
   0  -4  -1 8062.24 431.938   3
   0  -4   0 323853. 3763.90  70
   0  -4   0 338806. 3728.60   3
   0  -4   0 343274. 3760.14  13
   0  -4   0 345984. 3718.41  66
   0  -4   0 329427. 3807.98  18
   0  -4   0 319936. 4081.00   7
   0  -4   0 329994. 4079.04  63
   0  -4   1 352447. 3891.32  70
   0  -4   1 335952. 3951.95  66
   0  -4   1 357388. 3802.67  64
   0  -4   1 341932. 3776.59  12
   0  -4   1 341554. 3772.38   8
   0  -4   1 356181. 3924.11  18
   0  -4   1 334362. 3997.99  13
   0  -4   2 254089. 3469.83  13
   0  -4   2 255520. 3330.88  64
   0  -4   2 255015. 3311.38  12
   0  -4   2 251424. 3333.07   8
   0  -4   2 254522. 3419.87  66
   0  -4   3 42536.5 1281.88  12
   0  -4   3 43641.1 1317.52   8
   0  -4   3 44465.0 1331.26  66
   0  -4   3 42759.5 1337.84  13
   0  -4   3 44025.3 1314.42  64
   0  -4   3 40407.3 1298.31   6
   0  -4   4 25884.5 1118.43  12
   0  -4   4 29913.3 1238.81  13
   0  -4   4 29556.7 1199.38  64
   0  -4   4 28853.8 1191.13   8
   0  -4   4 28774.3 1148.53   6
   0  -4   4 31078.8 1229.65  66
   0  -4   5 102143. 2608.75  13
   0  -4   5 103370. 2563.40  64
   0  -4   5 105908. 2598.14  12
   0  -4   5 103805. 2590.33   8
   0  -4   5 101755. 2550.25  66
   0  -4   5 111993. 2446.55  16
   0  -4   5 106749. 2449.88   6
   0  -4   6 216035. 4149.47  12
   0  -4   6 216596. 4158.36  66
   0  -4   6 219663. 4261.81  13
   0  -4   8 105890. 2693.13  30
   0  -4   8 103879. 2679.01  73
   0  -3 -12 64321.4 1451.30  40
   0  -3 -12 63864.2 1444.14  83
   0  -3 -12 61624.3 1294.79  76
   0  -3 -11 37710.4 1320.10  40
   0  -3 -11 38369.5 1338.60  83
   0  -3 -11 35676.4 1215.14  76
   0  -3 -11 38010.3 1345.24  93
   0  -3 -10 60600.5 1869.01  93
   0  -3 -10 62360.6 1886.13  83
   0  -3 -10 54247.7 1610.97  32
   0  -3 -10 58192.0 1787.11  50
   0  -3 -10 57126.8 1730.10  76
   0  -3 -10 56437.4 1787.05  84
   0  -3  -9 132767. 2869.65  84
   0  -3  -9 136659. 2946.38  83
   0  -3  -9 132861. 2697.55  32
   0  -3  -9 131963. 2821.05  50
   0  -3  -9 134744. 2790.43  76
   0  -3  -9 131879. 2876.04  93
   0  -3  -9 126389. 2750.01  72
   0  -3  -8 158749. 3085.76  93
   0  -3  -8 167520. 3006.39  60
   0  -3  -8 173454. 3262.01  83
   0  -3  -8 160543. 2925.28  32
   0  -3  -8 162657. 3113.38  84
   0  -3  -8 163912. 3061.41  50
   0  -3  -8 165896. 3034.90  76
   0  -3  -8 177772. 3153.07  72
   0  -3  -7 314744. 4422.32  60
   0  -3  -7 304979. 4255.66  72
   0  -3  -6 132098. 2265.36  70
   0  -3  -6 139603. 2285.20   3
   0  -3  -6 118527. 2163.87  61
   0  -3  -6 123881. 2245.63  29
   0  -3  -6 125693. 2246.52  72
   0  -3  -5 205693. 2868.48   3
   0  -3  -5 199549. 2746.89  72
   0  -3  -4 357813. 4032.29   3
   0  -3  -4 354130. 4008.01  70
   0  -3  -4 360430. 3770.62  67
   0  -3  -4 349560. 3759.63  72
   0  -3  -3 334724. 3650.31  70
   0  -3  -3 343322. 3494.38  67
   0  -3  -3 344700. 3299.95  10
   0  -3  -3 337418. 3700.06   3
   0  -3  -2 603610. 5850.63  70
   0  -3  -2 618226. 5762.02  67
   0  -3  -2 605555. 5881.90  18
   0  -3  -1 6462.93 337.081  63
   0  -3  -1 6496.72 344.047   7
   0  -3  -1 6330.45 329.448   3
   0  -3   0 27772.6 649.359  66
   0  -3   0 29097.5 561.389  64
   0  -3   0 27964.9 665.438  13
   0  -3   0 28084.1 562.022  12
   0  -3   0 28286.3 559.869   8
   0  -3   0 28203.7 678.623   3
   0  -3   1 143301. 1722.49   3
   0  -3   1 140954. 1957.18  13
   0  -3   1 148294. 1900.71  64
   0  -3   1 143312. 1889.05   8
   0  -3   1 142764. 1937.04  66
   0  -3   2 352211. 3983.38  64
   0  -3   2 349050. 3986.57   8
   0  -3   3 224099. 3158.60  64
   0  -3   3 221661. 2618.31  58
   0  -3   3 205962. 3081.56   8
   0  -3   3 209064. 3000.53   6
   0  -3   4 204848. 3281.62  64
   0  -3   4 201337. 3274.58   8
   0  -3   4 201266. 3068.98   6
   0  -3   5 137037. 2884.62  64
   0  -3   5 132296. 2860.09   8
   0  -3   5 142686. 2577.63  16
   0  -3   5 137136. 2605.94   6
   0  -3   6 200840. 3905.41  64
   0  -3   6 203409. 3926.68  12
   0  -3   6 200226. 3925.32   8
   0  -3   7 196546. 4075.56  12
   0  -3   8 139389. 3185.53  22
   0  -3   8 137557. 3167.95  71
   0  -3   9 65145.9 2091.54  30
   0  -3   9 64282.6 2085.13  73
   0  -2 -12 71640.7 1464.75  40
   0  -2 -11 70349.0 1801.35  40
   0  -2 -11 68451.2 1750.72  83
   0  -2 -11 64412.4 1641.74  76
   0  -2 -10 66181.7 1718.64  21
   0  -2 -10 68998.6 2014.03  93
   0  -2 -10 73486.8 2022.02  83
   0  -2 -10 71940.3 2015.04  50
   0  -2 -10 67378.6 1878.66  76
   0  -2  -9 136630. 2908.75  84
   0  -2  -9 136336. 2938.11  93
   0  -2  -9 132106. 2617.29  21
   0  -2  -9 144516. 2970.96  83
   0  -2  -9 126942. 2664.14  32
   0  -2  -9 129041. 2831.82  50
   0  -2  -9 138485. 2830.09  76
   0  -2  -9 133421. 2850.96  72
   0  -2  -8 209745. 3398.22  21
   0  -2  -8 229005. 3782.67  83
   0  -2  -8 219992. 3723.19  93
   0  -2  -8 220615. 3531.44  32
   0  -2  -8 221784. 3709.49  84
   0  -2  -8 217603. 3652.27  50
   0  -2  -8 226398. 3645.22  76
   0  -2  -8 225622. 3751.89  72
   0  -2  -7 279010. 4047.20  61
   0  -2  -7 276702. 3872.11  21
   0  -2  -7 284885. 4164.37  72
   0  -2  -6 305597. 3814.60  21
   0  -2  -6 305475. 4006.86  61
   0  -2  -6 309930. 4055.04  60
   0  -2  -6 314790. 3981.18  29
   0  -2  -6 313357. 4097.45  72
   0  -2  -5 16514.5 640.456  70
   0  -2  -5 16272.8 613.222   3
   0  -2  -5 15165.8 631.382  61
   0  -2  -5 14396.0 630.379  72
   0  -2  -5 14557.1 554.885  21
   0  -2  -4 219219. 2718.67  70
   0  -2  -4 224535. 2697.70   3
   0  -2  -4 222256. 2578.98  14
   0  -2  -4 217967. 2688.69  72
   0  -2  -3 133722. 1720.96  61
   0  -2  -3 141457. 1863.67   3
   0  -2   0 19057.1 370.971  64
   0  -2   0 18079.0 366.261   8
   0  -2   1 93211.8 1090.85   3
   0  -2   2 183486. 1937.02   3
   0  -2   2 263486. 2784.38   6
   0  -2   3 512280. 4966.63  58
   0  -2   4 479137. 5518.28  64
   0  -2   4 479830. 5539.30   8
   0  -2   4 475525. 5143.45   6
   0  -2   5 306532. 4432.56  64
   0  -2   5 299827. 4196.27  11
   0  -2   5 292786. 3769.52  58
   0  -2   5 307647. 4462.84   8
   0  -2   5 313926. 3879.42  16
   0  -2   5 304149. 3985.65   6
   0  -2   6 150152. 3119.04  64
   0  -2   6 153623. 3181.04   8
   0  -2   7 81424.7 2437.47   8
   0  -2   7 81551.8 2423.33  64
   0  -2   7 85629.7 2496.72  12
   0  -2   8 86582.0 2490.20  22
   0  -2   8 92990.5 2705.27  12
   0  -2   8 87794.7 2498.02  71
   0  -2   9 65058.5 2092.33  22
   0  -2   9 63010.1 2066.29  71
   0  -1 -12 72595.0 1307.50  40
   0  -1 -11 138443. 2518.81  40
   0  -1 -11 143696. 2413.33  83
   0  -1 -10 60395.2 1797.50  40
   0  -1 -10 56631.9 1651.16  21
   0  -1 -10 59925.8 1736.56  76
   0  -1  -9 175149. 3442.63  93
   0  -1  -9 170206. 3196.80  21
   0  -1  -9 186712. 3353.62  83
   0  -1  -9 183162. 3034.18  51
   0  -1  -9 179146. 3442.13  50
   0  -1  -9 178401. 3306.07  76
   0  -1  -8 106578. 2483.91  93
   0  -1  -8 120493. 2516.11  83
   0  -1  -8 108423. 2438.32  84
   0  -1  -8 108989. 2340.52  32
   0  -1  -8 111771. 2224.30  51
   0  -1  -8 111579. 2500.49  50
   0  -1  -8 115438. 2452.25  76
   0  -1  -8 103432. 2348.11  21
   0  -1  -8 108310. 2529.97  72
   0  -1  -7 222276. 3406.23  21
   0  -1  -7 213810. 3561.94  72
   0  -1  -6 200791. 2833.16  60
   0  -1  -6 199752. 3110.42  72
   0  -1  -5 28085.4 777.911  70
   0  -1  -5 25380.0 799.204  21
   0  -1  -5 27211.0 706.860   3
   0  -1  -5 25769.9 846.496  61
   0  -1  -5 22473.0 754.739  60
   0  -1  -5 23360.2 836.366  72
   0  -1  -4 81214.4 1276.15   3
   0  -1  -4 79178.1 1386.62  14
   0  -1  -4 82823.8 1358.18  21
   0  -1  -4 80854.8 1421.71  61
   0  -1  -4 77744.3 1427.35  72
   0  -1   1 4846.81 112.791   3
   0  -1   4 346097. 4103.82  11
   0  -1   4 325799. 3371.64  65
   0  -1   4 361594. 3831.67  58
   0  -1   4 358056. 3719.12  16
   0  -1   4 331595. 3809.82   6
   0  -1   5 138373. 2553.83  64
   0  -1   5 133946. 2497.50  11
   0  -1   5 136458. 2546.64   8
   0  -1   5 129576. 2170.16  58
   0  -1   5 138410. 2087.78  16
   0  -1   5 128346. 2154.30   6
   0  -1   5 132629. 2211.36  27
   0  -1   6 21428.1 1035.76  11
   0  -1   6 23802.3 937.670  58
   0  -1   6 22787.9 931.056  27
   0  -1   7 57074.2 1807.59  22
   0  -1   7 56767.2 1898.47  64
   0  -1   7 57194.9 1922.67   8
   0  -1   7 56455.4 1800.37  71
   0  -1   8 164382. 3492.02  22
   0  -1   8 164497. 3653.22  12
   0  -1   8 162373. 3478.38  71
   0  -1   9 126389. 3086.20  22
   0  -1   9 127747. 3103.35  71
   0  -1  11 16388.1 754.123  33
   0   0 -11 165569. 2554.31  40
   0   0 -11 164461. 2364.91  51
   0   0 -10 123990. 2515.80  40
   0   0 -10 121020. 2318.32  51
   0   0 -10 118600. 2454.66  76
   0   0  -9 110914. 2512.28  40
   0   0  -9 104007. 2447.83  21
   0   0  -9 107915. 2324.47  51
   0   0  -9 104375. 2454.64  76
   0   0  -8 3361.82 420.984  93
   0   0  -8 3574.87 413.641  91
   0   0  -8 3619.32 420.622  76
   0   0  -8 3359.12 379.786  51
   0   0  -8 2487.22 352.401  21
   0   0  -7 73243.4 1875.43  21
   0   0  -7 75992.7 2011.19  72
   0   0  -6 289756. 3993.47  21
   0   0  -6 300521. 4027.23  61
   0   0  -5 624293. 6362.58  59
   0   0  -5 575898. 6206.08  21
   0   0  -5 604041. 6280.74  61
   0   0  -5 584578. 5841.98  60
   0   0  -5 606260. 6461.42  72
   0   0  -4 69227.9 1345.84  14
   0   0  -4 70637.5 1338.03  59
   0   0  -4 66607.1 1280.84  21
   0   0  -4 63386.6 1271.41  61
   0   0  -4 62246.9 1116.96  60
   0   0  -4 67249.7 898.263   3
   0   0  -4 68321.7 1381.51  72
   0   0  -3 12439.9 445.208  61
   0   0  -3 12829.3 321.276   3
   0   0  -3 12589.3 449.002  62
   0   0  -2 43997.0 590.451   3
   0   0  -2 45039.3 682.434  60
   0   0  -2 45675.2 759.437  59
   0   0   2 45349.2 718.887  58
   0   0   2 47928.7 726.597   6
   0   0   3 11759.6 483.143  11
   0   0   3 12610.8 429.386  58
   0   0   3 11664.1 399.269   6
   0   0   4 61255.8 1382.60  11
   0   0   4 57611.2 1139.45   6
   0   0   5 535193. 6387.65  11
   0   0   5 559764. 6120.01  27
   0   0   6 307464. 4232.14  22
   0   0   6 283688. 4393.81  11
   0   0   6 306546. 3918.57   4
   0   0   6 314485. 4402.68   8
   0   0   6 288374. 3992.15  58
   0   0   6 281962. 4087.70  27
   0   0   6 312355. 4250.99  71
   0   0   6 305489. 4356.25  64
   0   0   7 71387.0 1998.32  22
   0   0   7 71660.0 2034.31  64
   0   0   7 67947.1 1821.54  58
   0   0   7 71083.5 2041.90   8
   0   0   7 69208.2 1902.72  27
   0   0   7 70478.4 1979.22  71
   0   0   8 3331.91 448.864  22
   0   0   8 3168.20 444.172  64
   0   0   8 3558.75 475.688   8
   0   0   8 3444.49 432.056  27
   0   0   8 4209.38 509.396  71
   0   0   9 113882. 2919.72  12
   0   0   9 109927. 2862.10  22
   0   0   9 108364. 2858.60  71
   0   0  10 122025. 2925.85  68
   0   0  10 122539. 2954.22  22
   0   0  10 119120. 2934.13  71
   0   0  11 161453. 3003.94  36
   0   1 -11 16091.2 598.939  51
   0   1 -10 53801.1 1458.25  51
   0   1  -9 125207. 2434.49  41
   0   1  -9 127233. 2646.18  91
   0   1  -9 126417. 2584.61  51
   0   1  -8 153454. 2810.90  41
   0   1  -8 161248. 3168.26  91
   0   1  -8 153089. 3108.23  21
   0   1  -8 154725. 3045.67  76
   0   1  -8 154672. 2954.79  51
   0   1  -7 53212.9 1470.69  41
   0   1  -7 50540.4 1597.20  93
   0   1  -7 52723.8 1537.77  51
   0   1  -6 22775.2 977.753  21
   0   1  -6 23520.6 970.115  59
   0   1  -6 24453.2 1051.52  72
   0   1  -5 140495. 2383.49  21
   0   1  -5 137961. 2269.79  61
   0   1  -5 137979. 2329.93  59
   0   1  -5 138007. 2465.67  72
   0   1  -4 358079. 4021.50  21
   0   1  -4 353280. 3946.93  59
   0   1  -4 343808. 4051.07  72
   0   1  -1 4810.77 180.544  59
   0   1  -1 4781.99 205.550   1
   0   1  -1 4373.26 131.795  60
   0   1   3 304589. 3188.76   4
   0   1   4 82745.9 1484.78  22
   0   1   4 82209.4 1473.59  58
   0   1   4 79564.8 1465.61  71
   0   1   5 27198.9 923.353  22
   0   1   5 23538.7 771.583   4
   0   1   5 25787.8 872.255  58
   0   1   5 21696.5 876.561  27
   0   1   5 27565.1 930.016  71
   0   1   6 203224. 3249.10  22
   0   1   6 199030. 2865.63   4
   0   1   6 200903. 3163.67  64
   0   1   6 205008. 3190.11   8
   0   1   6 192322. 3105.89  58
   0   1   6 204543. 3268.21  71
   0   1   7 223110. 3802.16  22
   0   1   7 233425. 3745.10  64
   0   1   7 223839. 3717.02   8
   0   1   7 226082. 3680.00  58
   0   1   7 226535. 3802.66  71
   0   1   8 123904. 2767.51  64
   0   1   8 113948. 2624.66  58
   0   1   8 120117. 2761.40   8
   0   1   8 120161. 2878.73  71
   0   1   8 119509. 2853.96  22
   0   1   9 179342. 3673.36  68
   0   1   9 191593. 3745.91  12
   0   1   9 179929. 3814.08  22
   0   1   9 183092. 3619.29  27
   0   1   9 182374. 3844.11  71
   0   1  10 62574.0 2028.25  68
   0   1  10 60196.7 1868.44  47
   0   1  11 143430. 3042.71  36
   0   1  11 150071. 2868.27  82
   0   1  11 142648. 2637.49  47
   0   1  12 76337.3 1686.81  36
   0   1  12 76728.9 1750.62  33
   0   2 -11 52441.0 1000.27  51
   0   2 -10 27962.5 975.605  51
   0   2  -9 67719.9 1834.27  91
   0   2  -9 66013.4 1784.06  51
   0   2  -8 90797.2 2153.17  41
   0   2  -8 88823.9 2350.78  91
   0   2  -8 88358.0 2294.33  21
   0   2  -8 86621.6 2177.99  51
   0   2  -7 78524.6 1964.37  41
   0   2  -7 81437.9 2226.60  91
   0   2  -7 77865.5 2017.55  51
   0   2  -7 76542.7 2092.04  21
   0   2  -6 157265. 2943.74  21
   0   2  -6 155348. 2793.59  59
   0   2  -5 318019. 4274.83  21
   0   2  -5 312136. 4069.22  59
   0   2  -4 474847. 5271.91  21
   0   2  -4 458855. 5085.59  59
   0   2  -3 501883. 5270.87  21
   0   2  -3 525780. 5517.75   1
   0   2  -2 250136. 2954.62  62
   0   2  -2 256982. 2571.77  60
   0   2  -2 278025. 3152.83   1
   0   2  -2 285265. 2936.61  59
   0   2  -2 284570. 2768.11  61
   0   2  -1 94609.8 1109.72  60
   0   2  -1 95202.3 1381.76   1
   0   2  -1 96809.6 1290.57  62
   0   2   0 17927.8 359.029  62
   0   2   0 18543.8 403.231  59
   0   2   0 17116.4 382.931  60
   0   2   0 17188.3 448.007   1
   0   2   3 146071. 2017.27  58
   0   2   3 149547. 1923.77   4
   0   2   4 199878. 2829.32  22
   0   2   4 202637. 2856.20  71
   0   2   5 14320.6 701.873  22
   0   2   5 16967.6 730.826  58
   0   2   5 14462.8 753.139  27
   0   2   5 14596.6 712.695  71
   0   2   5 15302.9 607.451   4
   0   2   6 338544. 4165.88  64
   0   2   6 335493. 4459.15  58
   0   2   6 333373. 3975.53   4
   0   2   6 334461. 4164.75   8
   0   2   6 316881. 4495.09  71
   0   2   6 313812. 4465.71  22
   0   2   7 283021. 4251.59  68
   0   2   7 297811. 4151.19  64
   0   2   7 292986. 4387.86  58
   0   2   7 303355. 4189.39   8
   0   2   7 279212. 4586.79  27
   0   2   7 281271. 4458.67  71
   0   2   7 277628. 4445.28  22
   0   2   8 230597. 3986.45  68
   0   2   8 228376. 4188.69  22
   0   2   8 231552. 4012.24  58
   0   2   8 233111. 4243.15  27
   0   2   8 216430. 3710.96  45
   0   2   8 226437. 4184.94  71
   0   2   9 139085. 3116.63  68
   0   2   9 143109. 3253.54  27
   0   2   9 133498. 2856.16  45
   0   2   9 137565. 3265.15  71
   0   2  10 68198.0 2100.23  68
   0   2  10 72085.4 2165.42  47
   0   2  10 76021.8 2203.13  27
   0   2  10 70066.9 1918.14  45
   0   2  10 70529.1 2257.05  71
   0   2  11 65882.7 2042.65  36
   0   2  11 64738.0 1848.59  47
   0   2  12 78177.2 1726.74  82
   0   2  12 73518.2 1789.45  36
   0   3 -10 21314.4 756.034  51
   0   3  -9 62416.1 1645.59  56
   0   3  -9 64167.4 1669.95  51
   0   3  -9 62557.2 1647.00  91
   0   3  -8 134911. 2761.50  41
   0   3  -8 143927. 2863.94  51
   0   3  -8 131245. 2817.93  21
   0   3  -8 137893. 2981.58  91
   0   3  -8 143405. 3027.87  56
   0   3  -7 200436. 3518.63  41
   0   3  -7 197181. 3839.63  91
   0   3  -7 205999. 3597.69  51
   0   3  -7 202201. 3709.89  21
   0   3  -6 191710. 3326.87  41
   0   3  -6 201180. 3284.87  59
   0   3  -6 194142. 3710.72  91
   0   3  -6 198306. 3407.82  51
   0   3  -6 200644. 3591.40  21
   0   3  -5 136942. 2690.88  21
   0   3  -5 134862. 2443.45  59
   0   3  -4 202662. 3120.85  21
   0   3  -4 195134. 2889.18  59
   0   3  -4 203181. 3339.10   1
   0   3  -3 231070. 3088.69  62
   0   3  -3 234098. 3124.76  21
   0   3  -3 222491. 2926.85  59
   0   3  -3 231963. 3318.65   1
   0   3  -2 336519. 4028.36   1
   0   3  -2 330625. 3667.83  59
   0   3  -2 341493. 3789.38  62
   0   3  -1 153875. 1987.68  71
   0   3  -1 150259. 1752.52  60
   0   3  -1 150810. 1907.46  62
   0   3  -1 149975. 1888.47  59
   0   3  -1 150881. 2128.13   1
   0   3  -1 155036. 2008.21  17
   0   3   0 30685.4 656.547  60
   0   3   0 29281.4 645.924  59
   0   3   0 30362.3 765.288   1
   0   3   0 30961.7 585.405  62
   0   3   1 8728.12 371.364   1
   0   3   1 5576.40 288.603  60
   0   3   1 7336.09 312.606  59
   0   3   1 5888.42 287.986  58
   0   3   1 7354.96 200.666  62
   0   3   3 325841. 3658.79   4
   0   3   3 329707. 3750.34  58
   0   3   3 322893. 3814.89  71
   0   3   4 359653. 3968.92  68
   0   3   4 350030. 4167.98  58
   0   3   4 356841. 3969.59   4
   0   3   4 351867. 4301.51  71
   0   3   5 199106. 2872.12  68
   0   3   5 205693. 3114.31  58
   0   3   5 208428. 2808.51   4
   0   3   5 198395. 3183.60  71
   0   3   6 127886. 2407.35  68
   0   3   6 132611. 2210.95   4
   0   3   6 134174. 2606.28  58
   0   3   6 125864. 2771.43  27
   0   3   6 129222. 2674.46  71
   0   3   7 297232. 4569.31  58
   0   3   7 293524. 4350.68  68
   0   3   7 300734. 4905.66  27
   0   3   7 305903. 4766.75  71
   0   3   8 164324. 3239.57  68
   0   3   8 172250. 3429.68  58
   0   3   8 166855. 3643.70  27
   0   3   8 167417. 3528.04  71
   0   3   9 132012. 2956.97  68
   0   3   9 130885. 3129.50  47
   0   3   9 130283. 2942.98  45
   0   3   9 128614. 3173.13  71
   0   3  10 55515.5 1820.59  68
   0   3  10 58532.7 2103.72  36
   0   3  10 59455.1 2004.70  47
   0   3  10 61036.6 2037.66  27
   0   3  10 54620.7 1783.86  45
   0   3  10 54867.9 1962.94  71
   0   3  11 38543.0 1544.05  36
   0   3  11 38624.6 1501.54  82
   0   3  11 38201.2 1445.79  47
   0   3  12 66067.7 1676.97  82
   0   3  12 64523.8 1689.88  36
   0   4  -9 43094.1 1154.83  56
   0   4  -9 43806.8 1159.94  91
   0   4  -9 46075.4 1249.79  51
   0   4  -8 105764. 2429.41  91
   0   4  -8 104447. 2414.19  56
   0   4  -8 111953. 2360.16  51
   0   4  -7 160931. 3099.94  41
   0   4  -7 159700. 3396.13  56
   0   4  -7 166825. 3171.41  51
   0   4  -7 161716. 3157.14  21
   0   4  -7 158629. 3391.60  91
   0   4  -6 215394. 3686.46  41
   0   4  -6 205873. 4061.16  91
   0   4  -6 203184. 4030.84  56
   0   4  -6 227748. 3768.61  51
   0   4  -6 229404. 3919.57  21
   0   4  -5 101371. 2283.58  41
   0   4  -5 110322. 2258.64  80
   0   4  -5 99058.5 2564.49  91
   0   4  -5 98384.8 2552.16  56
   0   4  -5 105789. 2325.98  51
   0   4  -5 106577. 2445.68  21
   0   4  -4 29346.6 1134.40  21
   0   4  -4 30330.5 1263.61   1
   0   4  -3 44900.0 1407.00   1
   0   4  -3 45356.3 1280.61  21
   0   4  -3 41183.9 1129.96  59
   0   4  -2 258556. 3173.43  59
   0   4  -2 257228. 3209.88  62
   0   4  -1 335699. 3933.16  71
   0   4  -1 341508. 3768.45  59
   0   4  -1 342378. 4155.56   1
   0   4   0 356917. 3918.21  71
   0   4   0 334471. 4015.37   1
   0   4   0 347890. 3676.38  68
   0   4   0 358285. 3769.12  60
   0   4   0 369399. 3508.68  62
   0   4   0 344036. 3716.66  59
   0   4   0 355287. 3944.61  17
   0   4   1 6447.65 360.575  60
   0   4   1 6364.83 335.123  59
   0   4   1 6536.17 378.678  17
   0   4   1 6968.73 385.872  71
   0   4   2 30610.4 874.268   1
   0   4   2 31192.7 823.800  59
   0   4   2 32812.4 921.726  17
   0   4   2 31425.5 891.035  71
   0   4   3 684910. 6941.28   1
   0   4   3 684142. 7054.38  17
   0   4   3 689224. 7043.92  71
   0   4   4 530905. 5849.07  58
   0   4   4 527911. 5960.95  71
   0   4   5 478460. 5480.73  68
   0   4   5 498100. 5860.62  58
   0   4   5 496240. 6025.23  71
   0   4   6 56297.9 1532.76  68
   0   4   6 51847.2 1366.83   4
   0   4   6 53591.6 1643.41  58
   0   4   6 51929.6 1802.16  27
   0   4   6 52797.4 1705.53  71
   0   4   7 63860.5 1782.75  68
   0   4   7 65041.6 1957.35  58
   0   4   7 65250.9 2148.70  27
   0   4   7 62920.2 2012.73  71
   0   4   8 85194.1 2210.44  68
   0   4   8 80476.4 2161.01  92
   0   4   8 83906.3 2426.81  47
   0   4   8 86606.0 2605.24  27
   0   4   8 85290.7 2342.82  45
   0   4   8 88460.5 2509.66  71
   0   4   9 171893. 3776.91  36
   0   4   9 167431. 3265.26  92
   0   4   9 165010. 3633.66  47
   0   4   9 172391. 3811.46  27
   0   4   9 165391. 3476.24  45
   0   4   9 167302. 3630.54  71
   0   4  10 111767. 2910.45  36
   0   4  10 113302. 2848.01  47
   0   4  10 110431. 2696.74  45
   0   4  10 107951. 2777.47  71
   0   4  11 42171.3 1562.02  82
   0   4  11 39022.2 1506.16  36
   0   4  11 41848.8 1520.00  47
   0   4  12 27722.9 950.091  43
   0   4  12 26793.0 1019.81  36
   0   4  12 27418.7 1047.59  82
   0   4  12 25568.2 968.589  33
   0   5  -8 48333.1 1350.79  91
   0   5  -8 46067.8 1327.00  56
   0   5  -8 47524.9 1313.09  51
   0   5  -7 28683.8 1265.02  56
   0   5  -7 29658.9 1286.73  91
   0   5  -7 29738.4 1161.91  51
   0   5  -6 83746.8 2133.51  41
   0   5  -6 82536.0 2409.78  91
   0   5  -6 80874.3 2391.20  56
   0   5  -6 87454.2 2027.14  80
   0   5  -6 90356.4 2227.09  51
   0   5  -5 132107. 2712.31  41
   0   5  -5 131496. 3115.01  91
   0   5  -5 122381. 3014.16  56
   0   5  -5 129972. 2696.34  80
   0   5  -5 122043. 2642.15  51
   0   5  -4 124921. 2503.14  41
   0   5  -4 119618. 2850.68  91
   0   5  -4 125327. 2646.32  80
   0   5  -4 117275. 2815.09  56
   0   5  -4 119000. 2470.57  51
   0   5  -3 35808.2 1383.64   1
   0   5  -2 48597.9 1512.29   1
   0   5  -1 112952. 2235.07   1
   0   5   0 480156. 5353.71  71
   0   5   0 475542. 5029.63  59
   0   5   0 488173. 5545.58   1
   0   5   0 478077. 5376.81  17
   0   5   1 588529. 5928.21  59
   0   5   1 582599. 6258.97  17
   0   5   1 588852. 6292.51   1
   0   5   1 587356. 6230.53  71
   0   5   2 16135.3 646.569  59
   0   5   2 15377.5 643.456  58
   0   5   2 18149.9 749.109   1
   0   5   2 17005.6 741.821  17
   0   5   2 16142.3 718.020  71
   0   5   3 219523. 3042.16  59
   0   5   3 211731. 3088.40  58
   0   5   3 217870. 3260.21  17
   0   5   3 216377. 3217.66  71
   0   5   4 135169. 2514.87  58
   0   5   4 141416. 2659.12  17
   0   5   4 138164. 2624.02  71
   0   5   4 139431. 2477.54   1
   0   5   5 261788. 3931.50   1
   0   5   5 268989. 4076.54  58
   0   5   5 273072. 4211.51  71
   0   5   6 275783. 4363.94  58
   0   5   6 275287. 4478.04  71
   0   5   7 57274.2 1714.44  94
   0   5   7 61020.5 1945.64  92
   0   5   7 62846.0 1976.60  58
   0   5   7 61373.3 1891.57  34
   0   5   7 61814.9 1976.10  47
   0   5   7 58782.0 1907.44  45
   0   5   7 65289.3 2087.53  71
   0   5   8 46005.9 1766.36  36
   0   5   8 40612.5 1595.39  92
   0   5   8 41403.7 1693.25  47
   0   5   8 41056.8 1653.01  45
   0   5   8 42000.6 1712.48  71
   0   5   9 59190.8 1943.71  92
   0   5   9 66572.9 2172.58  36
   0   5   9 62830.0 2124.90  47
   0   5   9 60280.4 2035.38  45
   0   5   9 62750.0 2101.45  71
   0   5  10 118539. 2653.87  92
   0   5  10 121540. 2878.50  36
   0   5  10 121801. 2907.19  47
   0   5  10 119384. 2814.38  45
   0   5  10 115856. 2800.73  71
   0   5  11 102068. 2429.17  43
   0   5  11 95920.5 2271.17  36
   0   5  11 94035.5 2124.26  33
   0   5  11 97437.9 2344.14  82
   0   5  11 94974.3 2305.96  47
   0   5  12 65549.2 1519.25  43
   0   5  12 64124.7 1458.88  36
   0   5  12 59540.8 1299.28  33
   0   5  12 63295.4 1538.15  82
   0   6  -7 27371.1 1036.56  91
   0   6  -7 27427.6 1041.16  56
   0   6  -6 32788.5 1142.66  80
   0   6  -6 34097.4 1386.52  91
   0   6  -6 33354.7 1371.16  56
   0   6  -6 32343.2 1194.31  51
   0   6  -5 58884.5 1677.75  41
   0   6  -5 56431.4 1955.21  91
   0   6  -5 55907.5 1951.86  56
   0   6  -5 60993.9 1793.52  80
   0   6  -5 57682.2 1699.89  51
   0   6  -4 135266. 2629.79  41
   0   6  -4 124683. 3049.01  91
   0   6  -4 125946. 3057.51  56
   0   6  -4 131148. 2902.87  80
   0   6  -4 133087. 2670.27  51
   0   6  -4 134102. 2628.45  55
   0   6  -3 91307.9 2008.22  41
   0   6  -3 85001.3 2381.15  56
   0   6  -3 88213.6 2188.21  55
   0   6  -3 87238.0 2411.30  91
   0   6  -3 82362.2 2306.64  80
   0   6  -3 86002.2 2022.85  51
   0   6  -2 134445. 2905.67  91
   0   6  -2 134121. 2894.03  56
   0   6  -2 141446. 2877.02  55
   0   6  -2 127626. 2908.38  52
   0   6  -2 141409. 2499.65  51
   0   6  -2 137865. 3023.56  80
   0   6  -2 144540. 2658.04  87
   0   6  -2 146373. 2947.29   1
   0   6  -1 57129.0 1686.57   1
   0   6   0 245285. 3657.88  71
   0   6   0 254822. 3822.99   1
   0   6   1 466085. 5597.60  71
   0   6   1 470444. 5646.07   1
   0   6   1 459031. 5610.00  17
   0   6   2 180099. 3053.08  17
   0   6   2 182241. 3026.46  71
   0   6   3 37788.9 1230.81   1
   0   6   3 40584.4 1361.89  17
   0   6   3 40168.4 1356.99  71
   0   6   4 65376.2 1667.09  59
   0   6   4 67146.1 1764.85  58
   0   6   4 66207.5 1695.36   1
   0   6   4 67141.6 1880.61  17
   0   6   4 67006.9 1875.70  71
   0   6   5 89347.6 2326.51  17
   0   6   5 90032.2 2207.91  58
   0   6   5 91967.1 2338.73  71
   0   6   6 179091. 3527.81  94
   0   6   6 178687. 3697.15  92
   0   6   6 185523. 3480.32  58
   0   6   6 179027. 3695.88  34
   0   6   6 189210. 3694.39  17
   0   6   6 175512. 3247.12  75
   0   6   6 167689. 3356.81  45
   0   6   6 187833. 3650.22  71
   0   6   7 211373. 3922.15  94
   0   6   7 213743. 4180.09  92
   0   6   7 213379. 4066.67  34
   0   6   7 217847. 4135.78  17
   0   6   7 202298. 3850.96  47
   0   6   7 203390. 3921.10  45
   0   6   7 216089. 4096.24  71
   0   6   8 32968.3 1368.70  94
   0   6   8 32219.4 1505.89  92
   0   6   8 32977.2 1434.26  34
   0   6   8 31865.1 1479.88  17
   0   6   8 32264.1 1462.90  47
   0   6   8 32803.8 1489.67  45
   0   6   8 30926.5 1449.56  71
   0   6   9 76204.3 2311.64  92
   0   6   9 75344.1 2192.28  82
   0   6   9 70556.3 2187.34  17
   0   6   9 74379.6 2235.86  47
   0   6   9 72375.8 2218.61  45
   0   6   9 69659.1 2158.12  71
   0   6  10 55665.4 1683.99  36
   0   6  10 54485.5 1758.91  82
   0   6  10 55298.3 1759.88  92
   0   6  10 50955.7 1738.48  47
   0   6  11 86030.7 2094.71  43
   0   6  11 83204.7 1881.00  92
   0   6  11 82033.4 1950.19  82
   0   6  12 114793. 1987.05  43
   0   6  12 109439. 1853.01  82
   0   7  -6 27658.9 1036.40  56
   0   7  -6 28279.1 1041.32  91
   0   7  -6 29980.6 900.564  80
   0   7  -5 53808.8 1715.10  91
   0   7  -5 54830.4 1729.70  56
   0   7  -5 54297.1 1561.75  80
   0   7  -4 88220.4 2032.39  55
   0   7  -4 83342.9 2328.87  91
   0   7  -4 85229.7 2359.02  56
   0   7  -4 85193.0 2245.17  80
   0   7  -3 161738. 3420.93  91
   0   7  -3 160473. 3411.91  56
   0   7  -3 158608. 3394.81  80
   0   7  -3 160900. 3154.01  55
   0   7  -2 203139. 3857.81  91
   0   7  -2 208613. 3890.18  56
   0   7  -2 200214. 3787.24  55
   0   7  -2 212811. 3532.70  87
   0   7  -2 193178. 3953.74  80
   0   7  -1 68779.6 2018.20  56
   0   7  -1 67161.1 1991.13  91
   0   7  -1 63569.2 2056.09  55
   0   7  -1 66151.7 2172.69  80
   0   7  -1 71147.6 1906.87  87
   0   7   0 62552.9 1806.04  87
   0   7   0 63226.6 1848.90  56
   0   7   0 57718.5 1973.82  55
   0   7   0 60930.7 2036.98  80
   0   7   0 64235.4 1865.19  91
   0   7   1 119793. 2514.02  71
   0   7   1 121277. 2567.62  91
   0   7   1 120382. 2671.64  34
   0   7   1 125711. 2608.84  56
   0   7   1 107982. 2779.13  85
   0   7   1 110637. 2806.60  55
   0   7   1 107064. 2794.94  52
   0   7   1 111516. 2759.84  80
   0   7   1 123234. 2694.15  87
   0   7   1 108358. 2670.66  75
   0   7   1 121389. 2560.73  17
   0   7   2 293154. 4333.15  71
   0   7   2 309747. 4312.41  91
   0   7   2 273996. 4480.16  94
   0   7   2 286143. 4651.72  34
   0   7   2 243145. 4552.15  85
   0   7   2 269604. 4552.81  52
   0   7   2 278189. 4433.89  80
   0   7   2 296667. 4618.89  87
   0   7   2 229481. 4392.81  75
   0   7   2 296859. 4400.40  17
   0   7   3 77171.9 2300.78  94
   0   7   3 95691.1 2513.00  87
   0   7   3 83657.2 2428.89  34
   0   7   3 82881.7 2399.87  85
   0   7   3 90558.5 2255.32  52
   0   7   3 82310.8 2394.44  75
   0   7   3 92966.0 2294.02  17
   0   7   3 90706.2 2237.57  71
   0   7   4 48611.0 1869.74  94
   0   7   4 49891.0 1750.23  92
   0   7   4 54746.2 1973.50  87
   0   7   4 46137.6 1844.98  34
   0   7   4 53713.3 1839.65  85
   0   7   4 51811.6 1877.81  75
   0   7   4 56156.1 1821.66  17
   0   7   4 55153.7 1784.16  71
   0   7   5 47918.3 1877.25  94
   0   7   5 45372.5 1786.33  92
   0   7   5 51479.4 2008.06  87
   0   7   5 46202.4 1890.10  34
   0   7   5 47162.5 1763.17  75
   0   7   5 53524.8 1827.49  17
   0   7   5 50854.3 1769.01  71
   0   7   6 49393.7 1909.69  94
   0   7   6 49067.6 1956.01  34
   0   7   6 47449.8 1905.63  92
   0   7   6 49313.0 1800.64  17
   0   7   6 53360.0 2135.47  87
   0   7   6 49613.6 1801.81  71
   0   7   7 266066. 4735.10  94
   0   7   7 260348. 4902.77  92
   0   7   7 279136. 4488.68  88
   0   7   7 266138. 4877.28  34
   0   7   7 266902. 4674.82  17
   0   7   7 265609. 4615.17  71
   0   7   8 59734.9 1966.95  94
   0   7   8 61646.1 2034.03  34
   0   7   8 61711.9 2157.42  92
   0   7   8 55243.2 1898.96  17
   0   7   8 56289.5 1902.27  71
   0   7   9 111814. 2740.84  43
   0   7   9 99913.3 2616.26  92
   0   7   9 102053. 2407.07  34
   0   7   9 105166. 2417.14  94
   0   7   9 95250.3 2395.54  17
   0   7   9 94257.0 2371.36  71
   0   7  10 52860.9 1692.82  43
   0   7  10 51808.9 1671.79  92
   0   7  10 52146.0 1721.33  87
   0   7  11 56174.7 1497.33  43
   0   7  11 54557.6 1426.86  87
   0   7  11 55137.8 1416.35  92
   0   8  -5 69450.9 1552.38  91
   0   8  -5 68511.7 1551.65  56
   0   8  -5 69388.5 1440.56  80
   0   8  -4 51143.2 1539.37  91
   0   8  -4 52106.6 1557.58  56
   0   8  -4 49720.1 1260.32  55
   0   8  -4 50254.3 1491.52  80
   0   8  -3 99357.4 2384.76  91
   0   8  -3 92049.7 2154.60  55
   0   8  -3 97438.5 2377.07  56
   0   8  -3 95022.1 2390.27  80
   0   8  -2 155316. 3185.78  56
   0   8  -2 154164. 3166.85  91
   0   8  -2 147906. 3302.91  80
   0   8  -2 143985. 3077.64  55
   0   8  -1 123293. 2821.14  56
   0   8  -1 122199. 2805.66  91
   0   8  -1 117487. 3030.84  80
   0   8  -1 115729. 2896.70  55
   0   8   0 26883.7 1234.75  56
   0   8   0 27792.9 1403.14  55
   0   8   0 25039.8 1157.91  87
   0   8   0 22747.9 1285.32  80
   0   8   0 25421.3 1190.25  91
   0   8   1 34345.9 1420.96  87
   0   8   1 30594.5 1441.01  88
   0   8   1 33344.3 1395.53  34
   0   8   1 30363.9 1500.90  55
   0   8   1 34520.3 1370.64  91
   0   8   1 31359.8 1472.22  80
   0   8   2 87937.2 2243.13  71
   0   8   2 85515.9 2609.44  88
   0   8   2 83674.3 2340.46  94
   0   8   2 94067.2 2506.07  87
   0   8   2 90236.5 2510.72  34
   0   8   2 84836.4 2542.73  55
   0   8   2 87624.4 2388.71  80
   0   8   2 86513.0 2250.77  17
   0   8   3 195623. 3578.69  71
   0   8   3 187201. 3965.45  34
   0   8   3 197656. 3616.95  17
   0   8   3 201639. 3969.80  87
   0   8   3 177726. 3791.63  94
   0   8   3 169325. 3677.25  55
   0   8   4 98616.5 2525.42  55
   0   8   4 97543.9 2873.86  34
   0   8   4 94081.0 2777.24  94
   0   8   4 103713. 2863.46  87
   0   8   4 100705. 2525.49  17
   0   8   4 102470. 2527.07  71
   0   8   5 57421.7 2017.47  92
   0   8   5 57025.5 2159.61  87
   0   8   5 51212.2 2065.00  34
   0   8   5 53072.1 2081.26  94
   0   8   5 52934.4 1821.18  17
   0   8   5 60266.5 2162.91  88
   0   8   5 54656.3 1826.65  71
   0   8   6 30315.4 1532.92  94
   0   8   6 32027.0 1608.37  87
   0   8   6 31645.0 1586.06  34
   0   8   6 27496.8 1433.62  92
   0   8   6 34389.1 1545.06  88
   0   8   6 29814.7 1349.65  17
   0   8   6 29834.3 1334.34  71
   0   8   7 102732. 2828.32  92
   0   8   7 105950. 2819.35  94
   0   8   7 103298. 2830.09  34
   0   8   7 105262. 2583.10  88
   0   8   7 108770. 2995.60  87
   0   8   7 101523. 2525.16  17
   0   8   7 98164.7 2478.75  71
   0   8   8 158457. 3091.83  43
   0   8   8 150088. 3245.57  94
   0   8   8 153210. 2831.72  88
   0   8   8 158936. 3530.10  87
   0   8   8 152053. 3259.01  34
   0   8   8 150081. 3374.83  92
   0   8   9 93659.2 2178.24  43
   0   8   9 89818.1 2362.48  87
   0   8   9 90056.8 2131.54  34
   0   8   9 87011.8 2302.36  92
   0   8   9 86954.4 2101.32  94
   0   8  10 80647.8 1794.61  43
   0   8  10 80205.4 1928.50  92
   0   8  10 79715.2 1918.04  87
   0   8  11 27277.5 791.817  43
   0   8  11 25612.9 782.457  87
   0   8  11 26838.0 836.825  92
   0   9  -3 23724.6 931.698  80
   0   9  -3 22920.6 790.236  55
   0   9  -3 23283.6 890.182  91
   0   9  -2 82367.8 1933.69  91
   0   9  -2 76164.6 1991.24  80
   0   9  -2 77324.0 1883.27  55
   0   9  -1 99914.5 2444.60  55
   0   9  -1 98958.1 2488.11  80
   0   9   0 51779.4 1831.80  55
   0   9   0 53826.0 1849.44  80
   0   9   1 34447.0 1526.47  55
   0   9   1 36095.6 1370.93  87
   0   9   1 36377.2 1339.35  34
   0   9   1 32966.4 1419.69  80
   0   9   1 33354.3 1367.70  88
   0   9   2 17983.9 1009.65  87
   0   9   2 17103.9 1008.80  34
   0   9   2 17117.5 1068.62  88
   0   9   2 17856.4 979.833  80
   0   9   2 17555.5 1092.62  55
   0   9   3 119076. 2834.40  87
   0   9   3 113188. 2888.31  34
   0   9   3 115825. 2842.00  55
   0   9   3 113745. 2996.81  88
   0   9   4 166934. 3704.00  88
   0   9   4 159618. 3610.20  34
   0   9   4 167745. 3272.92  55
   0   9   4 161632. 3483.74  87
   0   9   5 102036. 2742.80  88
   0   9   5 92762.5 2692.61  34
   0   9   5 91840.5 2667.37  94
   0   9   5 98893.8 2682.61  87
   0   9   6 49198.0 1865.07  94
   0   9   6 52424.6 1816.86  88
   0   9   6 49185.3 1845.63  87
   0   9   6 45543.2 1803.02  34
   0   9   6 50702.9 1743.94  92
   0   9   7 36022.5 1493.48  94
   0   9   7 36778.9 1365.45  88
   0   9   7 34804.8 1465.54  34
   0   9   7 35685.8 1500.45  87
   0   9   7 34666.2 1428.26  92
   0   9   8 104495. 2442.91  92
   0   9   8 105909. 2411.21  34
   0   9   8 108189. 2519.68  87
   0   9   8 103628. 2415.77  94
   0   9   9 75210.0 1669.32  34
   0   9   9 75142.7 1823.24  87
   0   9   9 73513.4 1802.71  92
   0   9   9 70358.9 1659.99  94
   0   9  10 67855.9 1401.81  87
   0   9  10 68010.5 1455.79  92
   0  10  -1 52592.4 1315.82  80
   0  10  -1 53375.0 1325.79  55
   0  10   0 98481.1 2010.52  80
   0  10   0 101307. 2138.58  55
   0  10   1 95574.3 2218.82  55
   0  10   1 101176. 2055.75  80
   0  10   2 24494.2 978.611  87
   0  10   2 23553.8 998.575  88
   0  10   2 23315.9 942.537  34
   0  10   2 22006.8 1033.14  55
   0  10   3 17164.6 925.967  88
   0  10   3 18321.5 895.952  87
   0  10   3 19696.5 955.352  34
   0  10   3 16732.5 867.279  55
   0  10   4 84602.6 2178.25  34
   0  10   4 89537.8 2238.08  88
   0  10   4 87484.1 1907.92  55
   0  10   4 82159.6 2049.04  87
   0  10   5 152511. 3015.59  94
   0  10   5 155095. 3109.45  34
   0  10   5 162607. 3034.33  87
   0  10   6 96206.2 2149.02  88
   0  10   6 91382.4 2214.41  34
   0  10   6 88010.4 2167.11  94
   0  10   6 91603.9 2152.33  87
   0  10   7 44804.4 1368.90  87
   0  10   7 45278.8 1259.30  88
   0  10   7 45743.4 1204.30  92
   0  10   7 44558.3 1384.05  34
   0  10   7 42800.0 1367.43  94
   0  10   8 10292.9 454.489  88
   0  10   8 10360.8 557.570  34
   0  10   8 11554.8 544.302  92
   0  10   8 10372.7 569.876  87
   0  11   4 22488.8 733.789  88
   0  11   5 61086.6 1282.87  88
   1 -10  -7 24266.3 665.012  89
   1 -10  -7 25709.7 767.024  32
   1 -10  -7 23904.3 729.558  77
   1 -10  -7 25120.1 751.808  76
   1 -10  -6 70517.4 1432.56  89
   1 -10  -6 70209.5 1488.53  32
   1 -10  -6 71145.3 1423.33  77
   1 -10  -6 73447.5 1476.66  76
   1 -10  -5 81189.8 1696.38  89
   1 -10  -5 85572.9 1744.45  32
   1 -10  -5 85577.2 1613.27  77
   1 -10  -5 84536.1 1679.04  76
   1 -10  -4 37884.3 1168.80  89
   1 -10  -4 41449.2 1199.09  32
   1 -10  -4 39818.8 1013.00  77
   1 -10  -4 39641.0 1118.30  76
   1 -10  -3 54239.8 1399.45  32
   1 -10  -3 53321.4 1306.19  76
   1 -10  -2 36544.8 1109.85  32
   1 -10  -2 38738.5 1046.52  76
   1 -10  -1 107077. 1919.52  32
   1 -10  -1 106681. 1716.64  76
   1 -10   0 83307.6 1489.61  32
   1  -9  -9 59653.0 1217.47  32
   1  -9  -9 59595.0 1266.91  77
   1  -9  -9 60834.8 1282.66  76
   1  -9  -8 76195.0 1427.72  89
   1  -9  -8 79287.5 1651.49  32
   1  -9  -8 76065.1 1423.37  50
   1  -9  -8 77733.3 1682.36  77
   1  -9  -8 75766.7 1659.44  76
   1  -9  -7 20255.5 824.805  89
   1  -9  -7 21110.6 904.091  32
   1  -9  -7 22749.0 815.220  50
   1  -9  -7 22103.6 930.367  77
   1  -9  -7 22654.5 938.694  76
   1  -9  -6 23244.3 1008.88  77
   1  -9  -6 23127.0 986.506  89
   1  -9  -6 22901.9 1008.95  32
   1  -9  -6 24424.0 907.621  50
   1  -9  -6 22535.2 993.528  76
   1  -9  -5 147175. 2878.34  32
   1  -9  -5 148269. 2587.17  50
   1  -9  -5 145811. 2847.37  76
   1  -9  -5 149108. 2828.27  77
   1  -9  -4 115954. 2443.24  77
   1  -9  -4 115912. 2577.37  32
   1  -9  -4 121258. 2395.63  31
   1  -9  -4 122637. 2358.76  50
   1  -9  -4 115930. 2534.13  76
   1  -9  -4 114246. 2361.84  74
   1  -9  -3 124434. 2424.51  50
   1  -9  -3 122649. 2465.85  77
   1  -9  -3 121845. 2622.36  76
   1  -9  -3 124523. 2764.39  26
   1  -9  -2 53383.7 1524.32  50
   1  -9  -2 56433.4 1689.51  76
   1  -9  -2 53523.5 1749.18  26
   1  -9  -1 20939.7 919.274  50
   1  -9  -1 21445.2 991.136  76
   1  -9  -1 20280.8 1044.32  26
   1  -9   0 83342.4 1855.25  50
   1  -9   0 80353.4 1915.71  76
   1  -9   1 94585.1 1917.73  76
   1  -8 -10 64732.9 1188.34  93
   1  -8 -10 66318.5 1295.89  32
   1  -8 -10 60912.4 1183.47  84
   1  -8 -10 64195.9 1234.70  50
   1  -8 -10 62577.6 1309.68  77
   1  -8 -10 63535.7 1371.95  76
   1  -8  -9 29529.8 919.755  93
   1  -8  -9 27345.3 887.989  84
   1  -8  -9 28491.6 982.007  32
   1  -8  -9 28416.4 940.251  50
   1  -8  -9 27712.2 1005.26  77
   1  -8  -9 27683.5 1013.64  76
   1  -8  -8 145752. 2496.90  93
   1  -8  -8 144694. 2442.50  89
   1  -8  -8 146428. 2465.81  84
   1  -8  -8 143693. 2683.84  32
   1  -8  -8 139458. 2544.95  50
   1  -8  -8 145236. 2781.14  77
   1  -8  -8 146238. 2759.42  76
   1  -8  -8 146550. 2553.64  29
   1  -8  -7 113461. 2254.90  93
   1  -8  -7 110440. 2340.83  89
   1  -8  -7 111265. 2476.24  32
   1  -8  -7 114808. 2361.79  50
   1  -8  -7 113713. 2530.29  76
   1  -8  -7 110401. 2373.41  29
   1  -8  -7 115268. 2556.37  77
   1  -8  -6 66530.3 1894.40  70
   1  -8  -6 68288.5 1976.56  76
   1  -8  -6 64891.7 1803.29  67
   1  -8  -6 65521.7 1928.32  32
   1  -8  -6 65331.1 1795.97  50
   1  -8  -6 67264.3 1955.77  77
   1  -8  -5 96335.7 2347.85  70
   1  -8  -5 93040.3 2376.38  77
   1  -8  -5 94336.1 2371.16  67
   1  -8  -5 90899.3 2388.80  32
   1  -8  -5 92931.3 2240.31  50
   1  -8  -5 90786.3 2367.08  76
   1  -8  -4 120309. 2638.21  70
   1  -8  -4 116010. 2766.58  67
   1  -8  -4 112636. 2544.32  50
   1  -8  -4 115313. 2552.99  19
   1  -8  -4 114202. 2653.92  77
   1  -8  -4 112558. 2707.56  76
   1  -8  -4 114212. 2818.07  26
   1  -8  -3 93331.3 2245.51  70
   1  -8  -3 89859.9 2458.87  67
   1  -8  -3 82188.1 2192.48  50
   1  -8  -3 95513.5 2436.52  19
   1  -8  -3 85096.9 2238.81  77
   1  -8  -3 84958.6 2337.11  76
   1  -8  -3 87723.0 2460.56  26
   1  -8  -2 118900. 2879.46  67
   1  -8  -2 119855. 2889.29  19
   1  -8  -2 111994. 2549.93  77
   1  -8  -2 112145. 2619.54  50
   1  -8  -2 117940. 2905.53  26
   1  -8  -1 80671.3 2303.23  67
   1  -8  -1 79070.5 2348.44  19
   1  -8   0 27420.8 1263.58  67
   1  -8   0 27665.6 1373.73  19
   1  -8   0 26828.2 1332.55  26
   1  -8   1 127663. 2995.98  19
   1  -8   1 123587. 2937.36  26
   1  -8   2 67587.6 2046.45  26
   1  -7 -11 28316.6 794.619  93
   1  -7 -11 27269.8 754.470  83
   1  -7 -11 28256.6 823.304  84
   1  -7 -11 28796.5 728.169  32
   1  -7 -11 29018.3 800.686  50
   1  -7 -11 27864.5 702.154  77
   1  -7 -11 29471.2 837.091  76
   1  -7 -10 55589.3 1396.06  93
   1  -7 -10 52818.4 1318.78  32
   1  -7 -10 52187.1 1297.52  83
   1  -7 -10 51693.8 1372.30  84
   1  -7 -10 55367.3 1392.55  50
   1  -7 -10 52382.7 1341.08  77
   1  -7 -10 52773.2 1406.10  76
   1  -7  -9 64423.1 1692.09  93
   1  -7  -9 61632.4 1668.00  84
   1  -7  -9 62093.9 1559.63  83
   1  -7  -9 62383.5 1655.71  32
   1  -7  -9 66818.9 1732.33  50
   1  -7  -9 64558.0 1732.74  77
   1  -7  -9 62289.6 1721.09  76
   1  -7  -9 66938.5 1573.36  29
   1  -7  -8 138879. 2781.55  70
   1  -7  -8 134661. 2688.68  84
   1  -7  -8 128963. 2703.15  32
   1  -7  -8 134905. 2697.27  93
   1  -7  -8 137918. 2735.27  50
   1  -7  -8 130715. 2783.47  77
   1  -7  -8 135317. 2826.04  76
   1  -7  -8 141845. 2668.54  29
   1  -7  -7 196754. 3557.55  70
   1  -7  -7 194854. 3358.81  84
   1  -7  -7 188253. 3510.31  32
   1  -7  -7 197220. 3405.13  93
   1  -7  -7 189464. 3417.71  50
   1  -7  -7 198317. 3648.04  77
   1  -7  -7 194172. 3607.11  76
   1  -7  -7 194450. 3448.50  29
   1  -7  -6 112977. 2598.17  70
   1  -7  -6 114302. 2467.70  93
   1  -7  -6 109908. 2376.67  84
   1  -7  -6 104879. 2547.08  32
   1  -7  -6 109130. 2496.81  50
   1  -7  -6 105626. 2589.81  77
   1  -7  -6 108619. 2618.03  76
   1  -7  -6 107487. 2430.05  67
   1  -7  -5 40917.8 1508.06  70
   1  -7  -5 39079.1 1474.88  67
   1  -7  -5 39158.7 1517.17  32
   1  -7  -5 37893.9 1414.47  50
   1  -7  -5 38867.3 1503.90  77
   1  -7  -5 40945.8 1548.86  76
   1  -7  -5 39868.6 1381.88  93
   1  -7  -4 139606. 2917.80  70
   1  -7  -4 132237. 2956.11  67
   1  -7  -4 140676. 2805.50  19
   1  -7  -4 129069. 2785.99  50
   1  -7  -4 128731. 2847.11  77
   1  -7  -4 124788. 2859.46  76
   1  -7  -4 133859. 3043.11  26
   1  -7  -3 111715. 2547.16  70
   1  -7  -3 111655. 2720.10  67
   1  -7  -3 118057. 2667.18  19
   1  -7  -3 101490. 2460.82  77
   1  -7  -3 102378. 2469.64  50
   1  -7  -3 107517. 2710.80  26
   1  -7  -2 123351. 2615.94  70
   1  -7  -2 125992. 2924.30  67
   1  -7  -2 113518. 2538.46  10
   1  -7  -2 128940. 2924.40  19
   1  -7  -2 111346. 2556.25  77
   1  -7  -2 108310. 2768.01  26
   1  -7  -1 172361. 3556.08  67
   1  -7  -1 169286. 3555.16  26
   1  -7   0 5418.44 579.864  67
   1  -7   0 7431.91 698.983  19
   1  -7   1 106876. 2629.16  67
   1  -7   1 107073. 2836.69  19
   1  -7   2 127687. 3088.45  69
   1  -7   2 130487. 3111.74  19
   1  -7   3 153499. 3334.75  69
   1  -7   3 150883. 3181.95  19
   1  -6 -12 86012.9 1327.72  93
   1  -6 -12 82056.1 1340.59  83
   1  -6 -11 105140. 1982.82  93
   1  -6 -11 103369. 1998.44  84
   1  -6 -11 103187. 1986.99  83
   1  -6 -11 104813. 1735.16  32
   1  -6 -11 104978. 1944.04  50
   1  -6 -11 102267. 1897.08  76
   1  -6 -10 81061.3 1962.74  84
   1  -6 -10 75309.5 1887.89  83
   1  -6 -10 78244.6 1763.97  32
   1  -6 -10 77995.2 1886.67  50
   1  -6 -10 78716.0 1758.35  77
   1  -6 -10 79322.5 1881.58  76
   1  -6 -10 79891.7 1935.34  93
   1  -6  -9 66285.9 1781.94  70
   1  -6  -9 69491.6 1926.36  93
   1  -6  -9 70909.9 1960.97  84
   1  -6  -9 65749.3 1858.73  83
   1  -6  -9 65559.7 1775.13  32
   1  -6  -9 74148.6 1962.36  50
   1  -6  -9 72948.0 1897.84  77
   1  -6  -9 73678.0 1961.48  76
   1  -6  -9 67500.8 1694.36  29
   1  -6  -8 40538.9 1457.58  70
   1  -6  -8 40122.7 1475.53  84
   1  -6  -8 40271.6 1472.61  93
   1  -6  -8 39964.8 1427.45  83
   1  -6  -8 40472.1 1428.66  32
   1  -6  -8 40765.3 1462.61  50
   1  -6  -8 40234.0 1475.76  77
   1  -6  -8 41210.4 1507.87  76
   1  -6  -8 41600.9 1388.98  29
   1  -6  -7 175246. 3292.11  70
   1  -6  -7 166181. 2991.29  89
   1  -6  -7 178117. 3281.81  84
   1  -6  -7 181322. 3291.95  93
   1  -6  -7 165818. 3198.33  32
   1  -6  -7 173955. 3240.72  50
   1  -6  -7 181242. 3387.58  77
   1  -6  -7 175106. 3340.21  76
   1  -6  -7 175421. 3206.02  29
   1  -6  -7 166158. 3085.04  83
   1  -6  -6 241176. 3937.71  70
   1  -6  -6 219467. 3781.77  32
   1  -6  -6 225263. 3764.78  50
   1  -6  -6 227018. 3892.73  77
   1  -6  -6 217208. 3839.87  76
   1  -6  -6 229337. 3754.59  93
   1  -6  -6 234670. 3671.95  67
   1  -6  -6 234161. 3753.14  84
   1  -6  -5 130615. 2683.22  67
   1  -6  -5 131476. 2801.40   3
   1  -6  -5 128064. 2641.81  50
   1  -6  -5 130032. 2534.51  84
   1  -6  -5 126528. 2563.45  93
   1  -6  -5 121332. 2638.99  32
   1  -6  -5 123873. 2691.15  77
   1  -6  -5 126565. 2719.21  76
   1  -6  -4 82416.6 2078.85  70
   1  -6  -4 82075.3 2111.30  67
   1  -6  -4 84215.9 1950.49  19
   1  -6  -4 78521.6 2118.10  26
   1  -6  -4 82654.0 2131.39   3
   1  -6  -3 60811.0 1728.40  70
   1  -6  -3 57589.5 1774.45  67
   1  -6  -3 58054.4 1710.90   3
   1  -6  -3 58672.2 1668.14  19
   1  -6  -3 54371.1 1750.92  26
   1  -6  -2 78366.6 1943.92  70
   1  -6  -2 75165.3 2053.41  67
   1  -6  -2 71968.8 1858.79   3
   1  -6  -2 78685.6 1905.44  63
   1  -6  -2 82245.7 2084.33  19
   1  -6  -2 74179.2 2069.02  26
   1  -6  -1 249173. 3809.75  70
   1  -6  -1 250868. 4177.12  67
   1  -6  -1 263943. 4028.34  63
   1  -6  -1 273879. 4318.94  19
   1  -6  -1 264565. 4066.55   7
   1  -6   0 218952. 3824.78  67
   1  -6   0 207684. 3683.74  63
   1  -6   0 214694. 3768.14   7
   1  -6   1 65630.9 1927.77  67
   1  -6   1 64559.9 2039.65  19
   1  -6   1 61005.3 1945.87   7
   1  -6   1 60900.7 1923.89  63
   1  -6   1 57112.4 1819.62   6
   1  -6   2 136672. 3139.28  19
   1  -6   3 122068. 2998.26  69
   1  -6   3 113139. 2807.10  19
   1  -6   4 179731. 3711.69  69
   1  -6   4 187550. 3762.72  16
   1  -5 -12 81037.9 1517.37  93
   1  -5 -12 79820.3 1542.96  83
   1  -5 -12 79783.4 1315.17  76
   1  -5 -11 86563.5 1941.12  93
   1  -5 -11 88476.4 1963.83  84
   1  -5 -11 88187.3 1987.63  83
   1  -5 -11 86268.3 1640.93  32
   1  -5 -11 88985.6 1921.30  50
   1  -5 -11 84284.6 1778.17  76
   1  -5 -10 145963. 2890.81  93
   1  -5 -10 147387. 2897.63  84
   1  -5 -10 141803. 2879.77  83
   1  -5 -10 142641. 2563.81  32
   1  -5 -10 144249. 2821.25  50
   1  -5 -10 135512. 2678.29  76
   1  -5  -9 101634. 2258.12  70
   1  -5  -9 106004. 2513.74  84
   1  -5  -9 99175.8 2426.74  93
   1  -5  -9 101061. 2484.24  83
   1  -5  -9 101885. 2261.40  32
   1  -5  -9 105758. 2462.10  50
   1  -5  -9 100863. 2249.59  77
   1  -5  -9 101626. 2386.72  76
   1  -5  -8 75944.1 2003.99  70
   1  -5  -8 76795.8 2090.42  93
   1  -5  -8 78991.6 2129.22  84
   1  -5  -8 74129.6 2072.76  83
   1  -5  -8 75393.2 1947.59  32
   1  -5  -8 75567.0 2050.69  50
   1  -5  -8 73639.6 1965.30  77
   1  -5  -8 71360.9 1990.86  76
   1  -5  -8 75296.8 1896.35  29
   1  -5  -7 75931.3 2015.55  93
   1  -5  -7 73209.1 1985.55  84
   1  -5  -7 74190.4 1922.38  32
   1  -5  -7 79424.5 2032.18   3
   1  -5  -7 78223.3 2008.63  50
   1  -5  -7 73831.4 1987.76  83
   1  -5  -7 75680.2 1991.12  77
   1  -5  -7 72861.2 1970.98  76
   1  -5  -7 73316.9 1891.97  29
   1  -5  -6 98988.8 2244.18  70
   1  -5  -6 95766.4 2271.34   3
   1  -5  -6 100553. 2065.13  67
   1  -5  -5 211689. 3426.99  70
   1  -5  -5 206611. 3482.62   3
   1  -5  -5 208526. 3300.70  67
   1  -5  -4 126114. 2467.15  70
   1  -5  -4 119269. 2478.00   3
   1  -5  -4 130478. 2495.68  67
   1  -5  -4 119531. 2469.84  26
   1  -5  -3 224099. 3417.16  70
   1  -5  -3 228278. 3523.32   3
   1  -5  -3 230394. 3549.68  67
   1  -5  -2 157224. 2683.52  70
   1  -5  -2 152027. 2682.70   3
   1  -5  -2 149748. 2772.10  67
   1  -5  -2 162448. 2594.01  63
   1  -5  -2 158680. 2748.20  19
   1  -5  -2 162257. 2625.82   7
   1  -5  -1 148939. 2530.81  70
   1  -5  -1 152081. 2517.40   3
   1  -5  -1 142615. 2708.46  67
   1  -5  -1 153907. 2634.64  63
   1  -5  -1 148691. 2631.87   7
   1  -5   0 297690. 3923.68  70
   1  -5   0 311974. 4330.37  67
   1  -5   0 304335. 4294.02   7
   1  -5   1 128103. 2531.75  67
   1  -5   1 128077. 2678.44  19
   1  -5   2 158606. 2928.74  67
   1  -5   2 171012. 3123.70  66
   1  -5   2 162378. 3205.94  19
   1  -5   2 163947. 3157.67   6
   1  -5   3 134636. 2948.57  13
   1  -5   3 134017. 2881.08  66
   1  -5   3 131578. 2878.54  19
   1  -5   3 132587. 2912.02   6
   1  -5   4 144436. 3174.15  69
   1  -5   4 145904. 3258.43  13
   1  -5   4 146533. 3207.12  66
   1  -5   5 150359. 3214.82  69
   1  -5   5 159322. 3514.80  13
   1  -5   5 160261. 3446.12  66
   1  -5   5 159322. 3368.44  16
   1  -5   6 15093.3 924.417  16
   1  -4 -12 40112.2 1083.72  40
   1  -4 -12 41717.4 1128.56  93
   1  -4 -12 42004.1 1134.85  83
   1  -4 -12 39947.5 907.764  76
   1  -4 -11 72473.3 1830.32  84
   1  -4 -11 75648.9 1864.64  93
   1  -4 -11 75136.0 1886.28  83
   1  -4 -11 71933.9 1800.30  50
   1  -4 -11 68543.2 1628.36  76
   1  -4 -10 162169. 3148.94  93
   1  -4 -10 168865. 3258.37  83
   1  -4 -10 155464. 2748.47  32
   1  -4 -10 163325. 3165.00  84
   1  -4 -10 157396. 3077.65  50
   1  -4 -10 156903. 2925.60  76
   1  -4  -9 141041. 2699.98  70
   1  -4  -9 139720. 2964.11  84
   1  -4  -9 141291. 3036.41  83
   1  -4  -9 134838. 2635.77  32
   1  -4  -9 135200. 2872.62  50
   1  -4  -9 131026. 2746.87  76
   1  -4  -9 137543. 2949.75  93
   1  -4  -8 61588.8 1759.56  70
   1  -4  -8 64113.4 1883.19  93
   1  -4  -8 62590.7 1871.26  84
   1  -4  -8 63688.7 1920.34  83
   1  -4  -8 61912.6 1700.82  32
   1  -4  -8 63309.0 1840.24  50
   1  -4  -8 62550.9 1687.72  77
   1  -4  -8 61609.7 1771.76  76
   1  -4  -8 62925.3 1674.45  29
   1  -4  -8 59259.9 1642.56  72
   1  -4  -7 57856.9 1647.71  70
   1  -4  -7 58293.3 1623.09   3
   1  -4  -7 55356.5 1692.35  83
   1  -4  -7 58031.9 1680.42  93
   1  -4  -7 56301.6 1635.92  50
   1  -4  -7 57293.8 1685.69  84
   1  -4  -7 56685.2 1549.57  29
   1  -4  -7 55299.6 1467.89  72
   1  -4  -6 53631.8 1520.98  70
   1  -4  -6 52917.0 1534.43   3
   1  -4  -6 51240.0 1281.99  72
   1  -4  -5 372508. 4710.87  70
   1  -4  -5 357695. 4706.90   3
   1  -4  -5 362505. 4438.56  67
   1  -4  -4 343874. 4341.17  70
   1  -4  -4 344936. 4454.33   3
   1  -4  -3 255891. 3455.90  70
   1  -4  -3 242037. 3488.70   3
   1  -4  -3 266923. 3537.35  67
   1  -4  -3 269064. 3312.42  19
   1  -4  -3 247471. 3451.82  26
   1  -4  -2 105068. 1925.23  70
   1  -4  -2 111289. 2021.89   3
   1  -4  -2 107693. 2005.67  67
   1  -4  -2 111322. 1825.63  63
   1  -4  -2 110904. 1847.83   7
   1  -4  -1 217013. 2946.17  70
   1  -4  -1 210106. 2933.36   3
   1  -4  -1 215422. 3090.72  67
   1  -4  -1 222839. 2993.40  63
   1  -4  -1 226936. 3027.49   7
   1  -4   0 309716. 3743.85  70
   1  -4   0 317546. 3701.41   3
   1  -4   0 322567. 3839.65  18
   1  -4   1 533758. 5959.28  13
   1  -4   1 532035. 5876.13  66
   1  -4   2 110142. 2101.44  67
   1  -4   2 117435. 2376.02  19
   1  -4   2 118651. 2323.12  66
   1  -4   2 120552. 2220.00  12
   1  -4   2 118501. 2116.41  30
   1  -4   2 118655. 2342.02   6
   1  -4   2 119680. 2140.61  73
   1  -4   2 118323. 2368.40  13
   1  -4   3 29484.7 1176.25  66
   1  -4   3 26900.5 1092.57  12
   1  -4   3 25336.7 1057.65  19
   1  -4   3 29375.7 1200.71  13
   1  -4   3 24369.7 1006.74  30
   1  -4   3 30916.4 1200.13   6
   1  -4   3 25887.4 1041.94  73
   1  -4   4 23394.3 1111.03  69
   1  -4   4 22277.5 1142.86  13
   1  -4   4 21170.6 1087.35  66
   1  -4   4 22158.8 1094.85  12
   1  -4   4 20957.4 1028.60  30
   1  -4   4 20689.1 1047.62   6
   1  -4   4 20271.9 1019.11  73
   1  -4   5 134676. 2913.60  69
   1  -4   5 143657. 3290.98  13
   1  -4   5 140615. 3099.86  30
   1  -4   5 140154. 3202.04  66
   1  -4   5 139337. 3018.78  16
   1  -4   5 149437. 3252.03  12
   1  -4   5 142254. 3128.11  73
   1  -4   6 239861. 4506.56  66
   1  -4   6 237635. 4574.15  13
   1  -4   6 248241. 4519.35  12
   1  -4   6 236437. 4384.33  30
   1  -4   6 225608. 4066.43  16
   1  -4   6 238467. 4406.18  73
   1  -4   7 35726.9 1558.57  30
   1  -4   7 34328.2 1539.30  73
   1  -3 -12 45970.1 1163.17  40
   1  -3 -12 47767.4 1201.50  83
   1  -3 -11 21556.7 983.584  93
   1  -3 -11 22614.3 1006.54  83
   1  -3 -11 20941.0 957.118  50
   1  -3 -11 21275.9 859.001  76
   1  -3 -10 39628.1 1481.42  93
   1  -3 -10 39885.8 1466.39  84
   1  -3 -10 40258.3 1500.94  83
   1  -3 -10 38255.0 1429.98  50
   1  -3 -10 36334.5 1296.17  76
   1  -3  -9 129330. 2896.53  83
   1  -3  -9 130074. 2863.65  84
   1  -3  -9 129448. 2864.51  93
   1  -3  -9 135483. 2593.47  32
   1  -3  -9 134801. 2882.21  50
   1  -3  -9 132856. 2703.89  76
   1  -3  -8 188916. 3185.34  70
   1  -3  -8 172200. 3029.25  61
   1  -3  -8 177967. 3111.75  60
   1  -3  -8 170988. 3239.87  84
   1  -3  -8 175624. 3364.74  83
   1  -3  -8 177888. 3005.04  32
   1  -3  -8 172049. 3224.76  50
   1  -3  -8 164570. 3048.33  76
   1  -3  -8 178695. 3315.26  93
   1  -3  -8 175817. 3146.99  72
   1  -3  -7 330137. 4466.24  70
   1  -3  -7 329145. 4324.77  61
   1  -3  -7 334807. 4307.40   3
   1  -3  -6 48764.7 1387.04  70
   1  -3  -6 47476.5 1265.68  61
   1  -3  -6 52520.3 1406.28   3
   1  -3  -6 51217.5 1322.70  29
   1  -3  -5 60896.8 1324.69  61
   1  -3  -5 60869.6 1309.16  72
   1  -3  -5 61053.9 1498.93   3
   1  -3  -4 255212. 3322.85  70
   1  -3  -4 251506. 3357.56   3
   1  -3  -4 254579. 3175.50  67
   1  -3  -4 243398. 2847.92  72
   1  -3  -3 597092. 6135.33  70
   1  -3  -3 581777. 6086.96  67
   1  -3  -2 574273. 5781.40  70
   1  -3  -2 576043. 5833.61  67
   1  -3  -1 468154. 4729.61  70
   1  -3  -1 470427. 4867.80  67
   1  -3   0 32874.6 794.485   3
   1  -3   0 28403.5 825.081  67
   1  -3   1 60874.9 1273.25  67
   1  -3   1 65379.9 1348.21  66
   1  -3   1 63527.1 1261.91  12
   1  -3   1 64654.0 1371.22  13
   1  -3   2 264666. 3529.41  13
   1  -3   2 269302. 3420.99  64
   1  -3   2 256409. 3382.71  12
   1  -3   2 275428. 3508.61   6
   1  -3   2 263794. 3463.63  66
   1  -3   3 89085.0 1966.80  13
   1  -3   3 87882.3 1915.19  64
   1  -3   3 86620.8 1895.27  12
   1  -3   3 89293.5 1927.89  66
   1  -3   3 89852.7 1828.14  19
   1  -3   3 87984.4 1917.89   8
   1  -3   3 85826.0 1872.93   6
   1  -3   4 125082. 2428.89  69
   1  -3   4 121072. 2562.75  13
   1  -3   4 116878. 2509.78  64
   1  -3   4 119464. 2527.45  12
   1  -3   4 108840. 2036.08  58
   1  -3   4 113608. 2493.64   8
   1  -3   4 118879. 2497.10  66
   1  -3   4 120293. 2443.12   6
   1  -3   5 33293.6 1250.50  69
   1  -3   5 35110.3 1418.17  66
   1  -3   5 36089.1 1472.02  13
   1  -3   5 35755.8 1453.43  64
   1  -3   5 36691.1 1479.19  12
   1  -3   5 34716.3 1301.32  16
   1  -3   5 36695.6 1370.31   6
   1  -3   6 218856. 4216.92  13
   1  -3   6 211827. 4089.13  66
   1  -3   6 204759. 4102.24  12
   1  -3   6 207064. 3705.28  16
   1  -3   7 189058. 4035.59  13
   1  -3   7 183254. 3910.20  66
   1  -3   7 194437. 4075.26  12
   1  -3   8 119458. 2916.64  22
   1  -3   8 115029. 3001.63  30
   1  -3   8 115396. 3027.64  73
   1  -3   8 119878. 2924.30  71
   1  -2 -12 83181.4 1549.14  40
   1  -2 -12 84316.9 1533.30  83
   1  -2 -11 29065.3 1110.89  40
   1  -2 -11 29483.3 1161.20  93
   1  -2 -11 28986.6 1100.60  83
   1  -2 -10 85948.0 2192.32  84
   1  -2 -10 85662.2 2233.56  93
   1  -2 -10 90227.8 2244.82  83
   1  -2 -10 89828.8 2273.51  50
   1  -2 -10 87735.0 2055.66  76
   1  -2  -9 54666.8 1786.00  93
   1  -2  -9 54828.6 1751.18  84
   1  -2  -9 58846.8 1825.13  83
   1  -2  -9 54982.8 1777.05  50
   1  -2  -9 53987.6 1624.71  76
   1  -2  -9 51736.8 1547.63  21
   1  -2  -8 151377. 3005.68  93
   1  -2  -8 162959. 2956.69  61
   1  -2  -8 149236. 2750.31  21
   1  -2  -8 155335. 2988.12  84
   1  -2  -8 160736. 3089.41  83
   1  -2  -8 149761. 2971.50  50
   1  -2  -8 151559. 2805.46  76
   1  -2  -8 151584. 2958.66  72
   1  -2  -7 290530. 3989.11  70
   1  -2  -7 263974. 3730.10  21
   1  -2  -7 283868. 3996.53  61
   1  -2  -7 265397. 3828.48  60
   1  -2  -7 267082. 3963.40  72
   1  -2  -6 334735. 4221.60  70
   1  -2  -6 336553. 4055.77   3
   1  -2  -6 324511. 4144.90  61
   1  -2  -6 310031. 3914.66  21
   1  -2  -6 302656. 3898.55  29
   1  -2  -6 322791. 4169.39  72
   1  -2  -5 236008. 3199.29  70
   1  -2  -5 229015. 3096.35   3
   1  -2  -5 239297. 3087.29  61
   1  -2  -5 235997. 2906.23  21
   1  -2  -5 227644. 2941.54  73
   1  -2  -5 228406. 3038.77  72
   1  -2  -4 192390. 2618.62  70
   1  -2  -4 175360. 2531.87   3
   1  -2  -4 172434. 2374.20  61
   1  -2  -4 194587. 2294.83  21
   1  -2  -4 183309. 2380.48  67
   1  -2  -4 175534. 2345.58  72
   1  -2  -3 426673. 4475.70  70
   1  -2  -3 412704. 4155.83  61
   1  -2  -2 107194. 1617.74   3
   1  -2  -2 101214. 1307.72  61
   1  -2   0 174093. 2161.56  13
   1  -2   0 177044. 2140.32  66
   1  -2   1 7401.41 365.382  13
   1  -2   1 6073.91 311.636  64
   1  -2   1 6494.02 243.611   3
   1  -2   1 5919.79 311.397  12
   1  -2   1 7225.97 351.860  66
   1  -2   2 344690. 3891.81  64
   1  -2   2 339472. 3892.72   8
   1  -2   2 339711. 3881.83   6
   1  -2   3 138080. 2298.89  64
   1  -2   3 142970. 2313.94  12
   1  -2   3 136121. 2302.83   8
   1  -2   3 140700. 2242.03   6
   1  -2   4 333247. 4105.99  69
   1  -2   4 324755. 4390.54  64
   1  -2   4 320244. 4367.25  12
   1  -2   4 317319. 3867.76  58
   1  -2   4 321246. 4397.16   8
   1  -2   4 317918. 4153.31   6
   1  -2   5 112069. 2147.58  69
   1  -2   5 111733. 2512.38  64
   1  -2   5 112429. 2508.38  12
   1  -2   5 105957. 2073.15  58
   1  -2   5 110337. 2522.76   8
   1  -2   5 114408. 2281.26  16
   1  -2   5 106939. 2284.12   6
   1  -2   6 121543. 2907.08  64
   1  -2   6 128223. 2974.70  12
   1  -2   6 120374. 2902.89   8
   1  -2   6 122406. 2532.88  16
   1  -2   6 114342. 2553.27   6
   1  -2   7 299275. 5180.56  64
   1  -2   7 291443. 5158.60  12
   1  -2   8 186445. 3806.12  22
   1  -2   8 178044. 3828.68  66
   1  -2   8 179735. 3919.20  13
   1  -2   8 184101. 4006.66  12
   1  -2   8 186438. 3812.29  71
   1  -2   9 106899. 2869.36  30
   1  -2   9 104694. 2850.21  73
   1  -1 -12 92814.4 1455.59  40
   1  -1 -11 67582.9 1647.41  40
   1  -1 -11 73331.6 1644.39  83
   1  -1 -10 113908. 2427.08  83
   1  -1 -10 109721. 2195.87  51
   1  -1  -9 71732.6 2075.86  93
   1  -1  -9 72709.8 2000.09  84
   1  -1  -9 80313.5 2066.69  83
   1  -1  -9 76126.0 1879.51  51
   1  -1  -9 67146.5 1892.22  21
   1  -1  -9 66528.7 2010.35  50
   1  -1  -9 73863.2 1921.86  76
   1  -1  -8 115748. 2570.59  93
   1  -1  -8 111425. 2431.33  21
   1  -1  -8 120159. 2533.06  61
   1  -1  -8 122834. 2573.48  83
   1  -1  -8 116931. 2518.23  84
   1  -1  -8 116657. 2368.34  51
   1  -1  -8 116210. 2575.35  50
   1  -1  -8 117269. 2393.88  76
   1  -1  -7 250658. 3471.40  70
   1  -1  -7 240612. 3646.20  61
   1  -1  -7 215883. 3448.08  21
   1  -1  -7 214268. 3615.33  72
   1  -1  -6 417737. 5016.02  61
   1  -1  -6 413517. 4905.70  21
   1  -1  -6 408631. 5091.55  72
   1  -1  -5 399203. 4448.28  70
   1  -1  -5 386465. 4410.24  61
   1  -1  -5 398302. 4246.13   3
   1  -1  -5 349343. 4076.56  29
   1  -1  -5 357860. 4230.77  21
   1  -1  -5 377890. 4460.59  72
   1  -1  -4 178320. 2403.35  70
   1  -1  -4 175264. 2301.33   3
   1  -1  -4 159653. 2263.84  61
   1  -1  -4 156064. 2065.63  62
   1  -1  -4 174318. 2229.81  21
   1  -1  -4 162956. 2286.62  72
   1  -1  -3 185729. 2267.10   3
   1  -1  -3 186567. 2198.20  61
   1  -1  -2 17385.0 463.825  61
   1  -1  -2 17118.9 346.539  62
   1  -1  -1 223980. 2402.48   3
   1  -1   2 314394. 3400.34  64
   1  -1   2 312331. 3362.97  12
   1  -1   3 380930. 4257.79  64
   1  -1   3 377287. 4255.52   8
   1  -1   4 253289. 3165.66  69
   1  -1   4 257483. 3543.64  64
   1  -1   4 247900. 3532.25   8
   1  -1   4 252577. 3229.09  16
   1  -1   4 273167. 3224.90  58
   1  -1   4 266825. 3392.81   6
   1  -1   5 280221. 3691.47  58
   1  -1   5 286473. 4190.56   8
   1  -1   5 274897. 3719.55  16
   1  -1   5 277366. 3847.07   6
   1  -1   6 154025. 3133.84  64
   1  -1   6 148724. 3089.13  12
   1  -1   6 155940. 3179.14   8
   1  -1   6 157525. 2742.32  58
   1  -1   6 149116. 2678.53  16
   1  -1   7 120983. 2970.47  64
   1  -1   7 116592. 2907.37  12
   1  -1   7 117571. 2937.92   8
   1  -1   7 111063. 2457.62  58
   1  -1   8 303130. 5025.33  22
   1  -1   8 292220. 5226.41  12
   1  -1   8 301560. 5030.73  71
   1  -1   9 44910.5 1762.49  22
   1  -1   9 44309.8 1751.09  71
   1  -1  10 44938.0 1469.55  33
   1  -1  10 45514.3 1719.37  30
   1  -1  10 45047.3 1713.87  73
   1   0 -11 161400. 2433.13  51
   1   0 -10 78732.3 1983.71  21
   1   0 -10 80331.7 1895.40  51
   1   0  -9 172185. 3156.82  40
   1   0  -9 156336. 3211.76  93
   1   0  -9 157935. 3127.87  21
   1   0  -9 171723. 3079.23  51
   1   0  -8 39982.7 1468.97  93
   1   0  -8 42177.8 1481.94  21
   1   0  -8 46082.7 1442.38  83
   1   0  -8 44551.8 1465.37  84
   1   0  -8 45583.9 1461.50  51
   1   0  -8 45011.7 1567.13  50
   1   0  -7 227041. 3655.21  21
   1   0  -7 248891. 3733.01  61
   1   0  -6 286912. 3609.94  70
   1   0  -6 278953. 3823.47  61
   1   0  -6 265082. 3785.28  21
   1   0  -6 266965. 3974.24  72
   1   0  -5 206229. 2722.51  70
   1   0  -5 193987. 2802.33  21
   1   0  -5 198205. 2819.29  61
   1   0  -5 185869. 2419.06  60
   1   0  -5 184978. 2676.47  62
   1   0  -5 197289. 2947.71  72
   1   0  -4 97693.3 1607.02  70
   1   0  -4 102524. 1624.66  62
   1   0  -4 97288.5 1649.86  21
   1   0  -4 99412.4 1737.24  72
   1   0  -3 2427.25 198.514  61
   1   0  -3 2529.72 180.946   3
   1   0  -3 2559.47 187.950  62
   1   0  -2 262506. 2659.08   3
   1   0   2 104789. 1455.55   6
   1   0   4 577236. 5827.68  16
   1   0   4 565990. 5964.07   6
   1   0   5 614739. 6079.53  58
   1   0   5 572702. 6355.39  64
   1   0   5 562065. 6351.81   8
   1   0   5 499965. 5747.50  27
   1   0   5 536895. 5834.42  16
   1   0   6 149937. 2786.80   4
   1   0   6 161216. 3042.72  64
   1   0   6 158426. 3031.34   8
   1   0   6 158175. 2731.18  58
   1   0   7 9658.08 712.628  22
   1   0   7 12300.5 852.676  64
   1   0   7 11740.2 826.444  12
   1   0   7 8696.69 643.478   4
   1   0   7 10157.1 685.761  58
   1   0   7 9703.30 711.303  71
   1   0   8 90382.6 2475.43  22
   1   0   8 90163.2 2561.22  64
   1   0   8 89812.1 2559.76  12
   1   0   8 89169.4 2458.56  71
   1   0   9 113778. 2920.85  22
   1   0   9 123191. 3085.56  12
   1   0   9 115144. 2947.43  71
   1   0  10 127715. 2837.49  36
   1   0  11 76370.2 1884.56  33
   1   0  11 77421.4 1761.25  36
   1   1 -11 66566.6 1374.57  51
   1   1 -10 142807. 2603.87  51
   1   1  -9 288465. 3976.84  41
   1   1  -9 293828. 4372.23  51
   1   1  -8 87915.5 1976.74  41
   1   1  -8 93189.4 2318.01  21
   1   1  -8 89885.8 2191.72  51
   1   1  -7 14810.7 796.901  61
   1   1  -7 16212.1 834.358  51
   1   1  -7 13060.3 780.508  50
   1   1  -7 15123.2 853.395  21
   1   1  -6 9472.45 593.076  61
   1   1  -6 9591.88 625.826  21
   1   1  -5 104679. 1770.11  70
   1   1  -5 110295. 1994.74  61
   1   1  -5 102585. 2002.61  21
   1   1  -5 110241. 2011.27  62
   1   1  -4 634985. 5993.80  70
   1   1  -4 644147. 6310.19  21
   1   1  -3 612686. 5951.02  21
   1   1  -3 625942. 6019.28  72
   1   1  -2 161305. 1902.93  61
   1   1  -2 158774. 1912.40   1
   1   1  -1 4826.12 196.165   1
   1   1  -1 4980.84 159.552  59
   1   1  -1 5135.63 204.006  61
   1   1   3 318088. 3616.51   4
   1   1   3 329827. 3469.45  64
   1   1   3 326597. 3474.69   8
   1   1   4 34973.4 947.190  64
   1   1   4 36813.6 1012.99   4
   1   1   4 37240.9 922.996  58
   1   1   4 34984.5 951.117   8
   1   1   5 83018.4 1740.90  64
   1   1   5 83219.9 1753.94   8
   1   1   5 88196.7 1691.89  58
   1   1   5 77032.4 1686.54   4
   1   1   5 71453.4 1618.13  27
   1   1   6 258953. 3773.27  22
   1   1   6 254881. 3704.42   4
   1   1   6 262205. 3886.00  64
   1   1   6 269001. 3745.39  58
   1   1   6 259889. 3903.87   8
   1   1   6 262807. 3794.28  71
   1   1   7 143470. 2916.84  22
   1   1   7 148052. 2997.62  64
   1   1   7 134122. 2649.64   4
   1   1   7 146020. 2819.39  58
   1   1   7 146754. 3014.87   8
   1   1   7 133587. 2729.71  27
   1   1   7 145475. 2912.69  71
   1   1   8 14216.7 933.299  22
   1   1   8 12154.1 865.147  64
   1   1   8 11585.4 846.629  12
   1   1   8 11120.0 829.696   8
   1   1   8 11675.1 769.900  47
   1   1   8 11400.2 769.543  27
   1   1   8 14478.7 939.962  71
   1   1   9 135970. 3152.17  12
   1   1   9 126530. 2778.22  47
   1   1   9 131710. 3141.08  22
   1   1   9 132878. 3177.26  71
   1   1  10 45847.9 1681.00  68
   1   1  10 45090.5 1755.64  36
   1   1  10 48581.2 1681.35  82
   1   1  11 169439. 3180.63  36
   1   1  11 179689. 3013.74  82
   1   1  12 118839. 1957.16  36
   1   1  12 125237. 2172.24  33
   1   2 -11 34711.5 859.890  51
   1   2 -10 44952.0 1296.92  51
   1   2  -9 54507.3 1537.36  41
   1   2  -9 57091.2 1690.16  51
   1   2  -8 113208. 2414.88  41
   1   2  -8 114390. 2638.80  21
   1   2  -8 115768. 2594.18  51
   1   2  -7 106925. 2277.84  41
   1   2  -7 107746. 2524.10  21
   1   2  -7 108867. 2418.75  51
   1   2  -6 82900.4 2052.91  21
   1   2  -6 86660.2 1894.77  61
   1   2  -5 131948. 2358.11  62
   1   2  -5 128830. 2211.84  61
   1   2  -4 45270.6 1098.60  61
   1   2  -4 44332.2 1077.46  59
   1   2  -4 47328.7 1205.81  62
   1   2  -4 44545.7 1190.63  21
   1   2  -4 43203.0 1229.05   1
   1   2  -3 742444. 7147.67  21
   1   2  -2 395102. 4119.87   1
   1   2   1 61651.1 999.727   4
   1   2   1 61960.8 803.938  58
   1   2   3 144118. 1780.32  64
   1   2   3 142876. 2071.08   4
   1   2   3 146353. 1790.00   8
   1   2   4 155316. 2254.45  22
   1   2   4 148629. 2091.83  64
   1   2   4 154000. 2324.97   4
   1   2   4 147718. 2097.10   8
   1   2   4 156537. 2268.98  71
   1   2   5 25227.9 869.218  58
   1   2   5 21891.0 840.013  22
   1   2   5 21481.3 786.673  64
   1   2   5 21068.5 789.808   8
   1   2   5 23984.1 871.131   4
   1   2   5 19067.2 838.853  27
   1   2   5 22917.2 863.477  71
   1   2   6 215571. 3284.01  58
   1   2   6 214236. 3364.71  22
   1   2   6 207304. 3215.99  64
   1   2   6 209042. 3243.88   8
   1   2   6 217893. 3242.48   4
   1   2   6 209743. 3356.92  71
   1   2   7 247718. 4128.84  22
   1   2   7 276945. 4133.65  64
   1   2   7 260359. 3835.90   4
   1   2   7 272962. 4113.32   8
   1   2   7 268567. 4100.08  58
   1   2   7 248956. 4187.55  27
   1   2   7 252231. 4154.11  71
   1   2   8 69205.4 2023.88  58
   1   2   8 73935.9 2050.70  12
   1   2   8 71913.2 2157.12  22
   1   2   8 66343.2 1993.75  47
   1   2   8 68192.3 2075.71  27
   1   2   8 64660.0 1796.16  45
   1   2   8 73459.4 2187.53  71
   1   2   9 115832. 2741.87  68
   1   2   9 110045. 2875.24  22
   1   2   9 109062. 2704.40  47
   1   2   9 116690. 2783.66  27
   1   2   9 111455. 2893.94  71
   1   2  10 70328.0 2066.58  68
   1   2  10 70071.5 2299.78  36
   1   2  10 74933.7 2253.33  82
   1   2  10 70947.6 2063.83  47
   1   2  10 71153.0 2242.87  71
   1   2  11 102766. 2541.86  36
   1   2  11 106208. 2467.87  82
   1   2  11 101084. 2218.39  47
   1   2  12 148362. 2535.98  36
   1   2  12 144242. 2360.74  82
   1   2  12 144094. 2611.54  33
   1   3 -10 17063.3 709.088  51
   1   3  -9 55892.7 1517.40  41
   1   3  -9 54919.6 1577.79  51
   1   3  -8 78523.1 2007.63  41
   1   3  -8 74874.7 2076.13  21
   1   3  -8 78806.2 2032.35  91
   1   3  -8 79476.8 2036.44  56
   1   3  -8 78459.3 2071.61  51
   1   3  -7 168603. 3129.16  41
   1   3  -7 170386. 3302.48  91
   1   3  -7 163961. 3275.01  21
   1   3  -7 170839. 3301.34  56
   1   3  -7 172882. 3245.99  51
   1   3  -6 117200. 2418.17  41
   1   3  -6 113552. 2581.45  91
   1   3  -6 118918. 2500.64  51
   1   3  -5 209593. 3404.12  21
   1   3  -5 199927. 3014.36  59
   1   3  -4 96096.7 1745.40  59
   1   3  -4 92815.4 2059.59   1
   1   3  -4 102406. 1730.94  61
   1   3  -4 102030. 2002.84  62
   1   3  -4 92612.1 1949.61  21
   1   3  -3 404901. 4517.78  21
   1   3  -3 386992. 4462.26  62
   1   3  -3 413743. 4120.15  61
   1   3  -3 378405. 4633.72   1
   1   3  -3 371232. 4130.19  59
   1   3  -2 601993. 5760.00  21
   1   3  -2 570869. 5791.28  62
   1   3  -1 338942. 3711.31   1
   1   3  -1 343233. 3215.28  59
   1   3   1 9605.41 417.876   1
   1   3   1 9681.23 306.243  58
   1   3   1 9218.93 321.540  62
   1   3   2 57093.3 1150.81   4
   1   3   2 55566.8 983.152  58
   1   3   3 166326. 2222.91  58
   1   3   3 166004. 2359.76   4
   1   3   4 274151. 3342.00  58
   1   3   4 271118. 3401.46   4
   1   3   4 239938. 3466.86  27
   1   3   4 248658. 3370.00  71
   1   3   5 80230.7 1521.05  68
   1   3   5 73618.0 1653.79   4
   1   3   5 83383.4 1740.81  58
   1   3   5 68833.3 1791.35  27
   1   3   5 75573.5 1765.15  71
   1   3   6 186283. 2974.47   4
   1   3   6 179121. 3035.43  58
   1   3   6 176702. 3317.99  27
   1   3   6 177379. 3156.64  22
   1   3   6 176814. 3172.89  71
   1   3   7 216535. 3395.55  68
   1   3   7 209031. 3326.49   4
   1   3   7 208182. 3587.02  58
   1   3   7 207236. 3850.54  27
   1   3   7 200356. 3703.51  71
   1   3   8 256173. 4310.68  58
   1   3   8 253739. 4398.06  47
   1   3   8 253828. 4562.86  27
   1   3   8 247130. 4099.76  45
   1   3   8 246480. 4430.47  71
   1   3   9 84641.6 2251.40  68
   1   3   9 85609.2 2646.66  36
   1   3   9 84286.3 2433.98  47
   1   3   9 83460.7 2245.86  45
   1   3   9 88429.8 2552.88  71
   1   3  10 90950.9 2673.13  36
   1   3  10 91505.6 2566.38  82
   1   3  10 87289.4 2430.13  47
   1   3  10 83451.4 2459.13  71
   1   3  11 72009.3 1802.61  43
   1   3  11 67126.9 2070.98  36
   1   3  11 69474.0 2037.99  82
   1   3  11 66200.6 1888.71  47
   1   3  12 65494.6 1676.24  36
   1   3  12 65049.9 1696.67  33
   1   3  12 67033.1 1644.84  82
   1   4 -10 26557.4 728.954  51
   1   4  -9 41295.3 1229.58  51
   1   4  -8 61102.5 1695.82  41
   1   4  -8 59776.3 1690.03  91
   1   4  -8 60441.9 1692.50  56
   1   4  -8 61129.6 1740.97  51
   1   4  -7 178427. 3285.82  41
   1   4  -7 172416. 3329.72  21
   1   4  -7 174743. 3443.84  91
   1   4  -7 173555. 3426.49  56
   1   4  -6 211832. 3663.49  41
   1   4  -6 221760. 3861.81  21
   1   4  -6 209529. 3926.82  91
   1   4  -6 213194. 3952.11  56
   1   4  -6 237094. 3564.87  80
   1   4  -6 227845. 3765.75  51
   1   4  -5 190882. 3578.38  91
   1   4  -5 189734. 3560.03  56
   1   4  -5 200531. 3343.88  51
   1   4  -4 185888. 3027.21  62
   1   4  -4 183067. 3098.94  21
   1   4  -4 181112. 3289.08   1
   1   4  -3 90843.5 1810.25  21
   1   4  -3 87763.2 1793.07  62
   1   4  -2 290459. 3528.63  62
   1   4  -2 281520. 3797.82   1
   1   4  -1 179749. 2093.17  59
   1   4  -1 176713. 2619.31   1
   1   4  -1 179335. 2372.37  62
   1   4   0 221422. 2571.84  71
   1   4   0 221316. 2337.53  59
   1   4   0 219117. 2917.49   1
   1   4   0 223334. 2583.43  17
   1   4   0 226979. 2561.40  62
   1   4   1 78498.7 1121.78  59
   1   4   1 76771.8 1123.72  58
   1   4   1 79553.4 1510.24   1
   1   4   1 80435.0 1169.95  62
   1   4   1 77524.2 1274.88  17
   1   4   1 76668.7 1258.08  71
   1   4   2 74998.8 1286.29  58
   1   4   2 76489.8 1544.77   1
   1   4   2 78926.7 1359.91  17
   1   4   2 75970.5 1124.86  62
   1   4   2 78169.9 1346.08  71
   1   4   3 201550. 2555.16  69
   1   4   3 195771. 2639.36  58
   1   4   3 200782. 2852.71   4
   1   4   3 201397. 2995.12   1
   1   4   3 192015. 2682.60  71
   1   4   4 362896. 4427.02  58
   1   4   4 370425. 4547.30   4
   1   4   4 361364. 4565.38  71
   1   4   5 212112. 3247.11  58
   1   4   5 219912. 3279.13   4
   1   4   5 214706. 3432.94  71
   1   4   6 127080. 2551.64  58
   1   4   6 126386. 2427.57   4
   1   4   6 121269. 2820.54  27
   1   4   6 119056. 2623.72  71
   1   4   7 124641. 2722.17  58
   1   4   7 123591. 2461.54   4
   1   4   7 120412. 3006.52  27
   1   4   7 129447. 2918.92  71
   1   4   8 240501. 3957.37  92
   1   4   8 243768. 4663.30  36
   1   4   8 245078. 4447.39  47
   1   4   8 242938. 4222.30  45
   1   4   8 254409. 4507.96  71
   1   4   9 216703. 4413.52  36
   1   4   9 210947. 4144.89  47
   1   4   9 203794. 4066.98  71
   1   4  10 43722.0 1820.26  36
   1   4  10 46706.8 1804.31  82
   1   4  10 42758.1 1702.37  47
   1   4  10 41459.7 1655.42  71
   1   4  11 58681.3 1742.26  43
   1   4  11 56799.7 1877.09  36
   1   4  11 59671.4 1894.91  82
   1   4  11 58055.0 1799.30  47
   1   4  12 13867.4 616.552  43
   1   4  12 13277.2 719.533  36
   1   4  12 13398.3 726.876  82
   1   4  12 12649.4 699.835  33
   1   5  -9 60467.9 1252.45  51
   1   5  -8 50704.2 1363.71  91
   1   5  -8 51419.4 1369.73  56
   1   5  -7 65242.1 1778.41  41
   1   5  -7 60685.0 1842.64  91
   1   5  -7 60686.1 1840.95  56
   1   5  -7 66241.8 1819.09  51
   1   5  -6 209439. 3603.56  41
   1   5  -6 192897. 3812.90  91
   1   5  -6 194538. 3813.30  56
   1   5  -6 212698. 3479.24  80
   1   5  -6 206707. 3583.41  51
   1   5  -5 207306. 3573.54  41
   1   5  -5 200794. 3909.08  91
   1   5  -5 203513. 3938.56  56
   1   5  -5 215636. 3590.41  51
   1   5  -4 154024. 2808.05  41
   1   5  -4 143114. 3086.25  91
   1   5  -4 155913. 2891.94  87
   1   5  -4 142600. 3069.80  56
   1   5  -4 156601. 3193.42   1
   1   5  -4 149303. 2674.35  55
   1   5  -4 151752. 2916.74  80
   1   5  -4 153659. 2754.30  51
   1   5  -3 59277.9 1762.52   1
   1   5  -3 66035.5 1599.08  62
   1   5  -2 4305.94 356.826  62
   1   5  -2 4326.73 427.050   1
   1   5  -1 171188. 2386.24  62
   1   5  -1 157622. 2733.78   1
   1   5   0 188984. 2546.06  71
   1   5   0 190528. 2929.48   1
   1   5   0 187376. 2560.89  17
   1   5   1 328686. 4167.51   1
   1   5   1 334666. 3812.61  17
   1   5   1 333301. 3784.75  71
   1   5   2 181815. 2314.05  59
   1   5   2 182285. 2830.35   1
   1   5   2 185461. 2583.29  17
   1   5   2 177846. 2547.64  71
   1   5   3 102742. 1834.33  58
   1   5   3 101668. 1901.21  17
   1   5   3 102524. 1904.33  71
   1   5   4 265075. 4028.70   1
   1   5   4 277295. 3741.51  58
   1   5   4 278777. 3890.14  17
   1   5   4 277518. 3868.17  71
   1   5   5 278447. 4015.80  58
   1   5   5 294540. 4274.68  71
   1   5   6 267420. 4012.99   4
   1   5   6 268633. 4146.43  58
   1   5   6 268611. 4362.08  71
   1   5   7 54414.9 1795.68  92
   1   5   7 54673.5 1784.70  58
   1   5   7 57131.8 1979.49  36
   1   5   7 56230.5 1912.98  47
   1   5   7 55781.8 1849.12  45
   1   5   7 59928.0 1973.58  71
   1   5   8 57885.4 1905.42  92
   1   5   8 66987.6 2260.14  36
   1   5   8 61530.8 2120.45  47
   1   5   8 56592.7 1964.84  45
   1   5   8 64379.2 2116.93  71
   1   5   9 186647. 3580.14  92
   1   5   9 185979. 4010.64  36
   1   5   9 189951. 3956.60  47
   1   5   9 182521. 3746.55  45
   1   5   9 189519. 3845.24  71
   1   5  10 80179.8 2375.64  43
   1   5  10 80698.1 2067.78  92
   1   5  10 82332.7 2446.60  36
   1   5  10 78920.0 2348.10  82
   1   5  10 81608.0 2386.32  47
   1   5  10 75160.5 2200.87  71
   1   5  11 67738.7 1972.65  82
   1   5  11 69024.1 1938.48  43
   1   5  11 66430.6 1965.72  36
   1   5  11 64709.5 1847.84  33
   1   5  12 20591.0 804.195  43
   1   5  12 20875.6 796.904  33
   1   5  12 20918.9 881.383  82
   1   6  -7 30013.3 1109.67  56
   1   6  -7 29856.0 1101.35  91
   1   6  -6 55902.0 1603.60  41
   1   6  -6 46568.4 1667.60  56
   1   6  -6 52360.0 1541.01  80
   1   6  -6 54431.9 1590.09  51
   1   6  -6 45911.7 1652.88  91
   1   6  -5 78507.1 2011.00  41
   1   6  -5 73332.6 2261.46  91
   1   6  -5 73009.0 2260.07  56
   1   6  -5 83418.6 2162.99  80
   1   6  -5 84339.3 2068.85  51
   1   6  -4 109398. 2361.47  41
   1   6  -4 94544.8 2612.43  91
   1   6  -4 95700.7 2637.84  56
   1   6  -4 108827. 2597.68  80
   1   6  -4 106992. 2297.22  51
   1   6  -4 117213. 2553.53  87
   1   6  -4 108439. 2370.54  55
   1   6  -3 143856. 2618.20  41
   1   6  -3 133497. 3008.50  91
   1   6  -3 145127. 2815.91  87
   1   6  -3 133046. 3006.14  56
   1   6  -3 132968. 2743.06  55
   1   6  -3 136509. 2959.97  80
   1   6  -3 145557. 2572.09  51
   1   6  -2 30212.4 1277.23  91
   1   6  -2 28994.3 1248.82  56
   1   6  -2 30124.9 1211.72  55
   1   6  -2 30534.7 1290.79  80
   1   6  -2 31755.6 1198.54  87
   1   6  -1 33650.3 1277.22   1
   1   6   0 219009. 3103.39  71
   1   6   0 216723. 3502.40   1
   1   6   1 276796. 3621.85  71
   1   6   1 272583. 3628.88  17
   1   6   1 276577. 4003.52   1
   1   6   2 324133. 4477.87   1
   1   6   2 328678. 4187.70  17
   1   6   2 332545. 4170.41  71
   1   6   3 152320. 2842.99   1
   1   6   3 159709. 2710.64  17
   1   6   3 156804. 2675.37  71
   1   6   4 61840.5 1767.32   1
   1   6   4 64636.2 1738.81  17
   1   6   4 63596.5 1704.36  71
   1   6   5 163369. 2958.87  58
   1   6   5 158367. 3083.00  17
   1   6   5 156781. 3041.38  71
   1   6   6 307002. 4871.87   1
   1   6   6 300832. 4733.62  94
   1   6   6 292797. 4881.67  92
   1   6   6 318253. 4705.59  58
   1   6   6 328949. 4990.88  17
   1   6   6 275748. 4613.60  45
   1   6   6 330178. 4971.62  71
   1   6   7 140943. 3036.80  94
   1   6   7 136814. 3240.46  92
   1   6   7 136439. 2981.04  34
   1   6   7 142941. 3152.67  36
   1   6   7 123134. 3025.05  47
   1   6   7 126549. 3036.17  45
   1   6   7 147221. 3217.80  71
   1   6   8 20635.5 1058.41  94
   1   6   8 18351.1 1130.69  92
   1   6   8 21917.6 1229.08  36
   1   6   8 20273.3 1155.18  82
   1   6   8 18780.3 1152.15  47
   1   6   8 18943.3 1110.26  71
   1   6   9 32235.4 1476.96  36
   1   6   9 29902.2 1415.61  82
   1   6   9 28251.9 1357.27  92
   1   6   9 30032.4 1462.32  47
   1   6   9 28815.8 1349.18  71
   1   6  10 96712.4 2583.03  43
   1   6  10 92011.2 2329.79  92
   1   6  10 95881.7 2480.10  36
   1   6  10 96457.3 2500.34  82
   1   6  11 88325.0 2168.03  43
   1   6  11 85508.9 1899.52  87
   1   6  11 86395.7 2109.11  82
   1   6  12 123865. 2104.53  43
   1   6  12 114001. 2042.01  82
   1   7  -7 47628.9 1044.27  91
   1   7  -7 47645.9 1050.04  56
   1   7  -6 18146.6 862.871  91
   1   7  -6 17888.8 862.634  56
   1   7  -6 20069.4 812.982  80
   1   7  -5 19027.1 843.091  41
   1   7  -5 17886.6 1000.90  91
   1   7  -5 17529.7 993.775  56
   1   7  -5 18596.2 945.809  80
   1   7  -5 18116.2 829.580  51
   1   7  -4 51689.0 1472.43  41
   1   7  -4 50747.1 1829.87  91
   1   7  -4 46642.8 1759.57  56
   1   7  -4 51963.4 1589.90  55
   1   7  -4 51743.4 1758.59  80
   1   7  -4 48784.3 1441.23  51
   1   7  -3 128477. 3061.13  91
   1   7  -3 125525. 3034.02  56
   1   7  -3 133091. 2794.34  87
   1   7  -3 132737. 3065.74  80
   1   7  -3 132110. 2832.25  55
   1   7  -2 317842. 4717.25  87
   1   7  -2 316768. 4910.83  55
   1   7  -2 315508. 5050.29  91
   1   7  -2 317172. 5064.50  56
   1   7  -2 300541. 5029.54  80
   1   7  -1 28580.2 1281.29  91
   1   7  -1 27895.6 1270.50  56
   1   7  -1 27206.3 1276.16  55
   1   7  -1 26154.6 1293.84  80
   1   7  -1 29519.5 1227.02  87
   1   7   0 117562. 2593.27  87
   1   7   0 110618. 2537.59  56
   1   7   0 111554. 2690.12  55
   1   7   0 109362. 2520.65  91
   1   7   0 105219. 2494.97   1
   1   7   0 108401. 2660.90  80
   1   7   0 118210. 2541.81  34
   1   7   1 68350.5 1691.04  71
   1   7   1 69471.9 1916.72   1
   1   7   1 69511.3 1891.17  91
   1   7   1 68584.6 1953.18  34
   1   7   1 72405.0 1931.34  56
   1   7   1 63475.2 1960.04  55
   1   7   1 69059.5 2014.46  88
   1   7   1 65414.1 1919.07  87
   1   7   2 202893. 3234.16  71
   1   7   2 198003. 3673.13  34
   1   7   2 202110. 3255.79  17
   1   7   2 202887. 3497.75   1
   1   7   3 356732. 5441.92  94
   1   7   3 349155. 5445.08  87
   1   7   3 341734. 5420.76  34
   1   7   3 365533. 5165.31   1
   1   7   3 399283. 5104.48  17
   1   7   3 401393. 5060.50  71
   1   7   4 96627.7 2623.63  94
   1   7   4 99582.8 2553.45  92
   1   7   4 98597.6 2678.67  87
   1   7   4 99302.5 2658.51  34
   1   7   4 98253.2 2370.73   1
   1   7   4 105629. 2405.91  17
   1   7   4 102645. 2342.34  71
   1   7   5 45524.1 1586.66   1
   1   7   5 43914.3 1763.80  94
   1   7   5 42000.6 1698.39  92
   1   7   5 46519.7 1736.48  88
   1   7   5 45896.7 1865.29  87
   1   7   5 43230.6 1754.54  34
   1   7   5 46193.9 1621.07  17
   1   7   5 46214.2 1603.66  71
   1   7   6 32534.5 1456.80  43
   1   7   6 34470.0 1560.46  94
   1   7   6 32578.0 1552.78  92
   1   7   6 33579.5 1655.28  87
   1   7   6 31526.3 1492.51  34
   1   7   6 33572.4 1434.06  88
   1   7   6 32976.1 1418.38  17
   1   7   6 32394.9 1390.82  71
   1   7   7 153265. 3490.21  43
   1   7   7 149137. 3355.65  94
   1   7   7 146252. 3510.07  92
   1   7   7 155747. 3133.80  88
   1   7   7 156010. 3785.95  87
   1   7   7 149490. 3377.78  34
   1   7   7 152742. 3291.05  17
   1   7   7 151677. 3263.22  71
   1   7   8 62911.3 2200.28  43
   1   7   8 64755.7 2246.86  92
   1   7   8 63619.1 2302.79  87
   1   7   8 65900.2 2023.95  34
   1   7   8 63661.6 2017.11  94
   1   7   8 65106.3 2034.22  17
   1   7   8 62994.3 1993.48  71
   1   7   9 91932.5 2573.66  43
   1   7   9 90585.4 2524.77  92
   1   7   9 84776.6 2122.32  94
   1   7   9 86406.9 2531.92  87
   1   7   9 81729.7 2195.89  17
   1   7   9 81135.6 2172.34  71
   1   7  10 79084.7 2202.00  43
   1   7  10 78262.7 2128.77  92
   1   7  10 80587.2 2139.09  87
   1   7  10 80790.3 2012.77  82
   1   7  11 52106.2 1509.52  43
   1   7  11 49375.9 1326.63  82
   1   7  11 50336.4 1359.13  92
   1   7  11 49005.6 1289.22  87
   1   7  12 68346.1 1342.43  43
   1   8  -5 56246.0 1518.97  56
   1   8  -5 58358.1 1465.25  80
   1   8  -5 56329.6 1507.60  91
   1   8  -4 49487.8 1626.54  91
   1   8  -4 50637.9 1643.66  56
   1   8  -4 49871.5 1401.42  55
   1   8  -4 49717.9 1591.07  80
   1   8  -3 63696.6 1996.04  80
   1   8  -3 63646.5 1992.20  91
   1   8  -3 64576.4 2014.99  56
   1   8  -3 61728.2 1817.89  55
   1   8  -3 68436.3 1828.43  87
   1   8  -2 188525. 3713.04  91
   1   8  -2 185099. 3692.55  56
   1   8  -2 191685. 3429.24  87
   1   8  -2 175949. 3529.26  55
   1   8  -2 173206. 3687.92  80
   1   8  -1 107841. 2693.69  56
   1   8  -1 96532.3 2710.98  80
   1   8  -1 97431.0 2637.84  55
   1   8  -1 101999. 2478.96  87
   1   8  -1 106596. 2675.27  91
   1   8   0 99263.7 2524.00  91
   1   8   0 101229. 2554.88  56
   1   8   0 100544. 2532.83  87
   1   8   0 94786.5 2654.43  55
   1   8   0 94582.3 2393.05  34
   1   8   1 124309. 2953.76  88
   1   8   1 125484. 2909.59  87
   1   8   1 118041. 2843.21  34
   1   8   1 114577. 2844.10  80
   1   8   1 107805. 2866.42  55
   1   8   1 126927. 2825.09  91
   1   8   2 63348.9 2165.88  88
   1   8   2 59719.1 2028.63  87
   1   8   2 64236.6 2122.31  34
   1   8   2 62624.3 2067.69  55
   1   8   2 62307.6 2028.14  94
   1   8   3 109867. 2897.63  94
   1   8   3 111599. 2973.26  34
   1   8   3 113424. 2744.06  55
   1   8   3 116794. 2982.57  87
   1   8   3 117965. 3084.21  88
   1   8   4 96533.7 2603.46  92
   1   8   4 105645. 2908.55  87
   1   8   4 99175.9 2865.92  34
   1   8   4 102162. 2877.53  88
   1   8   4 93307.3 2780.00  94
   1   8   5 34603.2 1611.37  92
   1   8   5 34755.1 1668.83  94
   1   8   5 34846.3 1687.39  87
   1   8   5 32332.6 1617.45  34
   1   8   5 38045.7 1672.06  88
   1   8   6 48968.8 1974.34  94
   1   8   6 44795.7 1888.52  92
   1   8   6 50346.7 1858.59  88
   1   8   6 47260.6 1995.49  87
   1   8   6 45365.4 1888.23  34
   1   8   7 167207. 3451.69  43
   1   8   7 158900. 3716.98  92
   1   8   7 170919. 3714.69  94
   1   8   7 169145. 3353.78  88
   1   8   7 161888. 3833.23  87
   1   8   7 155667. 3533.53  34
   1   8   8 87691.8 2420.17  43
   1   8   8 87917.8 2584.78  92
   1   8   8 87755.9 2618.51  87
   1   8   8 84650.8 2333.37  34
   1   8   8 86691.8 2396.69  94
   1   8   9 88332.1 2292.40  43
   1   8   9 84619.8 2097.57  94
   1   8   9 85227.5 2374.78  92
   1   8   9 86031.3 2344.70  87
   1   8   9 86698.1 2025.60  34
   1   8  10 25087.1 1055.00  43
   1   8  10 23290.8 1040.00  92
   1   8  10 25293.1 1039.14  87
   1   8  11 57368.5 1349.60  43
   1   8  11 56516.1 1302.90  92
   1   9  -4 36463.8 1064.71  80
   1   9  -3 43027.1 1374.38  91
   1   9  -3 43705.4 1408.84  80
   1   9  -3 41330.7 1242.41  55
   1   9  -2 94917.0 2282.10  55
   1   9  -2 104134. 2401.64  91
   1   9  -2 98525.9 2447.45  80
   1   9  -2 105749. 2182.94  87
   1   9  -1 189271. 3313.80  87
   1   9  -1 193757. 3551.40  91
   1   9  -1 173926. 3494.89  55
   1   9  -1 175206. 3584.23  80
   1   9   0 70497.5 2220.84  55
   1   9   0 73704.8 2052.33  87
   1   9   0 69165.1 2162.45  80
   1   9   1 41446.2 1586.57  34
   1   9   1 41333.7 1576.35  88
   1   9   1 37926.4 1634.83  55
   1   9   1 38811.7 1553.78  80
   1   9   1 41577.6 1605.73  87
   1   9   2 25665.2 1297.74  87
   1   9   2 24683.8 1320.82  88
   1   9   2 26024.9 1334.20  55
   1   9   2 25514.8 1315.69  34
   1   9   3 29005.8 1348.80  55
   1   9   3 30647.9 1529.21  88
   1   9   3 29588.9 1438.35  87
   1   9   3 28757.3 1464.47  34
   1   9   3 27987.5 1394.85  94
   1   9   4 201399. 3545.69  55
   1   9   4 194999. 4114.65  88
   1   9   4 184147. 3963.93  87
   1   9   4 183333. 4051.57  34
   1   9   4 179915. 3985.59  94
   1   9   5 99306.9 2759.03  88
   1   9   5 90084.7 2721.41  34
   1   9   5 90870.9 2527.53  92
   1   9   5 94321.7 2764.69  87
   1   9   6 40497.0 1746.39  94
   1   9   6 40923.0 1719.38  92
   1   9   6 46756.8 1749.05  88
   1   9   6 44300.9 1829.42  87
   1   9   6 40382.2 1748.34  34
   1   9   7 43313.9 1723.23  92
   1   9   7 47540.8 1622.87  88
   1   9   7 47222.3 1824.56  87
   1   9   7 47441.2 1777.61  34
   1   9   7 49078.8 1837.95  94
   1   9   8 66878.5 2054.60  92
   1   9   8 69472.8 2004.44  94
   1   9   8 69557.9 1711.97  88
   1   9   8 68590.9 2062.75  87
   1   9   8 72677.6 1995.38  34
   1   9   9 133456. 2326.27  43
   1   9   9 128455. 2680.98  92
   1   9   9 129804. 2610.30  87
   1   9   9 130743. 2322.70  34
   1   9  10 56356.4 1206.34  43
   1   9  10 57843.5 1445.68  92
   1   9  10 56423.4 1319.16  87
   1  10  -2 25969.6 861.273  55
   1  10  -2 25541.5 896.080  80
   1  10  -1 47964.8 1423.14  55
   1  10  -1 47530.7 1405.45  80
   1  10   0 103477. 2383.30  55
   1  10   0 103696. 2256.81  80
   1  10   1 52039.9 1699.22  55
   1  10   1 51907.9 1516.49  80
   1  10   2 45134.1 1539.41  88
   1  10   2 49280.7 1619.31  34
   1  10   2 48781.4 1608.18  87
   1  10   2 43079.8 1550.81  55
   1  10   3 13900.5 895.574  88
   1  10   3 12597.0 789.640  55
   1  10   3 13352.9 852.769  87
   1  10   3 13268.4 880.794  34
   1  10   3 11031.0 733.918  49
   1  10   4 61914.3 1622.05  55
   1  10   4 62091.7 1985.93  88
   1  10   4 60581.3 1985.03  34
   1  10   4 60618.8 1928.61  87
   1  10   5 159803. 3229.68  88
   1  10   5 149601. 3244.97  34
   1  10   5 155066. 3209.32  87
   1  10   5 143047. 3156.28  94
   1  10   6 70860.6 2096.10  94
   1  10   6 74833.4 2134.25  34
   1  10   6 77694.5 1945.75  92
   1  10   6 73774.2 2102.83  87
   1  10   7 48513.8 1568.86  87
   1  10   7 49495.1 1570.34  34
   1  10   7 48937.1 1433.08  88
   1  10   7 48855.3 1503.12  92
   1  10   7 47322.8 1568.79  94
   1  10   8 22220.4 765.573  88
   1  10   8 21321.5 869.834  34
   1  10   8 20940.9 904.516  87
   1  10   8 21876.4 917.314  92
   1  10   9 73168.1 1472.51  92
   1  10   9 67415.6 1373.36  87
   1  11   1 88602.8 1659.24  55
   1  11   2 91193.3 1695.38  87
   1  11   2 87218.3 1693.36  55
   1  11   3 62153.7 1427.67  88
   1  11   3 64575.2 1339.70  55
   1  11   3 63291.8 1474.36  87
   1  11   4 9833.15 573.701  88
   1  11   4 8702.20 539.411  87
   1  11   4 8895.63 563.238  34
   1  11   5 48168.4 1300.28  87
   1  11   5 49487.1 1362.94  34
   1  11   5 48688.8 1300.42  88
   1  11   6 88168.3 1772.78  34
   1  11   6 86395.0 1715.53  87
   1  11   6 91183.4 1709.03  88
   1  11   7 92529.1 1595.19  87
   1  11   7 101531. 1664.26  34
   2 -10  -5 64615.8 1180.29  89
   2 -10  -5 66149.9 1274.06  32
   2 -10  -4 37511.6 930.738  76
   2 -10  -4 34775.0 903.215  89
   2 -10  -4 37229.9 951.409  32
   2 -10  -3 19489.5 686.454  89
   2 -10  -3 21608.7 716.129  32
   2 -10  -3 21559.5 679.251  76
   2 -10  -2 32730.3 865.856  32
   2  -9  -8 29031.7 791.547  32
   2  -9  -8 28937.1 749.229  50
   2  -9  -8 29451.7 862.416  77
   2  -9  -8 29709.8 861.373  76
   2  -9  -7 22641.8 806.768  32
   2  -9  -7 22281.0 751.358  50
   2  -9  -7 21099.8 815.580  77
   2  -9  -7 21483.7 819.936  76
   2  -9  -6 44248.7 1182.16  89
   2  -9  -6 45444.8 1288.70  32
   2  -9  -6 44850.2 1190.57  50
   2  -9  -6 43336.6 1273.23  77
   2  -9  -6 44257.7 1294.84  76
   2  -9  -5 112571. 2264.46  32
   2  -9  -5 111303. 2090.88  50
   2  -9  -5 109587. 2199.05  77
   2  -9  -5 110103. 2242.63  76
   2  -9  -4 96606.6 2073.13  77
   2  -9  -4 102108. 2205.70  32
   2  -9  -4 105474. 2081.87  50
   2  -9  -4 99897.4 2176.14  76
   2  -9  -3 52045.2 1556.19  32
   2  -9  -3 52269.9 1437.50  50
   2  -9  -3 50668.3 1408.51  77
   2  -9  -3 54185.8 1561.35  76
   2  -9  -2 45161.3 1324.75  50
   2  -9  -2 43260.0 1372.95  76
   2  -9  -1 32067.7 1074.91  50
   2  -9  -1 30716.7 1107.20  76
   2  -9   0 130739. 2255.86  50
   2  -9   0 134896. 2361.29  76
   2  -9   1 136269. 2103.77  50
   2  -9   1 135388. 2150.62  76
   2  -8 -10 35162.0 817.239  76
   2  -8  -9 55633.1 1217.77  93
   2  -8  -9 54493.5 1182.21  84
   2  -8  -9 54723.8 1189.09  32
   2  -8  -9 55451.4 1269.27  50
   2  -8  -9 52253.6 1270.22  77
   2  -8  -9 55329.6 1307.35  76
   2  -8  -8 117556. 2072.45  84
   2  -8  -8 119890. 2150.49  93
   2  -8  -8 121457. 2191.34  32
   2  -8  -8 120168. 2224.91  50
   2  -8  -8 118262. 2294.06  77
   2  -8  -8 121797. 2314.93  76
   2  -8  -7 61318.2 1557.39  93
   2  -8  -7 56868.0 1423.15  89
   2  -8  -7 58721.2 1611.98  32
   2  -8  -7 62590.4 1640.49  50
   2  -8  -7 56870.6 1653.34  77
   2  -8  -7 61561.3 1701.92  76
   2  -8  -7 58336.5 1460.84  84
   2  -8  -6 40932.6 1345.39  89
   2  -8  -6 45546.4 1490.11  32
   2  -8  -6 45383.8 1458.90  50
   2  -8  -6 44635.1 1514.50  76
   2  -8  -6 44416.0 1370.01  93
   2  -8  -6 41759.2 1464.42  77
   2  -8  -5 66738.7 1788.96  70
   2  -8  -5 65010.3 1723.21  93
   2  -8  -5 63429.8 1846.22  67
   2  -8  -5 65318.6 1903.10  32
   2  -8  -5 65530.9 1843.51  50
   2  -8  -5 62036.8 1854.33  77
   2  -8  -5 64125.6 1903.96  76
   2  -8  -4 107041. 2310.40  70
   2  -8  -4 109494. 2317.28  93
   2  -8  -4 106003. 2475.85  50
   2  -8  -4 104517. 2501.69  77
   2  -8  -4 108230. 2589.34  76
   2  -8  -3 146384. 2721.04  38
   2  -8  -3 143525. 2711.89  93
   2  -8  -3 138475. 2945.86  19
   2  -8  -3 139143. 3021.52  67
   2  -8  -3 136792. 2897.06  77
   2  -8  -3 135332. 2906.93  50
   2  -8  -3 141308. 3034.43  76
   2  -8  -3 144327. 3096.59  26
   2  -8  -2 154105. 2995.89  69
   2  -8  -2 150407. 3216.11  19
   2  -8  -2 148622. 2973.64  77
   2  -8  -2 153543. 3137.26  50
   2  -8  -2 159752. 3303.73  26
   2  -8  -2 154305. 3199.10  67
   2  -8  -1 45963.8 1601.63  69
   2  -8  -1 45041.9 1471.20  77
   2  -8  -1 43313.6 1579.11  50
   2  -8  -1 45538.9 1670.91  26
   2  -8  -1 46835.7 1613.03  67
   2  -8   0 33883.2 1406.36  26
   2  -8   1 86025.0 2246.66  26
   2  -7 -11 21694.6 626.400  84
   2  -7 -11 22020.5 622.438  50
   2  -7 -10 55520.7 1324.20  84
   2  -7 -10 55512.4 1178.58  83
   2  -7 -10 57015.5 1145.17  32
   2  -7 -10 56139.6 1328.32  93
   2  -7 -10 56505.0 1337.66  50
   2  -7 -10 54065.6 1199.00  77
   2  -7 -10 55015.7 1284.19  76
   2  -7  -9 32264.4 1132.23  93
   2  -7  -9 32936.7 1136.58  84
   2  -7  -9 32775.6 1036.18  32
   2  -7  -9 35073.2 1179.88  50
   2  -7  -9 31880.0 1103.52  77
   2  -7  -9 33562.1 1144.45  76
   2  -7  -8 159978. 2947.38  84
   2  -7  -8 160054. 2849.89  32
   2  -7  -8 167120. 3042.88  50
   2  -7  -8 158574. 2987.28  77
   2  -7  -8 165927. 3033.50  76
   2  -7  -7 72703.1 1985.94  70
   2  -7  -7 71045.5 1910.33  84
   2  -7  -7 71668.2 1956.97  93
   2  -7  -7 73127.3 1956.37  32
   2  -7  -7 72846.5 1987.85  50
   2  -7  -7 73419.4 2035.35  77
   2  -7  -7 73516.3 2024.58  76
   2  -7  -7 75541.0 1854.74  29
   2  -7  -6 78907.9 2111.49  70
   2  -7  -6 81093.5 2115.67  93
   2  -7  -6 75614.2 1996.27  84
   2  -7  -6 76423.1 2021.05  67
   2  -7  -6 78419.2 2121.32  32
   2  -7  -6 82193.2 2176.24  50
   2  -7  -6 83624.2 2244.85  77
   2  -7  -6 83654.4 2240.66  76
   2  -7  -5 103408. 2449.70  70
   2  -7  -5 100766. 2496.10  67
   2  -7  -5 108873. 2385.76  84
   2  -7  -5 105592. 2558.89  32
   2  -7  -5 106765. 2563.37  50
   2  -7  -5 107453. 2618.18  77
   2  -7  -5 100134. 2554.41  76
   2  -7  -5 109410. 2494.41  93
   2  -7  -4 132601. 2756.73  70
   2  -7  -4 122893. 2660.15  38
   2  -7  -4 123478. 2684.30  93
   2  -7  -4 126466. 2710.74  19
   2  -7  -4 128493. 2941.36  67
   2  -7  -4 126552. 2853.84  50
   2  -7  -4 115823. 2759.04  77
   2  -7  -4 119185. 2833.77  76
   2  -7  -4 114891. 2803.88  26
   2  -7  -3 177217. 3196.21  70
   2  -7  -3 173022. 3525.64  67
   2  -7  -3 165810. 3170.41  38
   2  -7  -3 164424. 3189.38  93
   2  -7  -3 176894. 3470.95  19
   2  -7  -3 161466. 3308.36  77
   2  -7  -3 163979. 3381.78  50
   2  -7  -3 176031. 3550.87  26
   2  -7  -2 126799. 2971.23  67
   2  -7  -2 116240. 2597.29  38
   2  -7  -2 116230. 2621.25  93
   2  -7  -2 125194. 2981.22  19
   2  -7  -2 122808. 2922.64  26
   2  -7  -1 120618. 2819.46  69
   2  -7  -1 114318. 2809.12  67
   2  -7  -1 105418. 2453.40  38
   2  -7  -1 111709. 2877.14  19
   2  -7  -1 108363. 2540.92  93
   2  -7  -1 115943. 2847.65  26
   2  -7   0 8941.88 679.420  93
   2  -7   0 10560.5 819.258  69
   2  -7   0 9495.46 745.965  67
   2  -7   0 8923.05 669.027  38
   2  -7   0 8669.83 781.527  19
   2  -7   1 88598.3 2485.87  69
   2  -7   1 90389.2 2261.33  93
   2  -7   1 92053.3 2621.05  19
   2  -7   2 95256.0 2536.73  19
   2  -6 -11 90816.7 1713.82  93
   2  -6 -11 88502.3 1662.26  83
   2  -6 -11 93791.0 1722.23  50
   2  -6 -11 91029.5 1528.91  76
   2  -6 -11 90239.2 1723.95  84
   2  -6 -10 45236.5 1368.79  84
   2  -6 -10 44928.7 1324.62  83
   2  -6 -10 45937.4 1358.60  50
   2  -6 -10 46202.5 1179.97  77
   2  -6 -10 46342.4 1286.75  76
   2  -6 -10 47934.6 1406.98  93
   2  -6  -9 22254.0 1034.81  93
   2  -6  -9 22239.7 1031.18  84
   2  -6  -9 22409.2 1004.04  83
   2  -6  -9 22159.0 904.686  32
   2  -6  -9 22604.4 1032.14  50
   2  -6  -9 20687.0 923.890  77
   2  -6  -9 21364.8 969.760  76
   2  -6  -8 113799. 2536.93  70
   2  -6  -8 119196. 2539.99  83
   2  -6  -8 122520. 2694.49  84
   2  -6  -8 119540. 2461.94  32
   2  -6  -8 127114. 2749.36  93
   2  -6  -8 126512. 2709.98  50
   2  -6  -8 121652. 2622.56  77
   2  -6  -8 120511. 2611.71  76
   2  -6  -7 217345. 3786.02  70
   2  -6  -7 204628. 3697.24  93
   2  -6  -7 214899. 3750.35  84
   2  -6  -7 209315. 3503.73  83
   2  -6  -7 205250. 3556.31  32
   2  -6  -7 205482. 3712.80  50
   2  -6  -7 199737. 3674.95  77
   2  -6  -7 211945. 3743.63  76
   2  -6  -7 218510. 3484.21  29
   2  -6  -6 176462. 3332.19  70
   2  -6  -6 173038. 3153.47  67
   2  -6  -6 169588. 3259.98  93
   2  -6  -6 162955. 3171.25  84
   2  -6  -6 158344. 3116.49  32
   2  -6  -6 166426. 3268.74  50
   2  -6  -6 173263. 3347.53  77
   2  -6  -6 167576. 3299.44  76
   2  -6  -5 98693.9 2368.77  70
   2  -6  -5 96058.9 2319.71  38
   2  -6  -5 98530.5 2292.82  84
   2  -6  -5 95687.4 2326.02  93
   2  -6  -5 91410.9 2284.87  32
   2  -6  -5 93959.7 2363.80  50
   2  -6  -5 95873.8 2396.99  77
   2  -6  -5 88760.4 2324.07  76
   2  -6  -5 97441.2 2376.12  67
   2  -6  -4 92392.5 2237.09  70
   2  -6  -4 85044.5 2168.92  93
   2  -6  -4 88114.7 2290.84  67
   2  -6  -4 83243.7 2118.76  38
   2  -6  -4 86153.2 2079.22  84
   2  -6  -4 90672.8 2158.17  19
   2  -6  -4 77451.7 2150.55  50
   2  -6  -4 78353.6 2146.77  77
   2  -6  -4 82251.3 2210.90  76
   2  -6  -4 88938.2 2293.53  26
   2  -6  -3 70684.7 1881.95  70
   2  -6  -3 64779.7 1982.73  67
   2  -6  -3 60644.0 1774.38  38
   2  -6  -3 66521.6 1866.27   3
   2  -6  -3 62680.6 1708.22  84
   2  -6  -3 70031.6 1969.80  19
   2  -6  -3 62316.0 1904.67  50
   2  -6  -3 61823.6 1822.72  93
   2  -6  -3 67139.1 1984.41  26
   2  -6  -2 181984. 3164.14  70
   2  -6  -2 193918. 3634.50  67
   2  -6  -2 173561. 3214.56  38
   2  -6  -2 170510. 3236.87  93
   2  -6  -2 196805. 3658.35  19
   2  -6  -2 172322. 3422.80  26
   2  -6  -1 241854. 4019.53  93
   2  -6  -1 234776. 3884.25   6
   2  -6   0 57540.4 1891.23  67
   2  -6   0 59160.6 1768.08  63
   2  -6   0 61241.0 2056.99  19
   2  -6   0 59398.8 1794.96   7
   2  -6   1 38613.6 1591.37  69
   2  -6   1 37306.2 1452.17  67
   2  -6   1 37425.9 1613.44  19
   2  -6   2 47088.3 1816.62  69
   2  -6   2 44049.3 1753.41  19
   2  -6   3 129217. 3142.69  69
   2  -6   3 129346. 2988.71  19
   2  -6   4 171023. 3560.98  69
   2  -6   4 184296. 3677.49  16
   2  -5 -12 27783.7 766.564  93
   2  -5 -12 27941.2 781.209  83
   2  -5 -12 27546.5 753.903  50
   2  -5 -11 121954. 2262.97  84
   2  -5 -11 128403. 2310.93  93
   2  -5 -11 124549. 2291.57  83
   2  -5 -11 125770. 2260.22  50
   2  -5 -11 121993. 1973.87  76
   2  -5 -10 176334. 3145.32  93
   2  -5 -10 171591. 3121.02  84
   2  -5 -10 173824. 3127.54  83
   2  -5 -10 174707. 3087.30  50
   2  -5 -10 168535. 2836.71  76
   2  -5  -9 85485.6 2098.61  70
   2  -5  -9 89876.2 2271.39  84
   2  -5  -9 88317.3 2264.08  93
   2  -5  -9 87621.3 2248.68  83
   2  -5  -9 87719.6 1932.96  32
   2  -5  -9 85412.4 2182.35  50
   2  -5  -9 87770.7 1987.35  77
   2  -5  -9 81874.5 2023.67  76
   2  -5  -8 55976.3 1739.49  70
   2  -5  -8 53755.7 1768.99  93
   2  -5  -8 57999.2 1831.79  84
   2  -5  -8 58828.7 1830.98  83
   2  -5  -8 56333.5 1598.69  32
   2  -5  -8 51585.3 1706.97  50
   2  -5  -8 54025.5 1641.51  77
   2  -5  -8 54561.1 1678.82  76
   2  -5  -7 131223. 2767.78  70
   2  -5  -7 120389. 2699.39  93
   2  -5  -7 127193. 2768.58  84
   2  -5  -7 124855. 2706.91  83
   2  -5  -7 121832. 2515.72  32
   2  -5  -7 119845. 2672.90  50
   2  -5  -7 123764. 2643.19  77
   2  -5  -7 122470. 2643.13  76
   2  -5  -7 122618. 2433.30  29
   2  -5  -6 178996. 3287.17  93
   2  -5  -6 176625. 3306.94   3
   2  -5  -6 169860. 3128.76  83
   2  -5  -6 166938. 3052.29  32
   2  -5  -6 177981. 3272.86  84
   2  -5  -6 172785. 3236.28  50
   2  -5  -6 168480. 3192.04  77
   2  -5  -6 177032. 3235.13  76
   2  -5  -6 184362. 3126.16  67
   2  -5  -5 133923. 2837.76   3
   2  -5  -5 137926. 2744.09  67
   2  -5  -4 240129. 3868.29  67
   2  -5  -4 241389. 3918.60   3
   2  -5  -4 239189. 3591.10  19
   2  -5  -4 231482. 3731.56  26
   2  -5  -3 40660.0 1332.76  70
   2  -5  -3 41131.9 1435.00  67
   2  -5  -3 41679.2 1411.66   3
   2  -5  -3 42083.0 1383.57  19
   2  -5  -3 38569.7 1351.81  26
   2  -5  -2 94608.8 2040.71  70
   2  -5  -2 93445.2 2239.23  67
   2  -5  -2 88078.5 2029.03   3
   2  -5  -2 94176.7 2224.02  19
   2  -5  -1 160845. 2697.05  70
   2  -5  -1 169675. 3168.79  67
   2  -5  -1 157337. 2701.65   3
   2  -5  -1 169083. 2801.24  63
   2  -5  -1 170327. 3218.11  19
   2  -5  -1 167665. 2816.21   7
   2  -5   0 230313. 3883.37  67
   2  -5   0 238034. 3688.90  63
   2  -5   0 232087. 3699.91   7
   2  -5   0 227166. 3680.85   6
   2  -5   1 164350. 3135.95  67
   2  -5   1 169068. 3199.78   6
   2  -5   2 89428.4 2428.72  69
   2  -5   2 86348.8 2400.77  19
   2  -5   2 85045.2 2270.30   6
   2  -5   3 107327. 2727.73  69
   2  -5   3 97652.8 2555.91  19
   2  -5   4 116304. 2943.15  69
   2  -5   4 124805. 3001.13  16
   2  -5   5 220163. 4062.10  69
   2  -5   5 233225. 4240.40  16
   2  -4 -12 39635.5 1011.97  93
   2  -4 -12 39077.1 1008.20  83
   2  -4 -11 53060.0 1497.64  83
   2  -4 -11 52003.8 1467.49  93
   2  -4 -11 51175.4 1447.09  84
   2  -4 -11 49519.7 1412.68  50
   2  -4 -10 188716. 3376.70  93
   2  -4 -10 183817. 3337.15  84
   2  -4 -10 189677. 3419.58  83
   2  -4 -10 182250. 3292.63  50
   2  -4 -10 177654. 2969.07  76
   2  -4  -9 119960. 2558.25  70
   2  -4  -9 129392. 2830.33  93
   2  -4  -9 125937. 2776.96  84
   2  -4  -9 128665. 2878.15  83
   2  -4  -9 121226. 2715.02  50
   2  -4  -9 122585. 2525.29  76
   2  -4  -8 96788.7 2331.78  70
   2  -4  -8 95068.4 2402.63  93
   2  -4  -8 97079.5 2449.52  83
   2  -4  -8 99346.4 2441.19  84
   2  -4  -8 96366.1 2096.83  32
   2  -4  -8 98776.2 2401.20  50
   2  -4  -8 98802.2 2147.26  77
   2  -4  -8 94759.5 2216.72  76
   2  -4  -7 68277.5 1895.64  70
   2  -4  -7 66873.0 1906.55  93
   2  -4  -7 66673.1 1683.15  32
   2  -4  -7 66986.7 1909.65  84
   2  -4  -7 68746.5 1955.73  83
   2  -4  -7 68715.7 1753.52  53
   2  -4  -7 62665.0 1822.70  50
   2  -4  -7 71344.1 1799.21  77
   2  -4  -7 66413.6 1781.97  76
   2  -4  -7 68014.0 1653.26  29
   2  -4  -7 64322.0 1810.09   3
   2  -4  -6 199533. 3377.52  70
   2  -4  -6 201683. 3115.56  67
   2  -4  -5 150229. 2776.85  70
   2  -4  -5 151409. 2863.91   3
   2  -4  -5 156532. 2728.07  67
   2  -4  -4 158412. 2771.78  67
   2  -4  -4 153346. 2821.14   3
   2  -4  -4 161881. 2529.20  19
   2  -4  -4 151292. 2617.16  26
   2  -4  -3 129249. 2329.24  70
   2  -4  -3 119593. 2368.34  67
   2  -4  -3 130082. 2441.19   3
   2  -4  -3 127201. 2289.54  19
   2  -4  -3 115674. 2218.96  26
   2  -4  -2 60662.3 1469.33  70
   2  -4  -2 63985.8 1642.41  67
   2  -4  -2 58806.7 1511.79   3
   2  -4  -2 61713.9 1575.76  19
   2  -4  -1 272371. 3885.30  67
   2  -4  -1 277742. 3484.58  63
   2  -4  -1 275976. 3592.87   3
   2  -4  -1 268398. 3910.96  19
   2  -4  -1 266945. 3476.97   7
   2  -4   0 311101. 4319.16  67
   2  -4   0 314103. 4497.91  19
   2  -4   0 309700. 4125.76   6
   2  -4   1 431679. 5602.89  19
   2  -4   1 425865. 4983.09  30
   2  -4   1 413272. 5238.41   6
   2  -4   1 424381. 4986.74  73
   2  -4   2 128754. 2674.83  66
   2  -4   2 127339. 2701.00  19
   2  -4   2 125510. 2440.67  30
   2  -4   2 122157. 2421.09  73
   2  -4   3 75617.2 2134.48  69
   2  -4   3 76970.6 2194.55  13
   2  -4   3 77738.1 2154.70  66
   2  -4   3 76406.9 2079.80  19
   2  -4   3 75521.7 1998.90  30
   2  -4   3 76702.4 2096.40   6
   2  -4   3 76607.7 2025.16  73
   2  -4   4 77602.1 2250.50  69
   2  -4   4 79395.9 2375.31  13
   2  -4   4 76401.8 2272.77  66
   2  -4   4 76051.2 2166.16  30
   2  -4   4 81700.6 2258.52  16
   2  -4   4 77914.4 2204.25  73
   2  -4   5 137620. 3339.88  13
   2  -4   5 134081. 3214.39  66
   2  -4   5 134409. 3112.13  30
   2  -4   5 135326. 3118.58  16
   2  -4   5 132870. 3116.11  73
   2  -4   6 175465. 3679.60  30
   2  -4   6 171651. 3660.58  73
   2  -4   6 163915. 3462.80  16
   2  -4   7 66338.9 2066.99  30
   2  -4   7 59723.0 1983.44  73
   2  -3 -12 47288.8 1153.45  93
   2  -3 -12 49076.9 1155.59  83
   2  -3 -11 24664.8 1008.14  93
   2  -3 -11 23863.7 994.704  83
   2  -3 -11 24027.7 973.509  84
   2  -3 -11 22810.7 966.303  50
   2  -3 -10 73194.2 2014.70  93
   2  -3 -10 70844.5 1951.34  84
   2  -3 -10 75869.2 2067.92  83
   2  -3 -10 74808.9 2011.45  50
   2  -3 -10 70075.1 1704.34  76
   2  -3  -9 204639. 3475.20  70
   2  -3  -9 205831. 3746.49  93
   2  -3  -9 205004. 3694.01  84
   2  -3  -9 211446. 3853.69  83
   2  -3  -9 204731. 3705.25  50
   2  -3  -9 203881. 3372.92  76
   2  -3  -8 191150. 3408.07  70
   2  -3  -8 183608. 3443.35  93
   2  -3  -8 189516. 3563.94  83
   2  -3  -8 192754. 3482.03  84
   2  -3  -8 178551. 3371.60  50
   2  -3  -8 180271. 3127.08  76
   2  -3  -7 67488.8 1865.51  70
   2  -3  -7 65284.7 1821.47  93
   2  -3  -7 75431.2 1779.11  61
   2  -3  -7 70820.4 1804.55   3
   2  -3  -7 68690.2 1856.26  84
   2  -3  -7 71338.9 1954.73  83
   2  -3  -7 63773.9 1781.29  50
   2  -3  -6 29348.1 1142.45  70
   2  -3  -6 30462.5 1022.30  61
   2  -3  -6 30331.9 1142.67   3
   2  -3  -6 29922.4 986.670  67
   2  -3  -6 27656.4 945.520  29
   2  -3  -5 164872. 2793.17  70
   2  -3  -5 168257. 2645.70  67
   2  -3  -4 237166. 3416.55  70
   2  -3  -4 246407. 3410.60  67
   2  -3  -4 248370. 3533.39   3
   2  -3  -4 241397. 3003.85  61
   2  -3  -3 495669. 5571.91  70
   2  -3  -3 513289. 5720.34  67
   2  -3  -3 525022. 5766.71   3
   2  -3  -3 501645. 5014.87  61
   2  -3  -3 511015. 5448.06  19
   2  -3  -3 518546. 5406.54  26
   2  -3  -2 208866. 2951.23  70
   2  -3  -2 223647. 3187.32  67
   2  -3  -2 238593. 3202.65   3
   2  -3  -2 242748. 2628.72  63
   2  -3  -2 220177. 2523.18  61
   2  -3  -2 219757. 3081.20  19
   2  -3  -2 237375. 2643.12   7
   2  -3  -1 139910. 2096.10  70
   2  -3  -1 134391. 2321.64  67
   2  -3  -1 136146. 1708.62  61
   2  -3   0 107330. 1659.60  70
   2  -3   0 99583.0 1928.80  67
   2  -3   0 112407. 1767.47   3
   2  -3   0 104305. 2055.03  19
   2  -3   1 458218. 5220.08  13
   2  -3   1 379033. 4770.73  67
   2  -3   1 457796. 5147.66  66
   2  -3   1 415962. 5175.58  19
   2  -3   1 418580. 4785.93  30
   2  -3   1 443652. 4995.54   6
   2  -3   1 413487. 4787.96  73
   2  -3   2 484745. 5760.81  13
   2  -3   2 479378. 5671.52  66
   2  -3   2 471138. 5691.82  19
   2  -3   2 484496. 5505.92  30
   2  -3   2 467173. 5568.72   6
   2  -3   2 475731. 5492.90  73
   2  -3   3 179075. 3140.04  69
   2  -3   3 162036. 3017.64  66
   2  -3   3 167596. 3040.67  12
   2  -3   3 168154. 2947.69  19
   2  -3   3 164459. 2945.75  30
   2  -3   3 155823. 2908.80   6
   2  -3   3 167918. 2980.30  73
   2  -3   3 159120. 3046.36  13
   2  -3   4 30861.7 1286.09  69
   2  -3   4 33617.3 1368.64  66
   2  -3   4 36094.4 1430.90  12
   2  -3   4 32315.0 1149.59  58
   2  -3   4 36377.5 1397.95  30
   2  -3   4 36376.8 1370.23  16
   2  -3   4 34256.6 1355.12   6
   2  -3   4 36830.5 1406.55  73
   2  -3   4 32986.9 1390.18  13
   2  -3   5 9518.82 729.826  69
   2  -3   5 12239.0 878.322  66
   2  -3   5 9263.42 781.055  12
   2  -3   5 14627.4 987.665  13
   2  -3   5 21493.1 1153.29  30
   2  -3   5 7664.21 664.527  16
   2  -3   5 7916.90 678.713   6
   2  -3   5 19609.6 1105.66  73
   2  -3   6 70775.5 2315.27  66
   2  -3   6 71789.4 2354.42  12
   2  -3   6 70505.8 2362.83  13
   2  -3   6 71053.1 2312.75  30
   2  -3   6 73091.3 2351.51  73
   2  -3   6 68435.5 2112.03  16
   2  -3   7 208856. 4243.92  30
   2  -3   7 207556. 4253.65  73
   2  -3   8 140412. 3236.48  30
   2  -3   8 137760. 3230.69  73
   2  -2 -12 104017. 1648.79  40
   2  -2 -12 110282. 1718.74  83
   2  -2 -11 66590.1 1714.82  93
   2  -2 -11 70259.7 1713.10  83
   2  -2 -11 69031.8 1754.18  50
   2  -2 -10 28334.2 1220.42  93
   2  -2 -10 29852.8 1241.72  83
   2  -2 -10 29372.6 1051.67  51
   2  -2 -10 29109.9 1236.47  50
   2  -2 -10 28570.7 1190.23  84
   2  -2  -9 39603.9 1508.41  93
   2  -2  -9 37088.6 1295.51  21
   2  -2  -9 41250.8 1498.13  84
   2  -2  -9 42307.0 1562.27  83
   2  -2  -9 42527.9 1375.05  51
   2  -2  -9 40149.6 1503.45  50
   2  -2  -8 128225. 2649.18  70
   2  -2  -8 122079. 2684.30  93
   2  -2  -8 122515. 2465.28  21
   2  -2  -8 124533. 2658.00  84
   2  -2  -8 124584. 2757.31  83
   2  -2  -8 126002. 2491.56  51
   2  -2  -8 122413. 2672.96  50
   2  -2  -7 275048. 4101.41  70
   2  -2  -7 269710. 3923.09  61
   2  -2  -6 92694.7 2077.80  70
   2  -2  -6 95945.6 1954.50  61
   2  -2  -6 83795.6 1771.73  21
   2  -2  -6 88044.1 1921.06   3
   2  -2  -6 89946.5 1871.25  73
   2  -2  -5 282576. 3893.48  70
   2  -2  -5 283642. 3636.20  61
   2  -2  -5 264968. 3437.38  21
   2  -2  -5 286660. 3853.66   3
   2  -2  -5 300523. 3617.62  67
   2  -2  -5 265910. 3325.81  29
   2  -2  -5 296616. 3606.50  73
   2  -2  -5 288790. 3560.91  72
   2  -2  -4 231068. 3205.92  70
   2  -2  -4 233900. 3085.21  67
   2  -2  -4 224619. 2921.25  61
   2  -2  -4 225451. 2820.28  21
   2  -2  -4 220998. 3172.32   3
   2  -2  -4 232884. 2900.18  28
   2  -2  -4 230864. 2885.01  73
   2  -2  -4 219650. 2742.96  72
   2  -2  -3 229469. 3043.12  70
   2  -2  -3 230357. 2750.95  61
   2  -2  -3 225547. 3080.80   3
   2  -2  -3 230325. 2734.80  21
   2  -2  -3 227410. 3040.30  67
   2  -2  -2 484727. 5153.88  70
   2  -2  -2 508262. 5349.04  67
   2  -2  -2 500325. 5200.80  19
   2  -2  -2 522482. 5375.98   3
   2  -2  -1 306820. 3730.16  67
   2  -2  -1 349737. 3730.82   3
   2  -2  -1 332560. 3378.74  61
   2  -2  -1 296525. 3697.25  19
   2  -2   0 203770. 2749.88  67
   2  -2   0 213052. 2562.54  61
   2  -2   0 218720. 2591.80   3
   2  -2   0 206288. 2861.01  19
   2  -2   0 220997. 2659.32   6
   2  -2   1 63992.0 1382.71  13
   2  -2   1 65786.1 1312.77  67
   2  -2   1 64788.1 1362.65  66
   2  -2   1 69521.2 1490.68  19
   2  -2   1 68705.4 1367.09   6
   2  -2   2 315262. 3879.13  69
   2  -2   2 274215. 3655.75  66
   2  -2   2 278817. 3675.04  12
   2  -2   2 272241. 3704.68  13
   2  -2   2 304859. 3793.60  19
   2  -2   2 283386. 3596.90  30
   2  -2   2 303530. 3736.61   6
   2  -2   2 287100. 3629.37  73
   2  -2   3 152253. 2616.91  69
   2  -2   3 142609. 2585.81  13
   2  -2   3 145164. 2448.68  19
   2  -2   3 140533. 2564.23  12
   2  -2   3 148671. 2560.30   6
   2  -2   3 144836. 2555.75  66
   2  -2   4 137475. 2628.97  69
   2  -2   4 134220. 2736.42  13
   2  -2   4 139189. 2785.30  12
   2  -2   4 137081. 2695.95  66
   2  -2   4 142643. 2656.96  16
   2  -2   4 141177. 2684.73   6
   2  -2   5 73494.2 1912.69  69
   2  -2   5 75957.7 2138.01  13
   2  -2   5 75312.1 2087.74  66
   2  -2   5 74327.0 1829.66  58
   2  -2   5 76431.2 2198.13  12
   2  -2   5 71948.6 1959.65  16
   2  -2   5 68710.6 1963.83   6
   2  -2   6 25479.8 1316.64  13
   2  -2   6 25456.6 1282.90  66
   2  -2   6 23860.7 1296.90  12
   2  -2   6 24196.5 1167.66  16
   2  -2   6 24132.1 1194.16   6
   2  -2   6 24325.7 1082.66  58
   2  -2   7 166216. 3773.63  13
   2  -2   7 166422. 3698.70  66
   2  -2   7 166022. 3805.01  12
   2  -2   7 168220. 3794.02  30
   2  -2   7 173732. 3855.79  73
   2  -2   8 248961. 4786.35  30
   2  -2   8 259203. 4883.89  73
   2  -2   9 108134. 2788.25  30
   2  -2   9 107160. 2795.53  73
   2  -2  10 62126.0 1526.82  57
   2  -2  10 64483.8 1550.06  90
   2  -1 -11 52591.3 1359.21  40
   2  -1 -11 53530.5 1361.06  83
   2  -1 -11 53729.0 1271.71  51
   2  -1 -10 107573. 2476.07  93
   2  -1 -10 109292. 2372.54  83
   2  -1 -10 114427. 2290.55  51
   2  -1 -10 107650. 2476.50  50
   2  -1  -9 11468.6 788.455  93
   2  -1  -9 11562.8 751.573  21
   2  -1  -9 13266.6 779.394  51
   2  -1  -9 10818.8 774.250  50
   2  -1  -9 11661.6 765.858  84
   2  -1  -8 132897. 2659.48  70
   2  -1  -8 126058. 2710.69  93
   2  -1  -8 120073. 2590.85  21
   2  -1  -8 132106. 2677.70  84
   2  -1  -8 139760. 2817.74  83
   2  -1  -8 134958. 2647.37  51
   2  -1  -8 123517. 2716.26  50
   2  -1  -7 301536. 4324.47  70
   2  -1  -7 300457. 4281.80  61
   2  -1  -7 288633. 4183.88  21
   2  -1  -6 229539. 3487.64  70
   2  -1  -6 229035. 3363.54  61
   2  -1  -5 212742. 3152.09  70
   2  -1  -5 205471. 2626.05  62
   2  -1  -5 211141. 2939.18  21
   2  -1  -5 205243. 2972.15   3
   2  -1  -5 207128. 2739.92  67
   2  -1  -5 206653. 2961.63  73
   2  -1  -4 305433. 3788.11  70
   2  -1  -4 312238. 3636.56  61
   2  -1  -4 304457. 3521.45  21
   2  -1  -4 296434. 3696.61   3
   2  -1  -4 299371. 3523.89  67
   2  -1  -4 308388. 3576.43  28
   2  -1  -4 303863. 3547.24  73
   2  -1  -3 398772. 4566.16  70
   2  -1  -3 433312. 4470.22  61
   2  -1  -3 446392. 4374.42  21
   2  -1  -3 406820. 4590.24   3
   2  -1  -3 427464. 4535.47  67
   2  -1  -2 179264. 2379.99   3
   2  -1  -2 172462. 1797.77  62
   2  -1   0 19451.7 540.442   3
   2  -1   0 21828.0 562.935   6
   2  -1   1 23833.7 698.939  13
   2  -1   1 24410.5 690.549  66
   2  -1   2 85758.4 1581.18  69
   2  -1   2 76721.9 1461.60  13
   2  -1   2 76392.1 1481.44  12
   2  -1   2 74218.3 1419.55  66
   2  -1   2 79586.8 1480.11  19
   2  -1   2 84476.1 1533.81   6
   2  -1   3 227917. 3180.56  69
   2  -1   3 236696. 3145.74  66
   2  -1   3 228626. 3168.57  13
   2  -1   3 231089. 3242.88  12
   2  -1   3 231239. 2975.13  19
   2  -1   3 242134. 3180.54  16
   2  -1   3 233853. 3206.81   6
   2  -1   4 357235. 4579.76  69
   2  -1   4 344144. 4796.35  64
   2  -1   4 373614. 4874.88  12
   2  -1   4 399330. 4516.49  58
   2  -1   4 384890. 4706.46  16
   2  -1   4 378261. 4765.70   6
   2  -1   5 241768. 3617.89  69
   2  -1   5 268542. 3714.38  58
   2  -1   5 253575. 4141.20  64
   2  -1   5 271360. 4190.43  12
   2  -1   5 254675. 3836.70  16
   2  -1   5 240444. 3851.66   6
   2  -1   6 102014. 2268.20  58
   2  -1   6 97888.3 2339.88  16
   2  -1   7 47417.1 1782.29  66
   2  -1   7 47007.4 1812.98  13
   2  -1   7 45172.5 1849.26  12
   2  -1   8 230854. 4275.86  22
   2  -1   8 230190. 4430.84  13
   2  -1   8 222840. 4293.24  66
   2  -1   8 220969. 4486.32  12
   2  -1   8 223672. 4228.24  71
   2  -1   9 214185. 4287.31  30
   2  -1   9 219476. 4364.73  73
   2  -1  11 51485.3 1286.64  90
   2  -1  11 52793.0 1305.03  57
   2   0 -11 72344.8 1520.71  51
   2   0 -10 176358. 3215.47  93
   2   0 -10 175554. 3122.06  21
   2   0  -9 83520.4 2194.97  93
   2   0  -9 78553.1 2106.60  21
   2   0  -9 87525.2 2064.92  83
   2   0  -9 83564.0 2101.47  51
   2   0  -9 82043.5 2214.38  50
   2   0  -8 67593.0 1909.51  93
   2   0  -8 62711.5 1861.04  21
   2   0  -8 67586.7 1801.98  84
   2   0  -8 70888.9 1848.52  83
   2   0  -8 67099.9 1860.58  51
   2   0  -8 60996.1 1859.00  50
   2   0  -7 200901. 3268.79  70
   2   0  -7 199494. 3312.85  61
   2   0  -6 409019. 5076.13  70
   2   0  -6 408733. 4779.34  62
   2   0  -6 408147. 5023.73  61
   2   0  -5 203560. 3042.37  70
   2   0  -5 208921. 2989.69  61
   2   0  -5 199747. 2939.93  21
   2   0  -5 194919. 2748.37  62
   2   0  -5 204222. 2989.23  73
   2   0  -4 258386. 3336.69  70
   2   0  -4 257041. 3047.87  67
   2   0  -4 260447. 3269.37  61
   2   0  -4 260066. 3229.94  21
   2   0  -4 264841. 3061.92  62
   2   0  -4 254983. 3229.76  73
   2   0  -3 370614. 3960.28  61
   2   0  -3 387479. 3950.74  21
   2   0  -2 10207.7 416.599  61
   2   0  -2 9717.71 332.050  62
   2   0   0 29527.7 595.146   6
   2   0   1 196475. 2232.16  13
   2   0   1 197164. 2204.58  66
   2   0   2 81839.5 1306.67  66
   2   0   2 80709.4 1327.43  13
   2   0   2 81041.0 1398.04  12
   2   0   3 186548. 2556.64  69
   2   0   3 178388. 2574.78  12
   2   0   3 183932. 2549.76  16
   2   0   3 181086. 2610.85   6
   2   0   4 482223. 5258.76  69
   2   0   4 485911. 5612.98  64
   2   0   4 498824. 5574.79  12
   2   0   4 489374. 5533.67   6
   2   0   5 387919. 4598.37  69
   2   0   5 388758. 5213.76  64
   2   0   5 393681. 5179.74  12
   2   0   5 374623. 4859.34  16
   2   0   6 370474. 5418.48   4
   2   0   6 406729. 5753.00  64
   2   0   6 394350. 5620.78  12
   2   0   6 429963. 5282.08  58
   2   0   7 22889.2 1153.51   4
   2   0   7 24418.7 1277.14  12
   2   0   7 24781.2 1123.48  58
   2   0   8 101621. 2653.22  22
   2   0   8 102448. 2855.77  12
   2   0   8 98578.8 2609.68  71
   2   0   9 80405.7 2361.53  22
   2   0   9 76202.3 2126.90  36
   2   0   9 77271.8 2336.81  71
   2   0  10 122407. 2707.65  33
   2   0  10 130916. 3031.73  30
   2   0  10 126893. 3012.35  73
   2   0  11 61922.0 1476.95  33
   2   1 -11 65442.9 1384.02  51
   2   1 -10 143892. 2641.42  51
   2   1  -9 269822. 4325.07  21
   2   1  -9 280775. 4315.41  51
   2   1  -8 73488.6 2061.53  21
   2   1  -8 75353.5 1770.81  41
   2   1  -8 74971.7 2020.70  93
   2   1  -8 78404.9 2072.77  51
   2   1  -8 71319.0 2042.41  50
   2   1  -7 57977.1 1759.15  21
   2   1  -7 63121.3 1766.46  51
   2   1  -7 61296.0 1744.63  50
   2   1  -6 247644. 3622.66  70
   2   1  -6 243042. 3769.39  21
   2   1  -5 219933. 3106.27  61
   2   1  -5 212952. 3018.37  62
   2   1  -4 223289. 3048.30  70
   2   1  -4 229478. 2805.40  67
   2   1  -4 244152. 3029.33  62
   2   1  -4 241857. 3145.94  21
   2   1  -4 233136. 3071.16  61
   2   1  -4 235548. 3116.78  73
   2   1  -3 130033. 1939.10  70
   2   1  -3 130577. 1806.75  67
   2   1  -3 127047. 1909.38  21
   2   1  -3 134921. 1958.07  61
   2   1  -3 135427. 1894.18  62
   2   1  -3 128104. 1800.88   1
   2   1  -2 13580.0 405.152   1
   2   1  -2 14823.3 473.555  62
   2   1  -2 13907.6 483.933  61
   2   1  -1 74378.2 949.357   1
   2   1  -1 73177.2 1101.94  62
   2   1   2 471037. 4207.81  13
   2   1   2 442202. 4401.33  12
   2   1   3 182425. 2731.61   4
   2   1   3 192786. 2532.38  12
   2   1   4 121963. 2249.98   4
   2   1   4 117890. 2120.72  64
   2   1   4 122646. 2083.81  12
   2   1   5 428420. 4521.17  69
   2   1   5 400500. 5124.38  64
   2   1   5 370104. 5046.98   4
   2   1   5 418275. 5075.62  12
   2   1   5 445935. 4892.78  58
   2   1   5 374495. 4505.15  27
   2   1   6 418709. 5686.06  64
   2   1   6 421207. 5596.37  12
   2   1   6 404902. 5537.93   4
   2   1   7 160900. 3131.97  22
   2   1   7 158111. 3295.73  12
   2   1   7 159049. 3165.10   4
   2   1   7 163458. 3069.60  58
   2   1   7 165343. 3175.58  71
   2   1   8 25598.7 1272.26  22
   2   1   8 26075.0 1213.94  82
   2   1   8 26668.9 1357.59  12
   2   1   8 25828.7 1275.77  71
   2   1   9 4233.34 529.456  22
   2   1   9 5172.41 550.456  66
   2   1   9 5716.35 590.182  13
   2   1   9 3950.98 513.514  36
   2   1   9 5993.14 576.707  82
   2   1   9 6607.67 674.083  12
   2   1   9 4749.66 558.675  71
   2   1  10 87802.8 2326.93  36
   2   1  10 92667.0 2243.64  82
   2   1  10 87878.6 2407.58  22
   2   1  10 96249.9 2558.25  30
   2   1  10 92693.2 2514.68  73
   2   1  10 85897.0 2400.57  71
   2   1  11 105968. 2148.51  36
   2   1  11 105352. 2357.61  33
   2   2 -11 29073.2 801.544  51
   2   2 -10 49598.6 1208.89  41
   2   2 -10 52859.3 1438.52  51
   2   2  -9 183683. 3013.55  41
   2   2  -9 182748. 3286.16  51
   2   2  -8 222147. 3536.40  41
   2   2  -8 215913. 3848.53  21
   2   2  -8 221502. 3825.44  51
   2   2  -7 88213.3 2266.01  21
   2   2  -7 90554.0 2226.10  51
   2   2  -6 56285.7 1528.89  61
   2   2  -6 53972.1 1633.02  21
   2   2  -6 58334.8 1618.69  62
   2   2  -5 92516.1 1953.05  62
   2   2  -5 93051.8 2031.99  21
   2   2  -5 95478.4 1908.54  61
   2   2  -4 87781.7 1721.74  62
   2   2  -4 93066.0 1704.65  61
   2   2  -4 86813.4 1745.06   1
   2   2  -4 88763.2 1790.39  21
   2   2  -3 266316. 3077.37  67
   2   2  -3 269082. 3263.38  21
   2   2  -3 268432. 3172.13  61
   2   2  -3 256673. 3192.53   1
   2   2  -3 264868. 3217.59  62
   2   2  -2 308302. 3258.55  67
   2   2  -2 309321. 3279.71  21
   2   2  -2 277868. 3178.23  61
   2   2  -2 286190. 3270.07  62
   2   2  -2 307559. 3281.50   1
   2   2  -1 156769. 1907.12  61
   2   2  -1 154369. 1963.16  62
   2   2   3 517732. 5649.53   4
   2   2   3 538157. 5174.07  12
   2   2   4 18118.1 599.944  69
   2   2   4 16199.5 608.126  22
   2   2   4 17162.1 648.848  12
   2   2   4 17356.9 777.265   4
   2   2   4 15826.1 612.494  58
   2   2   4 16488.1 618.150  71
   2   2   5 108409. 1722.80  69
   2   2   5 106756. 1992.67  22
   2   2   5 108919. 2029.29  12
   2   2   5 110412. 2233.23   4
   2   2   5 106105. 1996.79  71
   2   2   6 138136. 2584.81  22
   2   2   6 132977. 2584.50  12
   2   2   6 142844. 2745.69   4
   2   2   6 140857. 2558.85  58
   2   2   6 132505. 2552.47  27
   2   2   6 137495. 2586.38  71
   2   2   7 269341. 4235.75  22
   2   2   7 270241. 4272.69  12
   2   2   7 267547. 4220.16   4
   2   2   7 274399. 4174.77  58
   2   2   7 272282. 4278.07  71
   2   2   8 139598. 3111.42  22
   2   2   8 130109. 3182.88  36
   2   2   8 134811. 3043.04  82
   2   2   8 135667. 2905.48  47
   2   2   8 142484. 3144.45  71
   2   2   9 17593.1 1134.59  36
   2   2   9 17475.8 1064.06  82
   2   2   9 19895.7 1154.91  22
   2   2   9 16898.9 968.874  47
   2   2   9 20143.8 1159.29  71
   2   2  10 14758.9 879.077  68
   2   2  10 18319.8 1107.84  36
   2   2  10 18733.0 1051.56  30
   2   2  10 17987.6 1031.83  73
   2   2  10 15469.9 998.831  71
   2   2  10 16847.7 1004.97  82
   2   2  11 77709.1 2048.59  36
   2   2  11 83323.5 2237.45  33
   2   2  12 160543. 2596.16  33
   2   3 -10 31334.5 991.479  51
   2   3  -9 33064.1 1134.01  41
   2   3  -9 32734.4 1209.79  51
   2   3  -8 108790. 2385.52  41
   2   3  -8 108832. 2559.85  21
   2   3  -8 110249. 2522.38  51
   2   3  -7 140699. 3001.66  21
   2   3  -7 141427. 2921.72  51
   2   3  -6 51420.3 1581.01  62
   2   3  -6 44568.8 1545.57  21
   2   3  -6 48682.1 1566.06  79
   2   3  -6 44789.1 1486.62  51
   2   3  -6 48750.4 1519.65  44
   2   3  -5 106763. 2003.97  61
   2   3  -5 102885. 2195.57  62
   2   3  -4 83843.2 1886.85   1
   2   3  -4 83471.3 1831.97  21
   2   3  -4 84112.1 1810.19  62
   2   3  -3 335326. 4045.12  62
   2   3  -3 335037. 3991.53  21
   2   3  -3 346516. 3779.74  61
   2   3  -2 441048. 4826.38  62
   2   3  -2 481604. 4785.88  21
   2   3  -2 475148. 4605.83  61
   2   3  -2 448406. 4913.81   1
   2   3  -1 589184. 5660.80  69
   2   3   0 172398. 2221.45  69
   2   3   0 187090. 2017.17  61
   2   3   0 177440. 2292.35   1
   2   3   0 181697. 2242.87  62
   2   3   1 264485. 3078.32   1
   2   3   1 257761. 2464.25  58
   2   3   1 263787. 3063.48   4
   2   3   2 271551. 3055.58  69
   2   3   2 262772. 2799.53  58
   2   3   2 268586. 3285.21   4
   2   3   3 500128. 4954.72  69
   2   3   3 488285. 5401.72   4
   2   3   3 482889. 4892.60  58
   2   3   4 292848. 3597.02  22
   2   3   4 286254. 3884.22   4
   2   3   4 289582. 3502.56  58
   2   3   4 278806. 3579.61  71
   2   3   5 8187.73 411.027  69
   2   3   5 9626.27 552.280  58
   2   3   5 9293.22 566.516  22
   2   3   5 8726.38 556.958  71
   2   3   6 62728.2 1730.84   4
   2   3   6 61197.1 1626.29  58
   2   3   6 60359.6 1682.33  22
   2   3   6 60787.0 1697.37  71
   2   3   7 43692.4 1497.40   4
   2   3   7 41550.5 1463.77  58
   2   3   7 46567.7 1605.01  22
   2   3   7 46427.5 1606.07  71
   2   3   8 288430. 5117.29  36
   2   3   8 292486. 4886.84  82
   2   3   8 296267. 4861.50  22
   2   3   8 281086. 4672.50  47
   2   3   8 291182. 4851.61  71
   2   3   9 194321. 3654.99  43
   2   3   9 186706. 4092.40  36
   2   3   9 197389. 3984.42  82
   2   3   9 192122. 3772.30  47
   2   3   9 198203. 3959.58  71
   2   3  10 50815.5 1925.31  36
   2   3  10 47971.3 1690.36  47
   2   3  10 51524.2 1865.91  82
   2   3  10 48968.7 1796.08  71
   2   3  11 46946.0 1643.57  36
   2   3  11 47145.3 1685.94  33
   2   3  11 50222.9 1660.55  82
   2   3  12 64915.2 1511.36  82
   2   3  12 64508.8 1619.76  33
   2   4 -10 34130.3 869.423  51
   2   4  -9 21055.4 834.617  41
   2   4  -9 21704.6 892.513  51
   2   4  -8 18758.4 907.795  41
   2   4  -8 17366.8 909.893  51
   2   4  -7 127871. 2708.00  41
   2   4  -7 130056. 2834.51  21
   2   4  -7 132595. 2813.64  51
   2   4  -6 137884. 2940.74  21
   2   4  -6 145069. 2728.90  80
   2   4  -6 141126. 2866.14  51
   2   4  -5 157910. 2980.57  21
   2   4  -5 148973. 2729.65  80
   2   4  -5 139532. 2848.71  79
   2   4  -5 143637. 2733.89  51
   2   4  -5 149845. 2840.00  44
   2   4  -5 163838. 2956.02  62
   2   4  -4 234009. 3787.48   1
   2   4  -4 238120. 3614.16  21
   2   4  -3 271942. 3587.09  21
   2   4  -3 273947. 3676.05  62
   2   4  -3 262252. 3818.54   1
   2   4  -2 229591. 3164.59  62
   2   4  -2 240355. 3383.02   1
   2   4  -1 306539. 3854.62   1
   2   4  -1 327397. 3715.80  62
   2   4   0 302552. 3545.01  69
   2   4   0 295679. 3378.65  62
   2   4   1 84007.9 1532.04  69
   2   4   1 83065.6 1603.44   1
   2   4   2 238220. 3271.57   1
   2   4   2 232579. 2619.57  58
   2   4   2 232761. 3179.51   4
   2   4   3 118740. 1890.53  69
   2   4   3 113286. 1781.44  58
   2   4   3 108716. 2088.95   4
   2   4   3 124500. 1844.02  71
   2   4   4 274677. 3491.82  58
   2   4   4 266093. 3820.42   4
   2   4   4 275460. 3617.87  71
   2   4   5 71340.1 1385.56  69
   2   4   5 64778.3 1573.29  58
   2   4   5 68824.9 1766.96   4
   2   4   5 67059.3 1713.48  71
   2   4   6 109886. 2408.45   4
   2   4   6 110084. 2329.74  58
   2   4   6 114047. 2507.94  71
   2   4   7 71015.2 1946.66   4
   2   4   7 71882.6 1977.72  58
   2   4   7 71895.3 2095.56  71
   2   4   8 167798. 3789.36  36
   2   4   8 161762. 3545.87  82
   2   4   8 156762. 3449.69  47
   2   4   8 167419. 3501.77  71
   2   4   9 290215. 4916.43  43
   2   4   9 308516. 5472.16  36
   2   4   9 291400. 5147.86  82
   2   4   9 276751. 4931.77  47
   2   4   9 311329. 5081.71  71
   2   4  10 114760. 2721.12  43
   2   4  10 113553. 3004.62  36
   2   4  10 115859. 2932.73  82
   2   4  10 108971. 2758.98  47
   2   4  10 107229. 2686.65  71
   2   4  11 46623.5 1453.65  43
   2   4  11 50259.5 1722.46  36
   2   4  11 46766.4 1641.45  82
   2   4  11 49525.2 1711.92  33
   2   4  12 31700.4 1091.89  82
   2   4  12 32207.6 1112.47  33
   2   5  -9 38308.2 1000.85  51
   2   5  -8 14966.9 747.255  41
   2   5  -8 14113.7 738.222  51
   2   5  -7 91846.9 2182.29  41
   2   5  -7 96372.1 2063.56  80
   2   5  -7 94951.7 2228.56  51
   2   5  -6 222638. 3768.02  41
   2   5  -6 207683. 3788.07  91
   2   5  -6 207757. 3785.51  56
   2   5  -6 222928. 3741.99  51
   2   5  -5 205240. 3260.92  42
   2   5  -5 196655. 3697.16  91
   2   5  -5 194322. 3670.20  56
   2   5  -5 226446. 3433.03  55
   2   5  -5 214546. 3619.51  80
   2   5  -5 218008. 3550.44  51
   2   5  -4 132443. 2731.15  96
   2   5  -4 129039. 2763.18  91
   2   5  -4 143606. 2787.00  87
   2   5  -4 127521. 2735.87  56
   2   5  -4 127606. 2485.81  55
   2   5  -4 126539. 2638.97  80
   2   5  -4 135128. 2739.56  79
   2   5  -4 131340. 2479.05  51
   2   5  -4 145404. 2693.37  62
   2   5  -4 132230. 2867.87   1
   2   5  -4 136866. 2674.14  44
   2   5  -3 183214. 3319.11   1
   2   5  -3 197831. 3113.41  62
   2   5  -2 100295. 2202.60   1
   2   5  -2 105901. 2009.77  62
   2   5  -1 197104. 3119.64   1
   2   5  -1 209797. 2858.88  62
   2   5   0 315049. 4165.22   1
   2   5   0 330981. 3776.01  62
   2   5   1 23050.0 707.653  62
   2   5   1 22826.2 895.910   1
   2   5   2 113831. 2024.84  69
   2   5   2 105718. 1692.77  62
   2   5   3 48136.6 1250.62  69
   2   5   3 47467.9 1475.58   1
   2   5   3 46828.9 1098.10  58
   2   5   4 236848. 3196.36  69
   2   5   4 239722. 3274.28  58
   2   5   4 242049. 3340.52  71
   2   5   4 232800. 3908.33   1
   2   5   5 376475. 4813.73  58
   2   5   5 374217. 4982.60  71
   2   5   6 199832. 3397.17  58
   2   5   6 192291. 3460.37   4
   2   5   7 99649.8 2455.03  92
   2   5   7 100088. 2412.56  58
   2   5   7 100786. 2781.12  36
   2   5   7 104614. 2446.30   4
   2   5   7 101970. 2608.44  82
   2   5   7 96570.8 2600.05  47
   2   5   7 109229. 2656.94  71
   2   5   8 46623.2 1937.26  36
   2   5   8 42419.3 1595.54  92
   2   5   8 45029.1 1800.28  82
   2   5   8 43553.9 1785.35  47
   2   5   8 43782.1 1705.64  71
   2   5   9 154170. 3501.10  43
   2   5   9 141891. 2995.44  92
   2   5   9 158504. 3751.31  36
   2   5   9 146033. 3468.47  82
   2   5   9 155162. 3537.34  47
   2   5   9 156662. 3376.72  71
   2   5  10 179247. 3616.31  43
   2   5  10 181311. 3834.44  36
   2   5  10 172353. 3655.18  82
   2   5  10 174151. 3650.38  33
   2   5  11 90956.2 2191.86  43
   2   5  11 95303.9 2374.59  36
   2   5  11 92950.7 2306.06  33
   2   5  11 95984.3 2381.10  82
   2   5  12 20895.6 744.543  43
   2   5  12 20565.8 861.383  82
   2   5  12 21596.7 832.244  33
   2   6  -8 74338.3 1455.18  51
   2   6  -7 31550.3 1107.12  41
   2   6  -7 30113.4 1038.03  91
   2   6  -7 29998.7 1036.50  56
   2   6  -7 32070.3 1032.29  80
   2   6  -7 32376.2 1108.38  51
   2   6  -6 101548. 2283.05  41
   2   6  -6 94434.3 2315.05  91
   2   6  -6 94221.5 2312.89  56
   2   6  -6 100879. 2273.01  80
   2   6  -6 97535.5 2203.56  51
   2   6  -5 198505. 3147.73  42
   2   6  -5 193853. 3403.77  41
   2   6  -5 175236. 3559.29  91
   2   6  -5 176022. 3562.29  56
   2   6  -5 195083. 3264.50  55
   2   6  -5 195399. 3540.51  80
   2   6  -5 190187. 3272.11  51
   2   6  -4 102181. 2296.81  41
   2   6  -4 106363. 2493.41  87
   2   6  -4 96278.4 2526.67  91
   2   6  -4 94124.7 2499.62  56
   2   6  -4 103473. 2325.35  55
   2   6  -4 95728.1 2420.48  80
   2   6  -4 98605.2 2145.10  51
   2   6  -3 163934. 3296.70  91
   2   6  -3 168822. 3164.76  87
   2   6  -3 162012. 3279.92  56
   2   6  -3 175202. 3152.79  55
   2   6  -3 170095. 3285.00  80
   2   6  -3 167850. 3125.36  96
   2   6  -2 26152.5 1175.62   1
   2   6  -1 65899.6 1822.07   1
   2   6   0 158432. 2914.95   1
   2   6   1 163306. 2936.32   1
   2   6   2 95721.1 2183.17   1
   2   6   3 101887. 2338.65   1
   2   6   4 120493. 2730.23   1
   2   6   5 264099. 4548.06   1
   2   6   6 436971. 6540.26   1
   2   6   6 410814. 6138.66  43
   2   6   6 403237. 6030.78  92
   2   6   6 437241. 5745.34  58
   2   6   6 475713. 6115.10  17
   2   6   6 472223. 6057.34  71
   2   6   7 72017.7 2321.04  43
   2   6   7 73856.1 2063.13  94
   2   6   7 71121.0 2248.01  92
   2   6   7 73119.0 2338.83  36
   2   6   7 71380.5 2182.73  82
   2   6   7 75874.8 2195.08  71
   2   6   8 51853.1 2011.78  43
   2   6   8 50152.5 1867.28  92
   2   6   8 50001.8 1992.52  36
   2   6   8 50327.9 1910.75  82
   2   6   8 54653.1 1871.12  71
   2   6   9 14036.8 1017.58  43
   2   6   9 13359.7 915.689  92
   2   6   9 12838.8 984.926  36
   2   6   9 14116.5 994.840  82
   2   6   9 15217.1 968.574  33
   2   6  10 109112. 2757.45  43
   2   6  10 110831. 2467.23  92
   2   6  10 105739. 2757.26  36
   2   6  10 110411. 2773.23  82
   2   6  10 115129. 2627.94  33
   2   6  11 191877. 3338.03  43
   2   6  11 186589. 3079.64  33
   2   6  11 182086. 3305.27  82
   2   6  12 49190.9 1200.57  43
   2   6  12 51083.1 1281.27  82
   2   7  -6 25435.0 935.568  41
   2   7  -6 23606.4 966.920  91
   2   7  -6 24184.5 982.587  56
   2   7  -6 25613.3 988.250  80
   2   7  -6 24406.1 882.939  51
   2   7  -5 36488.2 1236.79  41
   2   7  -5 34412.3 1382.42  91
   2   7  -5 34710.8 1397.12  56
   2   7  -5 37703.2 1244.05  55
   2   7  -5 38311.5 1410.52  80
   2   7  -5 39175.2 1227.57  51
   2   7  -4 79344.7 1890.05  42
   2   7  -4 85118.3 2001.31  41
   2   7  -4 76480.1 2274.33  91
   2   7  -4 76238.3 2274.08  56
   2   7  -4 86264.0 2144.48  55
   2   7  -4 85380.5 2311.59  80
   2   7  -3 146785. 2672.33  41
   2   7  -3 149134. 3076.08  87
   2   7  -3 138487. 3166.72  91
   2   7  -3 140112. 3181.88  56
   2   7  -3 143946. 3007.54  55
   2   7  -3 137785. 3123.89  80
   2   7  -2 112212. 2748.14  91
   2   7  -2 111770. 2748.15  56
   2   7  -2 106022. 2584.17  55
   2   7  -2 111187. 2754.58  80
   2   7  -1 15496.8 926.385  91
   2   7  -1 17030.1 914.378  34
   2   7  -1 15902.1 940.296  56
   2   7  -1 14444.9 895.907  55
   2   7  -1 14027.5 851.905  87
   2   7  -1 14945.2 935.982  80
   2   7   0 33099.5 1315.28  87
   2   7   0 36311.7 1381.15  91
   2   7   0 35173.0 1396.39   1
   2   7   0 36424.1 1362.51  34
   2   7   0 35486.5 1366.62  56
   2   7   0 34048.8 1368.91  55
   2   7   0 31026.7 1303.03  80
   2   7   1 173578. 3313.87   1
   2   7   2 288028. 4515.06   1
   2   7   3 319145. 4884.38   1
   2   7   4 67968.2 2100.05  92
   2   7   4 76988.7 2207.85  88
   2   7   4 73949.3 2191.97  87
   2   7   4 71040.6 2131.27  34
   2   7   4 71102.6 2183.13  94
   2   7   4 75169.0 2172.61   1
   2   7   5 6015.31 578.040  43
   2   7   5 4815.50 563.408  94
   2   7   5 5146.28 564.723   1
   2   7   5 4792.44 560.919  92
   2   7   5 4459.03 516.215  88
   2   7   5 5247.26 591.336  87
   2   7   5 4860.15 548.174  34
   2   7   6 191878. 3858.86  43
   2   7   6 182115. 3762.73  94
   2   7   6 172225. 3815.79  92
   2   7   6 189538. 3558.35  88
   2   7   6 175864. 3850.78  87
   2   7   6 183788. 3665.43  34
   2   7   7 161543. 3682.07  43
   2   7   7 154868. 3373.21  94
   2   7   7 159135. 3676.17  92
   2   7   7 167852. 3180.54  88
   2   7   7 156665. 3655.53  87
   2   7   7 165498. 3362.85  34
   2   7   8 233597. 4580.31  43
   2   7   8 217238. 4375.51  92
   2   7   8 232750. 4443.15  87
   2   7   8 234335. 4212.87  82
   2   7   8 222536. 4003.12  94
   2   7   9 41208.0 1724.89  43
   2   7   9 39436.0 1632.09  92
   2   7   9 39783.4 1578.04  87
   2   7   9 40958.3 1597.16  82
   2   7  10 1565.50 302.185  43
   2   7  10 1526.01 276.264  82
   2   7  10 2131.80 326.617  92
   2   7  11 37810.2 1288.14  43
   2   7  11 39107.0 1115.84  92
   2   7  11 35919.9 1179.97  82
   2   7  12 94952.8 1616.37  43
   2   8  -6 58410.3 1199.93  80
   2   8  -5 32222.2 1142.89  56
   2   8  -5 34465.0 1168.81  80
   2   8  -5 30682.7 1104.88  91
   2   8  -4 22550.4 869.739  42
   2   8  -4 21770.4 1089.79  56
   2   8  -4 22643.7 986.773  55
   2   8  -4 23141.0 1098.85  80
   2   8  -4 21378.3 1069.16  91
   2   8  -3 20685.6 1132.41  91
   2   8  -3 22240.1 1182.21  56
   2   8  -3 24304.8 1138.33  55
   2   8  -3 22151.5 1087.23  87
   2   8  -3 20400.3 1114.77  80
   2   8  -2 121099. 2942.88  91
   2   8  -2 125196. 2785.35  87
   2   8  -2 119193. 2923.41  56
   2   8  -2 115435. 2798.08  55
   2   8  -2 120174. 2954.96  80
   2   8  -1 131598. 3034.22  91
   2   8  -1 134852. 3093.53  56
   2   8  -1 120971. 2816.60  87
   2   8  -1 121328. 2999.54  80
   2   8  -1 120988. 2934.84  55
   2   8   0 186917. 3572.11  34
   2   8   0 174475. 3637.20  55
   2   8   0 188845. 3660.40  91
   2   8   0 185116. 3611.77  87
   2   8   0 175120. 3608.74  80
   2   8   1 101811. 2571.59  91
   2   8   1 105310. 2617.17  88
   2   8   1 102681. 2627.11  87
   2   8   1 97518.7 2584.54  55
   2   8   1 98902.6 2490.49  80
   2   8   1 106976. 2687.98  34
   2   8   2 74432.0 2210.48  94
   2   8   2 75162.6 2307.99  88
   2   8   2 82359.4 2365.51  87
   2   8   2 79109.4 2358.60  34
   2   8   2 73747.4 2164.72  55
   2   8   3 106544. 2844.36  88
   2   8   3 98828.9 2727.41  94
   2   8   3 100960. 2534.12  92
   2   8   3 94482.1 2667.02  87
   2   8   3 98676.7 2744.08  34
   2   8   3 104351. 2468.45  55
   2   8   4 142553. 3315.41  92
   2   8   4 140646. 3403.00  34
   2   8   4 147563. 3449.87  87
   2   8   5 77451.7 2509.89  94
   2   8   5 80549.7 2529.34  92
   2   8   5 88553.4 2573.07  88
   2   8   5 85520.2 2622.66  87
   2   8   5 72804.4 2412.21  34
   2   8   6 67305.7 2144.16  43
   2   8   6 67351.2 2308.54  94
   2   8   6 66609.8 2370.87  92
   2   8   6 73936.1 2230.45  88
   2   8   6 65607.4 2328.89  87
   2   8   6 67505.4 2259.12  34
   2   8   7 87462.1 2569.19  43
   2   8   7 90398.9 2634.03  94
   2   8   7 88854.4 2742.22  92
   2   8   7 93934.3 2385.38  88
   2   8   7 91436.7 2731.37  87
   2   8   7 92240.8 2537.46  34
   2   8   8 33255.5 1522.77  43
   2   8   8 32605.9 1562.08  92
   2   8   8 32210.4 1412.98  94
   2   8   8 31422.6 1482.28  87
   2   8   8 34406.0 1357.23  34
   2   8   9 112941. 2753.07  43
   2   8   9 109649. 2586.47  87
   2   8   9 109813. 2730.07  92
   2   8  10 33199.5 1276.15  43
   2   8  10 32727.8 1105.44  87
   2   8  10 32087.1 1237.62  92
   2   8  11 27619.8 954.037  43
   2   8  11 27563.7 864.894  92
   2   9  -4 22854.4 794.421  55
   2   9  -4 23525.0 924.223  80
   2   9  -3 86356.1 1733.42  42
   2   9  -3 87025.4 2005.07  55
   2   9  -3 89633.0 2179.39  80
   2   9  -3 87064.6 2123.91  91
   2   9  -2 116271. 2688.92  91
   2   9  -2 117769. 2639.75  55
   2   9  -2 110150. 2670.10  80
   2   9  -2 118661. 2558.10  87
   2   9  -1 104289. 2669.38  55
   2   9  -1 109793. 2559.97  87
   2   9  -1 104120. 2682.97  80
   2   9   0 68453.1 2140.26  80
   2   9   0 70143.7 2207.54  55
   2   9   0 70010.1 2114.23  87
   2   9   1 46169.1 1665.72  88
   2   9   1 40713.1 1685.45  55
   2   9   1 44983.5 1729.35  87
   2   9   1 42732.0 1596.17  80
   2   9   1 44872.9 1725.41  34
   2   9   2 90671.0 2574.23  87
   2   9   2 89049.4 2546.05  88
   2   9   2 86594.1 2563.29  34
   2   9   2 85645.4 2430.10  55
   2   9   3 120583. 3090.39  88
   2   9   3 113613. 2982.40  87
   2   9   3 117328. 3108.47  34
   2   9   3 119954. 2763.65  55
   2   9   4 132364. 3381.62  94
   2   9   4 141542. 3213.14  92
   2   9   4 141728. 3440.78  87
   2   9   4 139683. 3473.82  34
   2   9   5 47162.9 1948.35  94
   2   9   5 48722.3 1966.95  87
   2   9   5 50012.3 1989.00  34
   2   9   5 45178.8 1832.20  92
   2   9   6 8608.32 746.445  88
   2   9   6 8127.19 767.602  34
   2   9   6 7399.38 743.110  94
   2   9   6 8004.78 774.111  92
   2   9   6 6795.51 711.373  87
   2   9   7 48943.4 1856.19  94
   2   9   7 51408.1 1703.92  88
   2   9   7 45161.7 1794.51  87
   2   9   7 49417.6 1788.28  34
   2   9   7 48703.3 1911.05  92
   2   9   8 64747.7 1855.56  43
   2   9   8 65446.4 2115.11  92
   2   9   8 62686.5 1961.85  87
   2   9   8 66486.5 1848.79  34
   2   9   8 66486.6 1691.08  88
   2   9   9 155135. 2799.73  43
   2   9   9 159501. 3072.56  92
   2   9  10 99316.2 1880.63  43
   2   9  10 97896.6 2007.87  92
   2   9  10 94338.7 1684.43  87
   2  10  -3 30092.1 893.759  80
   2  10  -2 42217.1 1030.18  42
   2  10  -2 43075.9 1259.49  55
   2  10  -2 42265.2 1272.69  80
   2  10  -1 69071.1 1717.42  87
   2  10  -1 66096.1 1808.50  55
   2  10   0 131045. 2820.75  55
   2  10   0 128523. 2644.73  80
   2  10   0 136178. 2716.17  87
   2  10   1 73285.0 1837.80  88
   2  10   1 69412.6 1981.58  87
   2  10   1 72028.4 2078.70  55
   2  10   1 69688.1 1821.94  80
   2  10   2 37485.8 1460.21  88
   2  10   2 38398.9 1470.83  55
   2  10   2 35973.4 1495.69  34
   2  10   2 35859.6 1469.36  87
   2  10   3 15454.5 1007.11  34
   2  10   3 17744.3 1048.64  87
   2  10   3 18821.1 956.228  55
   2  10   3 15791.3 941.749  49
   2  10   3 17060.7 1032.05  88
   2  10   4 64247.2 2067.04  88
   2  10   4 59714.7 2056.72  34
   2  10   4 60604.1 2020.54  87
   2  10   4 56164.4 1927.53  49
   2  10   5 99445.3 2550.34  88
   2  10   5 91033.7 2509.01  87
   2  10   5 88680.9 2531.40  34
   2  10   5 97679.8 2381.65  92
   2  10   6 77625.1 2166.40  92
   2  10   6 78884.5 2246.53  87
   2  10   6 76618.3 2220.42  34
   2  10   7 32445.3 1193.35  88
   2  10   7 30519.2 1246.51  34
   2  10   7 31361.3 1294.43  87
   2  10   7 29182.8 1267.76  92
   2  10   8 34889.8 1027.05  88
   2  10   8 32941.0 1246.80  92
   2  10   8 31258.5 1152.20  87
   2  10   8 31368.0 1155.23  49
   2  10   8 35022.5 1125.38  34
   2  10   9 52888.2 1230.61  87
   2  10   9 60857.8 1482.42  92
   2  11   0 58136.2 1352.52  55
   2  11   1 74412.8 1661.05  55
   2  11   1 80743.6 1706.54  87
   2  11   2 56662.3 1417.85  55
   2  11   2 58415.4 1337.56  88
   2  11   2 58202.3 1537.33  87
   2  11   3 23344.2 993.224  87
   2  11   3 22554.7 928.295  88
   2  11   3 23363.4 815.147  55
   2  11   4 20433.7 920.632  88
   2  11   4 19792.3 947.674  34
   2  11   4 18167.4 882.828  87
   2  11   4 17654.3 794.654  49
   2  11   5 55027.5 1513.95  88
   2  11   5 51120.2 1501.45  87
   2  11   5 52697.8 1554.91  34
   2  11   6 129877. 2301.44  88
   2  11   6 124774. 2368.62  34
   2  11   6 122606. 2309.31  87
   2  11   7 81209.6 1642.59  87
   2  11   7 81938.7 1550.02  88
   3  -9  -7 13330.2 519.940  77
   3  -9  -7 13559.1 512.241  76
   3  -9  -6 51067.1 1113.96  32
   3  -9  -6 52294.9 1134.22  50
   3  -9  -6 51119.0 1185.48  77
   3  -9  -6 52448.7 1197.44  76
   3  -9  -5 78281.5 1432.79  89
   3  -9  -5 81848.3 1590.90  32
   3  -9  -5 80661.0 1615.02  77
   3  -9  -5 82737.7 1658.75  76
   3  -9  -4 63622.5 1455.04  32
   3  -9  -4 64970.4 1419.04  50
   3  -9  -4 64537.9 1428.61  77
   3  -9  -4 63142.6 1481.81  76
   3  -9  -3 37721.0 1119.09  32
   3  -9  -3 37720.8 1064.54  50
   3  -9  -3 37386.0 1027.82  77
   3  -9  -3 36466.5 1109.34  76
   3  -9  -2 36960.2 1036.09  50
   3  -9  -2 34783.7 902.660  77
   3  -9  -2 37368.3 1098.12  76
   3  -9  -1 46304.8 1123.55  50
   3  -9  -1 47643.0 1190.15  76
   3  -9   0 81577.4 1469.88  76
   3  -8  -9 110811. 1670.75  50
   3  -8  -9 109831. 1603.03  77
   3  -8  -9 112096. 1604.41  76
   3  -8  -8 90974.6 1649.76  93
   3  -8  -8 88969.6 1563.59  84
   3  -8  -8 91560.3 1510.10  32
   3  -8  -8 87138.8 1683.70  50
   3  -8  -8 90114.5 1714.58  77
   3  -8  -8 89796.1 1676.61  76
   3  -8  -7 31091.9 999.882  93
   3  -8  -7 30926.8 945.481  84
   3  -8  -7 32855.4 994.421  32
   3  -8  -7 33189.9 1081.91  50
   3  -8  -7 32129.2 1088.29  77
   3  -8  -7 33454.9 1087.36  76
   3  -8  -6 11647.8 596.558  84
   3  -8  -6 12107.1 664.004  32
   3  -8  -6 11548.4 672.106  50
   3  -8  -6 11912.7 698.904  77
   3  -8  -6 11355.5 674.446  76
   3  -8  -6 12895.9 673.190  93
   3  -8  -5 59619.2 1575.00  93
   3  -8  -5 56193.2 1595.30  32
   3  -8  -5 61987.0 1689.49  50
   3  -8  -5 56786.0 1651.62  77
   3  -8  -5 58356.7 1682.29  76
   3  -8  -4 132504. 2514.79  93
   3  -8  -4 128368. 2623.55  32
   3  -8  -4 131455. 2674.74  50
   3  -8  -4 131235. 2677.71  77
   3  -8  -4 134279. 2746.83  76
   3  -8  -3 109742. 2266.98  38
   3  -8  -3 110522. 2281.31  93
   3  -8  -3 110080. 2446.07  50
   3  -8  -3 108069. 2390.16  77
   3  -8  -3 109409. 2473.04  76
   3  -8  -3 109577. 2385.03  26
   3  -8  -2 126341. 2408.02  38
   3  -8  -2 124665. 2407.74  93
   3  -8  -2 113251. 2428.96  77
   3  -8  -2 119066. 2583.14  50
   3  -8  -2 118683. 2608.94  76
   3  -8  -2 123184. 2581.08  26
   3  -8  -1 19755.6 859.004  38
   3  -8  -1 19241.5 879.832  77
   3  -8  -1 19044.2 962.224  50
   3  -8  -1 19996.9 872.689  93
   3  -8   0 66465.8 1550.17  38
   3  -8   0 66290.9 1565.80  93
   3  -8   1 81425.5 1911.94  50
   3  -8   2 114425. 2122.00  50
   3  -7 -10 23015.1 715.498  93
   3  -7 -10 22068.8 697.703  84
   3  -7 -10 23446.2 729.048  50
   3  -7 -10 21650.5 592.706  76
   3  -7  -9 22149.0 846.685  93
   3  -7  -9 21654.0 828.941  84
   3  -7  -9 21405.6 832.730  50
   3  -7  -9 22089.7 779.224  77
   3  -7  -9 21235.9 767.757  76
   3  -7  -8 105684. 2190.22  93
   3  -7  -8 98140.1 2088.70  84
   3  -7  -8 101450. 1887.17  32
   3  -7  -8 100429. 2144.37  50
   3  -7  -8 98873.4 2089.37  77
   3  -7  -8 97725.6 2047.18  76
   3  -7  -7 101489. 2288.44  93
   3  -7  -7 99638.9 2212.23  84
   3  -7  -7 97477.5 2089.70  32
   3  -7  -7 106125. 2337.85  50
   3  -7  -7 102629. 2311.63  77
   3  -7  -7 95861.7 2204.66  76
   3  -7  -6 58249.0 1688.27  70
   3  -7  -6 59415.4 1693.80  67
   3  -7  -6 60842.5 1788.71  93
   3  -7  -6 60213.5 1732.48  84
   3  -7  -6 59688.4 1701.62  32
   3  -7  -6 62958.4 1844.45  50
   3  -7  -6 61581.6 1840.25  77
   3  -7  -6 61506.4 1813.96  76
   3  -7  -5 65427.2 1826.38  70
   3  -7  -5 69134.0 1967.82  67
   3  -7  -5 70680.9 1988.64  93
   3  -7  -5 68122.1 1864.65  84
   3  -7  -5 69130.7 1945.24  32
   3  -7  -5 72296.2 2049.88  50
   3  -7  -5 69620.8 2031.94  77
   3  -7  -5 69507.5 2022.96  76
   3  -7  -4 91583.9 2112.65  70
   3  -7  -4 95015.7 2343.88  38
   3  -7  -4 95589.7 2362.51  93
   3  -7  -4 90263.5 2209.08  20
   3  -7  -4 91097.3 2178.24  84
   3  -7  -4 96118.7 2457.43  50
   3  -7  -4 88475.7 2352.46  77
   3  -7  -4 93795.5 2425.21  76
   3  -7  -4 93229.1 2318.25  26
   3  -7  -4 95042.5 2430.20  67
   3  -7  -3 115453. 2647.96  93
   3  -7  -3 113000. 2602.95  38
   3  -7  -3 117178. 2459.61  84
   3  -7  -3 115258. 2737.05  67
   3  -7  -3 113389. 2739.94  50
   3  -7  -3 116583. 2697.42  26
   3  -7  -2 178060. 3282.52  69
   3  -7  -2 174874. 3358.84  38
   3  -7  -2 174748. 3392.24  93
   3  -7  -2 174678. 3561.32  50
   3  -7  -2 184009. 3548.93  26
   3  -7  -2 173780. 3483.80  67
   3  -7  -1 79409.6 2201.26  69
   3  -7  -1 78714.6 2127.55  38
   3  -7  -1 81142.7 2206.91  67
   3  -7  -1 77960.4 2150.66  93
   3  -7  -1 81430.5 2274.02  26
   3  -7   0 81845.5 2289.55  69
   3  -7   0 81649.1 2138.28  38
   3  -7   0 80813.4 2068.88  67
   3  -7   0 83168.9 2190.33  93
   3  -7   0 78887.9 2251.07  26
   3  -7   1 53025.5 1824.00  69
   3  -7   1 56417.6 1711.29  38
   3  -7   1 54669.1 1707.66  93
   3  -7   2 67704.5 1824.99  93
   3  -7   2 67376.9 1794.71  38
   3  -7   3 76676.0 1754.42  38
   3  -7   3 73201.9 1744.39  93
   3  -6 -11 58187.8 1161.19  93
   3  -6 -11 55765.6 1069.89  83
   3  -6 -11 57677.2 1161.46  84
   3  -6 -11 57308.5 1143.71  50
   3  -6 -10 64569.3 1519.24  93
   3  -6 -10 64335.6 1520.65  84
   3  -6 -10 61370.7 1396.82  83
   3  -6 -10 64286.2 1501.64  50
   3  -6 -10 62157.2 1277.63  76
   3  -6  -9 13812.1 767.981  93
   3  -6  -9 14597.0 786.398  84
   3  -6  -9 15442.9 760.408  83
   3  -6  -9 14690.4 782.845  50
   3  -6  -9 14049.9 678.990  77
   3  -6  -9 13923.2 691.481  76
   3  -6  -8 104934. 2408.93  93
   3  -6  -8 99112.5 2187.15  83
   3  -6  -8 104290. 2391.48  84
   3  -6  -8 104164. 2051.94  32
   3  -6  -8 108262. 2421.62  50
   3  -6  -8 102833. 2258.14  77
   3  -6  -8 102109. 2241.08  76
   3  -6  -7 142995. 2921.74  70
   3  -6  -7 148807. 3028.49  84
   3  -6  -7 139648. 2697.74  83
   3  -6  -7 140647. 2683.91  32
   3  -6  -7 150969. 3032.75  50
   3  -6  -7 147194. 2959.99  77
   3  -6  -7 142250. 2867.22  76
   3  -6  -7 138029. 2642.55  67
   3  -6  -7 145466. 3011.49  93
   3  -6  -6 130815. 2839.28  70
   3  -6  -6 140577. 2857.63  67
   3  -6  -6 133681. 2891.27  84
   3  -6  -6 143761. 3026.50  93
   3  -6  -6 138788. 2773.09  32
   3  -6  -6 142622. 3016.06  50
   3  -6  -6 142867. 3006.91  77
   3  -6  -6 135561. 2908.28  76
   3  -6  -5 90877.6 2273.75  70
   3  -6  -5 93529.5 2387.00  38
   3  -6  -5 96389.8 2433.76  93
   3  -6  -5 96142.3 2351.70  84
   3  -6  -5 88787.1 2246.16  32
   3  -6  -5 94996.5 2441.90  50
   3  -6  -5 92597.2 2410.01  77
   3  -6  -5 91693.7 2377.64  76
   3  -6  -5 95715.5 2400.53  67
   3  -6  -4 66148.4 1872.57  70
   3  -6  -4 66136.1 1980.91  38
   3  -6  -4 67824.0 2024.33  93
   3  -6  -4 66028.5 1874.78  20
   3  -6  -4 70368.5 1955.35  84
   3  -6  -4 67332.7 2038.59  67
   3  -6  -4 67316.6 2062.38  50
   3  -6  -4 68805.3 2056.64  76
   3  -6  -4 66155.9 1928.35  26
   3  -6  -3 129789. 2632.97  70
   3  -6  -3 131683. 2882.99  38
   3  -6  -3 129313. 2728.13  84
   3  -6  -3 137361. 3055.79  67
   3  -6  -3 125685. 2946.26  50
   3  -6  -3 128440. 2888.22  93
   3  -6  -3 135858. 2916.50  26
   3  -6  -2 179356. 3276.31  69
   3  -6  -2 160968. 3273.36  38
   3  -6  -2 152961. 3272.93  93
   3  -6  -2 159431. 3072.16  84
   3  -6  -2 163088. 3469.58  19
   3  -6  -2 177482. 3550.57  67
   3  -6  -2 175169. 3432.79  26
   3  -6  -1 183980. 3547.39  69
   3  -6  -1 175226. 3447.13  38
   3  -6  -1 167765. 3439.58  93
   3  -6  -1 176398. 3207.21  84
   3  -6  -1 183093. 3301.76  53
   3  -6  -1 182042. 3778.16  19
   3  -6  -1 174806. 3544.18  67
   3  -6   0 68225.6 2149.31  69
   3  -6   0 62224.9 1940.31  67
   3  -6   0 61353.3 1858.42  53
   3  -6   0 61742.7 2142.77  19
   3  -6   1 80345.7 2422.65  69
   3  -6   1 83600.5 2503.70  19
   3  -6   2 27133.2 1367.91  69
   3  -6   2 29133.7 1351.88  16
   3  -6   3 66762.4 2129.53  69
   3  -5 -11 74821.6 1555.68  93
   3  -5 -11 74797.2 1541.99  84
   3  -5 -11 74847.5 1543.92  83
   3  -5 -11 78105.4 1557.23  50
   3  -5 -10 120055. 2368.63  93
   3  -5 -10 120053. 2369.12  84
   3  -5 -10 118573. 2346.90  83
   3  -5 -10 116014. 2315.07  50
   3  -5 -10 117046. 1984.56  76
   3  -5  -9 52261.6 1588.55  70
   3  -5  -9 61349.1 1780.01  84
   3  -5  -9 57602.4 1736.07  93
   3  -5  -9 57425.3 1710.99  83
   3  -5  -9 58278.5 1708.95  50
   3  -5  -9 54120.1 1479.87  76
   3  -5  -8 46577.7 1593.13  70
   3  -5  -8 48944.7 1664.89  84
   3  -5  -8 51597.7 1682.21  83
   3  -5  -8 51323.7 1674.16  50
   3  -5  -8 51927.8 1544.16  77
   3  -5  -8 50843.6 1539.35  76
   3  -5  -8 48694.7 1667.02  93
   3  -5  -7 111165. 2603.44  70
   3  -5  -7 118316. 2720.57  93
   3  -5  -7 118568. 2406.26  67
   3  -5  -7 120290. 2730.09  84
   3  -5  -7 117941. 2646.99  83
   3  -5  -7 115521. 2417.42  53
   3  -5  -7 119024. 2694.77  50
   3  -5  -7 117361. 2563.42  77
   3  -5  -7 115453. 2514.47  76
   3  -5  -6 244583. 4063.47  70
   3  -5  -6 247494. 3919.06  67
   3  -5  -6 242529. 4117.50  93
   3  -5  -6 242833. 4087.88  84
   3  -5  -6 235593. 3891.01  83
   3  -5  -6 244300. 3770.87  53
   3  -5  -6 238492. 3720.69  32
   3  -5  -6 243135. 4082.63  50
   3  -5  -6 243398. 4009.13  77
   3  -5  -5 180442. 3313.90  70
   3  -5  -5 171270. 3319.98  38
   3  -5  -5 174290. 3367.59  93
   3  -5  -5 180837. 3348.07  84
   3  -5  -5 181937. 3107.93  53
   3  -5  -5 186583. 3387.21  67
   3  -5  -5 176169. 3130.44  32
   3  -5  -5 177606. 3373.89  50
   3  -5  -5 176457. 3316.35  77
   3  -5  -5 176151. 3282.03  76
   3  -5  -4 128658. 2671.21  70
   3  -5  -4 119285. 2644.52  38
   3  -5  -4 122295. 2699.90  93
   3  -5  -4 129866. 2790.26  67
   3  -5  -4 119687. 2694.90   3
   3  -5  -4 123182. 2620.67  84
   3  -5  -4 124101. 2475.28  53
   3  -5  -4 114281. 2641.71  50
   3  -5  -4 125635. 2573.31  26
   3  -5  -3 52008.6 1542.92  70
   3  -5  -3 44231.8 1532.79  38
   3  -5  -3 50259.1 1690.64  67
   3  -5  -3 45226.6 1579.37  93
   3  -5  -3 47406.5 1558.99   3
   3  -5  -3 46086.0 1502.80  84
   3  -5  -3 48797.0 1615.76  19
   3  -5  -3 46021.5 1609.05  50
   3  -5  -3 47901.1 1542.10  26
   3  -5  -2 156087. 2701.06  70
   3  -5  -2 149786. 2834.86  69
   3  -5  -2 143073. 2905.12  38
   3  -5  -2 141381. 2940.22  93
   3  -5  -2 133245. 2692.43   3
   3  -5  -2 142533. 3062.51  19
   3  -5  -2 149470. 3098.91  67
   3  -5  -2 150116. 2945.50  26
   3  -5  -1 195149. 3469.37  69
   3  -5  -1 179963. 3471.38  67
   3  -5  -1 169474. 3107.00  84
   3  -5  -1 185296. 3286.44  53
   3  -5  -1 184981. 3666.02  19
   3  -5  -1 177640. 3111.47   6
   3  -5   0 111165. 2671.34  69
   3  -5   0 113879. 2625.77  67
   3  -5   0 113480. 2437.64  84
   3  -5   0 115284. 2884.76  19
   3  -5   1 101577. 2746.76  19
   3  -5   1 103916. 2411.58  67
   3  -5   2 59382.1 2046.16  69
   3  -5   2 49002.0 1864.66  19
   3  -5   3 59609.6 2105.43  69
   3  -5   3 64177.5 2094.41  16
   3  -5   4 155508. 3447.57  69
   3  -5   4 165819. 3521.54  16
   3  -4 -12 21702.3 628.082  93
   3  -4 -12 21583.9 640.527  83
   3  -4 -11 40787.5 1194.40  93
   3  -4 -11 41205.1 1176.43  84
   3  -4 -11 43379.6 1239.98  83
   3  -4 -11 40836.9 1174.54  50
   3  -4 -10 137024. 2684.34  93
   3  -4 -10 137949. 2684.53  84
   3  -4 -10 142217. 2766.51  83
   3  -4 -10 132060. 2616.25  50
   3  -4  -9 178478. 3366.40  93
   3  -4  -9 179663. 3360.41  84
   3  -4  -9 186525. 3476.00  83
   3  -4  -9 180283. 3320.13  50
   3  -4  -9 177168. 2924.54  76
   3  -4  -8 118142. 2666.66  70
   3  -4  -8 117954. 2710.40  93
   3  -4  -8 119200. 2713.65  84
   3  -4  -8 117300. 2755.07  83
   3  -4  -8 118320. 2658.04  50
   3  -4  -8 110486. 2351.41  76
   3  -4  -7 37529.5 1443.92  70
   3  -4  -7 37667.4 1449.94  93
   3  -4  -7 39359.4 1482.50  84
   3  -4  -7 38183.2 1485.80  83
   3  -4  -7 38526.8 1365.59  53
   3  -4  -7 38635.2 1444.77  50
   3  -4  -7 39487.2 1327.76  77
   3  -4  -7 39207.3 1338.85  76
   3  -4  -6 150699. 2978.40  70
   3  -4  -6 145530. 2938.16  93
   3  -4  -6 142453. 2946.83   3
   3  -4  -6 140416. 2890.08  84
   3  -4  -6 142944. 2750.27  53
   3  -4  -6 141726. 2873.72  50
   3  -4  -6 147665. 2785.93  77
   3  -4  -6 136231. 2674.66  76
   3  -4  -6 152739. 2808.56  67
   3  -4  -5 223296. 3642.06  70
   3  -4  -5 222536. 3611.78  67
   3  -4  -4 321346. 4302.04  20
   3  -4  -4 323265. 4642.27  67
   3  -4  -4 317405. 4256.95  26
   3  -4  -3 55478.4 1520.95  70
   3  -4  -3 51021.3 1570.01   3
   3  -4  -3 48377.4 1499.56  19
   3  -4  -3 53819.8 1462.19  26
   3  -4  -2 74349.0 1703.13  70
   3  -4  -2 78306.2 1770.04  69
   3  -4  -2 75398.9 1961.48  67
   3  -4  -2 70199.5 1780.58   3
   3  -4  -2 73067.2 1946.68  19
   3  -4  -2 73626.6 1592.00   6
   3  -4  -1 92752.0 2103.97  69
   3  -4  -1 86558.4 2128.48  67
   3  -4  -1 87842.5 1899.76   3
   3  -4  -1 88219.9 2233.56  19
   3  -4  -1 87900.4 1890.78   6
   3  -4   0 181209. 3250.38  69
   3  -4   0 175482. 2979.81   6
   3  -4   1 258023. 4230.26  69
   3  -4   1 242972. 3828.06  67
   3  -4   1 234497. 4216.59  19
   3  -4   1 257745. 3843.69  30
   3  -4   1 247375. 3932.22   6
   3  -4   1 261958. 3861.68  73
   3  -4   2 214153. 3988.32  69
   3  -4   2 219149. 3699.90  30
   3  -4   2 210153. 3744.91   6
   3  -4   2 221839. 3711.11  73
   3  -4   3 92896.0 2575.77  69
   3  -4   3 96675.1 2453.46  30
   3  -4   3 94327.2 2490.83  16
   3  -4   3 92421.3 2404.66  73
   3  -4   4 64869.7 2167.41  69
   3  -4   4 69402.4 2170.82  30
   3  -4   4 67051.7 2167.05  16
   3  -4   5 185649. 3767.77  30
   3  -4   5 187833. 3789.16  73
   3  -4   5 179439. 3755.57  16
   3  -4   6 110983. 2751.98  30
   3  -4   6 112429. 2767.10  73
   3  -4   8 18044.5 741.049  78
   3  -4   8 17752.4 750.485  48
   3  -3 -12 45391.6 989.817  93
   3  -3 -12 47656.6 1017.05  83
   3  -3 -11 57105.0 1463.44  93
   3  -3 -11 53705.0 1393.24  84
   3  -3 -11 59147.6 1510.66  83
   3  -3 -11 55440.4 1443.84  50
   3  -3 -10 61476.5 1749.49  93
   3  -3 -10 60249.4 1716.93  84
   3  -3 -10 61527.7 1786.55  83
   3  -3 -10 61089.2 1737.42  50
   3  -3  -9 125035. 2696.35  70
   3  -3  -9 131374. 2836.71  93
   3  -3  -9 128034. 2792.94  84
   3  -3  -9 128509. 2778.83  50
   3  -3  -8 262340. 4279.68  70
   3  -3  -8 266566. 4313.56  93
   3  -3  -8 256489. 4244.30  84
   3  -3  -8 278457. 4534.22  83
   3  -3  -8 271119. 4019.55  51
   3  -3  -8 247174. 4173.02  50
   3  -3  -7 76790.6 2072.50  70
   3  -3  -7 76842.9 2059.40  93
   3  -3  -7 79950.1 1865.08  61
   3  -3  -7 78133.4 2069.29  84
   3  -3  -7 77674.3 2137.85  83
   3  -3  -7 78930.3 2018.72  53
   3  -3  -7 73874.7 1993.79  50
   3  -3  -6 76176.7 2015.69  70
   3  -3  -6 77145.3 1755.07  61
   3  -3  -6 81258.3 1879.09  67
   3  -3  -6 75292.8 1744.53  73
   3  -3  -5 101887. 2272.07  70
   3  -3  -5 102819. 1939.87  61
   3  -3  -5 104918. 2195.78  67
   3  -3  -5 96018.1 2236.52   3
   3  -3  -5 99681.2 1958.27  28
   3  -3  -5 97899.4 1932.55  73
   3  -3  -4 251621. 3762.35  70
   3  -3  -4 274197. 3906.90  67
   3  -3  -4 260321. 3332.99  61
   3  -3  -4 245818. 3851.92   3
   3  -3  -4 278840. 3563.37  20
   3  -3  -4 263435. 3451.01  28
   3  -3  -4 258697. 3415.92  73
   3  -3  -3 190496. 3033.85  70
   3  -3  -3 199527. 2645.35  61
   3  -3  -3 206352. 3272.78   3
   3  -3  -3 207227. 2825.46  73
   3  -3  -3 202243. 3250.98  67
   3  -3  -3 193662. 2781.27  26
   3  -3  -2 107224. 1979.27  70
   3  -3  -2 108799. 1939.74  69
   3  -3  -2 104825. 2195.50  67
   3  -3  -2 109911. 2154.28   3
   3  -3  -2 113883. 1801.54   6
   3  -3  -2 108256. 1900.90  73
   3  -3  -1 156632. 2334.54  70
   3  -3  -1 161478. 2653.63  69
   3  -3  -1 150317. 2718.54  67
   3  -3  -1 159540. 2562.71   3
   3  -3  -1 150889. 2806.74  19
   3  -3  -1 153214. 2395.39   6
   3  -3  -1 161275. 2473.92  73
   3  -3   0 116355. 2312.01  69
   3  -3   0 100217. 2143.08  67
   3  -3   0 104915. 2346.13  19
   3  -3   0 114887. 2110.28  30
   3  -3   0 111875. 2090.48   6
   3  -3   0 112792. 2093.74  73
   3  -3   1 351167. 4791.44  69
   3  -3   1 330402. 4381.97  67
   3  -3   1 322792. 4800.24  19
   3  -3   1 339823. 4471.84  30
   3  -3   1 342581. 4504.49   6
   3  -3   1 342427. 4479.38  73
   3  -3   2 246324. 4029.94  69
   3  -3   2 238784. 3985.08  19
   3  -3   2 238015. 3772.53  30
   3  -3   2 241094. 3799.59   6
   3  -3   2 236512. 3772.22  73
   3  -3   3 317181. 4922.82  69
   3  -3   3 308619. 4940.40  13
   3  -3   3 306670. 4852.60  66
   3  -3   3 319082. 4801.41  30
   3  -3   3 322634. 4810.58  16
   3  -3   3 303223. 4703.76   6
   3  -3   3 315845. 4787.44  73
   3  -3   4 66405.9 2077.73  69
   3  -3   4 60627.4 2071.97  13
   3  -3   4 61498.1 2037.73  66
   3  -3   4 59715.9 1986.20  30
   3  -3   4 61396.8 1966.12  16
   3  -3   4 62631.6 1992.96   6
   3  -3   4 60509.8 2005.50  73
   3  -3   5 74660.0 2244.22  69
   3  -3   5 82834.5 2560.30  13
   3  -3   5 82162.4 2502.10  66
   3  -3   5 84087.9 2505.66  30
   3  -3   5 81575.8 2396.88  16
   3  -3   5 80507.7 2471.80  73
   3  -3   6 84875.1 2289.20  69
   3  -3   6 94724.5 2790.79  13
   3  -3   6 97213.6 2761.60  66
   3  -3   6 96409.1 2768.06  30
   3  -3   6 93880.3 2752.31  73
   3  -3   6 88200.7 2534.07  16
   3  -3   7 97525.5 2713.09  30
   3  -3   7 95613.6 2701.89  73
   3  -3   9 10156.2 606.033  78
   3  -2 -11 110526. 2146.77  93
   3  -2 -11 116010. 2178.42  83
   3  -2 -11 113181. 2179.95  50
   3  -2 -10 35686.2 1320.09  93
   3  -2 -10 36360.5 1287.94  84
   3  -2 -10 36724.4 1352.86  83
   3  -2 -10 36585.0 1192.67  51
   3  -2 -10 35294.8 1310.78  50
   3  -2  -9 51195.5 1625.86  70
   3  -2  -9 48126.9 1646.90  93
   3  -2  -9 48076.5 1468.04  21
   3  -2  -9 52158.4 1663.71  84
   3  -2  -9 54698.5 1792.34  83
   3  -2  -9 55061.2 1618.03  51
   3  -2  -9 51619.6 1698.44  50
   3  -2  -8 182104. 3412.52  70
   3  -2  -8 169916. 3295.97  93
   3  -2  -8 165147. 3005.54  21
   3  -2  -8 175039. 3279.66  84
   3  -2  -8 184322. 3507.11  83
   3  -2  -8 182586. 3122.13  78
   3  -2  -8 183373. 3238.25  51
   3  -2  -8 174042. 3312.03  50
   3  -2  -7 243538. 3985.39  70
   3  -2  -7 247871. 3724.62  61
   3  -2  -7 221510. 3501.46  21
   3  -2  -7 234330. 3759.99  84
   3  -2  -7 230070. 3754.17  53
   3  -2  -7 245555. 4017.60  83
   3  -2  -7 223147. 3623.72  51
   3  -2  -7 215714. 3665.12  50
   3  -2  -7 231947. 3773.81  93
   3  -2  -6 90708.5 2195.17  70
   3  -2  -6 96968.0 2050.04  61
   3  -2  -6 88798.8 1926.19  67
   3  -2  -6 90304.7 1957.09  21
   3  -2  -6 92671.0 2025.70  73
   3  -2  -5 48763.2 1492.05  70
   3  -2  -5 47456.4 1301.65  61
   3  -2  -5 47772.2 1287.81  21
   3  -2  -5 49710.4 1486.07   3
   3  -2  -5 48724.7 1381.90  67
   3  -2  -5 49219.6 1335.48  28
   3  -2  -5 49659.2 1333.01  73
   3  -2  -4 179271. 2905.93  70
   3  -2  -4 169967. 2586.69  61
   3  -2  -4 179300. 2849.37  67
   3  -2  -4 174387. 2625.32  28
   3  -2  -4 173685. 2606.68  73
   3  -2  -3 223877. 3185.94  70
   3  -2  -3 222844. 2917.05  61
   3  -2  -3 220452. 3085.58  20
   3  -2  -3 214353. 3256.43   3
   3  -2  -3 222794. 2970.47  73
   3  -2  -2 459297. 5010.78  70
   3  -2  -2 450217. 4790.66  69
   3  -2  -2 437604. 4800.79  61
   3  -2  -2 452297. 5300.08  67
   3  -2  -2 451442. 5219.89   3
   3  -2  -2 466047. 4509.75   6
   3  -2  -2 459196. 4921.10  73
   3  -2  -1 281847. 3263.02  70
   3  -2  -1 278372. 3498.38  69
   3  -2  -1 255062. 3210.37  61
   3  -2  -1 284247. 3518.13   3
   3  -2  -1 240566. 3608.20  19
   3  -2  -1 263918. 3623.91  67
   3  -2  -1 282402. 3217.43   6
   3  -2  -1 279524. 3416.27  73
   3  -2   0 179696. 2767.69  69
   3  -2   0 182842. 2544.00  61
   3  -2   0 162354. 2835.49  19
   3  -2   0 168466. 2676.40  67
   3  -2   0 178172. 2625.88  30
   3  -2   0 184061. 2574.29   6
   3  -2   0 180113. 2638.24  73
   3  -2   1 228704. 3516.45  19
   3  -2   1 228098. 3241.72  30
   3  -2   1 220641. 3100.94  67
   3  -2   1 226446. 3208.83   6
   3  -2   1 228774. 3252.52  73
   3  -2   2 132306. 2583.95  69
   3  -2   2 130189. 2546.43  13
   3  -2   2 134710. 2519.29  66
   3  -2   2 129461. 2531.46  19
   3  -2   2 123176. 2387.69  30
   3  -2   2 138631. 2484.59   6
   3  -2   2 118393. 2357.71  73
   3  -2   3 331186. 4853.01  69
   3  -2   3 347180. 4924.62  13
   3  -2   3 349737. 4843.96  66
   3  -2   3 338060. 4768.52  30
   3  -2   3 346741. 4744.28  16
   3  -2   3 337147. 4729.33   6
   3  -2   3 337574. 4783.28  73
   3  -2   4 198529. 3633.68  69
   3  -2   4 215037. 3762.92  66
   3  -2   4 213790. 3820.59  13
   3  -2   4 198688. 3706.47  30
   3  -2   4 216272. 3740.49  16
   3  -2   4 199725. 3638.81   6
   3  -2   4 198589. 3702.76  73
   3  -2   5 50981.9 1742.66  69
   3  -2   5 54750.6 1906.84  66
   3  -2   5 51353.2 1622.62  58
   3  -2   5 55116.0 1958.56  13
   3  -2   5 51814.5 1891.23  30
   3  -2   5 52877.8 1918.60  73
   3  -2   5 54160.2 1838.89  16
   3  -2   5 50913.5 1799.59   6
   3  -2   6 30431.5 1307.37  69
   3  -2   6 32610.1 1529.96  66
   3  -2   6 32981.4 1574.30  13
   3  -2   6 31441.4 1552.08  30
   3  -2   6 31677.7 1560.39  73
   3  -2   6 31273.7 1442.81  16
   3  -2   7 49941.8 1977.53  13
   3  -2   7 50223.7 1940.77  66
   3  -2   7 52915.9 2066.99  30
   3  -2   7 53133.2 2080.47  73
   3  -2   8 111829. 2960.75  30
   3  -2   8 109643. 2955.95  73
   3  -2   9 69094.1 1781.38  90
   3  -2   9 69795.5 1794.40  57
   3  -1 -11 85254.1 1777.61  93
   3  -1 -11 87639.8 1666.96  51
   3  -1 -10 119218. 2517.57  93
   3  -1 -10 121715. 2412.71  84
   3  -1 -10 127580. 2548.21  83
   3  -1 -10 122108. 2576.40  50
   3  -1  -9 30830.5 1216.29  70
   3  -1  -9 30375.9 1272.99  93
   3  -1  -9 28909.1 1189.97  21
   3  -1  -9 30420.2 1220.08  84
   3  -1  -9 33737.1 1340.93  83
   3  -1  -9 33611.9 1285.94  51
   3  -1  -9 30539.2 1286.83  50
   3  -1  -8 58864.8 1805.21  70
   3  -1  -8 52708.7 1692.21  93
   3  -1  -8 52882.2 1659.88  21
   3  -1  -8 56763.4 1689.30  84
   3  -1  -8 59929.1 1828.02  83
   3  -1  -8 55905.8 1686.65  78
   3  -1  -8 58366.4 1734.82  51
   3  -1  -8 54370.3 1723.42  50
   3  -1  -7 208570. 3629.69  70
   3  -1  -7 186505. 3287.63  93
   3  -1  -7 206185. 3397.05  61
   3  -1  -7 178093. 3214.14  21
   3  -1  -7 187628. 3214.93  84
   3  -1  -7 207935. 3526.65  83
   3  -1  -7 202745. 3323.34  78
   3  -1  -7 198391. 3360.07  51
   3  -1  -7 186967. 3293.50  50
   3  -1  -6 172384. 3138.98  70
   3  -1  -6 167980. 2881.43  61
   3  -1  -6 168345. 2911.07  73
   3  -1  -5 160679. 2891.65  70
   3  -1  -5 168705. 2721.45  61
   3  -1  -5 155855. 2597.56  21
   3  -1  -5 165262. 2649.40  67
   3  -1  -5 162016. 2681.19  73
   3  -1  -4 255486. 3628.85  70
   3  -1  -4 269739. 2886.37  62
   3  -1  -4 255714. 3399.91  61
   3  -1  -4 237966. 3271.98  21
   3  -1  -4 269422. 3538.93  67
   3  -1  -4 255058. 3385.46  28
   3  -1  -4 241826. 3321.83  73
   3  -1  -3 192313. 2827.74  70
   3  -1  -3 182331. 2107.46  62
   3  -1  -3 184170. 2631.94  61
   3  -1  -3 182478. 2581.09  21
   3  -1  -3 175975. 2774.76   3
   3  -1  -3 206559. 2881.95  67
   3  -1  -3 188052. 2620.55  28
   3  -1  -3 189453. 2612.00  73
   3  -1  -3 203438. 2622.31  20
   3  -1  -2 662700. 6543.74  20
   3  -1  -2 650536. 6647.59  67
   3  -1  -1 265599. 3199.01  69
   3  -1  -1 260000. 3219.94  61
   3  -1  -1 255646. 3422.68  20
   3  -1  -1 266387. 3370.11  67
   3  -1  -1 263512. 2865.04   6
   3  -1   0 239482. 3251.51  69
   3  -1   0 263338. 3285.83  61
   3  -1   0 239454. 3138.12  67
   3  -1   0 266832. 3061.26   6
   3  -1   1 206836. 3057.33  69
   3  -1   1 203547. 2852.62  30
   3  -1   1 223239. 2917.97   6
   3  -1   1 204538. 2861.22  73
   3  -1   1 219367. 2741.13  67
   3  -1   2 184414. 2940.74  69
   3  -1   2 164655. 2682.97  13
   3  -1   2 164408. 2637.12  66
   3  -1   2 163374. 2645.99  30
   3  -1   2 187216. 2787.14  16
   3  -1   2 199278. 2858.87   6
   3  -1   2 161001. 2644.41  73
   3  -1   3 74870.6 1841.40  69
   3  -1   3 69621.3 1684.56  66
   3  -1   3 70225.2 1716.88  13
   3  -1   3 71107.3 1620.44  20
   3  -1   3 67603.7 1705.59  30
   3  -1   3 71970.4 1741.59  16
   3  -1   3 74030.2 1790.04   6
   3  -1   3 66503.4 1697.37  73
   3  -1   4 167916. 3064.98  69
   3  -1   4 172236. 3112.84  13
   3  -1   4 171884. 3059.96  66
   3  -1   4 172974. 3231.51  12
   3  -1   4 167092. 3139.95  30
   3  -1   4 170812. 3085.23  16
   3  -1   4 168514. 3154.90  73
   3  -1   4 170274. 3104.59   6
   3  -1   5 115574. 2544.41  69
   3  -1   5 119420. 2755.29  13
   3  -1   5 119473. 2710.41  66
   3  -1   5 124890. 2934.34  12
   3  -1   5 125982. 2528.42  58
   3  -1   5 122144. 2849.62  30
   3  -1   5 121985. 2849.92  73
   3  -1   5 117882. 2677.08  16
   3  -1   5 118406. 2726.83   6
   3  -1   6 22157.4 1050.46  69
   3  -1   6 29376.6 1401.92  13
   3  -1   6 28708.7 1353.01  66
   3  -1   6 26375.0 1388.07  12
   3  -1   6 24035.9 1119.28  58
   3  -1   6 24661.0 1317.14  30
   3  -1   6 24612.6 1317.21  73
   3  -1   6 22608.3 1173.69  16
   3  -1   7 182317. 3834.45  66
   3  -1   7 184299. 3943.36  13
   3  -1   7 180172. 4010.20  30
   3  -1   7 180178. 4002.39  73
   3  -1   8 96950.2 2568.10  22
   3  -1   8 98204.4 2874.91  30
   3  -1   8 97416.6 2876.20  73
   3  -1   8 95138.5 2563.61  71
   3  -1   9 168443. 3621.18  30
   3  -1   9 165637. 3620.16  73
   3  -1  10 74725.3 1852.59  90
   3  -1  10 75118.9 1858.14  57
   3   0 -11 45017.9 1142.53  51
   3   0 -10 164122. 2916.39  93
   3   0 -10 174382. 2987.28  51
   3   0  -9 45243.0 1527.70  93
   3   0  -9 41855.5 1491.21  21
   3   0  -9 45509.0 1547.47  51
   3   0  -9 43341.3 1541.91  50
   3   0  -8 37585.4 1402.79  70
   3   0  -8 37949.9 1389.71  93
   3   0  -8 34830.6 1371.30  21
   3   0  -8 39103.6 1390.90  83
   3   0  -8 37149.7 1401.15  51
   3   0  -8 34597.8 1367.05  50
   3   0  -7 142271. 2907.70  70
   3   0  -7 132069. 2631.48  93
   3   0  -7 150743. 2836.59  61
   3   0  -7 125810. 2693.05  21
   3   0  -7 145506. 2761.15  83
   3   0  -7 138255. 2753.75  78
   3   0  -7 138414. 2776.19  51
   3   0  -7 136384. 2712.93  50
   3   0  -6 317844. 4654.22  70
   3   0  -6 331094. 4447.57  61
   3   0  -6 332331. 4085.19  62
   3   0  -6 327065. 4552.62  73
   3   0  -5 384036. 5049.27  70
   3   0  -5 386317. 4633.54  67
   3   0  -5 387215. 4427.24  62
   3   0  -5 383014. 4812.90  21
   3   0  -5 380484. 4828.24  73
   3   0  -4 168466. 2815.82  70
   3   0  -4 182786. 2686.12  21
   3   0  -4 178055. 2671.25  67
   3   0  -4 188258. 2733.92  61
   3   0  -4 170587. 2350.47  62
   3   0  -4 179596. 2699.48  28
   3   0  -4 180817. 2696.78  73
   3   0  -3 163036. 2569.27  70
   3   0  -3 175733. 2577.12  67
   3   0  -3 188395. 2610.01  61
   3   0  -3 188822. 2529.59  21
   3   0  -3 178947. 2305.85  20
   3   0  -3 174422. 2500.25  28
   3   0  -3 175187. 2221.09  62
   3   0  -3 173952. 2484.13  73
   3   0  -2 148892. 2157.05  70
   3   0  -2 147170. 2202.40  67
   3   0  -2 154127. 2125.77  21
   3   0  -2 148970. 2113.57  20
   3   0  -2 150116. 2198.64  61
   3   0  -1 897433. 8306.20  20
   3   0  -1 853366. 8180.07  67
   3   0   0 154112. 2313.32  20
   3   0   0 157577. 2065.86   6
   3   0   1 134757. 2119.07  20
   3   0   1 133686. 2019.89  16
   3   0   1 138308. 2068.10   6
   3   0   2 73410.5 1613.03  69
   3   0   2 69689.5 1425.02  13
   3   0   2 68213.1 1382.74  66
   3   0   2 70884.9 1452.71  20
   3   0   2 68801.5 1440.68  30
   3   0   2 76130.0 1570.95  16
   3   0   2 69589.7 1456.47  73
   3   0   2 74467.5 1566.49   6
   3   0   3 6494.50 476.277  69
   3   0   3 4547.36 368.651  13
   3   0   3 4871.84 373.507  66
   3   0   3 5089.75 356.230  20
   3   0   3 5687.49 430.524  30
   3   0   3 5523.75 421.248  73
   3   0   3 4887.95 410.049  16
   3   0   3 5012.10 423.487   6
   3   0   4 168622. 2851.61  69
   3   0   4 164892. 2800.67  13
   3   0   4 166459. 2757.47  66
   3   0   4 173808. 3040.93  12
   3   0   4 163111. 2882.42  30
   3   0   4 159483. 2873.35  73
   3   0   4 165097. 2904.57  16
   3   0   4 163575. 2954.78   6
   3   0   5 423906. 5388.47  69
   3   0   5 441672. 5685.09  13
   3   0   5 445752. 5612.85  66
   3   0   5 414779. 5839.29  12
   3   0   5 454042. 5430.88  58
   3   0   5 415479. 5656.46  16
   3   0   6 168291. 2965.61  69
   3   0   6 163294. 3314.41  13
   3   0   6 161469. 3252.55  66
   3   0   6 173457. 3555.84   4
   3   0   6 179603. 3649.35  12
   3   0   6 167938. 3107.38  58
   3   0   6 170123. 3509.77  30
   3   0   6 172058. 3536.54  73
   3   0   7 125537. 3004.42  13
   3   0   7 122517. 2924.41  66
   3   0   7 122391. 3166.07  12
   3   0   7 123332. 3155.02  30
   3   0   7 125695. 3178.53  73
   3   0   8 100238. 2619.52  22
   3   0   8 98078.9 2698.38  13
   3   0   8 98663.4 2649.93  66
   3   0   8 96415.9 2523.99  33
   3   0   8 102018. 2928.79  30
   3   0   8 101660. 2923.02  73
   3   0   8 99548.4 2604.81  71
   3   0   9 100405. 2564.60  22
   3   0   9 95123.9 2412.53  33
   3   0   9 101412. 2816.08  30
   3   0   9 98830.0 2802.69  73
   3   0   9 99499.6 2568.97  71
   3   0  10 150797. 2715.85  33
   3   0  11 79823.8 1757.60  57
   3   0  11 81172.7 1766.67  90
   3   1 -11 26335.9 826.466  51
   3   1 -10 99624.0 2130.06  51
   3   1  -9 171694. 3285.89  21
   3   1  -9 195706. 3429.19  51
   3   1  -8 135162. 2903.31  21
   3   1  -8 138773. 2894.62  51
   3   1  -7 67973.3 1905.69  70
   3   1  -7 74759.4 1938.88  61
   3   1  -7 72173.1 2006.78  21
   3   1  -7 69680.6 1718.26  79
   3   1  -7 64100.7 1870.43  78
   3   1  -7 67233.3 1903.14  51
   3   1  -7 64242.3 1794.56  50
   3   1  -7 65206.1 1627.77  44
   3   1  -6 172119. 3172.98  70
   3   1  -6 185089. 2960.54  62
   3   1  -6 185380. 3097.78  61
   3   1  -6 175017. 3176.03  21
   3   1  -5 279448. 4070.73  70
   3   1  -5 273033. 3634.88  67
   3   1  -5 296793. 3943.38  61
   3   1  -5 285612. 3996.49  21
   3   1  -5 288687. 3731.64  62
   3   1  -5 288408. 4001.54  73
   3   1  -4 481055. 5727.82  70
   3   1  -4 507780. 5518.43  67
   3   1  -4 527630. 5663.99  61
   3   1  -4 545546. 5773.81  21
   3   1  -4 499147. 5378.59  62
   3   1  -4 499531. 5640.77  73
   3   1  -3 302368. 3797.18  70
   3   1  -3 312814. 3280.08   1
   3   1  -3 285602. 3635.43  67
   3   1  -3 317395. 3553.86  62
   3   1  -3 315870. 3734.80  61
   3   1  -3 327425. 3745.11  21
   3   1  -3 296752. 3365.91  20
   3   1  -3 306550. 3705.78  28
   3   1  -3 310749. 3705.42  73
   3   1  -2 12170.7 534.957  70
   3   1  -2 10361.8 506.780  67
   3   1  -2 6764.70 413.397  61
   3   1  -2 14680.4 557.620  21
   3   1  -2 9301.18 442.310  20
   3   1  -2 13850.6 394.924   1
   3   1  -2 8735.10 403.433  62
   3   1  -1 316283. 3576.42  67
   3   1  -1 309465. 3467.30  62
   3   1  -1 339197. 3778.42  61
   3   1  -1 339814. 3023.84   4
   3   1   0 43755.2 675.243   1
   3   1   0 43017.3 885.007   4
   3   1   1 222754. 2891.14  69
   3   1   1 226320. 2920.80   4
   3   1   2 364820. 3826.91  13
   3   1   2 360660. 3773.01  66
   3   1   2 351443. 4308.24   4
   3   1   2 352723. 3834.49  20
   3   1   3 225332. 3166.83  69
   3   1   3 232430. 2930.03  13
   3   1   3 225336. 3411.83   4
   3   1   3 232060. 2890.91  66
   3   1   3 222787. 2713.63  20
   3   1   3 229570. 3067.05  30
   3   1   3 231521. 3094.76  73
   3   1   4 67609.6 1578.77  69
   3   1   4 64917.8 1472.72  13
   3   1   4 63223.7 1434.08  66
   3   1   4 68435.5 1814.73   4
   3   1   4 66433.4 1660.18  12
   3   1   4 60717.0 1391.98  58
   3   1   4 66601.6 1597.81  30
   3   1   4 67541.6 1613.46  73
   3   1   5 248292. 3521.77  69
   3   1   5 250561. 3573.01  66
   3   1   5 252659. 3642.42  13
   3   1   5 245302. 3922.80  12
   3   1   5 250205. 3527.72  58
   3   1   6 396308. 4910.18  69
   3   1   6 398571. 5292.48  66
   3   1   6 398685. 5364.45  13
   3   1   6 418070. 5839.80  12
   3   1   6 379464. 5691.93   4
   3   1   6 413508. 5300.38  58
   3   1   7 125272. 2756.51  22
   3   1   7 129648. 2859.99  13
   3   1   7 128535. 2795.60  66
   3   1   7 132324. 3148.03  12
   3   1   7 117425. 2896.82   4
   3   1   7 121282. 2717.88  36
   3   1   7 126032. 2681.41  82
   3   1   7 130554. 2788.30  58
   3   1   7 124012. 2748.18  71
   3   1   8 227289. 4172.38  22
   3   1   8 252888. 4345.17  13
   3   1   8 246373. 4227.05  66
   3   1   8 226871. 4085.59  36
   3   1   8 240765. 4075.17  82
   3   1   8 246325. 4655.11  30
   3   1   8 247851. 4682.68  73
   3   1   8 223318. 4161.90  71
   3   1   9 21675.3 1164.95  22
   3   1   9 23098.5 1135.15  36
   3   1   9 22160.7 1220.23  33
   3   1   9 23543.4 1311.16  30
   3   1   9 23827.5 1329.63  73
   3   1   9 18933.4 1098.17  71
   3   1  10 79242.9 2183.95  33
   3   1  10 83934.2 2314.84  30
   3   1  10 83751.3 2326.31  73
   3   1  11 83559.3 1824.70  33
   3   2 -11 25288.2 726.749  51
   3   2 -10 51688.0 1408.11  51
   3   2  -9 137020. 2456.12  41
   3   2  -9 141514. 2823.24  51
   3   2  -8 235894. 4078.69  21
   3   2  -8 243310. 4070.22  51
   3   2  -7 120849. 2729.43  21
   3   2  -7 119843. 2681.49  51
   3   2  -7 126061. 2518.28  44
   3   2  -6 156814. 2822.23  62
   3   2  -6 155475. 2790.16  61
   3   2  -5 74733.3 1726.23  62
   3   2  -5 74699.4 1731.17  61
   3   2  -4 293624. 4047.54  70
   3   2  -4 319076. 3902.23  67
   3   2  -4 321898. 3988.04  61
   3   2  -4 307924. 4063.25  21
   3   2  -4 311928. 3857.50   1
   3   2  -4 325383. 3988.59  62
   3   2  -4 304541. 4024.14  73
   3   2  -3 168318. 2589.97  70
   3   2  -3 172428. 2520.09  67
   3   2  -3 173184. 2505.32  61
   3   2  -3 172204. 2483.79  62
   3   2  -3 180306. 2335.86  20
   3   2  -3 167092. 2339.29   1
   3   2  -3 162916. 2490.14  73
   3   2  -2 54710.1 1195.72  70
   3   2  -2 50676.2 1157.57  67
   3   2  -2 50204.3 1131.32  61
   3   2  -2 57721.1 1173.95  21
   3   2  -2 55930.8 1161.94  62
   3   2  -2 52202.3 1101.57  20
   3   2  -2 55379.6 1041.99   1
   3   2  -1 93408.5 1550.89  67
   3   2  -1 104520. 1670.16  61
   3   2  -1 110259. 1562.60  21
   3   2  -1 91240.5 1541.75  20
   3   2  -1 91953.8 1551.17  62
   3   2  -1 96759.8 1374.63   1
   3   2   0 272801. 2754.06   1
   3   2   0 268346. 3127.46  61
   3   2   0 243516. 2766.36   4
   3   2   1 296092. 3434.03  69
   3   2   1 295203. 3468.06   4
   3   2   1 302669. 3322.02  20
   3   2   2 260890. 3278.15  69
   3   2   2 264390. 3522.40   4
   3   2   3 594547. 6556.35  69
   3   2   3 676937. 6140.65  66
   3   2   3 600814. 6998.93   4
   3   2   3 689120. 6169.43  20
   3   2   3 667576. 6174.36  13
   3   2   4 119865. 1981.76  58
   3   2   4 120823. 2075.18  69
   3   2   4 115312. 1851.07  13
   3   2   4 119797. 1840.86  66
   3   2   4 118020. 2082.12  30
   3   2   4 117363. 2083.73  73
   3   2   5 213669. 3109.30  69
   3   2   5 229520. 3203.51  22
   3   2   5 234326. 3284.53  58
   3   2   5 215805. 3029.78  66
   3   2   5 220538. 3100.16  13
   3   2   5 220717. 3492.78  12
   3   2   5 218069. 3701.47   4
   3   2   5 227805. 3199.99  71
   3   2   6 273518. 3987.58  22
   3   2   6 270107. 3812.85  66
   3   2   6 279072. 4359.26  12
   3   2   6 269625. 4435.96   4
   3   2   6 283640. 4045.96  58
   3   2   6 278329. 4021.78  71
   3   2   7 153172. 3032.19  22
   3   2   7 159299. 3337.24  12
   3   2   7 151825. 3257.44   4
   3   2   7 142225. 3125.78  36
   3   2   7 150151. 3083.18  82
   3   2   7 152537. 3007.46  58
   3   2   7 151094. 3028.65  71
   3   2   8 124624. 2889.99  22
   3   2   8 123505. 2900.34  82
   3   2   8 127535. 3068.68  30
   3   2   8 127981. 3093.85  73
   3   2   8 125034. 2901.78  71
   3   2   9 36452.4 1525.77  22
   3   2   9 36958.6 1537.24  82
   3   2   9 35584.8 1628.63  33
   3   2   9 34912.2 1533.50  36
   3   2   9 37037.6 1602.04  30
   3   2   9 38130.5 1634.09  73
   3   2   9 35634.9 1520.25  71
   3   2  10 23722.2 1147.47  36
   3   2  10 22648.6 1112.91  82
   3   2  10 22695.9 1208.89  33
   3   2  11 78486.4 1761.10  82
   3   2  11 78468.7 2003.13  33
   3   2  12 88405.2 1661.41  90
   3   2  12 88627.3 1664.04  57
   3   3 -10 56409.3 1167.90  41
   3   3 -10 56309.6 1349.60  51
   3   3  -9 43979.1 1284.47  41
   3   3  -9 44998.8 1436.41  51
   3   3  -8 169002. 3019.77  41
   3   3  -8 172751. 3269.53  51
   3   3  -7 188943. 3220.25  42
   3   3  -7 188834. 3572.26  21
   3   3  -7 180420. 3388.64  79
   3   3  -7 183065. 3470.63  51
   3   3  -7 192140. 3381.86  44
   3   3  -6 84094.2 1984.11  42
   3   3  -6 94134.1 2198.47  62
   3   3  -6 95445.0 2049.61  61
   3   3  -6 86490.8 2251.12  21
   3   3  -6 90337.7 2035.44  80
   3   3  -6 88362.2 2162.34  79
   3   3  -6 80442.7 2113.90  51
   3   3  -6 88040.7 2102.99  44
   3   3  -5 21002.0 941.032  62
   3   3  -5 22311.8 897.696  61
   3   3  -5 20013.7 965.864  21
   3   3  -4 58360.1 1491.46  62
   3   3  -4 58114.2 1394.08  61
   3   3  -4 55391.8 1498.02  21
   3   3  -4 55972.6 1465.00   1
   3   3  -3 331054. 3904.99  61
   3   3  -3 341147. 4099.47  21
   3   3  -3 334761. 4092.88  62
   3   3  -2 260944. 2999.56  69
   3   3  -2 263934. 3155.49  61
   3   3  -2 267277. 3192.66  21
   3   3  -2 255440. 3297.03  62
   3   3  -1 183176. 2396.15  69
   3   3  -1 177241. 2503.27  62
   3   3  -1 185234. 2421.31  61
   3   3  -1 199722. 2371.50  21
   3   3  -1 192431. 2577.12  20
   3   3  -1 190354. 2453.68   1
   3   3   0 68251.4 1305.37  69
   3   3   0 72371.1 1392.26  62
   3   3   0 71774.5 1327.95  61
   3   3   0 72050.9 1300.32   1
   3   3   0 71868.8 1367.42  20
   3   3   0 68873.8 1250.19   4
   3   3   1 330382. 3803.50  69
   3   3   1 342877. 3832.72   1
   3   3   1 338436. 3172.14  58
   3   3   1 331846. 3839.72   4
   3   3   1 343751. 3761.70  20
   3   3   2 392376. 4372.94  69
   3   3   2 400142. 3904.65  58
   3   3   2 394299. 4148.42  20
   3   3   3 766334. 7578.52  69
   3   3   3 771256. 7141.76  20
   3   3   4 390468. 4465.61  69
   3   3   4 382457. 5052.14   4
   3   3   5 65866.3 1472.01  69
   3   3   5 66210.5 1567.67  22
   3   3   5 64327.8 1832.24   4
   3   3   5 65749.1 1547.23  58
   3   3   5 65411.0 1569.71  71
   3   3   6 19720.4 1040.77   4
   3   3   6 19725.8 909.546  58
   3   3   6 21775.6 980.059  71
   3   3   6 22150.3 982.304  22
   3   3   7 96190.2 2605.14  36
   3   3   7 106211. 2612.91   4
   3   3   7 102398. 2390.71  58
   3   3   7 95590.5 2476.41  82
   3   3   7 103698. 2456.24  22
   3   3   7 104969. 2490.92  71
   3   3   8 143287. 2952.54  43
   3   3   8 142235. 3398.18  36
   3   3   8 139438. 3225.00  82
   3   3   8 149136. 3184.70  22
   3   3   8 137922. 3026.87  47
   3   3   8 146452. 3181.81  71
   3   3   9 135104. 3295.77  36
   3   3   9 132339. 3170.66  82
   3   3   9 139608. 3412.39  33
   3   3   9 128406. 3028.82  71
   3   3  10 42188.1 1637.18  82
   3   3  10 44368.3 1704.09  36
   3   3  10 42442.7 1733.77  33
   3   3  10 42156.7 1558.30  71
   3   3  11 15140.3 832.811  82
   3   3  11 14089.0 802.298  36
   3   3  11 13566.5 845.320  33
   3   3  12 94581.0 1769.43  57
   3   3  12 97372.0 1858.88  33
   3   3  12 92359.3 1743.61  90
   3   4 -10 69085.2 1280.49  51
   3   4  -9 30542.9 992.650  41
   3   4  -9 31458.1 1077.23  51
   3   4  -8 15464.2 821.185  41
   3   4  -8 15736.2 868.585  51
   3   4  -7 100609. 2200.48  42
   3   4  -7 94373.6 2378.69  21
   3   4  -7 102615. 2231.05  80
   3   4  -7 97849.6 2392.41  51
   3   4  -6 157374. 2875.92  42
   3   4  -6 158878. 3172.74  21
   3   4  -6 157676. 2952.85  80
   3   4  -6 152004. 3104.08  79
   3   4  -6 149341. 2999.72  51
   3   4  -6 148107. 2997.05  44
   3   4  -5 114695. 2315.42  42
   3   4  -5 113758. 2545.44  96
   3   4  -5 119931. 2601.90  21
   3   4  -5 124502. 2372.40  55
   3   4  -5 114038. 2434.11  80
   3   4  -5 119099. 2577.58  79
   3   4  -5 118534. 2610.42   1
   3   4  -5 118241. 2459.71  51
   3   4  -5 127376. 2585.53  62
   3   4  -5 117604. 2502.04  44
   3   4  -4 49525.5 1516.01   1
   3   4  -4 51777.0 1500.00  62
   3   4  -4 50218.4 1481.70  21
   3   4  -3 74154.7 1766.51   1
   3   4  -3 82036.9 1813.85  62
   3   4  -2 232848. 3299.00  62
   3   4  -2 252523. 2966.38  61
   3   4  -2 257750. 3151.14  21
   3   4  -2 223557. 3271.88   1
   3   4  -1 494504. 5336.43  69
   3   4  -1 508123. 4985.43  61
   3   4  -1 501121. 5419.94  62
   3   4  -1 493805. 5433.38   1
   3   4   0 339396. 4031.31   1
   3   4   0 337714. 3994.98  62
   3   4   1 408859. 4665.91  69
   3   4   1 405293. 4712.52   1
   3   4   1 391976. 4611.08  62
   3   4   1 409193. 4703.42   4
   3   4   2 144651. 2451.50   1
   3   4   2 148414. 2310.41  69
   3   4   2 138381. 1784.35  58
   3   4   2 142187. 2417.43   4
   3   4   3 74660.5 1575.55  69
   3   4   3 74949.1 1359.25  58
   3   4   3 71069.3 1745.86   4
   3   4   4 234469. 3220.82  69
   3   4   4 236735. 3730.38   4
   3   4   4 236400. 3137.72  58
   3   4   5 242530. 3348.15  69
   3   4   5 243845. 3979.15   4
   3   4   6 86988.8 2033.21  58
   3   4   6 94617.5 2384.29   4
   3   4   7 40898.7 1538.87  43
   3   4   7 37231.3 1632.64  36
   3   4   7 41830.2 1475.25  58
   3   4   7 39062.6 1538.12   4
   3   4   7 38908.3 1571.98  82
   3   4   7 35907.4 1477.06  47
   3   4   7 42258.5 1553.53  71
   3   4   8 78176.9 2255.76  43
   3   4   8 74905.1 2358.42  82
   3   4   8 74880.9 2442.54  33
   3   4   8 76006.0 2490.71  36
   3   4   8 80255.8 2287.96  71
   3   4   9 74013.7 2181.07  43
   3   4   9 74580.6 2476.40  36
   3   4   9 74009.6 2374.06  82
   3   4   9 73761.3 2454.59  33
   3   4   9 73785.8 2202.19  71
   3   4  10 171029. 3249.28  43
   3   4  10 177014. 3742.29  36
   3   4  10 174963. 3652.93  82
   3   4  10 174925. 3753.56  33
   3   4  11 53545.5 1695.45  82
   3   4  11 51983.8 1715.28  33
   3   4  12 64978.3 1319.49  57
   3   4  12 66582.2 1551.44  33
   3   4  12 67731.7 1494.12  82
   3   5  -9 54468.2 1182.49  41
   3   5  -9 58342.1 1246.41  51
   3   5  -8 15532.8 757.133  41
   3   5  -8 15060.4 757.469  51
   3   5  -7 38445.8 1361.38  41
   3   5  -7 41514.4 1342.75  80
   3   5  -7 38054.4 1359.68  51
   3   5  -6 109656. 2349.20  42
   3   5  -6 116543. 2543.21  80
   3   5  -6 110648. 2494.03  51
   3   5  -5 122822. 2473.96  42
   3   5  -5 119296. 2736.61  96
   3   5  -5 123281. 2508.59  55
   3   5  -5 119914. 2628.40  80
   3   5  -5 116117. 2489.94  51
   3   5  -5 122213. 2661.24  44
   3   5  -4 167110. 3209.50   1
   3   5  -4 158512. 3100.54  96
   3   5  -4 174235. 3090.29  62
   3   5  -4 170183. 3188.34  87
   3   5  -4 166208. 2957.79  55
   3   5  -4 164106. 3086.37  80
   3   5  -4 160849. 3098.10  79
   3   5  -4 165487. 2833.60  51
   3   5  -4 169107. 3082.38  44
   3   5  -3 118429. 2520.45   1
   3   5  -3 127746. 2464.09  62
   3   5  -2 287586. 3820.82  62
   3   5  -2 251302. 3846.34   1
   3   5  -1 341728. 4478.61   1
   3   5  -1 353774. 4349.88  62
   3   5   0 247141. 3316.11  62
   3   5   0 244977. 3519.50   1
   3   5   1 72967.5 1659.40  69
   3   5   1 76080.1 1571.55  62
   3   5   1 70183.3 1681.97   1
   3   5   2 134723. 2404.31  69
   3   5   2 141368. 2585.47   1
   3   5   2 141636. 2337.69  62
   3   5   3 97510.5 2265.68   1
   3   5   3 98172.2 1969.93  69
   3   5   3 97862.7 2191.32   4
   3   5   4 72089.7 1650.20  69
   3   5   4 66767.6 1488.10  58
   3   5   4 71245.5 1921.72   4
   3   5   4 67803.7 2046.87   1
   3   5   5 286142. 3788.26  69
   3   5   5 272443. 3852.10  58
   3   5   5 276064. 4395.97   4
   3   5   6 108176. 2338.16  58
   3   5   6 102623. 2559.26   4
   3   5   7 53015.9 1878.66  43
   3   5   7 49993.6 1700.86  92
   3   5   7 51456.5 1986.79  36
   3   5   7 51739.5 1665.45  58
   3   5   7 52122.9 1790.98   4
   3   5   7 49388.2 1831.98  82
   3   5   7 52667.8 1911.56  33
   3   5   8 106925. 2814.28  43
   3   5   8 102574. 2478.12  92
   3   5   8 104322. 3018.08  36
   3   5   8 96425.6 2767.83  82
   3   5   8 103444. 2895.93  33
   3   5   9 93616.7 2606.87  43
   3   5   9 93402.6 2841.59  36
   3   5   9 94599.0 2738.98  82
   3   5   9 96443.3 2791.03  33
   3   5  10 148730. 3154.03  43
   3   5  10 150338. 3433.47  36
   3   5  10 151303. 3375.58  82
   3   5  10 151189. 3402.99  33
   3   5  11 109124. 2267.59  43
   3   5  11 113929. 2566.14  82
   3   5  11 115887. 2569.80  33
   3   5  12 32061.9 1021.08  82
   3   5  12 32124.8 994.244  33
   3   6  -8 41474.3 1084.41  41
   3   6  -8 44658.0 1074.60  51
   3   6  -7 24877.4 992.373  41
   3   6  -7 28156.8 1001.75  80
   3   6  -7 26982.3 999.787  51
   3   6  -6 69053.0 1716.07  42
   3   6  -6 68066.5 1856.64  41
   3   6  -6 70670.9 1901.54  80
   3   6  -6 69267.3 1792.27  51
   3   6  -5 200260. 3356.07  42
   3   6  -5 201778. 3677.69  80
   3   6  -5 193403. 3300.24  51
   3   6  -4 215170. 3848.10  96
   3   6  -4 207212. 3696.40  91
   3   6  -4 219148. 3881.31  87
   3   6  -4 209986. 3717.73  56
   3   6  -4 215498. 3665.39  55
   3   6  -4 217678. 3871.16  80
   3   6  -4 222814. 3852.70  79
   3   6  -4 220982. 3729.50  44
   3   6  -3 188706. 3469.96  91
   3   6  -3 200845. 3539.51  87
   3   6  -3 192023. 3458.64  56
   3   6  -3 183969. 3360.83  55
   3   6  -3 191378. 3548.16  80
   3   6  -3 205938. 3500.16  79
   3   6  -3 192360. 3469.75  96
   3   6  -3 212190. 3395.99  62
   3   6  -3 208296. 3424.22  44
   3   6  -2 39374.3 1268.74  62
   3   6  -2 34480.0 1345.88   1
   3   6  -1 150407. 2558.14  62
   3   6  -1 138052. 2776.91   1
   3   6   0 236767. 3275.87  62
   3   6   0 210280. 3531.76   1
   3   6   1 99130.9 1878.16  62
   3   6   1 93625.5 2180.34   1
   3   6   2 140073. 2635.56  69
   3   6   2 131403. 2704.22   1
   3   6   3 71711.3 1785.06  69
   3   6   3 62986.0 1901.55   1
   3   6   4 38863.0 1278.21  69
   3   6   4 33906.9 1459.61   1
   3   6   5 134364. 3254.05   1
   3   6   5 139190. 2539.46  69
   3   6   5 130981. 2949.36   4
   3   6   6 262466. 5046.08   1
   3   6   6 254096. 4535.77  43
   3   6   6 273755. 4328.38  94
   3   6   6 269092. 4580.61  92
   3   6   6 258095. 4469.49   4
   3   6   6 266693. 4418.18  82
   3   6   7 113588. 2985.97  43
   3   6   7 117229. 2900.27  92
   3   6   7 114957. 2922.03  82
   3   6   8 103816. 2878.85  43
   3   6   8 95475.9 2584.53  92
   3   6   8 99938.7 2813.56  82
   3   6   8 107056. 2829.45  33
   3   6   9 95487.7 2707.54  43
   3   6   9 96085.0 2452.68  92
   3   6   9 96058.3 2731.79  82
   3   6   9 102356. 2735.59  33
   3   6  10 54385.2 1841.87  43
   3   6  10 51482.7 1849.43  82
   3   6  10 57981.6 1869.64  33
   3   6  11 130819. 2560.60  43
   3   6  11 130831. 2520.77  33
   3   6  11 134019. 2712.70  82
   3   6  12 45739.8 1163.50  82
   3   7  -7 79478.2 1524.77  41
   3   7  -6 40483.9 1240.54  41
   3   7  -6 42648.2 1326.46  80
   3   7  -5 83064.3 1906.11  42
   3   7  -5 85302.6 2008.96  41
   3   7  -5 77160.3 1998.44  91
   3   7  -5 79402.0 2032.90  56
   3   7  -5 85094.8 2006.67  55
   3   7  -5 87011.8 2206.63  80
   3   7  -4 112192. 2414.81  42
   3   7  -4 124421. 2524.19  41
   3   7  -4 115317. 2697.14  91
   3   7  -4 115916. 2715.87  56
   3   7  -4 123031. 2664.27  55
   3   7  -4 123149. 2839.29  80
   3   7  -3 264150. 4301.33  96
   3   7  -3 261851. 4418.58  91
   3   7  -3 277437. 4449.53  87
   3   7  -3 258876. 4417.74  56
   3   7  -3 272572. 4394.88  55
   3   7  -2 24522.0 1121.16  96
   3   7  -2 23358.3 1160.81  91
   3   7  -2 23824.2 1175.98  56
   3   7  -2 22594.4 1127.52  55
   3   7  -2 23110.0 1178.34  80
   3   7  -2 25366.6 1183.35  87
   3   7  -1 27236.9 1219.05  91
   3   7  -1 25689.2 1158.84  87
   3   7  -1 25802.4 1193.16  56
   3   7  -1 24329.9 1159.41  55
   3   7  -1 24059.6 1166.15  80
   3   7  -1 25569.1 1090.86  96
   3   7   0 63714.2 1850.92  91
   3   7   0 60711.2 1876.73   1
   3   7   0 60144.9 1690.09  88
   3   7   0 61247.5 1832.81  34
   3   7   0 63786.4 1824.49  87
   3   7   0 60251.0 1806.12  55
   3   7   0 64300.9 1854.27  80
   3   7   1 154271. 3141.81   1
   3   7   2 192966. 3629.75   1
   3   7   3 119232. 2838.90   1
   3   7   4 63112.4 2015.31  94
   3   7   4 61012.1 1997.20  92
   3   7   4 63736.5 2107.37   1
   3   7   4 64324.9 1967.90  88
   3   7   4 64051.8 1936.09  87
   3   7   4 62810.2 1937.39  34
   3   7   5 13925.3 927.036  43
   3   7   5 14292.4 1012.20   1
   3   7   5 14421.7 967.164  94
   3   7   5 14320.6 982.053  92
   3   7   5 14621.6 920.665  88
   3   7   5 13681.2 898.426  87
   3   7   5 17742.7 999.797  34
   3   7   6 302115. 5140.88  43
   3   7   6 285752. 4887.43  94
   3   7   6 283373. 5109.96  92
   3   7   6 306482. 4711.81  88
   3   7   6 304544. 4949.49  87
   3   7   6 299639. 4655.02  34
   3   7   7 186533. 4030.28  43
   3   7   7 177646. 3593.33  94
   3   7   7 174825. 3894.61  92
   3   7   7 182537. 3662.26  87
   3   7   7 191805. 3787.15  82
   3   7   8 152174. 3448.13  82
   3   7   8 146638. 3431.68  92
   3   7   9 44513.4 1793.91  43
   3   7   9 42086.7 1635.83  92
   3   7   9 40584.1 1658.67  82
   3   7  10 7462.95 648.694  43
   3   7  10 8483.05 618.702  92
   3   7  10 7656.90 641.251  82
   3   7  11 52751.7 1496.70  43
   3   7  11 56174.0 1506.18  82
   3   8  -6 117724. 1944.22  80
   3   8  -5 18097.6 712.935  42
   3   8  -5 20365.9 760.999  41
   3   8  -5 17718.2 780.167  91
   3   8  -5 18806.4 884.989  80
   3   8  -4 12114.5 685.218  42
   3   8  -4 12854.4 800.217  91
   3   8  -4 12752.7 762.875  55
   3   8  -4 13844.5 858.286  80
   3   8  -3 70191.5 2100.11  91
   3   8  -3 72611.2 2143.30  56
   3   8  -3 71957.7 2051.77  55
   3   8  -3 70356.3 2140.57  80
   3   8  -3 73043.6 2090.67  87
   3   8  -2 154423. 2981.93  96
   3   8  -2 146413. 3232.78  91
   3   8  -2 158452. 3237.14  87
   3   8  -2 151858. 3309.68  56
   3   8  -2 145016. 3169.98  55
   3   8  -2 140655. 3231.22  80
   3   8  -1 88275.8 2455.39  55
   3   8  -1 82144.6 2381.72  80
   3   8  -1 88048.0 2364.68  87
   3   8   0 50782.7 1778.14  87
   3   8   0 59114.7 1936.58  91
   3   8   0 54891.4 1683.68  88
   3   8   0 56691.8 1892.21  34
   3   8   0 53343.2 1851.78  55
   3   8   0 52021.4 1804.02  80
   3   8   1 35437.1 1444.62  88
   3   8   1 34047.3 1484.89  34
   3   8   1 32099.2 1402.58  87
   3   8   1 34073.3 1434.25  55
   3   8   1 35340.8 1380.07  80
   3   8   1 34378.4 1374.83  49
   3   8   2 61338.5 2027.59  88
   3   8   2 60273.4 2038.63  34
   3   8   2 62466.2 2003.20  87
   3   8   2 61085.9 1867.21  55
   3   8   3 220132. 4089.00  92
   3   8   3 226042. 4258.65  88
   3   8   3 225246. 4153.89  87
   3   8   3 223848. 4258.75  34
   3   8   4 276253. 4767.83  87
   3   8   4 267053. 4774.85  34
   3   8   4 268265. 4809.47  92
   3   8   5 86837.4 2419.27  43
   3   8   5 84402.8 2610.83  94
   3   8   5 88801.2 2692.38  92
   3   8   5 97071.9 2624.13  88
   3   8   5 93716.5 2624.52  87
   3   8   5 87000.2 2530.52  34
   3   8   6 44562.7 1794.74  43
   3   8   6 42457.5 1792.68  94
   3   8   6 40248.2 1824.31  92
   3   8   6 45894.1 1725.35  88
   3   8   6 41112.9 1717.46  87
   3   8   6 44207.8 1707.89  34
   3   8   7 28110.8 1448.91  43
   3   8   7 27872.4 1502.74  92
   3   8   7 29911.9 1282.22  88
   3   8   7 29091.2 1398.77  87
   3   8   7 27844.5 1256.59  34
   3   8   8 109972. 2908.83  43
   3   8   8 109675. 2941.10  92
   3   8   8 106959. 2602.86  87
   3   8   9 118692. 2872.57  43
   3   8   9 113908. 2753.62  92
   3   8  10 77947.9 2037.74  43
   3   8  10 77485.3 1907.72  92
   3   8  10 77760.4 1762.01  82
   3   8  11 9795.19 553.861  43
   3   9  -5 51261.6 1147.13  80
   3   9  -4 27005.0 828.854  42
   3   9  -4 27195.7 1040.55  80
   3   9  -3 39086.9 1216.58  42
   3   9  -3 41228.5 1379.82  55
   3   9  -3 42599.0 1496.29  80
   3   9  -2 70291.2 1984.85  87
   3   9  -2 67185.5 1977.10  55
   3   9  -2 69941.3 2081.27  80
   3   9  -1 61314.4 1928.21  87
   3   9  -1 60114.3 1965.95  55
   3   9  -1 62437.5 2015.89  80
   3   9   0 60210.0 1961.58  87
   3   9   0 64036.9 2070.43  55
   3   9   0 60573.1 1967.85  80
   3   9   1 115885. 2728.41  88
   3   9   1 114476. 2910.25  34
   3   9   1 108098. 2765.88  87
   3   9   1 112187. 2827.73  55
   3   9   2 105388. 2767.35  88
   3   9   2 105112. 2857.39  34
   3   9   2 98687.8 2687.65  87
   3   9   2 107946. 2653.27  55
   3   9   2 105188. 2686.16  49
   3   9   3 131344. 3229.74  88
   3   9   3 129359. 3267.64  34
   3   9   3 128512. 3168.84  87
   3   9   3 134501. 3044.88  92
   3   9   3 124924. 3142.61  49
   3   9   4 84447.1 2511.12  92
   3   9   4 90469.6 2639.47  88
   3   9   4 90060.5 2614.27  87
   3   9   5 68454.0 2366.01  92
   3   9   5 70361.3 2320.60  87
   3   9   5 69854.4 2322.77  34
   3   9   6 48081.4 1769.97  88
   3   9   6 44344.7 1780.47  87
   3   9   6 45684.7 1778.45  34
   3   9   6 42841.5 1866.81  92
   3   9   7 41466.5 1605.18  43
   3   9   7 43633.1 1830.99  92
   3   9   7 45534.3 1583.29  88
   3   9   7 44447.8 1598.28  34
   3   9   7 39679.4 1600.01  87
   3   9   8 70693.4 2063.14  43
   3   9   8 73785.1 2258.96  92
   3   9   8 74701.2 1777.58  88
   3   9   8 70331.3 1949.00  87
   3   9   8 67212.0 1939.74  49
   3   9   9 61128.0 1741.95  43
   3   9   9 60103.7 1809.76  92
   3   9  10 65888.7 1562.95  43
   3   9  10 67482.0 1601.59  92
   3  10  -3 20214.8 779.675  80
   3  10  -2 37852.0 1088.96  42
   3  10  -2 35810.4 1227.28  80
   3  10  -1 136044. 2685.07  87
   3  10  -1 133933. 2729.21  55
   3  10  -1 131020. 2660.32  80
   3  10   0 125900. 2713.11  87
   3  10   0 127145. 2785.67  55
   3  10   1 73079.8 1891.11  88
   3  10   1 69600.1 2052.96  87
   3  10   1 71582.9 2073.22  55
   3  10   2 36622.9 1465.80  88
   3  10   2 36256.5 1504.90  87
   3  10   2 36229.8 1408.75  55
   3  10   2 36537.0 1370.28  49
   3  10   3 29758.7 1440.90  34
   3  10   3 30807.0 1404.37  88
   3  10   3 33369.7 1254.11  55
   3  10   3 32821.0 1458.20  87
   3  10   3 33282.9 1423.51  49
   3  10   4 84361.4 2395.51  88
   3  10   4 81605.4 2447.50  34
   3  10   4 77939.4 2324.60  87
   3  10   4 83849.5 2224.01  92
   3  10   4 74440.4 2293.53  49
   3  10   5 88401.4 2409.66  88
   3  10   5 83262.9 2416.52  34
   3  10   5 79499.8 2323.30  87
   3  10   5 80611.8 2309.09  92
   3  10   5 81285.6 2408.01  49
   3  10   6 88155.4 2466.29  92
   3  10   6 94754.8 2447.72  34
   3  10   6 87995.3 2357.30  87
   3  10   6 96424.3 2563.18  49
   3  10   7 14632.1 927.345  92
   3  10   7 16594.5 846.921  88
   3  10   7 14784.4 851.103  87
   3  10   7 16245.2 866.337  34
   3  10   7 15779.6 917.886  49
   3  10   8 24572.0 868.520  34
   3  10   8 23547.3 927.921  87
   3  10   8 23543.9 1088.57  92
   3  10   8 25750.8 884.324  88
   3  10   8 23578.3 984.028  49
   3  10   9 39169.1 979.156  49
   3  10   9 47972.9 1345.71  92
   3  11   0 97854.3 1911.82  87
   3  11   0 93898.6 1882.88  55
   3  11   1 68746.4 1707.62  87
   3  11   1 70339.7 1657.68  55
   3  11   2 54927.5 1407.93  88
   3  11   2 52364.3 1557.01  87
   3  11   2 54631.3 1415.89  55
   3  11   3 21031.3 943.505  88
   3  11   3 18657.2 934.952  87
   3  11   3 20254.2 831.138  49
   3  11   4 29795.8 1179.41  88
   3  11   4 28570.2 1161.10  87
   3  11   4 27595.9 1070.32  49
   3  11   5 40390.1 1361.22  87
   3  11   5 40314.3 1357.89  49
   3  11   6 99202.6 2046.93  88
   3  11   6 92888.7 2060.39  34
   3  11   6 93023.2 2002.75  87
   3  11   6 95499.8 2099.63  49
   3  11   6 102015. 1975.43  92
   3  11   7 57750.3 1323.21  88
   3  11   7 54085.9 1301.58  87
   3  11   7 54895.5 1406.74  49
   3  11   7 59246.7 1409.18  92
   4  -8  -7 22230.3 642.967  84
   4  -8  -7 23470.4 756.504  50
   4  -8  -7 23641.0 751.072  77
   4  -8  -7 24251.4 713.029  76
   4  -8  -7 24167.6 734.586  93
   4  -8  -6 29122.9 892.271  93
   4  -8  -6 27889.0 797.407  84
   4  -8  -6 28634.9 787.013  32
   4  -8  -6 29626.8 941.724  50
   4  -8  -6 29090.3 943.244  77
   4  -8  -6 29007.5 903.213  76
   4  -8  -5 41685.9 1144.54  93
   4  -8  -5 40865.5 1018.10  84
   4  -8  -5 40453.2 1076.25  32
   4  -8  -5 42219.2 1208.57  50
   4  -8  -5 39106.9 1179.31  77
   4  -8  -5 41525.4 1190.36  76
   4  -8  -4 103140. 1964.90  93
   4  -8  -4 102214. 1955.18  32
   4  -8  -4 107934. 2118.01  50
   4  -8  -4 107056. 2099.43  77
   4  -8  -4 102960. 2070.50  76
   4  -8  -3 109467. 2044.16  93
   4  -8  -3 113763. 2219.60  50
   4  -8  -3 111682. 2158.65  77
   4  -8  -3 109035. 2179.58  76
   4  -8  -2 31884.0 1008.21  38
   4  -8  -2 31251.5 1001.92  93
   4  -8  -2 31566.2 1104.09  50
   4  -8  -2 32144.2 1053.58  77
   4  -8  -2 31714.4 1108.90  76
   4  -8  -1 12953.6 600.546  38
   4  -8  -1 13478.8 619.279  77
   4  -8  -1 13558.2 694.725  50
   4  -8  -1 12468.2 668.450  76
   4  -8  -1 13049.8 603.161  93
   4  -8   0 79986.6 1468.19  38
   4  -8   0 79867.8 1473.38  93
   4  -8   0 82080.5 1721.97  50
   4  -8   0 79114.6 1693.59  76
   4  -8   1 111996. 1891.14  50
   4  -8   1 110805. 1886.72  76
   4  -7  -9 49705.1 1108.29  93
   4  -7  -9 51331.7 1100.76  84
   4  -7  -9 51595.2 1132.33  50
   4  -7  -8 125033. 2180.91  93
   4  -7  -8 125145. 2135.10  84
   4  -7  -8 124232. 2175.18  50
   4  -7  -8 117386. 1994.87  77
   4  -7  -8 123264. 1947.23  76
   4  -7  -7 91696.4 1980.21  93
   4  -7  -7 90598.6 1928.03  84
   4  -7  -7 94735.2 2000.06  50
   4  -7  -7 87283.9 1913.84  77
   4  -7  -7 90022.4 1841.19  76
   4  -7  -6 51340.9 1523.50  93
   4  -7  -6 47362.6 1424.88  84
   4  -7  -6 48952.9 1299.97  32
   4  -7  -6 50002.8 1508.64  50
   4  -7  -6 49637.5 1498.45  77
   4  -7  -6 47362.8 1413.12  76
   4  -7  -5 27960.8 1149.96  93
   4  -7  -5 24804.3 1036.95  84
   4  -7  -5 24511.6 994.702  32
   4  -7  -5 25647.7 1116.74  50
   4  -7  -5 25977.9 1123.55  77
   4  -7  -5 26361.7 1104.50  76
   4  -7  -4 34303.8 1308.15  38
   4  -7  -4 34784.9 1327.55  93
   4  -7  -4 34550.0 1242.64  84
   4  -7  -4 33591.8 1252.62  32
   4  -7  -4 37470.8 1411.97  50
   4  -7  -4 35419.8 1353.03  77
   4  -7  -4 35417.5 1350.15  76
   4  -7  -3 119921. 2602.66  38
   4  -7  -3 117149. 2408.78  84
   4  -7  -3 119377. 2620.20  93
   4  -7  -3 124972. 2747.77  50
   4  -7  -3 115410. 2588.34  77
   4  -7  -3 116959. 2640.15  76
   4  -7  -2 216870. 3705.57  38
   4  -7  -2 217889. 3735.65  93
   4  -7  -2 213641. 3406.20  84
   4  -7  -2 216787. 3845.48  50
   4  -7  -2 221035. 3584.68  26
   4  -7  -1 33796.3 1300.09  38
   4  -7  -1 34414.0 1324.62  93
   4  -7  -1 34486.5 1397.40  50
   4  -7  -1 35111.5 1295.32  26
   4  -7   0 74291.8 1957.38  93
   4  -7   0 77498.6 1963.92  38
   4  -7   1 65965.9 1716.17  38
   4  -7   1 64268.1 1726.11  93
   4  -7   1 63794.9 1537.06  53
   4  -7   2 86640.3 1834.00  38
   4  -7   2 85488.6 1851.57  93
   4  -7   3 96477.5 1677.98  38
   4  -7   3 94407.3 1684.68  93
   4  -6 -10 51731.6 1154.20  93
   4  -6 -10 51933.1 1149.04  84
   4  -6 -10 50024.3 1008.95  83
   4  -6 -10 50083.0 1122.62  50
   4  -6  -9 14008.8 694.087  93
   4  -6  -9 13044.8 661.593  84
   4  -6  -9 13867.5 611.026  83
   4  -6  -9 13913.3 680.641  50
   4  -6  -8 56534.9 1602.67  93
   4  -6  -8 58954.3 1622.79  84
   4  -6  -8 53826.3 1402.12  83
   4  -6  -8 58416.7 1600.80  50
   4  -6  -8 58320.7 1466.25  77
   4  -6  -8 57402.1 1404.97  76
   4  -6  -7 139059. 2811.87  93
   4  -6  -7 139219. 2799.70  84
   4  -6  -7 135567. 2742.06  50
   4  -6  -7 137029. 2560.85  76
   4  -6  -6 80255.1 2026.07  70
   4  -6  -6 80188.9 2045.59  67
   4  -6  -6 89860.6 2285.83  93
   4  -6  -6 83875.3 2178.26  84
   4  -6  -6 89847.8 1982.72  53
   4  -6  -6 89737.6 2251.12  50
   4  -6  -6 83334.9 2163.85  77
   4  -6  -6 85971.1 2099.41  76
   4  -6  -5 117692. 2509.80  70
   4  -6  -5 117255. 2648.03  67
   4  -6  -5 116411. 2715.45  38
   4  -6  -5 120018. 2760.92  93
   4  -6  -5 115202. 2657.63  84
   4  -6  -5 128079. 2507.13  53
   4  -6  -5 122749. 2504.10  32
   4  -6  -5 121953. 2769.37  50
   4  -6  -5 119069. 2707.71  77
   4  -6  -5 117380. 2628.52  76
   4  -6  -4 26318.4 1237.50  67
   4  -6  -4 28709.1 1299.32  38
   4  -6  -4 31076.1 1366.48  93
   4  -6  -4 28345.3 1246.65  84
   4  -6  -4 28719.7 1152.22  53
   4  -6  -4 28276.7 1316.38  50
   4  -6  -4 27272.8 1257.95  77
   4  -6  -4 28152.9 1264.40  76
   4  -6  -4 26176.9 1131.98  20
   4  -6  -3 65939.5 2029.23  67
   4  -6  -3 65592.5 2027.67  38
   4  -6  -3 66439.3 2066.42  93
   4  -6  -3 62918.4 1949.79  20
   4  -6  -3 67641.2 1956.56  84
   4  -6  -3 67160.0 1857.64  53
   4  -6  -3 67882.2 2098.09  50
   4  -6  -2 237428. 4208.74  67
   4  -6  -2 245354. 4308.18  38
   4  -6  -2 250835. 4395.87  93
   4  -6  -2 249039. 4431.05  20
   4  -6  -2 248300. 4098.53  84
   4  -6  -2 246577. 4045.86  53
   4  -6  -2 255064. 4493.04  50
   4  -6  -1 146539. 3098.18  69
   4  -6  -1 147176. 3192.31  38
   4  -6  -1 145607. 3320.65  20
   4  -6  -1 141748. 3012.06  67
   4  -6  -1 151786. 3003.26  84
   4  -6  -1 150259. 3039.22  53
   4  -6  -1 143936. 3205.05  93
   4  -6  -1 156990. 3149.15  26
   4  -6   0 86216.9 2386.04  69
   4  -6   0 91015.7 2421.81  38
   4  -6   0 87967.4 2427.42  93
   4  -6   0 83910.8 2466.08  20
   4  -6   0 89221.8 2196.84  84
   4  -6   0 88121.4 2285.34  53
   4  -6   0 86511.5 2207.15  16
   4  -6   1 48659.7 1780.93  69
   4  -6   1 47641.4 1763.96  20
   4  -6   1 52010.4 1591.07  84
   4  -6   1 49871.6 1691.92  53
   4  -6   1 50560.8 1693.04  16
   4  -6   2 55011.4 1753.24  53
   4  -6   3 67913.7 1869.50  53
   4  -6   4 107985. 2197.82  53
   4  -6   5 48408.0 1158.97  53
   4  -5 -11 60853.9 1152.88  93
   4  -5 -11 61602.9 1151.33  84
   4  -5 -11 62320.5 1150.66  83
   4  -5 -11 61212.5 1136.00  50
   4  -5 -10 69280.6 1560.77  93
   4  -5 -10 69924.4 1562.42  84
   4  -5 -10 67999.1 1529.62  83
   4  -5 -10 69764.3 1534.79  50
   4  -5  -9 51811.9 1526.64  93
   4  -5  -9 51840.2 1515.81  84
   4  -5  -9 53129.0 1522.23  83
   4  -5  -9 54980.4 1542.15  50
   4  -5  -8 26406.2 1147.89  93
   4  -5  -8 26761.6 1168.85  84
   4  -5  -8 27453.5 1154.19  83
   4  -5  -8 27058.2 1142.17  50
   4  -5  -8 27476.1 1015.91  77
   4  -5  -8 25895.2 963.526  76
   4  -5  -7 108931. 2521.40  70
   4  -5  -7 114306. 2631.66  93
   4  -5  -7 107695. 2576.38  84
   4  -5  -7 104843. 2458.20  83
   4  -5  -7 111134. 2396.20  53
   4  -5  -7 109848. 2338.02  67
   4  -5  -7 115289. 2588.00  50
   4  -5  -7 108438. 2384.10  77
   4  -5  -7 116864. 2370.72  76
   4  -5  -6 117569. 2642.88  70
   4  -5  -6 118639. 2603.22  67
   4  -5  -6 124044. 2799.69  93
   4  -5  -6 118942. 2740.24  84
   4  -5  -6 111697. 2530.04  83
   4  -5  -6 123487. 2588.49  53
   4  -5  -6 115807. 2679.24  50
   4  -5  -6 113969. 2594.46  77
   4  -5  -6 120446. 2541.36  76
   4  -5  -5 189013. 3483.07  70
   4  -5  -5 197584. 3613.29  67
   4  -5  -5 198575. 3712.75  38
   4  -5  -5 205302. 3779.15  93
   4  -5  -5 191638. 3623.10  84
   4  -5  -5 201851. 3480.38  53
   4  -5  -5 196099. 3656.10  50
   4  -5  -5 186444. 3539.08  77
   4  -5  -5 196156. 3486.46  76
   4  -5  -4 144094. 2860.92  70
   4  -5  -4 147283. 3131.92  38
   4  -5  -4 149848. 2909.60  20
   4  -5  -4 146792. 3066.61  84
   4  -5  -4 145194. 2929.94  53
   4  -5  -4 149957. 3170.07  93
   4  -5  -4 143248. 3103.01  50
   4  -5  -4 142013. 2970.66  76
   4  -5  -3 69610.2 2085.44  67
   4  -5  -3 63112.6 1981.63  38
   4  -5  -3 67573.8 2006.70  20
   4  -5  -3 68847.5 1990.55  84
   4  -5  -3 68833.3 1944.54  53
   4  -5  -3 63286.1 1995.53  50
   4  -5  -3 63942.5 2016.37  93
   4  -5  -2 126865. 2895.76  67
   4  -5  -2 119488. 2827.20  38
   4  -5  -2 118176. 2851.68  93
   4  -5  -2 121309. 2924.89  20
   4  -5  -2 129637. 2808.99  84
   4  -5  -2 126598. 2781.66  53
   4  -5  -2 130223. 2713.93  26
   4  -5  -1 171898. 3419.63  69
   4  -5  -1 172870. 3428.00  67
   4  -5  -1 168500. 3620.64  20
   4  -5  -1 174483. 3345.89  84
   4  -5  -1 171899. 3391.79  53
   4  -5  -1 169535. 3505.08  93
   4  -5   0 90959.6 2529.05  69
   4  -5   0 91673.8 2325.61  67
   4  -5   0 88464.7 2579.35  20
   4  -5   0 94951.7 2372.49  84
   4  -5   0 94572.9 2486.04  53
   4  -5   1 68184.1 2223.91  69
   4  -5   1 69928.2 2265.70  20
   4  -5   1 73811.7 2138.04  16
   4  -5   2 84462.3 2523.13  69
   4  -5   2 83960.4 2430.80  20
   4  -5   2 88192.9 2321.21  84
   4  -5   2 90513.4 2464.79  16
   4  -5   3 61875.7 2092.00  69
   4  -5   3 64001.5 1926.40  20
   4  -5   3 67441.6 1960.03  84
   4  -5   3 66994.0 2094.32  16
   4  -5   4 98445.5 2280.95  84
   4  -4 -11 80362.1 1503.82  93
   4  -4 -11 78388.7 1465.36  84
   4  -4 -11 79527.7 1541.30  83
   4  -4 -11 81205.4 1485.07  50
   4  -4 -10 87325.2 1911.73  93
   4  -4 -10 85324.6 1884.60  84
   4  -4 -10 92778.0 2000.22  83
   4  -4 -10 88426.2 1887.20  50
   4  -4  -9 115784. 2493.17  93
   4  -4  -9 114796. 2471.94  84
   4  -4  -9 119813. 2587.55  83
   4  -4  -9 118665. 2476.69  50
   4  -4  -8 34788.0 1372.26  70
   4  -4  -8 37710.9 1427.78  93
   4  -4  -8 36847.9 1420.10  84
   4  -4  -8 37276.9 1463.34  83
   4  -4  -8 36075.8 1248.16  51
   4  -4  -8 37438.3 1401.85  50
   4  -4  -7 42194.9 1551.94  70
   4  -4  -7 45440.8 1614.50  93
   4  -4  -7 47331.0 1652.77  84
   4  -4  -7 43933.9 1613.70  83
   4  -4  -7 42780.1 1509.65  53
   4  -4  -7 43573.0 1418.34  67
   4  -4  -7 44606.8 1561.42  50
   4  -4  -6 217476. 3877.94  93
   4  -4  -6 224992. 3757.79  67
   4  -4  -6 228566. 3947.91  84
   4  -4  -6 228363. 3787.31  53
   4  -4  -6 224865. 3840.49  50
   4  -4  -6 222876. 3652.21  77
   4  -4  -6 221376. 3522.68  76
   4  -4  -5 245299. 4065.96  70
   4  -4  -5 245733. 4049.28  67
   4  -4  -5 232806. 4025.00  38
   4  -4  -5 239011. 4070.31  84
   4  -4  -5 259198. 4041.32  53
   4  -4  -5 238257. 4090.20  93
   4  -4  -5 256091. 4104.81  50
   4  -4  -5 247078. 3820.51  76
   4  -4  -4 283276. 4263.96  70
   4  -4  -4 274683. 4364.28  38
   4  -4  -4 275647. 4412.81  93
   4  -4  -4 293092. 4197.09  20
   4  -4  -4 276093. 4343.17  84
   4  -4  -4 270044. 4233.02  53
   4  -4  -4 291354. 4488.69  67
   4  -4  -4 276097. 4337.34  50
   4  -4  -4 271616. 4106.65  76
   4  -4  -3 43335.9 1386.15  70
   4  -4  -3 41532.9 1482.64  38
   4  -4  -3 41334.2 1506.47  93
   4  -4  -3 40642.8 1461.93  20
   4  -4  -3 40823.2 1443.88  84
   4  -4  -3 40044.0 1497.41  67
   4  -4  -3 38919.9 1399.57  53
   4  -4  -3 40295.2 1461.28  50
   4  -4  -2 34051.7 1233.75  69
   4  -4  -2 30180.6 1266.02  38
   4  -4  -2 30061.6 1283.57  93
   4  -4  -2 29306.0 1302.48  20
   4  -4  -2 32870.7 1354.83  67
   4  -4  -2 29520.1 1213.96  84
   4  -4  -2 30287.7 1131.21  26
   4  -4  -1 131611. 2810.20  69
   4  -4  -1 135370. 2878.66  67
   4  -4  -1 139037. 2793.26  84
   4  -4  -1 133211. 2818.77  53
   4  -4   0 306402. 4955.50  69
   4  -4   0 324258. 4793.43  67
   4  -4   0 311366. 4763.71  84
   4  -4   0 316960. 4583.29   6
   4  -4   1 126060. 3035.96  69
   4  -4   1 119051. 3002.76  20
   4  -4   1 136256. 2817.21  30
   4  -4   1 132954. 2889.66  16
   4  -4   1 124578. 2741.05   6
   4  -4   1 133030. 2781.32  73
   4  -4   2 44502.0 1782.77  69
   4  -4   2 39893.7 1652.16  20
   4  -4   2 44265.8 1610.40  30
   4  -4   2 42752.7 1650.48  16
   4  -4   2 44842.4 1616.22  73
   4  -4   3 26703.2 1400.04  69
   4  -4   3 25976.2 1266.82  20
   4  -4   3 26899.1 1293.34  30
   4  -4   3 27200.1 1348.75  16
   4  -4   3 28922.0 1332.84  73
   4  -4   4 86723.0 2546.39  69
   4  -4   4 89789.0 2317.52  78
   4  -4   4 95773.7 2552.60  30
   4  -4   4 87591.5 2325.62  48
   4  -4   4 96899.3 2562.91  73
   4  -4   4 89971.7 2563.86  16
   4  -4   5 188101. 3711.87  69
   4  -4   5 206625. 3684.08  78
   4  -4   5 229847. 4034.94  30
   4  -4   5 205601. 3738.66  48
   4  -4   5 224054. 3990.81  73
   4  -4   5 201479. 3943.76  16
   4  -4   6 160939. 2963.28  78
   4  -4   6 158568. 2985.22  48
   4  -4   7 78137.0 1646.30  78
   4  -4   7 75463.1 1645.81  48
   4  -3 -11 21466.0 761.219  93
   4  -3 -11 21387.3 727.951  84
   4  -3 -11 23527.5 826.612  83
   4  -3 -11 21675.6 757.526  50
   4  -3 -10 71539.7 1773.70  93
   4  -3 -10 72150.0 1743.81  84
   4  -3 -10 75947.2 1887.43  83
   4  -3 -10 76905.0 1594.06  51
   4  -3 -10 73416.6 1773.69  50
   4  -3  -9 152124. 2959.62  70
   4  -3  -9 152204. 2992.91  93
   4  -3  -9 159011. 3000.50  84
   4  -3  -9 161344. 3167.12  83
   4  -3  -9 157910. 2807.96  51
   4  -3  -9 152915. 2957.27  50
   4  -3  -8 293588. 4696.77  70
   4  -3  -8 306859. 4713.88  93
   4  -3  -8 301638. 4670.60  84
   4  -3  -8 314929. 4941.41  83
   4  -3  -8 318406. 4554.73  51
   4  -3  -8 302554. 4626.09  50
   4  -3  -7 53433.1 1768.04  70
   4  -3  -7 50448.9 1687.57  93
   4  -3  -7 52187.9 1554.72  67
   4  -3  -7 52033.1 1714.58  84
   4  -3  -7 50229.3 1659.62  53
   4  -3  -7 49499.0 1633.89  50
   4  -3  -6 59895.8 1853.72  70
   4  -3  -6 49929.8 1644.71  93
   4  -3  -6 52098.7 1673.19  84
   4  -3  -6 51297.4 1644.38  53
   4  -3  -6 57955.4 1709.47  67
   4  -3  -6 51040.6 1613.92  50
   4  -3  -6 55347.2 1561.25  73
   4  -3  -5 98879.0 2347.63  70
   4  -3  -5 91661.6 2195.33  38
   4  -3  -5 93502.2 2223.80  93
   4  -3  -5 85951.9 2147.72  84
   4  -3  -5 91776.4 2169.03  53
   4  -3  -5 100243. 2327.13  67
   4  -3  -5 86572.5 2102.00  50
   4  -3  -5 96774.9 2076.86  28
   4  -3  -5 97051.9 2068.34  73
   4  -3  -4 263152. 4065.66  70
   4  -3  -4 272560. 4180.32  67
   4  -3  -4 272947. 3841.41  20
   4  -3  -4 261729. 3753.39  28
   4  -3  -4 257887. 3724.33  73
   4  -3  -3 419278. 5402.99  20
   4  -3  -3 428560. 5610.46  67
   4  -3  -3 425736. 5108.73  73
   4  -3  -2 139210. 2410.33  70
   4  -3  -2 134713. 2457.68  69
   4  -3  -2 133793. 2731.35  67
   4  -3  -2 140088. 2490.14  73
   4  -3  -1 12948.4 758.918  69
   4  -3  -1 14390.3 874.249  20
   4  -3  -1 12628.8 698.983  73
   4  -3   0 74603.1 2045.63  69
   4  -3   0 73346.9 1899.12  67
   4  -3   0 78984.1 1856.14   6
   4  -3   0 72516.2 1846.83  73
   4  -3   1 219372. 3993.52  69
   4  -3   1 233779. 3581.39  67
   4  -3   1 221467. 4027.57  20
   4  -3   1 228030. 3787.20  30
   4  -3   1 227908. 3775.45  16
   4  -3   1 229318. 3717.89   6
   4  -3   1 232440. 3808.24  73
   4  -3   2 205776. 3984.12  69
   4  -3   2 199243. 3829.20  20
   4  -3   2 212142. 3796.15  30
   4  -3   2 217128. 3817.23  16
   4  -3   2 197683. 3646.51   6
   4  -3   2 208321. 3756.19  73
   4  -3   3 188322. 3898.52  69
   4  -3   3 198325. 3696.82  20
   4  -3   3 192790. 3822.95  30
   4  -3   3 202654. 3862.61  16
   4  -3   3 198449. 3866.58  73
   4  -3   4 90348.3 2611.51  69
   4  -3   4 96679.3 2706.56  30
   4  -3   4 99253.7 2750.74  73
   4  -3   4 91049.8 2594.16  16
   4  -3   5 87472.2 2499.79  69
   4  -3   5 93353.0 2705.88  30
   4  -3   5 90601.4 2663.82  73
   4  -3   5 91137.4 2612.54  16
   4  -3   6 125053. 3090.73  30
   4  -3   6 125248. 3099.24  73
   4  -3   8 54691.3 1525.45  78
   4  -3   8 55476.4 1558.91  48
   4  -2 -11 78791.6 1550.51  93
   4  -2 -11 81811.1 1630.76  83
   4  -2 -11 82772.8 1429.70  51
   4  -2 -11 81603.4 1587.48  50
   4  -2 -10 55317.7 1531.95  93
   4  -2 -10 54283.9 1477.97  84
   4  -2 -10 57385.3 1626.71  83
   4  -2 -10 55724.5 1462.61  51
   4  -2 -10 54897.2 1526.79  50
   4  -2  -9 61485.6 1809.44  70
   4  -2  -9 64587.7 1841.74  93
   4  -2  -9 64004.6 1789.95  84
   4  -2  -9 69649.9 1986.16  83
   4  -2  -9 65284.9 1790.02  51
   4  -2  -9 63914.8 1819.75  50
   4  -2  -8 235910. 4076.29  70
   4  -2  -8 229217. 3902.62  93
   4  -2  -8 230536. 3864.76  84
   4  -2  -8 226117. 3636.62  78
   4  -2  -8 232044. 3864.31  51
   4  -2  -8 224234. 3835.93  50
   4  -2  -7 188047. 3570.82  70
   4  -2  -7 175624. 3276.40  93
   4  -2  -7 196891. 3429.47  90
   4  -2  -7 169624. 3225.92  84
   4  -2  -7 176868. 3353.20  53
   4  -2  -7 186404. 3154.74  78
   4  -2  -7 174751. 3256.67  50
   4  -2  -7 186211. 3288.48  73
   4  -2  -6 95389.2 2386.79  70
   4  -2  -6 95806.9 2204.39  67
   4  -2  -6 98458.5 2138.54  61
   4  -2  -6 89523.6 2119.66  90
   4  -2  -6 88333.6 2133.26  84
   4  -2  -6 94131.2 2237.35  53
   4  -2  -6 90036.1 2103.83  50
   4  -2  -6 88855.3 2143.83  93
   4  -2  -6 89803.6 2119.25  73
   4  -2  -5 92528.7 2259.98  70
   4  -2  -5 93626.4 2185.23  67
   4  -2  -5 92551.3 1999.53  61
   4  -2  -5 90494.6 2056.75  28
   4  -2  -5 92448.6 2062.62  73
   4  -2  -4 90582.5 2102.96  70
   4  -2  -4 90412.9 2110.82  67
   4  -2  -4 86008.5 1836.81  61
   4  -2  -4 89093.6 1829.02  20
   4  -2  -4 85608.1 1912.81  28
   4  -2  -4 85911.8 1897.13  73
   4  -2  -3 208186. 3240.26  70
   4  -2  -3 204155. 3034.10  61
   4  -2  -3 219257. 3302.41  20
   4  -2  -3 213591. 3450.48  67
   4  -2  -3 196661. 3078.63  73
   4  -2  -2 398565. 4742.46  70
   4  -2  -2 391764. 4650.23  61
   4  -2  -2 392338. 5136.78  20
   4  -2  -2 404048. 5175.12  67
   4  -2  -2 401151. 4838.17  73
   4  -2  -1 115102. 2261.03  69
   4  -2  -1 118585. 2111.78  61
   4  -2  -1 110871. 2422.10  20
   4  -2  -1 113856. 2327.92  67
   4  -2  -1 112197. 2172.82  73
   4  -2   0 50164.5 1536.38  69
   4  -2   0 52094.3 1364.87  61
   4  -2   0 49175.1 1595.64  20
   4  -2   0 52504.1 1459.94  67
   4  -2   0 47085.0 1405.55  30
   4  -2   0 54051.7 1391.06   6
   4  -2   0 52572.1 1386.08  16
   4  -2   0 50076.7 1443.19  73
   4  -2   1 281507. 4419.70  69
   4  -2   1 301496. 3935.42  67
   4  -2   1 262603. 3970.20  61
   4  -2   1 279492. 4405.09  20
   4  -2   1 288853. 4220.37  30
   4  -2   1 298704. 4174.91  16
   4  -2   1 304777. 4171.39   6
   4  -2   1 290799. 4210.77  73
   4  -2   2 231373. 4033.74  69
   4  -2   2 228627. 3899.61  20
   4  -2   2 231054. 3855.16  30
   4  -2   2 242425. 3887.39  16
   4  -2   2 232329. 3802.30   6
   4  -2   2 231173. 3875.07  73
   4  -2   3 279048. 4637.40  69
   4  -2   3 266807. 4254.27  20
   4  -2   3 260645. 4460.82  30
   4  -2   3 273344. 4456.37  16
   4  -2   3 269046. 4502.84  73
   4  -2   3 280283. 4476.41   6
   4  -2   4 187581. 3770.32  69
   4  -2   4 174692. 3270.25  90
   4  -2   4 172014. 3241.44  57
   4  -2   4 193347. 3900.49  30
   4  -2   4 189728. 3868.69  73
   4  -2   4 193620. 3785.04  16
   4  -2   4 189678. 3743.65   6
   4  -2   5 49171.9 1818.94  69
   4  -2   5 49615.6 1710.44  90
   4  -2   5 49204.5 1705.69  57
   4  -2   5 52071.5 2012.05  30
   4  -2   5 51458.7 2007.58  73
   4  -2   5 53502.0 1946.27  16
   4  -2   6 65896.5 2012.80  69
   4  -2   6 61259.6 1968.19  90
   4  -2   6 59769.3 1947.78  57
   4  -2   6 66389.0 2338.68  30
   4  -2   6 66398.8 2355.62  73
   4  -2   7 85774.3 2301.36  90
   4  -2   7 86548.8 2309.24  57
   4  -2   7 91829.1 2705.31  30
   4  -2   7 90728.5 2701.53  73
   4  -2   8 105149. 2316.17  90
   4  -2   8 105619. 2332.90  57
   4  -2   9 49416.7 1475.00  78
   4  -2   9 49562.4 1498.60  48
   4  -1 -11 155855. 2233.77  83
   4  -1 -11 148572. 2191.86  51
   4  -1 -10 52903.9 1464.55  93
   4  -1 -10 56094.3 1537.32  83
   4  -1 -10 54925.3 1499.27  51
   4  -1 -10 54427.0 1501.59  50
   4  -1  -9 62669.3 1811.24  70
   4  -1  -9 64093.7 1794.36  93
   4  -1  -9 58915.2 1690.43  21
   4  -1  -9 64466.7 1729.48  84
   4  -1  -9 68475.4 1918.35  83
   4  -1  -9 64270.3 1828.11  51
   4  -1  -9 59618.2 1754.84  50
   4  -1  -8 74950.5 2148.60  70
   4  -1  -8 72164.4 1971.78  93
   4  -1  -8 77383.8 1977.18  84
   4  -1  -8 73459.7 2098.43  83
   4  -1  -8 75554.9 2004.93  78
   4  -1  -8 75677.2 2071.96  51
   4  -1  -8 72553.7 1984.65  50
   4  -1  -7 238981. 4139.53  70
   4  -1  -7 221447. 3665.24  93
   4  -1  -7 227420. 3876.05  90
   4  -1  -7 210368. 3639.11  21
   4  -1  -7 226987. 3654.19  84
   4  -1  -7 224377. 3694.23  78
   4  -1  -7 228660. 3839.00  51
   4  -1  -7 214684. 3650.53  50
   4  -1  -7 239128. 3901.99  73
   4  -1  -6 182912. 3462.03  70
   4  -1  -6 183694. 3141.61  67
   4  -1  -6 185500. 3183.33  61
   4  -1  -6 183305. 3230.41  73
   4  -1  -5 73191.5 1987.77  70
   4  -1  -5 73563.0 1794.25  61
   4  -1  -5 76046.0 1899.68  67
   4  -1  -5 69963.5 1771.50  21
   4  -1  -5 73940.1 1842.52  28
   4  -1  -5 73231.1 1821.50  73
   4  -1  -4 182833. 3145.23  70
   4  -1  -4 185329. 2950.23  61
   4  -1  -4 183995. 3123.54  67
   4  -1  -4 181281. 2958.54  28
   4  -1  -4 183522. 2950.37  73
   4  -1  -3 4282.03 394.425  70
   4  -1  -3 5639.43 422.804  61
   4  -1  -3 3715.74 345.388  20
   4  -1  -3 5012.68 438.734  67
   4  -1  -3 3737.15 351.647  28
   4  -1  -3 3516.92 342.225  73
   4  -1  -2 645681. 6850.01  70
   4  -1  -2 669072. 7257.65  67
   4  -1  -2 672304. 6986.85  61
   4  -1  -2 705644. 7291.60  20
   4  -1  -2 626283. 6877.59  73
   4  -1  -1 343895. 3969.04  70
   4  -1  -1 351420. 4341.33  61
   4  -1  -1 353043. 4517.94  67
   4  -1  -1 359262. 4684.78  20
   4  -1  -1 349644. 4333.42  73
   4  -1   0 259408. 3711.06  69
   4  -1   0 239507. 3465.56  61
   4  -1   0 236959. 3709.09  20
   4  -1   0 245264. 3484.56  30
   4  -1   0 261008. 3368.52  16
   4  -1   0 244486. 3470.37  73
   4  -1   0 260730. 3348.12   6
   4  -1   0 243248. 3415.74  67
   4  -1   1 268308. 4000.02  69
   4  -1   1 284760. 3474.95  67
   4  -1   1 260344. 3938.13  20
   4  -1   1 237860. 3629.79  30
   4  -1   1 270141. 3721.84  16
   4  -1   1 243038. 3649.78  73
   4  -1   1 260701. 3665.64   6
   4  -1   2 215977. 3632.29  69
   4  -1   2 207889. 3422.90  20
   4  -1   2 187086. 3269.03  30
   4  -1   2 212695. 3408.40  16
   4  -1   2 188256. 3260.38  73
   4  -1   2 212513. 3407.37   6
   4  -1   3 187545. 3496.27  69
   4  -1   3 195277. 3212.98  20
   4  -1   3 174598. 3304.67  30
   4  -1   3 169562. 3289.04  73
   4  -1   3 199645. 3473.45  16
   4  -1   3 179488. 3331.55   6
   4  -1   4 138156. 3035.11  69
   4  -1   4 141223. 3067.31  13
   4  -1   4 139128. 2985.04  66
   4  -1   4 136955. 3064.79  30
   4  -1   4 135349. 3053.57  73
   4  -1   4 142591. 3063.69  16
   4  -1   4 137915. 3027.08   6
   4  -1   5 135727. 3061.82  69
   4  -1   5 141208. 3262.38  13
   4  -1   5 140669. 3195.24  66
   4  -1   5 136769. 2859.40  58
   4  -1   5 138467. 3337.69  30
   4  -1   5 136827. 3311.82  73
   4  -1   5 142071. 3219.09  16
   4  -1   6 28654.9 1285.55  69
   4  -1   6 29357.5 1482.56  13
   4  -1   6 27434.4 1398.35  66
   4  -1   6 29709.1 1541.54  30
   4  -1   6 28346.4 1504.27  73
   4  -1   7 90948.5 2670.69  13
   4  -1   7 89177.0 2588.93  66
   4  -1   7 92244.6 2823.50  30
   4  -1   7 89519.0 2799.76  73
   4  -1   8 55184.9 1896.00  90
   4  -1   8 52345.5 1854.59  57
   4  -1   8 57976.2 2113.18  30
   4  -1   8 56840.6 2102.47  73
   4  -1   9 77077.2 2012.80  57
   4  -1   9 77351.7 2010.13  90
   4  -1  10 97036.8 1743.68  57
   4  -1  10 91876.9 1701.19  90
   4  -1  10 91318.3 1926.74  78
   4  -1  10 92808.3 1961.45  48
   4   0 -11 84100.7 1550.03  51
   4   0 -10 96967.9 2072.16  51
   4   0  -9 48083.6 1483.97  93
   4   0  -9 42951.7 1477.65  21
   4   0  -9 52116.5 1557.36  83
   4   0  -9 49935.6 1612.46  51
   4   0  -9 46450.8 1502.82  50
   4   0  -8 42042.6 1584.29  70
   4   0  -8 42887.4 1449.45  93
   4   0  -8 39329.5 1469.58  21
   4   0  -8 45331.1 1533.77  83
   4   0  -8 41160.9 1513.91  78
   4   0  -8 42868.5 1550.70  51
   4   0  -8 41556.2 1461.24  50
   4   0  -7 146386. 3127.43  70
   4   0  -7 134305. 2679.93  93
   4   0  -7 141051. 2962.06  90
   4   0  -7 139426. 2876.57  21
   4   0  -7 139606. 2856.14  83
   4   0  -7 135462. 2831.25  78
   4   0  -7 142868. 2935.95  51
   4   0  -7 136965. 2728.26  50
   4   0  -6 225575. 3927.08  70
   4   0  -6 212296. 3416.55  67
   4   0  -6 216694. 3559.90  61
   4   0  -6 210810. 3561.84  21
   4   0  -6 223945. 3688.16  73
   4   0  -5 147169. 2926.32  70
   4   0  -5 140739. 2215.82  62
   4   0  -5 144210. 2643.24  61
   4   0  -5 141726. 2644.82  21
   4   0  -5 144602. 2709.69  73
   4   0  -4 191080. 3212.50  70
   4   0  -4 199253. 3173.93  67
   4   0  -4 185256. 2528.94  62
   4   0  -4 202634. 3079.83  61
   4   0  -4 185105. 2967.30  21
   4   0  -4 181072. 2994.82  28
   4   0  -4 187599. 3003.73  73
   4   0  -3 40794.9 1240.82  70
   4   0  -3 35549.9 1106.80  61
   4   0  -3 42004.2 1128.04  20
   4   0  -3 35777.2 882.316  62
   4   0  -3 37204.9 1198.33  67
   4   0  -3 35794.3 1117.19  28
   4   0  -3 37126.4 1126.72  73
   4   0  -2 460738. 5089.44  70
   4   0  -2 445016. 5158.17  61
   4   0  -2 470337. 5238.76  20
   4   0  -2 436015. 4554.05  62
   4   0  -2 459848. 5318.26  67
   4   0  -2 435513. 5049.85  73
   4   0  -1 669931. 6681.62  70
   4   0  -1 663170. 7106.31  67
   4   0  -1 681280. 7018.28  73
   4   0   0 371941. 4559.07  69
   4   0   0 360317. 4490.76  61
   4   0   0 377908. 4674.77  20
   4   0   0 381302. 4307.81  67
   4   0   0 348076. 4330.71  30
   4   0   0 336448. 4286.59  73
   4   0   0 387195. 4260.26  16
   4   0   1 82953.2 1890.21  69
   4   0   1 81073.5 1827.42  20
   4   0   1 84085.8 1520.94  67
   4   0   1 72566.5 1658.78  30
   4   0   1 72476.8 1654.30  73
   4   0   1 83935.0 1760.27  16
   4   0   1 83600.0 1755.04   6
   4   0   2 107738. 2300.31  69
   4   0   2 94305.4 2015.08  20
   4   0   2 97551.6 2064.01  30
   4   0   2 96082.4 2049.86  73
   4   0   2 111812. 2229.21  16
   4   0   2 105911. 2201.42   6
   4   0   3 199062. 3452.03  69
   4   0   3 198053. 3246.64  13
   4   0   3 198716. 3187.81  66
   4   0   3 192384. 3033.43  20
   4   0   3 197527. 3346.77  30
   4   0   3 192685. 3316.69  73
   4   0   3 205311. 3459.57  16
   4   0   4 153623. 3070.43  69
   4   0   4 155416. 3001.08  13
   4   0   4 158319. 2964.42  66
   4   0   4 159972. 3169.32  30
   4   0   4 157946. 3142.54  73
   4   0   4 151821. 3106.62  16
   4   0   5 228802. 3914.44  69
   4   0   5 222065. 3984.35  13
   4   0   5 224170. 3925.71  66
   4   0   5 218163. 3653.10  58
   4   0   5 231207. 4220.96  30
   4   0   5 230655. 4238.62  73
   4   0   6 8659.33 671.714  69
   4   0   6 10520.9 824.212  13
   4   0   6 10457.7 806.423  66
   4   0   6 9626.00 693.772  33
   4   0   6 8089.72 764.707  30
   4   0   6 8125.02 769.762  73
   4   0   7 89422.1 2573.41  13
   4   0   7 90120.9 2519.50  66
   4   0   7 81705.0 2228.64  33
   4   0   7 87166.9 2723.20  30
   4   0   7 85689.5 2713.30  73
   4   0   8 47802.0 1684.99  22
   4   0   8 49645.5 1664.57  33
   4   0   8 49620.5 2008.52  30
   4   0   8 51105.8 2044.91  73
   4   0   8 47027.4 1682.25  71
   4   0   9 165092. 3529.20  30
   4   0   9 161112. 3515.79  73
   4   0  10 179723. 3138.71  90
   4   0  10 179148. 3142.72  57
   4   1 -11 27469.3 789.032  51
   4   1 -10 154330. 2691.47  51
   4   1  -9 83713.7 2117.14  21
   4   1  -9 94078.2 2256.70  51
   4   1  -8 46152.8 1619.78  21
   4   1  -8 47804.1 1656.33  51
   4   1  -7 35792.4 1466.67  70
   4   1  -7 31567.6 1324.20  21
   4   1  -7 32802.3 1342.29  78
   4   1  -7 31499.8 1330.73  51
   4   1  -6 116864. 2713.62  70
   4   1  -6 113935. 2307.92  67
   4   1  -6 119861. 2265.91  62
   4   1  -6 119559. 2494.02  61
   4   1  -6 108002. 2447.26  90
   4   1  -6 115943. 2542.95  21
   4   1  -6 108560. 2428.19  78
   4   1  -6 102474. 2408.12  51
   4   1  -6 115658. 2569.83  73
   4   1  -5 460676. 6067.83  70
   4   1  -5 464771. 5710.81  61
   4   1  -5 481599. 5408.45  62
   4   1  -5 479018. 5852.05  21
   4   1  -5 475370. 5863.67  73
   4   1  -4 415107. 5204.77  67
   4   1  -4 436317. 5160.42  61
   4   1  -4 418213. 5123.40  21
   4   1  -4 434104. 4828.26  62
   4   1  -4 419133. 5172.96  28
   4   1  -4 423563. 5164.27  73
   4   1  -3 290878. 3958.81  70
   4   1  -3 286136. 3925.94  67
   4   1  -3 304177. 3905.00  61
   4   1  -3 288791. 3794.96  21
   4   1  -3 290604. 3617.66  20
   4   1  -3 297265. 3852.32  28
   4   1  -3 294971. 3839.51  73
   4   1  -3 282279. 3479.02  62
   4   1  -2 5335.72 389.628  70
   4   1  -2 4521.34 381.307  67
   4   1  -2 3608.60 335.341  61
   4   1  -2 3891.78 332.932  20
   4   1  -2 4827.50 326.539  62
   4   1  -2 3497.80 313.656  73
   4   1  -1 234176. 2849.33  70
   4   1  -1 227205. 2847.49  69
   4   1  -1 222716. 3036.60  67
   4   1  -1 222359. 2831.40  62
   4   1  -1 239768. 3225.05  61
   4   1  -1 201942. 3017.58  20
   4   1  -1 204249. 2918.46  73
   4   1   0 492781. 4547.04  70
   4   1   0 444557. 5037.95  69
   4   1   0 407602. 4749.10  67
   4   1   0 469985. 4832.29   4
   4   1   0 467394. 5234.81  61
   4   1   0 408961. 5041.74  20
   4   1   0 442551. 4951.19  73
   4   1   1 350875. 4405.22  69
   4   1   1 366584. 3842.90  67
   4   1   1 393116. 4493.67   4
   4   1   1 322105. 4167.44  20
   4   1   1 324914. 4108.63  30
   4   1   1 324916. 4099.97  73
   4   1   2 196693. 3138.87  69
   4   1   2 211426. 3289.16   4
   4   1   2 177410. 2773.28  20
   4   1   2 191700. 2911.33  30
   4   1   2 192560. 2915.84  73
   4   1   3 10295.9 568.076  66
   4   1   3 10973.1 732.299   4
   4   1   3 10733.9 554.793  20
   4   1   3 9734.61 611.954  30
   4   1   3 10443.7 636.344  73
   4   1   4 73158.2 1919.00  69
   4   1   4 80397.9 1866.82  13
   4   1   4 80102.3 1830.61  66
   4   1   4 77569.4 1739.70  58
   4   1   4 76727.0 1990.33  30
   4   1   4 75960.3 1987.82  73
   4   1   5 177186. 3195.32  69
   4   1   5 178668. 3194.25  13
   4   1   5 177957. 3131.53  66
   4   1   5 174408. 3619.47   4
   4   1   5 174972. 3017.33  58
   4   1   5 167843. 3366.73  30
   4   1   6 249382. 3939.01  69
   4   1   6 249581. 4183.39  13
   4   1   6 245753. 4080.34  66
   4   1   6 239945. 3951.09  58
   4   1   6 241845. 4098.54  33
   4   1   6 254948. 4610.43   4
   4   1   6 249046. 4509.29  30
   4   1   6 248280. 4533.75  73
   4   1   7 170350. 3297.02  22
   4   1   7 182652. 3605.65  13
   4   1   7 182147. 3519.50  66
   4   1   7 166278. 3222.79  82
   4   1   7 172971. 3541.01  33
   4   1   7 170082. 3835.82  30
   4   1   7 167713. 3829.05  73
   4   1   7 167814. 3284.59  71
   4   1   8 94472.8 2430.91  22
   4   1   8 100014. 2891.08  30
   4   1   8 96314.2 2856.09  73
   4   1   8 93690.6 2438.04  71
   4   1   9 56859.5 2015.27  30
   4   1   9 55075.2 1993.22  73
   4   1  10 99491.3 2184.43  33
   4   1  11 172154. 2724.26  90
   4   1  11 169135. 2714.55  57
   4   1  11 165894. 2552.78  78
   4   1  11 175948. 2639.01  48
   4   2 -11 16979.7 543.774  51
   4   2 -10 38934.1 1171.27  51
   4   2  -9 106516. 2019.52  41
   4   2  -9 116505. 2481.18  51
   4   2  -8 149943. 3112.50  21
   4   2  -8 165791. 3252.35  51
   4   2  -7 129551. 2871.98  21
   4   2  -7 133744. 2658.65  79
   4   2  -7 122348. 2793.35  78
   4   2  -7 127096. 2838.33  51
   4   2  -7 135360. 2617.32  44
   4   2  -6 91313.8 2167.19  42
   4   2  -6 102392. 2217.97  62
   4   2  -6 103161. 2288.56  61
   4   2  -6 100693. 2347.00  90
   4   2  -6 103113. 2442.44  21
   4   2  -6 96289.1 2166.99  79
   4   2  -6 100882. 2371.66  78
   4   2  -6 94655.9 2325.34  51
   4   2  -6 99485.2 2179.09  44
   4   2  -5 131594. 2552.67  67
   4   2  -5 141298. 2537.69  62
   4   2  -5 135497. 2716.93  21
   4   2  -5 136555. 2729.38  73
   4   2  -4 333695. 4787.86  70
   4   2  -4 354896. 4680.26  67
   4   2  -4 392637. 4754.52  61
   4   2  -4 371171. 4773.17  21
   4   2  -4 357042. 4446.27  62
   4   2  -4 363907. 4720.93  73
   4   2  -3 323226. 4280.26  70
   4   2  -3 299507. 4150.11  67
   4   2  -3 324958. 3977.50  62
   4   2  -3 321272. 4100.24  61
   4   2  -3 342171. 4177.59  21
   4   2  -3 312455. 3892.50  20
   4   2  -3 324851. 4147.04  28
   4   2  -3 326251. 4135.33  73
   4   2  -2 214594. 3010.35  70
   4   2  -2 197623. 2995.82  67
   4   2  -2 200559. 2818.04  62
   4   2  -2 212309. 3011.15  61
   4   2  -2 224905. 2958.45  21
   4   2  -2 208540. 2926.44  20
   4   2  -2 191068. 2845.48  28
   4   2  -2 195281. 2860.47  73
   4   2  -2 214842. 2447.51   1
   4   2  -1 25517.9 763.814  69
   4   2  -1 23351.2 825.596  67
   4   2  -1 25269.3 877.166  61
   4   2  -1 24339.5 852.801  20
   4   2  -1 23829.7 798.701  62
   4   2   0 82604.2 1621.77  69
   4   2   0 88980.0 1602.13  67
   4   2   0 91703.5 1815.05  61
   4   2   0 93623.0 1319.92   1
   4   2   0 83882.3 1443.42   4
   4   2   0 81358.0 1656.07  20
   4   2   1 182461. 2332.34  67
   4   2   1 177256. 2644.70   4
   4   2   1 179780. 2271.38   1
   4   2   2 243600. 3612.46   4
   4   2   2 236916. 3145.60  20
   4   2   2 234389. 3215.83  30
   4   2   2 232667. 3210.01  73
   4   2   3 136222. 2100.33  20
   4   2   3 130531. 2330.97  30
   4   2   3 131947. 2345.73  73
   4   2   4 159047. 2823.19  69
   4   2   4 158641. 2535.32  58
   4   2   4 150766. 2789.65  30
   4   2   4 150661. 2797.19  73
   4   2   5 203854. 3362.21  69
   4   2   5 218204. 4020.76   4
   4   2   5 213708. 3658.14  30
   4   2   5 204660. 3236.55  58
   4   2   5 208268. 3639.94  73
   4   2   6 228801. 3646.11  69
   4   2   6 234525. 3663.48  22
   4   2   6 234020. 4371.91   4
   4   2   6 238174. 3795.70  58
   4   2   6 243077. 4256.47  30
   4   2   6 242157. 4261.66  73
   4   2   6 234649. 3685.97  71
   4   2   7 196835. 3535.49  22
   4   2   7 193187. 3625.88  36
   4   2   7 181289. 3593.47  82
   4   2   7 198272. 3924.73  33
   4   2   7 209903. 4101.58  30
   4   2   7 206330. 4105.19  73
   4   2   7 193599. 3525.98  71
   4   2   8 171742. 3384.88  22
   4   2   8 165535. 3397.30  36
   4   2   8 161814. 3415.75  82
   4   2   8 170271. 3734.99  33
   4   2   8 175761. 3822.11  30
   4   2   8 172455. 3817.68  73
   4   2   8 172750. 3415.05  71
   4   2   9 55158.2 1766.21  36
   4   2   9 55238.9 1819.84  82
   4   2   9 56690.2 2010.40  33
   4   2   9 58968.8 2031.36  30
   4   2   9 59066.1 2039.38  73
   4   2  10 30280.3 1160.21  82
   4   2  10 32210.6 1340.96  33
   4   2  11 91683.3 2040.74  90
   4   2  11 91870.6 2049.79  57
   4   2  11 92104.0 1907.10  33
   4   2  11 90062.8 1798.38  78
   4   2  11 93496.0 1852.78  48
   4   3 -10 38788.9 844.472  41
   4   3 -10 37600.6 1036.61  51
   4   3  -9 79994.2 1701.21  41
   4   3  -9 84243.0 1972.22  51
   4   3  -8 158149. 3117.57  21
   4   3  -8 166085. 3192.33  51
   4   3  -7 158896. 3249.43  21
   4   3  -7 165378. 3174.68  79
   4   3  -7 160685. 3274.41  51
   4   3  -6 132612. 2703.15  42
   4   3  -6 137313. 2941.91  21
   4   3  -6 136154. 2739.98  80
   4   3  -6 128982. 2713.94  79
   4   3  -6 134684. 2868.05  51
   4   3  -6 130131. 2794.44  78
   4   3  -6 135691. 2743.65  44
   4   3  -5 43994.6 1410.30  62
   4   3  -5 44421.7 1370.96  61
   4   3  -5 41469.1 1463.03  21
   4   3  -4 213428. 3142.41   1
   4   3  -4 217674. 3324.43  62
   4   3  -4 215338. 3258.85  61
   4   3  -4 216863. 3423.12  21
   4   3  -3 200317. 3183.43  67
   4   3  -3 207950. 3121.28  62
   4   3  -3 195637. 2985.32  61
   4   3  -3 216271. 3157.79  21
   4   3  -3 213839. 2909.57   1
   4   3  -3 198377. 3060.66  73
   4   3  -2 266737. 3203.26  69
   4   3  -2 271921. 3706.94  67
   4   3  -2 296907. 3586.85  21
   4   3  -2 277709. 3575.80  61
   4   3  -2 252643. 3493.34  62
   4   3  -2 264829. 3269.44   1
   4   3  -2 277913. 3633.13  20
   4   3  -2 270670. 3507.55  28
   4   3  -2 270769. 3496.86  73
   4   3  -1 51909.3 1180.82  69
   4   3  -1 52871.2 1307.94  67
   4   3  -1 51861.7 1270.91  61
   4   3  -1 52257.8 1276.51  62
   4   3  -1 47535.5 1269.16  20
   4   3  -1 50704.2 1178.46  28
   4   3  -1 50351.7 1167.45  73
   4   3  -1 52679.2 1110.00   1
   4   3   0 3047.28 287.709  69
   4   3   0 3850.25 333.278  62
   4   3   0 3420.60 316.879  61
   4   3   0 3204.11 253.590   1
   4   3   0 3060.32 301.063  20
   4   3   0 3165.05 255.953   4
   4   3   1 202215. 3007.52  69
   4   3   1 221145. 2813.22   1
   4   3   1 225055. 2778.29  67
   4   3   1 192168. 3094.04  61
   4   3   1 222928. 2364.86  58
   4   3   1 208264. 2960.19   4
   4   3   1 206492. 2923.51  20
   4   3   2 327721. 4277.57  69
   4   3   2 344697. 4480.84   4
   4   3   2 348355. 3639.47  58
   4   3   2 328339. 3990.54  20
   4   3   3 455753. 5540.81  69
   4   3   3 464775. 5942.82   4
   4   3   3 466319. 4985.75  58
   4   3   4 100259. 2110.51  69
   4   3   4 96430.0 1845.13  58
   4   3   4 98105.5 2414.34   4
   4   3   4 102204. 2071.62  30
   4   3   4 102231. 2077.45  73
   4   3   5 230596. 3575.16  69
   4   3   5 237667. 3493.13  58
   4   3   5 240707. 4238.73   4
   4   3   5 246486. 3801.09  30
   4   3   5 242836. 3797.64  73
   4   3   6 109443. 2293.20  69
   4   3   6 117441. 2910.58   4
   4   3   6 109837. 2366.79  58
   4   3   6 117226. 2667.18  73
   4   3   7 231857. 3769.31  43
   4   3   7 219684. 4122.13  36
   4   3   7 218975. 4093.40  82
   4   3   7 227867. 4334.99  33
   4   3   8 168726. 3630.68  36
   4   3   8 166290. 3606.69  82
   4   3   8 169103. 3822.39  33
   4   3   9 67819.4 2147.97  36
   4   3   9 66019.6 2155.11  82
   4   3  10 14553.5 889.533  82
   4   3  10 15903.8 1002.35  33
   4   3  11 11841.6 713.560  90
   4   3  11 12173.5 721.066  57
   4   3  11 12498.2 734.388  33
   4   3  11 12208.5 652.910  82
   4   4 -10 71542.3 1227.49  51
   4   4  -9 28990.5 913.899  41
   4   4  -9 30146.6 1011.02  51
   4   4  -8 91215.1 2056.28  41
   4   4  -8 97316.2 2214.47  51
   4   4  -7 147315. 3037.85  21
   4   4  -7 151123. 3070.66  79
   4   4  -7 155774. 3093.64  51
   4   4  -7 156165. 3042.23  44
   4   4  -6 195091. 3440.72  42
   4   4  -6 200846. 3672.68  21
   4   4  -6 205581. 3571.38  80
   4   4  -6 196652. 3628.43  79
   4   4  -6 191640. 3533.13  51
   4   4  -6 200560. 3565.98  44
   4   4  -5 59862.8 1692.72  42
   4   4  -5 57789.9 1747.67  96
   4   4  -5 60559.5 1816.01  21
   4   4  -5 61675.5 1792.83  80
   4   4  -5 55446.0 1751.26  79
   4   4  -5 59958.6 1735.17  51
   4   4  -5 57591.8 1705.21  78
   4   4  -5 57636.5 1734.64  44
   4   4  -4 14620.9 787.598   1
   4   4  -4 14774.0 814.876  21
   4   4  -4 15386.3 823.088  62
   4   4  -3 57104.7 1498.46   1
   4   4  -3 59197.3 1430.60  61
   4   4  -3 61349.3 1565.65  21
   4   4  -3 60487.5 1596.87  62
   4   4  -2 167929. 2504.41  69
   4   4  -2 154572. 2677.37  62
   4   4  -2 170351. 2580.03  61
   4   4  -2 183934. 2653.39  21
   4   4  -2 173487. 2656.71   1
   4   4  -2 161104. 2509.83  73
   4   4  -1 631220. 6321.41   1
   4   4  -1 557821. 6195.34  69
   4   4  -1 601290. 6497.37  62
   4   4  -1 608670. 6185.40  61
   4   4  -1 570654. 6496.81  20
   4   4   0 94027.3 1852.52  69
   4   4   0 90924.9 1870.32  62
   4   4   0 88678.9 1871.59  20
   4   4   0 91854.7 1744.68   1
   4   4   1 112021. 2126.26  69
   4   4   1 107425. 2108.75  62
   4   4   1 113177. 2014.76   1
   4   4   1 110528. 2053.71  61
   4   4   1 105426. 2009.44   4
   4   4   1 113444. 2078.32  20
   4   4   2 138381. 2441.96   1
   4   4   2 132878. 2489.33   4
   4   4   2 139535. 2278.45  20
   4   4   3 351800. 4679.76  69
   4   4   3 379684. 4134.21  58
   4   4   3 342382. 4991.50   4
   4   4   3 399122. 4407.84  20
   4   4   4 333503. 4500.52  69
   4   4   4 327986. 4098.63  58
   4   4   4 319502. 4933.10   4
   4   4   5 244474. 3707.41  69
   4   4   5 251540. 4364.63   4
   4   4   6 85956.6 1955.42  69
   4   4   6 84999.3 2442.43   4
   4   4   6 86340.7 2054.62  58
   4   4   7 26698.5 1248.60  43
   4   4   7 27600.9 1393.54  36
   4   4   7 25837.8 1327.46  82
   4   4   7 29811.6 1471.33  33
   4   4   8 90889.9 2395.69  43
   4   4   8 87789.8 2655.74  36
   4   4   8 87896.5 2603.41  82
   4   4   8 84549.0 2666.80  33
   4   4   9 98667.1 2419.81  43
   4   4   9 92333.5 2673.49  36
   4   4   9 92674.9 2661.12  82
   4   4   9 95326.7 2796.72  33
   4   4  10 116420. 2786.95  82
   4   4  10 117567. 2924.76  33
   4   4  11 18496.9 857.519  90
   4   4  11 18449.3 856.213  57
   4   4  11 18392.4 935.275  33
   4   4  11 18151.2 883.473  82
   4   5  -9 56623.6 1150.62  41
   4   5  -9 57638.7 1180.31  51
   4   5  -8 35870.2 1142.36  41
   4   5  -8 37382.6 1180.67  51
   4   5  -7 38217.5 1344.37  51
   4   5  -6 86757.9 2134.39  42
   4   5  -6 86256.2 2225.11  80
   4   5  -6 88988.1 2348.72  79
   4   5  -6 84900.2 2151.89  51
   4   5  -6 87859.0 2261.35  44
   4   5  -5 92711.6 2219.06  42
   4   5  -5 94486.9 2397.28  96
   4   5  -5 95603.4 2377.08  80
   4   5  -5 91648.8 2382.59  79
   4   5  -5 93109.7 2191.16  51
   4   5  -5 96551.5 2375.65  44
   4   5  -4 109351. 2332.89  42
   4   5  -4 105301. 2458.40  96
   4   5  -4 110962. 2464.04   1
   4   5  -4 112733. 2447.76  55
   4   5  -4 105829. 2488.38  80
   4   5  -4 107626. 2517.21  79
   4   5  -4 107140. 2449.21  44
   4   5  -3 61477.2 1711.40   1
   4   5  -3 61559.0 1707.73  62
   4   5  -2 109683. 2250.04  62
   4   5  -2 106576. 2227.70   1
   4   5  -1 310758. 4154.76  69
   4   5  -1 307593. 4153.20   1
   4   5  -1 318406. 4263.15  62
   4   5   0 314733. 4191.11  69
   4   5   0 306507. 4135.83  62
   4   5   0 304496. 4108.80   1
   4   5   1 235702. 3515.08  69
   4   5   1 231770. 3428.85   1
   4   5   2 180957. 3028.68  69
   4   5   2 171953. 3020.91   1
   4   5   2 172264. 2968.65  62
   4   5   2 180194. 3100.88   4
   4   5   3 187373. 3149.38  69
   4   5   3 188837. 3416.50   4
   4   5   4 147043. 3074.35   4
   4   5   4 151367. 3247.82   1
   4   5   5 102164. 2231.58  69
   4   5   5 114856. 2798.02   4
   4   5   6 74964.4 2162.20  43
   4   5   6 76650.2 1853.45  69
   4   5   6 73606.6 1897.91  58
   4   5   6 79559.5 2372.64   4
   4   5   6 76847.3 2226.76  82
   4   5   6 76590.7 2271.54  33
   4   5   7 49553.6 1837.59  43
   4   5   7 54718.0 1746.55  92
   4   5   7 52219.8 1944.64  82
   4   5   7 49919.8 1953.69  33
   4   5   8 81317.4 2418.73  43
   4   5   8 80161.8 2547.89  82
   4   5   8 83927.4 2638.87  33
   4   5   9 65328.9 2079.43  43
   4   5   9 67768.5 2291.19  82
   4   5   9 68507.0 2344.49  33
   4   5  10 127167. 2683.55  43
   4   5  10 131101. 3053.99  33
   4   5  10 123112. 2934.08  82
   4   5  11 72724.5 1897.99  33
   4   5  11 70054.3 1849.61  82
   4   6  -8 19140.8 694.369  41
   4   6  -8 18356.6 624.895  51
   4   6  -7 30406.1 1090.36  41
   4   6  -7 32550.5 1060.33  51
   4   6  -6 58556.2 1636.81  42
   4   6  -6 62730.5 1806.34  80
   4   6  -6 59675.7 1617.54  51
   4   6  -5 105680. 2569.89  80
   4   6  -5 107164. 2603.11  79
   4   6  -5 109098. 2533.08  44
   4   6  -4 224624. 3807.63  55
   4   6  -4 216841. 3930.00  80
   4   6  -4 218103. 3888.60  79
   4   6  -4 212546. 3873.99  96
   4   6  -4 218372. 3779.94  44
   4   6  -3 65377.0 1923.19  96
   4   6  -3 66771.0 1920.45  87
   4   6  -3 63094.5 1873.02  55
   4   6  -3 63640.6 1951.85  80
   4   6  -3 62359.7 1871.44  79
   4   6  -3 68388.0 1884.59  44
   4   6  -2 96251.9 2282.14  96
   4   6  -2 107651. 2293.70  62
   4   6  -2 106093. 2317.43  87
   4   6  -2 90298.8 2227.75  55
   4   6  -2 93243.8 2311.01  80
   4   6  -2 101790. 2294.77  79
   4   6  -2 92992.4 2262.16   1
   4   6  -2 102608. 2238.24  44
   4   6  -1 158092. 2809.42  62
   4   6  -1 149085. 2890.48   1
   4   6   0 416692. 5135.86  62
   4   6   0 377634. 5203.33   1
   4   6   1 258176. 4015.83  69
   4   6   1 258285. 4030.80   1
   4   6   2 90380.6 2151.82  69
   4   6   2 88349.6 1996.02  62
   4   6   3 46956.6 1526.55  69
   4   6   3 48382.3 1689.36   1
   4   6   3 49593.8 1516.88  62
   4   6   4 28866.6 1177.84  69
   4   6   4 29014.9 1405.63   1
   4   6   4 30400.1 1377.42   4
   4   6   5 213114. 3930.50  43
   4   6   5 219561. 4484.65   1
   4   6   5 219532. 3972.67  92
   4   6   5 224195. 4210.29   4
   4   6   6 69860.1 2229.03  43
   4   6   6 76201.5 1883.34  69
   4   6   6 71837.1 2189.98  92
   4   6   6 76393.2 2264.46  33
   4   6   6 74888.0 2259.46  82
   4   6   6 73501.0 2020.07  49
   4   6   7 113410. 2971.61  43
   4   6   7 113662. 2807.76  92
   4   6   7 114297. 2987.78  33
   4   6   8 47967.4 1898.79  43
   4   6   8 46934.1 1712.06  92
   4   6   8 48859.6 1937.59  33
   4   6   8 47275.2 1933.31  82
   4   6   9 55494.9 2024.27  33
   4   6   9 55114.8 2028.09  82
   4   6  10 104120. 2481.00  43
   4   6  10 109328. 2627.24  33
   4   6  10 101209. 2589.33  82
   4   6  11 130595. 2323.58  43
   4   6  11 129124. 2431.70  33
   4   6  11 126129. 2528.32  82
   4   7  -7 47926.1 1145.75  41
   4   7  -6 33593.4 1066.73  42
   4   7  -6 35063.2 1149.87  41
   4   7  -6 34705.6 1201.43  80
   4   7  -5 63877.6 1715.06  42
   4   7  -5 65748.8 1773.85  41
   4   7  -5 66312.1 1920.47  80
   4   7  -4 185232. 3313.28  42
   4   7  -4 192651. 3625.67  96
   4   7  -4 191057. 3501.49  55
   4   7  -4 186857. 3637.24  80
   4   7  -4 186011. 3490.44  79
   4   7  -3 241342. 4236.33  96
   4   7  -3 254056. 4295.33  87
   4   7  -3 246628. 4243.94  55
   4   7  -3 245051. 4393.04  80
   4   7  -3 259292. 4190.54  79
   4   7  -2 72652.2 2067.69  96
   4   7  -2 73828.0 2043.16  91
   4   7  -2 76305.5 2108.04  87
   4   7  -2 73486.9 2117.65  55
   4   7  -2 67331.5 2109.53  80
   4   7  -2 79684.6 2036.66  79
   4   7  -2 79710.3 1959.05  44
   4   7  -1 58499.7 1778.56  96
   4   7  -1 61253.4 1827.59  91
   4   7  -1 60024.2 1792.82  87
   4   7  -1 56285.6 1817.79  55
   4   7  -1 57570.8 1838.87  80
   4   7   0 63950.0 1746.90  88
   4   7   0 59386.2 1861.25   1
   4   7   0 64088.9 1818.92  96
   4   7   0 63625.8 1807.34  87
   4   7   0 58807.0 1798.07  55
   4   7   0 61056.7 1807.04  80
   4   7   0 64580.1 1734.48  49
   4   7   1 174901. 3214.70  92
   4   7   1 177575. 3338.95  34
   4   7   1 174646. 3167.20  96
   4   7   1 177175. 3221.66  88
   4   7   1 176220. 3148.74  87
   4   7   1 159012. 3047.78  55
   4   7   1 176985. 3232.86  49
   4   7   1 157014. 3248.13   1
   4   7   2 176509. 3331.51  88
   4   7   2 178695. 3351.88  34
   4   7   2 174987. 3327.87  92
   4   7   2 167598. 3276.69  49
   4   7   3 70140.1 1993.31  69
   4   7   3 67122.4 2033.69  92
   4   7   3 63326.4 1941.65  88
   4   7   3 66688.4 1934.88  34
   4   7   3 66454.1 2114.75   1
   4   7   3 61309.8 1941.59  49
   4   7   4 17012.4 985.927  43
   4   7   4 18811.6 989.840  69
   4   7   4 17740.5 1127.54   1
   4   7   4 16987.9 1001.90  88
   4   7   4 17134.3 950.896  34
   4   7   4 18194.1 987.352  96
   4   7   4 17693.9 1066.17  92
   4   7   5 103513. 2703.58  43
   4   7   5 104848. 2401.10  69
   4   7   5 99599.9 2729.32  92
   4   7   5 100417. 2502.20  96
   4   7   5 104162. 2561.33  88
   4   7   6 121064. 3121.80  43
   4   7   6 126383. 2558.04  69
   4   7   6 124120. 3134.84  92
   4   7   6 128445. 2829.87  88
   4   7   6 121200. 2924.98  82
   4   7   6 119466. 2869.77  49
   4   7   7 130609. 3244.42  92
   4   7   7 134633. 3234.81  82
   4   7   7 130478. 2904.80  49
   4   7   8 116742. 3102.89  43
   4   7   8 117435. 2957.58  92
   4   7   8 117285. 3032.83  82
   4   7   9 56585.8 1983.39  43
   4   7   9 51823.6 1726.21  92
   4   7   9 58280.6 1846.82  33
   4   7   9 54038.9 1923.31  82
   4   7  10 37679.1 1422.86  43
   4   7  10 39966.4 1320.65  33
   4   7  10 36926.2 1419.77  82
   4   7  11 85025.3 1786.29  43
   4   7  11 82840.5 1804.94  82
   4   8  -6 91924.0 1510.32  41
   4   8  -5 31855.0 1028.81  42
   4   8  -5 33691.8 1018.32  41
   4   8  -5 32832.7 1187.74  80
   4   8  -4 39982.6 1314.73  42
   4   8  -4 42977.0 1269.55  41
   4   8  -4 40943.6 1509.88  80
   4   8  -3 198899. 3443.67  42
   4   8  -3 204688. 3639.25  96
   4   8  -3 202389. 3697.42  55
   4   8  -3 193037. 3770.63  80
   4   8  -2 125666. 2777.76  96
   4   8  -2 127167. 2886.53  87
   4   8  -2 120498. 2838.36  55
   4   8  -2 117585. 2915.35  80
   4   8  -1 84164.2 2304.87  87
   4   8  -1 79047.1 2300.37  55
   4   8  -1 80534.7 2337.90  80
   4   8   0 10826.7 743.105  96
   4   8   0 10722.3 723.162  88
   4   8   0 9834.47 753.243  87
   4   8   0 9380.58 751.504  55
   4   8   0 9311.34 732.964  80
   4   8   0 9362.22 661.481  49
   4   8   1 17399.2 935.442  96
   4   8   1 15725.7 942.988  88
   4   8   1 16914.0 1048.18  34
   4   8   1 16315.5 969.447  87
   4   8   1 18063.7 1011.84  55
   4   8   1 18589.1 1016.26  49
   4   8   2 137095. 2976.61  87
   4   8   2 133146. 3069.35  88
   4   8   2 138819. 3180.28  34
   4   8   2 145466. 2919.41  55
   4   8   2 137967. 3066.43  92
   4   8   2 143471. 3162.26  49
   4   8   3 188119. 3762.91  34
   4   8   3 183492. 3763.79  88
   4   8   3 178013. 3490.86  87
   4   8   3 183490. 3788.73  49
   4   8   3 179854. 3740.62  92
   4   8   4 108806. 2661.45  43
   4   8   4 106124. 2893.29  92
   4   8   4 111422. 2843.42  88
   4   8   4 106296. 2750.09  34
   4   8   4 115337. 2730.97  87
   4   8   4 105211. 2853.87  49
   4   8   5 32896.5 1505.40  43
   4   8   5 35669.9 1681.30  92
   4   8   5 36708.8 1565.31  88
   4   8   5 35120.4 1490.36  34
   4   8   5 34386.5 1438.38  87
   4   8   5 32667.8 1546.65  49
   4   8   6 98416.0 2785.19  43
   4   8   6 95845.2 2860.82  92
   4   8   6 106735. 2657.70  88
   4   8   6 104104. 2511.16  34
   4   8   6 99434.6 2736.01  49
   4   8   7 52783.4 2028.27  43
   4   8   7 52566.0 2048.19  92
   4   8   7 54194.5 1722.84  88
   4   8   7 51546.3 1822.56  49
   4   8   8 181775. 3853.05  43
   4   8   8 178672. 3771.30  92
   4   8   8 183950. 3314.83  49
   4   8   9 108204. 2692.97  43
   4   8   9 109228. 2601.89  92
   4   8   9 113178. 2512.84  82
   4   8  10 21274.6 993.272  43
   4   8  10 22119.4 889.672  92
   4   8  10 22580.3 916.326  82
   4   8  11 20590.1 754.839  43
   4   9  -4 25210.5 863.184  42
   4   9  -4 25139.3 1007.20  80
   4   9  -3 29542.7 1088.25  42
   4   9  -3 30620.5 1208.18  55
   4   9  -3 29484.0 1243.11  80
   4   9  -2 62644.4 1884.60  87
   4   9  -2 59329.3 1854.35  55
   4   9  -2 59319.6 1904.17  80
   4   9  -1 81316.1 2005.72  96
   4   9  -1 76173.9 2173.28  87
   4   9  -1 77560.5 2243.98  55
   4   9  -1 78182.7 2252.35  80
   4   9   0 75225.0 2186.35  87
   4   9   0 70896.3 2177.05  55
   4   9   0 74146.8 2142.32  80
   4   9   1 38078.4 1496.32  88
   4   9   1 37188.3 1538.35  87
   4   9   1 37125.1 1524.61  55
   4   9   1 36645.3 1416.88  49
   4   9   2 42197.9 1675.73  88
   4   9   2 43327.1 1780.87  34
   4   9   2 37931.2 1584.36  87
   4   9   2 43833.1 1588.08  55
   4   9   2 42315.7 1663.60  49
   4   9   3 141034. 3243.08  92
   4   9   3 141330. 3286.83  88
   4   9   3 133413. 3264.83  34
   4   9   3 129426. 3046.38  87
   4   9   3 136095. 3246.53  49
   4   9   4 106582. 2913.14  92
   4   9   4 109561. 2899.29  88
   4   9   4 105707. 2860.36  34
   4   9   4 106411. 2728.78  87
   4   9   4 106189. 2924.38  49
   4   9   5 84403.9 2657.04  92
   4   9   5 85089.9 2468.36  34
   4   9   5 83234.3 2357.44  87
   4   9   5 88389.0 2642.55  49
   4   9   6 94766.5 2562.59  43
   4   9   6 88103.2 2710.55  92
   4   9   6 104866. 2631.23  88
   4   9   6 99906.4 2529.21  34
   4   9   6 95990.7 2460.04  87
   4   9   6 96932.8 2703.12  49
   4   9   7 41274.4 1643.31  43
   4   9   7 41108.7 1756.79  92
   4   9   7 44727.5 1537.41  88
   4   9   7 41618.1 1617.63  49
   4   9   8 55949.9 1854.66  43
   4   9   8 57158.4 1682.94  49
   4   9   8 58209.5 1957.35  92
   4   9   9 74624.9 1972.17  43
   4   9   9 79502.0 2028.73  92
   4   9  10 52401.1 1288.90  92
   4   9  10 53212.1 1367.55  43
   4  10  -3 14803.3 580.212  42
   4  10  -3 14651.1 670.138  80
   4  10  -2 31760.8 1050.96  42
   4  10  -2 32462.4 1158.06  80
   4  10  -1 89996.0 2170.08  87
   4  10  -1 89113.0 2126.94  80
   4  10   0 93589.7 2322.68  87
   4  10   0 98202.9 2407.42  55
   4  10   0 94903.3 2195.05  80
   4  10   1 76221.8 2151.18  87
   4  10   1 74966.5 2096.59  55
   4  10   2 18169.4 1020.64  88
   4  10   2 16778.7 994.878  87
   4  10   2 19521.2 988.929  55
   4  10   2 19294.0 999.699  49
   4  10   3 73010.3 2191.89  88
   4  10   3 70708.8 2137.44  49
   4  10   4 109901. 2754.88  88
   4  10   4 108699. 2799.77  34
   4  10   4 95258.3 2496.87  87
   4  10   4 101222. 2609.16  92
   4  10   4 103121. 2705.58  49
   4  10   5 93180.1 2590.39  92
   4  10   5 97938.0 2555.66  34
   4  10   5 92844.1 2382.61  87
   4  10   5 98734.4 2640.55  49
   4  10   6 63046.2 2081.72  92
   4  10   6 69343.2 1955.03  34
   4  10   6 63077.0 1828.24  87
   4  10   6 65678.9 2043.71  49
   4  10   7 32701.3 1143.76  87
   4  10   7 34337.8 1333.61  49
   4  10   7 31759.3 1386.98  92
   4  10   8 27143.9 1156.44  92
   4  10   8 29067.0 909.869  88
   4  10   8 27036.4 989.314  49
   4  10   8 26740.7 975.648  43
   4  10   9 32964.9 1085.79  92
   4  10   9 33692.9 943.800  43
   4  11  -1 46483.7 1075.98  42
   4  11   0 70823.5 1556.42  42
   4  11   0 74604.3 1705.17  87
   4  11   1 104158. 2213.01  87
   4  11   1 112771. 2146.78  55
   4  11   2 61374.2 1548.48  88
   4  11   2 66777.8 1523.13  55
   4  11   3 29444.7 1145.80  88
   4  11   3 25685.1 1086.90  87
   4  11   3 27758.5 1032.65  49
   4  11   4 42467.4 1403.43  87
   4  11   4 46804.7 1500.93  88
   4  11   4 45279.7 1444.94  49
   4  11   5 50961.8 1460.31  87
   4  11   5 52408.6 1562.41  49
   4  11   6 62463.1 1583.67  88
   4  11   6 61711.1 1623.75  49
   4  11   7 27959.7 887.977  88
   4  11   7 26517.2 976.223  92
   4  11   7 25961.8 923.815  49
   5  -8  -5 75147.3 1299.88  50
   5  -8  -5 73317.7 1291.95  77
   5  -8  -4 54941.3 1140.25  50
   5  -8  -4 52280.8 1113.15  77
   5  -8  -4 54607.7 1067.16  76
   5  -8  -3 101280. 1658.50  50
   5  -8  -3 100228. 1616.79  77
   5  -8  -2 9430.12 441.351  50
   5  -8  -2 9056.09 422.134  76
   5  -7  -8 113439. 1685.99  93
   5  -7  -8 115403. 1678.26  50
   5  -7  -7 121026. 1981.39  93
   5  -7  -7 118399. 1908.01  84
   5  -7  -7 121572. 1962.17  50
   5  -7  -7 117984. 1836.98  77
   5  -7  -6 41289.5 1168.93  93
   5  -7  -6 39777.0 1105.44  84
   5  -7  -6 41401.3 1158.28  50
   5  -7  -6 41474.4 1141.05  77
   5  -7  -6 39384.4 1007.26  76
   5  -7  -5 25831.8 967.701  93
   5  -7  -5 24264.7 891.853  84
   5  -7  -5 24069.8 932.747  50
   5  -7  -5 23922.5 926.259  77
   5  -7  -5 23593.6 853.141  76
   5  -7  -4 32294.3 1055.81  84
   5  -7  -4 32133.6 956.206  32
   5  -7  -4 33658.6 1155.08  93
   5  -7  -4 32704.4 1142.61  50
   5  -7  -4 32500.7 1142.59  77
   5  -7  -4 32115.0 1081.14  76
   5  -7  -3 113967. 2286.76  38
   5  -7  -3 112919. 2290.31  93
   5  -7  -3 115867. 2144.28  84
   5  -7  -3 110728. 2060.37  32
   5  -7  -3 117232. 2348.06  50
   5  -7  -3 117529. 2330.83  77
   5  -7  -3 113869. 2246.09  76
   5  -7  -2 130819. 2449.25  38
   5  -7  -2 128470. 2446.93  93
   5  -7  -2 123617. 2189.01  84
   5  -7  -2 124851. 2460.29  50
   5  -7  -2 122956. 2391.68  77
   5  -7  -2 121813. 2389.51  76
   5  -7  -1 28012.7 1030.85  38
   5  -7  -1 29190.1 1055.43  93
   5  -7  -1 28505.4 904.380  84
   5  -7  -1 27879.7 875.826  53
   5  -7  -1 28089.2 1076.12  50
   5  -7  -1 26653.4 997.960  77
   5  -7   0 36960.6 1131.27  38
   5  -7   0 35834.5 1127.19  93
   5  -7   0 35834.9 955.879  53
   5  -7   0 36025.1 1077.72  77
   5  -7   0 37048.0 1194.89  50
   5  -7   1 54213.2 1269.10  38
   5  -7   1 53629.3 1276.40  93
   5  -7   1 53408.7 1358.20  50
   5  -7   2 93402.1 1638.16  50
   5  -6  -9 42596.4 1016.06  93
   5  -6  -9 44612.5 1027.80  84
   5  -6  -9 42343.4 977.315  50
   5  -6  -8 25296.1 905.809  93
   5  -6  -8 25766.4 901.133  84
   5  -6  -8 25775.4 884.280  50
   5  -6  -7 106027. 2173.79  93
   5  -6  -7 107703. 2172.05  84
   5  -6  -7 104102. 1863.41  53
   5  -6  -7 101765. 2085.44  50
   5  -6  -7 100293. 1955.66  77
   5  -6  -6 118735. 2470.23  93
   5  -6  -6 114990. 2408.30  84
   5  -6  -6 118532. 2187.19  53
   5  -6  -6 113914. 2362.99  50
   5  -6  -6 117271. 2349.00  77
   5  -6  -6 115422. 2157.08  76
   5  -6  -5 56895.4 1723.60  93
   5  -6  -5 57622.4 1692.69  84
   5  -6  -5 58489.5 1556.23  53
   5  -6  -5 57438.2 1687.55  50
   5  -6  -5 54252.8 1641.56  77
   5  -6  -5 54554.0 1541.06  76
   5  -6  -4 38490.9 1435.46  38
   5  -6  -4 40905.4 1488.10  93
   5  -6  -4 37862.9 1383.31  84
   5  -6  -4 38260.6 1296.93  53
   5  -6  -4 39601.5 1446.69  50
   5  -6  -4 39568.8 1439.38  77
   5  -6  -4 34968.5 1288.53  76
   5  -6  -3 41047.2 1459.33  67
   5  -6  -3 42869.7 1544.30  38
   5  -6  -3 45830.1 1606.77  93
   5  -6  -3 42044.4 1481.30  84
   5  -6  -3 43388.1 1430.61  53
   5  -6  -3 43373.7 1558.14  50
   5  -6  -3 39205.2 1424.86  76
   5  -6  -2 192075. 3550.05  38
   5  -6  -2 188356. 3382.32  84
   5  -6  -2 193790. 3596.98  93
   5  -6  -2 197028. 3378.85  53
   5  -6  -2 189618. 3562.13  50
   5  -6  -1 104197. 2495.74  38
   5  -6  -1 105259. 2539.62  93
   5  -6  -1 103942. 2348.49  84
   5  -6  -1 102792. 2354.64  53
   5  -6  -1 96834.3 2468.19  50
   5  -6   0 84068.7 2186.19  38
   5  -6   0 80227.2 2170.25  93
   5  -6   0 81660.9 1991.72  84
   5  -6   0 80646.5 2049.22  53
   5  -6   1 42358.2 1470.83  38
   5  -6   1 41070.7 1292.52  84
   5  -6   1 40048.2 1368.71  53
   5  -6   1 39977.1 1446.43  93
   5  -6   2 51807.0 1542.00  38
   5  -6   2 54609.5 1364.75  84
   5  -6   2 53230.4 1504.38  53
   5  -6   2 52299.2 1567.72  93
   5  -6   3 147428. 2500.80  38
   5  -6   3 145458. 2523.63  93
   5  -6   3 140460. 2384.31  53
   5  -5 -10 76757.3 1359.71  93
   5  -5 -10 76946.0 1364.57  84
   5  -5 -10 77748.5 1331.87  83
   5  -5 -10 77202.2 1309.71  50
   5  -5  -9 74856.9 1630.61  93
   5  -5  -9 73357.8 1613.25  84
   5  -5  -9 75511.2 1577.62  83
   5  -5  -9 74327.1 1568.72  50
   5  -5  -8 18777.3 874.326  93
   5  -5  -8 19758.1 900.854  84
   5  -5  -8 18589.7 839.788  83
   5  -5  -8 19781.0 870.094  50
   5  -5  -7 25323.4 1097.60  93
   5  -5  -7 23166.7 1066.48  84
   5  -5  -7 24482.8 1036.89  83
   5  -5  -7 22911.1 983.154  53
   5  -5  -7 23579.2 1026.43  50
   5  -5  -7 26336.9 990.780  77
   5  -5  -6 95127.5 2244.61  70
   5  -5  -6 108662. 2519.15  93
   5  -5  -6 108039. 2512.43  84
   5  -5  -6 98911.5 2264.44  83
   5  -5  -6 112259. 2415.74  53
   5  -5  -6 107594. 2431.87  50
   5  -5  -6 107861. 2355.76  77
   5  -5  -6 99689.4 2311.88  67
   5  -5  -5 200598. 3703.42  38
   5  -5  -5 200846. 3722.89  93
   5  -5  -5 200021. 3600.75  67
   5  -5  -5 215891. 3796.67  84
   5  -5  -5 207601. 3592.34  53
   5  -5  -5 207681. 3687.63  50
   5  -5  -5 209081. 3650.77  77
   5  -5  -5 206118. 3400.61  76
   5  -5  -4 94188.7 2439.56  67
   5  -5  -4 107308. 2618.26  38
   5  -5  -4 107201. 2639.44  93
   5  -5  -4 95947.8 2239.23  20
   5  -5  -4 106303. 2570.12  84
   5  -5  -4 100266. 2424.42  53
   5  -5  -4 99119.6 2483.05  50
   5  -5  -4 99887.6 2336.91  76
   5  -5  -3 69492.2 2063.34  67
   5  -5  -3 71243.5 2127.74  38
   5  -5  -3 69639.7 2126.93  93
   5  -5  -3 64536.0 1955.64  20
   5  -5  -3 68315.6 2042.78  84
   5  -5  -3 67246.5 1993.22  53
   5  -5  -3 67050.1 2041.11  50
   5  -5  -2 56026.0 1827.80  67
   5  -5  -2 61027.2 1981.98  38
   5  -5  -2 56573.8 1910.02  20
   5  -5  -2 57272.2 1870.26  84
   5  -5  -2 56249.8 1857.79  53
   5  -5  -2 62135.5 2021.30  93
   5  -5  -2 55962.7 1895.08  50
   5  -5  -1 140075. 2946.58  69
   5  -5  -1 141691. 2942.73  67
   5  -5  -1 138846. 3128.05  38
   5  -5  -1 137240. 3158.62  93
   5  -5  -1 137676. 3187.31  20
   5  -5  -1 143577. 3068.95  84
   5  -5  -1 142272. 3106.93  53
   5  -5   0 163740. 3423.54  69
   5  -5   0 175490. 3631.03  93
   5  -5   0 176820. 3656.49  20
   5  -5   0 176716. 3437.95  84
   5  -5   0 173997. 3543.54  53
   5  -5   1 122667. 2948.07  69
   5  -5   1 123924. 2953.69  20
   5  -5   1 128585. 2997.84  53
   5  -5   1 129466. 2802.27  16
   5  -5   2 57631.5 1758.95  84
   5  -5   2 55971.2 1881.25  53
   5  -5   3 31373.4 1200.37  84
   5  -5   3 29748.8 1299.26  53
   5  -5   4 84743.9 1822.50  84
   5  -5   4 80261.6 2047.74  53
   5  -5   5 57250.4 1467.97  53
   5  -4 -10 52041.5 1210.70  93
   5  -4 -10 51284.8 1200.97  84
   5  -4 -10 52198.2 1264.45  83
   5  -4 -10 49830.8 1149.05  50
   5  -4  -9 79577.4 1825.88  93
   5  -4  -9 80659.2 1832.02  84
   5  -4  -9 82313.7 1909.49  83
   5  -4  -9 80314.2 1610.75  51
   5  -4  -9 80222.7 1769.48  50
   5  -4  -8 83342.9 2054.98  93
   5  -4  -8 87767.8 2112.30  84
   5  -4  -8 86296.9 2156.07  83
   5  -4  -8 87885.7 1957.47  51
   5  -4  -8 83834.5 2001.65  50
   5  -4  -7 63883.3 1871.24  70
   5  -4  -7 61365.5 1711.44  67
   5  -4  -7 66384.1 1913.91  93
   5  -4  -7 66471.6 1936.36  84
   5  -4  -7 68886.5 1986.99  83
   5  -4  -7 69372.7 1919.32  53
   5  -4  -7 68742.6 1887.43  50
   5  -4  -6 62274.2 1864.61  70
   5  -4  -6 67523.4 1985.60  93
   5  -4  -6 66379.9 1983.77  84
   5  -4  -6 67290.0 1947.35  53
   5  -4  -6 62773.6 1848.65  50
   5  -4  -6 67547.0 1801.06  77
   5  -4  -6 61336.9 1833.17  67
   5  -4  -5 175623. 3417.21  38
   5  -4  -5 177906. 3456.73  93
   5  -4  -5 170968. 3429.02  84
   5  -4  -5 175785. 3373.81  53
   5  -4  -5 182348. 3369.21  50
   5  -4  -5 180182. 3281.17  77
   5  -4  -5 172456. 3374.57  67
   5  -4  -4 92355.2 2220.88  70
   5  -4  -4 95805.8 2459.02  67
   5  -4  -4 96354.5 2450.33  38
   5  -4  -4 94709.4 2450.47  93
   5  -4  -4 93767.9 2218.63  20
   5  -4  -4 92127.4 2405.89  84
   5  -4  -4 95072.8 2392.42  53
   5  -4  -4 91835.0 2335.04  50
   5  -4  -4 95518.8 2184.53  76
   5  -4  -3 140704. 3066.76  67
   5  -4  -3 139849. 3048.95  38
   5  -4  -3 140561. 3079.77  93
   5  -4  -3 141192. 2991.98  20
   5  -4  -3 136419. 2991.46  84
   5  -4  -3 144937. 3049.97  53
   5  -4  -3 138372. 2975.08  50
   5  -4  -2 142265. 3112.77  38
   5  -4  -2 141772. 3149.07  93
   5  -4  -2 148434. 3226.82  20
   5  -4  -2 146703. 3099.77  84
   5  -4  -2 136253. 3021.07  53
   5  -4  -2 147711. 3141.41  67
   5  -4  -2 139350. 3052.06  50
   5  -4  -1 157919. 3224.53  69
   5  -4  -1 159964. 3419.10  93
   5  -4  -1 161146. 3259.30  67
   5  -4  -1 159637. 3508.79  20
   5  -4  -1 166216. 3339.43  84
   5  -4  -1 170879. 3446.66  53
   5  -4   0 189149. 3785.07  69
   5  -4   0 186772. 3903.17  20
   5  -4   0 190944. 3691.63  84
   5  -4   0 194012. 3847.53  53
   5  -4   0 198430. 3506.02  67
   5  -4   1 51161.1 1921.41  69
   5  -4   1 52968.5 1940.08  20
   5  -4   1 50291.3 1826.63  84
   5  -4   1 55352.9 1770.89  73
   5  -4   1 51527.1 1765.83  16
   5  -4   2 45272.0 1824.28  69
   5  -4   2 45893.6 1749.07  20
   5  -4   2 48890.2 1689.60  73
   5  -4   2 45814.6 1737.79  16
   5  -4   3 29198.4 1266.28  20
   5  -4   3 30878.7 1333.20  73
   5  -4   3 27785.7 1342.70  16
   5  -4   4 145090. 2808.22  78
   5  -4   4 153757. 3077.17  30
   5  -4   4 140989. 2811.91  48
   5  -4   4 149375. 3024.65  73
   5  -4   5 124940. 2387.91  78
   5  -4   5 122509. 2396.59  48
   5  -4   6 76996.2 1644.07  84
   5  -3 -11 13427.4 507.394  83
   5  -3 -10 69406.7 1497.02  93
   5  -3 -10 69818.2 1486.48  84
   5  -3 -10 73040.5 1654.48  83
   5  -3 -10 73568.2 1411.25  51
   5  -3 -10 69777.7 1467.79  50
   5  -3  -9 147684. 2721.73  93
   5  -3  -9 152815. 2737.10  84
   5  -3  -9 164115. 2999.35  83
   5  -3  -9 159587. 2694.60  51
   5  -3  -9 155028. 2711.36  50
   5  -3  -8 136155. 2762.75  93
   5  -3  -8 136280. 2760.05  84
   5  -3  -8 136492. 2932.19  83
   5  -3  -8 133057. 2695.04  51
   5  -3  -8 134195. 2677.61  50
   5  -3  -7 75057.4 2134.12  70
   5  -3  -7 80604.8 2022.19  67
   5  -3  -7 81525.0 2140.95  93
   5  -3  -7 80778.3 1974.85  90
   5  -3  -7 80739.5 2164.95  84
   5  -3  -7 78843.8 2147.58  53
   5  -3  -7 81317.1 2073.47  50
   5  -3  -6 15727.8 951.312  70
   5  -3  -6 15685.0 917.642  93
   5  -3  -6 15831.3 917.727  67
   5  -3  -6 16419.6 947.474  84
   5  -3  -6 15323.0 919.230  53
   5  -3  -6 18342.4 951.373  50
   5  -3  -6 17052.0 864.875  73
   5  -3  -5 160267. 3211.47  70
   5  -3  -5 162624. 3179.40  38
   5  -3  -5 159952. 3240.48  67
   5  -3  -5 165315. 3218.82  93
   5  -3  -5 166308. 3250.87  84
   5  -3  -5 162483. 3209.20  53
   5  -3  -5 161189. 3078.93  50
   5  -3  -5 170860. 3060.81  28
   5  -3  -5 175515. 3076.04  73
   5  -3  -4 316698. 4763.73  70
   5  -3  -4 331072. 4891.61  38
   5  -3  -4 331794. 4928.71  93
   5  -3  -4 344163. 4722.56  20
   5  -3  -4 332886. 4936.21  84
   5  -3  -4 315008. 4857.34  53
   5  -3  -4 338695. 4801.99  50
   5  -3  -4 337302. 5100.69  67
   5  -3  -4 346755. 4753.68  28
   5  -3  -4 351676. 4751.60  73
   5  -3  -3 251888. 3847.03  70
   5  -3  -3 243218. 4023.17  38
   5  -3  -3 246068. 4089.55  93
   5  -3  -3 245716. 4193.30  67
   5  -3  -3 256024. 4137.21  20
   5  -3  -3 249421. 4089.75  84
   5  -3  -3 243977. 4095.22  53
   5  -3  -3 251685. 3982.31  50
   5  -3  -3 263875. 3969.96  28
   5  -3  -3 265445. 3957.50  73
   5  -3  -2 130576. 2850.59  67
   5  -3  -2 123962. 2691.65  38
   5  -3  -2 124354. 2741.07  93
   5  -3  -2 130218. 2895.99  20
   5  -3  -2 131814. 2774.98  84
   5  -3  -2 123038. 2729.51  53
   5  -3  -2 132912. 2649.27  73
   5  -3  -1 2951.19 387.475  69
   5  -3  -1 3494.90 468.024  20
   5  -3  -1 3469.37 427.585  84
   5  -3  -1 3425.73 422.043  67
   5  -3  -1 3553.29 436.666  53
   5  -3  -1 3537.69 413.840  73
   5  -3   0 151243. 3231.72  69
   5  -3   0 161108. 3034.79  67
   5  -3   0 142164. 3269.81  20
   5  -3   0 137514. 3063.98  53
   5  -3   0 149327. 3026.22  73
   5  -3   0 152836. 2927.86  16
   5  -3   1 185928. 3855.68  69
   5  -3   1 211766. 4057.16  20
   5  -3   1 200613. 3479.09  78
   5  -3   1 199448. 3514.54  48
   5  -3   1 199981. 3733.25  73
   5  -3   1 192790. 3620.31  16
   5  -3   2 244274. 4612.86  69
   5  -3   2 246055. 4451.70  20
   5  -3   2 245883. 4143.99  78
   5  -3   2 253654. 4465.04  30
   5  -3   2 244034. 4188.12  48
   5  -3   2 252320. 4437.41  73
   5  -3   2 253860. 4463.05  16
   5  -3   3 61132.7 2148.32  69
   5  -3   3 59901.3 1922.97  20
   5  -3   3 57979.7 1904.27  78
   5  -3   3 57680.7 2030.75  30
   5  -3   3 56711.1 1916.65  48
   5  -3   3 58504.2 2037.05  73
   5  -3   3 59330.4 2058.42  16
   5  -3   4 14268.2 995.463  69
   5  -3   4 13041.7 908.325  78
   5  -3   4 14242.8 998.891  30
   5  -3   4 12530.1 902.422  48
   5  -3   4 14685.0 1009.29  73
   5  -3   4 13512.3 966.038  16
   5  -3   5 69721.2 2116.53  69
   5  -3   5 69591.7 2118.93  78
   5  -3   5 77786.5 2328.50  30
   5  -3   5 72035.0 2191.49  48
   5  -3   5 78816.0 2340.56  73
   5  -3   6 167776. 3224.25  78
   5  -3   6 161260. 3219.85  48
   5  -3   7 174320. 2903.09  78
   5  -3   7 172699. 2934.84  48
   5  -2 -11 38986.9 908.129  83
   5  -2 -10 15078.1 661.191  93
   5  -2 -10 15411.8 644.389  84
   5  -2 -10 16612.0 765.560  83
   5  -2 -10 14882.3 666.111  51
   5  -2 -10 16128.7 677.134  50
   5  -2  -9 50736.4 1474.42  93
   5  -2  -9 50141.8 1444.26  84
   5  -2  -9 50779.3 1604.17  83
   5  -2  -9 46857.5 1450.63  51
   5  -2  -9 47546.4 1413.68  50
   5  -2  -8 159940. 3235.04  70
   5  -2  -8 167698. 3110.76  93
   5  -2  -8 160305. 3034.22  84
   5  -2  -8 171240. 3366.63  83
   5  -2  -8 169700. 2964.08  78
   5  -2  -8 163658. 3177.22  51
   5  -2  -8 170603. 3074.34  50
   5  -2  -7 284099. 4754.99  70
   5  -2  -7 302538. 4440.40  67
   5  -2  -7 302090. 4546.89  93
   5  -2  -7 306741. 4621.04  90
   5  -2  -7 288267. 4505.53  84
   5  -2  -7 291348. 4695.30  53
   5  -2  -7 320984. 4465.52  78
   5  -2  -7 319328. 4565.58  50
   5  -2  -7 312598. 4593.68  73
   5  -2  -6 172988. 3450.38  70
   5  -2  -6 169912. 3275.61  67
   5  -2  -6 168511. 3192.06  93
   5  -2  -6 178513. 3263.47  90
   5  -2  -6 174448. 3249.41  84
   5  -2  -6 168574. 3302.26  53
   5  -2  -6 178849. 3113.57  78
   5  -2  -6 174916. 3139.45  50
   5  -2  -6 180912. 3269.14  73
   5  -2  -5 56282.3 1821.36  70
   5  -2  -5 59504.3 1834.83  67
   5  -2  -5 57656.4 1609.39  61
   5  -2  -5 55617.9 1649.23  90
   5  -2  -5 58278.4 1706.00  93
   5  -2  -5 57831.8 1718.99  84
   5  -2  -5 56696.0 1753.40  53
   5  -2  -5 58579.0 1629.54  78
   5  -2  -5 57447.5 1632.99  50
   5  -2  -5 59316.6 1639.23  48
   5  -2  -5 59650.9 1750.33  28
   5  -2  -5 58071.4 1722.98  73
   5  -2  -4 39469.8 1426.65  70
   5  -2  -4 41643.7 1310.76  61
   5  -2  -4 38482.6 1289.28  20
   5  -2  -4 40864.5 1430.36  53
   5  -2  -4 41732.3 1533.60  67
   5  -2  -4 40436.7 1392.10  28
   5  -2  -4 39803.1 1375.04  73
   5  -2  -3 200132. 3337.13  70
   5  -2  -3 205396. 3236.04  61
   5  -2  -3 199922. 3445.14  20
   5  -2  -3 199816. 3376.20  73
   5  -2  -2 285093. 3849.74  70
   5  -2  -2 292315. 3976.44  61
   5  -2  -2 269744. 4340.00  20
   5  -2  -2 272119. 4339.11  67
   5  -2  -2 279516. 4154.83  73
   5  -2  -1 170848. 3094.33  69
   5  -2  -1 168598. 2848.16  61
   5  -2  -1 172013. 3170.49  67
   5  -2  -1 171520. 3376.90  20
   5  -2  -1 170391. 3092.86  73
   5  -2   0 61115.5 1880.10  69
   5  -2   0 63223.0 1982.12  20
   5  -2   0 59577.5 1692.39  67
   5  -2   0 57114.0 1742.49  73
   5  -2   0 61341.9 1683.63  16
   5  -2   1 100154. 2600.48  69
   5  -2   1 102759. 2627.93  20
   5  -2   1 99193.2 2456.35  30
   5  -2   1 97910.4 2445.56  73
   5  -2   1 105630. 2451.84  16
   5  -2   1 101113. 2340.62   6
   5  -2   2 155274. 3461.87  69
   5  -2   2 166452. 2982.47  90
   5  -2   2 154341. 3324.21  20
   5  -2   2 151295. 3091.17  78
   5  -2   2 160302. 3366.64  30
   5  -2   2 149604. 3126.42  48
   5  -2   2 159902. 3356.29  73
   5  -2   2 156182. 3281.23  16
   5  -2   2 157227. 3224.91   6
   5  -2   3 240466. 4500.17  69
   5  -2   3 217542. 3762.83  90
   5  -2   3 239793. 4104.48  20
   5  -2   3 222880. 3782.33  57
   5  -2   3 215847. 4036.01  78
   5  -2   3 229830. 4353.41  30
   5  -2   3 216775. 4097.05  48
   5  -2   3 235897. 4389.70  73
   5  -2   3 226593. 4263.84  16
   5  -2   4 146414. 3444.10  69
   5  -2   4 148852. 3066.70  90
   5  -2   4 150454. 3082.80  57
   5  -2   4 137892. 3271.14  78
   5  -2   4 153165. 3574.00  30
   5  -2   4 153671. 3566.38  73
   5  -2   4 140236. 3371.38  16
   5  -2   5 49401.6 1850.86  69
   5  -2   5 44693.4 1622.68  90
   5  -2   5 43765.9 1609.41  57
   5  -2   5 41920.4 1772.67  78
   5  -2   5 46447.9 1920.08  30
   5  -2   5 45410.6 1893.23  73
   5  -2   6 114617. 2666.00  69
   5  -2   6 119246. 2681.14  57
   5  -2   6 116526. 2657.76  90
   5  -2   6 116287. 2994.91  78
   5  -2   6 121580. 3121.56  30
   5  -2   6 122464. 3137.73  73
   5  -2   7 130360. 2598.18  90
   5  -2   7 132404. 2613.46  57
   5  -2   7 131213. 2968.94  78
   5  -2   7 128237. 2986.11  48
   5  -2   8 76359.6 1901.02  78
   5  -2   8 76667.8 1933.56  48
   5  -1 -11 146229. 1944.91  51
   5  -1 -10 54659.7 1385.57  83
   5  -1 -10 53618.8 1379.24  51
   5  -1 -10 51737.1 1244.73  50
   5  -1  -9 52505.9 1473.31  93
   5  -1  -9 55273.0 1649.23  83
   5  -1  -9 53264.7 1607.21  51
   5  -1  -9 54493.3 1496.52  50
   5  -1  -8 90132.9 2386.35  70
   5  -1  -8 95135.6 2192.32  93
   5  -1  -8 95069.7 2143.59  84
   5  -1  -8 97597.8 2425.92  83
   5  -1  -8 90791.2 2216.83  78
   5  -1  -8 88907.4 2285.66  51
   5  -1  -8 94605.0 2178.58  50
   5  -1  -7 109064. 2732.41  70
   5  -1  -7 114056. 2454.46  67
   5  -1  -7 117340. 2497.75  93
   5  -1  -7 116820. 2479.62  84
   5  -1  -7 110124. 2633.93  53
   5  -1  -7 116388. 2691.27  90
   5  -1  -7 116607. 2561.78  78
   5  -1  -7 110804. 2632.88  51
   5  -1  -7 116194. 2465.55  50
   5  -1  -7 121436. 2686.01  73
   5  -1  -6 321351. 5040.18  70
   5  -1  -6 316412. 4713.26  67
   5  -1  -6 294342. 4381.93  93
   5  -1  -6 307743. 4682.20  90
   5  -1  -6 314506. 4473.01  84
   5  -1  -6 292202. 4622.66  53
   5  -1  -6 318847. 4597.84  78
   5  -1  -6 322929. 4766.69  73
   5  -1  -5 158356. 3198.05  70
   5  -1  -5 154254. 3087.33  67
   5  -1  -5 158206. 2897.31  61
   5  -1  -5 152924. 2918.83  90
   5  -1  -5 147675. 2908.78  53
   5  -1  -5 147068. 2820.21  78
   5  -1  -5 147607. 2825.93  48
   5  -1  -5 158412. 3038.24  28
   5  -1  -5 159289. 3028.38  73
   5  -1  -4 38685.9 1422.55  70
   5  -1  -4 42407.3 1376.57  61
   5  -1  -4 40871.0 1271.80  20
   5  -1  -4 43649.8 1515.84  67
   5  -1  -4 41114.9 1399.58  28
   5  -1  -4 40258.5 1377.69  73
   5  -1  -3 72631.0 1843.54  70
   5  -1  -3 66577.5 1723.74  61
   5  -1  -3 72230.9 1846.40  20
   5  -1  -3 71366.6 1828.05  28
   5  -1  -3 71089.8 1822.89  73
   5  -1  -2 173591. 2838.52  70
   5  -1  -2 170935. 2934.92  61
   5  -1  -2 174030. 3036.72  73
   5  -1  -1 311397. 4279.85  69
   5  -1  -1 312977. 4310.29  61
   5  -1  -1 309722. 4635.16  20
   5  -1  -1 303272. 4299.04  73
   5  -1   0 150980. 2927.94  69
   5  -1   0 133718. 2627.68  61
   5  -1   0 143829. 2979.90  20
   5  -1   0 134442. 2687.20  73
   5  -1   0 147752. 2607.15  16
   5  -1   0 143979. 2644.59  67
   5  -1   1 148233. 3116.91  69
   5  -1   1 133247. 2764.94  61
   5  -1   1 160362. 3186.49  20
   5  -1   1 149042. 2969.07  30
   5  -1   1 146539. 2940.22  73
   5  -1   1 148997. 2883.30  16
   5  -1   1 156460. 2885.29   6
   5  -1   1 164206. 2674.58  67
   5  -1   2 124907. 2918.29  69
   5  -1   2 126473. 2766.98  20
   5  -1   2 115791. 2700.10  30
   5  -1   2 117617. 2703.28  73
   5  -1   2 121511. 2732.68  16
   5  -1   2 119581. 2676.44   6
   5  -1   3 233193. 4322.22  69
   5  -1   3 243945. 3974.90  20
   5  -1   3 220121. 4171.96  30
   5  -1   3 219044. 4145.82  73
   5  -1   3 231423. 4235.60  16
   5  -1   4 379404. 5867.42  69
   5  -1   4 360059. 5400.12  90
   5  -1   4 356122. 5383.10  57
   5  -1   4 387302. 6026.22  30
   5  -1   4 389858. 6064.09  73
   5  -1   4 390432. 5976.63  16
   5  -1   5 74053.2 2304.83  69
   5  -1   5 67271.8 2140.96  57
   5  -1   5 69706.1 2163.12  90
   5  -1   5 72141.7 2465.75  30
   5  -1   5 74088.0 2468.53  73
   5  -1   6 77926.7 2230.25  69
   5  -1   6 74017.9 2294.35  90
   5  -1   6 73604.8 2282.26  57
   5  -1   6 83194.6 2659.94  30
   5  -1   6 81534.5 2635.44  73
   5  -1   7 45697.8 1717.71  90
   5  -1   7 47557.5 1747.43  57
   5  -1   7 49106.3 1951.01  30
   5  -1   7 49830.5 1967.21  73
   5  -1   8 61043.9 1800.30  90
   5  -1   8 61634.4 1803.95  57
   5  -1   8 61957.0 1983.67  78
   5  -1   9 59536.5 1423.49  90
   5  -1   9 61152.1 1445.38  57
   5  -1   9 58486.5 1602.96  78
   5  -1   9 56042.1 1593.26  48
   5   0 -11 130308. 1825.39  51
   5   0 -10 114249. 2142.86  51
   5   0  -9 71516.1 1787.04  83
   5   0  -9 68300.6 1849.35  51
   5   0  -8 70619.1 2104.12  70
   5   0  -8 77550.5 2047.89  83
   5   0  -8 72266.6 2022.91  78
   5   0  -8 71913.5 2047.79  51
   5   0  -7 42798.3 1670.95  70
   5   0  -7 41283.3 1560.98  90
   5   0  -7 39406.2 1483.93  21
   5   0  -7 38546.3 1465.69  78
   5   0  -7 41942.0 1566.02  51
   5   0  -7 44938.7 1610.05  73
   5   0  -6 134255. 3065.96  70
   5   0  -6 138910. 2856.21  67
   5   0  -6 135373. 2884.66  90
   5   0  -6 128776. 2791.54  53
   5   0  -6 136507. 2818.59  78
   5   0  -6 142944. 2951.00  73
   5   0  -5 244729. 4229.46  70
   5   0  -5 252392. 4110.76  67
   5   0  -5 248465. 3888.43  61
   5   0  -5 249632. 4047.72  28
   5   0  -5 252653. 4017.45  73
   5   0  -4 215484. 3690.05  70
   5   0  -4 217973. 3720.51  67
   5   0  -4 210029. 3445.10  61
   5   0  -4 217310. 3216.63  20
   5   0  -4 209708. 3512.98  28
   5   0  -4 206633. 3477.62  73
   5   0  -3 24365.4 1043.06  70
   5   0  -3 25966.5 1131.29  67
   5   0  -3 24199.4 1000.90  61
   5   0  -3 27529.5 1053.49  20
   5   0  -3 23920.2 1012.57  28
   5   0  -3 24454.0 1021.64  73
   5   0  -2 270458. 3766.79  70
   5   0  -2 283141. 4021.49  61
   5   0  -2 263985. 3276.55  62
   5   0  -2 290985. 4243.67  67
   5   0  -2 256743. 3853.20  73
   5   0  -1 117080. 1954.30  70
   5   0  -1 119847. 2222.92  69
   5   0  -1 105091. 1805.47  62
   5   0  -1 100056. 2176.32  61
   5   0  -1 109780. 2407.61  20
   5   0  -1 114548. 2312.26  67
   5   0  -1 106460. 2202.68  73
   5   0   0 326015. 4481.54  69
   5   0   0 290141. 4288.61  61
   5   0   0 315386. 4548.74  20
   5   0   0 302130. 4071.90  67
   5   0   0 289217. 4184.02  73
   5   0   1 285366. 4293.29  69
   5   0   1 243967. 3994.69  61
   5   0   1 261467. 4078.76  20
   5   0   1 235737. 3816.34  30
   5   0   1 270342. 3517.37  67
   5   0   1 235471. 3807.56  73
   5   0   2 191203. 3618.25  69
   5   0   2 185914. 3408.84  30
   5   0   2 184003. 3384.37  73
   5   0   3 188536. 3728.21  69
   5   0   3 197064. 3366.49  20
   5   0   3 191192. 3649.07  30
   5   0   3 188383. 3634.30  73
   5   0   4 230789. 4236.78  69
   5   0   4 223431. 4230.73  30
   5   0   4 220372. 4216.25  73
   5   0   5 180732. 3614.01  69
   5   0   5 150352. 3341.71  90
   5   0   5 147110. 3316.20  57
   5   0   5 169961. 3809.32  30
   5   0   5 174321. 3828.97  73
   5   0   6 17331.8 1020.53  69
   5   0   6 17091.6 1097.40  90
   5   0   6 15326.8 1050.61  57
   5   0   6 18159.4 1215.98  30
   5   0   6 18269.9 1224.93  73
   5   0   7 77046.3 2422.10  90
   5   0   7 72666.5 2365.36  57
   5   0   7 81805.2 2635.43  30
   5   0   7 84569.8 2675.94  73
   5   0   8 43772.3 1699.08  90
   5   0   8 43111.9 1691.95  57
   5   0   8 45645.4 1824.63  30
   5   0   8 45488.8 1825.13  73
   5   0   9 60960.8 1786.79  57
   5   0   9 62949.2 1896.31  78
   5   0   9 61319.9 1789.25  90
   5   0   9 61936.4 1910.34  48
   5   0  10 91959.9 1730.49  90
   5   0  10 93367.3 1745.44  57
   5   0  10 94116.7 1828.89  78
   5   0  10 93753.0 1850.65  48
   5   1 -11 52212.7 987.431  51
   5   1 -10 141400. 2396.22  51
   5   1  -9 99229.2 2252.66  51
   5   1  -8 43913.0 1560.45  78
   5   1  -8 41408.9 1518.04  51
   5   1  -7 72099.6 2108.74  90
   5   1  -7 69138.9 2039.68  21
   5   1  -7 74888.1 1976.35  83
   5   1  -7 70354.9 2051.07  78
   5   1  -7 68134.7 2053.79  51
   5   1  -6 22826.3 1213.23  70
   5   1  -6 21008.4 1027.28  67
   5   1  -6 24887.5 1172.45  90
   5   1  -6 21632.3 1089.20  21
   5   1  -6 24045.1 1131.32  78
   5   1  -6 20859.7 1083.29  51
   5   1  -6 24014.7 1151.45  73
   5   1  -6 21528.9 929.921  44
   5   1  -5 290755. 4757.03  70
   5   1  -5 293956. 4550.13  67
   5   1  -5 297118. 4385.64  61
   5   1  -5 312168. 4564.10  21
   5   1  -5 294837. 3915.51  62
   5   1  -5 308959. 4589.77  73
   5   1  -4 342456. 4967.85  70
   5   1  -4 342900. 4207.39  62
   5   1  -4 330670. 4650.98  61
   5   1  -4 336283. 4287.87  20
   5   1  -4 332990. 4721.54  28
   5   1  -4 328424. 4700.60  73
   5   1  -3 55185.7 1615.28  70
   5   1  -3 58840.4 1705.27  67
   5   1  -3 56328.3 1340.27  62
   5   1  -3 55386.6 1553.75  61
   5   1  -3 55720.9 1503.94  20
   5   1  -3 54348.1 1563.58  28
   5   1  -3 55802.5 1558.87  73
   5   1  -2 209109. 3140.35  70
   5   1  -2 208794. 3377.36  67
   5   1  -2 198793. 2795.20  62
   5   1  -2 200809. 3225.70  61
   5   1  -2 204183. 3273.52  20
   5   1  -1 153121. 2432.89  70
   5   1  -1 175478. 2659.66  69
   5   1  -1 164244. 2814.27  67
   5   1  -1 155903. 2430.08  62
   5   1  -1 148897. 2728.34  61
   5   1  -1 177529. 3012.18  20
   5   1  -1 164917. 2759.35  73
   5   1   0 487988. 5628.24  69
   5   1   0 420235. 5188.48  67
   5   1   0 474579. 5716.06  61
   5   1   0 426614. 5577.51  20
   5   1   0 450087. 5411.70  73
   5   1   1 347668. 4829.63  69
   5   1   1 367592. 4199.67  67
   5   1   1 346370. 4710.20  20
   5   1   1 334922. 4554.62  30
   5   1   1 321174. 4491.05  73
   5   1   2 168905. 3182.41  69
   5   1   2 172552. 3242.36   4
   5   1   2 162401. 2901.97  20
   5   1   2 148848. 2873.83  30
   5   1   2 153797. 2904.47  73
   5   1   3 27955.4 1255.23  69
   5   1   3 27348.4 1059.50  20
   5   1   3 26064.2 1177.56  30
   5   1   3 25142.8 1153.15  73
   5   1   4 69222.4 2114.97  30
   5   1   4 71425.7 2145.72  73
   5   1   5 300460. 4740.39  69
   5   1   5 265325. 4195.95  58
   5   1   5 258358. 4233.99  33
   5   1   5 280185. 4923.82  30
   5   1   5 306403. 5249.07   4
   5   1   5 278011. 4909.81  73
   5   1   6 74412.8 2131.12  69
   5   1   6 68624.6 2064.98  33
   5   1   6 73737.9 2448.23  30
   5   1   6 72551.8 2444.28  73
   5   1   7 100027. 2364.02  69
   5   1   7 97593.7 2558.44  33
   5   1   7 108710. 3065.63  30
   5   1   7 107730. 3059.35  73
   5   1   8 24605.1 1335.44  90
   5   1   8 23772.7 1321.75  57
   5   1   8 26632.9 1237.18  33
   5   1   8 26950.9 1426.01  30
   5   1   8 26518.9 1417.37  73
   5   1   9 69932.8 2103.30  90
   5   1   9 67271.9 2074.14  57
   5   1   9 68056.1 1804.72  33
   5   1  10 106482. 2244.56  90
   5   1  10 107760. 2257.58  57
   5   1  10 105756. 2196.50  78
   5   1  10 106680. 2239.72  48
   5   2 -10 36209.6 1041.21  51
   5   2  -9 150820. 2780.05  51
   5   2  -8 106805. 2203.18  79
   5   2  -8 108332. 2530.21  51
   5   2  -8 109341. 2189.21  44
   5   2  -7 135855. 2964.28  21
   5   2  -7 137272. 2679.34  79
   5   2  -7 139768. 3003.02  78
   5   2  -7 135148. 2994.50  51
   5   2  -7 131367. 2612.64  44
   5   2  -6 16019.8 887.904  67
   5   2  -6 17593.0 974.195  90
   5   2  -6 15545.2 933.111  21
   5   2  -6 19433.8 939.640  79
   5   2  -6 17287.9 981.005  78
   5   2  -6 17880.4 1005.31  51
   5   2  -6 16180.7 851.426  44
   5   2  -5 46003.5 1575.50  67
   5   2  -5 49020.3 1419.04  62
   5   2  -5 51283.4 1578.42  61
   5   2  -5 45899.6 1534.69  90
   5   2  -5 49259.6 1624.67  21
   5   2  -5 45933.5 1430.39  79
   5   2  -5 47869.2 1580.37  78
   5   2  -5 45839.2 1568.02  51
   5   2  -5 49132.5 1630.64  73
   5   2  -5 45769.3 1450.10  44
   5   2  -4 371586. 5254.62  67
   5   2  -4 371658. 4730.03  62
   5   2  -4 369822. 5071.90  21
   5   2  -4 378248. 5126.93  73
   5   2  -3 409286. 5313.68  70
   5   2  -3 389259. 5298.31  67
   5   2  -3 394306. 4751.58  62
   5   2  -3 408201. 5132.93  61
   5   2  -3 399850. 4969.29  20
   5   2  -3 376752. 5054.15  28
   5   2  -3 379642. 5033.81  73
   5   2  -2 271732. 4022.90  67
   5   2  -2 277295. 3894.94  61
   5   2  -2 271491. 3623.31  62
   5   2  -2 280566. 3954.78  20
   5   2  -2 267680. 3841.06  28
   5   2  -2 266849. 3811.64  73
   5   2  -1 146066. 2373.88  69
   5   2  -1 143355. 2580.93  67
   5   2  -1 152459. 2470.29  62
   5   2  -1 151868. 2685.96  61
   5   2  -1 143115. 2662.28  20
   5   2  -1 139491. 2481.19  73
   5   2   0 86764.7 1901.64  69
   5   2   0 87826.2 1807.69  67
   5   2   0 87982.5 1988.31  61
   5   2   0 86649.7 1973.54  20
   5   2   0 86489.1 1858.47  73
   5   2   1 170667. 2994.48  69
   5   2   1 171569. 2531.29  67
   5   2   1 161609. 2841.61  20
   5   2   1 167971. 2798.28  73
   5   2   2 347164. 4901.94  69
   5   2   2 350157. 4648.60  30
   5   2   2 342214. 4606.14  73
   5   2   3 45071.8 1565.39  69
   5   2   3 49477.2 1722.62   4
   5   2   3 42450.9 1277.60  20
   5   2   3 46887.7 1510.22  30
   5   2   3 46374.0 1500.18  73
   5   2   4 46996.1 1635.87  69
   5   2   4 45623.3 1351.96  58
   5   2   4 46530.3 1276.65  20
   5   2   4 47992.3 1648.55  30
   5   2   4 48840.0 1667.07  73
   5   2   5 74209.0 2095.70  69
   5   2   5 70283.8 1851.60  58
   5   2   5 73556.3 2239.97  30
   5   2   5 74545.7 2254.19  73
   5   2   6 196666. 3595.25  69
   5   2   6 188656. 3584.88  82
   5   2   6 189542. 3758.02  33
   5   2   6 205803. 4146.30  30
   5   2   6 203580. 4126.53  73
   5   2   7 188085. 3365.42  69
   5   2   7 186569. 3645.24  82
   5   2   7 171702. 3727.63  33
   5   2   7 204644. 4224.76  30
   5   2   7 202362. 4215.23  73
   5   2   8 104750. 2786.41  33
   5   2   8 100787. 2542.01  82
   5   2   8 116592. 3041.84  30
   5   2   8 120244. 3090.53  73
   5   2   9 61357.5 2069.88  90
   5   2   9 60591.0 2060.68  57
   5   2   9 62974.5 1963.08  33
   5   2   9 64753.6 1797.48  82
   5   2   9 73095.7 2125.92  30
   5   2   9 73162.7 2143.11  73
   5   2  10 44891.1 1517.07  90
   5   2  10 44147.7 1513.42  57
   5   2  10 44956.6 1384.05  33
   5   2  10 44691.6 1423.29  78
   5   2  10 44925.3 1448.90  48
   5   2  11 97235.8 1761.14  90
   5   2  11 99989.9 1781.79  57
   5   3 -10 10731.2 480.463  51
   5   3  -9 48428.7 1168.68  41
   5   3  -9 50490.4 1408.55  51
   5   3  -8 121337. 2603.90  21
   5   3  -8 133211. 2741.47  51
   5   3  -7 164490. 3310.73  21
   5   3  -7 171561. 3172.08  79
   5   3  -7 169179. 3345.31  51
   5   3  -7 171301. 3118.32  44
   5   3  -6 226169. 3837.77  42
   5   3  -6 216207. 3584.23  96
   5   3  -6 213930. 3697.99  79
   5   3  -6 224228. 3929.98  51
   5   3  -6 210528. 3833.53  78
   5   3  -6 220061. 3925.27  21
   5   3  -6 224862. 3721.53  44
   5   3  -5 37041.8 1353.32  42
   5   3  -5 30152.7 1155.53  96
   5   3  -5 36706.5 1287.97  62
   5   3  -5 39598.0 1345.61  61
   5   3  -5 32732.8 1280.87  90
   5   3  -5 36211.9 1407.08  21
   5   3  -5 31538.3 1248.72  79
   5   3  -5 31649.3 1298.95  78
   5   3  -5 33309.9 1327.48  51
   5   3  -5 31433.0 1311.94  73
   5   3  -5 33610.8 1295.45  44
   5   3  -4 119046. 2649.68  67
   5   3  -4 124357. 2469.75  62
   5   3  -4 124882. 2479.44  61
   5   3  -4 128703. 2640.87  21
   5   3  -4 120094. 2574.70  73
   5   3  -3 280333. 3932.49  62
   5   3  -3 285243. 4024.77  61
   5   3  -3 274070. 4013.71  21
   5   3  -3 283183. 3999.68  20
   5   3  -3 278887. 4050.34  73
   5   3  -2 336262. 4645.95  67
   5   3  -2 338028. 4415.76  61
   5   3  -2 324089. 4480.62  20
   5   3  -2 330226. 4341.67  62
   5   3  -2 328767. 4378.12  28
   5   3  -2 331727. 4364.43  73
   5   3  -1 167127. 2598.43  69
   5   3  -1 167488. 2845.64  67
   5   3  -1 165775. 2797.10  61
   5   3  -1 161853. 2680.69  62
   5   3  -1 163314. 2890.30  20
   5   3  -1 153377. 2612.03  28
   5   3  -1 153247. 2598.06  73
   5   3   0 64440.5 1603.08  69
   5   3   0 62782.9 1527.61  67
   5   3   0 63509.5 1586.36  62
   5   3   0 68014.8 1708.60  61
   5   3   0 62998.8 1663.03  20
   5   3   0 58561.1 1462.46  73
   5   3   1 33882.5 1201.48  69
   5   3   1 30791.6 971.225  67
   5   3   1 33550.4 909.558   1
   5   3   1 32585.9 1214.15  61
   5   3   1 35501.2 1112.86   4
   5   3   1 31281.4 1122.02  20
   5   3   1 32045.7 1053.30  73
   5   3   2 209886. 2996.24   1
   5   3   2 199900. 3429.71  69
   5   3   2 227883. 3609.84   4
   5   3   2 197807. 2684.46  58
   5   3   2 206231. 3200.88  20
   5   3   2 218242. 3247.80  73
   5   3   3 208757. 3642.84  69
   5   3   3 246428. 4106.21   4
   5   3   3 210742. 2996.64  58
   5   3   3 212924. 3214.39  20
   5   3   3 230348. 3545.26  30
   5   3   3 233425. 3551.45  73
   5   3   4 131944. 2808.61  69
   5   3   4 143914. 3248.89   4
   5   3   4 127846. 2353.01  58
   5   3   4 129590. 2267.67  20
   5   3   4 147774. 2874.24  30
   5   3   4 146587. 2868.55  73
   5   3   5 76371.6 2100.46  69
   5   3   5 88541.4 2592.09   4
   5   3   5 76236.7 1875.72  58
   5   3   5 84238.9 2280.47  30
   5   3   5 89442.8 2339.91  73
   5   3   6 103353. 2468.42  69
   5   3   6 123738. 3190.65   4
   5   3   6 103586. 2384.34  58
   5   3   6 107709. 2675.79  82
   5   3   6 109459. 2805.31  33
   5   3   6 121789. 2936.58  30
   5   3   6 120188. 2917.60  73
   5   3   7 213018. 3574.56  69
   5   3   7 218077. 4128.00  82
   5   3   7 209202. 4261.13  33
   5   3   8 156885. 3464.43  82
   5   3   8 164678. 3699.99  33
   5   3   9 121552. 3032.19  90
   5   3   9 115454. 2971.70  57
   5   3   9 125180. 3028.52  33
   5   3   9 120320. 2801.05  82
   5   3  10 37575.2 1422.39  90
   5   3  10 37216.7 1424.37  57
   5   3  10 38033.8 1410.55  33
   5   3  10 35316.8 1241.32  82
   5   3  11 40889.7 1150.05  57
   5   3  11 40430.1 1137.15  90
   5   3  11 39846.7 1113.58  33
   5   4  -9 15818.0 600.490  41
   5   4  -9 16763.0 690.716  51
   5   4  -8 94108.1 2107.86  51
   5   4  -7 145200. 2959.63  21
   5   4  -7 150734. 2984.78  79
   5   4  -7 153515. 3036.19  51
   5   4  -7 155550. 2953.17  44
   5   4  -6 221399. 3867.88  42
   5   4  -6 236794. 4055.44  21
   5   4  -6 237374. 4032.39  79
   5   4  -6 228875. 3964.80  51
   5   4  -6 237340. 4003.85  78
   5   4  -6 228949. 3941.98  44
   5   4  -5 192768. 3477.61  42
   5   4  -5 205718. 3662.29  21
   5   4  -5 201272. 3681.67  80
   5   4  -5 195939. 3616.20  79
   5   4  -5 199572. 3529.95  51
   5   4  -5 198150. 3542.14  78
   5   4  -5 198811. 3586.39  44
   5   4  -4 17320.3 885.029  42
   5   4  -4 15712.2 840.780  96
   5   4  -4 18172.6 920.496  62
   5   4  -4 17329.6 921.053  21
   5   4  -4 17238.0 958.485  80
   5   4  -4 15723.3 900.392  79
   5   4  -4 16413.8 878.194  78
   5   4  -4 16377.0 907.904  44
   5   4  -3 57362.3 1622.69  62
   5   4  -3 59622.5 1645.48  21
   5   4  -3 59938.4 1640.23  73
   5   4  -2 185578. 2760.97  69
   5   4  -2 184367. 2951.18  61
   5   4  -2 186466. 3215.56  20
   5   4  -2 184609. 2953.72  73
   5   4  -1 182211. 2887.44  69
   5   4  -1 184113. 2682.29   1
   5   4  -1 189551. 2984.10  61
   5   4  -1 187170. 3197.60  20
   5   4  -1 178263. 3003.57  62
   5   4   0 161536. 2803.11  69
   5   4   0 157504. 2829.75  62
   5   4   0 163822. 2799.99  61
   5   4   0 161044. 2915.54  20
   5   4   0 165353. 2479.82   1
   5   4   1 44461.0 1418.79  69
   5   4   1 44978.2 1428.69  62
   5   4   1 47052.2 1457.68  61
   5   4   1 48788.0 1254.31   1
   5   4   1 45653.4 1314.22   4
   5   4   1 44389.9 1388.90  20
   5   4   2 95314.7 2227.26  69
   5   4   2 97686.7 2013.64   1
   5   4   2 92332.8 2274.95  61
   5   4   2 97684.1 2228.94   4
   5   4   2 96661.3 2066.52  20
   5   4   3 267296. 4042.88   1
   5   4   3 255509. 4075.68  69
   5   4   3 253574. 4280.28   4
   5   4   3 261426. 3666.36  20
   5   4   4 286792. 4432.37  69
   5   4   4 288861. 3820.09  58
   5   4   4 283165. 3790.50  20
   5   4   5 200486. 3566.90  69
   5   4   5 200264. 4104.41   4
   5   4   5 201765. 3243.97  58
   5   4   6 61871.7 1876.40  43
   5   4   6 59952.7 1788.25  69
   5   4   6 57828.6 1690.08  58
   5   4   6 59432.8 2053.93  33
   5   4   6 55253.7 1932.39  82
   5   4   7 136897. 2961.59  43
   5   4   7 126605. 3275.67  33
   5   4   7 132813. 3226.63  82
   5   4   8 117665. 2670.48  43
   5   4   8 120880. 3204.64  33
   5   4   9 120019. 2949.61  90
   5   4   9 120398. 2959.87  57
   5   4   9 123097. 3087.19  33
   5   4   9 119407. 2925.12  82
   5   4  10 56089.8 1726.42  90
   5   4  10 56244.5 1727.64  57
   5   4  10 56422.6 1823.67  33
   5   4  10 56302.3 1728.50  82
   5   4  11 26307.9 878.886  90
   5   4  11 26905.9 893.284  57
   5   4  11 25123.5 958.025  33
   5   4  11 25555.7 885.442  82
   5   5  -9 47011.1 924.106  41
   5   5  -8 36465.6 1085.44  41
   5   5  -8 37516.3 1094.54  51
   5   5  -7 76807.9 1873.63  51
   5   5  -6 81322.5 2113.59  42
   5   5  -6 82520.5 2214.28  79
   5   5  -6 80915.0 2056.21  51
   5   5  -6 84149.9 2194.67  44
   5   5  -5 234141. 3953.88  42
   5   5  -5 241820. 3955.72  21
   5   5  -5 229502. 4111.99  80
   5   5  -5 241349. 4205.85  79
   5   5  -5 234107. 4034.38  96
   5   5  -5 245148. 3861.11  51
   5   5  -5 245921. 4151.30  44
   5   5  -4 104389. 2380.36  42
   5   5  -4 101368. 2439.75  96
   5   5  -4 101270. 2537.47  80
   5   5  -4 103618. 2547.15  79
   5   5  -4 97960.3 2445.14  44
   5   5  -3 7159.58 558.575  42
   5   5  -3 7886.50 617.063  62
   5   5  -3 6833.98 568.319  96
   5   5  -3 7203.70 625.174  80
   5   5  -3 7782.87 639.999  79
   5   5  -3 7669.12 622.533  44
   5   5  -2 45040.3 1471.69  62
   5   5  -2 41884.2 1303.25   1
   5   5  -1 145728. 2668.21  69
   5   5  -1 150482. 2592.47   1
   5   5   0 188129. 3235.28  69
   5   5   0 196229. 3318.66  62
   5   5   0 195106. 3047.33   1
   5   5   1 290335. 4310.82  69
   5   5   1 280068. 4262.00  62
   5   5   1 288920. 4015.42   1
   5   5   1 296878. 4298.15  20
   5   5   2 132343. 2732.77  69
   5   5   2 132120. 2577.27   1
   5   5   2 130220. 2696.41   4
   5   5   2 135971. 2600.76  20
   5   5   3 108372. 2487.18  69
   5   5   3 103285. 2431.13   1
   5   5   3 107733. 2605.08   4
   5   5   4 257323. 4206.92  69
   5   5   4 262498. 4658.67   4
   5   5   5 229165. 4011.19  43
   5   5   5 226547. 3903.96  69
   5   5   5 223584. 4428.59   4
   5   5   5 231461. 4171.52  33
   5   5   5 235204. 4128.09  82
   5   5   6 108894. 2710.90  43
   5   5   6 107652. 2449.64  69
   5   5   6 105449. 2516.21  92
   5   5   6 109492. 2897.61  33
   5   5   6 107362. 2811.96  82
   5   5   7 45009.9 1740.22  43
   5   5   7 48603.3 1972.07  33
   5   5   7 48067.3 1914.15  82
   5   5   8 61501.7 2014.45  43
   5   5   8 61665.0 2267.95  33
   5   5   8 61800.0 2204.72  82
   5   5   9 49249.6 1667.88  43
   5   5   9 51394.1 1961.51  33
   5   5   9 53245.3 1931.47  82
   5   5  10 83611.8 2254.04  33
   5   5  10 79494.0 2152.13  82
   5   5  10 78115.5 1794.64  43
   5   5  11 64856.1 1601.36  33
   5   5  11 63592.8 1549.11  82
   5   6  -8 36778.7 921.646  41
   5   6  -7 28337.7 1002.66  41
   5   6  -7 29739.1 925.767  51
   5   6  -6 40411.2 1354.43  42
   5   6  -5 38907.4 1414.47  42
   5   6  -5 36777.0 1457.65  96
   5   6  -5 40176.8 1538.69  80
   5   6  -5 40668.7 1536.71  79
   5   6  -5 39184.3 1479.49  44
   5   6  -4 263307. 4191.00  42
   5   6  -4 248962. 4312.89  96
   5   6  -4 255613. 4458.86  80
   5   6  -4 269471. 4490.56  79
   5   6  -4 269999. 4405.42  44
   5   6  -3 33522.0 1288.54  42
   5   6  -3 35846.7 1426.21  96
   5   6  -3 33590.8 1393.72  55
   5   6  -3 34319.6 1454.09  80
   5   6  -3 34513.7 1420.63  79
   5   6  -3 38756.1 1465.35  44
   5   6  -2 55009.0 1690.06  62
   5   6  -2 53549.8 1634.42  87
   5   6  -2 53220.6 1732.42  55
   5   6  -2 51456.7 1701.08  96
   5   6  -2 49748.6 1717.89  80
   5   6  -2 55589.0 1766.21  79
   5   6  -2 52955.9 1618.53   1
   5   6  -2 57210.9 1752.84  44
   5   6  -1 130621. 2749.98  96
   5   6  -1 135924. 2692.11   1
   5   6  -1 137868. 2596.33  87
   5   6  -1 135746. 2786.41  55
   5   6  -1 131602. 2723.32  62
   5   6  -1 128361. 2757.33  80
   5   6  -1 137280. 2783.85  79
   5   6  -1 141858. 2596.24  49
   5   6  -1 131817. 2690.00  44
   5   6   0 141837. 2885.31  69
   5   6   0 147603. 2861.00  62
   5   6   0 144675. 2784.32   1
   5   6   1 313380. 4703.96  69
   5   6   1 305457. 4586.34  62
   5   6   1 305333. 4498.25   1
   5   6   2 169020. 3282.02  69
   5   6   2 166516. 3226.55  62
   5   6   2 170519. 3227.22   1
   5   6   3 96797.2 2412.49  69
   5   6   3 92886.7 2395.06  62
   5   6   3 96327.6 2466.10   1
   5   6   3 94493.3 2498.11   4
   5   6   4 84955.1 2271.42  43
   5   6   4 80151.7 2183.59  69
   5   6   4 85597.4 2497.97   1
   5   6   4 86190.9 2330.37  92
   5   6   4 83549.7 2167.28  88
   5   6   4 86803.3 2523.28   4
   5   6   4 82627.1 2410.94  96
   5   6   4 84035.4 2186.17  49
   5   6   5 223641. 4151.32  43
   5   6   5 219108. 4495.14   1
   5   6   5 224503. 3877.66  69
   5   6   5 220999. 4076.93  92
   5   6   5 211947. 3749.21  88
   5   6   5 225759. 4110.50  33
   5   6   5 222355. 4073.22  82
   5   6   5 222905. 3844.43  49
   5   6   6 87281.6 2538.10  43
   5   6   6 85753.3 2171.81  69
   5   6   6 94986.8 2546.63  92
   5   6   6 91747.2 2634.20  33
   5   6   6 90779.6 2602.23  82
   5   6   7 41122.9 1740.80  43
   5   6   7 42171.5 1632.38  92
   5   6   7 43156.8 1835.09  33
   5   6   7 38776.0 1735.14  82
   5   6   8 39553.5 1665.72  43
   5   6   8 40286.9 1772.99  33
   5   6   8 38844.1 1731.78  82
   5   6   9 37043.5 1496.24  43
   5   6   9 37576.5 1607.59  33
   5   6   9 37191.8 1588.74  82
   5   6  10 94375.9 2131.07  43
   5   6  10 97051.4 2357.54  33
   5   6  10 94792.6 2349.08  82
   5   6  11 89638.4 1780.84  33
   5   6  11 87481.4 1827.79  82
   5   7  -7 23221.7 737.342  41
   5   7  -6 24863.2 920.018  42
   5   7  -6 23551.7 913.820  41
   5   7  -5 8636.31 612.289  42
   5   7  -5 9891.27 713.415  80
   5   7  -4 183932. 3327.94  42
   5   7  -4 176278. 3482.09  96
   5   7  -4 176695. 3564.25  80
   5   7  -4 189658. 3529.25  79
   5   7  -4 192295. 3438.31  44
   5   7  -3 209408. 3654.48  42
   5   7  -3 214296. 3932.55  55
   5   7  -3 211336. 4015.65  80
   5   7  -3 213306. 3848.76  79
   5   7  -3 218856. 3955.89  96
   5   7  -3 214599. 3729.48  44
   5   7  -2 93669.9 2343.65  87
   5   7  -2 90644.0 2419.18  55
   5   7  -2 91951.5 2435.20  96
   5   7  -2 92453.8 2341.12  79
   5   7  -2 97298.1 2299.87  44
   5   7  -1 68764.1 2062.82  96
   5   7  -1 71874.4 1968.54  87
   5   7  -1 72025.4 2098.96  55
   5   7  -1 69049.5 2074.34  80
   5   7  -1 75939.1 2012.11  79
   5   7  -1 78976.7 1922.72  49
   5   7   0 79124.8 2200.29  96
   5   7   0 86729.4 2144.23  88
   5   7   0 85806.8 2096.28  87
   5   7   0 84045.5 2216.79  55
   5   7   0 81632.5 2157.55  80
   5   7   0 90544.7 2174.82  49
   5   7   1 158831. 3224.22  96
   5   7   1 169193. 3226.62  88
   5   7   1 163582. 2953.87  87
   5   7   1 160149. 3066.19  55
   5   7   1 155361. 3138.73  49
   5   7   1 162175. 3251.50   1
   5   7   2 249671. 4310.36  69
   5   7   2 249595. 4183.76  88
   5   7   2 247350. 4303.39   1
   5   7   2 261627. 4374.41  92
   5   7   2 248532. 4249.92  49
   5   7   3 123901. 2865.13  69
   5   7   3 116503. 2889.97  92
   5   7   3 115913. 2805.37  96
   5   7   3 116491. 2761.63  88
   5   7   3 117000. 2812.18  49
   5   7   3 117974. 2725.92  43
   5   7   4 3466.80 463.886  43
   5   7   4 3861.61 468.629  69
   5   7   4 3697.63 495.469  92
   5   7   4 5126.80 548.536  88
   5   7   4 4990.56 488.529  34
   5   7   4 4821.10 546.302  49
   5   7   4 3494.10 480.950  96
   5   7   5 101124. 2746.66  43
   5   7   5 100598. 2483.68  69
   5   7   5 103227. 2817.92  92
   5   7   5 101666. 2566.14  88
   5   7   5 103485. 2613.78  82
   5   7   5 101876. 2792.48  96
   5   7   5 96863.6 2564.34  49
   5   7   6 65597.5 2257.93  43
   5   7   6 63629.6 1844.77  69
   5   7   6 66211.4 2264.54  96
   5   7   6 62847.1 2183.57  92
   5   7   6 63781.2 1949.08  88
   5   7   6 67405.1 2190.24  82
   5   7   6 62626.1 1981.56  49
   5   7   7 150797. 3551.68  43
   5   7   7 152130. 3509.30  96
   5   7   7 146822. 3396.25  92
   5   7   7 149703. 3397.83  33
   5   7   7 145702. 3454.65  82
   5   7   8 68591.3 2247.18  43
   5   7   8 65715.1 2043.36  92
   5   7   8 66334.8 2142.44  33
   5   7   8 65823.0 2214.99  82
   5   7   8 65849.7 2122.08  96
   5   7   9 31705.8 1392.25  43
   5   7   9 31720.1 1270.44  96
   5   7   9 34828.1 1405.16  33
   5   7   9 30985.4 1392.73  82
   5   7  10 42634.7 1388.03  43
   5   7  10 44513.6 1351.79  33
   5   7  10 43095.4 1444.49  82
   5   7  11 61822.4 1384.95  82
   5   7  11 63165.9 1273.61  43
   5   8  -6 48489.0 1010.95  41
   5   8  -5 29662.4 1005.71  42
   5   8  -5 31959.5 984.807  41
   5   8  -4 19033.7 904.089  42
   5   8  -4 21232.4 886.632  41
   5   8  -4 19837.4 1020.71  80
   5   8  -3 188398. 3394.02  42
   5   8  -3 202616. 3673.29  96
   5   8  -3 198747. 3784.49  80
   5   8  -3 213353. 3512.82  79
   5   8  -2 196681. 3678.28  96
   5   8  -2 192847. 3641.80  87
   5   8  -2 197256. 3778.05  55
   5   8  -2 196831. 3379.60  79
   5   8  -1 111712. 2635.67  87
   5   8  -1 107789. 2713.73  55
   5   8  -1 113901. 2735.52  96
   5   8   0 61712.6 1964.34  96
   5   8   0 62530.0 1841.21  88
   5   8   0 58995.2 1849.66  87
   5   8   0 60892.1 1964.09  55
   5   8   0 56599.3 1862.21  80
   5   8   1 14869.7 928.825  88
   5   8   1 13514.2 849.294  87
   5   8   1 15308.4 926.456  55
   5   8   1 13782.4 898.230  96
   5   8   1 14030.3 899.176  49
   5   8   2 106913. 2643.43  96
   5   8   2 104891. 2735.52  92
   5   8   2 103601. 2675.49  88
   5   8   2 107218. 2472.26  87
   5   8   2 104190. 2654.29  49
   5   8   3 144979. 3160.34  96
   5   8   3 145081. 3377.50  92
   5   8   3 147410. 3318.07  88
   5   8   3 145414. 3229.29  34
   5   8   3 142252. 2890.48  87
   5   8   3 146789. 3335.22  49
   5   8   4 52374.1 1814.26  96
   5   8   4 48157.2 1935.74  92
   5   8   4 51350.2 1888.71  88
   5   8   4 50844.0 1779.03  34
   5   8   4 52153.2 1938.80  49
   5   8   4 49712.7 1830.75  43
   5   8   5 42025.8 1823.60  92
   5   8   5 44439.9 1724.65  88
   5   8   5 45562.7 1595.62  34
   5   8   5 42367.3 1640.77  96
   5   8   5 41901.6 1726.68  49
   5   8   5 44922.6 1805.50  43
   5   8   6 38458.5 1722.11  43
   5   8   6 42672.8 1614.76  96
   5   8   6 41192.6 1806.55  92
   5   8   6 39984.9 1569.06  88
   5   8   6 41575.3 1673.31  49
   5   8   7 96945.0 2758.30  43
   5   8   7 95722.8 2728.84  92
   5   8   7 101791. 2374.68  88
   5   8   7 93224.7 2360.43  96
   5   8   7 96925.6 2532.38  82
   5   8   7 95870.7 2384.10  49
   5   8   8 113040. 2879.60  43
   5   8   8 114097. 2794.78  92
   5   8   8 114701. 2716.26  82
   5   8   9 84006.8 2229.12  43
   5   8   9 79667.6 1991.58  92
   5   8   9 83306.8 2085.63  82
   5   8  10 33920.6 1075.80  82
   5   8  10 33860.1 1159.33  43
   5   9  -4 33762.4 1029.86  42
   5   9  -3 26315.9 1025.49  42
   5   9  -3 26152.3 1139.28  80
   5   9  -2 116299. 2453.33  42
   5   9  -2 118882. 2528.47  96
   5   9  -2 115535. 2690.61  80
   5   9  -1 106541. 2442.16  96
   5   9  -1 99199.0 2439.60  87
   5   9  -1 100267. 2540.71  55
   5   9   0 82506.9 2062.50  88
   5   9   0 77552.2 2164.34  87
   5   9   0 79490.3 2278.39  55
   5   9   0 78926.1 2174.18  80
   5   9   1 25375.4 1164.91  96
   5   9   1 22354.1 1136.00  88
   5   9   1 23651.7 1163.67  87
   5   9   1 23941.5 1184.41  55
   5   9   1 25130.0 1169.52  49
   5   9   2 23733.0 1120.36  96
   5   9   2 21368.3 1170.08  88
   5   9   2 19810.7 1064.40  87
   5   9   2 22241.3 1072.64  55
   5   9   2 20499.5 1136.06  49
   5   9   3 92398.5 2597.40  88
   5   9   3 90380.5 2321.40  87
   5   9   3 94341.8 2595.92  49
   5   9   3 88663.4 2593.41  92
   5   9   4 100495. 2843.40  92
   5   9   4 106673. 2800.14  88
   5   9   4 96543.9 2375.10  87
   5   9   4 98406.2 2749.00  49
   5   9   5 64336.6 2283.17  92
   5   9   5 68545.2 2241.19  49
   5   9   5 65286.4 2104.77  43
   5   9   6 46300.3 1901.07  92
   5   9   6 50479.1 1749.88  88
   5   9   6 50509.0 1833.55  49
   5   9   6 48195.2 1809.01  43
   5   9   7 53010.7 1933.79  92
   5   9   7 55985.8 1673.96  88
   5   9   7 49809.7 1651.71  49
   5   9   7 50552.3 1835.82  43
   5   9   8 99774.0 2489.57  92
   5   9   8 103077. 2104.27  49
   5   9   8 99203.6 2469.98  43
   5   9   9 107761. 2228.50  92
   5   9   9 109562. 2328.22  43
   5   9  10 34289.9 995.557  43
   5  10  -3 8648.55 454.630  42
   5  10  -2 20235.3 831.832  42
   5  10  -2 21285.4 896.561  80
   5  10  -1 79032.3 1875.32  42
   5  10  -1 80752.0 1940.77  80
   5  10   0 75003.7 2000.94  87
   5  10   0 79655.7 2096.63  55
   5  10   0 80206.9 1905.66  80
   5  10   1 79796.0 1986.32  88
   5  10   1 69241.5 1968.42  87
   5  10   1 73047.1 1997.32  55
   5  10   1 80051.5 1889.18  49
   5  10   2 12030.5 814.263  88
   5  10   2 11057.1 758.702  87
   5  10   2 11922.6 786.107  49
   5  10   3 41700.7 1602.19  88
   5  10   3 39733.1 1465.55  87
   5  10   3 40659.4 1575.90  49
   5  10   4 91454.2 2429.48  88
   5  10   4 84838.7 2129.77  87
   5  10   4 87367.5 2409.40  49
   5  10   5 132332. 3158.03  92
   5  10   5 129290. 2574.79  87
   5  10   6 62726.7 2048.97  92
   5  10   6 67233.6 1964.72  49
   5  10   7 28316.0 1270.33  92
   5  10   7 32259.1 1139.28  88
   5  10   7 29907.6 1158.56  49
   5  10   8 28095.0 1124.41  92
   5  10   8 29644.7 929.273  49
   5  11   0 46248.7 1205.86  42
   5  11   1 87771.1 1813.19  42
   5  11   1 88785.7 1927.32  87
   5  11   2 95841.8 1965.94  88
   5  11   2 94671.8 1810.63  49
   5  11   3 38274.2 1296.71  88
   5  11   3 37862.7 1231.62  49
   5  11   4 32654.3 1220.83  88
   5  11   4 34599.9 1224.14  49
   5  11   5 67802.2 1741.51  88
   5  11   5 64419.2 1687.81  49
   5  11   6 72483.9 1676.77  88
   5  11   6 71453.4 1691.70  49
   5  11   7 42983.1 1065.89  88
   5  11   7 43206.2 1126.56  49
   6  -7  -5 38512.3 907.088  93
   6  -7  -5 38244.5 865.027  50
   6  -7  -4 60641.9 1243.93  93
   6  -7  -4 59545.6 1140.31  84
   6  -7  -4 61073.3 1205.51  50
   6  -7  -4 58479.0 1214.47  77
   6  -7  -3 147553. 2178.09  93
   6  -7  -3 152741. 2162.51  50
   6  -7  -2 53682.6 1160.72  93
   6  -7  -2 54014.5 1144.73  50
   6  -7  -2 50654.5 1129.72  77
   6  -6  -7 66303.0 1365.72  93
   6  -6  -7 68089.5 1373.25  84
   6  -6  -7 66576.5 1290.84  50
   6  -6  -6 133638. 2270.69  93
   6  -6  -6 136861. 2281.27  84
   6  -6  -6 139535. 2051.30  53
   6  -6  -6 130357. 2148.30  50
   6  -6  -6 132481. 2086.48  77
   6  -6  -5 43635.1 1280.01  93
   6  -6  -5 43828.8 1264.06  84
   6  -6  -5 42993.8 1134.55  53
   6  -6  -5 42142.1 1202.58  50
   6  -6  -5 41498.2 1199.03  77
   6  -6  -4 17421.2 831.552  93
   6  -6  -4 18123.6 821.035  84
   6  -6  -4 19000.1 777.988  53
   6  -6  -4 17413.8 795.049  50
   6  -6  -4 17732.8 814.444  77
   6  -6  -4 17182.1 698.442  76
   6  -6  -3 58536.6 1598.18  38
   6  -6  -3 60172.7 1624.93  93
   6  -6  -3 59309.5 1561.28  84
   6  -6  -3 58673.3 1470.86  53
   6  -6  -3 54192.3 1500.64  50
   6  -6  -3 56706.4 1555.21  77
   6  -6  -3 54616.9 1390.86  76
   6  -6  -2 108529. 2258.51  38
   6  -6  -2 108216. 2273.73  93
   6  -6  -2 105158. 2140.15  84
   6  -6  -2 105928. 2081.90  53
   6  -6  -2 102792. 2164.97  50
   6  -6  -1 122429. 2403.51  38
   6  -6  -1 120883. 2416.30  93
   6  -6  -1 114736. 2207.90  84
   6  -6  -1 120920. 2239.20  53
   6  -6  -1 116883. 2320.61  50
   6  -6   0 43098.8 1307.24  38
   6  -6   0 43554.4 1320.79  93
   6  -6   0 42837.6 1189.66  84
   6  -6   0 45488.3 1247.82  53
   6  -6   0 42581.0 1276.99  50
   6  -6   1 26458.3 939.465  38
   6  -6   1 25885.8 935.722  93
   6  -6   1 25844.4 813.765  84
   6  -6   1 26962.7 880.734  53
   6  -6   1 24576.3 893.294  50
   6  -6   2 47890.2 1130.87  38
   6  -6   2 47690.2 1137.04  93
   6  -6   2 44758.7 1076.91  50
   6  -5  -9 34906.2 813.069  84
   6  -5  -8 71325.7 1479.79  93
   6  -5  -8 75075.1 1531.54  84
   6  -5  -8 74049.8 1413.72  83
   6  -5  -8 69068.8 1376.81  50
   6  -5  -7 54547.1 1432.42  93
   6  -5  -7 54808.5 1460.70  84
   6  -5  -7 50855.7 1287.64  83
   6  -5  -7 55450.0 1370.49  53
   6  -5  -7 52416.9 1320.54  50
   6  -5  -6 82885.9 1954.57  93
   6  -5  -6 85484.0 1992.79  84
   6  -5  -6 80954.7 1855.94  53
   6  -5  -6 82675.5 1847.10  50
   6  -5  -6 84355.4 1779.49  77
   6  -5  -5 124728. 2577.38  93
   6  -5  -5 124636. 2583.55  84
   6  -5  -5 120863. 2460.89  53
   6  -5  -5 122309. 2445.44  50
   6  -5  -4 31316.9 1266.59  38
   6  -5  -4 31114.1 1267.47  93
   6  -5  -4 33002.5 1303.84  84
   6  -5  -4 30691.9 1210.22  53
   6  -5  -4 30133.3 1187.23  50
   6  -5  -4 28737.8 1181.71  77
   6  -5  -3 32986.6 1333.22  38
   6  -5  -3 33949.5 1363.27  93
   6  -5  -3 33863.9 1340.66  84
   6  -5  -3 32970.5 1295.75  53
   6  -5  -3 31570.9 1263.86  50
   6  -5  -3 31903.4 1164.64  76
   6  -5  -2 68231.4 1991.16  38
   6  -5  -2 70994.7 2045.70  93
   6  -5  -2 70298.0 1989.32  84
   6  -5  -2 67884.3 1943.75  53
   6  -5  -2 67156.7 1917.81  50
   6  -5  -1 176707. 3401.53  38
   6  -5  -1 179107. 3458.33  93
   6  -5  -1 166991. 3230.66  84
   6  -5  -1 177392. 3338.77  53
   6  -5  -1 171957. 3292.00  50
   6  -5   0 193616. 3555.87  38
   6  -5   0 186678. 3552.09  93
   6  -5   0 192517. 3418.30  84
   6  -5   0 194568. 3531.97  53
   6  -5   0 188706. 3465.55  50
   6  -5   1 62366.1 1836.04  38
   6  -5   1 62665.4 1860.71  93
   6  -5   1 62128.0 1743.89  84
   6  -5   1 63962.1 1851.29  53
   6  -5   2 19331.2 944.392  38
   6  -5   2 18087.1 930.719  93
   6  -5   2 19232.9 873.822  84
   6  -5   2 20379.5 964.252  53
   6  -5   3 57821.4 1531.91  38
   6  -5   3 55297.4 1521.94  93
   6  -5   3 57162.1 1375.29  84
   6  -5   3 56033.2 1506.63  53
   6  -5   4 100504. 1798.30  38
   6  -5   4 98731.9 1809.04  93
   6  -5   4 98216.5 1773.08  53
   6  -4  -9 75039.4 1426.86  93
   6  -4  -9 74400.0 1449.09  84
   6  -4  -9 75126.0 1520.01  83
   6  -4  -9 71379.7 1265.71  51
   6  -4  -9 72112.0 1316.23  50
   6  -4  -8 43806.6 1253.14  93
   6  -4  -8 45532.1 1288.88  84
   6  -4  -8 45772.9 1340.19  83
   6  -4  -8 44358.2 1200.10  51
   6  -4  -7 87846.3 2016.86  93
   6  -4  -7 88174.3 2054.82  84
   6  -4  -7 83862.6 2039.25  83
   6  -4  -7 87181.6 2033.06  53
   6  -4  -7 86834.3 1895.12  50
   6  -4  -6 22688.4 1036.68  67
   6  -4  -6 24382.5 1091.48  93
   6  -4  -6 26131.6 1142.97  84
   6  -4  -6 25771.5 1119.66  53
   6  -4  -6 25961.7 1057.24  50
   6  -4  -5 116722. 2632.10  93
   6  -4  -5 114563. 2626.87  84
   6  -4  -5 118865. 2639.55  53
   6  -4  -5 111534. 2437.92  50
   6  -4  -5 116750. 2447.90  77
   6  -4  -4 110260. 2642.30  67
   6  -4  -4 121675. 2737.93  38
   6  -4  -4 122446. 2777.92  93
   6  -4  -4 112815. 2408.65  20
   6  -4  -4 124135. 2798.10  84
   6  -4  -4 124674. 2769.78  53
   6  -4  -4 117469. 2567.57  50
   6  -4  -3 124504. 2843.15  67
   6  -4  -3 123620. 2838.38  38
   6  -4  -3 124086. 2867.34  93
   6  -4  -3 122792. 2723.92  20
   6  -4  -3 130805. 2906.57  84
   6  -4  -3 126080. 2858.67  53
   6  -4  -3 122418. 2698.64  50
   6  -4  -2 72625.7 2157.19  38
   6  -4  -2 72187.3 2170.71  93
   6  -4  -2 74687.7 2188.07  20
   6  -4  -2 79257.5 2234.83  84
   6  -4  -2 77423.2 2231.07  53
   6  -4  -2 74469.4 2096.31  67
   6  -4  -2 76715.7 2116.64  50
   6  -4  -1 81178.1 2133.01  67
   6  -4  -1 82152.5 2318.17  38
   6  -4  -1 82093.6 2340.16  93
   6  -4  -1 80367.0 2330.55  20
   6  -4  -1 82597.4 2302.12  84
   6  -4  -1 78743.3 2296.34  53
   6  -4  -1 79976.8 2224.29  50
   6  -4   0 144586. 3071.32  69
   6  -4   0 149563. 3258.15  38
   6  -4   0 147822. 3284.47  93
   6  -4   0 148746. 3288.33  20
   6  -4   0 146613. 3166.63  84
   6  -4   0 148137. 3284.41  53
   6  -4   1 141899. 3119.76  69
   6  -4   1 142003. 3155.73  20
   6  -4   1 152717. 3190.44  84
   6  -4   1 150318. 3304.23  53
   6  -4   2 85054.3 2270.55  84
   6  -4   2 82740.2 2366.39  53
   6  -4   3 55786.5 1721.26  84
   6  -4   3 52967.7 1795.50  53
   6  -4   4 55987.1 1572.23  84
   6  -4   4 53154.8 1662.09  53
   6  -4   5 56227.1 1327.45  84
   6  -4   5 53876.9 1465.71  53
   6  -3 -10 42532.5 1002.30  83
   6  -3  -9 106575. 1885.58  93
   6  -3  -9 110887. 1934.02  84
   6  -3  -9 113601. 2147.85  83
   6  -3  -9 107988. 1923.14  51
   6  -3  -9 108471. 1805.33  50
   6  -3  -8 17579.6 814.504  93
   6  -3  -8 16159.9 792.560  84
   6  -3  -8 16871.4 887.437  83
   6  -3  -8 17138.0 825.743  51
   6  -3  -8 16470.5 744.922  50
   6  -3  -7 59846.8 1762.54  70
   6  -3  -7 59903.7 1658.85  67
   6  -3  -7 65783.6 1775.61  93
   6  -3  -7 65359.5 1805.55  84
   6  -3  -7 69402.0 1908.74  53
   6  -3  -7 67032.4 1702.40  50
   6  -3  -6 108297. 2523.55  70
   6  -3  -6 113626. 2572.28  67
   6  -3  -6 120919. 2605.59  93
   6  -3  -6 112987. 2584.17  84
   6  -3  -6 125023. 2733.46  53
   6  -3  -6 118061. 2431.82  50
   6  -3  -5 129548. 2907.27  67
   6  -3  -5 130849. 2814.28  93
   6  -3  -5 132517. 2889.46  84
   6  -3  -5 136803. 2942.74  53
   6  -3  -5 126700. 2617.04  50
   6  -3  -5 140334. 2737.37  28
   6  -3  -5 141799. 2726.02  73
   6  -3  -4 206749. 3721.77  38
   6  -3  -4 207264. 3755.42  93
   6  -3  -4 210589. 3900.46  67
   6  -3  -4 214251. 3580.49  20
   6  -3  -4 214462. 3857.02  84
   6  -3  -4 215864. 3894.77  53
   6  -3  -4 215333. 3607.58  50
   6  -3  -4 220156. 3670.50  28
   6  -3  -4 220812. 3658.02  73
   6  -3  -3 112741. 2743.35  67
   6  -3  -3 102552. 2524.83  38
   6  -3  -3 104710. 2578.97  93
   6  -3  -3 103688. 2541.07  20
   6  -3  -3 111057. 2664.33  84
   6  -3  -3 109772. 2664.99  53
   6  -3  -3 110222. 2466.33  50
   6  -3  -3 115903. 2549.54  28
   6  -3  -3 115315. 2526.40  73
   6  -3  -2 60809.1 1915.91  38
   6  -3  -2 59253.9 1922.26  93
   6  -3  -2 62449.3 2010.33  20
   6  -3  -2 64721.7 1990.31  84
   6  -3  -2 60731.1 1968.49  53
   6  -3  -2 62271.4 1977.89  67
   6  -3  -2 60674.2 1825.74  50
   6  -3  -2 64046.9 1868.13  73
   6  -3  -1 50220.0 1725.20  67
   6  -3  -1 48852.1 1728.46  38
   6  -3  -1 49325.0 1767.81  93
   6  -3  -1 49055.8 1844.00  20
   6  -3  -1 53783.4 1821.76  84
   6  -3  -1 49196.0 1796.33  53
   6  -3  -1 54574.2 1766.93  73
   6  -3   0 177811. 3627.79  69
   6  -3   0 197845. 3992.03  20
   6  -3   0 190194. 3734.75  84
   6  -3   0 191570. 3863.04  53
   6  -3   0 192777. 3429.28  78
   6  -3   0 204294. 3500.91  67
   6  -3   0 193253. 3453.50  48
   6  -3   0 209277. 3770.40  73
   6  -3   1 233402. 4410.02  69
   6  -3   1 239153. 4441.27  20
   6  -3   1 219493. 4288.53  84
   6  -3   1 244542. 4498.15  53
   6  -3   1 247481. 4051.51  78
   6  -3   1 251443. 4123.29  48
   6  -3   1 264699. 4416.68  73
   6  -3   2 118816. 3013.75  69
   6  -3   2 122718. 2925.92  20
   6  -3   2 124087. 2762.19  78
   6  -3   2 119924. 2755.06  48
   6  -3   2 129168. 2989.22  73
   6  -3   2 117214. 2826.21  16
   6  -3   3 21139.4 1062.50  20
   6  -3   3 23715.1 1148.83  78
   6  -3   3 24494.3 1186.14  48
   6  -3   3 22927.2 1199.88  73
   6  -3   4 19693.9 1014.80  78
   6  -3   4 18528.9 1002.09  48
   6  -3   4 19904.6 1076.98  73
   6  -3   5 52048.3 1566.98  78
   6  -3   5 52649.4 1598.29  48
   6  -3   6 169192. 2673.36  78
   6  -3   6 171125. 2717.43  48
   6  -2 -10 10563.4 506.727  83
   6  -2 -10 10069.3 453.550  51
   6  -2  -9 97999.6 1800.99  93
   6  -2  -9 96723.4 1785.06  84
   6  -2  -9 94757.1 1949.66  51
   6  -2  -8 149451. 2667.98  93
   6  -2  -8 155153. 2724.36  84
   6  -2  -8 154652. 2615.58  78
   6  -2  -8 151062. 2872.86  51
   6  -2  -8 154675. 2602.55  50
   6  -2  -7 79134.6 2197.77  70
   6  -2  -7 82746.6 2060.66  67
   6  -2  -7 89173.3 2103.83  93
   6  -2  -7 90496.2 2187.35  90
   6  -2  -7 87117.1 2112.42  84
   6  -2  -7 89237.4 2273.71  53
   6  -2  -7 91206.2 2068.48  78
   6  -2  -7 93380.3 2054.88  50
   6  -2  -7 94211.9 2171.38  73
   6  -2  -6 95369.2 2472.64  70
   6  -2  -6 98107.3 2431.19  67
   6  -2  -6 103256. 2354.32  93
   6  -2  -6 101353. 2393.06  90
   6  -2  -6 105357. 2420.66  84
   6  -2  -6 101186. 2498.85  53
   6  -2  -6 105033. 2319.44  78
   6  -2  -6 102459. 2227.83  50
   6  -2  -6 106777. 2427.16  73
   6  -2  -5 71643.6 2117.86  67
   6  -2  -5 71179.2 1948.16  93
   6  -2  -5 73403.8 1982.54  90
   6  -2  -5 67646.8 1944.20  84
   6  -2  -5 71679.4 2075.13  53
   6  -2  -5 75189.4 1938.37  78
   6  -2  -5 74907.0 1946.02  48
   6  -2  -5 74844.9 2051.59  28
   6  -2  -5 75436.6 2050.89  73
   6  -2  -4 77019.1 2102.11  70
   6  -2  -4 86042.7 2381.72  67
   6  -2  -4 82892.2 2097.59  38
   6  -2  -4 83838.2 2123.57  93
   6  -2  -4 79537.7 2057.90  90
   6  -2  -4 83481.5 2062.44  20
   6  -2  -4 81620.3 2155.00  84
   6  -2  -4 80075.0 2196.59  53
   6  -2  -4 85699.1 2090.00  78
   6  -2  -4 84042.9 2075.82  48
   6  -2  -4 84949.4 2200.31  28
   6  -2  -4 86474.9 2205.66  73
   6  -2  -3 360840. 5058.99  38
   6  -2  -3 355452. 5091.71  93
   6  -2  -3 370937. 5036.27  90
   6  -2  -3 373071. 5306.65  20
   6  -2  -3 355698. 5151.39  84
   6  -2  -3 347038. 5216.35  53
   6  -2  -3 369663. 5484.82  67
   6  -2  -3 349516. 4936.27  78
   6  -2  -3 348976. 4944.69  48
   6  -2  -3 373063. 5268.02  28
   6  -2  -3 370309. 5241.57  73
   6  -2  -2 251703. 4271.41  67
   6  -2  -2 231047. 3859.36  38
   6  -2  -2 224937. 3883.67  93
   6  -2  -2 240869. 3777.68  90
   6  -2  -2 244597. 4244.79  20
   6  -2  -2 231173. 3949.69  84
   6  -2  -2 222730. 4004.15  53
   6  -2  -2 246388. 3878.77  78
   6  -2  -2 234356. 3806.81  48
   6  -2  -2 239891. 4031.38  73
   6  -2  -1 67486.8 1894.68  69
   6  -2  -1 62395.6 1850.08  38
   6  -2  -1 58536.4 1826.99  93
   6  -2  -1 64977.3 1770.49  90
   6  -2  -1 68592.6 2149.14  20
   6  -2  -1 60686.7 1876.60  84
   6  -2  -1 66601.9 1985.40  67
   6  -2  -1 59569.8 1905.97  53
   6  -2  -1 62794.1 1804.39  78
   6  -2  -1 61699.0 1804.43  48
   6  -2  -1 63828.4 1934.33  73
   6  -2   0 29050.2 1336.24  69
   6  -2   0 30493.1 1245.64  67
   6  -2   0 32499.2 1239.51  90
   6  -2   0 29211.7 1415.53  20
   6  -2   0 30738.2 1377.87  84
   6  -2   0 28610.2 1329.54  53
   6  -2   0 27655.5 1204.98  78
   6  -2   0 29175.4 1254.28  48
   6  -2   0 29538.0 1327.65  73
   6  -2   1 52235.0 1912.50  69
   6  -2   1 54956.0 1671.89  90
   6  -2   1 54852.9 1968.82  20
   6  -2   1 48815.4 1816.01  53
   6  -2   1 50330.3 1712.87  78
   6  -2   1 51344.9 1758.35  48
   6  -2   1 54778.9 1895.43  73
   6  -2   1 56139.2 1804.85  16
   6  -2   2 245673. 4590.50  69
   6  -2   2 242803. 3958.85  90
   6  -2   2 226252. 4295.46  20
   6  -2   2 231608. 4174.93  78
   6  -2   2 226251. 4199.21  48
   6  -2   2 247685. 4511.92  73
   6  -2   2 246066. 4368.46  16
   6  -2   3 192032. 4013.84  69
   6  -2   3 193832. 3519.50  90
   6  -2   3 190414. 3651.57  20
   6  -2   3 181282. 3738.12  78
   6  -2   3 196032. 4038.83  30
   6  -2   3 182644. 3796.15  48
   6  -2   3 190039. 3975.32  73
   6  -2   4 67226.9 2204.95  69
   6  -2   4 72595.7 2023.04  90
   6  -2   4 69370.2 2213.49  78
   6  -2   4 73596.1 2372.52  30
   6  -2   4 70453.9 2268.56  48
   6  -2   4 72116.4 2348.17  73
   6  -2   5 21080.6 1013.93  90
   6  -2   5 21391.7 1024.20  57
   6  -2   5 22867.9 1212.02  78
   6  -2   5 23594.7 1274.56  30
   6  -2   5 21955.4 1211.10  48
   6  -2   5 23395.4 1268.21  73
   6  -2   6 55208.9 1527.04  90
   6  -2   6 55311.6 1778.81  78
   6  -2   6 55249.6 1805.56  48
   6  -2   7 159178. 2801.76  78
   6  -2   7 159646. 2841.93  48
   6  -1 -10 66424.3 1325.45  83
   6  -1 -10 65071.4 1345.67  51
   6  -1  -9 29119.6 1065.67  83
   6  -1  -9 27797.9 1043.52  51
   6  -1  -8 128393. 2725.45  83
   6  -1  -8 126894. 2531.55  78
   6  -1  -8 120918. 2619.74  51
   6  -1  -7 103762. 2617.96  70
   6  -1  -7 106214. 2404.89  67
   6  -1  -7 111061. 2591.71  90
   6  -1  -7 116747. 2375.65  84
   6  -1  -7 106593. 2565.92  53
   6  -1  -7 110658. 2484.89  78
   6  -1  -7 109186. 2591.45  51
   6  -1  -7 115586. 2584.71  73
   6  -1  -6 109024. 2736.62  70
   6  -1  -6 116225. 2703.05  67
   6  -1  -6 114573. 2656.44  90
   6  -1  -6 108878. 2404.74  84
   6  -1  -6 113098. 2664.59  53
   6  -1  -6 115668. 2577.50  78
   6  -1  -6 114525. 2634.08  73
   6  -1  -5 282232. 4736.66  70
   6  -1  -5 305015. 4867.91  67
   6  -1  -5 302262. 4642.65  90
   6  -1  -5 306370. 4423.75  84
   6  -1  -5 306018. 4712.22  53
   6  -1  -5 290133. 4493.17  78
   6  -1  -5 289336. 4494.86  48
   6  -1  -5 307858. 4745.42  28
   6  -1  -5 307908. 4703.60  73
   6  -1  -4 16352.5 951.188  70
   6  -1  -4 16091.9 988.588  67
   6  -1  -4 17501.3 912.282  61
   6  -1  -4 15667.8 886.751  90
   6  -1  -4 14762.0 821.227  20
   6  -1  -4 15436.5 840.293  84
   6  -1  -4 15258.2 896.341  53
   6  -1  -4 14396.4 836.710  78
   6  -1  -4 13939.5 828.422  48
   6  -1  -4 14957.6 897.264  28
   6  -1  -4 14927.8 886.414  73
   6  -1  -3 221762. 3654.52  70
   6  -1  -3 235271. 4137.86  67
   6  -1  -3 225825. 3715.67  61
   6  -1  -3 208674. 3589.01  90
   6  -1  -3 228886. 3856.11  20
   6  -1  -3 221779. 3586.58  84
   6  -1  -3 214814. 3715.10  53
   6  -1  -3 215070. 3615.76  78
   6  -1  -3 218123. 3644.95  48
   6  -1  -3 223272. 3842.99  28
   6  -1  -3 227946. 3847.58  73
   6  -1  -2 192913. 3575.67  67
   6  -1  -2 187274. 3274.85  61
   6  -1  -2 190926. 3590.45  20
   6  -1  -2 171515. 3237.56  53
   6  -1  -2 170966. 3132.55  78
   6  -1  -2 168419. 3137.52  48
   6  -1  -2 181254. 3362.39  73
   6  -1  -1 201521. 3416.47  69
   6  -1  -1 188958. 3504.30  67
   6  -1  -1 187619. 3361.72  61
   6  -1  -1 205419. 3858.39  20
   6  -1  -1 191421. 3528.61  73
   6  -1   0 103871. 2538.60  69
   6  -1   0 87774.3 2206.81  61
   6  -1   0 102729. 2310.76  67
   6  -1   0 104566. 2680.99  20
   6  -1   0 91222.6 2302.74  53
   6  -1   0 87046.3 2199.25  78
   6  -1   0 85708.1 2211.72  48
   6  -1   0 90084.6 2346.31  73
   6  -1   1 20952.1 1176.01  69
   6  -1   1 16800.4 953.139  61
   6  -1   1 17858.6 938.819  90
   6  -1   1 19291.1 1128.67  20
   6  -1   1 18560.3 1001.97  78
   6  -1   1 18247.7 1009.91  48
   6  -1   1 18390.7 1058.48  73
   6  -1   2 121889. 3058.41  69
   6  -1   2 110140. 2680.24  61
   6  -1   2 110955. 2571.16  90
   6  -1   2 122293. 2903.35  20
   6  -1   2 106647. 2531.09  57
   6  -1   2 106579. 2669.26  78
   6  -1   2 116265. 2908.23  30
   6  -1   2 104271. 2685.05  48
   6  -1   2 116495. 2906.53  73
   6  -1   3 223644. 4376.59  69
   6  -1   3 202923. 3784.39  90
   6  -1   3 218214. 3916.87  20
   6  -1   3 201046. 3782.28  57
   6  -1   3 196046. 3960.76  78
   6  -1   3 213427. 4281.73  30
   6  -1   3 194736. 4003.26  48
   6  -1   3 215509. 4276.11  73
   6  -1   4 308403. 5289.41  69
   6  -1   4 294217. 4866.71  90
   6  -1   4 296214. 4881.71  57
   6  -1   4 290666. 5167.19  78
   6  -1   4 320700. 5502.13  30
   6  -1   4 285898. 5214.13  48
   6  -1   4 316616. 5459.07  73
   6  -1   5 64475.9 2119.59  69
   6  -1   5 60533.2 2000.09  90
   6  -1   5 59188.0 1974.49  57
   6  -1   5 60349.6 2168.40  78
   6  -1   5 64332.1 2294.12  30
   6  -1   5 59448.8 2196.98  48
   6  -1   5 66722.3 2314.70  73
   6  -1   6 64736.2 2007.82  90
   6  -1   6 63792.8 1983.33  57
   6  -1   6 68629.8 2239.80  78
   6  -1   6 73174.3 2352.17  30
   6  -1   6 66893.5 2256.27  48
   6  -1   6 71592.5 2326.55  73
   6  -1   7 47749.1 1541.54  90
   6  -1   7 49958.0 1575.79  57
   6  -1   7 49599.3 1730.35  78
   6  -1   7 51274.9 1787.76  48
   6  -1   8 103651. 1953.81  90
   6  -1   8 105482. 2219.67  78
   6  -1   8 104763. 2244.24  48
   6   0 -10 105985. 1834.29  51
   6   0  -9 72330.0 1646.64  83
   6   0  -9 66821.6 1703.90  51
   6   0  -8 97340.4 2257.39  83
   6   0  -8 95753.9 2260.14  78
   6   0  -8 94948.1 2293.62  51
   6   0  -7 118875. 2875.03  70
   6   0  -7 117400. 2530.60  67
   6   0  -7 121464. 2788.58  90
   6   0  -7 120618. 2713.76  78
   6   0  -7 121307. 2785.57  51
   6   0  -7 126959. 2792.55  73
   6   0  -6 80695.3 2376.71  70
   6   0  -6 85112.5 2297.12  67
   6   0  -6 80053.2 2229.02  90
   6   0  -6 82840.3 2242.09  53
   6   0  -6 84010.5 2227.31  78
   6   0  -5 206657. 3944.53  70
   6   0  -5 220346. 4012.91  67
   6   0  -5 206593. 3735.86  90
   6   0  -5 204087. 3681.59  53
   6   0  -5 207973. 3681.96  78
   6   0  -5 215688. 3746.80  48
   6   0  -5 210133. 3813.97  28
   6   0  -5 217454. 3838.06  73
   6   0  -4 118769. 2744.11  70
   6   0  -4 119671. 2598.32  61
   6   0  -4 115099. 2572.97  90
   6   0  -4 123108. 2483.43  20
   6   0  -4 116280. 2559.54  53
   6   0  -4 115436. 2553.27  78
   6   0  -4 112196. 2534.04  48
   6   0  -4 118267. 2673.13  28
   6   0  -4 119562. 2667.88  73
   6   0  -3 45041.3 1516.01  70
   6   0  -3 51157.8 1757.50  67
   6   0  -3 45651.4 1525.42  61
   6   0  -3 46400.7 1556.98  20
   6   0  -3 47029.0 1593.38  28
   6   0  -3 46530.1 1572.89  73
   6   0  -2 153291. 2745.83  70
   6   0  -2 159867. 3207.58  67
   6   0  -2 153191. 2974.23  61
   6   0  -2 151479. 2990.21  73
   6   0  -1 186628. 3133.11  69
   6   0  -1 168160. 3236.82  67
   6   0  -1 175088. 3282.51  61
   6   0  -1 180914. 3524.04  20
   6   0  -1 172868. 3227.68  73
   6   0   0 255779. 4136.60  69
   6   0   0 250274. 3876.37  67
   6   0   0 240455. 4061.27  61
   6   0   0 249782. 4340.92  20
   6   0   0 239592. 4015.88  73
   6   0   1 173451. 3498.84  69
   6   0   1 166992. 2815.82  67
   6   0   1 170486. 3460.89  20
   6   0   2 50614.5 1868.73  69
   6   0   2 42034.9 1673.47  61
   6   0   2 41697.9 1495.41  90
   6   0   2 53443.3 1798.70  20
   6   0   2 41441.2 1495.24  57
   6   0   2 41119.7 1556.07  78
   6   0   2 46318.8 1735.98  30
   6   0   2 41063.4 1576.90  48
   6   0   2 47368.9 1741.75  73
   6   0   3 140085. 3296.16  69
   6   0   3 138173. 3261.91   4
   6   0   3 97647.4 2837.70  61
   6   0   3 119323. 2773.16  90
   6   0   3 132947. 2849.23  20
   6   0   3 116802. 2756.92  57
   6   0   3 115783. 2871.53  78
   6   0   3 124229. 3075.38  30
   6   0   3 114329. 2900.00  48
   6   0   3 124243. 3061.99  73
   6   0   4 336568. 5500.05  69
   6   0   4 300631. 5004.90  90
   6   0   4 300481. 5000.05  57
   6   0   4 295650. 5213.32  78
   6   0   4 328153. 5546.46  30
   6   0   4 288205. 5236.25  48
   6   0   4 325229. 5515.35  73
   6   0   5 140244. 3278.59  69
   6   0   5 135296. 3229.68  90
   6   0   5 134714. 3236.21  57
   6   0   5 126197. 3308.17  78
   6   0   5 154828. 3694.38  30
   6   0   5 127926. 3392.97  48
   6   0   5 153427. 3673.44  73
   6   0   6 156409. 3298.86  69
   6   0   6 154813. 3491.81  90
   6   0   6 152087. 3466.09  57
   6   0   6 153953. 3652.48  78
   6   0   6 165077. 3837.46  30
   6   0   6 153388. 3719.58  48
   6   0   6 169324. 3868.77  73
   6   0   7 23629.5 1214.10  90
   6   0   7 23080.5 1201.73  57
   6   0   7 25571.8 1340.17  78
   6   0   7 23789.0 1304.86  30
   6   0   7 26271.0 1379.60  48
   6   0   7 24963.6 1337.89  73
   6   0   8 41569.3 1450.53  90
   6   0   8 41206.9 1452.19  57
   6   0   8 42822.4 1560.88  78
   6   0   8 41139.0 1557.47  48
   6   0   9 59843.1 1409.95  90
   6   0   9 61590.6 1429.68  57
   6   0   9 58608.1 1481.56  78
   6   0   9 59643.2 1511.91  48
   6   1 -10 80547.8 1521.98  51
   6   1  -9 115827. 2284.27  51
   6   1  -8 68800.6 1913.95  78
   6   1  -8 71561.0 1967.74  51
   6   1  -7 111103. 2643.75  90
   6   1  -7 109471. 2456.29  83
   6   1  -7 108011. 2578.36  78
   6   1  -7 102854. 2574.57  51
   6   1  -6 112924. 2652.71  67
   6   1  -6 101715. 2576.99  90
   6   1  -6 110887. 2628.22  78
   6   1  -6 101660. 2594.18  51
   6   1  -6 109381. 2635.51  73
   6   1  -6 107559. 2239.02  44
   6   1  -5 64265.0 2099.04  70
   6   1  -5 70326.6 2113.06  67
   6   1  -5 63742.5 1933.54  90
   6   1  -5 61430.5 1847.09  53
   6   1  -5 64939.6 1933.31  78
   6   1  -5 65119.3 1946.00  48
   6   1  -5 65096.4 1975.29  73
   6   1  -5 60825.5 1660.49  44
   6   1  -4 204699. 3797.39  70
   6   1  -4 215472. 3943.12  67
   6   1  -4 210826. 3616.74  61
   6   1  -4 195146. 3512.92  90
   6   1  -4 204693. 3344.63  20
   6   1  -4 197512. 3429.57  53
   6   1  -4 211200. 3289.36  79
   6   1  -4 199229. 3530.55  78
   6   1  -4 199925. 3539.57  48
   6   1  -4 198655. 3635.89  28
   6   1  -4 197939. 3604.78  73
   6   1  -4 193601. 3242.63  44
   6   1  -3 37991.6 1408.76  70
   6   1  -3 36839.0 1483.86  67
   6   1  -3 37246.0 1371.99  61
   6   1  -3 37566.8 1366.39  20
   6   1  -3 36426.5 1386.18  28
   6   1  -3 35331.3 1356.58  73
   6   1  -2 160019. 2892.90  70
   6   1  -2 157599. 3154.33  67
   6   1  -2 154415. 2517.08  62
   6   1  -2 149963. 2934.29  61
   6   1  -2 158725. 3118.54  20
   6   1  -2 153655. 2965.34  73
   6   1  -1 202137. 3233.81  69
   6   1  -1 197977. 3464.37  67
   6   1  -1 197068. 2981.43  62
   6   1  -1 199903. 3525.15  61
   6   1  -1 210502. 3754.73  20
   6   1   0 265933. 4073.49  69
   6   1   0 244518. 3752.81  67
   6   1   0 233005. 3436.02  62
   6   1   0 216753. 3870.15  61
   6   1   0 252406. 4212.47  20
   6   1   0 242393. 3914.37  73
   6   1   1 425098. 5962.84  69
   6   1   1 419646. 5123.72  67
   6   1   1 393748. 5768.76  61
   6   1   1 441718. 5971.72  20
   6   1   1 409513. 5659.90  73
   6   1   2 82690.0 2355.10  69
   6   1   2 64428.1 2141.95  61
   6   1   2 72911.0 2076.58  20
   6   1   2 75385.2 2159.28  30
   6   1   2 73360.0 2116.61  73
   6   1   3 80230.3 2405.73  69
   6   1   3 72915.1 2078.78  90
   6   1   3 73106.3 2073.08  57
   6   1   3 77462.3 2073.41  20
   6   1   3 70681.0 2131.31  78
   6   1   3 77732.6 2314.82  30
   6   1   3 69535.7 2150.04  48
   6   1   3 78003.2 2297.94  73
   6   1   4 166479. 3616.64  69
   6   1   4 177181. 3848.97   4
   6   1   4 146115. 3230.48  90
   6   1   4 141445. 3191.29  57
   6   1   4 155291. 2886.74  20
   6   1   4 141926. 2903.30  33
   6   1   4 149434. 2886.36  82
   6   1   4 143812. 3343.51  78
   6   1   4 148013. 3470.09  30
   6   1   4 138066. 3331.36  48
   6   1   4 150382. 3480.96  73
   6   1   5 203539. 3997.94  69
   6   1   5 184533. 3879.51  90
   6   1   5 184533. 3870.45  57
   6   1   5 181585. 3461.46  33
   6   1   5 177876. 3967.79  78
   6   1   5 203715. 4256.43  30
   6   1   5 175805. 4008.23  48
   6   1   5 201583. 4237.06  73
   6   1   6 122468. 2912.58  69
   6   1   6 112868. 3029.17  90
   6   1   6 111100. 2996.79  57
   6   1   6 117120. 2713.98  33
   6   1   6 117740. 3209.27  78
   6   1   6 125089. 3313.09  30
   6   1   6 116484. 3239.30  48
   6   1   6 125225. 3307.97  73
   6   1   7 74561.0 2012.03  69
   6   1   7 74645.9 2374.48  90
   6   1   7 75644.8 2396.13  57
   6   1   7 75791.2 2067.62  33
   6   1   7 76669.7 2475.41  78
   6   1   7 78352.7 2505.68  30
   6   1   7 74809.1 2496.96  48
   6   1   7 78268.5 2515.30  73
   6   1   8 11100.9 821.534  90
   6   1   8 11273.9 836.790  57
   6   1   8 12336.5 713.864  33
   6   1   8 12542.0 899.183  78
   6   1   8 11701.5 880.934  48
   6   1   9 31597.7 1205.56  90
   6   1   9 32428.9 1218.57  57
   6   1   9 33672.9 1243.47  78
   6   1   9 33330.4 1255.29  48
   6   2 -10 54693.2 1123.66  51
   6   2  -9 110552. 2145.67  51
   6   2  -8 82114.9 2071.27  51
   6   2  -8 80068.9 1693.72  44
   6   2  -7 60011.1 1620.72  79
   6   2  -7 60381.1 1879.48  78
   6   2  -7 60482.7 1902.74  51
   6   2  -7 60401.4 1627.46  44
   6   2  -6 66960.1 1984.90  67
   6   2  -6 66134.9 2016.41  90
   6   2  -6 70467.9 1852.12  79
   6   2  -6 72114.5 2104.67  78
   6   2  -6 66663.6 2044.49  51
   6   2  -6 70815.3 2091.95  73
   6   2  -6 63512.7 1765.89  44
   6   2  -5 107773. 2685.40  67
   6   2  -5 104215. 2517.55  90
   6   2  -5 103723. 2315.97  79
   6   2  -5 106259. 2550.80  78
   6   2  -5 102456. 2541.51  51
   6   2  -5 108405. 2606.01  73
   6   2  -5 99721.7 2311.03  44
   6   2  -4 127971. 2982.25  67
   6   2  -4 136883. 2505.38  62
   6   2  -4 125217. 2678.29  61
   6   2  -4 131519. 2767.35  90
   6   2  -4 124136. 2522.25  20
   6   2  -4 127379. 2589.77  79
   6   2  -4 131468. 2785.10  78
   6   2  -4 128770. 2775.46  48
   6   2  -4 135545. 2896.88  28
   6   2  -4 134178. 2852.80  73
   6   2  -4 126110. 2615.78  44
   6   2  -3 239967. 4170.46  67
   6   2  -3 235908. 3444.57  62
   6   2  -3 237154. 3852.24  61
   6   2  -3 223147. 3747.68  20
   6   2  -3 222704. 3818.69  28
   6   2  -3 220585. 3791.14  73
   6   2  -2 100718. 2466.72  67
   6   2  -2 104080. 2348.91  61
   6   2  -2 102476. 2425.99  20
   6   2  -2 98909.2 2317.60  28
   6   2  -2 98925.8 2293.67  73
   6   2  -1 150731. 2630.18  69
   6   2  -1 146054. 2936.68  67
   6   2  -1 132522. 2459.91  62
   6   2  -1 136163. 2761.39  61
   6   2  -1 146090. 2993.10  20
   6   2  -1 138499. 2738.55  73
   6   2   0 197832. 3302.69  67
   6   2   0 198023. 3194.36  62
   6   2   0 200756. 3562.72  61
   6   2   0 201814. 3650.95  20
   6   2   0 197133. 3393.81  73
   6   2   1 355284. 5193.89  69
   6   2   1 353020. 4492.13  67
   6   2   1 347052. 5180.41  61
   6   2   1 359140. 5154.07  20
   6   2   2 396604. 5757.63  69
   6   2   2 319397. 5443.91  61
   6   2   2 450450. 5775.92   4
   6   2   2 374613. 5320.94  20
   6   2   2 374999. 5370.47  73
   6   2   3 32274.8 1467.12  69
   6   2   3 29489.5 1205.90  20
   6   2   3 29728.2 1349.23  30
   6   2   3 32253.4 1400.00  73
   6   2   4 56721.9 1991.30  69
   6   2   4 52300.9 1805.60  90
   6   2   4 48647.4 1518.62  58
   6   2   4 53737.6 1831.88  57
   6   2   4 54348.3 1566.16  20
   6   2   4 53971.5 1734.90  33
   6   2   4 55030.6 1712.85  82
   6   2   4 53852.8 1892.29  78
   6   2   4 56302.6 1975.77  30
   6   2   4 51454.2 1885.45  48
   6   2   4 55774.8 1972.14  73
   6   2   5 86933.5 2462.65  69
   6   2   5 79729.7 2414.79  90
   6   2   5 78683.5 2396.94  57
   6   2   5 81960.0 2290.82  33
   6   2   5 83754.6 2237.27  82
   6   2   5 80710.8 2495.66  78
   6   2   5 86923.7 2614.77  30
   6   2   5 78034.4 2496.69  48
   6   2   5 85068.5 2589.48  73
   6   2   6 112019. 2773.48  69
   6   2   6 108848. 2976.33  90
   6   2   6 109009. 2969.47  57
   6   2   6 107941. 2765.41  33
   6   2   6 106584. 2629.17  82
   6   2   6 109290. 3028.76  78
   6   2   6 120292. 3177.38  30
   6   2   6 110525. 3095.89  48
   6   2   6 119550. 3163.45  73
   6   2   7 150014. 3025.95  69
   6   2   7 154099. 3598.19  90
   6   2   7 154117. 3613.73  57
   6   2   7 142984. 3250.97  33
   6   2   7 154301. 3155.29  82
   6   2   7 152361. 3639.80  78
   6   2   7 166398. 3736.12  30
   6   2   7 147169. 3661.12  48
   6   2   7 169986. 3771.86  73
   6   2   8 35881.2 1581.72  90
   6   2   8 35456.3 1578.27  57
   6   2   8 33258.4 1395.90  33
   6   2   8 37311.9 1338.92  82
   6   2   8 36529.8 1586.43  78
   6   2   8 41585.4 1639.58  30
   6   2   8 35951.8 1602.19  48
   6   2   8 41728.5 1644.60  73
   6   2   9 23224.6 1116.66  90
   6   2   9 22810.6 1109.32  57
   6   2   9 20903.3 940.535  33
   6   2   9 22983.5 1073.02  78
   6   2   9 23484.3 1097.87  48
   6   2  10 82582.4 1761.12  90
   6   2  10 82594.9 1761.21  57
   6   2  10 81291.9 1538.16  78
   6   2  10 84818.8 1590.97  48
   6   3  -9 42009.6 916.546  41
   6   3  -9 43251.1 1164.42  51
   6   3  -8 95464.2 2156.31  51
   6   3  -8 99741.7 1956.02  44
   6   3  -7 90258.4 2123.02  79
   6   3  -7 93298.3 2337.40  51
   6   3  -7 91756.6 2316.93  78
   6   3  -7 93398.0 2118.49  44
   6   3  -6 54529.8 1779.64  90
   6   3  -6 55401.6 1710.60  79
   6   3  -6 60488.7 1908.41  78
   6   3  -6 59308.5 1883.62  51
   6   3  -6 55234.3 1708.33  44
   6   3  -5 128847. 2801.18  90
   6   3  -5 129285. 2750.50  79
   6   3  -5 124748. 2820.88  78
   6   3  -5 121869. 2795.59  51
   6   3  -5 122204. 2817.77  73
   6   3  -5 124890. 2708.94  44
   6   3  -4 97060.4 2304.43  42
   6   3  -4 108271. 2165.81  96
   6   3  -4 99879.6 2602.82  67
   6   3  -4 105702. 2277.65  62
   6   3  -4 105445. 2394.16  61
   6   3  -4 102857. 2406.80  90
   6   3  -4 98750.3 2232.50  20
   6   3  -4 95998.4 2326.40  79
   6   3  -4 96746.7 2404.24  78
   6   3  -4 100598. 2388.99  51
   6   3  -4 102809. 2485.79  73
   6   3  -4 97327.6 2349.95  44
   6   3  -3 256604. 4406.54  67
   6   3  -3 271794. 3924.17  62
   6   3  -3 271713. 4099.39  61
   6   3  -3 241724. 4001.69  33
   6   3  -3 255011. 4095.37  20
   6   3  -3 255915. 4142.03  28
   6   3  -3 258189. 4125.38  73
   6   3  -3 244886. 4005.87  44
   6   3  -2 269415. 4489.16  67
   6   3  -2 305656. 4180.44  62
   6   3  -2 316971. 4510.09  61
   6   3  -2 268561. 4402.15  20
   6   3  -2 286631. 4337.99  28
   6   3  -2 286867. 4317.50  73
   6   3  -1 70141.7 1731.01  69
   6   3  -1 72721.6 1968.96  67
   6   3  -1 76944.3 1852.79  62
   6   3  -1 75031.7 1955.85  61
   6   3  -1 68600.8 2000.12  20
   6   3  -1 67721.8 1825.77  28
   6   3  -1 66792.1 1803.80  73
   6   3   0 107594. 2384.63  69
   6   3   0 106955. 2329.44  67
   6   3   0 102031. 2260.78  62
   6   3   0 106299. 2525.65  20
   6   3   0 110492. 2343.91  73
   6   3   1 88041.8 2268.97  69
   6   3   1 83525.1 1861.41  67
   6   3   1 88269.4 2285.51  61
   6   3   1 85069.7 2196.38  20
   6   3   1 85198.0 2056.28  73
   6   3   2 459350. 6327.41  69
   6   3   2 451150. 5958.14  20
   6   3   2 471943. 5989.15  73
   6   3   3 163677. 3411.33  69
   6   3   3 140546. 2508.71  58
   6   3   3 146326. 2855.39  20
   6   3   3 155333. 3137.38  73
   6   3   4 47023.2 1768.90  69
   6   3   4 45075.3 1631.88  90
   6   3   4 54115.4 2033.11   4
   6   3   4 41330.6 1332.79  58
   6   3   4 42848.8 1586.09  57
   6   3   4 46001.3 1403.80  20
   6   3   4 42330.7 1566.13  33
   6   3   4 42259.8 1544.95  82
   6   3   4 52496.7 1813.46  30
   6   3   4 53154.4 1818.35  73
   6   3   5 8292.42 730.123  69
   6   3   5 7738.52 707.176  90
   6   3   5 6616.22 652.998  57
   6   3   5 7338.82 677.073  33
   6   3   5 6992.72 644.675  82
   6   3   5 8490.43 745.531  78
   6   3   5 7974.69 726.509  30
   6   3   5 8435.50 759.334  48
   6   3   5 8652.49 755.599  73
   6   3   6 49708.5 1774.14  69
   6   3   6 47278.9 1885.39  90
   6   3   6 47352.8 1882.89  57
   6   3   6 44781.8 1801.66  33
   6   3   6 46716.4 1767.34  82
   6   3   6 49046.4 1919.08  78
   6   3   6 56198.0 2024.95  30
   6   3   6 50452.4 1983.69  48
   6   3   6 55687.1 2013.30  73
   6   3   7 190970. 3507.07  69
   6   3   7 194123. 4135.90  90
   6   3   7 193092. 4100.58  57
   6   3   7 186021. 3961.56  33
   6   3   7 192580. 3853.39  82
   6   3   7 209384. 4217.94  78
   6   3   7 204724. 4240.15  48
   6   3   8 234562. 4450.26  90
   6   3   8 233960. 4458.21  57
   6   3   8 234638. 4346.36  33
   6   3   8 216847. 4016.72  82
   6   3   8 251716. 4425.17  78
   6   3   8 252637. 4505.97  48
   6   3   9 82940.8 2274.59  90
   6   3   9 88676.2 2347.45  57
   6   3   9 88714.5 2280.56  33
   6   3   9 79001.5 1987.72  82
   6   3   9 90749.8 2172.92  78
   6   3   9 92319.1 2218.84  48
   6   3  10 17051.2 806.666  90
   6   3  10 16854.6 805.713  57
   6   3  10 17270.3 769.686  33
   6   4  -9 18651.4 543.409  41
   6   4  -9 19628.3 637.852  51
   6   4  -8 39218.6 1195.41  51
   6   4  -7 132438. 2640.48  79
   6   4  -7 131710. 2668.33  51
   6   4  -7 139044. 2654.81  44
   6   4  -6 120825. 2690.84  79
   6   4  -6 119496. 2667.30  51
   6   4  -6 117543. 2688.41  78
   6   4  -6 125527. 2689.04  44
   6   4  -5 168081. 3269.19  42
   6   4  -5 164402. 3062.47  96
   6   4  -5 161782. 3112.07  90
   6   4  -5 157681. 3232.45  79
   6   4  -5 160308. 3162.74  51
   6   4  -5 166125. 3291.16  78
   6   4  -5 162653. 3245.92  44
   6   4  -4 118219. 2610.10  42
   6   4  -4 117211. 2475.13  96
   6   4  -4 117162. 2541.15  90
   6   4  -4 108430. 2615.71  79
   6   4  -4 117902. 2647.92  78
   6   4  -4 119318. 2668.94  73
   6   4  -4 110951. 2660.48  44
   6   4  -3 51800.4 1576.56  42
   6   4  -3 48150.9 1487.28  96
   6   4  -3 53223.0 1617.90  62
   6   4  -3 49371.9 1528.03  61
   6   4  -3 44792.6 1511.20  82
   6   4  -3 45913.6 1605.73  79
   6   4  -3 46769.9 1557.82  78
   6   4  -3 51699.6 1552.50  49
   6   4  -3 50118.6 1609.64  73
   6   4  -3 49078.1 1667.40  44
   6   4  -2 326910. 4620.27  62
   6   4  -2 321689. 4578.54  61
   6   4  -2 317911. 4576.27  28
   6   4  -2 313946. 4521.71  73
   6   4  -1 153160. 2763.59  69
   6   4  -1 149132. 2860.12  62
   6   4  -1 159554. 2945.76  61
   6   4  -1 151954. 3130.42  20
   6   4  -1 154973. 2821.20  28
   6   4  -1 144011. 2724.69  73
   6   4   0 144038. 2878.73  69
   6   4   0 150472. 2918.06  62
   6   4   0 147431. 3078.78  20
   6   4   1 21418.4 1080.48  69
   6   4   1 21608.3 1047.96  62
   6   4   1 21816.4 1075.14  61
   6   4   1 21181.1 1062.46  20
   6   4   2 30956.8 1367.40  69
   6   4   2 28920.9 1314.69  61
   6   4   2 33944.2 1317.01   4
   6   4   2 30684.5 1253.27  20
   6   4   3 205117. 3886.55  69
   6   4   3 207695. 3465.43  20
   6   4   4 202753. 3888.23  69
   6   4   4 196843. 3207.83  20
   6   4   4 193879. 3680.63  33
   6   4   4 194610. 3640.99  82
   6   4   4 197388. 3504.45  43
   6   4   5 132222. 3082.63  69
   6   4   5 140429. 3133.50  90
   6   4   5 143442. 3152.79  57
   6   4   5 139291. 3215.31  33
   6   4   5 138380. 3138.63  82
   6   4   5 134461. 2903.52  43
   6   4   6 51310.2 1773.55  69
   6   4   6 56021.4 1996.99  90
   6   4   6 55674.8 1985.46  57
   6   4   6 49491.9 1936.55  33
   6   4   6 49122.8 1880.54  82
   6   4   6 52818.5 1755.33  43
   6   4   7 68102.4 1932.05  69
   6   4   7 77719.6 2425.51  90
   6   4   7 77702.7 2425.50  57
   6   4   7 71594.8 2391.58  33
   6   4   7 73373.9 2331.23  82
   6   4   7 74876.6 2058.35  43
   6   4   8 116091. 2948.45  90
   6   4   8 115974. 2939.33  57
   6   4   8 110056. 2942.02  33
   6   4   8 107958. 2798.39  82
   6   4   9 189158. 3566.65  90
   6   4   9 189793. 3567.27  57
   6   4   9 183852. 3609.34  33
   6   4   9 181991. 3447.79  82
   6   4  10 64190.6 1609.15  90
   6   4  10 64586.8 1613.61  57
   6   4  10 63288.8 1688.55  33
   6   4  10 59562.4 1527.16  82
   6   5  -8 38428.0 1003.17  41
   6   5  -8 39000.5 969.603  51
   6   5  -7 86209.3 1986.88  79
   6   5  -7 86219.0 1846.76  51
   6   5  -7 87795.1 1952.06  44
   6   5  -6 77748.2 2075.05  79
   6   5  -6 76284.0 1890.36  51
   6   5  -6 77538.9 2024.01  44
   6   5  -5 145822. 3020.05  42
   6   5  -5 143395. 2950.52  96
   6   5  -5 144495. 3095.94  79
   6   5  -5 152070. 2963.33  78
   6   5  -5 146633. 3066.26  44
   6   5  -4 148730. 3030.67  42
   6   5  -4 147604. 3002.47  96
   6   5  -4 143944. 3144.22  79
   6   5  -4 153145. 3190.91  44
   6   5  -3 83323.7 2098.18  42
   6   5  -3 79385.1 2076.57  96
   6   5  -3 82236.4 1985.83  49
   6   5  -3 82636.2 2285.08  44
   6   5  -2 75234.6 1903.18  42
   6   5  -2 74003.7 1961.48  96
   6   5  -2 76486.5 2035.83  62
   6   5  -2 71358.8 1978.36  33
   6   5  -2 76465.3 2146.29  79
   6   5  -2 76394.9 2145.47  44
   6   5  -1 113951. 2406.26  69
   6   5  -1 117804. 2491.86  96
   6   5  -1 107786. 2463.97  62
   6   5  -1 105731. 2340.89  88
   6   5  -1 113713. 2639.05  79
   6   5  -1 121333. 2482.63  49
   6   5  -1 104226. 2525.32  44
   6   5   0 80703.0 2118.32  69
   6   5   0 84636.2 2178.21  62
   6   5   0 84509.6 2296.45  20
   6   5   1 91685.0 2372.67  69
   6   5   1 90586.1 2340.04  62
   6   5   1 91775.8 2355.47  20
   6   5   2 48827.6 1745.82  69
   6   5   2 49535.4 1747.72  62
   6   5   2 51795.1 1701.44  61
   6   5   2 52336.9 1676.15   4
   6   5   2 48757.1 1631.49  20
   6   5   3 89671.3 2476.39  69
   6   5   3 87414.8 2423.17  96
   6   5   3 91633.3 2209.44   1
   6   5   3 95533.9 2378.52  92
   6   5   3 86849.6 2420.99  61
   6   5   3 85823.4 2234.59  88
   6   5   3 89161.0 2473.44   4
   6   5   3 90339.8 2301.04  33
   6   5   3 90882.4 2190.56  20
   6   5   3 87988.5 2246.37  82
   6   5   3 91471.1 2288.26  43
   6   5   4 299076. 5015.06  69
   6   5   4 331101. 5024.83   1
   6   5   4 305354. 4787.20  88
   6   5   4 340503. 5549.51   4
   6   5   4 337172. 5004.33  92
   6   5   4 315467. 5027.10  33
   6   5   4 322662. 5017.83  82
   6   5   4 327400. 4465.15  20
   6   5   4 332619. 4669.79  49
   6   5   4 326864. 4984.22  43
   6   5   5 157224. 3371.26  69
   6   5   5 162046. 3264.54  92
   6   5   5 153863. 3145.56  88
   6   5   5 160897. 3543.94  33
   6   5   5 165326. 3511.49  82
   6   5   5 158980. 3344.87  43
   6   5   6 104428. 2910.89  33
   6   5   6 108749. 2894.70  82
   6   5   6 105695. 2704.26  43
   6   5   7 63464.2 1832.99  69
   6   5   7 66354.8 2341.39  33
   6   5   7 72643.9 2363.44  82
   6   5   7 70323.7 2144.70  43
   6   5   8 47030.4 1713.95  90
   6   5   8 47855.4 1728.98  57
   6   5   8 45895.8 1868.69  33
   6   5   8 46081.1 1821.82  82
   6   5   8 43340.3 1574.02  43
   6   5   9 148107. 2884.93  90
   6   5   9 148733. 2882.02  57
   6   5   9 139854. 3136.17  33
   6   5   9 136113. 3022.00  82
   6   5   9 138725. 2598.80  43
   6   5  10 85452.7 2041.37  33
   6   5  10 84302.0 1964.02  82
   6   6  -7 54307.0 1329.17  41
   6   6  -6 67571.8 1831.36  79
   6   6  -6 71712.5 1825.54  44
   6   6  -5 84219.4 2132.17  42
   6   6  -5 85033.5 2182.07  96
   6   6  -5 85073.9 2253.82  79
   6   6  -5 87468.0 2219.28  44
   6   6  -4 77959.6 2102.89  42
   6   6  -4 74408.0 2113.52  96
   6   6  -4 81154.6 2285.18  79
   6   6  -4 77224.8 2184.79  44
   6   6  -3 73532.8 2035.20  42
   6   6  -3 76522.8 2147.94  96
   6   6  -3 77580.3 2308.75  80
   6   6  -3 80073.3 2285.89  79
   6   6  -3 82594.5 2266.54  44
   6   6  -2 27127.5 1152.36  42
   6   6  -2 27580.8 1256.65  96
   6   6  -2 28450.1 1335.87  80
   6   6  -2 27322.7 1284.97  79
   6   6  -2 30013.0 1174.66  49
   6   6  -2 29906.6 1321.92  44
   6   6  -1 100079. 2225.35  42
   6   6  -1 99969.3 2355.39  69
   6   6  -1 93425.3 2389.03  96
   6   6  -1 98092.4 2305.08  88
   6   6  -1 100137. 2504.77  80
   6   6  -1 100599. 2530.94  79
   6   6  -1 106393. 2366.72  49
   6   6  -1 106029. 2540.69  44
   6   6   0 118152. 2714.14  69
   6   6   0 119162. 2717.71  62
   6   6   0 119741. 2651.71  88
   6   6   0 114461. 2504.26  33
   6   6   0 111269. 2645.29  79
   6   6   0 122744. 2613.57  49
   6   6   0 120467. 2659.88  44
   6   6   0 113796. 2644.85  96
   6   6   1 167088. 3427.89  69
   6   6   1 165057. 3329.11  62
   6   6   1 167559. 3271.56  88
   6   6   1 171825. 3145.81  33
   6   6   1 161051. 3189.26  79
   6   6   1 159788. 3252.26  96
   6   6   1 175023. 3275.12  49
   6   6   1 158412. 2953.03   1
   6   6   2 146490. 3263.88  69
   6   6   2 148767. 3231.10  62
   6   6   2 154498. 3166.05  88
   6   6   2 153090. 3043.07  33
   6   6   2 148617. 2939.73  82
   6   6   2 149997. 2955.66   1
   6   6   2 145547. 3184.59  96
   6   6   2 159853. 3132.14  49
   6   6   3 12356.9 893.801  69
   6   6   3 12114.2 899.685  96
   6   6   3 13957.7 930.284  92
   6   6   3 13253.4 936.014  62
   6   6   3 13134.1 852.416   1
   6   6   3 12883.3 867.988  88
   6   6   3 12169.3 825.922  33
   6   6   3 12437.7 824.705  82
   6   6   3 12327.2 891.810   4
   6   6   3 14633.6 891.317  49
   6   6   3 12298.3 845.683  43
   6   6   4 222790. 4189.21  69
   6   6   4 234282. 4261.03  92
   6   6   4 219184. 4003.68  88
   6   6   4 234825. 4223.58  33
   6   6   4 220855. 4096.33  82
   6   6   4 223594. 4455.24  96
   6   6   4 230181. 4193.73  43
   6   6   5 175001. 3575.51  69
   6   6   5 181004. 3686.65  92
   6   6   5 174997. 3485.48  88
   6   6   5 183626. 3838.32  33
   6   6   5 173881. 3708.46  82
   6   6   5 187919. 3417.83  49
   6   6   5 186831. 3809.66  43
   6   6   6 148622. 3446.46  43
   6   6   6 153507. 3187.85  69
   6   6   6 156569. 3363.68  92
   6   6   6 164090. 3716.82  33
   6   6   6 160295. 3630.51  82
   6   6   7 80638.6 2428.67  43
   6   6   7 78918.3 2008.97  69
   6   6   7 83365.2 2234.25  92
   6   6   7 84447.4 2618.90  33
   6   6   7 82433.7 2557.07  82
   6   6   8 23130.9 1292.69  33
   6   6   8 21884.1 1238.71  82
   6   6   8 22523.7 1182.90  43
   6   6   9 29753.5 1335.82  33
   6   6   9 31272.9 1359.37  82
   6   6   9 29186.2 1185.06  43
   6   6  10 79801.9 1898.54  33
   6   6  10 76594.6 1875.65  82
   6   6  10 75357.4 1787.37  96
   6   7  -7 37663.0 862.482  41
   6   7  -6 29855.3 979.075  41
   6   7  -5 33388.1 1200.18  42
   6   7  -5 32989.6 1254.89  79
   6   7  -5 34488.9 1241.07  44
   6   7  -4 84696.8 2118.28  42
   6   7  -4 82950.2 2208.27  96
   6   7  -4 86665.9 2256.46  79
   6   7  -4 87632.0 2198.69  44
   6   7  -3 65375.6 1894.23  42
   6   7  -3 64880.2 1990.82  96
   6   7  -3 65035.1 2096.63  80
   6   7  -3 63020.7 1985.39  79
   6   7  -3 67665.0 1980.89  44
   6   7  -2 81311.1 2123.68  42
   6   7  -2 83786.3 2319.94  96
   6   7  -2 85571.5 2325.22  79
   6   7  -2 87707.5 2282.52  44
   6   7  -1 52862.0 1628.88  42
   6   7  -1 44867.9 1676.88  96
   6   7  -1 48424.9 1551.34  88
   6   7  -1 46805.9 1545.24  87
   6   7  -1 43997.0 1676.17  80
   6   7  -1 49534.8 1716.37  79
   6   7  -1 48063.9 1561.29  49
   6   7  -1 51561.7 1695.58  44
   6   7   0 111388. 2565.86  88
   6   7   0 106382. 2560.00  80
   6   7   0 111023. 2565.35  79
   6   7   0 113458. 2575.19  49
   6   7   1 193594. 3818.25  69
   6   7   1 185550. 3708.39  96
   6   7   1 194325. 3665.67  88
   6   7   1 195406. 3650.31  49
   6   7   2 250003. 4492.32  69
   6   7   2 234611. 4342.85  96
   6   7   2 239526. 4268.61  88
   6   7   2 243371. 4232.10  49
   6   7   3 73616.0 2278.57  69
   6   7   3 70622.2 2285.33  96
   6   7   3 70846.7 2287.19  92
   6   7   3 77887.4 2284.91  88
   6   7   3 75222.9 2235.25  49
   6   7   4 15994.9 1023.08  69
   6   7   4 16632.2 1088.07  92
   6   7   4 15407.4 1071.18  96
   6   7   4 16863.6 1035.08  88
   6   7   4 18176.1 1036.83  82
   6   7   4 16129.3 1009.65  49
   6   7   4 16487.9 1048.87  43
   6   7   5 132852. 3039.63  69
   6   7   5 132500. 3271.19  92
   6   7   5 140250. 3120.10  88
   6   7   5 144576. 3250.86  33
   6   7   5 141251. 3231.34  82
   6   7   5 139701. 3491.10  96
   6   7   5 138815. 3091.85  49
   6   7   5 140351. 3357.46  43
   6   7   6 95105.2 2373.35  69
   6   7   6 98699.0 2910.96  96
   6   7   6 92913.8 2647.21  92
   6   7   6 98994.7 2483.88  88
   6   7   6 99104.5 2725.82  33
   6   7   6 100084. 2759.22  82
   6   7   6 97450.3 2387.52  49
   6   7   6 100689. 2807.90  43
   6   7   7 136016. 3099.36  92
   6   7   7 136795. 3244.05  33
   6   7   7 127711. 3201.64  82
   6   7   7 143240. 3450.91  96
   6   7   7 133545. 3236.41  43
   6   7   8 55220.1 1924.03  96
   6   7   8 49396.4 1595.28  92
   6   7   8 54900.9 1875.25  33
   6   7   8 50273.2 1858.78  82
   6   7   8 50310.4 1799.66  43
   6   7   9 2543.63 345.333  96
   6   7   9 2761.97 363.374  33
   6   7   9 2034.45 325.329  82
   6   7   9 2886.42 369.223  43
   6   7  10 33767.6 1044.89  33
   6   7  10 32381.4 1106.08  82
   6   7  10 30253.8 928.902  96
   6   8  -5 16543.2 714.685  42
   6   8  -5 16042.7 658.841  41
   6   8  -4 49772.6 1467.73  42
   6   8  -3 63453.3 1782.37  42
   6   8  -3 64587.3 1908.51  96
   6   8  -3 63501.0 1965.76  80
   6   8  -3 64454.7 1801.90  79
   6   8  -3 65935.0 1744.28  44
   6   8  -2 164055. 3144.90  42
   6   8  -2 163288. 3344.33  96
   6   8  -2 160254. 3409.16  80
   6   8  -1 100265. 2383.69  42
   6   8  -1 104980. 2650.59  96
   6   8  -1 109034. 2507.20  87
   6   8  -1 102763. 2644.04  80
   6   8   0 49959.2 1815.29  96
   6   8   0 53618.9 1733.62  88
   6   8   0 50364.0 1627.96  87
   6   8   0 54302.7 1783.48  80
   6   8   0 56041.9 1755.72  49
   6   8   1 61917.7 2051.71  96
   6   8   1 67784.6 2060.77  88
   6   8   1 62788.9 1765.90  87
   6   8   1 66025.9 2024.18  49
   6   8   2 144476. 3307.53  96
   6   8   2 152187. 3326.30  88
   6   8   2 150370. 3273.40  49
   6   8   3 222730. 4240.10  69
   6   8   3 225845. 4230.50  88
   6   8   3 214431. 4201.06  96
   6   8   3 216924. 4189.32  49
   6   8   4 24469.9 1257.66  69
   6   8   4 24471.6 1310.65  96
   6   8   4 22111.8 1302.78  92
   6   8   4 25775.2 1321.76  88
   6   8   4 22888.5 1247.72  49
   6   8   5 39653.3 1544.78  69
   6   8   5 39902.9 1687.12  96
   6   8   5 38320.7 1728.95  92
   6   8   5 40893.3 1646.99  88
   6   8   5 38361.4 1600.64  49
   6   8   5 40426.1 1722.54  43
   6   8   6 13067.4 809.180  69
   6   8   6 13654.9 958.378  96
   6   8   6 13247.7 989.675  92
   6   8   6 14287.4 912.018  88
   6   8   6 15448.1 964.156  82
   6   8   6 13585.7 873.440  49
   6   8   6 13077.4 969.455  43
   6   8   7 76615.7 2204.19  96
   6   8   7 73966.6 2260.26  92
   6   8   7 77149.9 1977.21  88
   6   8   7 75553.0 2195.12  82
   6   8   7 78276.9 1964.69  49
   6   8   7 74798.4 2326.99  43
   6   8   8 143130. 2808.55  96
   6   8   8 137568. 2861.39  92
   6   8   8 146788. 3000.24  82
   6   8   8 146130. 3116.21  43
   6   8   9 56322.5 1364.52  96
   6   8   9 55138.7 1556.28  82
   6   8   9 54223.1 1614.10  43
   6   8  10 18943.3 691.450  82
   6   9  -4 62994.3 1395.39  42
   6   9  -3 44445.1 1321.07  42
   6   9  -2 70146.0 1814.61  42
   6   9  -2 70379.3 1900.48  96
   6   9  -1 122555. 2591.36  42
   6   9  -1 138111. 2887.45  96
   6   9   0 101804. 2522.48  96
   6   9   0 105967. 2329.30  88
   6   9   0 103181. 2271.28  49
   6   9   1 37400.0 1503.55  96
   6   9   1 39128.0 1499.33  88
   6   9   1 34992.8 1326.84  87
   6   9   1 38641.6 1454.08  49
   6   9   2 52446.1 1792.49  96
   6   9   2 55535.0 1887.13  88
   6   9   2 50261.0 1571.72  87
   6   9   2 52793.7 1825.46  49
   6   9   3 75880.3 2182.22  96
   6   9   3 74891.5 2285.13  88
   6   9   3 71164.9 2202.57  49
   6   9   4 86933.3 2336.42  96
   6   9   4 92054.7 2537.37  88
   6   9   4 85272.1 2419.33  49
   6   9   5 32575.1 1339.34  96
   6   9   5 36801.2 1653.72  92
   6   9   5 36835.5 1524.54  88
   6   9   5 33843.9 1481.97  49
   6   9   6 31826.3 1251.69  96
   6   9   6 29886.9 1444.76  92
   6   9   6 32443.1 1345.60  88
   6   9   6 31972.7 1331.59  49
   6   9   7 44414.2 1673.40  92
   6   9   7 46300.2 1433.18  88
   6   9   7 43830.1 1402.97  49
   6   9   7 41332.3 1581.37  43
   6   9   8 75777.4 2003.08  43
   6  10  -2 43977.2 1198.11  42
   6  10  -1 66135.8 1629.30  42
   6  10  -1 72291.8 1647.98  96
   6  10   0 88630.9 1997.57  42
   6  10   0 99386.9 2086.58  96
   6  10   1 27527.2 1064.66  42
   6  10   1 29435.5 1119.79  96
   6  10   1 29720.5 1148.56  88
   6  10   1 27117.3 1089.72  87
   6  10   1 27846.9 1072.53  49
   6  10   2 18998.7 905.184  96
   6  10   2 20641.0 1036.08  88
   6  10   2 19178.3 901.698  87
   6  10   2 20878.6 1017.93  49
   6  10   3 29337.2 1295.80  88
   6  10   3 28906.8 1269.71  49
   6  10   4 105789. 2584.65  88
   6  10   4 105543. 2545.41  49
   6  10   5 121226. 2685.51  88
   6  10   5 116859. 2628.01  49
   6  10   6 31041.7 1195.76  88
   6  10   6 29924.9 1182.75  49
   6  10   7 32390.6 1055.87  88
   6  10   7 32336.7 1062.62  49
   6  11   0 48168.7 1127.70  42
   6  11   1 70879.7 1460.13  42
   6  11   2 51486.5 1200.73  42
   6  11   2 56060.9 1400.78  88
   6  11   2 51311.1 1271.39  87
   6  11   2 56637.6 1325.28  49
   6  11   3 22479.0 940.993  88
   6  11   3 22608.8 907.556  49
   6  11   4 17806.1 850.470  88
   6  11   4 18548.2 842.763  49
   6  11   5 113967. 2222.01  88
   6  11   5 107196. 2135.75  49
   6  11   6 73192.8 1573.14  88
   6  11   6 72279.4 1565.35  49
   7  -6  -4 16271.9 583.016  93
   7  -6  -4 15786.0 568.382  84
   7  -6  -4 14956.6 529.096  77
   7  -6  -3 88869.6 1557.28  93
   7  -6  -3 89048.1 1513.41  84
   7  -6  -3 85074.2 1500.56  77
   7  -6  -2 69012.6 1341.81  93
   7  -6  -2 69583.8 1282.23  84
   7  -6  -1 86199.8 1473.29  38
   7  -6  -1 86305.6 1476.56  93
   7  -5  -7 67146.1 1197.38  93
   7  -5  -7 68324.9 1262.84  84
   7  -5  -6 130046. 2060.62  93
   7  -5  -6 129941. 2118.58  84
   7  -5  -6 132866. 2044.65  53
   7  -5  -6 128940. 1844.08  50
   7  -5  -5 98516.5 1883.31  93
   7  -5  -5 97000.2 1905.92  84
   7  -5  -5 99174.4 1855.39  53
   7  -5  -5 95227.9 1672.96  50
   7  -5  -5 95428.7 1688.69  77
   7  -5  -4 48039.7 1343.67  93
   7  -5  -4 49432.9 1371.07  84
   7  -5  -4 49344.1 1327.71  53
   7  -5  -4 47546.1 1192.29  50
   7  -5  -4 47392.7 1265.54  77
   7  -5  -3 26729.7 1016.05  38
   7  -5  -3 28797.1 1057.22  93
   7  -5  -3 26702.9 1016.61  84
   7  -5  -3 27287.0 1005.58  53
   7  -5  -3 28102.5 933.390  50
   7  -5  -3 26085.8 981.310  77
   7  -5  -2 53090.8 1476.77  38
   7  -5  -2 51816.4 1470.73  93
   7  -5  -2 52276.0 1460.96  84
   7  -5  -2 50725.9 1426.37  53
   7  -5  -2 49716.2 1299.30  50
   7  -5  -1 56825.6 1539.16  38
   7  -5  -1 61151.3 1594.06  93
   7  -5  -1 61340.2 1569.22  84
   7  -5  -1 60021.8 1556.09  53
   7  -5  -1 60659.5 1434.21  50
   7  -5   0 111733. 2167.97  38
   7  -5   0 108969. 2159.66  93
   7  -5   0 109312. 2099.04  84
   7  -5   0 113764. 2162.83  53
   7  -5   0 110789. 1973.64  50
   7  -5   1 84791.0 1735.42  38
   7  -5   1 81882.7 1732.10  93
   7  -5   1 84362.1 1672.49  84
   7  -5   1 86165.9 1734.18  53
   7  -5   1 79701.3 1512.31  50
   7  -5   2 17553.4 659.340  38
   7  -5   2 16734.8 654.683  93
   7  -5   2 18331.4 663.405  53
   7  -4  -8 36259.2 815.697  93
   7  -4  -8 38894.9 897.709  84
   7  -4  -8 35821.3 904.687  83
   7  -4  -8 37090.8 833.396  51
   7  -4  -7 27507.5 864.918  93
   7  -4  -7 28847.5 926.330  84
   7  -4  -7 26857.3 899.210  83
   7  -4  -7 28003.0 898.311  51
   7  -4  -6 77310.3 1710.39  93
   7  -4  -6 82232.0 1809.84  84
   7  -4  -6 77262.1 1777.76  53
   7  -4  -6 77271.6 1529.67  50
   7  -4  -5 109846. 2247.85  93
   7  -4  -5 115384. 2349.96  84
   7  -4  -5 114429. 2344.80  53
   7  -4  -5 110038. 2045.41  50
   7  -4  -5 108403. 2027.78  77
   7  -4  -4 107398. 2332.55  93
   7  -4  -4 116756. 2468.30  84
   7  -4  -4 109308. 2392.98  53
   7  -4  -4 108038. 2128.76  50
   7  -4  -4 110309. 2242.15  77
   7  -4  -3 52138.2 1611.30  38
   7  -4  -3 51934.3 1617.42  93
   7  -4  -3 51975.2 1641.73  84
   7  -4  -3 52991.0 1654.64  53
   7  -4  -3 50445.4 1440.19  50
   7  -4  -2 26006.9 1148.63  38
   7  -4  -2 26768.6 1167.11  93
   7  -4  -2 29313.7 1220.96  84
   7  -4  -2 26304.4 1169.54  53
   7  -4  -2 25721.7 1034.48  50
   7  -4  -1 69375.8 1949.89  38
   7  -4  -1 72820.0 2006.57  93
   7  -4  -1 73555.4 2007.73  84
   7  -4  -1 75299.2 2051.25  53
   7  -4  -1 75076.0 1851.62  50
   7  -4   0 79467.2 2078.64  38
   7  -4   0 79266.9 2102.58  93
   7  -4   0 81855.9 2093.34  84
   7  -4   0 81470.8 2145.64  53
   7  -4   0 80584.0 1923.11  50
   7  -4   1 223676. 3674.26  38
   7  -4   1 224967. 3734.96  93
   7  -4   1 226667. 3669.41  84
   7  -4   1 227493. 3767.45  53
   7  -4   2 65853.1 1748.75  38
   7  -4   2 66968.1 1785.27  93
   7  -4   2 66365.8 1718.15  84
   7  -4   2 68569.8 1812.55  53
   7  -4   2 66397.8 1573.73  50
   7  -4   3 39624.1 1201.40  38
   7  -4   3 38931.3 1216.62  93
   7  -4   3 39359.9 1164.05  84
   7  -4   3 40148.1 1236.55  53
   7  -4   3 36306.8 987.485  50
   7  -4   4 46478.6 1112.36  38
   7  -4   4 45825.6 1125.16  93
   7  -4   4 46733.3 1138.67  53
   7  -3  -9 93324.8 1539.69  83
   7  -3  -8 76735.2 1398.78  93
   7  -3  -8 76063.7 1463.84  84
   7  -3  -8 77558.9 1565.48  51
   7  -3  -7 25971.1 909.721  93
   7  -3  -7 28005.3 985.153  84
   7  -3  -7 29633.8 1121.10  83
   7  -3  -7 27015.9 1031.24  53
   7  -3  -6 47143.5 1381.57  93
   7  -3  -6 44070.0 1391.69  84
   7  -3  -6 47968.1 1508.83  53
   7  -3  -5 56655.1 1631.10  93
   7  -3  -5 58634.4 1719.76  84
   7  -3  -5 62143.7 1810.86  53
   7  -3  -4 112046. 2627.71  67
   7  -3  -4 117030. 2530.69  38
   7  -3  -4 119179. 2564.63  93
   7  -3  -4 121567. 2665.83  84
   7  -3  -4 122628. 2719.79  53
   7  -3  -4 128387. 2530.82  28
   7  -3  -4 125869. 2497.85  73
   7  -3  -3 151410. 3163.83  67
   7  -3  -3 163887. 3147.79  38
   7  -3  -3 164922. 3179.53  93
   7  -3  -3 150654. 3030.55  20
   7  -3  -3 167401. 3268.81  84
   7  -3  -3 169719. 3331.75  53
   7  -3  -3 170957. 3084.45  28
   7  -3  -3 168632. 3050.32  73
   7  -3  -2 64364.8 1911.82  38
   7  -3  -2 63423.5 1922.87  93
   7  -3  -2 59581.8 1853.54  67
   7  -3  -2 64430.2 1976.95  20
   7  -3  -2 67632.4 2013.73  84
   7  -3  -2 63476.7 1983.34  53
   7  -3  -2 69774.9 1907.06  28
   7  -3  -2 67650.7 1866.87  73
   7  -3  -1 108105. 2454.31  67
   7  -3  -1 113790. 2668.83  38
   7  -3  -1 115789. 2733.39  93
   7  -3  -1 112792. 2772.11  20
   7  -3  -1 121139. 2798.05  84
   7  -3  -1 119117. 2832.01  53
   7  -3  -1 117761. 2442.80  78
   7  -3  -1 120112. 2471.98  48
   7  -3  -1 125068. 2670.18  73
   7  -3   0 50355.6 1619.70  69
   7  -3   0 48744.5 1708.79  38
   7  -3   0 50203.7 1760.81  93
   7  -3   0 51514.1 1776.21  84
   7  -3   0 53243.1 1857.48  53
   7  -3   0 53841.5 1601.96  78
   7  -3   0 52716.4 1598.32  48
   7  -3   0 54548.1 1722.63  73
   7  -3   1 108217. 2558.60  69
   7  -3   1 107840. 2626.05  38
   7  -3   1 107531. 2650.73  93
   7  -3   1 104739. 2605.06  20
   7  -3   1 116029. 2728.09  84
   7  -3   1 113199. 2777.58  53
   7  -3   1 113412. 2433.90  78
   7  -3   1 115170. 2471.44  48
   7  -3   1 115314. 2584.57  73
   7  -3   2 174400. 3380.73  84
   7  -3   2 171527. 3476.22  53
   7  -3   2 169947. 3051.90  78
   7  -3   2 169436. 3075.38  48
   7  -3   3 63377.8 1837.37  84
   7  -3   3 65804.4 1941.73  53
   7  -3   3 63364.4 1663.79  78
   7  -3   3 63313.3 1679.11  48
   7  -3   4 48463.3 1462.00  84
   7  -3   4 49452.5 1534.88  53
   7  -3   4 49095.0 1318.56  78
   7  -3   4 46956.7 1304.88  48
   7  -3   5 44553.1 1187.00  84
   7  -3   5 42227.8 1207.51  53
   7  -2  -9 82951.4 1559.88  83
   7  -2  -9 81769.3 1495.52  51
   7  -2  -8 118841. 2274.89  83
   7  -2  -8 111366. 2144.16  51
   7  -2  -7 68460.9 1704.87  90
   7  -2  -7 60804.0 1545.78  84
   7  -2  -7 64462.1 1749.85  53
   7  -2  -7 72162.7 1619.11  78
   7  -2  -7 64569.6 1750.18  51
   7  -2  -6 39665.8 1399.72  70
   7  -2  -6 40829.6 1445.77  67
   7  -2  -6 42170.3 1313.73  93
   7  -2  -6 44066.4 1428.37  90
   7  -2  -6 43474.8 1393.13  84
   7  -2  -6 44509.3 1524.91  53
   7  -2  -6 43937.3 1358.99  78
   7  -2  -6 46458.2 1448.26  73
   7  -2  -5 34479.2 1312.00  70
   7  -2  -5 36568.7 1454.03  67
   7  -2  -5 40004.8 1345.47  93
   7  -2  -5 40733.0 1414.16  90
   7  -2  -5 38150.2 1383.30  84
   7  -2  -5 39184.7 1475.12  53
   7  -2  -5 39819.1 1355.33  78
   7  -2  -5 40253.0 1366.69  48
   7  -2  -5 39723.6 1428.41  28
   7  -2  -5 40907.3 1430.25  73
   7  -2  -4 121784. 2895.47  67
   7  -2  -4 133052. 2696.73  93
   7  -2  -4 135125. 2753.64  90
   7  -2  -4 128126. 2766.59  84
   7  -2  -4 132512. 2907.07  53
   7  -2  -4 127688. 2661.60  78
   7  -2  -4 128495. 2678.62  48
   7  -2  -4 131904. 2813.81  28
   7  -2  -3 233536. 4187.97  67
   7  -2  -3 231209. 3816.78  38
   7  -2  -3 231149. 3855.34  93
   7  -2  -3 226148. 3793.83  90
   7  -2  -3 221510. 3917.81  20
   7  -2  -3 229777. 3972.83  84
   7  -2  -3 226394. 4060.57  53
   7  -2  -3 234491. 3844.83  78
   7  -2  -3 238980. 3881.77  48
   7  -2  -3 234955. 4025.41  28
   7  -2  -3 239112. 4035.76  73
   7  -2  -2 174116. 3484.57  67
   7  -2  -2 176580. 3287.72  38
   7  -2  -2 177375. 3329.56  93
   7  -2  -2 176698. 3222.30  90
   7  -2  -2 172219. 3533.29  20
   7  -2  -2 173153. 3397.36  84
   7  -2  -2 167018. 3429.02  53
   7  -2  -2 165123. 3191.46  78
   7  -2  -2 162151. 3198.65  48
   7  -2  -2 184747. 3490.30  73
   7  -2  -1 81516.0 2182.74  67
   7  -2  -1 75198.9 2090.09  38
   7  -2  -1 73439.1 2113.25  93
   7  -2  -1 77879.6 2040.81  90
   7  -2  -1 85740.7 2445.86  20
   7  -2  -1 77038.6 2210.47  84
   7  -2  -1 78603.6 2291.90  53
   7  -2  -1 76676.5 2091.03  78
   7  -2  -1 79983.4 2149.16  48
   7  -2  -1 81525.7 2258.04  73
   7  -2   0 93332.7 2401.69  69
   7  -2   0 89568.3 2359.15  38
   7  -2   0 84176.9 2334.12  93
   7  -2   0 96550.0 2289.82  90
   7  -2   0 101898. 2716.17  20
   7  -2   0 97610.8 2527.70  84
   7  -2   0 94008.2 2564.55  53
   7  -2   0 95217.9 2392.51  78
   7  -2   0 94699.2 2403.95  48
   7  -2   0 93511.1 2490.40  73
   7  -2   1 42293.2 1654.36  69
   7  -2   1 38390.9 1400.79  90
   7  -2   1 40134.7 1651.78  20
   7  -2   1 34826.1 1523.63  84
   7  -2   1 40304.7 1645.21  53
   7  -2   1 39236.6 1525.28  78
   7  -2   1 37977.2 1515.14  48
   7  -2   1 39338.2 1602.45  73
   7  -2   2 137726. 3191.05  69
   7  -2   2 143434. 2855.91  90
   7  -2   2 150676. 3201.70  20
   7  -2   2 140075. 3252.09  53
   7  -2   2 141163. 3083.80  78
   7  -2   2 137491. 3074.47  48
   7  -2   2 143741. 3231.38  73
   7  -2   3 181273. 3646.88  69
   7  -2   3 188500. 3280.43  90
   7  -2   3 181998. 3713.23  53
   7  -2   3 180025. 3524.12  78
   7  -2   3 176028. 3537.47  48
   7  -2   3 194014. 3750.75  73
   7  -2   4 24097.6 998.534  90
   7  -2   4 23602.4 1185.59  53
   7  -2   4 23146.1 1120.97  78
   7  -2   4 22224.0 1112.52  48
   7  -2   4 24834.8 1192.19  73
   7  -2   5 44107.1 1497.01  53
   7  -2   5 44509.2 1441.04  78
   7  -2   5 43423.0 1445.59  48
   7  -2   6 49872.3 1377.16  84
   7  -2   6 53045.1 1381.86  53
   7  -2   6 52268.7 1339.51  78
   7  -2   6 52509.0 1363.37  48
   7  -1  -9 30973.8 918.797  83
   7  -1  -9 30872.2 932.660  51
   7  -1  -8 67346.5 1702.96  83
   7  -1  -8 67003.9 1568.93  78
   7  -1  -8 70145.7 1723.74  51
   7  -1  -7 190457. 3349.28  90
   7  -1  -7 200755. 3290.17  78
   7  -1  -7 199845. 3466.05  51
   7  -1  -7 198808. 3334.24  73
   7  -1  -6 118038. 2718.22  70
   7  -1  -6 119640. 2691.03  67
   7  -1  -6 128931. 2761.81  90
   7  -1  -6 125828. 2752.88  53
   7  -1  -6 124012. 2630.10  78
   7  -1  -6 130892. 2739.04  73
   7  -1  -5 89838.6 2438.33  67
   7  -1  -5 92238.6 2342.06  90
   7  -1  -5 92860.0 2142.95  84
   7  -1  -5 94712.2 2380.83  53
   7  -1  -5 91061.4 2275.01  78
   7  -1  -5 94035.9 2313.02  48
   7  -1  -5 91360.5 2346.72  28
   7  -1  -5 90611.4 2316.36  73
   7  -1  -4 25737.1 1157.85  70
   7  -1  -4 27291.6 1327.70  67
   7  -1  -4 26585.9 1212.91  90
   7  -1  -4 25687.5 1114.54  20
   7  -1  -4 26897.8 1143.01  84
   7  -1  -4 26336.6 1225.50  53
   7  -1  -4 25916.6 1183.88  78
   7  -1  -4 27799.5 1224.70  48
   7  -1  -4 27581.7 1267.16  28
   7  -1  -4 27412.5 1251.02  73
   7  -1  -3 159732. 3423.12  67
   7  -1  -3 162375. 3187.18  90
   7  -1  -3 154454. 3183.28  20
   7  -1  -3 151945. 3004.89  84
   7  -1  -3 154539. 3194.94  53
   7  -1  -3 153491. 3102.66  78
   7  -1  -3 153818. 3115.03  48
   7  -1  -3 164285. 3318.05  28
   7  -1  -3 164687. 3296.10  73
   7  -1  -2 247376. 4353.72  67
   7  -1  -2 230220. 3953.94  90
   7  -1  -2 248038. 4357.32  20
   7  -1  -2 239165. 3958.10  84
   7  -1  -2 223748. 4032.22  53
   7  -1  -2 230611. 3980.09  78
   7  -1  -2 228077. 3980.99  48
   7  -1  -2 253364. 4279.74  73
   7  -1  -1 159732. 3262.57  67
   7  -1  -1 145721. 3030.49  90
   7  -1  -1 164958. 3539.09  20
   7  -1  -1 154345. 3094.44  84
   7  -1  -1 142500. 3134.30  53
   7  -1  -1 150858. 3110.32  78
   7  -1  -1 150028. 3125.43  48
   7  -1  -1 158957. 3311.48  73
   7  -1   0 170671. 3374.24  69
   7  -1   0 157198. 3075.79  67
   7  -1   0 158602. 3113.52  93
   7  -1   0 160783. 3189.65  90
   7  -1   0 174892. 3688.86  20
   7  -1   0 152743. 3195.78  84
   7  -1   0 154365. 3295.09  53
   7  -1   0 152718. 3207.80  78
   7  -1   0 151186. 3231.28  48
   7  -1   0 161523. 3423.27  73
   7  -1   1 34167.8 1522.95  69
   7  -1   1 31466.7 1339.86  90
   7  -1   1 37050.4 1607.86  20
   7  -1   1 32643.6 1458.08  53
   7  -1   1 32100.6 1420.04  78
   7  -1   1 30503.5 1401.92  48
   7  -1   1 33582.4 1500.84  73
   7  -1   2 17078.6 1105.08  69
   7  -1   2 18207.1 1023.79  90
   7  -1   2 18287.5 1086.78  20
   7  -1   2 15456.3 1017.37  53
   7  -1   2 16344.8 1031.32  78
   7  -1   2 16056.1 1041.14  48
   7  -1   2 16962.0 1081.96  73
   7  -1   3 214040. 4204.95  69
   7  -1   3 203480. 3803.07  90
   7  -1   3 204439. 3747.19  20
   7  -1   3 205408. 4058.58  53
   7  -1   3 196979. 3983.11  78
   7  -1   3 196257. 4032.22  48
   7  -1   3 216310. 4238.99  73
   7  -1   4 123432. 2807.93  90
   7  -1   4 121283. 2999.28  78
   7  -1   4 118500. 3007.29  48
   7  -1   5 60598.0 1816.75  90
   7  -1   5 62378.7 2010.86  78
   7  -1   5 62947.1 2045.63  48
   7  -1   5 63615.4 2068.24  73
   7  -1   6 45255.3 1393.40  90
   7  -1   6 45329.9 1550.19  78
   7  -1   6 45591.5 1589.67  48
   7  -1   7 57799.5 1299.29  90
   7  -1   7 58863.8 1356.78  53
   7  -1   7 58906.3 1507.32  78
   7  -1   7 58541.6 1526.67  48
   7   0  -9 41643.3 1019.38  83
   7   0  -9 43215.9 1149.72  51
   7   0  -8 42471.9 1295.02  83
   7   0  -8 41112.4 1289.17  78
   7   0  -8 41248.7 1333.40  51
   7   0  -7 105559. 2435.28  90
   7   0  -7 103563. 2355.94  78
   7   0  -7 106714. 2460.24  51
   7   0  -7 102065. 2351.25  73
   7   0  -6 192301. 3633.67  67
   7   0  -6 205845. 3728.42  90
   7   0  -6 192871. 3581.23  53
   7   0  -6 202849. 3631.64  78
   7   0  -6 208765. 3705.31  73
   7   0  -5 247781. 4419.86  67
   7   0  -5 252729. 4296.17  90
   7   0  -5 254577. 4225.88  53
   7   0  -5 252083. 4223.83  78
   7   0  -5 260162. 4284.51  48
   7   0  -5 261221. 4369.02  28
   7   0  -5 265992. 4358.03  73
   7   0  -4 33986.6 1401.51  70
   7   0  -4 37280.7 1590.21  67
   7   0  -4 35990.3 1447.58  90
   7   0  -4 35916.1 1330.37  20
   7   0  -4 35740.1 1414.93  53
   7   0  -4 32458.6 1364.25  78
   7   0  -4 34548.3 1415.21  48
   7   0  -4 38950.7 1524.71  28
   7   0  -4 39443.1 1528.05  73
   7   0  -3 82590.2 2107.61  70
   7   0  -3 88396.5 2481.13  67
   7   0  -3 83449.1 2236.88  90
   7   0  -3 83176.3 2246.83  20
   7   0  -3 78857.6 2153.97  53
   7   0  -3 82257.8 2213.86  78
   7   0  -3 84113.7 2250.57  48
   7   0  -3 85554.8 2325.83  28
   7   0  -3 83746.4 2299.14  73
   7   0  -2 76148.0 2257.53  67
   7   0  -2 75458.4 2089.07  90
   7   0  -2 77246.4 2265.15  20
   7   0  -2 77079.6 1926.33  33
   7   0  -2 71941.6 1860.88  84
   7   0  -2 75163.3 2028.85  82
   7   0  -2 69357.3 2003.16  53
   7   0  -2 73591.2 1874.16  79
   7   0  -2 72361.5 2058.67  78
   7   0  -2 72439.6 2068.70  48
   7   0  -2 76159.0 2179.99  73
   7   0  -1 183511. 3573.56  67
   7   0  -1 181249. 3418.39  90
   7   0  -1 184274. 3235.74  84
   7   0  -1 182355. 3274.79  82
   7   0  -1 178695. 3396.48  53
   7   0  -1 177356. 3429.24  78
   7   0  -1 177089. 3456.73  48
   7   0  -1 183474. 3582.93  73
   7   0   0 217855. 3873.34  69
   7   0   0 210809. 3636.49  67
   7   0   0 198720. 3646.93  90
   7   0   0 227173. 4283.71  20
   7   0   0 191558. 3501.98  84
   7   0   0 205472. 3429.41  82
   7   0   0 199658. 3663.84  53
   7   0   0 196015. 3702.47  78
   7   0   0 193749. 3719.23  48
   7   0   0 196736. 3816.93  73
   7   0   1 182485. 3726.09  69
   7   0   1 171267. 3387.35  90
   7   0   1 182438. 3772.27  20
   7   0   1 168125. 3367.08  53
   7   0   1 160772. 3395.55  78
   7   0   1 162094. 3447.00  48
   7   0   1 170075. 3570.78  73
   7   0   2 21032.6 1246.74  69
   7   0   2 22959.9 1181.98  90
   7   0   2 21925.4 1201.77  20
   7   0   2 19318.0 1089.67  53
   7   0   2 19601.4 1137.26  78
   7   0   2 19761.0 1156.49  48
   7   0   2 20408.0 1189.71  73
   7   0   3 23676.6 1339.55  69
   7   0   3 22387.4 1200.12  90
   7   0   3 20901.5 1112.25  20
   7   0   3 20442.5 1203.34  78
   7   0   3 20783.7 1231.69  48
   7   0   3 21967.7 1278.03  73
   7   0   4 263005. 4655.88  90
   7   0   4 265662. 4679.62  57
   7   0   4 260169. 4843.79  78
   7   0   4 264506. 4928.49  48
   7   0   4 270493. 4992.81  73
   7   0   5 99253.0 2628.72  69
   7   0   5 93698.9 2551.51  90
   7   0   5 93684.7 2546.92  57
   7   0   5 97483.1 2738.62  78
   7   0   5 104019. 2875.88  30
   7   0   5 94571.4 2743.93  48
   7   0   5 99044.4 2793.36  73
   7   0   6 185763. 3573.43  90
   7   0   6 191068. 3620.91  57
   7   0   6 193048. 3829.46  78
   7   0   6 188320. 3859.13  48
   7   0   6 193119. 3829.02  73
   7   0   7 35386.7 1281.28  90
   7   0   7 37009.1 1395.39  78
   7   0   7 35181.9 1383.55  48
   7   0   8 39285.2 1078.85  90
   7   0   8 39245.7 1160.07  78
   7   0   8 40049.9 1188.92  48
   7   1  -9 67551.5 1462.80  51
   7   1  -8 105323. 2207.79  78
   7   1  -8 104980. 2220.59  51
   7   1  -7 29758.0 1248.01  90
   7   1  -7 29509.9 1157.92  83
   7   1  -7 30974.6 1252.07  78
   7   1  -7 27744.8 1209.98  51
   7   1  -6 127446. 2860.86  67
   7   1  -6 132862. 2917.34  90
   7   1  -6 127192. 2847.91  78
   7   1  -6 127618. 2889.36  51
   7   1  -6 132830. 2894.51  73
   7   1  -5 216230. 4084.98  67
   7   1  -5 211105. 3892.76  90
   7   1  -5 207611. 3708.26  53
   7   1  -5 200010. 3765.97  78
   7   1  -5 200874. 3796.78  48
   7   1  -5 222058. 3952.40  73
   7   1  -5 204993. 3378.01  44
   7   1  -4 150771. 3366.45  67
   7   1  -4 138455. 3019.00  90
   7   1  -4 141286. 2823.66  20
   7   1  -4 141195. 2923.35  53
   7   1  -4 134457. 2642.44  79
   7   1  -4 141709. 3027.45  78
   7   1  -4 139974. 3021.54  48
   7   1  -4 135753. 3044.35  28
   7   1  -4 140961. 3062.26  73
   7   1  -4 130817. 2677.70  44
   7   1  -3 98626.0 2653.84  67
   7   1  -3 90835.4 2342.01  90
   7   1  -3 93740.5 2307.62  33
   7   1  -3 93938.1 2407.97  20
   7   1  -3 92331.3 2380.38  82
   7   1  -3 90334.5 2246.95  53
   7   1  -3 89363.5 2133.57  79
   7   1  -3 88157.3 2317.17  78
   7   1  -3 87727.1 2316.66  48
   7   1  -3 93962.5 2448.76  28
   7   1  -3 92043.4 2415.60  73
   7   1  -2 42662.0 1682.33  67
   7   1  -2 39070.5 1470.08  90
   7   1  -2 43646.7 1674.76  20
   7   1  -2 40479.7 1427.41  33
   7   1  -2 45478.2 1571.63  82
   7   1  -2 41177.0 1435.34  53
   7   1  -2 41888.6 1440.91  79
   7   1  -2 38693.3 1481.12  78
   7   1  -2 40520.0 1524.27  48
   7   1  -2 42423.2 1592.69  28
   7   1  -2 41334.3 1556.52  73
   7   1  -1 86328.5 2354.43  67
   7   1  -1 88888.6 2353.62  61
   7   1  -1 86329.7 2229.36  90
   7   1  -1 92582.7 2562.89  20
   7   1  -1 89602.0 2135.07  33
   7   1  -1 85386.0 2173.39  82
   7   1  -1 94121.8 2218.92  53
   7   1  -1 84033.9 2161.34  79
   7   1  -1 86208.5 2257.28  78
   7   1  -1 87486.2 2294.55  48
   7   1  -1 92572.3 2391.86  73
   7   1   0 117190. 2679.94  69
   7   1   0 106995. 2470.11  67
   7   1   0 103414. 2598.82  61
   7   1   0 100267. 2441.80  90
   7   1   0 117533. 2934.15  20
   7   1   0 103816. 2302.52  33
   7   1   0 106722. 2410.83  82
   7   1   0 95849.5 2448.10  78
   7   1   0 96902.3 2484.39  48
   7   1   0 101656. 2579.00  73
   7   1   1 351581. 5354.85  69
   7   1   1 300727. 4994.02  61
   7   1   1 290232. 4674.56  90
   7   1   1 337234. 5322.03  20
   7   1   1 303857. 4427.91  33
   7   1   1 293695. 4476.59  82
   7   1   1 290471. 4773.82  78
   7   1   1 288206. 4808.15  48
   7   1   1 314086. 5044.31  73
   7   1   2 206712. 4124.28  69
   7   1   2 178818. 3584.03  90
   7   1   2 205179. 3918.46  20
   7   1   2 184823. 3317.61  33
   7   1   2 194380. 3410.08  82
   7   1   2 180010. 3683.03  78
   7   1   2 178072. 3708.65  48
   7   1   2 191977. 3856.18  73
   7   1   3 39065.0 1727.49  69
   7   1   3 32546.2 1472.38  90
   7   1   3 32642.6 1465.89  57
   7   1   3 35861.5 1468.36  20
   7   1   3 35822.4 1345.52  33
   7   1   3 35193.1 1332.65  82
   7   1   3 31991.9 1503.34  78
   7   1   3 33933.1 1570.46  48
   7   1   3 37802.6 1669.43  73
   7   1   4 138016. 3357.24  69
   7   1   4 125371. 3105.78  90
   7   1   4 127879. 3132.55  57
   7   1   4 134181. 2797.38  33
   7   1   4 129627. 3265.82  78
   7   1   4 128602. 3311.86  48
   7   1   4 134407. 3366.68  73
   7   1   5 118974. 2977.34  69
   7   1   5 112959. 2940.39  90
   7   1   5 111936. 2923.40  57
   7   1   5 107918. 2484.95  33
   7   1   5 111814. 3020.20  78
   7   1   5 115808. 3125.04  30
   7   1   5 109320. 3040.88  48
   7   1   5 114560. 3089.29  73
   7   1   6 182214. 3764.43  90
   7   1   6 179189. 3751.15  57
   7   1   6 189692. 3953.33  78
   7   1   6 193024. 3990.28  30
   7   1   6 186123. 3972.22  48
   7   1   6 188244. 3947.72  73
   7   1   7 89525.8 2360.77  90
   7   1   7 88962.5 2368.39  57
   7   1   7 89438.9 2434.59  78
   7   1   7 86596.5 2438.78  48
   7   1   8 28979.6 1126.68  90
   7   1   8 29242.0 1135.09  57
   7   1   8 28770.0 1141.00  78
   7   1   8 27646.8 1135.05  48
   7   2  -9 77733.6 1501.00  51
   7   2  -8 108282. 2194.80  51
   7   2  -7 54127.5 1673.50  78
   7   2  -7 51554.2 1646.83  51
   7   2  -7 50927.7 1366.25  44
   7   2  -6 30382.1 1312.61  67
   7   2  -6 32118.0 1351.18  90
   7   2  -6 31443.6 1159.95  79
   7   2  -6 30260.8 1314.82  78
   7   2  -6 30339.8 1329.74  51
   7   2  -6 31021.1 1331.60  73
   7   2  -6 29626.3 1139.83  44
   7   2  -5 137372. 3166.59  67
   7   2  -5 133769. 2987.81  90
   7   2  -5 135861. 2705.78  79
   7   2  -5 129656. 2941.80  78
   7   2  -5 134539. 2989.98  51
   7   2  -5 142095. 3062.65  73
   7   2  -5 128298. 2696.23  44
   7   2  -4 147216. 3396.34  67
   7   2  -4 150868. 3160.66  90
   7   2  -4 151519. 2952.78  20
   7   2  -4 150700. 2950.35  79
   7   2  -4 151627. 3182.56  78
   7   2  -4 152874. 3214.88  48
   7   2  -4 154633. 3263.39  28
   7   2  -4 153220. 3212.35  73
   7   2  -4 145484. 2949.73  44
   7   2  -3 161653. 3519.85  67
   7   2  -3 142340. 3026.95  90
   7   2  -3 144814. 3046.71  33
   7   2  -3 150200. 3151.80  20
   7   2  -3 156069. 3187.57  82
   7   2  -3 140781. 2881.54  79
   7   2  -3 144702. 3070.74  78
   7   2  -3 144591. 3087.42  48
   7   2  -3 152850. 3200.09  28
   7   2  -3 154032. 3188.85  73
   7   2  -2 80660.8 2379.31  67
   7   2  -2 82190.7 1875.47  62
   7   2  -2 83846.2 2245.08  61
   7   2  -2 77904.1 2117.86  90
   7   2  -2 82164.8 2135.48  33
   7   2  -2 80864.9 2328.75  20
   7   2  -2 84082.1 2207.27  82
   7   2  -2 75262.2 2044.56  79
   7   2  -2 79477.2 2160.26  78
   7   2  -2 80088.3 2179.24  48
   7   2  -2 81884.7 2247.29  28
   7   2  -2 79880.1 2205.45  73
   7   2  -1 73995.1 2161.36  67
   7   2  -1 72874.7 1803.33  62
   7   2  -1 66537.0 2020.15  61
   7   2  -1 69569.7 1976.35  90
   7   2  -1 75795.0 2277.07  20
   7   2  -1 71487.8 1933.22  33
   7   2  -1 69850.7 1966.79  82
   7   2  -1 69161.3 1982.39  79
   7   2  -1 67478.3 1972.77  78
   7   2  -1 71637.0 2024.34  49
   7   2  -1 69233.6 2003.45  48
   7   2  -1 73864.1 2091.42  73
   7   2   0 83950.1 2215.39  69
   7   2   0 77886.7 2077.03  67
   7   2   0 76816.3 1907.84  62
   7   2   0 75781.2 2194.20  61
   7   2   0 74338.4 2040.40  90
   7   2   0 82262.5 2395.19  20
   7   2   0 70137.4 1916.81  33
   7   2   0 71042.9 1981.19  82
   7   2   0 73770.6 2068.12  78
   7   2   0 70165.6 1980.83  49
   7   2   0 73048.1 2071.44  48
   7   2   0 74663.1 2142.53  73
   7   2   1 237110. 4244.57  69
   7   2   1 216309. 3469.74  67
   7   2   1 211126. 3564.69  62
   7   2   1 196027. 3917.91  61
   7   2   1 209574. 3740.72  90
   7   2   1 219040. 4155.34  20
   7   2   1 205328. 3580.81  33
   7   2   1 216494. 3691.45  82
   7   2   1 209231. 3804.60  78
   7   2   1 206896. 3604.78  49
   7   2   1 207640. 3831.23  48
   7   2   1 218591. 3954.12  73
   7   2   2 269780. 4903.80  61
   7   2   2 280924. 4617.05  90
   7   2   2 301860. 4906.38  20
   7   2   2 274560. 4399.41  33
   7   2   2 287271. 4486.65  82
   7   2   2 283804. 4731.59  78
   7   2   2 280564. 4759.65  48
   7   2   2 310986. 5002.38  73
   7   2   3 216490. 4085.35  90
   7   2   3 217308. 4079.84  57
   7   2   3 220830. 3967.21  20
   7   2   3 219170. 3879.90  33
   7   2   3 226401. 3918.44  82
   7   2   3 226772. 4251.11  78
   7   2   3 224440. 4291.89  48
   7   2   4 55688.9 2077.87  69
   7   2   4 50590.0 1896.36  90
   7   2   4 49870.9 1879.84  57
   7   2   4 50390.2 1744.78  33
   7   2   4 47946.4 1684.27  82
   7   2   4 53148.9 1985.72  78
   7   2   4 51242.4 1976.63  48
   7   2   4 52214.8 2000.64  73
   7   2   5 93224.4 2657.40  69
   7   2   5 86996.2 2595.01  90
   7   2   5 86053.8 2574.60  57
   7   2   5 83791.9 2337.30  33
   7   2   5 83220.1 2280.66  82
   7   2   5 87930.6 2667.87  78
   7   2   5 96693.8 2796.19  30
   7   2   5 88968.3 2721.26  48
   7   2   5 95798.0 2774.29  73
   7   2   6 77099.3 2248.35  69
   7   2   6 80271.9 2465.81  90
   7   2   6 79795.9 2454.26  57
   7   2   6 74365.7 2168.94  33
   7   2   6 78739.1 2124.67  82
   7   2   6 80414.0 2523.41  78
   7   2   6 82930.0 2523.17  30
   7   2   6 76269.8 2494.30  48
   7   2   6 81466.6 2521.79  73
   7   2   7 93793.9 2578.19  90
   7   2   7 94580.6 2582.12  57
   7   2   7 92984.4 2299.65  33
   7   2   7 97771.4 2641.81  78
   7   2   7 104478. 2639.41  30
   7   2   7 95467.6 2650.75  48
   7   2   7 103251. 2628.03  73
   7   2   8 61109.9 1841.76  90
   7   2   8 61213.2 1844.29  57
   7   2   8 56910.4 1539.26  33
   7   2   8 64294.1 1841.70  78
   7   2   8 63566.2 1859.91  48
   7   2   9 16659.5 758.011  90
   7   2   9 16624.3 757.097  57
   7   2   9 16730.0 689.151  78
   7   2   9 17517.2 715.175  48
   7   3  -9 87427.2 1437.27  51
   7   3  -8 82599.8 1754.97  51
   7   3  -7 108248. 2134.41  79
   7   3  -7 104537. 2308.00  51
   7   3  -7 106016. 2365.45  78
   7   3  -7 102146. 2071.39  44
   7   3  -6 14926.9 889.015  90
   7   3  -6 15465.8 838.908  79
   7   3  -6 15461.2 906.256  51
   7   3  -6 16561.2 949.248  78
   7   3  -6 15332.3 841.831  44
   7   3  -5 50669.4 1721.74  90
   7   3  -5 47315.6 1599.34  79
   7   3  -5 48894.8 1720.40  78
   7   3  -5 50598.8 1719.66  51
   7   3  -5 49092.2 1717.95  73
   7   3  -5 47212.9 1601.51  44
   7   3  -4 120046. 3013.99  67
   7   3  -4 111923. 2659.65  90
   7   3  -4 110824. 2588.60  79
   7   3  -4 111967. 2700.25  78
   7   3  -4 117665. 2672.48  51
   7   3  -4 118368. 2778.28  73
   7   3  -4 106617. 2565.73  44
   7   3  -3 224303. 4261.99  67
   7   3  -3 216798. 3807.85  90
   7   3  -3 224491. 3938.71  33
   7   3  -3 210300. 3861.57  20
   7   3  -3 216576. 3894.22  82
   7   3  -3 203001. 3705.01  79
   7   3  -3 211748. 3841.36  78
   7   3  -3 209767. 3840.49  48
   7   3  -3 203592. 3836.43  28
   7   3  -3 208925. 3847.16  73
   7   3  -3 211958. 3824.22  44
   7   3  -2 161750. 3495.07  67
   7   3  -2 164358. 2948.71  62
   7   3  -2 163866. 3195.64  61
   7   3  -2 158976. 3127.05  90
   7   3  -2 155196. 3140.87  33
   7   3  -2 162394. 3425.09  20
   7   3  -2 163786. 3212.95  82
   7   3  -2 155249. 3170.75  79
   7   3  -2 153015. 3135.64  78
   7   3  -2 156928. 3165.03  49
   7   3  -2 158104. 3187.81  48
   7   3  -2 158716. 3233.47  28
   7   3  -2 158725. 3217.62  73
   7   3  -1 96939.9 2518.29  67
   7   3  -1 99879.6 2242.58  62
   7   3  -1 103402. 2540.33  61
   7   3  -1 96934.6 2335.41  90
   7   3  -1 101147. 2385.53  33
   7   3  -1 103601. 2730.40  20
   7   3  -1 98267.3 2382.74  82
   7   3  -1 91579.3 2396.78  79
   7   3  -1 93095.1 2350.66  78
   7   3  -1 97836.9 2385.99  49
   7   3  -1 92897.6 2358.80  48
   7   3  -1 98065.5 2439.46  28
   7   3  -1 101649. 2466.40  73
   7   3   0 104150. 2494.92  69
   7   3   0 96399.1 2375.33  67
   7   3   0 97647.7 2293.94  62
   7   3   0 100947. 2548.88  61
   7   3   0 93825.2 2305.97  90
   7   3   0 103246. 2726.53  20
   7   3   0 96217.4 2320.99  33
   7   3   0 101665. 2394.87  82
   7   3   0 96082.3 2491.30  79
   7   3   0 96655.2 2384.62  78
   7   3   0 95843.4 2333.17  49
   7   3   0 96388.4 2399.93  48
   7   3   0 101359. 2466.72  73
   7   3   1 155513. 3327.30  69
   7   3   1 140341. 2732.44  67
   7   3   1 131237. 2838.21  62
   7   3   1 143770. 3213.83  61
   7   3   1 145067. 2950.93  90
   7   3   1 151938. 3334.75  20
   7   3   1 143028. 2924.10  33
   7   3   1 143140. 2933.89  82
   7   3   1 144759. 3015.51  78
   7   3   1 143409. 2899.50  49
   7   3   1 144470. 3029.83  48
   7   3   1 149394. 3100.81  73
   7   3   2 241180. 4431.49  69
   7   3   2 203181. 3496.75  96
   7   3   2 193084. 4028.80  61
   7   3   2 207291. 3753.92  90
   7   3   2 220447. 4033.76  20
   7   3   2 203717. 3701.20  33
   7   3   2 198164. 3674.42  82
   7   3   2 217400. 3900.85  78
   7   3   2 212369. 3583.49  49
   7   3   2 217821. 3960.90  48
   7   3   2 218772. 3963.14  73
   7   3   3 259243. 4752.78  69
   7   3   3 237293. 4219.73  90
   7   3   3 236993. 4104.68  20
   7   3   3 224380. 4070.01  33
   7   3   3 232400. 4108.21  82
   7   3   3 245341. 4350.96  78
   7   3   3 244797. 4401.81  48
   7   3   3 266600. 4522.91  73
   7   3   4 84109.3 2563.14  69
   7   3   4 76292.5 2322.77  90
   7   3   4 75899.3 2312.81  57
   7   3   4 79304.1 2042.29  20
   7   3   4 73723.7 2217.59  33
   7   3   4 75969.5 2230.72  82
   7   3   4 77045.8 2381.09  78
   7   3   4 79902.4 2456.57  48
   7   3   4 87299.9 2509.74  73
   7   3   5 15372.2 1046.72  69
   7   3   5 15085.5 1045.06  90
   7   3   5 15017.8 1042.22  57
   7   3   5 14106.0 976.725  33
   7   3   5 13204.9 915.739  82
   7   3   5 15935.0 1076.97  78
   7   3   5 15075.9 1061.29  48
   7   3   5 16501.2 1078.88  73
   7   3   6 97763.0 2580.44  69
   7   3   6 90943.2 2672.60  90
   7   3   6 88809.8 2648.53  57
   7   3   6 89731.4 2548.04  33
   7   3   6 93037.0 2516.95  82
   7   3   6 104044. 2827.60  78
   7   3   6 103155. 2858.66  48
   7   3   7 90680.0 2588.96  90
   7   3   7 89801.4 2573.11  57
   7   3   7 92314.6 2488.59  33
   7   3   7 88710.1 2339.08  82
   7   3   7 99714.9 2632.70  78
   7   3   7 98948.8 2676.79  48
   7   3   8 119471. 2775.73  90
   7   3   8 119850. 2764.07  57
   7   3   8 114000. 2571.70  33
   7   3   8 114852. 2411.48  82
   7   3   8 125495. 2649.11  78
   7   3   8 124898. 2685.65  48
   7   3   9 18278.8 860.389  90
   7   3   9 17549.6 842.922  57
   7   3   9 17253.9 767.614  33
   7   4  -8 59444.3 1262.88  51
   7   4  -7 117638. 2240.63  79
   7   4  -7 116923. 2245.91  51
   7   4  -7 115908. 2201.69  44
   7   4  -6 137920. 2742.92  79
   7   4  -6 136465. 2711.81  51
   7   4  -6 132736. 2779.45  78
   7   4  -6 138103. 2715.46  44
   7   4  -5 16550.8 924.688  90
   7   4  -5 15869.7 926.814  79
   7   4  -5 18663.6 961.755  51
   7   4  -5 15513.5 932.437  78
   7   4  -5 18931.2 888.617  96
   7   4  -5 18594.0 997.005  44
   7   4  -4 32561.7 1205.03  96
   7   4  -4 35071.4 1378.31  90
   7   4  -4 32645.8 1391.23  79
   7   4  -4 32476.1 1378.20  78
   7   4  -4 32771.0 1367.64  73
   7   4  -4 33255.6 1418.63  44
   7   4  -3 123396. 2657.99  42
   7   4  -3 122376. 2480.49  96
   7   4  -3 123647. 2710.48  90
   7   4  -3 118862. 2736.53  82
   7   4  -3 121937. 2847.99  79
   7   4  -3 120721. 2762.59  78
   7   4  -3 123558. 2740.68  49
   7   4  -3 120044. 2738.06  73
   7   4  -3 119871. 2837.41  44
   7   4  -2 342681. 4708.21  42
   7   4  -2 359232. 4747.39  96
   7   4  -2 326022. 4866.94  90
   7   4  -2 354920. 5197.58  33
   7   4  -2 345196. 5069.99  82
   7   4  -2 318118. 5252.14  20
   7   4  -2 332373. 5183.53  79
   7   4  -2 321349. 4952.80  78
   7   4  -2 347599. 5085.64  49
   7   4  -2 332290. 5028.46  48
   7   4  -2 340957. 5044.89  28
   7   4  -2 335450. 4995.32  73
   7   4  -2 308822. 5070.60  44
   7   4  -1 282644. 4203.63  69
   7   4  -1 281046. 4094.11  96
   7   4  -1 276606. 4314.39  62
   7   4  -1 288273. 4515.13  61
   7   4  -1 268466. 4247.09  90
   7   4  -1 277513. 4432.92  33
   7   4  -1 286838. 4897.18  20
   7   4  -1 291167. 4476.47  82
   7   4  -1 259454. 4526.23  79
   7   4  -1 264710. 4311.67  78
   7   4  -1 289979. 4477.17  49
   7   4  -1 263377. 4308.24  48
   7   4  -1 285161. 4425.00  28
   7   4  -1 279893. 4379.57  73
   7   4   0 106256. 2553.65  69
   7   4   0 105567. 2297.56  96
   7   4   0 107069. 2489.71  62
   7   4   0 111329. 2614.08  61
   7   4   0 101176. 2370.54  90
   7   4   0 107611. 2508.63  33
   7   4   0 105709. 2777.83  20
   7   4   0 105413. 2481.82  82
   7   4   0 101711. 2642.10  79
   7   4   0 105919. 2456.56  78
   7   4   0 111109. 2542.89  49
   7   4   0 104811. 2459.27  48
   7   4   0 106478. 2454.13  73
   7   4   1 31088.6 1413.54  69
   7   4   1 28607.4 1176.81  96
   7   4   1 25695.6 1211.65  62
   7   4   1 29048.5 1326.68  61
   7   4   1 28957.4 1215.86  90
   7   4   1 27143.3 1219.08  33
   7   4   1 27376.8 1352.82  20
   7   4   1 28726.4 1243.89  82
   7   4   1 26909.1 1340.33  79
   7   4   1 29880.8 1252.06  49
   7   4   2 18852.9 1150.50  69
   7   4   2 16995.5 951.304  96
   7   4   2 18677.7 1068.67  62
   7   4   2 15887.7 1024.18  61
   7   4   2 18821.7 1005.47  90
   7   4   2 18272.1 1018.28  33
   7   4   2 18205.3 1062.06  20
   7   4   2 17330.4 986.956  82
   7   4   2 18924.0 983.559  49
   7   4   3 176320. 3831.14  69
   7   4   3 153720. 3302.75  96
   7   4   3 172609. 3396.95  90
   7   4   3 168290. 3316.28  20
   7   4   3 151449. 3289.51  33
   7   4   3 162434. 3363.62  82
   7   4   3 168698. 3137.07  49
   7   4   4 374855. 5943.22  69
   7   4   4 362272. 5554.41  90
   7   4   4 371491. 5569.86  57
   7   4   4 354936. 5569.55  33
   7   4   4 340652. 4942.27  20
   7   4   4 350790. 5503.94  82
   7   4   5 60476.6 2100.17  69
   7   4   5 54122.6 1971.74  90
   7   4   5 55308.9 1982.76  57
   7   4   5 56355.3 2032.16  33
   7   4   5 53446.0 1937.71  82
   7   4   6 16073.7 1008.19  69
   7   4   6 17974.8 1126.88  90
   7   4   6 17416.5 1109.47  57
   7   4   6 16701.7 1098.16  33
   7   4   6 16155.5 1047.76  82
   7   4   7 16095.3 902.245  69
   7   4   7 19607.1 1151.51  90
   7   4   7 20793.7 1176.97  57
   7   4   7 19045.5 1148.40  33
   7   4   7 17023.6 1042.19  82
   7   4   8 102255. 2529.10  90
   7   4   8 105044. 2551.35  57
   7   4   8 99903.4 2534.49  33
   7   4   9 183001. 3042.82  90
   7   4   9 188119. 3074.01  57
   7   4   9 174203. 3061.25  33
   7   4   9 174196. 2897.69  82
   7   4  10 61987.4 1326.63  96
   7   5  -8 31505.4 739.518  41
   7   5  -7 35126.0 1089.89  79
   7   5  -7 37149.2 1099.33  44
   7   5  -6 133881. 2635.74  79
   7   5  -6 135664. 2611.29  44
   7   5  -5 193417. 3288.01  96
   7   5  -5 186879. 3493.05  79
   7   5  -5 198048. 3418.57  78
   7   5  -5 192772. 3521.54  44
   7   5  -4 84565.8 2216.91  42
   7   5  -4 80996.6 2078.08  96
   7   5  -4 79646.9 2255.10  79
   7   5  -4 81690.4 2135.39  78
   7   5  -4 81280.8 2283.43  44
   7   5  -3 66101.1 1910.71  42
   7   5  -3 62518.6 1817.75  96
   7   5  -3 66085.7 1879.26  49
   7   5  -3 63601.6 2061.54  44
   7   5  -2 91293.4 2198.97  42
   7   5  -2 87092.4 2175.20  96
   7   5  -2 89775.1 2364.02  33
   7   5  -2 92995.9 2298.99  82
   7   5  -2 82565.2 2396.72  79
   7   5  -2 91926.3 2292.64  49
   7   5  -2 89199.5 2466.32  44
   7   5  -1 114863. 2487.26  69
   7   5  -1 115652. 2535.73  96
   7   5  -1 115116. 2691.08  33
   7   5  -1 121895. 2673.58  82
   7   5  -1 111102. 2807.91  79
   7   5  -1 123409. 2732.07  49
   7   5  -1 111749. 2803.55  44
   7   5   0 193420. 3686.73  69
   7   5   0 201752. 3593.86  96
   7   5   0 214497. 3801.09  33
   7   5   0 221613. 3780.45  82
   7   5   0 209032. 4105.35  20
   7   5   0 188439. 3849.09  79
   7   5   0 218599. 3781.17  49
   7   5   1 155480. 3400.01  69
   7   5   1 149618. 3093.55  96
   7   5   1 144964. 3238.23  88
   7   5   1 164021. 3260.52  33
   7   5   1 160749. 3481.77  20
   7   5   1 161396. 3204.31  82
   7   5   1 152289. 3396.01  79
   7   5   1 168801. 3262.96  49
   7   5   2 39511.3 1689.35  69
   7   5   2 37449.8 1508.45  96
   7   5   2 35131.4 1535.79  88
   7   5   2 39204.6 1544.05  33
   7   5   2 38100.4 1569.74  20
   7   5   2 39082.8 1524.99  82
   7   5   2 37025.4 1618.02  79
   7   5   2 42020.5 1524.96  49
   7   5   3 7010.28 716.519  69
   7   5   3 5379.97 592.076  96
   7   5   3 6063.38 637.762  88
   7   5   3 5929.14 607.823  33
   7   5   3 6156.10 588.335  20
   7   5   3 5098.19 566.116  82
   7   5   3 5982.07 650.723  79
   7   5   3 6239.95 579.891  49
   7   5   4 99338.9 2783.98  69
   7   5   4 102316. 2841.07  96
   7   5   4 89578.7 2577.51  33
   7   5   4 90758.0 2551.64  82
   7   5   4 89906.5 2203.75  20
   7   5   4 97027.3 2332.55  49
   7   5   5 180870. 3786.45  69
   7   5   5 176929. 3828.59  33
   7   5   5 174536. 3753.92  82
   7   5   6 98403.2 2575.11  69
   7   5   6 106695. 2710.31  90
   7   5   6 109496. 2745.81  57
   7   5   6 100996. 2853.34  33
   7   5   6 99648.9 2783.04  82
   7   5   7 120365. 2816.85  90
   7   5   7 117304. 2784.00  57
   7   5   7 112949. 2955.88  33
   7   5   7 114078. 2902.84  82
   7   5   8 38918.4 1416.98  90
   7   5   8 38569.6 1409.67  57
   7   5   8 36875.2 1520.84  33
   7   5   8 35237.2 1454.97  82
   7   5   9 91535.9 2175.88  33
   7   5   9 92184.1 2116.09  82
   7   5  10 90511.1 1713.18  96
   7   5  10 89029.8 1702.00  33
   7   5  10 88833.8 1603.08  82
   7   6  -7 75040.8 1411.24  41
   7   6  -6 39787.4 1268.18  79
   7   6  -6 41585.1 1259.60  44
   7   6  -5 230886. 3611.12  96
   7   6  -5 226508. 3701.80  44
   7   6  -4 63374.3 1855.03  42
   7   6  -4 61350.1 1804.62  96
   7   6  -4 62082.6 1943.28  79
   7   6  -4 67044.7 1989.50  44
   7   6  -3 60851.7 1824.73  42
   7   6  -3 57714.7 1817.14  96
   7   6  -3 59934.7 1980.11  79
   7   6  -3 64436.5 1760.85  49
   7   6  -3 62691.2 2022.04  44
   7   6  -2 62704.9 1832.58  42
   7   6  -2 64148.5 1947.30  96
   7   6  -2 64690.3 2095.22  79
   7   6  -2 64417.7 1871.60  49
   7   6  -2 64284.0 2083.57  44
   7   6  -1 61939.6 1743.99  42
   7   6  -1 59831.4 1772.19  69
   7   6  -1 60733.1 1909.51  96
   7   6  -1 59769.4 1888.58  33
   7   6  -1 59609.9 2016.43  79
   7   6  -1 65226.8 1926.00  49
   7   6  -1 60280.1 1996.83  44
   7   6   0 116637. 2783.80  69
   7   6   0 121745. 2820.14  96
   7   6   0 122237. 2919.40  88
   7   6   0 128764. 2854.24  33
   7   6   0 135151. 2811.41  82
   7   6   0 120550. 2947.15  79
   7   6   0 131545. 2879.63  49
   7   6   0 119158. 2882.90  44
   7   6   1 93435.4 2578.64  69
   7   6   1 96552.8 2513.66  96
   7   6   1 96751.4 2562.47  88
   7   6   1 96135.4 2464.30  33
   7   6   1 98989.5 2433.03  82
   7   6   1 93291.5 2552.66  79
   7   6   1 98454.2 2486.90  49
   7   6   1 93405.9 2501.26  44
   7   6   2 116400. 3010.59  69
   7   6   2 118010. 2923.95  96
   7   6   2 118726. 2908.94  88
   7   6   2 124935. 2890.75  33
   7   6   2 125781. 2831.79  82
   7   6   2 118669. 2907.38  79
   7   6   2 123195. 2853.67  49
   7   6   3 10321.5 867.697  69
   7   6   3 12657.1 944.923  96
   7   6   3 10589.4 847.893  88
   7   6   3 11602.8 862.553  33
   7   6   3 12611.0 885.682  82
   7   6   3 12314.2 884.219  79
   7   6   3 12602.1 857.842  49
   7   6   4 78105.3 2436.32  69
   7   6   4 70852.7 2270.51  88
   7   6   4 79596.9 2408.40  33
   7   6   4 78737.6 2365.43  82
   7   6   4 80696.8 2556.73  96
   7   6   4 78574.0 2180.93  49
   7   6   5 140906. 3250.04  69
   7   6   5 145921. 3617.07  96
   7   6   5 132503. 3109.40  88
   7   6   5 147248. 3443.73  33
   7   6   5 138194. 3327.42  82
   7   6   5 141725. 2883.09  49
   7   6   6 171077. 3954.42  96
   7   6   6 161597. 3678.71  33
   7   6   6 161019. 3600.66  82
   7   6   6 158876. 3462.58  43
   7   6   7 117421. 3006.48  33
   7   6   7 115383. 2935.39  82
   7   6   8 40548.4 1631.91  96
   7   6   8 40256.0 1576.82  33
   7   6   8 39628.5 1550.12  82
   7   6   9 42610.8 1433.58  96
   7   6   9 42395.8 1417.87  33
   7   6   9 44085.9 1434.38  82
   7   6  10 75935.6 1485.97  96
   7   6  10 78442.4 1539.31  33
   7   6  10 77034.5 1524.30  82
   7   7  -6 21217.3 729.515  41
   7   7  -5 85204.5 1965.69  79
   7   7  -5 91107.1 1958.28  44
   7   7  -4 145877. 2775.52  42
   7   7  -4 141554. 2801.18  96
   7   7  -4 148083. 2944.47  79
   7   7  -4 143445. 2823.45  44
   7   7  -3 53347.4 1666.00  42
   7   7  -3 56048.4 1772.27  96
   7   7  -3 54363.1 1811.17  79
   7   7  -3 53872.4 1740.22  44
   7   7  -2 38236.9 1402.68  42
   7   7  -2 39386.9 1520.92  96
   7   7  -2 38985.8 1560.13  79
   7   7  -2 39290.8 1365.32  49
   7   7  -2 39024.2 1515.65  44
   7   7  -1 24022.7 1079.72  42
   7   7  -1 22120.1 1160.93  96
   7   7  -1 23595.6 1220.15  79
   7   7  -1 24607.3 1138.50  49
   7   7  -1 23969.9 1191.43  44
   7   7   0 42328.2 1406.24  42
   7   7   0 44647.1 1699.78  96
   7   7   0 44832.3 1653.34  88
   7   7   0 46248.9 1717.21  79
   7   7   0 45958.8 1645.28  49
   7   7   0 46774.4 1660.64  44
   7   7   1 131569. 3130.70  69
   7   7   1 134916. 3151.99  96
   7   7   1 140423. 3149.27  88
   7   7   1 137181. 3043.09  79
   7   7   1 143288. 3125.34  49
   7   7   2 191945. 4003.45  69
   7   7   2 191579. 3955.79  96
   7   7   2 196490. 3968.73  88
   7   7   2 207272. 3795.85  33
   7   7   2 214889. 3753.47  82
   7   7   2 200388. 3871.59  49
   7   7   3 78830.9 2448.13  69
   7   7   3 81843.7 2523.71  96
   7   7   3 80351.8 2441.49  88
   7   7   3 82878.4 2331.92  33
   7   7   3 82931.2 2296.94  82
   7   7   3 82645.4 2369.28  49
   7   7   4 67085.1 2225.14  69
   7   7   4 71197.2 2387.17  96
   7   7   4 69554.4 2225.87  88
   7   7   4 75052.2 2277.13  33
   7   7   4 69230.4 2180.80  82
   7   7   4 70518.3 2121.46  49
   7   7   5 33392.2 1476.80  69
   7   7   5 35829.8 1694.89  96
   7   7   5 33834.9 1488.01  88
   7   7   5 38716.8 1644.25  33
   7   7   5 32568.4 1510.11  82
   7   7   5 34186.8 1396.91  49
   7   7   6 165926. 3761.92  96
   7   7   6 153026. 3161.98  88
   7   7   6 163638. 3549.33  33
   7   7   6 161271. 3533.53  82
   7   7   6 160857. 2956.24  49
   7   7   7 116040. 2955.39  96
   7   7   7 109804. 2760.88  33
   7   7   7 106209. 2757.64  82
   7   7   8 67779.5 2003.37  96
   7   7   8 66895.6 1939.73  33
   7   7   8 66826.5 1979.09  82
   7   7   9 17782.6 818.278  96
   7   7   9 18505.1 831.529  33
   7   7   9 17690.5 850.053  82
   7   8  -5 4764.65 315.125  41
   7   8  -4 75470.1 1723.27  42
   7   8  -4 76855.4 1757.54  79
   7   8  -3 86898.2 2043.62  42
   7   8  -3 91776.1 2188.91  96
   7   8  -3 90477.2 2115.38  79
   7   8  -2 73979.6 1923.88  42
   7   8  -2 75606.4 2101.34  96
   7   8  -2 77015.5 2033.25  79
   7   8  -2 78706.2 1938.93  44
   7   8  -1 60989.6 1754.13  42
   7   8  -1 61275.9 1941.61  96
   7   8  -1 63563.9 1855.77  79
   7   8  -1 67636.6 1821.71  49
   7   8   0 12263.4 746.354  42
   7   8   0 12308.0 870.894  96
   7   8   0 13533.6 859.882  88
   7   8   0 12195.1 804.057  49
   7   8   1 76031.7 2306.25  96
   7   8   1 80696.6 2304.58  88
   7   8   1 82205.0 2255.04  49
   7   8   2 169143. 3566.12  88
   7   8   2 163362. 3411.11  49
   7   8   3 194121. 4006.17  96
   7   8   3 188259. 3762.78  49
   7   8   4 106470. 2754.10  69
   7   8   4 108895. 2914.09  96
   7   8   4 115595. 2903.76  88
   7   8   4 116086. 2787.52  49
   7   8   5 13522.7 886.086  69
   7   8   5 15540.8 983.157  88
   7   8   5 15453.3 945.895  82
   7   8   5 13537.6 977.054  96
   7   8   5 14780.4 913.386  49
   7   8   6 20274.0 1159.76  96
   7   8   6 20711.8 1055.62  88
   7   8   6 21725.5 1121.32  82
   7   8   6 21953.5 1031.37  49
   7   8   7 86354.1 2300.21  96
   7   8   7 94291.3 2207.83  33
   7   8   7 88944.4 2269.30  82
   7   8   8 115775. 2368.78  96
   7   8   8 122686. 2290.72  33
   7   8   8 117982. 2435.36  82
   7   8   9 35050.7 955.860  96
   7   8   9 36605.0 1067.90  82
   7   9  -3 56926.5 1388.85  42
   7   9  -2 76732.5 1788.97  42
   7   9  -2 80981.6 1964.95  96
   7   9  -1 133297. 2550.95  42
   7   9  -1 144416. 2880.79  96
   7   9   0 87044.3 2007.12  42
   7   9   0 89338.0 2324.16  96
   7   9   0 94697.5 2141.69  88
   7   9   0 88472.5 2081.18  49
   7   9   1 25740.4 1007.43  42
   7   9   1 26774.5 1263.67  96
   7   9   1 28075.8 1225.31  88
   7   9   1 26380.3 1177.97  49
   7   9   2 58237.5 1893.96  88
   7   9   2 55095.2 1808.22  49
   7   9   3 68755.2 2120.96  88
   7   9   3 67931.6 2049.36  49
   7   9   4 149265. 3205.24  96
   7   9   4 153775. 3206.98  49
   7   9   5 92781.9 2364.18  96
   7   9   5 96058.1 2425.37  88
   7   9   5 97059.8 2369.42  49
   7   9   6 9814.05 687.627  96
   7   9   6 9434.07 668.321  88
   7   9   6 8693.97 618.086  49
   7   9   7 18238.6 827.589  96
   7   9   7 18954.3 762.152  49
   7   9   8 54477.3 1179.42  96
   7  10  -2 76772.8 1452.48  42
   7  10  -1 73483.7 1560.02  42
   7  10  -1 75166.8 1650.44  96
   7  10   0 119183. 2140.63  42
   7  10   0 124936. 2358.14  96
   7  10   1 34524.1 1054.58  42
   7  10   1 36506.4 1251.69  96
   7  10   1 37439.5 1222.93  88
   7  10   1 37244.3 1202.49  49
   7  10   2 36774.3 1281.82  96
   7  10   2 34773.7 1290.16  88
   7  10   2 35439.8 1276.90  49
   7  10   3 21493.2 959.888  96
   7  10   3 21711.8 1055.32  88
   7  10   3 21896.5 1035.89  49
   7  10   4 60184.7 1591.14  96
   7  10   4 63999.2 1842.92  88
   7  10   4 62542.0 1787.79  49
   7  10   5 113318. 2114.13  96
   7  10   5 119503. 2497.18  88
   7  10   5 117974. 2431.73  49
   7  10   6 42811.9 1288.04  88
   7  10   6 40128.6 1212.89  49
   7  10   7 14244.1 566.767  49
   7  11   3 16021.6 724.161  88
   7  11   3 17132.0 713.927  49
   7  11   4 8529.62 529.919  88
   7  11   4 8185.81 502.426  49
   7  11   5 65020.8 1465.42  88
   7  11   5 61644.7 1385.44  49
   8  -4  -6 87897.4 1412.20  84
   8  -4  -6 83624.0 1412.79  51
   8  -4  -5 76591.4 1277.93  93
   8  -4  -5 80545.4 1449.02  84
   8  -4  -5 77664.0 1462.06  53
   8  -4  -4 77878.8 1501.46  93
   8  -4  -4 78727.1 1622.69  84
   8  -4  -4 77073.2 1632.62  53
   8  -4  -3 49389.9 1225.41  93
   8  -4  -3 49511.8 1312.39  84
   8  -4  -3 50911.0 1334.42  53
   8  -4  -3 49388.5 1194.24  77
   8  -4  -2 37198.0 1073.48  38
   8  -4  -2 36803.4 1076.29  93
   8  -4  -2 36852.2 1137.25  84
   8  -4  -2 36272.1 1136.60  53
   8  -4  -1 86653.6 1723.46  38
   8  -4  -1 86254.3 1736.29  93
   8  -4  -1 82516.2 1776.34  84
   8  -4  -1 86680.6 1824.73  53
   8  -4   0 63686.5 1411.52  38
   8  -4   0 66065.4 1443.28  93
   8  -4   0 62775.3 1465.47  84
   8  -4   0 65413.7 1508.27  53
   8  -4   1 57726.7 1240.60  38
   8  -4   1 56284.3 1236.33  93
   8  -4   1 55614.4 1273.73  84
   8  -4   1 55351.1 1294.19  53
   8  -3  -7 29786.4 866.694  83
   8  -3  -7 37591.4 931.737  51
   8  -3  -6 37238.0 993.254  84
   8  -3  -6 38208.8 1102.91  53
   8  -3  -5 75907.7 1516.24  93
   8  -3  -5 73083.8 1624.14  84
   8  -3  -5 73879.9 1725.30  53
   8  -3  -4 88276.0 1799.04  93
   8  -3  -4 88296.7 1940.25  84
   8  -3  -4 89218.1 2001.09  53
   8  -3  -3 97333.7 2019.81  93
   8  -3  -3 98984.6 2162.79  84
   8  -3  -3 101342. 2239.74  53
   8  -3  -2 24499.5 977.028  38
   8  -3  -2 25208.1 999.106  93
   8  -3  -2 24368.8 1045.29  84
   8  -3  -2 23740.1 1048.00  53
   8  -3  -1 55084.7 1541.79  38
   8  -3  -1 56864.6 1571.23  93
   8  -3  -1 60882.1 1705.27  84
   8  -3  -1 57397.0 1685.88  53
   8  -3   0 99947.3 2131.57  38
   8  -3   0 98940.3 2142.04  93
   8  -3   0 101104. 2247.36  84
   8  -3   0 99137.9 2256.86  53
   8  -3   0 102186. 1930.44  78
   8  -3   0 101711. 1935.17  48
   8  -3   1 113346. 2253.71  38
   8  -3   1 111514. 2256.90  93
   8  -3   1 120590. 2403.39  84
   8  -3   1 113303. 2393.43  53
   8  -3   1 114792. 2024.34  78
   8  -3   2 101652. 1982.01  38
   8  -3   2 99114.7 1981.50  93
   8  -3   2 98597.8 2051.53  84
   8  -3   2 104166. 2132.57  53
   8  -3   2 98950.3 1733.88  78
   8  -3   2 100838. 1756.81  48
   8  -3   3 51520.2 1205.09  38
   8  -3   3 49388.9 1197.17  93
   8  -3   3 50893.5 1275.07  84
   8  -3   3 52954.3 1304.97  53
   8  -2  -8 88744.7 1549.94  83
   8  -2  -8 97341.3 1549.77  51
   8  -2  -7 62284.0 1478.01  83
   8  -2  -7 64194.4 1470.82  51
   8  -2  -6 61397.4 1429.50  90
   8  -2  -6 57912.9 1346.63  84
   8  -2  -6 60769.7 1562.38  53
   8  -2  -6 62290.0 1365.79  78
   8  -2  -5 18202.6 812.625  90
   8  -2  -5 18232.7 811.840  84
   8  -2  -5 17918.4 883.987  53
   8  -2  -5 19169.1 809.781  78
   8  -2  -4 90669.3 2001.38  90
   8  -2  -4 80437.2 1941.76  84
   8  -2  -4 84724.6 2101.46  53
   8  -2  -4 84793.2 1926.07  78
   8  -2  -4 88957.7 1977.90  48
   8  -2  -4 92093.9 2087.68  28
   8  -2  -4 90917.9 2069.17  73
   8  -2  -3 118827. 2320.80  93
   8  -2  -3 120695. 2410.27  90
   8  -2  -3 112914. 2446.74  84
   8  -2  -3 116062. 2581.57  53
   8  -2  -3 118374. 2409.54  78
   8  -2  -3 115891. 2398.36  48
   8  -2  -3 119040. 2513.16  28
   8  -2  -3 116864. 2482.15  73
   8  -2  -2 113345. 2333.51  38
   8  -2  -2 114309. 2369.53  93
   8  -2  -2 112191. 2355.32  90
   8  -2  -2 118029. 2563.49  84
   8  -2  -2 117297. 2628.54  53
   8  -2  -2 112384. 2405.40  78
   8  -2  -2 115189. 2439.18  48
   8  -2  -2 119130. 2565.99  28
   8  -2  -2 118156. 2547.30  73
   8  -2  -1 83198.7 2002.75  38
   8  -2  -1 83855.1 2036.97  93
   8  -2  -1 83887.6 1981.54  90
   8  -2  -1 80558.4 2192.87  20
   8  -2  -1 82902.0 2161.72  84
   8  -2  -1 83213.6 2215.41  53
   8  -2  -1 80873.1 2038.51  78
   8  -2  -1 79954.2 2053.72  48
   8  -2  -1 87581.4 2203.43  28
   8  -2  -1 85360.6 2166.53  73
   8  -2   0 74360.2 1915.50  38
   8  -2   0 72937.4 1930.62  93
   8  -2   0 76685.9 1867.79  90
   8  -2   0 76134.8 2074.95  84
   8  -2   0 74856.5 2100.51  53
   8  -2   0 70572.4 1928.13  78
   8  -2   0 73373.0 1954.61  48
   8  -2   0 78923.0 2084.71  73
   8  -2   1 115562. 2437.48  38
   8  -2   1 110656. 2446.16  93
   8  -2   1 120020. 2348.20  90
   8  -2   1 116253. 2597.33  84
   8  -2   1 111738. 2604.06  53
   8  -2   1 111751. 2446.28  78
   8  -2   1 111928. 2468.97  48
   8  -2   1 117171. 2589.44  73
   8  -2   2 92506.9 2110.99  38
   8  -2   2 92701.7 2144.30  93
   8  -2   2 89098.4 1913.61  90
   8  -2   2 95170.7 2260.72  84
   8  -2   2 94489.1 2297.33  53
   8  -2   2 94184.9 2159.73  78
   8  -2   2 95321.2 2190.20  48
   8  -2   3 125148. 2379.80  38
   8  -2   3 122085. 2385.26  93
   8  -2   3 127598. 2543.46  84
   8  -2   3 125966. 2544.79  53
   8  -2   3 123410. 2406.85  78
   8  -2   3 123963. 2430.82  48
   8  -2   4 37557.7 1093.09  38
   8  -2   4 37335.2 1101.91  93
   8  -2   4 39163.2 1210.26  84
   8  -2   4 38057.0 1167.61  53
   8  -2   4 38312.6 1128.00  78
   8  -2   4 39813.4 1159.66  48
   8  -2   5 29673.6 876.045  84
   8  -1  -8 59955.9 1305.48  83
   8  -1  -8 63714.6 1333.73  51
   8  -1  -7 70848.6 1704.85  83
   8  -1  -7 71370.0 1532.69  78
   8  -1  -7 71834.3 1676.84  51
   8  -1  -6 133230. 2534.64  90
   8  -1  -6 128295. 2509.59  53
   8  -1  -6 131133. 2428.53  78
   8  -1  -5 27180.2 1130.07  90
   8  -1  -5 25594.4 1106.73  53
   8  -1  -5 28418.8 1128.77  78
   8  -1  -5 28296.9 1147.75  73
   8  -1  -4 93939.1 2280.94  90
   8  -1  -4 97382.2 2109.94  84
   8  -1  -4 94284.8 2291.99  53
   8  -1  -4 95647.7 2264.90  78
   8  -1  -4 97056.4 2283.82  48
   8  -1  -4 94007.1 2309.49  28
   8  -1  -4 93727.8 2293.30  73
   8  -1  -3 93286.2 2450.12  67
   8  -1  -3 99889.8 2393.43  90
   8  -1  -3 96809.1 2342.78  20
   8  -1  -3 96590.1 2225.95  84
   8  -1  -3 99650.0 2420.23  53
   8  -1  -3 100429. 2395.57  78
   8  -1  -3 100739. 2405.25  48
   8  -1  -3 104795. 2512.37  28
   8  -1  -3 104112. 2494.46  73
   8  -1  -2 139101. 3025.60  67
   8  -1  -2 146533. 3006.71  90
   8  -1  -2 148377. 3146.26  20
   8  -1  -2 145884. 2905.50  84
   8  -1  -2 148662. 3083.95  53
   8  -1  -2 145657. 3012.49  78
   8  -1  -2 146809. 3048.43  48
   8  -1  -2 153620. 3181.52  28
   8  -1  -2 156469. 3194.79  73
   8  -1  -1 116291. 2604.77  67
   8  -1  -1 119503. 2687.55  90
   8  -1  -1 122356. 2922.38  20
   8  -1  -1 117049. 2633.25  84
   8  -1  -1 127292. 2850.24  53
   8  -1  -1 120740. 2746.27  78
   8  -1  -1 122022. 2771.35  48
   8  -1  -1 126852. 2873.03  73
   8  -1   0 69502.1 1996.51  90
   8  -1   0 68040.1 1982.64  84
   8  -1   0 69974.6 2076.83  53
   8  -1   0 66835.0 1816.17  79
   8  -1   0 63848.2 1968.22  78
   8  -1   0 64129.3 1989.53  48
   8  -1   0 70926.0 2131.05  73
   8  -1   1 113062. 2635.45  69
   8  -1   1 112877. 2591.50  90
   8  -1   1 114785. 2809.84  20
   8  -1   1 116360. 2670.98  84
   8  -1   1 112480. 2706.21  53
   8  -1   1 113224. 2703.70  78
   8  -1   1 112208. 2717.96  48
   8  -1   1 118083. 2830.14  73
   8  -1   2 75735.9 1985.35  93
   8  -1   2 74128.1 2035.73  90
   8  -1   2 76672.7 2172.57  53
   8  -1   2 76390.7 2166.53  78
   8  -1   2 78010.2 2212.86  48
   8  -1   2 80587.4 2279.70  73
   8  -1   3 159782. 3033.87  90
   8  -1   3 165703. 3247.13  84
   8  -1   3 166650. 3239.39  53
   8  -1   3 164782. 3266.77  78
   8  -1   3 163283. 3283.67  48
   8  -1   3 172083. 3381.38  73
   8  -1   4 34989.4 1218.98  90
   8  -1   4 35280.5 1337.15  84
   8  -1   4 38056.2 1335.61  53
   8  -1   4 37910.8 1388.78  78
   8  -1   4 36873.7 1389.54  48
   8  -1   5 42160.3 1178.25  90
   8  -1   5 40216.5 1312.21  84
   8  -1   5 43450.9 1236.34  53
   8  -1   5 43657.5 1351.67  78
   8  -1   5 42372.7 1347.57  48
   8  -1   6 24829.7 818.670  78
   8  -1   6 24057.2 816.807  48
   8   0  -8 21456.2 730.974  83
   8   0  -8 24032.5 779.830  78
   8   0  -8 23595.3 815.855  51
   8   0  -7 78209.8 1813.47  90
   8   0  -7 74854.8 1768.50  83
   8   0  -7 77874.0 1755.14  78
   8   0  -7 75722.2 1798.59  51
   8   0  -6 156247. 2946.49  90
   8   0  -6 155186. 2875.66  78
   8   0  -6 158258. 2966.26  51
   8   0  -6 152957. 2870.00  73
   8   0  -5 154057. 3064.78  90
   8   0  -5 149416. 2929.30  53
   8   0  -5 145833. 2941.72  78
   8   0  -5 155042. 3051.11  73
   8   0  -4 43809.4 1679.31  67
   8   0  -4 46780.5 1636.87  90
   8   0  -4 46130.1 1572.98  53
   8   0  -4 44768.5 1588.63  78
   8   0  -4 45968.2 1615.26  48
   8   0  -4 47771.9 1674.35  28
   8   0  -4 47726.2 1660.41  73
   8   0  -3 102710. 2675.10  67
   8   0  -3 104540. 2551.38  90
   8   0  -3 101191. 2469.15  20
   8   0  -3 103479. 2477.18  53
   8   0  -3 101995. 2519.57  78
   8   0  -3 101817. 2519.65  48
   8   0  -3 108255. 2637.44  28
   8   0  -3 107539. 2609.58  73
   8   0  -2 105980. 2692.68  67
   8   0  -2 109355. 2633.19  90
   8   0  -2 112455. 2771.22  20
   8   0  -2 102463. 2496.64  53
   8   0  -2 103951. 2589.49  78
   8   0  -2 104152. 2610.75  48
   8   0  -2 108816. 2698.13  28
   8   0  -2 111254. 2702.05  73
   8   0  -1 171613. 3397.06  67
   8   0  -1 168137. 3411.88  90
   8   0  -1 184375. 3758.79  20
   8   0  -1 175629. 3177.75  84
   8   0  -1 182297. 3291.58  82
   8   0  -1 174983. 3381.27  53
   8   0  -1 161286. 3109.74  79
   8   0  -1 172508. 3483.81  78
   8   0  -1 173709. 3494.62  48
   8   0  -1 171854. 3527.47  73
   8   0   0 140277. 3099.45  90
   8   0   0 162327. 3538.36  20
   8   0   0 154077. 3026.31  84
   8   0   0 152688. 3157.29  53
   8   0   0 149457. 3240.72  78
   8   0   0 148832. 3249.57  48
   8   0   0 152528. 3338.27  73
   8   0   1 38813.6 1556.80  69
   8   0   1 37047.3 1511.34  90
   8   0   1 41209.7 1688.89  20
   8   0   1 38144.5 1461.80  84
   8   0   1 37761.9 1512.18  53
   8   0   1 39375.2 1598.81  78
   8   0   1 39383.9 1614.88  48
   8   0   1 38334.7 1602.04  73
   8   0   2 48132.1 1801.86  69
   8   0   2 46365.4 1702.33  90
   8   0   2 49445.0 1781.51  20
   8   0   2 42459.9 1638.34  84
   8   0   2 48166.0 1700.10  53
   8   0   2 48497.0 1799.98  78
   8   0   2 48704.5 1819.06  48
   8   0   2 47599.5 1813.04  73
   8   0   3 98127.3 2621.96  69
   8   0   3 96687.2 2501.38  90
   8   0   3 91812.5 2291.33  20
   8   0   3 101300. 2487.02  53
   8   0   3 99657.4 2634.04  78
   8   0   3 100074. 2666.36  48
   8   0   3 98928.3 2662.25  73
   8   0   4 116945. 2697.99  90
   8   0   4 125181. 2675.79  53
   8   0   4 119504. 2853.73  78
   8   0   4 123292. 2925.66  48
   8   0   4 122937. 2905.41  73
   8   0   5 114609. 2496.24  90
   8   0   5 112659. 2607.32  78
   8   0   5 113793. 2651.69  48
   8   0   6 43841.9 1299.92  90
   8   0   6 43208.6 1384.06  78
   8   0   6 45515.4 1434.48  48
   8   0   7 19953.8 716.709  84
   8   0   7 21505.9 754.341  78
   8   0   7 22498.3 782.936  48
   8   1  -8 43260.7 1128.30  51
   8   1  -7 30489.5 1030.44  83
   8   1  -7 33241.8 1147.63  78
   8   1  -7 32169.4 1135.10  51
   8   1  -6 79713.3 2064.48  90
   8   1  -6 76899.4 1992.52  78
   8   1  -6 79387.2 2023.70  51
   8   1  -6 77613.2 2001.93  73
   8   1  -5 208585. 3896.43  67
   8   1  -5 219245. 3856.69  90
   8   1  -5 217695. 3646.54  53
   8   1  -5 230577. 3906.77  78
   8   1  -5 218634. 3825.05  73
   8   1  -5 230230. 3405.05  44
   8   1  -4 120147. 2947.12  67
   8   1  -4 119810. 2761.48  90
   8   1  -4 117330. 2587.96  53
   8   1  -4 118726. 2755.87  78
   8   1  -4 118865. 2762.22  48
   8   1  -4 123372. 2829.50  28
   8   1  -4 123786. 2807.60  73
   8   1  -4 113990. 2413.20  44
   8   1  -3 133312. 3182.50  67
   8   1  -3 127780. 2916.97  90
   8   1  -3 132797. 2936.88  20
   8   1  -3 133461. 2789.66  53
   8   1  -3 126918. 2606.25  79
   8   1  -3 128538. 2925.22  78
   8   1  -3 134704. 2977.77  48
   8   1  -3 129611. 2968.28  28
   8   1  -3 129846. 2947.21  73
   8   1  -2 58155.1 2006.30  67
   8   1  -2 57726.8 1885.29  90
   8   1  -2 58012.1 1784.28  33
   8   1  -2 59786.4 2013.54  20
   8   1  -2 61684.7 1933.18  82
   8   1  -2 60819.5 1806.50  53
   8   1  -2 55894.3 1723.86  79
   8   1  -2 56382.2 1877.72  78
   8   1  -2 56235.6 1882.45  48
   8   1  -2 60432.5 1975.16  28
   8   1  -2 58839.4 1948.78  73
   8   1  -1 54012.5 1856.08  67
   8   1  -1 52085.0 1807.60  90
   8   1  -1 53132.7 1679.06  33
   8   1  -1 55513.0 2013.00  20
   8   1  -1 51583.1 1732.32  82
   8   1  -1 50649.3 1694.24  79
   8   1  -1 50950.4 1808.26  78
   8   1  -1 52024.6 1824.82  48
   8   1  -1 52328.4 1847.80  73
   8   1   0 179834. 3405.40  69
   8   1   0 170194. 3268.17  67
   8   1   0 168043. 3451.80  90
   8   1   0 188983. 3927.52  20
   8   1   0 170922. 3197.38  33
   8   1   0 178967. 3375.05  82
   8   1   0 165966. 3405.29  79
   8   1   0 166940. 3494.66  78
   8   1   0 165483. 3504.26  48
   8   1   0 179504. 3650.22  73
   8   1   1 101189. 2653.04  69
   8   1   1 85463.7 2412.91  90
   8   1   1 99103.3 2728.65  20
   8   1   1 93518.9 2233.94  33
   8   1   1 87722.3 2261.13  82
   8   1   1 87090.1 2467.46  78
   8   1   1 89126.2 2527.09  48
   8   1   1 96563.5 2628.31  73
   8   1   2 83231.3 2486.83  69
   8   1   2 78358.5 2313.93  90
   8   1   2 81235.2 2396.75  20
   8   1   2 80555.7 2044.99  33
   8   1   2 81953.0 2103.85  82
   8   1   2 76068.0 2347.32  78
   8   1   2 75696.6 2361.41  48
   8   1   2 80362.0 2424.16  73
   8   1   3 72251.0 2310.36  69
   8   1   3 66239.8 2132.06  90
   8   1   3 67507.0 2010.49  20
   8   1   3 71259.6 2265.00  78
   8   1   3 70089.0 2285.03  48
   8   1   3 71695.3 2301.25  73
   8   1   4 97643.2 2593.37  90
   8   1   4 96357.6 2657.47  78
   8   1   4 94609.9 2674.62  48
   8   1   4 102003. 2734.01  73
   8   1   5 99509.5 2533.78  90
   8   1   5 100782. 2635.49  78
   8   1   5 97066.2 2633.38  48
   8   1   5 106335. 2662.47  73
   8   1   6 161926. 3111.84  90
   8   1   6 165401. 3217.96  78
   8   1   6 164201. 3240.49  48
   8   1   7 67591.5 1648.69  90
   8   1   7 68284.5 1683.13  78
   8   1   7 66527.1 1685.18  48
   8   2  -8 117812. 1923.43  51
   8   2  -7 52603.5 1471.95  78
   8   2  -7 50373.5 1404.79  51
   8   2  -6 60253.9 1754.19  90
   8   2  -6 64960.0 1812.10  78
   8   2  -6 61669.0 1743.69  51
   8   2  -6 62058.3 1769.12  73
   8   2  -6 60793.4 1496.77  44
   8   2  -5 86409.4 2360.89  67
   8   2  -5 87793.1 2282.47  90
   8   2  -5 87524.7 1995.16  79
   8   2  -5 90250.5 2313.56  78
   8   2  -5 88274.6 2249.25  51
   8   2  -5 86615.2 2264.37  73
   8   2  -5 85584.7 2015.93  44
   8   2  -4 139546. 3242.36  67
   8   2  -4 133734. 2971.89  90
   8   2  -4 137851. 2736.61  79
   8   2  -4 138681. 3031.34  78
   8   2  -4 140625. 3068.04  48
   8   2  -4 141592. 3041.56  73
   8   2  -4 135053. 2791.44  44
   8   2  -3 113905. 2968.76  67
   8   2  -3 117095. 2757.04  90
   8   2  -3 116486. 2758.36  20
   8   2  -3 111420. 2545.25  79
   8   2  -3 115497. 2775.26  78
   8   2  -3 115989. 2780.32  48
   8   2  -3 117389. 2812.74  28
   8   2  -3 114759. 2759.60  73
   8   2  -2 99440.6 2726.51  67
   8   2  -2 96812.8 2510.87  90
   8   2  -2 101393. 2503.57  33
   8   2  -2 103985. 2744.84  20
   8   2  -2 99825.8 2556.29  82
   8   2  -2 94272.1 2396.10  79
   8   2  -2 96704.5 2523.11  78
   8   2  -2 96347.8 2537.86  48
   8   2  -2 105489. 2664.41  28
   8   2  -2 100880. 2579.65  73
   8   2  -1 54794.5 1904.18  67
   8   2  -1 57011.2 1875.03  90
   8   2  -1 56816.0 1808.06  33
   8   2  -1 60601.5 2123.96  20
   8   2  -1 54561.7 1832.55  82
   8   2  -1 50673.3 1767.81  79
   8   2  -1 55593.5 1877.12  78
   8   2  -1 52793.2 1850.65  48
   8   2  -1 53409.1 1874.59  28
   8   2  -1 54511.7 1879.82  73
   8   2   0 66553.6 1977.65  69
   8   2   0 59352.1 1864.75  67
   8   2   0 61106.8 1969.47  90
   8   2   0 69111.3 2312.78  20
   8   2   0 60590.2 1870.04  33
   8   2   0 61774.9 1939.30  82
   8   2   0 61969.0 2019.46  79
   8   2   0 62941.0 2026.71  78
   8   2   0 63068.2 2040.09  48
   8   2   0 65765.8 2090.11  73
   8   2   1 210689. 4028.29  69
   8   2   1 189663. 3742.58  90
   8   2   1 208969. 4170.89  20
   8   2   1 187874. 3527.68  33
   8   2   1 192746. 3648.92  82
   8   2   1 188050. 3789.36  78
   8   2   1 187957. 3811.89  48
   8   2   1 198947. 3913.65  73
   8   2   2 64877.5 2204.32  69
   8   2   2 53699.6 1920.45  90
   8   2   2 59942.7 2056.91  20
   8   2   2 55614.7 1798.35  33
   8   2   2 57282.8 1850.21  82
   8   2   2 57313.8 2005.95  78
   8   2   2 58230.8 2040.00  48
   8   2   2 61875.9 2089.38  73
   8   2   3 152849. 3562.24  69
   8   2   3 132642. 3159.76  90
   8   2   3 140147. 3078.74  20
   8   2   3 136593. 2954.28  33
   8   2   3 142588. 3030.48  82
   8   2   3 140728. 3320.73  78
   8   2   3 139362. 3342.19  48
   8   2   3 151925. 3419.73  73
   8   2   4 87892.1 2531.01  90
   8   2   4 90193.9 2322.64  33
   8   2   4 90136.1 2295.06  82
   8   2   4 92841.7 2640.12  78
   8   2   4 93929.0 2688.81  48
   8   2   5 82039.0 2354.36  69
   8   2   5 81551.2 2385.56  90
   8   2   5 81450.9 2126.58  33
   8   2   5 82655.3 2080.13  82
   8   2   5 83570.0 2451.20  78
   8   2   5 84334.8 2494.41  48
   8   2   5 87491.8 2452.60  73
   8   2   6 155022. 3224.32  90
   8   2   6 156304. 2850.42  33
   8   2   6 152688. 3242.10  78
   8   2   6 152712. 3281.59  48
   8   2   7 109388. 2399.15  90
   8   2   7 104589. 1960.39  33
   8   2   7 111289. 2379.66  78
   8   2   7 112480. 2413.77  48
   8   2   8 49612.8 1292.83  90
   8   2   8 50722.7 1199.38  78
   8   2   8 51846.2 1224.85  48
   8   3  -8 118084. 1736.62  51
   8   3  -7 89294.3 1602.15  79
   8   3  -7 88123.6 1790.71  51
   8   3  -7 90235.2 1920.16  78
   8   3  -7 89795.0 1632.15  44
   8   3  -6 49463.8 1533.52  90
   8   3  -6 50838.7 1394.99  79
   8   3  -6 49250.4 1470.55  51
   8   3  -6 49586.0 1558.40  78
   8   3  -6 50374.0 1404.62  44
   8   3  -5 47639.2 1607.05  90
   8   3  -5 47006.3 1489.83  79
   8   3  -5 51043.3 1684.61  78
   8   3  -5 48390.7 1569.95  51
   8   3  -5 50179.2 1645.29  73
   8   3  -5 46970.5 1518.12  44
   8   3  -4 68708.3 2038.81  90
   8   3  -4 68233.0 1951.86  79
   8   3  -4 70355.8 2075.35  78
   8   3  -4 73924.6 2108.39  73
   8   3  -4 69450.2 1984.01  44
   8   3  -3 128468. 3175.68  67
   8   3  -3 129179. 2903.32  90
   8   3  -3 126548. 2901.03  20
   8   3  -3 119535. 2755.36  79
   8   3  -3 126128. 2920.72  78
   8   3  -3 130045. 2968.42  48
   8   3  -3 131861. 2973.89  28
   8   3  -3 128766. 2919.12  73
   8   3  -3 123332. 2820.58  44
   8   3  -2 83120.5 2477.76  67
   8   3  -2 85095.1 2301.83  90
   8   3  -2 83065.3 2305.53  33
   8   3  -2 86577.8 2501.80  20
   8   3  -2 83002.7 2310.08  82
   8   3  -2 78236.2 2231.15  79
   8   3  -2 85925.3 2360.22  78
   8   3  -2 82247.2 2326.76  48
   8   3  -2 83109.9 2336.59  28
   8   3  -2 85468.0 2366.02  73
   8   3  -1 129726. 3051.23  67
   8   3  -1 126156. 2879.68  90
   8   3  -1 128730. 2897.16  33
   8   3  -1 126709. 2918.13  82
   8   3  -1 122240. 2922.17  79
   8   3  -1 125071. 2925.86  78
   8   3  -1 121015. 2930.26  49
   8   3  -1 125317. 2941.37  48
   8   3  -1 132818. 3013.72  28
   8   3  -1 129544. 2970.64  73
   8   3   0 54560.6 1785.81  69
   8   3   0 50691.2 1737.28  67
   8   3   0 48124.4 1737.16  90
   8   3   0 49935.9 1735.22  33
   8   3   0 59292.3 2133.60  20
   8   3   0 51931.3 1793.62  82
   8   3   0 50883.1 1870.84  79
   8   3   0 50346.1 1798.02  78
   8   3   0 51054.5 1799.22  49
   8   3   0 51828.9 1828.47  48
   8   3   0 54270.5 1872.18  28
   8   3   0 55403.7 1871.34  73
   8   3   1 216944. 4091.22  69
   8   3   1 193466. 3751.24  90
   8   3   1 192624. 3687.14  33
   8   3   1 210848. 4229.24  20
   8   3   1 205006. 3831.98  82
   8   3   1 193331. 3999.50  79
   8   3   1 197746. 3843.80  78
   8   3   1 191706. 3705.38  49
   8   3   1 196343. 3858.99  48
   8   3   1 203428. 3890.61  73
   8   3   2 122538. 3120.88  69
   8   3   2 109815. 2770.17  90
   8   3   2 120425. 2977.18  20
   8   3   2 108086. 2683.58  33
   8   3   2 112483. 2754.46  82
   8   3   2 109115. 2800.02  78
   8   3   2 109764. 2601.15  49
   8   3   2 111952. 2859.32  48
   8   3   2 122930. 2952.51  73
   8   3   3 108204. 2980.31  69
   8   3   3 95500.3 2299.96  96
   8   3   3 95673.1 2626.44  90
   8   3   3 99868.5 2567.98  20
   8   3   3 93800.1 2515.90  33
   8   3   3 95429.9 2535.85  82
   8   3   3 101130. 2716.27  78
   8   3   3 100141. 2724.04  48
   8   3   3 106071. 2748.35  73
   8   3   4 127212. 3220.78  69
   8   3   4 116121. 2681.84  96
   8   3   4 126790. 3072.36  90
   8   3   4 108494. 2760.41  33
   8   3   4 116788. 2830.36  82
   8   3   4 126340. 3089.28  78
   8   3   4 126706. 3127.66  48
   8   3   4 135906. 3116.02  73
   8   3   5 70238.1 2220.60  69
   8   3   5 67372.3 2193.49  90
   8   3   5 68022.8 2087.91  33
   8   3   5 68648.1 2064.29  82
   8   3   5 73765.8 2274.16  78
   8   3   5 73931.0 2308.90  48
   8   3   6 103163. 2654.64  90
   8   3   6 103400. 2498.79  33
   8   3   6 105754. 2454.94  82
   8   3   6 115176. 2732.24  78
   8   3   6 113043. 2741.31  48
   8   3   7 85589.2 2214.52  90
   8   3   7 85290.6 2035.53  33
   8   3   7 82148.8 1890.60  82
   8   3   7 85613.5 2088.50  78
   8   3   7 87864.8 2135.77  48
   8   3   8 72040.7 1579.40  96
   8   3   8 77007.4 1779.81  90
   8   3   8 72596.5 1558.18  33
   8   3   8 77412.6 1549.65  78
   8   3   8 76959.0 1565.85  48
   8   4  -7 109324. 1813.96  79
   8   4  -7 109533. 1820.04  44
   8   4  -6 82164.0 1835.66  79
   8   4  -6 80358.7 1908.54  78
   8   4  -6 82668.0 1839.82  44
   8   4  -5 30273.5 1191.65  90
   8   4  -5 28660.5 1165.22  79
   8   4  -5 29079.3 1209.33  78
   8   4  -5 30377.5 1197.41  44
   8   4  -4 23726.0 1116.67  90
   8   4  -4 22339.2 1104.88  79
   8   4  -4 21241.5 1087.16  78
   8   4  -4 22786.1 1096.10  73
   8   4  -4 22279.0 1115.41  44
   8   4  -3 151027. 3117.14  90
   8   4  -3 144499. 3139.38  79
   8   4  -3 145584. 3135.34  78
   8   4  -3 156492. 3153.68  73
   8   4  -3 155552. 3274.03  44
   8   4  -2 132427. 2909.70  90
   8   4  -2 137132. 3045.95  33
   8   4  -2 135900. 3020.94  82
   8   4  -2 135254. 3206.30  20
   8   4  -2 124801. 2983.70  79
   8   4  -2 135155. 3001.04  78
   8   4  -2 131328. 3005.87  49
   8   4  -2 137298. 3033.11  48
   8   4  -2 138118. 2996.34  28
   8   4  -2 135497. 2952.71  73
   8   4  -2 124973. 3013.99  44
   8   4  -1 161787. 2896.29  96
   8   4  -1 166132. 3310.06  90
   8   4  -1 161034. 3375.45  33
   8   4  -1 174475. 3814.28  20
   8   4  -1 162445. 3352.39  82
   8   4  -1 158278. 3498.13  79
   8   4  -1 160285. 3351.32  78
   8   4  -1 167635. 3446.69  49
   8   4  -1 163343. 3383.14  48
   8   4  -1 180480. 3477.95  28
   8   4  -1 177066. 3433.65  73
   8   4   0 68307.9 2020.47  69
   8   4   0 65526.7 1765.25  96
   8   4   0 67479.8 2019.15  90
   8   4   0 63761.4 2017.60  33
   8   4   0 70588.9 2361.33  20
   8   4   0 67070.0 2052.37  82
   8   4   0 67736.5 2217.74  79
   8   4   0 69096.2 2078.30  78
   8   4   0 65711.4 2070.60  49
   8   4   0 68814.3 2090.95  48
   8   4   1 64742.0 2129.68  69
   8   4   1 59754.5 1748.68  96
   8   4   1 65281.1 2005.60  90
   8   4   1 62104.2 1996.52  33
   8   4   1 68072.2 2288.40  20
   8   4   1 63373.0 2011.01  82
   8   4   1 63623.2 2202.30  79
   8   4   1 61316.5 1987.27  78
   8   4   1 65469.5 2037.00  49
   8   4   1 62714.4 2009.75  48
   8   4   2 231342. 4472.31  69
   8   4   2 197856. 3605.21  96
   8   4   2 212102. 3946.77  90
   8   4   2 208282. 3954.52  33
   8   4   2 217252. 4202.85  20
   8   4   2 204307. 3952.52  82
   8   4   2 212246. 4370.36  79
   8   4   2 216660. 3996.38  78
   8   4   2 217608. 3889.63  49
   8   4   2 219087. 4038.29  48
   8   4   3 173018. 3852.84  69
   8   4   3 149537. 3146.96  96
   8   4   3 152732. 3343.54  90
   8   4   3 141809. 3274.31  33
   8   4   3 150415. 3259.27  20
   8   4   3 149405. 3327.12  82
   8   4   3 168863. 3460.03  78
   8   4   3 154000. 3110.02  49
   8   4   3 161591. 3421.71  48
   8   4   4 128282. 3264.22  69
   8   4   4 123525. 2936.43  96
   8   4   4 128100. 3062.47  90
   8   4   4 124909. 3060.95  33
   8   4   4 126086. 3032.51  82
   8   4   4 142998. 3154.41  78
   8   4   4 141142. 3165.15  48
   8   4   5 24104.0 1282.44  69
   8   4   5 24207.2 1260.79  96
   8   4   5 25164.7 1294.32  90
   8   4   5 22776.6 1231.45  33
   8   4   5 24850.0 1266.55  82
   8   4   6 22176.0 1173.41  90
   8   4   6 22279.0 1175.53  33
   8   4   6 22510.6 1156.05  82
   8   4   7 44744.7 1567.48  90
   8   4   7 44630.1 1564.07  33
   8   4   7 44164.4 1494.47  82
   8   4   8 135185. 2556.75  96
   8   4   8 140638. 2566.42  33
   8   4   8 134511. 2392.79  82
   8   5  -6 152722. 2566.53  79
   8   5  -6 158020. 2571.12  44
   8   5  -5 126385. 2225.48  96
   8   5  -5 126359. 2567.94  79
   8   5  -5 127031. 2462.24  78
   8   5  -5 126407. 2535.87  44
   8   5  -4 53107.3 1479.77  96
   8   5  -4 51843.8 1694.00  79
   8   5  -4 51789.8 1714.51  44
   8   5  -3 32398.7 1201.83  96
   8   5  -3 30520.3 1374.00  79
   8   5  -3 32781.0 1318.44  78
   8   5  -3 32269.8 1416.90  44
   8   5  -2 79878.5 2015.60  96
   8   5  -2 77730.4 2262.85  33
   8   5  -2 83716.0 2261.17  82
   8   5  -2 81931.4 2398.43  79
   8   5  -2 81565.5 2240.28  49
   8   5  -2 79163.6 2363.35  44
   8   5  -1 156236. 2990.90  96
   8   5  -1 148203. 3242.20  33
   8   5  -1 160561. 3278.24  82
   8   5  -1 152407. 3444.50  79
   8   5  -1 155490. 3292.69  49
   8   5  -1 153551. 3464.00  44
   8   5   0 254680. 4285.29  69
   8   5   0 252584. 4101.68  96
   8   5   0 258955. 4450.30  33
   8   5   0 260368. 4416.48  82
   8   5   0 257995. 4826.99  20
   8   5   0 255584. 4699.59  79
   8   5   0 266941. 4520.53  49
   8   5   1 131255. 3102.05  69
   8   5   1 122349. 2740.83  96
   8   5   1 121497. 2921.23  33
   8   5   1 121718. 2905.28  82
   8   5   1 125035. 3162.80  20
   8   5   1 126640. 3199.51  79
   8   5   1 132307. 2997.05  49
   8   5   2 23975.1 1331.43  69
   8   5   2 23336.7 1172.69  96
   8   5   2 22441.2 1204.37  33
   8   5   2 22811.2 1246.11  20
   8   5   2 22198.7 1192.28  82
   8   5   2 23368.6 1342.18  79
   8   5   2 24977.2 1231.81  49
   8   5   3 92681.0 2747.06  69
   8   5   3 81580.5 2352.25  96
   8   5   3 84985.6 2449.80  33
   8   5   3 85074.4 2440.88  82
   8   5   3 81697.4 2299.95  20
   8   5   3 87101.8 2658.38  79
   8   5   3 84958.6 2286.16  49
   8   5   4 51934.0 1998.64  69
   8   5   4 48190.8 1839.08  96
   8   5   4 55536.1 1851.61  90
   8   5   4 46732.4 1822.18  33
   8   5   4 50349.8 1861.07  82
   8   5   4 53068.4 2032.55  79
   8   5   4 51708.3 1643.12  49
   8   5   5 115906. 2948.59  69
   8   5   5 124066. 3090.00  96
   8   5   5 134683. 2990.36  90
   8   5   5 119450. 3022.47  33
   8   5   5 125533. 3045.07  82
   8   5   5 133260. 3166.86  79
   8   5   6 75843.6 2340.01  96
   8   5   6 82169.3 2213.54  90
   8   5   6 76887.1 2308.28  33
   8   5   6 75822.1 2249.66  82
   8   5   6 83100.3 2238.01  79
   8   5   7 15937.1 978.983  96
   8   5   7 19063.1 946.508  90
   8   5   7 18591.9 1026.40  33
   8   5   7 16019.5 935.868  82
   8   5   8 33067.0 1233.37  96
   8   5   8 34429.2 1078.21  90
   8   5   8 32918.7 1220.46  33
   8   5   8 32754.8 1175.76  82
   8   5   9 80222.0 1575.99  96
   8   5   9 78885.5 1575.63  33
   8   5   9 80830.3 1495.10  82
   8   6  -6 36923.6 1038.98  79
   8   6  -6 37312.8 1023.43  44
   8   6  -5 128791. 2469.89  79
   8   6  -5 131066. 2437.13  44
   8   6  -4 115305. 2305.49  96
   8   6  -4 112499. 2520.48  79
   8   6  -4 119461. 2568.92  44
   8   6  -3 91592.1 2165.01  96
   8   6  -3 95699.0 2443.56  79
   8   6  -3 93508.0 2414.45  44
   8   6  -2 108481. 2368.23  42
   8   6  -2 106226. 2434.53  96
   8   6  -2 105626. 2697.62  79
   8   6  -2 108377. 2519.89  49
   8   6  -2 111141. 2771.24  44
   8   6  -1 46939.3 1603.88  96
   8   6  -1 45713.5 1681.76  33
   8   6  -1 46515.7 1615.87  82
   8   6  -1 45699.1 1787.15  79
   8   6  -1 46413.6 1661.96  49
   8   6  -1 46427.8 1802.24  44
   8   6   0 82861.4 2232.47  69
   8   6   0 83853.2 2244.62  96
   8   6   0 86759.1 2373.84  33
   8   6   0 86088.3 2291.11  82
   8   6   0 81839.1 2468.05  79
   8   6   0 89130.0 2404.02  49
   8   6   0 82253.1 2431.01  44
   8   6   1 141985. 3249.10  69
   8   6   1 143705. 3124.05  96
   8   6   1 151947. 3261.61  33
   8   6   1 147464. 3151.14  82
   8   6   1 146440. 3409.25  79
   8   6   1 154016. 3265.24  49
   8   6   1 138851. 3250.67  44
   8   6   2 31991.4 1525.95  69
   8   6   2 31610.7 1424.97  96
   8   6   2 28875.8 1377.95  33
   8   6   2 28691.4 1358.59  82
   8   6   2 30929.3 1495.81  79
   8   6   2 30824.1 1385.18  49
   8   6   3 102350. 2861.02  69
   8   6   3 98278.4 2690.87  96
   8   6   3 102539. 2731.01  33
   8   6   3 102614. 2693.94  82
   8   6   3 98609.5 2714.52  79
   8   6   3 99915.0 2551.50  49
   8   6   4 63598.6 2167.25  96
   8   6   4 59756.3 2076.48  33
   8   6   4 61746.4 2081.47  82
   8   6   4 65840.1 2094.02  79
   8   6   4 62555.2 1891.79  49
   8   6   5 48987.6 1812.51  69
   8   6   5 53751.3 1988.64  96
   8   6   5 49109.7 1856.02  33
   8   6   5 50165.8 1863.86  82
   8   6   6 96991.8 2644.78  96
   8   6   6 97759.6 2615.94  33
   8   6   6 89751.6 2469.42  82
   8   6   7 70336.2 2086.34  96
   8   6   7 67580.5 2009.83  33
   8   6   7 65567.7 1957.04  82
   8   6   8 36621.6 1297.08  96
   8   6   8 37158.9 1295.37  33
   8   6   8 36026.8 1268.76  82
   8   6   9 39680.5 1074.06  96
   8   6   9 41863.1 1104.52  33
   8   6   9 43133.9 1101.38  82
   8   7  -5 112040. 2016.16  79
   8   7  -5 107034. 1928.21  44
   8   7  -4 106258. 2113.05  96
   8   7  -4 108584. 2276.88  79
   8   7  -4 111278. 2231.05  44
   8   7  -3 90981.8 2056.66  42
   8   7  -3 93110.4 2132.33  96
   8   7  -3 90478.5 2246.08  79
   8   7  -3 96318.5 2242.51  44
   8   7  -2 65309.0 1739.88  42
   8   7  -2 63372.8 1824.70  96
   8   7  -2 58136.4 1880.05  79
   8   7  -2 64801.7 1765.50  49
   8   7  -2 64255.1 1909.70  44
   8   7  -1 40543.0 1331.25  42
   8   7  -1 42501.1 1550.79  96
   8   7  -1 41637.4 1618.75  79
   8   7  -1 44235.7 1540.32  49
   8   7  -1 37966.9 1503.42  44
   8   7   0 36615.1 1486.77  96
   8   7   0 41249.5 1536.51  33
   8   7   0 37115.1 1555.16  79
   8   7   0 39740.5 1522.74  49
   8   7   0 38249.2 1528.36  44
   8   7   1 99895.1 2595.78  69
   8   7   1 102651. 2634.94  96
   8   7   1 100191. 2527.97  33
   8   7   1 101121. 2449.07  82
   8   7   1 100511. 2620.85  79
   8   7   1 100640. 2562.80  49
   8   7   1 98897.5 2485.90  44
   8   7   2 90463.2 2577.67  69
   8   7   2 95214.2 2574.46  96
   8   7   2 92537.9 2469.75  33
   8   7   2 91407.8 2391.41  82
   8   7   2 93364.4 2463.89  79
   8   7   2 97457.2 2541.96  49
   8   7   3 16708.8 1078.25  69
   8   7   3 19645.6 1158.26  96
   8   7   3 19467.1 1108.17  33
   8   7   3 18728.5 1075.49  82
   8   7   3 19061.1 1072.02  49
   8   7   4 144678. 3382.44  96
   8   7   4 145730. 3256.90  33
   8   7   4 141503. 3174.43  82
   8   7   4 149297. 3098.04  49
   8   7   5 38729.1 1648.98  96
   8   7   5 35916.8 1523.14  33
   8   7   5 34160.4 1479.14  82
   8   7   5 36263.7 1331.64  49
   8   7   6 102987. 2669.33  96
   8   7   6 102629. 2579.88  33
   8   7   6 97848.6 2509.75  82
   8   7   7 121573. 2723.83  96
   8   7   7 122919. 2659.75  33
   8   7   7 121209. 2659.00  82
   8   7   8 39284.6 1271.70  96
   8   7   8 39340.3 1245.89  33
   8   7   8 40896.4 1292.83  82
   8   8  -4 61143.0 1360.73  79
   8   8  -3 85937.1 1897.90  96
   8   8  -3 88663.0 1924.46  79
   8   8  -3 89979.1 1845.71  44
   8   8  -2 62920.8 1593.03  42
   8   8  -2 64723.2 1766.90  96
   8   8  -2 61801.4 1708.48  79
   8   8  -2 64940.7 1520.68  49
   8   8  -2 64404.4 1658.69  44
   8   8  -1 52307.7 1451.42  42
   8   8  -1 51064.6 1665.17  96
   8   8  -1 50327.3 1599.33  79
   8   8  -1 53727.3 1565.63  49
   8   8  -1 51999.4 1518.01  44
   8   8   0 18533.9 1027.71  96
   8   8   0 17720.8 933.500  79
   8   8   0 18913.4 980.699  49
   8   8   1 48747.5 1748.05  96
   8   8   1 51898.8 1714.34  49
   8   8   2 145031. 3194.75  96
   8   8   2 150823. 3152.30  49
   8   8   3 47282.7 1771.49  96
   8   8   3 45423.6 1748.00  88
   8   8   3 44887.6 1638.62  49
   8   8   4 101586. 2663.47  96
   8   8   4 104254. 2432.83  33
   8   8   4 97801.6 2372.22  82
   8   8   4 96069.7 2407.10  49
   8   8   5 58613.1 1948.21  96
   8   8   5 62540.1 1814.97  33
   8   8   5 62662.9 1857.32  82
   8   8   5 63679.6 1782.48  49
   8   8   6 53126.2 1739.30  96
   8   8   6 56051.4 1633.81  33
   8   8   6 51889.5 1635.44  82
   8   8   6 56790.4 1449.13  49
   8   8   7 115807. 2426.37  96
   8   8   7 118643. 2250.20  33
   8   8   7 115006. 2329.15  82
   8   8   8 77762.3 1613.31  96
   8   8   8 79343.6 1628.23  82
   8   9  -2 65303.7 1405.51  42
   8   9  -2 68043.4 1601.77  96
   8   9  -1 99239.5 1870.74  42
   8   9  -1 100289. 2195.93  96
   8   9  -1 104754. 1894.24  49
   8   9   0 47292.8 1536.04  96
   8   9   0 46841.9 1389.91  49
   8   9   1 28981.8 1228.79  96
   8   9   1 30053.1 1186.93  49
   8   9   2 54623.5 1745.86  96
   8   9   2 55637.1 1699.38  49
   8   9   3 107104. 2554.11  96
   8   9   3 109174. 2588.62  88
   8   9   3 112523. 2530.35  49
   8   9   4 74933.3 2060.84  96
   8   9   4 83378.2 2077.49  49
   8   9   5 84071.8 2109.07  96
   8   9   5 87725.3 2016.41  49
   8   9   6 31388.7 1135.27  96
   8   9   6 36267.8 1073.12  49
   8   9   7 21653.3 791.313  96
   8  10  -1 76487.6 1488.94  96
   8  10   0 104632. 1970.25  96
   8  10   1 65323.7 1604.89  96
   8  10   1 69795.7 1545.81  49
   8  10   2 34406.4 1159.72  96
   8  10   2 34807.2 1156.50  49
   8  10   3 50416.9 1402.74  96
   8  10   3 49578.7 1434.21  49
   8  10   4 78991.5 1728.66  96
   8  10   4 76515.5 1777.02  49
   8  10   5 46718.7 1180.63  96
   8  10   5 46508.3 1252.90  49
   9  -3  -4 113963. 1782.72  53
   9  -3  -3 38574.1 930.168  84
   9  -3  -3 37918.8 994.280  53
   9  -3  -2 32270.7 885.921  84
   9  -3  -2 31454.2 917.849  53
   9  -3  -1 36924.5 966.968  84
   9  -3  -1 37530.6 996.688  53
   9  -3   0 66173.7 1297.71  84
   9  -3   0 64295.5 1289.40  53
   9  -2  -6 9305.97 442.665  83
   9  -2  -6 20363.9 640.595  51
   9  -2  -5 19104.2 707.376  53
   9  -2  -4 102908. 1710.71  84
   9  -2  -4 102250. 1922.67  53
   9  -2  -4 105219. 1692.06  78
   9  -2  -3 132598. 2060.76  90
   9  -2  -3 131935. 2170.48  84
   9  -2  -3 130096. 2323.77  53
   9  -2  -3 136473. 2129.33  78
   9  -2  -3 135652. 2138.02  48
   9  -2  -2 47887.4 1270.84  84
   9  -2  -2 50041.2 1375.33  53
   9  -2  -2 50373.2 1249.63  78
   9  -2  -2 49625.0 1241.06  48
   9  -2  -1 45264.9 1263.40  84
   9  -2  -1 42675.7 1273.99  53
   9  -2  -1 45072.9 1193.20  78
   9  -2  -1 44280.1 1186.25  48
   9  -2   0 20079.4 825.484  84
   9  -2   0 19971.9 836.209  53
   9  -2   0 20850.9 782.099  78
   9  -2   0 20878.9 788.879  48
   9  -2   1 69161.3 1553.19  84
   9  -2   1 71535.3 1566.46  53
   9  -2   1 69404.6 1448.23  78
   9  -2   1 69155.1 1456.80  48
   9  -2   2 177990. 2575.71  84
   9  -2   2 178215. 2505.03  53
   9  -2   2 174678. 2381.57  78
   9  -2   2 177271. 2409.55  48
   9  -1  -7 85857.3 1395.39  51
   9  -1  -6 130821. 2010.22  90
   9  -1  -6 124931. 2086.20  51
   9  -1  -5 7279.63 464.019  90
   9  -1  -5 7731.66 484.967  53
   9  -1  -5 7195.11 446.694  78
   9  -1  -4 42890.5 1259.93  90
   9  -1  -4 42148.7 1261.56  53
   9  -1  -4 41580.7 1224.93  78
   9  -1  -4 42662.4 1247.01  48
   9  -1  -3 91567.9 1995.36  90
   9  -1  -3 88611.5 1984.79  53
   9  -1  -3 92683.2 2007.30  78
   9  -1  -3 92765.6 2014.88  48
   9  -1  -2 99257.9 2131.71  90
   9  -1  -2 100146. 2012.02  84
   9  -1  -2 96731.6 2137.76  53
   9  -1  -2 99700.8 2165.68  78
   9  -1  -2 98572.1 2157.86  48
   9  -1  -1 129955. 2496.56  90
   9  -1  -1 127486. 2405.45  84
   9  -1  -1 125344. 2500.45  53
   9  -1  -1 127848. 2537.37  78
   9  -1  -1 127902. 2545.60  48
   9  -1   0 65661.0 1690.53  90
   9  -1   0 66564.6 1694.26  84
   9  -1   0 69353.1 1768.88  53
   9  -1   0 68079.4 1781.29  78
   9  -1   0 66350.1 1776.61  48
   9  -1   1 34573.6 1156.86  90
   9  -1   1 31090.2 1125.90  84
   9  -1   1 32945.3 1161.05  53
   9  -1   1 34312.3 1056.53  79
   9  -1   1 34858.8 1227.85  78
   9  -1   1 34162.9 1227.64  48
   9  -1   2 86849.9 1818.62  90
   9  -1   2 86207.1 1893.17  84
   9  -1   2 90128.9 1882.78  53
   9  -1   2 86704.7 1759.99  79
   9  -1   2 85357.0 1952.50  78
   9  -1   2 88397.6 1981.31  48
   9  -1   3 129715. 2094.01  90
   9  -1   3 129830. 2243.83  84
   9  -1   3 127690. 2099.00  53
   9  -1   3 124015. 2091.05  79
   9  -1   3 128597. 2289.98  78
   9  -1   3 127828. 2297.45  48
   9  -1   4 77884.7 1471.89  84
   9  -1   4 78263.6 1515.15  78
   9  -1   4 74890.9 1486.36  48
   9   0  -7 34854.3 831.420  78
   9   0  -7 31069.9 827.059  51
   9   0  -6 162877. 2561.78  90
   9   0  -6 167071. 2521.78  78
   9   0  -5 52702.8 1460.42  90
   9   0  -5 48863.3 1323.57  53
   9   0  -5 53570.9 1442.12  78
   9   0  -5 51430.4 1433.11  51
   9   0  -4 39356.4 1336.73  90
   9   0  -4 38627.0 1238.94  53
   9   0  -4 39229.6 1315.99  78
   9   0  -4 36997.7 1283.24  48
   9   0  -3 61856.8 1764.17  90
   9   0  -3 63384.6 1682.83  53
   9   0  -3 61134.9 1749.21  78
   9   0  -3 61109.6 1746.65  48
   9   0  -3 63144.5 1789.74  28
   9   0  -3 61878.9 1770.33  73
   9   0  -2 151468. 2952.11  90
   9   0  -2 143399. 2744.90  53
   9   0  -2 140615. 2863.75  78
   9   0  -2 142695. 2886.84  48
   9   0  -2 148349. 2961.85  28
   9   0  -2 145062. 2920.39  73
   9   0  -1 143122. 2899.11  90
   9   0  -1 141968. 2746.70  53
   9   0  -1 139635. 2564.14  79
   9   0  -1 141042. 2904.03  78
   9   0  -1 142133. 2928.47  48
   9   0  -1 141389. 2940.09  28
   9   0  -1 144054. 2949.36  73
   9   0   0 133930. 2788.11  90
   9   0   0 136786. 2562.89  84
   9   0   0 137682. 2681.08  53
   9   0   0 130655. 2580.20  79
   9   0   0 128188. 2788.24  78
   9   0   0 142633. 2942.11  48
   9   0   0 131366. 2855.75  28
   9   0   0 134799. 2876.95  73
   9   0   1 43849.9 1500.07  90
   9   0   1 44820.7 1401.59  84
   9   0   1 46124.5 1442.85  53
   9   0   1 43563.8 1439.95  79
   9   0   1 43746.3 1562.28  78
   9   0   1 44370.3 1568.77  48
   9   0   1 43044.1 1548.54  73
   9   0   2 18484.7 946.781  90
   9   0   2 19660.9 906.690  84
   9   0   2 19071.8 874.168  53
   9   0   2 18330.9 924.932  79
   9   0   2 18256.5 965.129  78
   9   0   2 19032.6 988.592  48
   9   0   3 151872. 2793.35  90
   9   0   3 152812. 2699.81  84
   9   0   3 149559. 2889.39  78
   9   0   3 149887. 2922.67  48
   9   0   4 55798.8 1453.25  90
   9   0   4 56979.2 1426.71  84
   9   0   4 56242.9 1543.01  78
   9   0   4 56824.7 1567.99  48
   9   0   5 120772. 1965.31  90
   9   0   5 124537. 1968.80  84
   9   0   5 124627. 2125.88  78
   9   0   5 126353. 2151.66  48
   9   1  -7 12493.5 538.537  78
   9   1  -7 11879.9 505.221  51
   9   1  -6 77472.4 1720.73  90
   9   1  -6 76309.9 1691.17  78
   9   1  -6 76738.0 1645.40  51
   9   1  -5 205610. 3326.79  90
   9   1  -5 197292. 3224.04  78
   9   1  -5 195263. 3159.94  51
   9   1  -4 109242. 2405.65  90
   9   1  -4 100560. 2091.74  53
   9   1  -4 102995. 2340.38  78
   9   1  -4 105559. 2371.58  48
   9   1  -4 107060. 2362.52  73
   9   1  -4 104604. 2017.25  44
   9   1  -3 41872.7 1495.86  90
   9   1  -3 42007.3 1268.84  79
   9   1  -3 44001.8 1530.20  78
   9   1  -3 44750.8 1542.56  48
   9   1  -3 41270.6 1493.52  28
   9   1  -3 41103.3 1474.92  73
   9   1  -3 39710.8 1302.35  44
   9   1  -2 63441.4 1914.71  67
   9   1  -2 68661.8 1982.15  90
   9   1  -2 65915.5 1972.69  20
   9   1  -2 64410.0 1729.58  79
   9   1  -2 67190.1 1968.91  78
   9   1  -2 67247.2 1978.89  48
   9   1  -2 67011.2 1984.35  28
   9   1  -2 69995.0 2010.77  73
   9   1  -1 80909.7 2211.02  90
   9   1  -1 82661.2 2338.85  20
   9   1  -1 85421.3 2172.35  82
   9   1  -1 83080.4 2086.08  79
   9   1  -1 86329.0 2276.48  78
   9   1  -1 87867.9 2323.53  48
   9   1  -1 82811.3 2269.07  28
   9   1  -1 83905.2 2265.20  73
   9   1   0 224287. 3944.12  90
   9   1   0 226306. 3538.40  33
   9   1   0 229099. 3744.03  82
   9   1   0 210121. 3720.50  79
   9   1   0 213250. 3927.26  78
   9   1   0 218027. 3984.86  48
   9   1   0 223315. 4010.15  28
   9   1   0 220052. 3979.80  73
   9   1   1 133477. 2939.07  90
   9   1   1 130504. 2995.88  20
   9   1   1 139844. 2696.11  82
   9   1   1 135105. 2988.19  78
   9   1   1 131372. 2961.25  48
   9   1   1 133014. 2966.14  73
   9   1   2 23188.7 1139.69  90
   9   1   2 22756.1 1152.82  78
   9   1   2 23177.3 1172.29  48
   9   1   2 24391.6 1188.19  73
   9   1   3 28596.8 1232.54  90
   9   1   3 28905.8 1109.15  84
   9   1   3 28302.2 1258.74  78
   9   1   3 27703.7 1260.11  48
   9   1   3 29748.5 1279.87  73
   9   1   4 36542.6 1332.28  90
   9   1   4 33789.4 1159.88  84
   9   1   4 35662.6 1347.03  78
   9   1   4 36258.6 1376.52  48
   9   1   5 111383. 2233.31  90
   9   1   5 106248. 2003.28  84
   9   1   5 112849. 2291.36  78
   9   1   5 113055. 2313.91  48
   9   1   6 130855. 2107.89  90
   9   1   6 127431. 2114.38  78
   9   1   6 126480. 2129.68  48
   9   2  -7 41536.7 927.781  51
   9   2  -7 41235.1 1034.92  78
   9   2  -6 27176.4 982.475  90
   9   2  -6 27452.5 990.752  78
   9   2  -6 24731.6 866.819  51
   9   2  -5 89629.3 2067.68  90
   9   2  -5 89331.7 2060.37  78
   9   2  -5 89901.9 1941.05  51
   9   2  -5 87613.4 1771.14  44
   9   2  -4 183344. 3344.80  90
   9   2  -4 191170. 3025.43  79
   9   2  -4 190248. 3383.73  78
   9   2  -4 189505. 3192.37  51
   9   2  -4 190596. 3341.74  73
   9   2  -4 184608. 3061.07  44
   9   2  -3 105032. 2627.12  67
   9   2  -3 112393. 2575.01  90
   9   2  -3 108385. 2328.76  79
   9   2  -3 111445. 2582.01  78
   9   2  -3 112622. 2600.69  48
   9   2  -3 112378. 2580.01  28
   9   2  -3 113418. 2571.76  73
   9   2  -3 105177. 2349.40  44
   9   2  -2 66563.4 2043.38  67
   9   2  -2 67498.2 2005.24  90
   9   2  -2 71319.2 2118.78  20
   9   2  -2 66728.5 1876.79  79
   9   2  -2 71335.1 2066.66  78
   9   2  -2 71743.2 2081.42  48
   9   2  -2 68079.5 2028.20  28
   9   2  -2 72958.3 2085.65  73
   9   2  -1 41405.6 1525.17  67
   9   2  -1 44038.9 1621.02  90
   9   2  -1 44433.6 1554.96  33
   9   2  -1 42758.1 1702.44  20
   9   2  -1 45152.1 1624.43  82
   9   2  -1 40695.5 1513.65  79
   9   2  -1 41951.8 1598.12  78
   9   2  -1 43059.0 1621.15  48
   9   2  -1 44501.7 1641.80  28
   9   2  -1 45356.2 1645.49  73
   9   2   0 80744.1 2256.13  90
   9   2   0 82053.0 2138.82  33
   9   2   0 81184.0 2217.62  82
   9   2   0 78094.6 2221.81  79
   9   2   0 82670.1 2311.74  78
   9   2   0 81568.4 2310.38  48
   9   2   0 79903.2 2285.36  28
   9   2   0 83123.1 2306.17  73
   9   2   1 137837. 2916.61  69
   9   2   1 145098. 3124.87  90
   9   2   1 136295. 2821.22  33
   9   2   1 139426. 3214.73  20
   9   2   1 135688. 2897.77  82
   9   2   1 136899. 3093.75  79
   9   2   1 130752. 3027.47  78
   9   2   1 130449. 3033.00  48
   9   2   1 136163. 3054.29  73
   9   2   2 115852. 2734.39  69
   9   2   2 110899. 2707.66  90
   9   2   2 111132. 2466.20  33
   9   2   2 109896. 2687.75  20
   9   2   2 108513. 2503.81  82
   9   2   2 111911. 2807.75  79
   9   2   2 108149. 2700.08  78
   9   2   2 108189. 2729.21  48
   9   2   2 113584. 2737.62  73
   9   2   3 42956.0 1606.05  90
   9   2   3 43000.7 1419.43  33
   9   2   3 41478.1 1417.74  82
   9   2   3 43128.2 1628.21  78
   9   2   3 43673.3 1652.56  48
   9   2   3 45136.9 1633.47  73
   9   2   4 44131.1 1570.12  90
   9   2   4 41282.3 1305.20  33
   9   2   4 43860.9 1336.56  82
   9   2   4 45221.2 1610.29  78
   9   2   4 44127.7 1609.81  48
   9   2   5 44256.1 1478.31  90
   9   2   5 43881.5 1473.14  78
   9   2   5 44245.0 1492.20  48
   9   2   6 114740. 2252.26  90
   9   2   6 120050. 2237.11  78
   9   2   6 119040. 2250.84  48
   9   3  -6 56941.9 1160.30  79
   9   3  -6 56279.6 1410.74  78
   9   3  -6 55679.1 1192.77  44
   9   3  -5 28630.7 1093.72  90
   9   3  -5 29193.6 982.791  79
   9   3  -5 29549.5 1121.39  78
   9   3  -5 28847.6 992.827  44
   9   3  -4 114707. 2492.04  90
   9   3  -4 114907. 2329.21  79
   9   3  -4 118202. 2557.13  78
   9   3  -4 114546. 2454.26  73
   9   3  -4 113848. 2387.46  44
   9   3  -3 152216. 3040.50  90
   9   3  -3 145941. 2899.42  79
   9   3  -3 147730. 3035.18  78
   9   3  -3 148924. 3064.19  48
   9   3  -3 154145. 3022.86  73
   9   3  -3 145122. 2934.91  44
   9   3  -2 73525.6 2085.59  90
   9   3  -2 75036.5 2203.13  20
   9   3  -2 71822.3 2111.82  82
   9   3  -2 72681.7 2055.97  79
   9   3  -2 73837.1 2123.60  78
   9   3  -2 72172.6 2108.16  48
   9   3  -2 75720.8 2108.74  28
   9   3  -2 73589.7 2078.07  73
   9   3  -2 71116.8 2064.83  44
   9   3  -1 49445.8 1717.26  90
   9   3  -1 52827.4 1757.80  33
   9   3  -1 53438.3 1937.18  20
   9   3  -1 53137.1 1791.23  82
   9   3  -1 48794.1 1735.31  79
   9   3  -1 47160.2 1704.95  78
   9   3  -1 46369.6 1701.69  48
   9   3  -1 53504.2 1786.78  28
   9   3  -1 50461.3 1730.30  73
   9   3   0 35941.7 1477.79  90
   9   3   0 39026.9 1502.86  33
   9   3   0 40176.0 1563.79  82
   9   3   0 36880.6 1545.97  79
   9   3   0 37789.6 1531.51  78
   9   3   0 37922.6 1544.64  48
   9   3   0 39857.7 1549.22  28
   9   3   0 39682.5 1537.90  73
   9   3   1 96057.1 2436.71  69
   9   3   1 93743.6 2497.50  90
   9   3   1 91622.9 2381.38  33
   9   3   1 98343.8 2710.82  20
   9   3   1 96008.8 2472.77  82
   9   3   1 95579.7 2618.72  79
   9   3   1 95910.1 2535.48  78
   9   3   1 95111.2 2533.52  48
   9   3   1 100188. 2536.36  28
   9   3   1 98531.2 2510.08  73
   9   3   2 152737. 3297.99  69
   9   3   2 147315. 3200.48  90
   9   3   2 145790. 3077.08  33
   9   3   2 147457. 3248.99  20
   9   3   2 141176. 3067.38  82
   9   3   2 148634. 3400.19  79
   9   3   2 147552. 3234.19  78
   9   3   2 144801. 3225.45  48
   9   3   3 145267. 3229.71  69
   9   3   3 144108. 3142.74  90
   9   3   3 134532. 2904.38  33
   9   3   3 137174. 2955.58  82
   9   3   3 144821. 3344.64  79
   9   3   3 133576. 3053.62  78
   9   3   3 137068. 3109.71  48
   9   3   3 150024. 3073.54  73
   9   3   4 49067.0 1721.58  90
   9   3   4 48710.7 1600.74  33
   9   3   4 50451.7 1626.70  82
   9   3   4 51013.2 1739.94  78
   9   3   4 50882.5 1749.91  48
   9   3   5 56009.7 1752.14  90
   9   3   5 51991.7 1550.42  33
   9   3   5 54744.9 1564.53  82
   9   3   5 55915.1 1699.45  78
   9   3   5 55449.4 1711.91  48
   9   3   6 45743.1 1441.98  90
   9   3   6 44166.8 1260.34  33
   9   3   6 46157.7 1220.21  82
   9   3   6 49477.4 1396.56  78
   9   3   6 49456.6 1410.05  48
   9   3   7 123364. 2125.01  90
   9   3   7 119136. 2019.53  79
   9   4  -6 103962. 1695.45  79
   9   4  -6 104421. 1835.61  78
   9   4  -6 100178. 1689.68  44
   9   4  -5 31786.0 1063.95  90
   9   4  -5 31074.6 1030.07  79
   9   4  -5 29837.6 1070.69  78
   9   4  -5 31138.3 1047.74  44
   9   4  -4 19304.3 913.911  90
   9   4  -4 18486.3 895.090  79
   9   4  -4 18852.3 926.897  78
   9   4  -4 18958.1 913.601  44
   9   4  -3 133708. 2741.18  90
   9   4  -3 127570. 2743.88  79
   9   4  -3 129330. 2756.63  78
   9   4  -3 132459. 2795.87  44
   9   4  -2 114053. 2596.58  90
   9   4  -2 109141. 2627.76  82
   9   4  -2 111176. 2728.66  20
   9   4  -2 112548. 2667.94  79
   9   4  -2 111946. 2614.07  78
   9   4  -2 116960. 2680.20  48
   9   4  -2 112971. 2686.12  44
   9   4  -1 71426.0 2068.30  90
   9   4  -1 78171.1 2201.95  33
   9   4  -1 73811.2 2141.73  82
   9   4  -1 76614.9 2355.70  20
   9   4  -1 77521.7 2250.57  79
   9   4  -1 76882.3 2165.35  78
   9   4  -1 78813.8 2195.63  48
   9   4  -1 73490.3 2209.67  44
   9   4   0 51253.2 1753.89  90
   9   4   0 54239.8 1827.81  33
   9   4   0 53988.2 1827.17  82
   9   4   0 52740.8 1902.97  79
   9   4   0 55225.6 1831.53  78
   9   4   0 56386.2 1860.40  48
   9   4   1 46032.9 1656.57  69
   9   4   1 43672.6 1627.17  90
   9   4   1 45312.1 1668.55  33
   9   4   1 43632.3 1781.71  20
   9   4   1 45954.1 1699.31  82
   9   4   1 46150.2 1812.16  79
   9   4   1 44323.9 1640.57  78
   9   4   1 46312.7 1686.21  48
   9   4   2 120440. 2944.79  69
   9   4   2 119064. 2820.32  90
   9   4   2 119245. 2811.49  33
   9   4   2 119558. 2925.32  20
   9   4   2 118091. 2828.32  82
   9   4   2 123163. 3102.92  79
   9   4   2 127030. 2871.12  78
   9   4   2 123173. 2854.81  48
   9   4   3 225048. 4194.86  69
   9   4   3 207636. 3460.86  96
   9   4   3 208047. 3906.11  90
   9   4   3 213002. 3918.91  33
   9   4   3 201506. 3700.75  20
   9   4   3 212634. 3942.21  82
   9   4   3 218293. 4266.71  79
   9   4   3 223586. 3966.34  78
   9   4   3 227397. 3986.45  48
   9   4   4 105548. 2322.96  96
   9   4   4 107843. 2628.15  90
   9   4   4 102771. 2541.63  33
   9   4   4 110526. 2619.09  82
   9   4   4 113754. 2893.18  79
   9   4   4 115144. 2595.86  78
   9   4   4 112764. 2593.10  48
   9   4   5 52828.7 1549.90  96
   9   4   5 56658.7 1780.98  90
   9   4   5 60031.9 1805.86  33
   9   4   5 59856.1 1786.00  82
   9   4   5 56583.1 1878.90  79
   9   4   5 60203.9 1691.24  78
   9   4   5 59281.2 1697.80  48
   9   4   6 29603.1 1048.62  96
   9   4   6 31783.2 1201.17  90
   9   4   6 31359.9 1170.14  33
   9   4   6 29060.9 1109.53  82
   9   4   6 31728.7 1209.35  79
   9   4   7 34953.7 972.703  96
   9   4   7 38536.2 1120.55  90
   9   4   7 38014.8 1101.77  33
   9   4   7 35233.8 1008.04  82
   9   4   7 37247.9 1027.06  79
   9   5  -6 151161. 2064.12  79
   9   5  -6 146983. 2052.44  44
   9   5  -5 88617.7 1791.94  79
   9   5  -5 87011.5 1661.38  78
   9   5  -5 84367.6 1751.53  44
   9   5  -4 12952.2 733.555  79
   9   5  -4 12912.1 689.329  78
   9   5  -4 12733.9 724.506  44
   9   5  -3 29813.0 1234.38  79
   9   5  -3 30236.4 1156.97  78
   9   5  -3 29009.3 1221.10  44
   9   5  -2 92230.0 2413.65  79
   9   5  -2 99927.9 2299.22  78
   9   5  -2 96816.4 2465.48  44
   9   5  -1 166152. 2868.25  96
   9   5  -1 172213. 3189.57  90
   9   5  -1 171657. 3396.49  33
   9   5  -1 171444. 3361.30  82
   9   5  -1 171259. 3513.23  79
   9   5  -1 162286. 3366.15  49
   9   5  -1 171069. 3502.90  44
   9   5   0 131948. 2584.59  96
   9   5   0 141768. 2884.20  90
   9   5   0 135672. 3016.48  33
   9   5   0 132011. 2955.02  82
   9   5   0 136806. 3192.15  79
   9   5   0 137643. 3067.82  49
   9   5   0 134703. 3175.38  44
   9   5   1 63398.3 1952.07  69
   9   5   1 60546.3 1722.81  96
   9   5   1 68031.9 1950.27  90
   9   5   1 61352.3 1981.00  33
   9   5   1 62155.3 1989.02  82
   9   5   1 63357.5 2141.32  20
   9   5   1 66536.0 2204.32  79
   9   5   1 64925.7 2029.78  49
   9   5   2 20752.7 1154.70  69
   9   5   2 18902.3 966.443  96
   9   5   2 20604.5 1058.86  90
   9   5   2 18819.1 1073.80  33
   9   5   2 19315.7 1086.24  82
   9   5   2 19823.6 1125.75  20
   9   5   2 20779.1 1215.06  79
   9   5   2 20120.4 1079.97  49
   9   5   3 121102. 2957.00  69
   9   5   3 114860. 2586.05  96
   9   5   3 118158. 2682.99  90
   9   5   3 121115. 2858.96  33
   9   5   3 116006. 2797.62  82
   9   5   3 118415. 3004.78  79
   9   5   3 119681. 2630.53  49
   9   5   4 170337. 3269.74  96
   9   5   4 181346. 3368.82  90
   9   5   4 178199. 3528.37  33
   9   5   4 173714. 3604.85  79
   9   5   5 95595.7 2298.15  96
   9   5   5 102075. 2331.12  90
   9   5   5 100808. 2460.80  33
   9   5   5 98102.4 2423.53  82
   9   5   5 98236.9 2425.34  79
   9   5   6 60573.5 1674.39  96
   9   5   6 64883.1 1653.51  90
   9   5   6 61436.4 1767.92  33
   9   5   6 61449.1 1743.40  82
   9   5   6 66143.1 1681.92  79
   9   5   7 2603.65 285.553  96
   9   5   7 2241.12 282.068  33
   9   5   7 2564.80 296.429  82
   9   6  -5 108201. 1873.74  79
   9   6  -5 108223. 1846.78  44
   9   6  -4 107100. 1790.18  96
   9   6  -4 107462. 2151.40  79
   9   6  -4 108384. 2132.70  44
   9   6  -3 40892.6 1171.68  96
   9   6  -3 42086.3 1423.61  79
   9   6  -3 42103.4 1405.41  44
   9   6  -2 42279.3 1296.78  96
   9   6  -2 42512.2 1538.73  79
   9   6  -2 42358.9 1522.00  44
   9   6  -1 94223.0 2134.68  96
   9   6  -1 97490.8 2339.08  82
   9   6  -1 98874.9 2531.98  79
   9   6  -1 93647.5 2341.52  49
   9   6  -1 97246.5 2500.79  44
   9   6   0 114653. 2481.06  96
   9   6   0 114566. 2706.91  33
   9   6   0 114959. 2652.07  82
   9   6   0 116140. 2873.22  79
   9   6   0 122319. 2784.92  49
   9   6   0 119976. 2872.71  44
   9   6   1 192287. 3456.58  96
   9   6   1 192176. 3674.39  33
   9   6   1 192784. 3633.47  82
   9   6   1 191979. 3866.31  79
   9   6   1 195510. 3705.06  49
   9   6   1 192581. 3793.59  44
   9   6   2 22331.7 1087.16  96
   9   6   2 24594.9 1219.36  33
   9   6   2 21446.4 1123.89  82
   9   6   2 22904.5 1225.82  79
   9   6   2 23687.7 1169.60  49
   9   6   2 22035.6 1169.67  44
   9   6   3 46570.9 1625.75  96
   9   6   3 48010.6 1734.82  33
   9   6   3 51434.1 1779.27  82
   9   6   3 50724.1 1811.81  79
   9   6   3 50752.7 1664.76  49
   9   6   4 42822.2 1564.42  96
   9   6   4 45223.3 1656.50  33
   9   6   4 44562.8 1635.97  82
   9   6   4 46447.7 1629.97  79
   9   6   4 46010.5 1457.85  49
   9   6   5 85072.4 2202.33  96
   9   6   5 86890.9 2273.32  33
   9   6   5 81656.6 2197.38  82
   9   6   6 112420. 2420.08  96
   9   6   6 118298. 2526.07  33
   9   6   6 113227. 2467.26  82
   9   6   7 38873.7 1191.03  96
   9   6   7 38839.4 1225.45  33
   9   6   7 39272.8 1221.80  82
   9   7  -4 111825. 1983.89  79
   9   7  -4 115232. 1948.05  44
   9   7  -3 96966.8 1844.68  96
   9   7  -3 98555.4 2085.13  79
   9   7  -3 100401. 2036.53  44
   9   7  -2 55666.4 1483.15  96
   9   7  -2 57143.7 1673.98  79
   9   7  -2 58221.3 1649.59  44
   9   7  -1 41550.8 1369.80  96
   9   7  -1 43134.2 1533.88  79
   9   7  -1 43952.1 1450.92  49
   9   7  -1 43114.3 1490.16  44
   9   7   0 76973.2 1978.27  96
   9   7   0 77495.5 1961.37  82
   9   7   0 77385.8 2164.15  79
   9   7   0 78201.1 2087.37  49
   9   7   0 77591.9 2095.80  44
   9   7   1 125932. 2703.85  96
   9   7   1 133912. 2846.84  33
   9   7   1 126892. 2698.87  82
   9   7   1 128922. 2864.13  79
   9   7   1 131987. 2846.12  49
   9   7   1 132025. 2790.66  44
   9   7   2 68476.4 1984.05  96
   9   7   2 68259.7 2002.36  33
   9   7   2 65582.7 1922.20  82
   9   7   2 73408.0 2053.71  79
   9   7   2 71117.1 2021.09  49
   9   7   2 73904.0 1939.63  44
   9   7   3 37615.3 1449.50  96
   9   7   3 39748.3 1503.34  33
   9   7   3 39371.5 1472.12  82
   9   7   3 40149.7 1413.22  79
   9   7   3 40180.5 1454.37  49
   9   7   4 15856.9 931.829  96
   9   7   4 18121.7 990.699  33
   9   7   4 19079.7 1007.47  82
   9   7   4 18928.5 918.517  49
   9   7   5 41702.0 1479.42  96
   9   7   5 42125.8 1477.76  33
   9   7   5 41009.8 1460.13  82
   9   7   6 70171.7 1825.20  96
   9   7   6 74561.9 1860.47  33
   9   7   6 70173.0 1835.37  82
   9   7   7 127325. 2242.06  96
   9   7   7 127610. 2241.28  33
   9   8  -3 103548. 1717.64  96
   9   8  -3 101654. 1756.91  79
   9   8  -3 103236. 1665.12  44
   9   8  -2 91876.7 1826.58  96
   9   8  -2 92982.4 1858.08  79
   9   8  -2 92023.4 1749.06  44
   9   8  -1 25626.0 994.936  96
   9   8  -1 25537.6 990.320  79
   9   8  -1 27692.3 1002.06  49
   9   8  -1 25231.0 920.250  44
   9   8   0 35434.5 1257.43  96
   9   8   0 34988.6 1208.79  79
   9   8   0 36260.9 1264.46  49
   9   8   1 55036.4 1650.17  96
   9   8   1 55868.0 1541.11  79
   9   8   1 51834.8 1605.03  49
   9   8   2 84611.4 2145.60  96
   9   8   2 90834.5 2063.77  33
   9   8   2 84953.5 2123.17  49
   9   8   3 57514.9 1742.47  96
   9   8   3 59206.2 1650.63  33
   9   8   3 58827.8 1608.27  82
   9   8   3 56575.4 1670.79  49
   9   8   4 42583.0 1480.85  96
   9   8   4 43496.1 1378.14  33
   9   8   4 43326.3 1368.61  82
   9   8   4 41942.1 1347.64  49
   9   8   5 26457.4 1097.38  96
   9   8   5 28920.5 1054.91  33
   9   8   5 27697.0 1049.63  82
   9   8   5 30399.2 989.126  49
   9   8   6 43039.2 1302.71  96
   9   8   6 45558.8 1212.25  33
   9   8   6 43447.8 1234.73  82
   9   8   7 103788. 1808.00  96
   9   9  -1 58154.5 1359.08  96
   9   9   0 10874.4 614.208  96
   9   9   0 12185.5 602.150  49
   9   9   1 34163.2 1176.05  96
   9   9   1 35501.3 1154.35  49
   9   9   2 48373.4 1456.96  96
   9   9   2 49499.4 1433.87  49
   9   9   3 105879. 2238.01  96
   9   9   3 107275. 2181.46  49
   9   9   4 84925.1 1932.55  96
   9   9   4 89399.2 1869.97  49
   9   9   5 31515.4 1046.81  96
   9   9   5 34374.4 960.558  49
   9   9   6 24143.2 785.428  96
   9  10   2 26117.9 824.155  49
   9  10   3 55238.2 1264.79  49
  10  -1  -2 101707. 1645.84  78
  10  -1  -2 103872. 1667.61  48
  10  -1  -1 83096.8 1491.44  78
  10  -1  -1 87081.2 1523.48  48
  10  -1   0 26357.5 761.988  78
  10  -1   0 26788.1 773.195  48
  10   0  -4 40711.5 1029.78  90
  10   0  -4 40542.6 1015.38  78
  10   0  -3 24662.9 853.339  90
  10   0  -3 24476.4 849.522  78
  10   0  -3 24894.4 860.436  48
  10   0  -2 49903.9 1301.28  90
  10   0  -2 51049.4 1327.11  78
  10   0  -2 52029.3 1341.88  48
  10   0  -1 161657. 2575.82  90
  10   0  -1 158287. 2599.93  78
  10   0  -1 159110. 2613.94  48
  10   0   0 95620.6 1897.12  90
  10   0   0 101044. 1987.77  78
  10   0   0 101784. 2005.90  48
  10   0   1 35036.1 1034.10  90
  10   0   1 33368.8 876.801  79
  10   0   1 33823.4 1063.20  78
  10   0   1 34791.2 1084.01  48
  10   0   2 44067.1 1087.41  90
  10   0   2 44156.4 1152.11  78
  10   0   2 43444.7 1151.07  48
  10   1  -5 80842.8 1519.38  90
  10   1  -5 81928.2 1501.96  78
  10   1  -4 84664.0 1724.99  90
  10   1  -4 85906.4 1725.70  78
  10   1  -4 82117.7 1480.72  51
  10   1  -3 45682.9 1310.15  90
  10   1  -3 45527.2 1303.08  78
  10   1  -3 46208.6 1317.81  48
  10   1  -3 43856.2 1040.76  44
  10   1  -2 31360.5 1113.40  90
  10   1  -2 28469.2 1064.45  78
  10   1  -2 29813.8 1089.78  48
  10   1  -2 27278.7 903.935  44
  10   1  -1 91784.0 2045.65  90
  10   1  -1 89087.7 1775.67  79
  10   1  -1 96547.1 2102.00  78
  10   1  -1 94276.0 2095.60  48
  10   1   0 191301. 3149.66  90
  10   1   0 185993. 2884.62  79
  10   1   0 186389. 3147.55  78
  10   1   0 190257. 3174.09  48
  10   1   1 100039. 2122.57  90
  10   1   1 93997.5 1944.64  79
  10   1   1 97303.4 2126.94  78
  10   1   1 99520.2 2146.71  48
  10   1   2 26756.6 1003.88  90
  10   1   2 26525.7 960.550  79
  10   1   2 27269.5 1026.92  78
  10   1   2 28169.0 1051.14  48
  10   1   3 58860.8 1419.45  90
  10   1   3 57927.8 1385.19  79
  10   1   3 60287.8 1459.69  78
  10   1   3 61655.0 1495.17  48
  10   1   4 41439.8 1016.87  90
  10   1   4 40794.0 1009.82  79
  10   1   4 40389.4 1029.27  78
  10   1   4 40091.8 1043.44  48
  10   2  -5 55153.5 1254.36  90
  10   2  -5 55114.9 1249.06  78
  10   2  -4 125507. 2246.86  78
  10   2  -4 123486. 1917.01  44
  10   2  -3 117985. 2311.55  90
  10   2  -3 118262. 1996.75  79
  10   2  -3 113243. 2047.22  44
  10   2  -2 69587.1 1784.39  90
  10   2  -2 68754.0 1596.70  79
  10   2  -2 70880.6 1814.24  78
  10   2  -2 73492.0 1848.79  48
  10   2  -2 65887.2 1627.86  44
  10   2  -1 14933.4 819.529  90
  10   2  -1 15774.3 780.314  79
  10   2  -1 15970.4 849.697  78
  10   2  -1 16620.6 872.231  48
  10   2  -1 14654.5 780.786  44
  10   2   0 118615. 2502.98  90
  10   2   0 116869. 2397.07  79
  10   2   0 121575. 2545.60  78
  10   2   0 123012. 2557.98  48
  10   2   1 119133. 2504.93  90
  10   2   1 122649. 2230.24  33
  10   2   1 124289. 2358.67  82
  10   2   1 121540. 2483.28  79
  10   2   1 118147. 2513.08  78
  10   2   1 119811. 2531.06  48
  10   2   2 98406.3 2195.53  90
  10   2   2 98113.6 1927.26  82
  10   2   2 92179.6 2127.36  79
  10   2   2 97047.7 2187.69  78
  10   2   2 95433.1 2188.26  48
  10   2   3 38236.9 1265.22  90
  10   2   3 38985.1 1284.81  79
  10   2   3 39659.5 1275.89  78
  10   2   3 39545.0 1279.92  48
  10   2   4 31837.8 1057.35  90
  10   2   4 32876.8 1082.85  79
  10   2   4 34051.1 1063.94  78
  10   2   4 34058.1 1065.17  48
  10   2   5 39594.4 999.732  90
  10   2   5 38713.3 1000.20  79
  10   3  -5 31835.4 892.014  90
  10   3  -5 30433.5 892.425  78
  10   3  -5 30014.6 724.340  44
  10   3  -4 94536.2 1869.90  90
  10   3  -4 90477.2 1617.94  79
  10   3  -4 92734.7 1866.87  78
  10   3  -4 90072.7 1684.61  44
  10   3  -3 105551. 2166.56  90
  10   3  -3 107228. 2027.99  79
  10   3  -3 106825. 2184.10  78
  10   3  -3 103760. 2054.77  44
  10   3  -2 130005. 2571.11  90
  10   3  -2 132386. 2486.29  79
  10   3  -2 134255. 2613.98  78
  10   3  -2 137957. 2652.01  48
  10   3  -2 127053. 2502.40  44
  10   3  -1 38014.6 1340.63  90
  10   3  -1 37421.2 1315.23  79
  10   3  -1 35858.2 1316.69  78
  10   3  -1 36447.0 1326.79  48
  10   3  -1 34972.7 1288.33  44
  10   3   0 31086.5 1229.46  90
  10   3   0 34967.4 1264.83  33
  10   3   0 32151.8 1251.20  82
  10   3   0 32705.6 1266.87  79
  10   3   0 32108.4 1257.74  78
  10   3   0 32986.6 1277.56  48
  10   3   1 79596.1 2040.88  90
  10   3   1 78226.8 1929.80  33
  10   3   1 81094.4 2012.96  82
  10   3   1 82919.6 2125.88  79
  10   3   1 83547.0 2083.67  78
  10   3   1 82465.1 2084.18  48
  10   3   2 103385. 2332.92  90
  10   3   2 104840. 2189.90  33
  10   3   2 100878. 2211.19  82
  10   3   2 101380. 2377.00  79
  10   3   2 104185. 2321.14  78
  10   3   2 102499. 2312.42  48
  10   3   3 70820.4 1843.04  90
  10   3   3 69853.0 1655.45  33
  10   3   3 70278.9 1692.84  82
  10   3   3 72900.4 1924.28  79
  10   3   3 71120.7 1797.53  78
  10   3   3 70084.3 1806.59  48
  10   3   4 31346.1 1125.34  90
  10   3   4 32844.6 992.143  33
  10   3   4 34721.4 1019.03  82
  10   3   4 32348.4 1175.86  79
  10   3   4 33042.4 1085.28  78
  10   3   4 33548.1 1100.75  48
  10   3   5 62901.6 1448.01  90
  10   3   5 60915.6 1454.21  79
  10   3   5 65578.5 1323.33  78
  10   3   5 64575.7 1332.57  48
  10   4  -5 47058.7 1004.51  78
  10   4  -5 44632.7 934.731  44
  10   4  -4 42798.1 1110.21  90
  10   4  -4 42655.3 1090.91  79
  10   4  -4 43159.7 1141.69  78
  10   4  -4 39913.3 1076.68  44
  10   4  -3 74016.9 1683.23  90
  10   4  -3 72064.4 1663.05  79
  10   4  -3 73479.2 1696.93  78
  10   4  -3 73790.9 1725.89  44
  10   4  -2 128716. 2448.03  90
  10   4  -2 126089. 2446.26  78
  10   4  -2 123895. 2505.94  44
  10   4  -1 100306. 2223.77  90
  10   4  -1 98008.5 2269.84  79
  10   4  -1 99393.2 2218.41  78
  10   4  -1 102265. 2253.89  48
  10   4  -1 98682.9 2302.20  44
  10   4   0 20915.1 991.776  90
  10   4   0 23040.7 1055.00  33
  10   4   0 21618.8 1035.64  82
  10   4   0 21603.0 1055.96  79
  10   4   0 21548.9 997.139  78
  10   4   0 23153.4 1033.10  48
  10   4   0 19957.5 1025.59  44
  10   4   1 20091.5 975.291  90
  10   4   1 18663.8 947.563  33
  10   4   1 19675.4 987.949  82
  10   4   1 19042.7 1011.70  79
  10   4   1 20368.9 966.437  78
  10   4   1 20321.8 969.991  48
  10   4   2 85096.4 2092.28  90
  10   4   2 86405.4 2095.62  33
  10   4   2 83576.3 2093.13  82
  10   4   2 87580.9 2258.09  79
  10   4   2 88318.4 2068.62  78
  10   4   2 89618.3 2083.57  48
  10   4   3 147933. 2802.49  90
  10   4   3 146971. 2749.94  33
  10   4   3 146938. 2776.88  82
  10   4   3 144513. 2944.73  79
  10   4   3 153034. 2691.22  78
  10   4   3 154338. 2713.68  48
  10   4   4 64094.4 1647.22  90
  10   4   4 65195.4 1628.77  33
  10   4   4 64111.4 1629.32  82
  10   4   4 65398.7 1763.53  79
  10   4   4 66184.5 1518.35  78
  10   4   4 67429.3 1537.89  48
  10   4   5 70693.0 1565.31  90
  10   4   5 71216.5 1529.10  33
  10   4   5 71281.0 1514.82  82
  10   4   5 71480.2 1636.45  79
  10   5  -4 30229.0 887.901  79
  10   5  -4 31433.7 915.729  44
  10   5  -3 28488.8 992.630  79
  10   5  -3 27572.4 996.539  44
  10   5  -2 44600.9 1400.97  79
  10   5  -2 44638.4 1406.92  44
  10   5  -1 125726. 2336.81  90
  10   5  -1 120889. 2560.12  79
  10   5  -1 121358. 2581.69  44
  10   5   0 147206. 2649.26  90
  10   5   0 145362. 2865.15  33
  10   5   0 143126. 2841.07  82
  10   5   0 143572. 2914.14  79
  10   5   0 141308. 2908.99  44
  10   5   1 14841.5 780.277  90
  10   5   1 13856.5 821.468  33
  10   5   1 14000.0 827.944  82
  10   5   1 14509.2 877.746  79
  10   5   1 14385.5 872.974  44
  10   5   2 48796.0 1448.36  90
  10   5   2 49587.4 1576.57  33
  10   5   2 47593.4 1552.19  82
  10   5   2 49227.9 1651.87  79
  10   5   3 77079.7 1614.99  96
  10   5   3 84670.6 1897.86  90
  10   5   3 79764.9 2002.53  33
  10   5   3 81649.3 2028.96  82
  10   5   3 81658.1 2111.50  79
  10   5   4 105962. 1884.67  96
  10   5   4 115775. 2148.92  90
  10   5   4 110609. 2302.52  33
  10   5   4 111126. 2310.58  82
  10   5   4 113803. 2359.70  79
  10   5   5 76926.2 1431.36  96
  10   5   5 80449.2 1556.46  90
  10   5   5 79403.9 1754.07  33
  10   5   5 78281.0 1733.44  82
  10   5   5 81175.1 1699.12  79
  10   5   6 62809.7 1316.35  33
  10   6  -4 72348.9 1319.68  79
  10   6  -4 69506.2 1294.58  44
  10   6  -3 43755.0 1190.53  79
  10   6  -3 45620.2 1198.58  44
  10   6  -2 19008.3 856.677  79
  10   6  -2 18700.7 843.427  44
  10   6  -1 52242.0 1576.90  79
  10   6  -1 53596.8 1575.36  44
  10   6   0 172805. 3024.75  82
  10   6   0 178610. 3204.18  79
  10   6   0 171703. 3105.05  44
  10   6   1 106598. 2007.52  96
  10   6   1 106886. 2380.75  33
  10   6   1 105000. 2334.24  82
  10   6   1 106786. 2445.93  79
  10   6   1 108135. 2394.02  44
  10   6   2 30419.9 1027.35  96
  10   6   2 30433.3 1212.15  33
  10   6   2 31892.6 1225.72  82
  10   6   2 32349.5 1265.58  79
  10   6   2 32328.9 1210.76  44
  10   6   3 56071.7 1431.96  96
  10   6   3 55272.6 1634.01  33
  10   6   3 53899.0 1606.31  82
  10   6   3 57978.9 1649.46  79
  10   6   3 59757.1 1579.42  44
  10   6   4 65167.1 1513.64  96
  10   6   4 68772.3 1764.02  33
  10   6   4 69274.1 1764.76  82
  10   6   4 70395.6 1657.97  79
  10   6   5 71549.1 1473.95  96
  10   6   5 72264.5 1679.86  33
  10   6   5 73651.6 1686.76  82
  10   6   6 71206.0 1453.08  33
  10   6   6 72487.0 1453.01  82
  10   7  -3 93381.9 1578.90  79
  10   7  -2 44107.1 1184.98  79
  10   7  -2 46036.6 1155.36  44
  10   7  -1 22184.1 747.404  96
  10   7  -1 21334.4 877.416  79
  10   7  -1 21910.2 848.698  44
  10   7   0 61770.3 1422.51  96
  10   7   0 65120.4 1666.75  79
  10   7   0 65891.1 1607.38  44
  10   7   1 198720. 3021.05  96
  10   7   1 209095. 3331.66  33
  10   7   1 209642. 3237.72  82
  10   7   1 216455. 3378.31  79
  10   7   1 226158. 3285.52  44
  10   7   2 50947.0 1376.55  96
  10   7   2 53617.7 1531.99  33
  10   7   2 52051.0 1471.74  82
  10   7   2 52050.1 1450.62  79
  10   7   2 54305.6 1367.72  44
  10   7   3 57464.4 1461.68  96
  10   7   3 61633.8 1628.38  33
  10   7   3 60432.8 1591.25  82
  10   7   3 60634.3 1445.85  79
  10   7   4 12795.6 640.572  96
  10   7   4 13960.4 717.649  33
  10   7   4 13257.5 691.782  82
  10   7   5 37463.2 1036.50  96
  10   7   5 37830.9 1105.50  33
  10   7   5 39067.2 1124.41  82
  10   8   0 18861.1 694.800  96
  10   8   0 19333.8 683.373  79
  10   8   1 59517.5 1380.38  96
  10   8   2 77991.1 1654.41  96
  10   8   2 78373.7 1721.95  49
  10   8   3 80522.0 1596.95  33
  10   8   3 77991.1 1535.53  82
  10   8   3 78513.2 1629.58  49
  10   8   4 34102.8 1003.14  96
  11   2  -2 33801.5 887.836  90
  11   2  -2 34326.4 879.172  78
  11   2  -1 31385.9 895.412  90
  11   2  -1 32010.4 892.985  78
  11   2  -1 32266.5 900.173  48
  11   2   0 57323.5 1254.67  90
  11   2   0 57142.1 1238.82  78
  11   2   0 58319.8 1251.86  48
  11   2   0 54373.7 1134.02  44
  11   2   1 112282. 1821.46  90
  11   2   1 114253. 1808.06  78
  11   2   1 114224. 1811.31  48
  11   2   1 108520. 1723.40  44
  11   3  -2 96308.9 1652.79  90
  11   3  -2 100067. 1660.08  78
  11   3  -2 95466.5 1560.64  44
  11   3  -1 44366.2 1116.77  90
  11   3  -1 42949.2 1025.85  79
  11   3  -1 44999.4 1105.43  78
  11   3  -1 43795.0 1076.97  44
  11   3   0 43009.1 1117.76  90
  11   3   0 41431.0 1056.39  79
  11   3   0 43322.2 1094.82  78
  11   3   0 42471.3 1090.40  48
  11   3   1 37944.0 1037.15  90
  11   3   1 37932.4 1023.16  79
  11   3   1 37658.8 995.614  78
  11   3   1 37648.0 997.231  48
  11   3   1 35346.5 1012.81  44
  11   3   2 122201. 1933.59  90
  11   3   2 119134. 1927.69  79
  11   4  -2 126447. 1870.37  79
  11   4  -2 124788. 1908.20  44
  11   4  -1 81930.0 1503.94  90
  11   4  -1 78136.5 1539.10  79
  11   4  -1 80841.5 1456.52  78
  11   4  -1 76367.5 1546.86  44
  11   4   0 37498.5 1007.91  90
  11   4   0 35586.0 1045.67  79
  11   4   0 36611.5 951.565  78
  11   4   0 35505.9 1052.79  44
  11   4   1 19382.5 713.886  90
  11   4   1 18548.1 749.376  79
  11   4   1 19710.6 664.426  78
  11   4   1 20051.0 671.741  48
  11   4   1 18333.6 750.969  44
  11   4   2 50958.6 1155.23  90
  11   4   2 50430.1 1253.97  79
  11   4   2 49393.4 1225.98  44
  11   4   3 115535. 1882.08  79
  11   5  -2 66110.2 1252.83  79
  11   5  -2 65964.5 1275.01  44
  11   5  -1 108725. 1865.75  79
  11   5  -1 109908. 1893.61  44
  11   5   0 98903.1 1869.46  79
  11   5   0 101847. 1873.19  44
  11   5   1 19340.0 774.934  79
  11   5   1 20426.5 780.775  44
  11   5   2 13077.1 600.174  33
  11   5   2 13138.1 612.163  82
  11   5   2 14251.1 638.251  79
  11   5   2 13129.7 592.658  44
  11   5   3 50444.7 1136.22  33
  11   5   3 48789.6 1138.14  82
  11   5   3 48105.5 1120.79  79
  11   6  -1 34270.7 900.264  79
  11   6   0 125014. 2031.30  79
  11   6   0 126306. 1979.30  44
  11   6   1 59019.6 1325.73  79
  11   6   1 60014.1 1270.43  44
  11   6   2 66243.8 1404.81  82
  11   6   2 65522.6 1349.07  79
   0   0   0    0.00    0.00   0
TITL Esben4 CU2 in P1
REM P1 (#1 in standard setting)
CELL 1.54184   9.135785   9.565882  10.284043  72.9196  89.0425  69.5115
ZERR   23.00   0.000166   0.000197   0.000222   0.0019   0.0017   0.0018
LATT -1
SFAC C H O
UNIT 23.00 23.00 23.00
TREF
HKLF 4
END
;
_shelx_hkl_checksum              85940
_olex2_computing_structure_refinement_long 'ShelXL (Sheldrick, 2008)'
#END Tags that were not found in dictionaries
loop_
_space_group_symop_operation_xyz
'x, y, z'
loop_
_atom_site_label
_atom_site_type_symbol
_atom_site_fract_x
_atom_site_fract_y
_atom_site_fract_z
_atom_site_U_iso_or_equiv
_atom_site_adp_type
_atom_site_occupancy
_atom_site_site_symmetry_order
_atom_site_calc_flag
_atom_site_refinement_flags_posn
Ir1 Ir -0.00003(15) 0.00011(15) -0.00002(15) 0.00927(8) Uani 1 1 d .
P2 P -0.0163(4) 0.2006(4) -0.1964(4) 0.0126(10) Uiso 1 1 d .
Cl1 Cl 0.2157(4) -0.1632(3) -0.0821(3) 0.0263(4) Uiso 1 1 d .
P1 P 0.0182(4) -0.2069(4) 0.1966(4) 0.0084(9) Uiso 1 1 d .
C1D C 0.1725(14) 0.2134(18) -0.2429(13) 0.022(4) Uiso 1 1 d .
C6E C -0.1788(12) 0.3284(11) -0.4585(10) 0.016(3) Uiso 1 1 d .
H6E H -0.1768 0.4248 -0.4582 0.020 Uiso 1 1 calc R
C1E C -0.1133(12) 0.1981(12) -0.3460(10) 0.010(3) Uiso 1 1 d .
C1C C -0.1753(11) -0.2097(14) 0.2463(10) 0.008(3) Uiso 1 1 d .
C1F C -0.1348(13) 0.4033(13) -0.1931(14) 0.019(4) Uiso 1 1 d .
C2E C -0.1195(13) 0.0537(13) -0.3457(11) 0.022(4) Uiso 1 1 d .
H2E H -0.0762 -0.0348 -0.2703 0.026 Uiso 1 1 calc R
C1A C 0.1100(13) -0.1826(12) 0.3437(10) 0.014(3) Uiso 1 1 d .
C6A C 0.1727(12) -0.3080(11) 0.4648(10) 0.020(3) Uiso 1 1 d .
H6A H 0.1661 -0.4051 0.4735 0.024 Uiso 1 1 calc R
C2A C 0.1223(12) -0.0417(11) 0.3352(10) 0.013(3) Uiso 1 1 d .
H2A H 0.0800 0.0422 0.2560 0.016 Uiso 1 1 calc R
C4F C -0.3232(11) 0.6910(10) -0.1644(10) 0.025(2) Uiso 1 1 d .
H4F H -0.3865 0.7886 -0.1584 0.030 Uiso 1 1 calc R
C5A C 0.2450(11) -0.2860(12) 0.5717(9) 0.022(3) Uiso 1 1 d .
H5A H 0.2861 -0.3685 0.6519 0.027 Uiso 1 1 calc R
C1B C 0.1223(12) -0.4017(12) 0.1921(13) 0.014(3) Uiso 1 1 d .
C2D C 0.2827(11) 0.1927(12) -0.1402(10) 0.024(3) Uiso 1 1 d .
H2D H 0.2569 0.1751 -0.0505 0.029 Uiso 1 1 calc R
C2B C 0.2843(12) -0.4598(12) 0.1957(11) 0.027(3) Uiso 1 1 d .
H2B H 0.3400 -0.3976 0.2043 0.033 Uiso 1 1 calc R
C6C C -0.2039(12) -0.2585(15) 0.3827(11) 0.015(4) Uiso 1 1 d .
H6C H -0.1259 -0.2843 0.4518 0.018 Uiso 1 1 calc R
C2C C -0.2939(10) -0.1627(11) 0.1416(9) 0.015(2) Uiso 1 1 d .
H2C H -0.2759 -0.1254 0.0509 0.017 Uiso 1 1 calc R
C4E C -0.2559(10) 0.1769(11) -0.5727(9) 0.018(2) Uiso 1 1 d .
H4E H -0.3044 0.1707 -0.6485 0.022 Uiso 1 1 calc R
C3A C 0.1950(11) -0.0197(11) 0.4397(10) 0.020(3) Uiso 1 1 d .
H3A H 0.2031 0.0770 0.4297 0.024 Uiso 1 1 calc R
C6F C -0.0670(12) 0.5105(12) -0.1834(13) 0.024(3) Uiso 1 1 d .
H6F H 0.0401 0.4880 -0.1891 0.028 Uiso 1 1 calc R
C5C C -0.3486(11) -0.2688(13) 0.4156(10) 0.017(3) Uiso 1 1 d .
H5C H -0.3696 -0.2968 0.5065 0.021 Uiso 1 1 calc R
C5E C -0.2473(11) 0.3164(11) -0.5718(9) 0.021(3) Uiso 1 1 d .
H5E H -0.2881 0.4043 -0.6481 0.025 Uiso 1 1 calc R
C6B C 0.0412(13) -0.4970(13) 0.1789(14) 0.030(3) Uiso 1 1 d .
H6B H -0.0679 -0.4598 0.1733 0.037 Uiso 1 1 calc R
C4A C 0.2557(10) -0.1409(10) 0.5588(8) 0.015(2) Uiso 1 1 d .
H4A H 0.3035 -0.1262 0.6302 0.018 Uiso 1 1 calc R
C4C C -0.4606(13) -0.2372(15) 0.3125(11) 0.028(4) Uiso 1 1 d .
H4C H -0.5512 -0.2589 0.3340 0.033 Uiso 1 1 calc R
C3E C -0.1917(11) 0.0443(11) -0.4600(10) 0.020(3) Uiso 1 1 d .
H3E H -0.1968 -0.0509 -0.4607 0.024 Uiso 1 1 calc R
C3F C -0.3905(10) 0.5837(10) -0.1728(9) 0.020(2) Uiso 1 1 d .
H3F H -0.4980 0.6076 -0.1693 0.025 Uiso 1 1 calc R
C3D C 0.4291(11) 0.1975(12) -0.1688(10) 0.025(3) Uiso 1 1 d .
H3D H 0.4989 0.1889 -0.0994 0.030 Uiso 1 1 calc R
C5F C -0.1633(13) 0.6533(12) -0.1648(12) 0.036(3) Uiso 1 1 d .
H5F H -0.1185 0.7227 -0.1528 0.044 Uiso 1 1 calc R
C3C C -0.4395(11) -0.1721(13) 0.1742(10) 0.025(3) Uiso 1 1 d .
H3C H -0.5215 -0.1361 0.1062 0.030 Uiso 1 1 calc R
C1 C -0.1631(16) 0.1198(16) 0.0578(13) 0.046(3) Uiso 1 1 d .
O1 O -0.2656(13) 0.1953(11) 0.0982(10) 0.054(3) Uiso 1 1 d .
C6D C 0.2104(13) 0.2477(16) -0.3779(11) 0.017(4) Uiso 1 1 d .
H6D H 0.1360 0.2705 -0.4491 0.020 Uiso 1 1 calc R
C4D C 0.4723(12) 0.2153(14) -0.3006(10) 0.021(3) Uiso 1 1 d .
H4D H 0.5749 0.2057 -0.3185 0.026 Uiso 1 1 calc R
C2F C -0.2958(9) 0.4416(10) -0.1866(9) 0.012(2) Uiso 1 1 d .
H2F H -0.3407 0.3695 -0.1916 0.014 Uiso 1 1 calc R
C5D C 0.3608(13) 0.2474(15) -0.4052(11) 0.024(3) Uiso 1 1 d .
H5D H 0.3862 0.2692 -0.4950 0.028 Uiso 1 1 calc R
C5B C 0.1241(13) -0.6477(12) 0.1741(12) 0.034(3) Uiso 1 1 d .
H5B H 0.0695 -0.7119 0.1688 0.041 Uiso 1 1 calc R
C4B C 0.2837(12) -0.7036(10) 0.1770(10) 0.028(2) Uiso 1 1 d .
H4B H 0.3371 -0.8042 0.1724 0.034 Uiso 1 1 calc R
C3B C 0.3655(10) -0.6089(10) 0.1869(9) 0.023(2) Uiso 1 1 d .
H3B H 0.4742 -0.6451 0.1877 0.027 Uiso 1 1 calc R
loop_
_atom_site_aniso_label
_atom_site_aniso_U_11
_atom_site_aniso_U_22
_atom_site_aniso_U_33
_atom_site_aniso_U_23
_atom_site_aniso_U_13
_atom_site_aniso_U_12
Ir1 0.00653(10) 0.01134(11) 0.00819(11) -0.00270(8) 0.00114(6) -0.00142(7)
loop_
_atom_type_symbol
_atom_type_description
_atom_type_scat_dispersion_real
_atom_type_scat_dispersion_imag
_atom_type_scat_source
C C 0.0181 0.0091 'International Tables Vol C Tables 4.2.6.8 and 6.1.1.4'
H H 0.0000 0.0000 'International Tables Vol C Tables 4.2.6.8 and 6.1.1.4'
Cl Cl 0.3639 0.7018 'International Tables Vol C Tables 4.2.6.8 and 6.1.1.4'
Ir Ir -4.7710 6.5667 'International Tables Vol C Tables 4.2.6.8 and 6.1.1.4'
O O 0.0492 0.0322 'International Tables Vol C Tables 4.2.6.8 and 6.1.1.4'
P P 0.2955 0.4335 'International Tables Vol C Tables 4.2.6.8 and 6.1.1.4'
loop_
_geom_angle_atom_site_label_1
_geom_angle_atom_site_label_2
_geom_angle_atom_site_label_3
_geom_angle
P2 Ir1 Cl1 87.81(12)
P2 Ir1 P1 178.8(2)
P1 Ir1 Cl1 91.19(11)
C1 Ir1 P2 92.0(4)
C1 Ir1 Cl1 178.4(4)
C1 Ir1 P1 89.0(4)
C1D P2 Ir1 113.9(5)
C1D P2 C1F 103.3(6)
C1E P2 Ir1 115.4(4)
C1E P2 C1D 106.7(6)
C1E P2 C1F 99.9(6)
C1F P2 Ir1 115.9(5)
C1C P1 Ir1 112.5(4)
C1C P1 C1A 105.0(5)
C1A P1 Ir1 109.7(4)
C1B P1 Ir1 117.7(5)
C1B P1 C1C 103.8(6)
C1B P1 C1A 107.3(6)
C2D C1D P2 118.8(9)
C2D C1D C6D 118.4(10)
C6D C1D P2 122.8(9)
C1E C6E C5E 120.4(9)
C6E C1E P2 123.7(7)
C6E C1E C2E 119.6(8)
C2E C1E P2 116.7(8)
C6C C1C P1 122.0(8)
C6C C1C C2C 120.6(8)
C2C C1C P1 117.4(7)
C6F C1F P2 122.9(8)
C2F C1F P2 117.6(8)
C2F C1F C6F 119.2(9)
C3E C2E C1E 119.2(9)
C6A C1A P1 121.5(8)
C2A C1A P1 120.2(8)
C2A C1A C6A 118.3(8)
C5A C6A C1A 119.7(9)
C1A C2A C3A 122.3(9)
C5F C4F C3F 120.3(8)
C4A C5A C6A 120.3(8)
C2B C1B P1 121.2(8)
C2B C1B C6B 118.3(8)
C6B C1B P1 120.5(8)
C3D C2D C1D 121.4(9)
C1B C2B C3B 121.4(9)
C5C C6C C1C 120.1(9)
C3C C2C C1C 119.4(8)
C5E C4E C3E 119.8(7)
C4A C3A C2A 120.0(8)
C1F C6F C5F 119.0(9)
C4C C5C C6C 119.4(9)
C4E C5E C6E 120.8(8)
C5B C6B C1B 119.7(9)
C3A C4A C5A 119.5(7)
C5C C4C C3C 120.8(9)
C4E C3E C2E 120.2(8)
C2F C3F C4F 119.2(8)
C2D C3D C4D 120.0(8)
C4F C5F C6F 120.6(8)
C2C C3C C4C 118.9(8)
O1 C1 Ir1 178.2(10)
C1D C6D C5D 119.5(9)
C5D C4D C3D 119.1(8)
C3F C2F C1F 121.6(8)
C4D C5D C6D 121.0(9)
C4B C5B C6B 121.5(9)
C5B C4B C3B 119.3(8)
C4B C3B C2B 119.7(8)
loop_
_geom_bond_atom_site_label_1
_geom_bond_atom_site_label_2
_geom_bond_distance
Ir1 P2 2.306(5)
Ir1 Cl1 2.367(3)
Ir1 P1 2.338(4)
Ir1 C1 1.749(15)
P2 C1D 1.818(13)
P2 C1E 1.798(11)
P2 C1F 1.872(11)
P1 C1C 1.839(11)
P1 C1A 1.852(11)
P1 C1B 1.785(10)
C1D C2D 1.393(12)
C1D C6D 1.396(12)
C6E C1E 1.380(11)
C6E C5E 1.384(11)
C1E C2E 1.401(12)
C1C C6C 1.393(11)
C1C C2C 1.396(10)
C1F C6F 1.397(12)
C1F C2F 1.392(11)
C2E C3E 1.398(11)
C1A C6A 1.408(11)
C1A C2A 1.369(12)
C6A C5A 1.395(11)
C2A C3A 1.377(11)
C4F C3F 1.391(11)
C4F C5F 1.377(12)
C5A C4A 1.392(12)
C1B C2B 1.384(12)
C1B C6B 1.395(12)
C2D C3D 1.378(11)
C2B C3B 1.388(11)
C6C C5C 1.389(11)
C2C C3C 1.393(10)
C4E C5E 1.366(12)
C4E C3E 1.391(12)
C3A C4A 1.375(11)
C6F C5F 1.407(12)
C5C C4C 1.376(12)
C6B C5B 1.389(12)
C4C C3C 1.415(12)
C3F C2F 1.380(10)
C3D C4D 1.384(11)
C1 O1 1.123(15)
C6D C5D 1.397(12)
C4D C5D 1.383(12)
C5B C4B 1.363(12)
C4B C3B 1.385(12)
loop_
_geom_torsion_atom_site_label_1
_geom_torsion_atom_site_label_2
_geom_torsion_atom_site_label_3
_geom_torsion_atom_site_label_4
_geom_torsion
Ir1 P2 C1D C2D -41.5(12)
Ir1 P2 C1D C6D 140.4(10)
Ir1 P2 C1E C6E 158.5(8)
Ir1 P2 C1E C2E -22.1(9)
Ir1 P2 C1F C6F 106.7(11)
Ir1 P2 C1F C2F -66.9(9)
Ir1 P1 C1C C6C -145.8(8)
Ir1 P1 C1C C2C 35.0(9)
Ir1 P1 C1A C6A -163.0(7)
Ir1 P1 C1A C2A 15.1(9)
Ir1 P1 C1B C2B 73.0(10)
Ir1 P1 C1B C6B -104.2(11)
P2 C1D C2D C3D 178.5(9)
P2 C1D C6D C5D -176.7(11)
P2 C1E C2E C3E -179.2(9)
P2 C1F C6F C5F -172.4(10)
P2 C1F C2F C3F 174.8(9)
P1 C1C C6C C5C -175.7(10)
P1 C1C C2C C3C 176.1(8)
P1 C1A C6A C5A 178.1(9)
P1 C1A C2A C3A -177.4(9)
P1 C1B C2B C3B -177.5(9)
P1 C1B C6B C5B 179.3(10)
C1D P2 C1E C6E -73.9(11)
C1D P2 C1E C2E 105.5(9)
C1D P2 C1F C6F -18.6(13)
C1D P2 C1F C2F 167.8(9)
C1D C2D C3D C4D -3.4(13)
C1D C6D C5D C4D -0.7(19)
C6E C1E C2E C3E 0.3(12)
C1E P2 C1D C2D -170.1(9)
C1E P2 C1D C6D 11.9(13)
C1E P2 C1F C6F -128.6(11)
C1E P2 C1F C2F 57.9(10)
C1E C6E C5E C4E 2.1(15)
C1E C2E C3E C4E 0.2(12)
C1C P1 C1A C6A 75.8(10)
C1C P1 C1A C2A -106.0(9)
C1C P1 C1B C2B -161.9(9)
C1C P1 C1B C6B 20.8(12)
C1C C6C C5C C4C 2.9(15)
C1C C2C C3C C4C -3.4(14)
C1F P2 C1D C2D 85.1(11)
C1F P2 C1D C6D -93.0(12)
C1F P2 C1E C6E 33.4(10)
C1F P2 C1E C2E -147.2(8)
C1F C6F C5F C4F -3.8(18)
C1A P1 C1C C6C -26.6(10)
C1A P1 C1C C2C 154.3(8)
C1A P1 C1B C2B -51.2(11)
C1A P1 C1B C6B 131.6(11)
C1A C6A C5A C4A -0.2(13)
C1A C2A C3A C4A -1.3(13)
C6A C1A C2A C3A 0.8(12)
C6A C5A C4A C3A -0.2(14)
C2A C1A C6A C5A 0.0(13)
C2A C3A C4A C5A 1.0(14)
C4F C3F C2F C1F -0.4(11)
C1B P1 C1C C6C 85.9(10)
C1B P1 C1C C2C -93.3(9)
C1B P1 C1A C6A -34.1(10)
C1B P1 C1A C2A 144.0(8)
C1B C2B C3B C4B -1.3(12)
C1B C6B C5B C4B -2.4(19)
C2D C1D C6D C5D 5.3(18)
C2D C3D C4D C5D 8.0(15)
C2B C1B C6B C5B 2.0(18)
C6C C1C C2C C3C -3.1(13)
C6C C5C C4C C3C -9.6(17)
C2C C1C C6C C5C 3.5(14)
C6F C1F C2F C3F 1.0(13)
C5C C4C C3C C2C 9.8(17)
C5E C6E C1E P2 178.0(9)
C5E C6E C1E C2E -1.4(14)
C5E C4E C3E C2E 0.4(14)
C6B C1B C2B C3B -0.2(14)
C6B C5B C4B C3B 0.9(16)
C3E C4E C5E C6E -1.5(15)
C3F C4F C5F C6F 4.5(16)
C3D C4D C5D C6D -6.0(18)
C5F C4F C3F C2F -2.3(13)
C6D C1D C2D C3D -3.3(15)
C2F C1F C6F C5F 1.1(17)
C5B C4B C3B C2B 0.9(13)
