#------------------------------------------------------------------------------
#$Date: 2016-03-22 22:06:50 +0200 (Tue, 22 Mar 2016) $
#$Revision: 179032 $
#$URL: svn://www.crystallography.net/cod/cif/4/12/30/4123062.cif $
#------------------------------------------------------------------------------
#
# This file is available in the Crystallography Open Database (COD),
# http://www.crystallography.net/
#
# All data on this site have been placed in the public domain by the
# contributors.
#
data_4123062
loop_
_publ_author_name
'Blackburn, Anthea K.'
'Sue, Andrew C.-H.'
'Shveyd, Alexander K.'
'Cao, Dennis'
'Tayi, Alok'
'Narayanan, Ashwin'
'Rolczynski, Brian S.'
'Szarko, Jodi M.'
'Bozdemir, Ozgur A.'
'Wakabayashi, Rie'
'Lehrman, Jessica A.'
'Kahr, Bart'
'Chen, Lin X.'
'Nassar, Majed S.'
'Stupp, Samuel I.'
'Stoddart, J. Fraser'
_publ_section_title
;
 Lock-Arm Supramolecular Ordering: A Molecular Construction Set for
 Cocrystallizing Organic Charge Transfer Complexes.
;
_journal_name_full               'Journal of the American Chemical Society'
_journal_page_first              141124065827003
_journal_paper_doi               10.1021/ja509442t
_journal_year                    2014
_chemical_formula_moiety         'C10 H10 N2, C22 H22 N2 O8'
_chemical_formula_sum            'C32 H32 N4 O8'
_chemical_formula_weight         600.61
_chemical_name_systematic
;
 ?
;
_space_group_crystal_system      triclinic
_space_group_IT_number           2
_space_group_name_Hall           '-P 1'
_space_group_name_H-M_alt        'P -1'
_symmetry_space_group_name_Hall  '-P 1'
_symmetry_space_group_name_H-M   'P -1'
_atom_sites_solution_hydrogens   mixed
_audit_creation_date             2014-09-02
_audit_creation_method
;
Olex2 1.2
(compiled 2014.08.28 svn.r2986 for OlexSys, GUI svn.r4866)
;
_cell_angle_alpha                72.093(2)
_cell_angle_beta                 76.054(2)
_cell_angle_gamma                80.941(2)
_cell_formula_units_Z            1
_cell_length_a                   6.9510(2)
_cell_length_b                   8.6966(2)
_cell_length_c                   12.1281(3)
_cell_measurement_reflns_used    3049
_cell_measurement_temperature    100(2)
_cell_measurement_theta_max      29.97
_cell_measurement_theta_min      2.47
_cell_volume                     674.30(3)
_computing_cell_refinement       'SAINT V7.23A (Bruker, 2005)'
_computing_data_collection       'APEX2 V2.1-4 (Bruker, 2007)'
_computing_data_reduction        'Bruker SAINT'
_computing_molecular_graphics    'Olex2 (Dolomanov et al., 2009)'
_computing_publication_material  'Olex2 (Dolomanov et al., 2009)'
_computing_structure_refinement  'ShelXL (Sheldrick, 2008)'
_diffrn_ambient_temperature      100.02
_diffrn_detector_area_resol_mean 8
_diffrn_measured_fraction_theta_full 0.989
_diffrn_measured_fraction_theta_max 0.982
_diffrn_measurement_device_type  'Bruker SMART APEX CCD area detector'
_diffrn_measurement_method       '\w and \f scans'
_diffrn_radiation_monochromator  'Quazar optics'
_diffrn_radiation_type           MoK\a
_diffrn_radiation_wavelength     0.71073
_diffrn_reflns_av_R_equivalents  0.0569
_diffrn_reflns_av_unetI/netI     0.0553
_diffrn_reflns_Laue_measured_fraction_full 0.989
_diffrn_reflns_Laue_measured_fraction_max 0.982
_diffrn_reflns_limit_h_max       9
_diffrn_reflns_limit_h_min       -9
_diffrn_reflns_limit_k_max       12
_diffrn_reflns_limit_k_min       -12
_diffrn_reflns_limit_l_max       17
_diffrn_reflns_limit_l_min       -16
_diffrn_reflns_number            12520
_diffrn_reflns_point_group_measured_fraction_full 0.989
_diffrn_reflns_point_group_measured_fraction_max 0.982
_diffrn_reflns_theta_full        25.242
_diffrn_reflns_theta_max         30.062
_diffrn_reflns_theta_min         1.803
_diffrn_source                   microsource
_exptl_absorpt_coefficient_mu    0.108
_exptl_absorpt_correction_T_max  0.7460
_exptl_absorpt_correction_T_min  0.6183
_exptl_absorpt_correction_type   multi-scan
_exptl_absorpt_process_details
;
SADABS-2008/1 (Bruker,2008) was used for absorption correction.
wR2(int) was 0.0769 before and 0.0533 after correction.
The Ratio of minimum to maximum transmission is 0.8288.
The \l/2 correction factor is 0.0015.
;
_exptl_crystal_colour            black
_exptl_crystal_colour_primary    black
_exptl_crystal_density_diffrn    1.479
_exptl_crystal_description       needle
_exptl_crystal_F_000             316
_exptl_crystal_size_max          0.457
_exptl_crystal_size_mid          0.119
_exptl_crystal_size_min          0.012
_refine_diff_density_max         0.600
_refine_diff_density_min         -0.363
_refine_diff_density_rms         0.064
_refine_ls_extinction_method     none
_refine_ls_goodness_of_fit_ref   1.079
_refine_ls_hydrogen_treatment    mixed
_refine_ls_matrix_type           full
_refine_ls_number_parameters     285
_refine_ls_number_reflns         3880
_refine_ls_number_restraints     153
_refine_ls_restrained_S_all      1.080
_refine_ls_R_factor_all          0.1357
_refine_ls_R_factor_gt           0.0773
_refine_ls_shift/su_max          0.093
_refine_ls_shift/su_mean         0.009
_refine_ls_structure_factor_coef Fsqd
_refine_ls_weighting_details
'w=1/[\s^2^(Fo^2^)+(0.1250P)^2^+0.1323P] where P=(Fo^2^+2Fc^2^)/3'
_refine_ls_weighting_scheme      calc
_refine_ls_wR_factor_gt          0.2129
_refine_ls_wR_factor_ref         0.2540
_reflns_Friedel_coverage         0.000
_reflns_number_gt                2073
_reflns_number_total             3880
_reflns_threshold_expression     'I > 2\s(I)'
_iucr_refine_instructions_details
;
TITL n0442_CS in P-1
CELL 0.71073 6.951 8.6966 12.1281 72.093 76.054 80.941
ZERR 1 0.0002 0.0002 0.0003 0.002 0.002 0.002
LATT 1
 
SFAC C H N O
UNIT 32 32 4 8
SADI C21 C17 C17 C24 C22 C23
SADI C21 C22 C22 C17 C17 C23 C23 C24
SADI N3 C17 N3 C24
DELU C20 C19 C18 C17 C16 C24 C22 C23 C21 C17A
SIMU C20 C19 C18 C17 C16 C24 C22 C23 C21 C17A
 
L.S. 10
PLAN  5
SIZE 0.012 0.119 0.457
TEMP -173.13
BOND $h
WGHT    0.125000    0.132300
FVAR       0.20415   0.60999   0.54294
PART
MORE -1
fmap 2
acta
CONF
REM <HKL>/Users/Anthea/Desktop/JACS%20paper/n0442/work/n0442_CS.hkl</HKL>
 
PART 1
C20   1    0.542610   -0.037467    0.795096    31.00000    0.02970    0.07055 =
         0.02545   -0.02823   -0.00271   -0.01441
AFIX  43
H20   2    0.568911   -0.076906    0.727574    31.00000   -1.20000
AFIX   0
N2    3    0.350816    0.301452    1.086898    31.00000    0.04393    0.04277 =
         0.05354   -0.02332   -0.00153   -0.00325
AFIX   7
H2A   2    0.355786    0.356118    1.012092    31.00000   -1.20000
H2B   2    0.226438    0.303706    1.125937    31.00000   -1.20000
AFIX   0
C16   1    0.423971    0.143304    1.094144    31.00000    0.02552    0.04382 =
         0.04011   -0.02795    0.00174   -0.00976
C17A  1    0.463639    0.080295    0.993005    31.00000    0.02766    0.01670 =
         0.03528   -0.00740   -0.00607    0.00194
C18   1    0.430429    0.188252    0.884559    31.00000    0.02933    0.03926 =
         0.04117   -0.00427   -0.00577   -0.00475
AFIX  43
H18   2    0.383003    0.298814    0.877120    31.00000   -1.20000
AFIX   0
C19   1    0.472416    0.121455    0.786059    31.00000    0.03204    0.05688 =
         0.02601   -0.00439   -0.00663   -0.01113
AFIX  43
H19   2    0.450726    0.190086    0.711480    31.00000   -1.20000
AFIX   0
PART 0
PART 2
N3    3    0.421786    0.296131    0.791870   -31.00000    0.04949    0.12136 =
         0.06809   -0.01105   -0.01858   -0.01674
AFIX   7
H3A   2    0.339503    0.304921    0.743555   -31.00000   -1.20000
H3B   2    0.362777    0.351303    0.843943   -31.00000   -1.20000
AFIX   0
C23   1    0.466147    0.136986    0.848763   -31.00000    0.03315    0.10650 =
         0.05925   -0.02505   -0.00938   -0.01617
C17   1    0.473417    0.087458    0.970707   -31.00000    0.02456    0.15933 =
         0.05468   -0.03434   -0.00178   -0.04111
C22   1    0.419008    0.209489    1.032638   -31.00000    0.03512    0.16316 =
         0.05884   -0.04719   -0.00076   -0.02692
AFIX  43
H22   2    0.383545    0.319992    0.995007   -31.00000   -1.20000
AFIX   0
C21   1    0.422806    0.151299    1.153428   -31.00000    0.02869    0.11747 =
         0.05979   -0.05221    0.00130   -0.01735
AFIX  43
H21   2    0.385553    0.223674    1.201372   -31.00000   -1.20000
AFIX   0
C24   1    0.520069    0.009831    0.796041   -31.00000    0.04054    0.11406 =
         0.10644   -0.06744    0.00730   -0.02295
AFIX  43
H24   2    0.516961    0.038209    0.714294   -31.00000   -1.20000
AFIX   0
 
PART 0
C1    1    0.103126    0.701318    1.068208    11.00000    0.03996    0.03917 =
         0.04785   -0.00805   -0.01726   -0.00767
AFIX  43
H1    2    0.142975    0.589684    1.075186    11.00000   -1.20000
AFIX   0
C2    1    0.079652    0.806052    0.960050    11.00000    0.03043    0.04422 =
         0.03848   -0.01276   -0.01094   -0.00993
C3    1    0.018198    0.971423    0.949641    11.00000    0.02445    0.04153 =
         0.03205   -0.00921   -0.01020   -0.01090
C4    1   -0.009427    1.080498    0.840195    11.00000    0.03090    0.04642 =
         0.03127   -0.00807   -0.01131   -0.01293
C5    1   -0.068514    1.241330    0.832099    11.00000    0.04189    0.04607 =
         0.03755   -0.00223   -0.01866   -0.01107
AFIX  43
H5    2   -0.086069    1.314405    0.758063    11.00000   -1.20000
AFIX   0
C6    1    0.119547    0.744513    0.854642    11.00000    0.03532    0.04905 =
         0.04480   -0.01633   -0.00534   -0.01611
C7    1    0.027111    1.020965    0.734758    11.00000    0.03658    0.05461 =
         0.03307   -0.00896   -0.01015   -0.02018
C8    1    0.112134    0.801435    0.642384    11.00000    0.06408    0.07028 =
         0.04298   -0.02649   -0.00855   -0.02756
AFIX  23
H8A   2   -0.002955    0.846831    0.603961    11.00000   -1.20000
H8B   2    0.113614    0.681723    0.666958    11.00000   -1.20000
AFIX   0
C9    1    0.300704    0.849874    0.554025    11.00000    0.06341    0.11085 =
         0.05292   -0.04761    0.00909   -0.03697
AFIX  23
H9A   2    0.303145    0.816702    0.482550    11.00000   -1.20000
H9B   2    0.298641    0.969603    0.530137    11.00000   -1.20000
AFIX   0
N1    3    0.086245    0.857818    0.748210    11.00000    0.04188    0.05556 =
         0.03431   -0.01708   -0.00646   -0.01885
O1    4    0.178335    0.604230    0.858268    11.00000    0.05868    0.05013 =
         0.05849   -0.02459   -0.00450   -0.01358
O2    4    0.007566    1.111427    0.637243    11.00000    0.05425    0.06803 =
         0.03234   -0.00665   -0.01312   -0.02518
O3    4    0.478387    0.781863    0.595892    11.00000    0.07066    0.10155 =
         0.09872   -0.07468    0.01957   -0.03109
PART 1
C11   1    0.528288    0.596035    0.623946    21.00000    0.10125    0.06752 =
         0.05275   -0.03457    0.01822   -0.04585
AFIX  23
H11A  2    0.513930    0.548460    0.710573    21.00000   -1.20000
H11B  2    0.433120    0.548635    0.597483    21.00000   -1.20000
AFIX   0
C13   1    0.736975    0.554086    0.563282    21.00000    0.06461    0.05164 =
         0.04528   -0.01891   -0.02093   -0.00497
AFIX  23
H13A  2    0.832364    0.596702    0.592901    21.00000   -1.20000
H13B  2    0.764692    0.434629    0.582846    21.00000   -1.20000
AFIX   0
O4    4    0.764678    0.619230    0.439891    21.00000    0.05706    0.05581 =
         0.04311   -0.02267   -0.00011   -0.01711
AFIX 147
H4    2    0.831645    0.699658    0.418290    21.00000   -1.50000
AFIX   0
SAME 0.02 0.04 C11 > O4
PART 0
PART 2
C12   1    0.530706    0.660576    0.558457   -21.00000    0.17536    0.05814 =
         0.05937   -0.01427   -0.08043    0.00893
AFIX  23
H12A  2    0.549573    0.691815    0.471128   -21.00000   -1.20000
H12B  2    0.429566    0.581131    0.593017   -21.00000   -1.20000
AFIX   0
C15   1    0.724353    0.589915    0.596636   -21.00000    0.05852    0.03815 =
         0.04823   -0.01063   -0.01031   -0.01000
AFIX  23
H15A  2    0.773626    0.490790    0.570794   -21.00000   -1.20000
H15B  2    0.825266    0.669207    0.559117   -21.00000   -1.20000
AFIX   0
O5    4    0.696042    0.551671    0.720203   -21.00000    0.07570    0.04659 =
         0.05760   -0.02004   -0.03847    0.00548
AFIX  83
H5A   2    0.804408    0.512493    0.741075   -21.00000   -1.50000
AFIX   0
HKLF 4
 
REM  n0442_CS in P-1
REM R1 =  0.0773 for    2073 Fo > 4sig(Fo)  and  0.1357 for all    3880 data
REM    285 parameters refined using    153 restraints
 
END  
     
WGHT      0.1276      0.1515 

REM Highest difference peak  0.600,  deepest hole -0.363,  1-sigma level  0.064
Q1    1   0.4093  0.6974  0.6030  11.00000  0.05    0.60
Q2    1   0.4297  0.2293  0.9456  11.00000  0.05    0.56
Q3    1   0.6223  0.7426  0.5433  11.00000  0.05    0.46
Q4    1   0.4871  0.0555  0.9381  11.00000  0.05    0.39
Q5    1   0.5247 -0.0164  0.8571  11.00000  0.05    0.39

REM The information below was added by Olex2.
REM
REM R1 = 0.0773 for 2073 Fo > 4sig(Fo) and 0.1357 for all 12520 data
REM n/a parameters refined using n/a restraints
REM Highest difference peak 0.60, deepest hole -0.36
REM Mean Shift 0.009, Max Shift 0.001.

REM +++ Tabular Listing of Refinement Information +++
REM R1_all = 0.1357
REM R1_gt = 0.0773
REM wR_ref = 0.2540
REM GOOF = 1.079
REM Shift_max = 0.001
REM Shift_mean = 0.009
REM Reflections_all = 12520
REM Reflections_gt = 2073
REM Parameters = n/a
REM Hole = -0.36
REM Peak = 0.60
REM Flack = n/a

;
_cod_data_source_file            ja509442t_si_008.cif
_cod_data_source_block           n0442_cs
_cod_database_code               4123062
#BEGIN Tags that were not found in dictionaries:
_shelxl_version_number           2013-4
_shelx_space_group_comment
;
The symmetry employed for this shelxl refinement is uniquely defined
by the following loop, which should always be used as a source of
symmetry information in preference to the above space-group names.
They are only intended as comments.
;
_shelx_estimated_absorpt_t_max   0.999
_shelx_estimated_absorpt_t_min   0.952
_olex2_refinement_description
;
1. Fixed Uiso
 At 1.2 times of:
  All C(H) groups, All C(H,H) groups, All N(H,H) groups
 At 1.5 times of:
  All O(H) groups
2. Restrained distances
 C21-C17 \\sim C17-C24 \\sim C22-C23
 with sigma of 0.02
 C21-C22 \\sim C22-C17 \\sim C17-C23 \\sim C23-C24
 with sigma of 0.02
 N3-C17 \\sim N3-C24
 with sigma of 0.02
3. Rigid bond restraints
 C20, C19, C18, C17, C16, C24, C22, C23, C21, C17A
 with sigma for 1-2 distances of 0.01 and sigma for 1-3 distances of 0.01
4. Uiso/Uaniso restraints and constraints
C20 \\sim C19 \\sim C18 \\sim C17 \\sim C16 \\sim C24 \\sim C22 \\sim C23 \\sim
C21 \\sim C17A: within 1.7A with sigma of 0.04 and sigma for terminal atoms of
0.08
5. Same fragment restrains
{C11, C13, O4}
as
{C12, C15, O5}
6. Others
 Sof(C12)=Sof(H12A)=Sof(H12B)=Sof(C15)=Sof(H15A)=Sof(H15B)=Sof(O5)=Sof(H5A)=1-
 FVAR(1)
 Sof(C11)=Sof(H11A)=Sof(H11B)=Sof(C13)=Sof(H13A)=Sof(H13B)=Sof(O4)=Sof(H4)=
 FVAR(1)
 Sof(N3)=Sof(H3A)=Sof(H3B)=Sof(C23)=Sof(C17)=Sof(C22)=Sof(H22)=Sof(C21)=
 Sof(H21)=Sof(C24)=Sof(H24)=1-FVAR(2)
 Sof(C20)=Sof(H20)=Sof(N2)=Sof(H2A)=Sof(H2B)=Sof(C16)=Sof(C17A)=Sof(C18)=
 Sof(H18)=Sof(C19)=Sof(H19)=FVAR(2)
7.a Rotating group:
 N2(H2A,H2B), N3(H3A,H3B)
7.b Secondary CH2 refined with riding coordinates:
 C8(H8A,H8B), C9(H9A,H9B), C11(H11A,H11B), C13(H13A,H13B), C12(H12A,H12B),
 C15(H15A,H15B)
7.c Aromatic/amide H refined with riding coordinates:
 C20(H20), C18(H18), C19(H19), C22(H22), C21(H21), C24(H24), C1(H1), C5(H5)
7.d Tetrahedral OH refined with riding coordinates:
 O5(H5A)
7.e Idealised tetrahedral OH refined as rotating group:
 O4(H4)
;
_olex2_submission_special_instructions 'No special instructions were received'
#END Tags that were not found in dictionaries
loop_
_space_group_symop_operation_xyz
'x, y, z'
'-x, -y, -z'
loop_
_atom_site_label
_atom_site_type_symbol
_atom_site_fract_x
_atom_site_fract_y
_atom_site_fract_z
_atom_site_U_iso_or_equiv
_atom_site_adp_type
_atom_site_occupancy
_atom_site_site_symmetry_order
_atom_site_calc_flag
_atom_site_refinement_flags_posn
_atom_site_refinement_flags_adp
_atom_site_refinement_flags_occupancy
_atom_site_disorder_assembly
_atom_site_disorder_group
C20 C 0.5426(15) -0.0375(13) 0.7951(6) 0.0379(15) Uani 0.543(6) 1 d . U P A 1
H20 H 0.5689 -0.0769 0.7276 0.045 Uiso 0.543(6) 1 calc R . P A 1
N2 N 0.3508(6) 0.3015(5) 1.0869(4) 0.0461(12) Uani 0.543(6) 1 d . . P A 1
H2A H 0.3558 0.3561 1.0121 0.055 Uiso 0.543(6) 1 d GR . P A 1
H2B H 0.2264 0.3037 1.1259 0.055 Uiso 0.543(6) 1 d GR . P A 1
C16 C 0.4240(7) 0.1433(6) 1.0941(6) 0.0335(11) Uani 0.543(6) 1 d . U P A 1
C17A C 0.4636(15) 0.0803(7) 0.9930(6) 0.0270(13) Uani 0.543(6) 1 d . U P A 1
C18 C 0.4304(8) 0.1883(7) 0.8846(5) 0.0383(12) Uani 0.543(6) 1 d . U P A 1
H18 H 0.3830 0.2988 0.8771 0.046 Uiso 0.543(6) 1 calc R . P A 1
C19 C 0.4724(7) 0.1215(7) 0.7861(4) 0.0391(12) Uani 0.543(6) 1 d . U P A 1
H19 H 0.4507 0.1901 0.7115 0.047 Uiso 0.543(6) 1 calc R . P A 1
N3 N 0.4218(9) 0.2961(10) 0.7919(6) 0.081(2) Uani 0.457(6) 1 d . . P A 2
H3A H 0.3395 0.3049 0.7436 0.097 Uiso 0.457(6) 1 d GR . P A 2
H3B H 0.3628 0.3513 0.8439 0.097 Uiso 0.457(6) 1 d GR . P A 2
C23 C 0.4661(12) 0.1370(13) 0.8488(8) 0.065(2) Uani 0.457(6) 1 d . U P A 2
C17 C 0.473(2) 0.0875(15) 0.9707(9) 0.076(4) Uani 0.457(6) 1 d . U P A 2
C22 C 0.4190(11) 0.2095(16) 1.0326(9) 0.082(3) Uani 0.457(6) 1 d . U P A 2
H22 H 0.3835 0.3200 0.9950 0.098 Uiso 0.457(6) 1 calc R . P A 2
C21 C 0.4228(10) 0.1513(14) 1.1534(9) 0.063(3) Uani 0.457(6) 1 d . U P A 2
H21 H 0.3856 0.2237 1.2014 0.076 Uiso 0.457(6) 1 calc R . P A 2
C24 C 0.520(2) 0.0098(19) 0.7960(14) 0.081(5) Uani 0.457(6) 1 d . U P A 2
H24 H 0.5170 0.0382 0.7143 0.097 Uiso 0.457(6) 1 calc R . P A 2
C1 C 0.1031(4) 0.7013(3) 1.0682(2) 0.0414(5) Uani 1 1 d . . . . .
H1 H 0.1430 0.5897 1.0752 0.050 Uiso 1 1 calc R . . . .
C2 C 0.0797(3) 0.8061(3) 0.96005(19) 0.0360(5) Uani 1 1 d . . . . .
C3 C 0.0182(3) 0.9714(3) 0.94964(17) 0.0312(5) Uani 1 1 d . . . . .
C4 C -0.0094(3) 1.0805(3) 0.84019(17) 0.0349(5) Uani 1 1 d . . . . .
C5 C -0.0685(4) 1.2413(3) 0.8321(2) 0.0414(5) Uani 1 1 d . . . . .
H5 H -0.0861 1.3144 0.7581 0.050 Uiso 1 1 calc R . . . .
C6 C 0.1195(3) 0.7445(3) 0.8546(2) 0.0414(6) Uani 1 1 d . . . . .
C7 C 0.0271(3) 1.0210(3) 0.73476(19) 0.0398(6) Uani 1 1 d . . . . .
C8 C 0.1121(4) 0.8014(4) 0.6424(2) 0.0546(7) Uani 1 1 d . . . . .
H8A H -0.0030 0.8468 0.6040 0.066 Uiso 1 1 calc R . . . .
H8B H 0.1136 0.6817 0.6670 0.066 Uiso 1 1 calc R . . . .
C9 C 0.3007(5) 0.8499(5) 0.5540(3) 0.0704(10) Uani 1 1 d . . . . .
H9A H 0.3031 0.8167 0.4825 0.085 Uiso 1 1 calc R . . . .
H9B H 0.2986 0.9696 0.5301 0.085 Uiso 1 1 calc R . . . .
N1 N 0.0862(3) 0.8578(3) 0.74821(16) 0.0415(5) Uani 1 1 d . . . . .
O1 O 0.1783(3) 0.6042(2) 0.85827(16) 0.0540(5) Uani 1 1 d . . . . .
O2 O 0.0076(3) 1.1114(2) 0.63724(14) 0.0503(5) Uani 1 1 d . . . . .
O3 O 0.4784(4) 0.7819(3) 0.5959(2) 0.0834(8) Uani 1 1 d . . . . .
C11 C 0.5283(10) 0.5960(7) 0.6239(5) 0.0714(19) Uani 0.610(5) 1 d . . P B 1
H11A H 0.5139 0.5485 0.7106 0.086 Uiso 0.610(5) 1 calc R . P B 1
H11B H 0.4331 0.5486 0.5975 0.086 Uiso 0.610(5) 1 calc R . P B 1
C13 C 0.7370(10) 0.5541(9) 0.5633(6) 0.0509(15) Uani 0.610(5) 1 d . . P B 1
H13A H 0.8324 0.5967 0.5929 0.061 Uiso 0.610(5) 1 calc R . P B 1
H13B H 0.7647 0.4346 0.5828 0.061 Uiso 0.610(5) 1 calc R . P B 1
O4 O 0.7647(5) 0.6192(4) 0.4399(2) 0.0504(9) Uani 0.610(5) 1 d . . P B 1
H4 H 0.8316 0.6997 0.4183 0.076 Uiso 0.610(5) 1 calc GR . P B 1
C12 C 0.531(2) 0.6606(12) 0.5585(10) 0.090(4) Uani 0.390(5) 1 d . . P B 2
H12A H 0.5496 0.6918 0.4711 0.108 Uiso 0.390(5) 1 calc R . P B 2
H12B H 0.4296 0.5811 0.5930 0.108 Uiso 0.390(5) 1 calc R . P B 2
C15 C 0.7244(14) 0.5899(12) 0.5966(8) 0.048(2) Uani 0.390(5) 1 d . . P B 2
H15A H 0.7736 0.4908 0.5708 0.058 Uiso 0.390(5) 1 calc R . P B 2
H15B H 0.8253 0.6692 0.5591 0.058 Uiso 0.390(5) 1 calc R . P B 2
O5 O 0.6960(8) 0.5517(5) 0.7202(4) 0.0555(16) Uani 0.390(5) 1 d . . P B 2
H5A H 0.8044 0.5125 0.7411 0.083 Uiso 0.390(5) 1 calc R . P B 2
loop_
_atom_site_aniso_label
_atom_site_aniso_U_11
_atom_site_aniso_U_22
_atom_site_aniso_U_33
_atom_site_aniso_U_23
_atom_site_aniso_U_13
_atom_site_aniso_U_12
C20 0.030(3) 0.071(4) 0.025(2) -0.028(3) -0.003(2) -0.014(3)
N2 0.044(2) 0.043(2) 0.054(2) -0.0233(19) -0.0015(18) -0.0033(18)
C16 0.026(2) 0.044(3) 0.040(3) -0.028(2) 0.002(2) -0.0098(19)
C17A 0.028(3) 0.017(2) 0.035(2) -0.0074(16) -0.006(2) 0.0019(18)
C18 0.029(3) 0.039(3) 0.041(3) -0.004(2) -0.006(2) -0.005(2)
C19 0.032(2) 0.057(3) 0.026(2) -0.004(2) -0.0066(18) -0.011(2)
N3 0.049(4) 0.121(6) 0.068(4) -0.011(4) -0.019(3) -0.017(3)
C23 0.033(4) 0.106(7) 0.059(5) -0.025(5) -0.009(4) -0.016(4)
C17 0.025(4) 0.159(11) 0.055(5) -0.034(5) -0.002(4) -0.041(5)
C22 0.035(3) 0.163(9) 0.059(5) -0.047(5) -0.001(4) -0.027(5)
C21 0.029(3) 0.117(8) 0.060(5) -0.052(6) 0.001(3) -0.017(4)
C24 0.041(6) 0.114(11) 0.106(8) -0.067(8) 0.007(5) -0.023(7)
C1 0.0400(13) 0.0392(12) 0.0478(13) -0.0081(10) -0.0173(10) -0.0077(10)
C2 0.0304(11) 0.0442(13) 0.0385(11) -0.0128(9) -0.0109(8) -0.0099(9)
C3 0.0244(10) 0.0415(12) 0.0320(10) -0.0092(9) -0.0102(7) -0.0109(8)
C4 0.0309(11) 0.0464(13) 0.0313(10) -0.0081(9) -0.0113(8) -0.0129(9)
C5 0.0419(13) 0.0461(13) 0.0375(11) -0.0022(9) -0.0187(9) -0.0111(10)
C6 0.0353(12) 0.0490(14) 0.0448(12) -0.0163(10) -0.0053(9) -0.0161(10)
C7 0.0366(12) 0.0546(15) 0.0331(11) -0.0090(10) -0.0101(9) -0.0202(10)
C8 0.0641(17) 0.0703(18) 0.0430(13) -0.0265(12) -0.0086(12) -0.0276(14)
C9 0.063(2) 0.111(3) 0.0529(16) -0.0476(17) 0.0091(14) -0.0370(18)
N1 0.0419(11) 0.0556(12) 0.0343(9) -0.0171(8) -0.0065(8) -0.0189(9)
O1 0.0587(12) 0.0501(11) 0.0585(11) -0.0246(9) -0.0045(9) -0.0136(9)
O2 0.0542(11) 0.0680(12) 0.0323(8) -0.0066(8) -0.0131(7) -0.0252(9)
O3 0.0707(16) 0.1015(18) 0.0987(17) -0.0747(15) 0.0196(13) -0.0311(13)
C11 0.101(5) 0.068(4) 0.053(3) -0.035(3) 0.018(3) -0.046(3)
C13 0.065(3) 0.052(4) 0.045(3) -0.019(2) -0.021(2) -0.005(3)
O4 0.057(2) 0.0558(19) 0.0431(16) -0.0227(13) -0.0001(12) -0.0171(14)
C12 0.175(12) 0.058(5) 0.059(5) -0.014(4) -0.080(7) 0.009(6)
C15 0.059(5) 0.038(5) 0.048(5) -0.011(3) -0.010(4) -0.010(4)
O5 0.076(4) 0.047(3) 0.058(3) -0.020(2) -0.038(3) 0.005(2)
loop_
_atom_type_symbol
_atom_type_description
_atom_type_scat_dispersion_real
_atom_type_scat_dispersion_imag
_atom_type_scat_source
C C 0.0033 0.0016 'International Tables Vol C Tables 4.2.6.8 and 6.1.1.4'
H H 0.0000 0.0000 'International Tables Vol C Tables 4.2.6.8 and 6.1.1.4'
N N 0.0061 0.0033 'International Tables Vol C Tables 4.2.6.8 and 6.1.1.4'
O O 0.0106 0.0060 'International Tables Vol C Tables 4.2.6.8 and 6.1.1.4'
loop_
_geom_angle_atom_site_label_1
_geom_angle_atom_site_label_2
_geom_angle_atom_site_label_3
_geom_angle
_geom_angle_site_symmetry_1
_geom_angle_site_symmetry_3
C16 C20 H20 120.0 2_657 .
C19 C20 H20 120.0 . .
C19 C20 C16 119.9(5) . 2_657
H2A N2 H2B 109.4 . .
C16 N2 H2A 109.3 . .
C16 N2 H2B 109.1 . .
C20 C16 C17A 119.0(5) 2_657 .
N2 C16 C20 119.2(6) . 2_657
N2 C16 C17A 121.7(6) . .
C17A C17A C16 118.5(8) 2_657 .
C17A C17A C18 123.8(7) 2_657 .
C18 C17A C16 117.7(5) . .
C17A C18 H18 122.0 . .
C17A C18 C19 116.1(5) . .
C19 C18 H18 122.0 . .
C20 C19 C18 122.7(5) . .
C20 C19 H19 118.7 . .
C18 C19 H19 118.7 . .
H3A N3 H3B 108.1 . .
C23 N3 H3A 110.7 . .
C23 N3 H3B 110.7 . .
N3 C23 C17 121.0(9) . .
N3 C23 C24 125.9(9) . .
C24 C23 C17 113.0(11) . .
C23 C17 C17 119.4(10) . 2_657
C23 C17 C22 117.1(11) . .
C22 C17 C17 123.5(11) . 2_657
C17 C22 H22 123.0 . .
C21 C22 C17 114.1(11) . .
C21 C22 H22 123.0 . .
C22 C21 H21 119.5 . .
C24 C21 C22 121.0(9) 2_657 .
C24 C21 H21 119.5 2_657 .
C23 C24 H24 115.5 . .
C21 C24 C23 128.9(12) 2_657 .
C21 C24 H24 115.5 2_657 .
C2 C1 H1 119.8 . .
C2 C1 C5 120.3(2) . 2_577
C5 C1 H1 119.8 2_577 .
C1 C2 C3 120.01(19) . .
C1 C2 C6 119.9(2) . .
C3 C2 C6 120.1(2) . .
C2 C3 C3 119.6(2) . 2_577
C2 C3 C4 121.03(18) . .
C3 C3 C4 119.4(2) 2_577 .
C3 C4 C7 119.6(2) . .
C5 C4 C3 119.98(19) . .
C5 C4 C7 120.4(2) . .
C1 C5 H5 119.6 2_577 .
C4 C5 C1 120.7(2) . 2_577
C4 C5 H5 119.6 . .
N1 C6 C2 116.5(2) . .
O1 C6 C2 122.6(2) . .
O1 C6 N1 120.9(2) . .
N1 C7 C4 117.90(19) . .
O2 C7 C4 122.1(2) . .
O2 C7 N1 120.0(2) . .
H8A C8 H8B 107.8 . .
C9 C8 H8A 109.0 . .
C9 C8 H8B 109.0 . .
N1 C8 H8A 109.0 . .
N1 C8 H8B 109.0 . .
N1 C8 C9 112.8(2) . .
C8 C9 H9A 108.6 . .
C8 C9 H9B 108.6 . .
H9A C9 H9B 107.6 . .
O3 C9 C8 114.5(3) . .
O3 C9 H9A 108.6 . .
O3 C9 H9B 108.6 . .
C6 N1 C8 118.8(2) . .
C7 N1 C6 124.84(18) . .
C7 N1 C8 116.3(2) . .
C9 O3 C11 118.2(3) . .
C12 O3 C9 104.1(5) . .
O3 C11 H11A 109.4 . .
O3 C11 H11B 109.4 . .
H11A C11 H11B 108.0 . .
C13 C11 O3 111.1(4) . .
C13 C11 H11A 109.4 . .
C13 C11 H11B 109.4 . .
C11 C13 H13A 109.3 . .
C11 C13 H13B 109.3 . .
H13A C13 H13B 108.0 . .
O4 C13 C11 111.5(5) . .
O4 C13 H13A 109.3 . .
O4 C13 H13B 109.3 . .
C13 O4 H4 109.5 . .
O3 C12 H12A 110.7 . .
O3 C12 H12B 110.6 . .
O3 C12 C15 105.4(7) . .
H12A C12 H12B 108.8 . .
C15 C12 H12A 110.7 . .
C15 C12 H12B 110.6 . .
C12 C15 H15A 109.7 . .
C12 C15 H15B 109.7 . .
H15A C15 H15B 108.2 . .
O5 C15 C12 109.8(8) . .
O5 C15 H15A 109.7 . .
O5 C15 H15B 109.7 . .
C15 O5 H5A 109.5 . .
loop_
_geom_bond_atom_site_label_1
_geom_bond_atom_site_label_2
_geom_bond_distance
_geom_bond_site_symmetry_2
C20 H20 0.9500 .
C20 C16 1.424(10) 2_657
C20 C19 1.371(11) .
N2 H2A 0.8804 .
N2 H2B 0.8804 .
N2 C16 1.373(7) .
C16 C20 1.424(10) 2_657
C16 C17A 1.443(8) .
C17A C17A 1.381(10) 2_657
C17A C18 1.408(8) .
C18 H18 0.9500 .
C18 C19 1.434(8) .
C19 H19 0.9500 .
N3 H3A 0.8925 .
N3 H3B 0.8926 .
N3 C23 1.367(12) .
C23 C17 1.419(11) .
C23 C24 1.400(12) .
C17 C17 1.50(3) 2_657
C17 C22 1.435(12) .
C22 H22 0.9500 .
C22 C21 1.401(10) .
C21 H21 0.9500 .
C21 C24 1.382(18) 2_657
C24 C21 1.382(18) 2_657
C24 H24 0.9500 .
C1 H1 0.9500 .
C1 C2 1.378(3) .
C1 C5 1.401(3) 2_577
C2 C3 1.410(3) .
C2 C6 1.483(3) .
C3 C3 1.410(4) 2_577
C3 C4 1.411(3) .
C4 C5 1.374(3) .
C4 C7 1.475(3) .
C5 C1 1.400(3) 2_577
C5 H5 0.9500 .
C6 N1 1.407(3) .
C6 O1 1.215(3) .
C7 N1 1.384(3) .
C7 O2 1.228(3) .
C8 H8A 0.9900 .
C8 H8B 0.9900 .
C8 C9 1.504(4) .
C8 N1 1.472(3) .
C9 H9A 0.9900 .
C9 H9B 0.9900 .
C9 O3 1.421(5) .
O3 C11 1.546(7) .
O3 C12 1.243(9) .
C11 H11A 0.9900 .
C11 H11B 0.9900 .
C11 C13 1.504(8) .
C13 H13A 0.9900 .
C13 H13B 0.9900 .
C13 O4 1.404(7) .
O4 H4 0.8400 .
C12 H12A 0.9900 .
C12 H12B 0.9900 .
C12 C15 1.506(12) .
C15 H15A 0.9900 .
C15 H15B 0.9900 .
C15 O5 1.403(10) .
O5 H5A 0.8400 .
loop_
_geom_torsion_atom_site_label_1
_geom_torsion_atom_site_label_2
_geom_torsion_atom_site_label_3
_geom_torsion_atom_site_label_4
_geom_torsion
_geom_torsion_site_symmetry_1
_geom_torsion_site_symmetry_4
C20 C16 C17A C17A -1.2(15) 2_657 2_657
C20 C16 C17A C18 -179.6(8) 2_657 .
N2 C16 C17A C17A -179.7(10) . 2_657
N2 C16 C17A C18 1.9(11) . .
C16 C20 C19 C18 0.2(12) 2_657 .
C16 C17A C18 C19 179.7(6) . .
C17A C17A C18 C19 1.4(16) 2_657 .
C17A C18 C19 C20 -0.6(10) . .
N3 C23 C17 C17 -178.8(14) . 2_657
N3 C23 C17 C22 4.2(16) . .
N3 C23 C24 C21 176.1(12) . 2_657
C23 C17 C22 C21 177.9(9) . .
C17 C23 C24 C21 0(2) . 2_657
C17 C17 C22 C21 1(2) 2_657 .
C17 C22 C21 C24 1.6(14) . 2_657
C24 C23 C17 C17 -2(2) . 2_657
C24 C23 C17 C22 -179.5(11) . .
C1 C2 C3 C3 0.2(3) . 2_577
C1 C2 C3 C4 -179.1(2) . .
C1 C2 C6 N1 178.08(19) . .
C1 C2 C6 O1 -2.1(3) . .
C2 C3 C4 C5 -179.70(19) . .
C2 C3 C4 C7 -0.2(3) . .
C2 C6 N1 C7 2.5(3) . .
C2 C6 N1 C8 -176.47(19) . .
C3 C2 C6 N1 -2.0(3) . .
C3 C2 C6 O1 177.8(2) . .
C3 C3 C4 C5 0.9(3) 2_577 .
C3 C3 C4 C7 -179.6(2) 2_577 .
C3 C4 C5 C1 -0.4(3) . 2_577
C3 C4 C7 N1 0.5(3) . .
C3 C4 C7 O2 -179.08(19) . .
C4 C7 N1 C6 -1.8(3) . .
C4 C7 N1 C8 177.22(19) . .
C5 C1 C2 C3 -0.8(3) 2_577 .
C5 C1 C2 C6 179.1(2) 2_577 .
C5 C4 C7 N1 -180.0(2) . .
C5 C4 C7 O2 0.4(3) . .
C6 C2 C3 C3 -179.7(2) . 2_577
C6 C2 C3 C4 1.0(3) . .
C7 C4 C5 C1 -179.9(2) . 2_577
C8 C9 O3 C11 65.8(3) . .
C8 C9 O3 C12 96.5(7) . .
C9 C8 N1 C6 -105.2(3) . .
C9 C8 N1 C7 75.8(3) . .
C9 O3 C11 C13 128.7(4) . .
C9 O3 C12 C15 177.4(7) . .
N1 C8 C9 O3 63.2(4) . .
O1 C6 N1 C7 -177.3(2) . .
O1 C6 N1 C8 3.7(3) . .
O2 C7 N1 C6 177.8(2) . .
O2 C7 N1 C8 -3.2(3) . .
O3 C11 C13 O4 -59.0(6) . .
O3 C12 C15 O5 58.3(11) . .
C11 O3 C12 C15 -61.2(8) . .
C12 O3 C11 C13 58.6(12) . .
loop_
_refln_index_h
_refln_index_k
_refln_index_l
_refln_F_squared_meas
_refln_F_squared_sigma
-1 0 0 7.95 0.3
-2 0 0 250.74 8.67
-3 0 0 1.88 0.13
-4 0 0 8.99 0.38
-4 0 0 8.46 0.37
-5 0 0 1.34 0.13
-5 0 0 1.2 0.13
-6 0 0 0.04 0.09
-7 0 0 0.68 0.15
-8 0 0 0.03 0.12
-9 0 0 0.79 0.2
-9 1 0 0.97 0.22
-8 1 0 0.56 0.15
-7 1 0 2.21 0.21
-7 1 0 2.54 0.23
-6 1 0 1.15 0.15
-6 1 0 1.31 0.17
-6 1 0 1.11 0.09
-5 1 0 2.56 0.17
-5 1 0 2.32 0.12
-5 1 0 2.15 0.17
4 -1 0 1.31 0.08
-4 1 0 1.24 0.08
-4 1 0 1.42 0.08
-4 1 0 1.56 0.12
-4 1 0 1.45 0.12
3 -1 0 0.25 0.04
-3 1 0 0.34 0.04
-3 1 0 0.23 0.06
2 -1 0 0.18 0.03
-2 1 0 0.3 0.05
1 -1 0 0.1 0.03
-1 1 0 0.13 0.02
-1 1 0 0.09 0.03
0 -1 0 99.31 3.43
-1 -1 0 60.28 2.06
1 1 0 58.67 2.06
2 1 0 1000 34.44
-4 -1 0 77.11 2.67
-5 -1 0 0.54 0.1
-6 -1 0 0.52 0.11
-7 -1 0 -0.06 0.09
-8 -1 0 0.23 0.14
8 1 0 0.24 0.13
-9 -1 0 -0.02 0.16
9 1 0 -0.1 0.11
-9 2 0 0.04 0.16
-9 2 0 -0.08 0.08
-8 2 0 0.22 0.14
-8 2 0 0.12 0.08
-7 2 0 2.44 0.24
-7 2 0 1.97 0.15
-6 2 0 2.26 0.14
-6 2 0 2.6 0.21
-6 2 0 2.22 0.19
-5 2 0 4.24 0.19
-5 2 0 4.24 0.23
-5 2 0 3.93 0.25
4 -2 0 0.39 0.06
-4 2 0 0.45 0.08
-4 2 0 0.49 0.09
-4 2 0 0.51 0.07
3 -2 0 18.11 0.66
-3 2 0 18.22 0.63
-3 2 0 18.08 0.68
2 -2 0 1.66 0.1
-2 2 0 1.61 0.1
-2 2 0 1.51 0.09
-2 2 0 1.55 0.09
1 -2 0 9.08 0.34
-1 2 0 8.95 0.35
-1 2 0 8.89 0.34
0 -2 0 25.19 0.89
0 2 0 24.76 0.89
-1 -2 0 17.11 0.63
1 2 0 17.76 0.63
-2 -2 0 0.16 0.03
2 2 0 0.14 0.03
-3 -2 0 0.86 0.06
3 2 0 0.99 0.07
-4 -2 0 101.34 3.73
-4 -2 0 114.56 3.88
-4 -2 0 116.58 3.73
4 2 0 118.7 3.92
4 2 0 114.4 3.88
-5 -2 0 6.49 0.24
-5 -2 0 6.14 0.31
5 2 0 6.48 0.26
5 2 0 6.73 0.31
-6 -2 0 11.33 0.47
-6 -2 0 9.7 0.38
6 2 0 10.6 0.46
-7 -2 0 0.1 0.1
7 2 0 -0.02 0.09
-8 -2 0 0.28 0.14
8 2 0 0.49 0.14
-9 -2 0 0.23 0.15
-8 3 0 -0.23 0.12
-8 3 0 -0.02 0.08
-7 3 0 -0.12 0.07
-7 3 0 0.07 0.11
-6 3 0 0.1 0.07
-6 3 0 0.1 0.1
-5 3 0 8.16 0.34
-5 3 0 7.79 0.37
-5 3 0 8.83 0.41
-4 3 0 1.12 0.14
-4 3 0 1.16 0.1
-4 3 0 1.22 0.11
3 -3 0 4.55 0.22
-3 3 0 4.88 0.25
-3 3 0 5.03 0.21
-3 3 0 4.56 0.21
-3 3 0 5.25 0.23
-2 3 0 0.08 0.04
-2 3 0 0.14 0.05
1 -3 0 13.67 0.52
-1 3 0 13.64 0.52
-1 3 0 13.55 0.52
-1 3 0 13.69 0.49
0 -3 0 3.66 0.17
0 3 0 3.17 0.17
0 3 0 3.78 0.18
1 3 0 3.56 0.17
-2 -3 0 6.47 0.26
2 3 0 6.46 0.27
-3 -3 0 5.04 0.21
-3 -3 0 4.84 0.23
3 3 0 5.02 0.22
-4 -3 0 0.16 0.05
4 3 0 0.32 0.06
4 3 0 0.01 0.06
-5 -3 0 0.28 0.06
5 3 0 0.33 0.05
5 3 0 0.18 0.08
-6 -3 0 12.43 0.47
6 3 0 12.97 0.5
6 3 0 13.62 0.56
-7 -3 0 0.05 0.06
7 3 0 0.11 0.1
-8 -3 0 3.84 0.2
8 3 0 4.42 0.3
-8 4 0 0.09 0.1
-8 4 0 0.11 0.15
-7 4 0 -0.02 0.12
-7 4 0 0.04 0.09
-6 4 0 -0.06 0.08
-6 4 0 -0.11 0.1
-5 4 0 0.57 0.1
-5 4 0 0.52 0.13
-4 4 0 0.9 0.15
-4 4 0 1.06 0.11
-4 4 0 1.08 0.11
-3 4 0 3.82 0.2
-3 4 0 3.69 0.19
-3 4 0 3.66 0.22
2 -4 0 3.69 0.19
-2 4 0 3.73 0.21
-2 4 0 3.41 0.19
-2 4 0 3.79 0.2
-2 4 0 3.67 0.18
1 -4 0 3.42 0.19
-1 4 0 3.5 0.19
-1 4 0 3.57 0.18
-1 4 0 3.8 0.19
-1 4 0 2.97 0.19
0 -4 0 5.62 0.23
0 4 0 5.64 0.26
0 4 0 5.49 0.26
-1 -4 0 0.14 0.05
1 4 0 0.22 0.06
-2 -4 0 0.15 0.05
2 4 0 0.28 0.06
-3 -4 0 1.78 0.13
-3 -4 0 1.71 0.13
3 4 0 1.74 0.14
3 4 0 1.67 0.12
-4 -4 0 2.11 0.14
-4 -4 0 1.8 0.16
4 4 0 2.07 0.13
4 4 0 1.99 0.16
-5 -4 0 0.85 0.1
5 4 0 0.84 0.09
5 4 0 0.9 0.15
-6 -4 0 -0.01 0.06
6 4 0 -0.09 0.09
6 4 0 0.06 0.05
-7 -4 0 0.86 0.11
7 4 0 0.87 0.16
-8 -4 0 1.96 0.15
8 4 0 2.12 0.25
-9 -4 0 0.05 0.08
-8 5 0 0.23 0.16
-8 5 0 0.34 0.13
-7 5 0 -0.05 0.13
-7 5 0 -0.19 0.09
-6 5 0 0.44 0.14
-6 5 0 0.46 0.11
-5 5 0 -0.19 0.07
-5 5 0 0.05 0.1
-4 5 0 0.87 0.14
-4 5 0 0.99 0.13
3 -5 0 4.53 0.22
-3 5 0 4.74 0.25
-3 5 0 4.86 0.28
-3 5 0 4.68 0.24
2 -5 0 1.36 0.12
-2 5 0 1.24 0.15
-2 5 0 1.56 0.13
-2 5 0 1.47 0.13
1 -5 0 0.31 0.06
1 -5 0 0.32 0.06
-1 5 0 0.22 0.07
-1 5 0 0.25 0.05
-1 5 0 0.21 0.06
-1 5 0 0.32 0.08
-1 5 0 0.24 0.06
0 -5 0 4.14 0.22
0 -5 0 3.8 0.19
0 5 0 3.6 0.22
0 5 0 4.19 0.22
0 5 0 4.42 0.18
0 5 0 4.15 0.21
0 5 0 3.86 0.21
0 5 0 4.14 0.22
-1 -5 0 0.03 0.05
1 5 0 0.08 0.05
1 5 0 0.19 0.07
1 5 0 0.03 0.06
-2 -5 0 0.62 0.1
-2 -5 0 0.63 0.1
2 5 0 0.6 0.09
2 5 0 0.71 0.11
-3 -5 0 0.64 0.11
-3 -5 0 0.53 0.08
3 5 0 0.83 0.13
3 5 0 0.55 0.09
-4 -5 0 0.44 0.1
-4 -5 0 0.37 0.08
4 5 0 0.58 0.09
4 5 0 0.63 0.11
-5 -5 0 0.04 0.07
5 5 0 0.01 0.05
5 5 0 0.08 0.09
-6 -5 0 -0.04 0.07
6 5 0 0.09 0.1
-7 -5 0 0.23 0.09
7 5 0 0.28 0.13
-8 -5 0 0.12 0.09
-7 6 0 0.16 0.16
-7 6 0 -0.02 0.11
-6 6 0 0.4 0.16
-6 6 0 0.44 0.14
-5 6 0 -0.01 0.08
-5 6 0 -0.06 0.1
-4 6 0 0.3 0.11
-4 6 0 0.59 0.12
3 -6 0 0.02 0.07
-3 6 0 0.18 0.1
-3 6 0 0.08 0.07
2 -6 0 0.36 0.08
-2 6 0 0.26 0.08
-2 6 0 0.51 0.1
-2 6 0 0.51 0.11
1 -6 0 1.38 0.14
-1 6 0 1.57 0.14
-1 6 0 1.32 0.14
-1 6 0 1.44 0.17
-1 6 0 1.53 0.11
-1 6 0 1.65 0.15
0 -6 0 1.18 0.13
0 6 0 0.94 0.15
0 6 0 1.17 0.14
0 6 0 1.38 0.11
0 6 0 1.22 0.12
0 6 0 1.11 0.15
-1 -6 0 0.05 0.06
-1 -6 0 0 0.06
1 6 0 0.08 0.08
1 6 0 -0.06 0.05
1 6 0 0 0.05
1 6 0 0 0.06
1 6 0 -0.01 0.04
-2 -6 0 -0.01 0.06
-2 -6 0 0.14 0.06
2 6 0 0.07 0.05
2 6 0 0 0.05
2 6 0 0.05 0.07
-3 -6 0 1.33 0.14
-3 -6 0 1.48 0.14
3 6 0 1.23 0.16
3 6 0 1.53 0.13
-4 -6 0 1.34 0.14
-4 -6 0 1.12 0.15
4 6 0 1.26 0.18
4 6 0 1.31 0.13
-5 -6 0 -0.01 0.07
5 6 0 0.04 0.09
-6 -6 0 0.33 0.1
6 6 0 0.58 0.15
-7 -6 0 0.07 0.1
7 6 0 0.3 0.15
-8 -6 0 0.23 0.1
-7 7 0 -0.02 0.11
-7 7 0 -0.05 0.16
-6 7 0 0.16 0.16
-6 7 0 -0.18 0.12
-5 7 0 0.15 0.13
-5 7 0 0 0.11
4 -7 0 0.48 0.1
-4 7 0 0.18 0.12
-4 7 0 0.38 0.14
3 -7 0 0.24 0.1
-3 7 0 0.3 0.11
-3 7 0 0.27 0.12
2 -7 0 0.31 0.1
-2 7 0 0.34 0.1
-2 7 0 0.42 0.12
1 -7 0 0.5 0.1
-1 7 0 0.53 0.12
-1 7 0 0.48 0.08
-1 7 0 0.46 0.12
0 7 0 0.96 0.15
0 7 0 1.33 0.17
0 7 0 0.83 0.1
0 7 0 0.76 0.11
-1 -7 0 0 0.06
1 7 0 0.1 0.09
1 7 0 0.13 0.08
1 7 0 -0.01 0.08
1 7 0 0.02 0.07
1 7 0 0.01 0.05
-2 -7 0 0.36 0.09
-2 -7 0 0.46 0.09
2 7 0 0.45 0.09
2 7 0 0.51 0.12
2 7 0 0.43 0.08
-3 -7 0 0.29 0.09
-3 -7 0 0.21 0.08
3 7 0 0.22 0.08
3 7 0 0.37 0.12
3 7 0 0.22 0.08
-4 -7 0 0.01 0.08
-4 -7 0 -0.08 0.08
4 7 0 0.07 0.09
4 7 0 0.1 0.07
-5 -7 0 0.01 0.08
5 7 0 0.04 0.11
-6 -7 0 0.18 0.1
6 7 0 0.29 0.13
-7 -7 0 -0.03 0.09
7 7 0 -0.15 0.12
-8 -7 0 0.23 0.12
-6 8 0 0.26 0.14
-6 8 0 0.01 0.15
5 -8 0 0.09 0.1
-5 8 0 0 0.13
-5 8 0 0.01 0.13
4 -8 0 0.16 0.1
-4 8 0 0.02 0.13
-4 8 0 0.07 0.12
3 -8 0 0.13 0.1
-3 8 0 0.1 0.1
-3 8 0 -0.1 0.1
2 -8 0 0.08 0.1
-2 8 0 0.31 0.13
1 -8 0 0.05 0.09
-1 8 0 0.16 0.06
-1 8 0 0.06 0.11
0 8 0 0.05 0.06
0 8 0 0.03 0.07
0 8 0 0 0.09
0 8 0 -0.01 0.1
1 8 0 0.6 0.1
1 8 0 0.97 0.17
1 8 0 1.16 0.19
1 8 0 1.37 0.2
-2 -8 0 0.44 0.1
2 8 0 0.62 0.14
2 8 0 0.6 0.14
2 8 0 0.7 0.11
-3 -8 0 0.06 0.09
-3 -8 0 0.24 0.1
3 8 0 0.21 0.09
3 8 0 0.1 0.08
3 8 0 0.45 0.14
-4 -8 0 0.28 0.11
-4 -8 0 0.42 0.12
4 8 0 0.26 0.09
4 8 0 0.14 0.13
-5 -8 0 0.04 0.1
5 8 0 -0.01 0.12
-6 -8 0 -0.01 0.1
6 8 0 0.04 0.13
-7 -8 0 -0.09 0.1
5 -9 0 0.15 0.13
-5 9 0 -0.15 0.12
-5 9 0 -0.11 0.15
4 -9 0 -0.19 0.1
-4 9 0 0.03 0.15
3 -9 0 0 0.11
-3 9 0 0.08 0.14
2 -9 0 0.31 0.12
-2 9 0 0.4 0.16
-1 9 0 -0.07 0.12
0 9 0 0.03 0.07
0 9 0 0.02 0.12
0 9 0 0.05 0.09
1 9 0 -0.01 0.09
1 9 0 -0.12 0.11
1 9 0 0.03 0.07
1 9 0 -0.03 0.11
2 9 0 0.06 0.13
2 9 0 -0.16 0.11
2 9 0 -0.04 0.09
-3 -9 0 0.15 0.1
3 9 0 0.2 0.1
3 9 0 0.27 0.13
3 9 0 0.08 0.12
-4 -9 0 0.38 0.13
-4 -9 0 0.4 0.13
4 9 0 0.46 0.16
4 9 0 0.42 0.1
-5 -9 0 -0.11 0.11
5 9 0 0.09 0.09
5 9 0 0.27 0.15
-6 -9 0 -0.12 0.1
6 9 0 0.07 0.15
4 -10 0 0.08 0.13
-4 10 0 0.04 0.15
3 -10 0 -0.12 0.12
-3 10 0 0 0.15
-2 10 0 -0.09 0.14
-1 10 0 -0.09 0.14
0 10 0 0.09 0.13
0 10 0 0.18 0.09
1 10 0 -0.16 0.12
1 10 0 -0.02 0.08
1 10 0 -0.08 0.11
2 10 0 0.04 0.1
2 10 0 -0.12 0.13
2 10 0 0.06 0.14
3 10 0 -0.03 0.13
3 10 0 0.12 0.15
3 10 0 -0.04 0.1
-4 -10 0 -0.1 0.12
4 10 0 -0.14 0.08
4 10 0 0.08 0.15
-5 -10 0 0.06 0.11
5 10 0 0.25 0.16
5 10 0 0.06 0.1
-2 11 0 -0.01 0.16
-1 11 0 0.02 0.16
0 11 0 -0.14 0.14
1 11 0 -0.04 0.15
1 11 0 -0.15 0.1
1 11 0 -0.22 0.08
2 11 0 -0.12 0.14
2 11 0 0.01 0.11
3 11 0 0.27 0.14
3 11 0 -0.13 0.13
3 11 -1 -0.02 0.14
3 11 -1 0.05 0.13
2 11 -1 0.15 0.12
2 11 -1 0.33 0.16
1 11 -1 -0.1 0.15
0 11 -1 0.04 0.17
-1 11 -1 0.05 0.17
5 10 -1 0.19 0.11
5 10 -1 -0.04 0.15
-5 -10 1 -0.18 0.11
4 10 -1 0.09 0.1
4 10 -1 0.04 0.17
3 10 -1 -0.15 0.13
3 10 -1 0.1 0.11
3 10 -1 0.02 0.14
2 10 -1 -0.09 0.11
2 10 -1 0.15 0.15
1 10 -1 0.39 0.14
1 10 -1 0.17 0.12
1 10 -1 0.13 0.09
0 10 -1 0.05 0.14
-1 10 -1 -0.04 0.15
-2 10 -1 0.01 0.15
-3 10 -1 0.27 0.17
3 -10 1 0.2 0.13
6 9 -1 0.1 0.15
-6 -9 1 0.01 0.1
5 9 -1 0.05 0.09
5 9 -1 -0.04 0.15
-5 -9 1 -0.03 0.12
4 9 -1 0 0.08
4 9 -1 0.16 0.15
-4 -9 1 0.02 0.11
3 9 -1 -0.02 0.08
3 9 -1 0 0.13
2 9 -1 0.08 0.13
2 9 -1 0.09 0.1
2 9 -1 0.02 0.12
1 9 -1 0 0.12
1 9 -1 0.16 0.13
1 9 -1 0.04 0.08
1 9 -1 0.15 0.1
0 9 -1 0.14 0.1
0 9 -1 0.07 0.13
0 9 -1 0.13 0.08
-1 9 -1 0.04 0.13
-2 9 -1 0.05 0.13
2 -9 1 -0.01 0.11
-3 9 -1 0.07 0.14
3 -9 1 0.05 0.11
-4 9 -1 0.15 0.16
4 -9 1 -0.01 0.11
-5 9 -1 0 0.14
-5 9 -1 -0.04 0.12
5 -9 1 0 0.12
7 8 -1 -0.02 0.14
-7 -8 1 0.2 0.13
6 8 -1 -0.17 0.12
-6 -8 1 -0.13 0.1
5 8 -1 0.1 0.14
-5 -8 1 0.09 0.11
4 8 -1 0.86 0.17
4 8 -1 0.37 0.11
-4 -8 1 0.3 0.11
3 8 -1 -0.05 0.07
3 8 -1 -0.11 0.11
3 8 -1 0.1 0.08
-3 -8 1 0.01 0.09
-3 -8 1 -0.14 0.09
2 8 -1 -0.12 0.09
2 8 -1 -0.08 0.07
2 8 -1 -0.06 0.09
1 8 -1 -0.05 0.08
1 8 -1 -0.06 0.1
1 8 -1 -0.02 0.1
1 8 -1 0.02 0.06
0 8 -1 -0.13 0.09
0 8 -1 0.16 0.08
0 8 -1 0.1 0.11
0 8 -1 0.1 0.06
-1 8 -1 0.23 0.13
1 -8 1 0.1 0.09
-2 8 -1 0.16 0.11
2 -8 1 0.12 0.1
-3 8 -1 -0.03 0.11
3 -8 1 0.11 0.11
-4 8 -1 -0.06 0.13
-4 8 -1 0.08 0.12
4 -8 1 0.04 0.1
-5 8 -1 0.09 0.14
-5 8 -1 0.07 0.14
5 -8 1 0 0.1
-6 8 -1 0.1 0.13
-6 8 -1 -0.07 0.14
7 7 -1 0.24 0.14
-7 -7 1 0.05 0.11
6 7 -1 0.2 0.14
-6 -7 1 0.21 0.11
5 7 -1 -0.15 0.1
-5 -7 1 0.05 0.1
4 7 -1 -0.02 0.09
-4 -7 1 0.02 0.09
3 7 -1 -0.03 0.06
3 7 -1 0 0.07
3 7 -1 0 0.09
-3 -7 1 -0.13 0.07
-3 -7 1 0.07 0.08
2 7 -1 -0.08 0.05
2 7 -1 0.1 0.07
2 7 -1 -0.02 0.08
-2 -7 1 -0.01 0.06
-2 -7 1 0 0.07
1 7 -1 0.21 0.1
1 7 -1 0.16 0.08
1 7 -1 0.19 0.09
1 7 -1 0.19 0.06
0 7 -1 0.04 0.07
0 7 -1 0.22 0.09
0 7 -1 0.17 0.06
0 7 -1 0.07 0.09
0 -7 1 0.01 0.08
-1 7 -1 0.27 0.1
-1 7 -1 0.1 0.11
1 -7 1 0.21 0.09
-2 7 -1 0.53 0.13
-2 7 -1 0.69 0.12
2 -7 1 0.56 0.11
-3 7 -1 0.11 0.1
-3 7 -1 0.32 0.1
3 -7 1 0.16 0.09
-4 7 -1 0.15 0.11
-4 7 -1 -0.04 0.1
4 -7 1 0.08 0.08
-5 7 -1 -0.03 0.12
-5 7 -1 0.06 0.11
-6 7 -1 0.13 0.16
-6 7 -1 0 0.11
-7 7 -1 -0.07 0.13
8 6 -1 0 0.14
-8 -6 1 0.01 0.1
7 6 -1 0.17 0.15
-7 -6 1 0.23 0.1
6 6 -1 0.47 0.15
-6 -6 1 0.14 0.09
5 6 -1 0.12 0.1
-5 -6 1 0.09 0.09
4 6 -1 0.11 0.06
4 6 -1 0.34 0.11
-4 -6 1 0.11 0.08
3 6 -1 2.16 0.2
3 6 -1 2.02 0.16
-3 -6 1 2.37 0.17
-3 -6 1 1.84 0.16
2 6 -1 0.89 0.15
2 6 -1 0.58 0.09
2 6 -1 0.78 0.11
-2 -6 1 0.64 0.1
-2 -6 1 0.46 0.09
1 6 -1 0.05 0.06
1 6 -1 0.06 0.04
1 6 -1 -0.07 0.06
1 6 -1 0 0.06
-1 -6 1 0.03 0.07
-1 -6 1 0.03 0.05
0 6 -1 0.02 0.06
0 6 -1 0.1 0.05
0 6 -1 0.05 0.07
0 6 -1 0.18 0.07
0 6 -1 0.07 0.07
0 -6 1 0.06 0.07
0 -6 1 0.1 0.07
-1 6 -1 0.34 0.07
-1 6 -1 0.49 0.07
-1 6 -1 0.44 0.1
-1 6 -1 0.23 0.09
-1 6 -1 0.36 0.09
1 -6 1 0.58 0.09
-2 6 -1 0.49 0.11
-2 6 -1 0.45 0.1
2 -6 1 0.26 0.07
-3 6 -1 0.13 0.09
-3 6 -1 0.09 0.08
3 -6 1 0.02 0.07
-4 6 -1 0.69 0.14
-4 6 -1 0.55 0.11
-5 6 -1 0.46 0.12
-5 6 -1 0.39 0.13
-6 6 -1 0.08 0.11
-6 6 -1 0.01 0.14
-7 6 -1 -0.04 0.15
-7 6 -1 0.04 0.12
8 5 -1 0.11 0.14
-8 -5 1 -0.09 0.09
7 5 -1 0.23 0.13
-7 -5 1 0.27 0.1
6 5 -1 -0.06 0.09
-6 -5 1 0.11 0.08
5 5 -1 2.09 0.2
5 5 -1 2.15 0.16
-5 -5 1 2.2 0.17
4 5 -1 1.12 0.15
4 5 -1 1.14 0.11
-4 -5 1 1.01 0.13
3 5 -1 0.28 0.08
3 5 -1 0.14 0.06
-3 -5 1 0.12 0.06
-3 -5 1 0.1 0.07
2 5 -1 2.75 0.17
2 5 -1 2.39 0.19
-2 -5 1 2.44 0.16
-2 -5 1 2.72 0.17
1 5 -1 0.02 0.06
1 5 -1 0.04 0.05
1 5 -1 0.03 0.05
-1 -5 1 -0.04 0.05
-1 -5 1 0.05 0.06
0 5 -1 1.82 0.16
0 5 -1 1.74 0.11
0 5 -1 1.54 0.15
0 5 -1 1.43 0.14
0 5 -1 1.87 0.14
0 5 -1 1.87 0.14
0 -5 1 1.6 0.13
0 -5 1 1.71 0.13
0 -5 1 1.57 0.14
-1 5 -1 0.02 0.06
-1 5 -1 0.07 0.05
-1 5 -1 0.06 0.05
-1 5 -1 0.01 0.03
-1 5 -1 -0.04 0.04
1 -5 1 0.05 0.05
1 -5 1 0.01 0.05
-2 5 -1 0.07 0.06
-2 5 -1 0.23 0.07
-2 5 -1 0.29 0.09
2 -5 1 0.21 0.06
-3 5 -1 0.11 0.08
-3 5 -1 0.08 0.06
3 -5 1 0.09 0.06
-4 5 -1 0.02 0.07
-4 5 -1 0.05 0.09
-5 5 -1 0.05 0.1
-5 5 -1 0.06 0.07
-6 5 -1 0.01 0.09
-6 5 -1 0.41 0.14
-7 5 -1 0.62 0.18
-7 5 -1 0.37 0.12
-8 5 -1 0.12 0.12
-8 5 -1 0.31 0.17
8 4 -1 -0.02 0.12
-8 -4 1 0.15 0.09
7 4 -1 -0.02 0.11
-7 -4 1 -0.03 0.07
6 4 -1 0.41 0.12
-6 -4 1 0.25 0.08
5 4 -1 0.15 0.09
5 4 -1 0.11 0.06
-5 -4 1 0.26 0.07
4 4 -1 -0.03 0.04
4 4 -1 -0.02 0.06
-4 -4 1 -0.07 0.05
3 4 -1 7.62 0.33
3 4 -1 7.59 0.35
-3 -4 1 7.37 0.33
-3 -4 1 7.83 0.32
2 4 -1 0.07 0.06
2 4 -1 0.01 0.04
-2 -4 1 0 0.04
-2 -4 1 0.12 0.05
1 4 -1 3.03 0.17
1 4 -1 2.67 0.18
-1 -4 1 2.89 0.16
-1 -4 1 3.11 0.17
0 4 -1 6.41 0.29
0 4 -1 6.59 0.29
0 -4 1 6.56 0.27
-1 4 -1 0.02 0.05
-1 4 -1 0.02 0.04
-1 4 -1 -0.05 0.04
-1 4 -1 -0.01 0.04
-1 4 -1 0 0.03
1 -4 1 0 0.04
1 -4 1 -0.01 0.05
-2 4 -1 3.2 0.19
-2 4 -1 3.07 0.17
-2 4 -1 3.02 0.17
-2 4 -1 3.03 0.17
-3 4 -1 -0.04 0.05
-3 4 -1 0.14 0.07
-3 4 -1 0.02 0.05
-4 4 -1 0 0.06
-4 4 -1 -0.07 0.07
-5 4 -1 0.14 0.07
-5 4 -1 0.06 0.09
-6 4 -1 0.01 0.08
-6 4 -1 0.06 0.11
-7 4 -1 0.11 0.14
-7 4 -1 0.15 0.1
-8 4 -1 0.16 0.14
-8 4 -1 -0.03 0.1
9 3 -1 0.13 0.13
-9 -3 1 0.04 0.08
8 3 -1 1.29 0.21
-8 -3 1 0.57 0.1
7 3 -1 -0.08 0.1
-7 -3 1 -0.13 0.06
6 3 -1 -0.03 0.05
6 3 -1 -0.04 0.07
-6 -3 1 -0.1 0.05
5 3 -1 0.34 0.06
5 3 -1 0.4 0.1
-5 -3 1 0.43 0.07
4 3 -1 1.37 0.14
4 3 -1 1.32 0.1
-4 -3 1 1.51 0.11
3 3 -1 0.1 0.06
3 3 -1 0.13 0.04
-3 -3 1 0.1 0.04
2 3 -1 5.79 0.25
-2 -3 1 5.38 0.23
1 3 -1 8.23 0.33
-1 -3 1 8.35 0.32
-1 -3 1 7.91 0.32
0 3 -1 9.11 0.37
0 -3 1 9.37 0.37
-1 3 -1 2.56 0.14
-1 3 -1 2.81 0.15
-1 3 -1 2.7 0.15
1 -3 1 2.6 0.15
-2 3 -1 8.22 0.31
-2 3 -1 6.8 0.3
-2 3 -1 8.05 0.32
2 -3 1 7.55 0.32
-3 3 -1 0.65 0.1
-3 3 -1 0.53 0.08
-3 3 -1 0.54 0.07
-3 3 -1 0.48 0.07
-4 3 -1 0.16 0.06
-4 3 -1 0.14 0.06
-4 3 -1 0.14 0.07
-5 3 -1 0.35 0.08
-5 3 -1 0.75 0.13
-6 3 -1 0.1 0.07
-6 3 -1 0.08 0.1
-7 3 -1 -0.1 0.07
-7 3 -1 -0.01 0.11
-8 3 -1 0 0.13
-8 3 -1 0.02 0.09
9 2 -1 -0.02 0.11
8 2 -1 0.29 0.14
-8 -2 1 -0.11 0.13
-8 -2 1 -0.13 0.06
7 2 -1 1.32 0.18
-7 -2 1 0.76 0.15
-7 -2 1 0.73 0.09
6 2 -1 0.04 0.05
6 2 -1 0.23 0.09
-6 -2 1 0.12 0.1
-6 -2 1 -0.1 0.05
5 2 -1 4.18 0.19
5 2 -1 4.22 0.24
-5 -2 1 4.02 0.18
-5 -2 1 4.26 0.24
4 2 -1 0.97 0.08
4 2 -1 1.14 0.12
-4 -2 1 0.73 0.08
-4 -2 1 1.01 0.12
3 2 -1 0.45 0.06
-3 -2 1 0.26 0.05
2 2 -1 0.29 0.04
-2 -2 1 0.22 0.04
1 2 -1 39.1 1.38
0 2 -1 19.15 0.72
0 -2 1 20.77 0.72
-1 2 -1 4.31 0.19
1 -2 1 4.12 0.19
-2 2 -1 1.81 0.1
-2 2 -1 1.75 0.1
2 -2 1 1.83 0.11
-3 2 -1 4.66 0.2
-3 2 -1 4.43 0.19
3 -2 1 4.37 0.2
-4 2 -1 1.28 0.11
-4 2 -1 1.28 0.13
-4 2 -1 1.18 0.09
4 -2 1 1.24 0.09
-5 2 -1 0.33 0.06
-5 2 -1 0.37 0.09
-5 2 -1 0.32 0.08
-6 2 -1 0.01 0.06
-6 2 -1 -0.06 0.08
-7 2 -1 0 0.09
-7 2 -1 -0.04 0.07
-8 2 -1 -0.18 0.13
-8 2 -1 -0.01 0.07
-9 2 -1 -0.11 0.08
-9 2 -1 0.11 0.17
9 1 -1 -0.11 0.12
-9 -1 1 0.11 0.15
8 1 -1 -0.06 0.11
-8 -1 1 0.08 0.13
7 1 -1 0.35 0.12
-7 -1 1 0.27 0.07
-7 -1 1 0.29 0.13
-6 -1 1 0.04 0.05
-6 -1 1 -0.03 0.09
-5 -1 1 5.33 0.22
-5 -1 1 5.82 0.29
-4 -1 1 0.06 0.04
-4 -1 1 0.24 0.08
-4 -1 1 0.18 0.04
-4 -1 1 0.17 0.07
-3 -1 1 27.42 0.99
-3 -1 1 26.03 0.9
-2 -1 1 77.9 2.69
-2 -1 1 75.34 2.53
1 1 -1 29.24 1.03
-1 -1 1 29.27 1.03
-1 1 -1 14.19 0.5
-1 1 -1 14 0.51
1 -1 1 14.4 0.51
-2 1 -1 49.05 1.72
2 -1 1 49.82 1.72
-3 1 -1 3.03 0.13
-3 1 -1 3.34 0.15
3 -1 1 3.03 0.13
-4 1 -1 0.78 0.06
-4 1 -1 0.72 0.06
-4 1 -1 0.85 0.11
-4 1 -1 1.02 0.1
4 -1 1 0.74 0.06
4 -1 1 0.88 0.09
-5 1 -1 0.03 0.06
-5 1 -1 0.07 0.04
-5 1 -1 -0.02 0.06
-6 1 -1 1.85 0.11
-6 1 -1 1.95 0.17
-6 1 -1 1.94 0.18
-7 1 -1 0.54 0.08
-7 1 -1 0.89 0.15
-8 1 -1 0.14 0.13
-9 1 -1 0.18 0.15
9 0 -1 0.23 0.16
-9 0 1 -0.1 0.15
-8 0 1 0.04 0.14
-7 0 1 0.01 0.06
-7 0 1 -0.12 0.11
-6 0 1 0.09 0.09
-6 0 1 0.13 0.09
-6 0 1 0.19 0.06
-5 0 1 0.19 0.09
-5 0 1 0.21 0.05
-5 0 1 0.52 0.1
-4 0 1 5.85 0.23
-4 0 1 6.27 0.3
-4 0 1 6.58 0.23
-4 0 1 6.24 0.29
-3 0 1 13.5 0.51
-3 0 1 12.44 0.44
-2 0 1 1.36 0.1
-1 0 1 0.35 0.06
0 0 1 22.22 0.77
-1 0 -1 47.73 1.65
1 0 1 48.02 1.66
-2 0 -1 179.51 6.21
-3 0 -1 1.76 0.11
-4 0 -1 14.51 0.57
-5 0 -1 0.64 0.1
-6 0 -1 0.27 0.1
-7 0 -1 0.22 0.11
-8 0 -1 0.29 0.13
-9 0 -1 0.32 0.17
-9 1 1 -0.08 0.15
-8 1 1 0.02 0.07
-8 1 1 0 0.13
-7 1 1 0.64 0.15
-7 1 1 0.86 0.16
-7 1 1 0.76 0.1
-6 1 1 0.45 0.08
-6 1 1 0.62 0.12
-6 1 1 0.52 0.12
-5 1 1 1.14 0.13
-5 1 1 0.92 0.08
-5 1 1 1.03 0.14
-4 1 1 0.19 0.07
-4 1 1 0.16 0.04
-4 1 1 0.13 0.06
-3 1 1 1.91 0.1
-3 1 1 1.96 0.13
-2 1 1 14.24 0.5
-2 1 1 15.09 0.55
-1 1 1 24.75 0.88
0 -1 -1 3.17 0.13
0 1 1 3.07 0.13
-1 -1 -1 0.11 0.03
1 1 1 0.06 0.02
-5 -1 -1 6.31 0.3
-6 -1 -1 0.63 0.12
-7 -1 -1 0 0.09
-8 -1 -1 0.03 0.12
8 1 1 0.04 0.11
-9 2 1 -0.14 0.15
-9 2 1 -0.04 0.09
-8 2 1 0.06 0.08
-8 2 1 0 0.12
-7 2 1 0.08 0.12
-7 2 1 -0.07 0.11
-7 2 1 0.12 0.07
-6 2 1 0.3 0.11
-6 2 1 0.31 0.11
-6 2 1 0.19 0.06
-5 2 1 7.57 0.36
-5 2 1 6.95 0.36
-5 2 1 7.63 0.3
-4 2 1 1.02 0.11
-4 2 1 1.18 0.14
-4 2 1 1.2 0.1
3 -2 -1 0.09 0.04
-3 2 1 0.07 0.04
-3 2 1 0.06 0.05
-3 2 1 0.11 0.05
2 -2 -1 1.84 0.11
-2 2 1 2.23 0.13
-2 2 1 1.83 0.1
1 -2 -1 46.94 1.67
-1 2 1 47.14 1.66
-1 2 1 48.42 1.68
0 -2 -1 1.16 0.07
0 2 1 0.64 0.06
0 2 1 0.99 0.09
-1 -2 -1 132.06 4.69
1 2 1 139.23 4.69
-2 -2 -1 38.43 1.32
2 2 1 40.84 1.39
-3 -2 -1 0.65 0.05
3 2 1 0.77 0.06
-4 -2 -1 116.5 3.94
-5 -2 -1 1.19 0.14
5 2 1 1.19 0.13
-6 -2 -1 76.86 2.7
6 2 1 77.22 2.7
-7 -2 -1 1.05 0.17
7 2 1 0.89 0.15
-8 -2 -1 3.65 0.3
8 2 1 3.78 0.27
-8 3 1 0.1 0.09
-8 3 1 -0.11 0.14
-7 3 1 0.07 0.11
-7 3 1 0.03 0.08
-6 3 1 0.11 0.1
-6 3 1 0.1 0.07
-6 3 1 0.02 0.09
-5 3 1 0.06 0.06
-5 3 1 0.16 0.08
-5 3 1 0.07 0.09
-4 3 1 5.16 0.29
-4 3 1 5.41 0.27
-4 3 1 5.66 0.24
3 -3 -1 29.86 1.1
-3 3 1 30.39 1.04
-3 3 1 30.12 1.1
-3 3 1 30.34 1.11
2 -3 -1 16.32 0.61
-2 3 1 16.28 0.62
-2 3 1 15.68 0.57
-2 3 1 15.91 0.6
1 -3 -1 4.32 0.2
-1 3 1 4.59 0.2
-1 3 1 4.39 0.21
-1 3 1 4.27 0.19
0 -3 -1 10.56 0.4
0 3 1 10.3 0.41
1 3 1 35.79 1.27
-2 -3 -1 1 0.08
2 3 1 1.06 0.08
-3 -3 -1 2.5 0.13
3 3 1 2.47 0.13
-4 -3 -1 0.66 0.09
-4 -3 -1 0.48 0.07
4 3 1 0.64 0.1
4 3 1 0.58 0.06
-5 -3 -1 0.17 0.05
5 3 1 0 0.06
5 3 1 0.12 0.04
-6 -3 -1 31.8 1.11
6 3 1 33.4 1.21
-7 -3 -1 1.04 0.09
7 3 1 1.06 0.17
-8 4 1 0.2 0.1
-8 4 1 0.3 0.17
-7 4 1 -0.02 0.13
-7 4 1 0.22 0.1
-6 4 1 0.09 0.08
-6 4 1 0.1 0.11
-5 4 1 -0.03 0.08
-5 4 1 -0.02 0.09
-5 4 1 0.01 0.08
-4 4 1 0.89 0.13
-4 4 1 0.89 0.11
-4 4 1 0.81 0.11
-3 4 1 0.86 0.11
-3 4 1 0.76 0.13
-3 4 1 0.89 0.11
2 -4 -1 3.4 0.19
-2 4 1 3.46 0.18
-2 4 1 3.41 0.18
-2 4 1 3.37 0.2
-2 4 1 3.54 0.2
1 -4 -1 53.12 1.92
-1 4 1 55.09 1.83
-1 4 1 55 1.92
-1 4 1 52.57 1.93
0 4 1 61.32 2.08
0 4 1 55.23 2.06
-1 -4 -1 10.83 0.42
1 4 1 11.54 0.45
-2 -4 -1 0.64 0.09
2 4 1 0.75 0.08
-3 -4 -1 14.51 0.57
-3 -4 -1 15 0.54
3 4 1 14.89 0.57
-4 -4 -1 0.59 0.09
-4 -4 -1 0.76 0.12
4 4 1 0.61 0.11
4 4 1 0.7 0.08
-5 -4 -1 0.83 0.1
-5 -4 -1 1.02 0.15
5 4 1 0.75 0.08
5 4 1 1.1 0.15
-6 -4 -1 0.08 0.06
6 4 1 0.12 0.05
6 4 1 -0.01 0.09
-7 -4 -1 -0.06 0.06
7 4 1 0.05 0.1
-8 -4 -1 4.1 0.2
-8 5 1 0.65 0.14
-8 5 1 0.92 0.2
-7 5 1 0.02 0.1
-7 5 1 -0.14 0.13
-6 5 1 0.78 0.17
-6 5 1 0.74 0.13
-5 5 1 1.42 0.19
-5 5 1 1.35 0.16
-4 5 1 1.27 0.14
-4 5 1 1.25 0.17
-4 5 1 1.26 0.14
3 -5 -1 0.28 0.06
-3 5 1 0.23 0.08
-3 5 1 0.28 0.08
-3 5 1 0.31 0.09
2 -5 -1 0.03 0.05
-2 5 1 0.07 0.06
-2 5 1 0.04 0.03
-2 5 1 0.12 0.06
-2 5 1 -0.03 0.06
1 -5 -1 2.74 0.17
-1 5 1 2.97 0.18
-1 5 1 2.87 0.14
-1 5 1 2.88 0.18
-1 5 1 2.9 0.19
-1 5 1 3.04 0.17
0 5 1 1.01 0.1
0 5 1 1.01 0.12
0 5 1 0.92 0.1
0 5 1 1.02 0.13
-1 -5 -1 55.42 1.92
1 5 1 56.93 2.03
1 5 1 55.76 1.91
1 5 1 58.88 2.02
1 5 1 55.2 1.98
-2 -5 -1 7.95 0.35
-2 -5 -1 8.61 0.34
2 5 1 8.25 0.37
2 5 1 8 0.36
-3 -5 -1 9.86 0.39
-3 -5 -1 10.11 0.42
3 5 1 9.47 0.42
3 5 1 9.76 0.41
-4 -5 -1 0.31 0.08
-4 -5 -1 0.18 0.06
4 5 1 0.16 0.06
4 5 1 0.19 0.08
-5 -5 -1 2.51 0.16
-5 -5 -1 2.25 0.2
5 5 1 2.3 0.2
5 5 1 2.29 0.15
-6 -5 -1 -0.03 0.06
6 5 1 -0.01 0.09
-7 -5 -1 -0.07 0.07
-8 -5 -1 0.12 0.08
-9 -5 -1 0.13 0.08
-7 6 1 -0.21 0.13
-7 6 1 -0.09 0.11
-6 6 1 1.5 0.18
-6 6 1 2.13 0.26
-5 6 1 0.31 0.11
-5 6 1 0.21 0.13
-4 6 1 1.03 0.18
-4 6 1 0.86 0.14
3 -6 -1 1.3 0.14
-3 6 1 1.28 0.15
-3 6 1 1.54 0.18
-3 6 1 1.47 0.16
2 -6 -1 0.34 0.08
-2 6 1 0.36 0.06
-2 6 1 0.39 0.1
-2 6 1 0.46 0.1
-2 6 1 0.5 0.1
1 -6 -1 1.39 0.14
-1 6 1 1.18 0.13
-1 6 1 1.29 0.14
-1 6 1 1.06 0.1
-1 6 1 0.88 0.13
-1 6 1 1.26 0.15
0 -6 -1 0.59 0.1
0 6 1 0.49 0.07
0 6 1 0.49 0.09
0 6 1 0.42 0.09
0 6 1 0.34 0.07
0 6 1 0.32 0.07
-1 -6 -1 0.32 0.07
-1 -6 -1 0.13 0.06
1 6 1 0.33 0.08
1 6 1 0.31 0.09
1 6 1 0.21 0.08
1 6 1 0.32 0.08
-2 -6 -1 0.39 0.08
-2 -6 -1 0.49 0.09
2 6 1 0.55 0.08
2 6 1 0.4 0.09
2 6 1 0.49 0.09
-3 -6 -1 5.34 0.26
-3 -6 -1 4.96 0.27
3 6 1 5.39 0.29
3 6 1 5.35 0.27
-4 -6 -1 2.69 0.18
-4 -6 -1 2.63 0.19
4 6 1 2.71 0.21
4 6 1 2.66 0.18
-5 -6 -1 2.37 0.21
-5 -6 -1 2.67 0.18
5 6 1 2.4 0.17
5 6 1 2.86 0.22
-6 -6 -1 0.02 0.08
6 6 1 0.04 0.11
-7 -6 -1 0.35 0.1
-8 -6 -1 0.1 0.09
-7 7 1 -0.09 0.17
-7 7 1 -0.07 0.12
-6 7 1 0.15 0.15
-6 7 1 -0.02 0.1
-5 7 1 0.07 0.12
-5 7 1 0.07 0.13
4 -7 -1 1.87 0.18
-4 7 1 2.1 0.23
-4 7 1 2.12 0.21
3 -7 -1 1.8 0.18
-3 7 1 2 0.19
-3 7 1 1.93 0.22
2 -7 -1 0.94 0.15
-2 7 1 0.86 0.13
-2 7 1 0.99 0.17
-2 7 1 0.99 0.14
1 -7 -1 0.54 0.11
-1 7 1 0.77 0.13
-1 7 1 0.62 0.09
-1 7 1 0.8 0.14
0 7 1 0.09 0.08
0 7 1 0 0.07
0 7 1 0 0.08
0 7 1 -0.01 0.04
-1 -7 -1 2.54 0.18
1 7 1 2.11 0.21
1 7 1 2.48 0.21
1 7 1 2.64 0.19
1 7 1 2.69 0.16
1 7 1 2.89 0.21
-2 -7 -1 0.02 0.07
-2 -7 -1 -0.11 0.06
2 7 1 0.05 0.08
2 7 1 0.06 0.06
2 7 1 -0.03 0.07
2 7 1 0.06 0.08
-3 -7 -1 1.66 0.16
-3 -7 -1 1.7 0.17
3 7 1 1.89 0.2
3 7 1 1.49 0.15
3 7 1 1.52 0.17
-4 -7 -1 0.08 0.08
-4 -7 -1 0.08 0.08
4 7 1 -0.04 0.06
4 7 1 -0.02 0.09
-5 -7 -1 0.52 0.11
-5 -7 -1 0.87 0.15
5 7 1 0.72 0.15
-6 -7 -1 0.2 0.1
6 7 1 0.17 0.13
-7 -7 -1 -0.15 0.08
-8 -7 -1 0.2 0.11
-6 8 1 -0.03 0.15
-6 8 1 0.01 0.12
5 -8 -1 -0.04 0.1
-5 8 1 0.02 0.14
-5 8 1 0.05 0.15
4 -8 -1 0.08 0.11
-4 8 1 -0.09 0.11
-4 8 1 0.09 0.12
3 -8 -1 -0.17 0.1
-3 8 1 0.05 0.1
-3 8 1 0.1 0.12
2 -8 -1 1.78 0.19
-2 8 1 1.55 0.21
-1 8 1 1.04 0.12
-1 8 1 1.27 0.17
-1 8 1 1.45 0.2
0 8 1 1.68 0.19
0 8 1 1.9 0.15
0 8 1 2.39 0.22
0 8 1 1.92 0.21
1 8 1 0.31 0.1
1 8 1 0.23 0.09
1 8 1 0.26 0.12
1 8 1 0.14 0.06
-2 -8 -1 0.08 0.08
-2 -8 -1 0.11 0.08
2 8 1 -0.09 0.07
2 8 1 0.08 0.1
2 8 1 -0.05 0.06
2 8 1 0.1 0.1
-3 -8 -1 0.16 0.1
-3 -8 -1 0.19 0.1
3 8 1 0.2 0.11
3 8 1 0.18 0.08
3 8 1 0.26 0.09
-4 -8 -1 0.32 0.11
-4 -8 -1 0.3 0.1
4 8 1 0.39 0.09
4 8 1 0.46 0.13
-5 -8 -1 0.17 0.11
-5 -8 -1 0.12 0.1
5 8 1 0.04 0.12
-6 -8 -1 0.11 0.1
-7 -8 -1 -0.11 0.11
5 -9 -1 -0.02 0.12
-5 9 1 0.01 0.13
-5 9 1 -0.02 0.17
4 -9 -1 0.15 0.12
-4 9 1 0.18 0.14
3 -9 -1 0.09 0.11
-3 9 1 -0.18 0.11
2 -9 -1 0.09 0.12
-2 9 1 -0.14 0.1
-1 9 1 0.05 0.06
-1 9 1 0.04 0.11
0 9 1 0.37 0.09
0 9 1 0.82 0.17
0 9 1 0.5 0.11
0 9 1 0.57 0.15
1 9 1 0.16 0.13
1 9 1 0.19 0.07
1 9 1 0.42 0.11
1 9 1 0.46 0.14
2 9 1 1.12 0.15
2 9 1 1.19 0.2
2 9 1 1.35 0.22
-3 -9 -1 0.22 0.1
3 9 1 0.17 0.13
3 9 1 0.11 0.1
3 9 1 0.28 0.13
-4 -9 -1 0.05 0.1
-4 -9 -1 -0.15 0.09
4 9 1 0.02 0.12
4 9 1 0.03 0.09
-5 -9 -1 -0.08 0.12
-5 -9 -1 0.13 0.11
5 9 1 0.24 0.15
5 9 1 0.02 0.08
-6 -9 -1 -0.07 0.11
4 -10 -1 0.09 0.13
-4 10 1 -0.22 0.14
-3 10 1 0.19 0.17
-2 10 1 0.14 0.14
-1 10 1 0.13 0.13
-1 10 1 -0.09 0.07
0 10 1 0.02 0.08
0 10 1 0.26 0.15
1 10 1 -0.02 0.14
1 10 1 0.06 0.11
1 10 1 0.05 0.08
1 10 1 0.36 0.16
2 10 1 0.27 0.15
2 10 1 0.34 0.11
2 10 1 0.18 0.14
-3 -10 -1 0.12 0.1
3 10 1 0 0.09
3 10 1 0.12 0.15
3 10 1 0.17 0.15
-4 -10 -1 0.19 0.12
4 10 1 0.2 0.16
4 10 1 0.22 0.11
4 10 1 0.14 0.14
-5 -10 -1 -0.05 0.12
-5 -10 -1 0.17 0.13
5 10 1 0.09 0.1
-2 11 1 0.16 0.17
-1 11 1 0.26 0.17
0 11 1 -0.03 0.15
0 11 1 0.05 0.08
1 11 1 -0.11 0.09
1 11 1 -0.14 0.12
1 11 1 0.05 0.15
2 11 1 0.23 0.18
2 11 1 0.21 0.12
2 11 1 0.2 0.16
3 11 1 0.04 0.15
3 11 1 -0.07 0.12
4 11 1 0.08 0.11
4 11 1 0.17 0.17
1 11 -2 0.14 0.17
0 11 -2 0.2 0.18
4 10 -2 -0.04 0.14
4 10 -2 0.01 0.1
3 10 -2 0.28 0.13
3 10 -2 0.14 0.16
2 10 -2 0.42 0.16
2 10 -2 0.24 0.13
1 10 -2 0.26 0.15
1 10 -2 0.47 0.14
0 10 -2 0.46 0.18
-1 10 -2 0.03 0.15
-2 10 -2 0.43 0.16
2 -10 2 0.27 0.14
-3 10 -2 0.17 0.17
3 -10 2 0.02 0.14
5 9 -2 0.21 0.17
5 9 -2 0.04 0.1
-5 -9 2 0.16 0.11
4 9 -2 0.23 0.09
4 9 -2 0.14 0.15
-4 -9 2 0.27 0.13
3 9 -2 0.02 0.09
3 9 -2 -0.02 0.13
2 9 -2 0.06 0.14
2 9 -2 0.07 0.13
2 9 -2 0 0.09
1 9 -2 -0.06 0.09
1 9 -2 0.08 0.13
1 9 -2 0.03 0.07
0 9 -2 0.4 0.15
-1 9 -2 -0.08 0.13
1 -9 2 0.11 0.11
-2 9 -2 0.4 0.18
2 -9 2 0.48 0.13
-3 9 -2 0.09 0.15
3 -9 2 -0.07 0.11
-4 9 -2 -0.04 0.14
4 -9 2 0.08 0.12
-5 9 -2 0.1 0.13
6 8 -2 0.79 0.19
-6 -8 2 0.3 0.14
5 8 -2 5.2 0.35
-5 -8 2 4.69 0.31
4 8 -2 0.17 0.09
4 8 -2 0.41 0.16
-4 -8 2 -0.01 0.11
3 8 -2 0.08 0.13
3 8 -2 0 0.07
-3 -8 2 0.01 0.11
2 8 -2 1.08 0.19
2 8 -2 0.95 0.13
1 8 -2 0.14 0.12
1 8 -2 0.17 0.11
1 8 -2 0.15 0.07
1 8 -2 0.18 0.09
0 8 -2 0 0.08
0 8 -2 -0.09 0.09
-1 8 -2 0.05 0.11
1 -8 2 -0.1 0.09
-2 8 -2 0 0.11
2 -8 2 0 0.09
-3 8 -2 0.06 0.12
3 -8 2 0.07 0.1
-4 8 -2 0.13 0.11
-4 8 -2 0.2 0.15
4 -8 2 0.07 0.1
-5 8 -2 -0.16 0.13
-5 8 -2 -0.1 0.14
5 -8 2 -0.07 0.1
-6 8 -2 -0.01 0.16
-6 8 -2 0.19 0.14
7 7 -2 0.19 0.16
-7 -7 2 0.13 0.12
6 7 -2 0.66 0.19
-6 -7 2 0.4 0.13
5 7 -2 0.18 0.15
-5 -7 2 0.2 0.1
4 7 -2 0.54 0.14
-4 -7 2 0.62 0.13
3 7 -2 5.22 0.28
3 7 -2 5.05 0.32
3 7 -2 4.63 0.28
-3 -7 2 4.94 0.29
2 7 -2 0.2 0.08
2 7 -2 0.05 0.1
2 7 -2 0.01 0.07
-2 -7 2 0.02 0.07
-2 -7 2 0.03 0.08
1 7 -2 0.29 0.11
1 7 -2 0.28 0.1
1 7 -2 0.24 0.07
1 7 -2 0.3 0.09
0 7 -2 1.56 0.2
0 7 -2 1.67 0.18
0 7 -2 1.64 0.13
0 7 -2 2.08 0.21
0 -7 2 1.29 0.16
0 -7 2 2.05 0.17
-1 7 -2 0.17 0.11
1 -7 2 0.29 0.09
-2 7 -2 0.03 0.1
2 -7 2 0.11 0.09
-3 7 -2 0.03 0.1
-3 7 -2 0.05 0.08
3 -7 2 0.05 0.08
-4 7 -2 -0.01 0.11
-4 7 -2 -0.02 0.08
4 -7 2 0.1 0.09
-5 7 -2 0.09 0.1
-5 7 -2 -0.13 0.11
-6 7 -2 -0.06 0.14
-6 7 -2 0.04 0.12
7 6 -2 -0.01 0.14
-7 -6 2 -0.07 0.11
6 6 -2 0.25 0.14
-6 -6 2 -0.06 0.1
5 6 -2 0.06 0.11
-5 -6 2 0 0.09
4 6 -2 -0.05 0.09
4 6 -2 -0.02 0.06
-4 -6 2 -0.04 0.08
3 6 -2 0.85 0.12
3 6 -2 0.82 0.14
-3 -6 2 0.87 0.14
2 6 -2 0.45 0.09
2 6 -2 0.61 0.12
2 6 -2 0.36 0.08
-2 -6 2 0.4 0.09
-2 -6 2 0.3 0.09
1 6 -2 4.11 0.24
1 6 -2 3.94 0.24
1 6 -2 4.21 0.2
1 6 -2 3.72 0.26
-1 -6 2 3.85 0.23
-1 -6 2 4.06 0.21
-1 -6 2 3.69 0.23
0 6 -2 0.22 0.08
0 6 -2 0.06 0.05
0 6 -2 0.1 0.08
0 6 -2 0.16 0.07
0 -6 2 0.04 0.08
0 -6 2 0.18 0.07
-1 6 -2 0.01 0.08
-1 6 -2 0.14 0.08
-1 6 -2 0.11 0.06
1 -6 2 0.05 0.07
1 -6 2 0.23 0.07
-2 6 -2 1.56 0.16
-2 6 -2 1.16 0.19
2 -6 2 1.2 0.14
-3 6 -2 0.08 0.09
-3 6 -2 -0.07 0.07
3 -6 2 0.03 0.07
-4 6 -2 -0.01 0.09
-4 6 -2 -0.03 0.07
4 -6 2 -0.11 0.08
-5 6 -2 0.03 0.1
-5 6 -2 -0.08 0.09
-6 6 -2 -0.06 0.11
-6 6 -2 0.11 0.13
-7 6 -2 -0.01 0.15
-7 6 -2 0.01 0.12
8 5 -2 0.16 0.15
-8 -5 2 0.06 0.11
7 5 -2 0.07 0.13
-7 -5 2 0.05 0.1
6 5 -2 -0.04 0.11
-6 -5 2 0.09 0.09
5 5 -2 0.06 0.09
-5 -5 2 0.06 0.08
4 5 -2 0.04 0.06
4 5 -2 0.07 0.09
-4 -5 2 0.15 0.08
3 5 -2 0.04 0.05
3 5 -2 0.02 0.08
-3 -5 2 0.05 0.07
2 5 -2 0.04 0.05
2 5 -2 0.08 0.06
-2 -5 2 -0.06 0.06
-2 -5 2 0.03 0.06
-2 -5 2 0 0.06
1 5 -2 0.18 0.07
1 5 -2 0.12 0.06
1 5 -2 0.09 0.05
-1 -5 2 0.13 0.06
-1 -5 2 0.22 0.06
-1 -5 2 0.22 0.08
0 5 -2 0.18 0.06
0 5 -2 0.07 0.04
0 5 -2 0.16 0.06
0 5 -2 0.17 0.06
0 5 -2 0.15 0.08
0 -5 2 0.09 0.06
0 -5 2 0.1 0.06
0 -5 2 0.16 0.06
-1 5 -2 1.09 0.14
-1 5 -2 0.92 0.12
-1 5 -2 1.03 0.11
-1 5 -2 0.91 0.12
1 -5 2 0.86 0.1
1 -5 2 1.1 0.12
-2 5 -2 0.15 0.07
-2 5 -2 0.07 0.06
2 -5 2 0.08 0.06
-3 5 -2 -0.06 0.07
-3 5 -2 0.03 0.06
3 -5 2 0.06 0.07
-4 5 -2 0.09 0.1
-4 5 -2 0.07 0.07
-5 5 -2 -0.04 0.1
-5 5 -2 0.19 0.09
-6 5 -2 0.02 0.09
-6 5 -2 -0.17 0.1
-7 5 -2 -0.05 0.15
-7 5 -2 -0.13 0.1
-8 5 -2 0.1 0.13
-8 5 -2 0.27 0.17
8 4 -2 0.06 0.15
-8 -4 2 0.01 0.09
7 4 -2 0.04 0.12
-7 -4 2 0.04 0.08
6 4 -2 0.06 0.11
-6 -4 2 0.3 0.09
5 4 -2 0.11 0.08
5 4 -2 0.09 0.06
-5 -4 2 0.04 0.07
4 4 -2 0.34 0.1
4 4 -2 0.35 0.07
-4 -4 2 0.37 0.08
3 4 -2 1.17 0.14
3 4 -2 1.14 0.11
-3 -4 2 1.65 0.13
2 4 -2 6.33 0.31
2 4 -2 6.31 0.29
-2 -4 2 6.28 0.28
-2 -4 2 6.56 0.29
1 4 -2 -0.07 0.04
1 4 -2 -0.06 0.04
-1 -4 2 -0.05 0.04
-1 -4 2 0 0.05
0 4 -2 1.34 0.13
0 4 -2 1.4 0.12
0 4 -2 1.43 0.13
0 -4 2 1.36 0.11
0 -4 2 1.63 0.12
-1 4 -2 0.37 0.06
-1 4 -2 0.5 0.08
-1 4 -2 0.38 0.07
-1 4 -2 0.37 0.08
1 -4 2 0.4 0.07
1 -4 2 0.31 0.06
-2 4 -2 0.47 0.08
-2 4 -2 0.45 0.08
-2 4 -2 0.19 0.05
2 -4 2 0.47 0.08
2 -4 2 0.25 0.06
-3 4 -2 -0.03 0.04
-3 4 -2 0.01 0.06
-4 4 -2 0.17 0.07
-4 4 -2 0.17 0.09
-5 4 -2 0.22 0.11
-5 4 -2 0.3 0.09
-6 4 -2 -0.06 0.08
-6 4 -2 -0.02 0.1
-7 4 -2 -0.03 0.09
-7 4 -2 -0.02 0.12
-8 4 -2 -0.05 0.13
-8 4 -2 0.15 0.11
8 3 -2 -0.12 0.13
-8 -3 2 -0.11 0.07
7 3 -2 0.1 0.11
-7 -3 2 -0.01 0.07
6 3 -2 0.03 0.09
-6 -3 2 -0.04 0.06
5 3 -2 0.32 0.06
5 3 -2 0.33 0.1
-5 -3 2 0.26 0.07
4 3 -2 0.68 0.11
4 3 -2 0.58 0.08
-4 -3 2 0.61 0.09
3 3 -2 1.68 0.14
3 3 -2 1.46 0.11
-3 -3 2 1.4 0.11
2 3 -2 0.02 0.04
2 3 -2 -0.01 0.04
-2 -3 2 0 0.05
-2 -3 2 -0.03 0.04
1 3 -2 5.24 0.24
-1 -3 2 5.42 0.24
-1 -3 2 5.62 0.24
0 3 -2 8.98 0.37
0 -3 2 9.33 0.36
-1 3 -2 12.82 0.5
-1 3 -2 12.77 0.47
1 -3 2 12.54 0.47
1 -3 2 13.08 0.5
-2 3 -2 4.24 0.2
-2 3 -2 4.26 0.2
-2 3 -2 4.01 0.18
2 -3 2 4.08 0.21
-3 3 -2 0.27 0.08
-3 3 -2 0.5 0.07
-3 3 -2 0.42 0.07
3 -3 2 0.31 0.06
-4 3 -2 1.74 0.16
-4 3 -2 1.53 0.12
-5 3 -2 0.58 0.09
-5 3 -2 0.45 0.11
-6 3 -2 -0.06 0.09
-6 3 -2 -0.02 0.07
-7 3 -2 0.04 0.12
-7 3 -2 0.08 0.08
-8 3 -2 0.13 0.14
-8 3 -2 0.07 0.09
9 2 -2 0.09 0.15
-9 -2 2 -0.03 0.08
8 2 -2 0.15 0.13
-8 -2 2 0.02 0.07
7 2 -2 0.75 0.15
-7 -2 2 0.6 0.1
-7 -2 2 1.16 0.2
6 2 -2 0.53 0.11
6 2 -2 0.7 0.09
-6 -2 2 0.65 0.1
-6 -2 2 0.85 0.14
5 2 -2 0.28 0.09
5 2 -2 0.16 0.05
-5 -2 2 0.12 0.09
-5 -2 2 0.35 0.07
4 2 -2 0.73 0.11
4 2 -2 0.62 0.07
-4 -2 2 0.64 0.1
-4 -2 2 0.52 0.08
3 2 -2 0.22 0.05
3 2 -2 0.37 0.07
-3 -2 2 0.26 0.05
2 2 -2 0.13 0.04
-2 -2 2 0.06 0.04
-2 -2 2 0.1 0.05
1 2 -2 0.54 0.07
-1 -2 2 0.61 0.08
0 2 -2 9.95 0.39
0 -2 2 9.82 0.39
-1 2 -2 6.15 0.25
-1 2 -2 5.36 0.23
1 -2 2 6.26 0.25
-2 2 -2 8.95 0.34
-2 2 -2 9.52 0.36
-2 2 -2 8.96 0.34
2 -2 2 9.17 0.36
-3 2 -2 12.01 0.44
-3 2 -2 12.52 0.46
-3 2 -2 12.47 0.46
3 -2 2 12.22 0.47
-4 2 -2 0.94 0.12
-4 2 -2 1.05 0.09
4 -2 2 0.82 0.09
-5 2 -2 0.08 0.05
-5 2 -2 0.15 0.08
-6 2 -2 0.79 0.1
-6 2 -2 0.96 0.17
-7 2 -2 0.07 0.1
-7 2 -2 0.14 0.07
-8 2 -2 0.03 0.08
-8 2 -2 -0.04 0.13
-9 2 -2 0.04 0.08
-9 2 -2 0.1 0.17
9 1 -2 0.28 0.16
-9 -1 2 0 0.15
8 1 -2 0.17 0.13
-8 -1 2 -0.11 0.12
-8 -1 2 -0.01 0.07
7 1 -2 1.36 0.18
-7 -1 2 1.16 0.12
-7 -1 2 1.07 0.18
6 1 -2 0.05 0.08
-6 -1 2 0.04 0.06
-6 -1 2 -0.05 0.09
5 1 -2 4.78 0.26
-5 -1 2 4.38 0.26
-5 -1 2 4.35 0.26
-5 -1 2 4.41 0.2
4 1 -2 3.7 0.2
-4 -1 2 3.23 0.21
-4 -1 2 3.39 0.21
-4 -1 2 3.67 0.16
3 1 -2 2.47 0.15
-3 -1 2 2.54 0.16
-3 -1 2 2.27 0.16
-3 -1 2 2.3 0.12
-2 -1 2 37.43 1.29
-2 -1 2 38.22 1.3
-2 -1 2 39.6 1.38
1 1 -2 15.63 0.57
-1 -1 2 15.63 0.58
0 1 -2 41.48 1.54
0 -1 2 46.18 1.54
-1 1 -2 2.52 0.12
1 -1 2 2.29 0.12
-2 1 -2 14.61 0.51
-2 1 -2 14.52 0.52
-2 1 -2 14.89 0.53
2 -1 2 14.67 0.54
-3 1 -2 5.89 0.23
3 -1 2 6.25 0.24
-4 1 -2 1.28 0.12
-4 1 -2 1.25 0.08
-4 1 -2 1.23 0.1
4 -1 2 1.12 0.08
4 -1 2 1.3 0.11
-5 1 -2 1.94 0.16
-5 1 -2 2.11 0.15
-5 1 -2 2.13 0.11
5 -1 2 2.16 0.14
-6 1 -2 1.58 0.16
-6 1 -2 1.59 0.1
-7 1 -2 -0.05 0.11
-8 1 -2 0.16 0.13
9 0 -2 0.18 0.15
-9 0 2 0.07 0.16
8 0 -2 0.22 0.12
-8 0 2 -0.05 0.07
-8 0 2 0.02 0.14
-7 0 2 0.15 0.12
-7 0 2 0.04 0.07
-6 0 2 0.03 0.06
-6 0 2 -0.05 0.09
-6 0 2 -0.19 0.08
-5 0 2 0.21 0.06
-5 0 2 0.25 0.09
-5 0 2 0.08 0.08
-4 0 2 3.59 0.21
-4 0 2 3.33 0.2
-4 0 2 3.45 0.16
-3 0 2 5.5 0.23
-3 0 2 6.1 0.27
-2 0 2 23.54 0.83
-2 0 2 25.32 0.9
-1 0 2 11.49 0.43
0 0 2 1.65 0.08
-1 0 -2 21.99 0.77
1 0 2 22.1 0.77
1 0 2 21.52 0.76
2 0 2 10.21 0.37
3 0 2 8.18 0.32
4 0 2 2.2 0.13
-5 0 -2 0.78 0.11
5 0 2 1.18 0.11
-6 0 -2 0.45 0.1
6 0 2 0.8 0.12
-7 0 -2 0.07 0.1
-8 0 -2 0.27 0.14
-9 1 2 0.08 0.1
-9 1 2 0.16 0.16
-8 1 2 0.07 0.14
-8 1 2 -0.06 0.08
-7 1 2 -0.06 0.11
-7 1 2 -0.04 0.11
-7 1 2 0.05 0.08
-6 1 2 0.03 0.06
-6 1 2 -0.11 0.08
-6 1 2 0.11 0.1
-5 1 2 2.65 0.18
-5 1 2 2.21 0.14
-5 1 2 2.34 0.19
-4 1 2 0.24 0.05
-4 1 2 0.18 0.08
-4 1 2 0.18 0.07
-3 1 2 0.68 0.09
-3 1 2 0.77 0.1
-3 1 2 0.58 0.07
-2 1 2 11.46 0.41
-2 1 2 11.77 0.45
-1 1 2 0.54 0.07
0 1 2 1.8 0.1
-1 -1 -2 136.89 4.73
1 1 2 137.24 4.74
2 1 2 0.41 0.04
-5 -1 -2 7.17 0.32
-6 -1 -2 0.05 0.08
-7 -1 -2 -0.02 0.1
-8 2 2 0.13 0.09
-8 2 2 -0.11 0.13
-7 2 2 0.41 0.13
-7 2 2 0.29 0.13
-7 2 2 0.37 0.09
-6 2 2 0.16 0.07
-6 2 2 0.06 0.1
-6 2 2 0.16 0.1
-5 2 2 0.05 0.08
-5 2 2 0.11 0.08
-5 2 2 0.04 0.06
4 -2 -2 0.48 0.08
-4 2 2 0.56 0.08
-4 2 2 0.34 0.08
-4 2 2 0.49 0.09
3 -2 -2 0.16 0.04
-3 2 2 0.16 0.06
-3 2 2 0.13 0.06
-3 2 2 0.2 0.05
2 -2 -2 10.82 0.42
-2 2 2 10.64 0.4
-2 2 2 11.43 0.44
1 -2 -2 14.78 0.55
-1 2 2 15.18 0.57
0 -2 -2 6.23 0.24
0 2 2 5.67 0.25
-1 -2 -2 63.01 2.17
1 2 2 59.84 2.18
1 2 2 63.65 2.17
-2 -2 -2 34.71 1.19
2 2 2 36.4 1.25
-3 -2 -2 26.3 0.89
3 2 2 26.64 0.93
-4 -2 -2 0.48 0.08
-5 -2 -2 0.32 0.09
5 2 2 0.23 0.07
-6 -2 -2 2.28 0.18
6 2 2 2.32 0.18
-7 -2 -2 -0.02 0.09
-8 3 2 0.11 0.15
-8 3 2 -0.14 0.09
-7 3 2 0.03 0.08
-7 3 2 0.22 0.14
-6 3 2 0 0.09
-6 3 2 -0.1 0.09
-6 3 2 0.05 0.07
-5 3 2 0.22 0.07
-5 3 2 0.3 0.1
-5 3 2 0.15 0.09
4 -3 -2 0.52 0.09
-4 3 2 0.52 0.1
-4 3 2 0.45 0.1
-4 3 2 0.52 0.08
-3 3 2 0.2 0.07
-3 3 2 0.23 0.07
-3 3 2 0.31 0.06
2 -3 -2 0.51 0.07
-2 3 2 0.73 0.08
-2 3 2 0.46 0.08
1 -3 -2 0.23 0.05
-1 3 2 0.09 0.05
-1 3 2 0.15 0.04
-1 3 2 0.2 0.05
0 -3 -2 9.83 0.38
0 3 2 9.58 0.39
1 3 2 2.39 0.13
1 3 2 2.07 0.14
-2 -3 -2 8.8 0.33
2 3 2 8.83 0.35
-3 -3 -2 3.16 0.14
3 3 2 3.12 0.15
-4 -3 -2 1.2 0.08
-4 -3 -2 0.79 0.12
4 3 2 1.21 0.08
-5 -3 -2 5.37 0.27
-5 -3 -2 5.06 0.2
5 3 2 5.15 0.21
5 3 2 5.12 0.25
-6 -3 -2 0.22 0.05
6 3 2 0.21 0.08
-8 4 2 0.35 0.12
-8 4 2 0.31 0.18
-7 4 2 0.39 0.16
-7 4 2 0.44 0.11
-6 4 2 0.13 0.12
-6 4 2 0.14 0.08
-6 4 2 0.11 0.12
-5 4 2 0.16 0.11
-5 4 2 0.27 0.09
-5 4 2 0.14 0.09
-4 4 2 1.4 0.15
-4 4 2 1.6 0.14
-4 4 2 1.47 0.17
-3 4 2 0.02 0.06
-3 4 2 0.04 0.05
-3 4 2 0.01 0.06
-2 4 2 0.07 0.03
-2 4 2 0.03 0.05
-2 4 2 0.1 0.06
-2 4 2 0.04 0.04
-2 4 2 0.06 0.05
1 -4 -2 11.98 0.48
-1 4 2 11.68 0.45
-1 4 2 12.23 0.48
-1 4 2 12.2 0.49
0 4 2 5.64 0.25
0 4 2 4.04 0.22
-1 -4 -2 10.16 0.38
1 4 2 9.43 0.41
1 4 2 9.93 0.4
-2 -4 -2 1.73 0.12
2 4 2 2 0.12
-3 -4 -2 0.4 0.07
-3 -4 -2 0.37 0.06
3 4 2 0.39 0.06
-4 -4 -2 0.89 0.09
-4 -4 -2 0.62 0.09
4 4 2 0.9 0.08
4 4 2 0.87 0.11
-5 -4 -2 1.48 0.11
-5 -4 -2 1.39 0.16
5 4 2 1.33 0.1
5 4 2 1.47 0.14
-6 -4 -2 0.04 0.05
-6 -4 -2 0.12 0.09
6 4 2 0.02 0.04
6 4 2 0.05 0.08
-7 -4 -2 2.46 0.14
-8 5 2 -0.03 0.13
-7 5 2 0.06 0.09
-7 5 2 -0.02 0.13
-6 5 2 0.93 0.18
-6 5 2 0.95 0.15
-5 5 2 0.52 0.11
-5 5 2 0.47 0.14
-5 5 2 0.19 0.11
-4 5 2 0.13 0.09
-4 5 2 0.14 0.08
-4 5 2 0.18 0.09
3 -5 -2 -0.06 0.05
-3 5 2 0.01 0.07
-3 5 2 -0.03 0.07
-3 5 2 0.04 0.06
2 -5 -2 0.39 0.07
-2 5 2 0.25 0.05
-2 5 2 0.27 0.08
-2 5 2 0.36 0.09
-2 5 2 0.42 0.08
1 -5 -2 1.77 0.14
-1 5 2 1.58 0.15
-1 5 2 1.97 0.15
-1 5 2 1.87 0.15
-1 5 2 1.61 0.14
-1 5 2 1.73 0.11
0 5 2 5.43 0.25
0 5 2 5.19 0.24
0 5 2 4.79 0.25
0 5 2 5.76 0.28
0 5 2 5.52 0.26
-1 -5 -2 5.74 0.26
1 5 2 5.87 0.27
1 5 2 5.38 0.26
1 5 2 5.74 0.29
-2 -5 -2 4.42 0.23
-2 -5 -2 4.82 0.22
2 5 2 4.6 0.23
-3 -5 -2 4.04 0.21
-3 -5 -2 4.15 0.23
3 5 2 4.08 0.22
3 5 2 4.23 0.21
-4 -5 -2 5.13 0.24
-4 -5 -2 5.02 0.26
4 5 2 4.97 0.26
4 5 2 4.91 0.24
-5 -5 -2 0.95 0.13
-5 -5 -2 0.76 0.11
5 5 2 1.04 0.1
5 5 2 0.97 0.15
-6 -5 -2 0.07 0.06
-6 -5 -2 0.23 0.11
-7 -5 -2 0.04 0.06
-8 -5 -2 0.18 0.07
-9 -5 -2 0.22 0.08
-7 6 2 0.01 0.12
-7 6 2 -0.04 0.14
-6 6 2 0.27 0.16
-6 6 2 0.36 0.13
-5 6 2 0 0.12
-5 6 2 0.36 0.11
-4 6 2 1.91 0.21
-4 6 2 1.63 0.17
-4 6 2 1.44 0.18
3 -6 -2 -0.22 0.07
-3 6 2 -0.02 0.08
-3 6 2 0.04 0.08
-3 6 2 -0.08 0.07
2 -6 -2 0.38 0.08
-2 6 2 0.31 0.1
-2 6 2 0.35 0.06
-2 6 2 0.27 0.09
-2 6 2 0.38 0.09
1 -6 -2 1.8 0.15
1 -6 -2 1.74 0.15
-1 6 2 1.98 0.17
-1 6 2 1.92 0.15
-1 6 2 1.9 0.16
-1 6 2 1.89 0.12
-1 6 2 1.88 0.16
0 -6 -2 0.11 0.06
0 6 2 0.01 0.05
0 6 2 0.05 0.04
0 6 2 0.02 0.06
0 6 2 0.04 0.05
0 6 2 0.03 0.07
-1 -6 -2 3.87 0.21
-1 -6 -2 3.76 0.21
1 6 2 3.84 0.24
1 6 2 3.63 0.23
1 6 2 4.02 0.23
1 6 2 3.77 0.22
-2 -6 -2 2.94 0.19
-2 -6 -2 3 0.19
2 6 2 3.08 0.2
2 6 2 2.84 0.19
2 6 2 3.37 0.22
2 6 2 3.04 0.19
-3 -6 -2 6.63 0.32
-3 -6 -2 6.92 0.31
3 6 2 6.39 0.32
3 6 2 6.37 0.29
3 6 2 6.36 0.31
-4 -6 -2 1.99 0.16
-4 -6 -2 1.44 0.17
4 6 2 2.07 0.17
4 6 2 1.78 0.14
-5 -6 -2 2.81 0.18
-5 -6 -2 2.58 0.2
5 6 2 1.97 0.16
5 6 2 2.35 0.2
-6 -6 -2 4.86 0.3
-6 -6 -2 3.92 0.23
-7 -6 -2 1.21 0.14
-8 -6 -2 -0.04 0.08
-6 7 2 0.14 0.16
-6 7 2 0.01 0.11
-5 7 2 0.05 0.11
-5 7 2 0.1 0.13
4 -7 -2 1.1 0.15
-4 7 2 0.9 0.17
-4 7 2 0.6 0.14
3 -7 -2 0.03 0.09
-3 7 2 -0.17 0.08
-3 7 2 0.08 0.1
-3 7 2 0.09 0.1
2 -7 -2 5.49 0.28
-2 7 2 5.53 0.32
-2 7 2 5.27 0.31
-2 7 2 6.08 0.32
-1 7 2 0.02 0.08
-1 7 2 -0.01 0.07
-1 7 2 0.05 0.05
0 -7 -2 0.01 0.06
0 7 2 0.04 0.07
0 7 2 -0.01 0.06
0 7 2 -0.05 0.04
0 7 2 -0.03 0.08
-1 -7 -2 5.62 0.28
1 7 2 5.31 0.3
1 7 2 5.67 0.25
1 7 2 5.66 0.3
1 7 2 5.22 0.32
1 7 2 5.95 0.31
-2 -7 -2 0.98 0.14
-2 -7 -2 0.9 0.13
2 7 2 0.9 0.13
2 7 2 0.74 0.1
2 7 2 1.05 0.16
2 7 2 0.85 0.14
-3 -7 -2 0.04 0.08
-3 -7 -2 0 0.07
3 7 2 0.16 0.07
3 7 2 0.17 0.09
3 7 2 0.11 0.07
-4 -7 -2 0.09 0.08
-4 -7 -2 0.15 0.1
4 7 2 0.13 0.06
4 7 2 0.25 0.1
-5 -7 -2 3.59 0.25
-5 -7 -2 3.24 0.23
5 7 2 3.48 0.25
-6 -7 -2 0.1 0.13
-6 -7 -2 0.23 0.09
-8 -7 -2 0.16 0.1
-6 8 2 0 0.12
-6 8 2 0.21 0.18
5 -8 -2 0.03 0.11
-5 8 2 0.13 0.14
-5 8 2 0 0.14
4 -8 -2 0.07 0.11
-4 8 2 -0.01 0.11
-4 8 2 0.16 0.13
3 -8 -2 -0.1 0.1
-3 8 2 0.1 0.11
-3 8 2 0.02 0.11
2 -8 -2 1.51 0.18
-2 8 2 1.41 0.21
-2 8 2 1.1 0.17
-2 8 2 1.12 0.12
-1 8 2 0.22 0.11
-1 8 2 0.11 0.06
-1 8 2 0.08 0.09
0 8 2 4.58 0.3
0 8 2 4.14 0.21
0 8 2 4.37 0.29
0 8 2 4.66 0.27
-1 -8 -2 0.21 0.09
1 8 2 0.21 0.08
1 8 2 0.15 0.06
1 8 2 0.27 0.1
1 8 2 0.33 0.12
-2 -8 -2 0.54 0.12
-2 -8 -2 0.64 0.11
2 8 2 0.53 0.12
2 8 2 0.65 0.11
2 8 2 0.59 0.15
2 8 2 0.75 0.14
-3 -8 -2 1.87 0.19
-3 -8 -2 1.75 0.18
3 8 2 1.8 0.2
3 8 2 1.42 0.16
3 8 2 1.91 0.2
3 8 2 1.72 0.21
-4 -8 -2 0.04 0.09
-4 -8 -2 0.1 0.09
4 8 2 -0.07 0.07
4 8 2 0.07 0.11
-5 -8 -2 -0.2 0.1
-5 -8 -2 -0.01 0.09
-6 -8 -2 0.21 0.13
-6 -8 -2 0.15 0.11
-7 -8 -2 0.51 0.13
5 -9 -2 0.18 0.13
-5 9 2 0.22 0.16
-5 9 2 0.19 0.14
4 -9 -2 -0.01 0.11
-4 9 2 0.06 0.13
-4 9 2 0.06 0.13
3 -9 -2 0.06 0.11
-3 9 2 -0.07 0.13
-2 9 2 0.09 0.13
-1 9 2 0 0.11
-1 9 2 0.13 0.12
-1 9 2 0.02 0.07
0 9 2 1.33 0.13
0 9 2 1.33 0.21
0 9 2 1.67 0.21
0 9 2 1.02 0.18
1 9 2 0.07 0.12
1 9 2 0.18 0.13
1 9 2 0.13 0.07
1 9 2 0.31 0.1
-2 -9 -2 3.79 0.25
2 9 2 3.67 0.29
2 9 2 4.31 0.3
2 9 2 4.11 0.3
-3 -9 -2 0.99 0.17
-3 -9 -2 0.73 0.14
3 9 2 1 0.18
3 9 2 0.64 0.14
3 9 2 1.1 0.19
3 9 2 1.6 0.24
-4 -9 -2 0.12 0.1
-4 -9 -2 -0.02 0.1
4 9 2 0.16 0.13
4 9 2 0.3 0.14
4 9 2 0.04 0.09
-5 -9 -2 0.17 0.12
-5 -9 -2 0.13 0.12
-6 -9 -2 0.08 0.14
-6 -9 -2 0.16 0.13
-7 -9 -2 0.1 0.13
-4 10 2 0.27 0.18
-3 10 2 0.26 0.17
-2 10 2 0.1 0.13
-1 10 2 0.07 0.08
-1 10 2 -0.02 0.13
0 10 2 0.28 0.09
0 10 2 0.4 0.16
0 10 2 0.38 0.15
1 10 2 -0.03 0.13
1 10 2 0.04 0.1
1 10 2 0.21 0.14
1 10 2 0.06 0.08
2 10 2 0.23 0.11
2 10 2 0.48 0.16
2 10 2 0.24 0.15
-3 -10 -2 0.35 0.13
3 10 2 0.59 0.17
3 10 2 0.45 0.12
3 10 2 0.83 0.19
-4 -10 -2 1.44 0.21
4 10 2 1.77 0.25
4 10 2 2.78 0.28
4 10 2 1.81 0.24
-5 -10 -2 0.23 0.14
-5 -10 -2 0.27 0.14
5 10 2 0.29 0.11
-6 -10 -2 0.28 0.15
-6 -10 -2 0.07 0.12
-2 11 2 -0.06 0.17
-1 11 2 -0.05 0.15
0 11 2 0.13 0.09
0 11 2 -0.16 0.14
1 11 2 0 0.12
1 11 2 0.09 0.11
1 11 2 0.07 0.16
1 11 2 -0.13 0.15
2 11 2 0.19 0.16
2 11 2 0.14 0.13
2 11 2 -0.06 0.15
3 11 2 -0.21 0.14
3 11 2 0.09 0.12
-4 -11 -2 -0.09 0.12
4 11 2 0.23 0.12
1 12 2 0.33 0.13
3 10 -3 0.09 0.13
3 10 -3 -0.23 0.13
2 10 -3 0.19 0.12
2 10 -3 0.26 0.17
1 10 -3 0.08 0.15
1 10 -3 0.07 0.11
0 10 -3 0.94 0.21
-1 10 -3 0.06 0.14
-2 10 -3 0.5 0.2
2 -10 3 0.61 0.16
5 9 -3 1.23 0.24
5 9 -3 2.04 0.27
-5 -9 3 0.58 0.16
4 9 -3 -0.02 0.14
4 9 -3 0.15 0.1
3 9 -3 0 0.15
3 9 -3 0.06 0.09
2 9 -3 0.07 0.1
2 9 -3 0.17 0.13
1 9 -3 -0.09 0.12
1 9 -3 0.21 0.12
0 9 -3 0.44 0.15
-1 9 -3 0.25 0.16
1 -9 3 0.23 0.12
-2 9 -3 0.84 0.21
2 -9 3 0.82 0.15
-3 9 -3 0.27 0.16
3 -9 3 0.13 0.12
-4 9 -3 0.69 0.2
4 -9 3 0.81 0.16
6 8 -3 0.97 0.21
-6 -8 3 0.65 0.15
5 8 -3 6.09 0.4
-5 -8 3 6.07 0.36
4 8 -3 1.74 0.22
4 8 -3 1.43 0.23
-4 -8 3 1.64 0.21
3 8 -3 6.73 0.35
3 8 -3 6.23 0.4
2 8 -3 0.12 0.08
2 8 -3 -0.04 0.11
1 8 -3 0.21 0.1
1 8 -3 0.18 0.12
0 8 -3 0.03 0.12
0 8 -3 0.05 0.08
-1 8 -3 -0.08 0.1
1 -8 3 0 0.1
-2 8 -3 0.44 0.16
2 -8 3 0.28 0.11
-3 8 -3 0.24 0.14
3 -8 3 0.1 0.1
-4 8 -3 0.16 0.15
-4 8 -3 0.3 0.13
4 -8 3 0.3 0.12
-5 8 -3 0.07 0.12
-5 8 -3 -0.09 0.14
5 -8 3 0.08 0.1
7 7 -3 0.04 0.14
-7 -7 3 0.22 0.13
6 7 -3 -0.07 0.12
-6 -7 3 0.03 0.12
5 7 -3 4.93 0.35
-5 -7 3 4.94 0.31
4 7 -3 1.7 0.22
-4 -7 3 1.21 0.19
3 7 -3 19.44 0.84
3 7 -3 20.06 0.76
-3 -7 3 20.15 0.79
2 7 -3 3.82 0.25
2 7 -3 3.53 0.25
2 7 -3 3.6 0.28
1 7 -3 11.9 0.48
1 7 -3 11.2 0.43
1 7 -3 11.38 0.54
-1 -7 3 10.59 0.49
0 7 -3 0.06 0.08
0 7 -3 0.11 0.12
0 -7 3 0.08 0.08
0 -7 3 0.09 0.09
-1 7 -3 0.22 0.11
1 -7 3 0.05 0.08
-2 7 -3 0.29 0.11
2 -7 3 0.27 0.1
-3 7 -3 -0.02 0.1
-3 7 -3 0.01 0.08
3 -7 3 0.13 0.09
-4 7 -3 0.21 0.12
-4 7 -3 0.35 0.14
4 -7 3 0.1 0.09
-5 7 -3 -0.12 0.11
-5 7 -3 0.05 0.13
5 -7 3 -0.11 0.09
-6 7 -3 0.33 0.16
-6 7 -3 0.13 0.11
7 6 -3 0.15 0.14
-7 -6 3 -0.03 0.12
6 6 -3 -0.1 0.13
-6 -6 3 0.03 0.11
5 6 -3 0.02 0.12
-5 -6 3 0.16 0.12
4 6 -3 0.01 0.1
-4 -6 3 0.14 0.1
3 6 -3 1.08 0.14
3 6 -3 1.32 0.18
-3 -6 3 1.66 0.17
2 6 -3 4.03 0.25
2 6 -3 4.32 0.25
2 6 -3 4.28 0.28
-2 -6 3 4.88 0.27
-2 -6 3 4.46 0.26
1 6 -3 21.88 0.8
1 6 -3 22.29 0.72
1 6 -3 21.38 0.86
1 6 -3 21.98 0.87
-1 -6 3 20.78 0.82
0 6 -3 3.84 0.27
0 6 -3 3.96 0.25
0 6 -3 4.22 0.24
0 -6 3 4.26 0.22
0 -6 3 3.82 0.23
-1 6 -3 15.33 0.65
1 -6 3 15.63 0.57
1 -6 3 14.49 0.59
-2 6 -3 0.32 0.1
-2 6 -3 0.18 0.12
2 -6 3 0.36 0.09
-3 6 -3 -0.06 0.07
-3 6 -3 0.05 0.1
3 -6 3 -0.06 0.07
-4 6 -3 0.47 0.11
-4 6 -3 0.32 0.12
4 -6 3 0.56 0.11
-5 6 -3 -0.05 0.11
-5 6 -3 0.02 0.1
-6 6 -3 0.08 0.1
-6 6 -3 0.03 0.14
-7 6 -3 0.03 0.11
-7 6 -3 0.03 0.15
8 5 -3 2.15 0.26
7 5 -3 0.26 0.14
-7 -5 3 -0.07 0.1
6 5 -3 0.01 0.12
-6 -5 3 0.06 0.1
5 5 -3 0.98 0.17
-5 -5 3 0.79 0.14
4 5 -3 0.05 0.1
4 5 -3 0.04 0.06
-4 -5 3 0.07 0.08
3 5 -3 1.66 0.15
3 5 -3 1.99 0.19
-3 -5 3 2.19 0.17
2 5 -3 -0.02 0.05
2 5 -3 0.04 0.07
-2 -5 3 0.1 0.07
-2 -5 3 -0.01 0.07
1 5 -3 0.08 0.05
1 5 -3 0.04 0.06
1 5 -3 0.04 0.07
1 5 -3 0.03 0.05
-1 -5 3 0.03 0.07
-1 -5 3 0.06 0.07
0 5 -3 0.56 0.08
0 5 -3 0.94 0.14
0 5 -3 0.65 0.1
0 -5 3 0.99 0.12
0 -5 3 0.53 0.07
-1 5 -3 15.79 0.66
-1 5 -3 16.59 0.63
-1 5 -3 16.94 0.62
-1 5 -3 15.95 0.59
1 -5 3 15.69 0.61
1 -5 3 15.65 0.59
-2 5 -3 2.87 0.23
-2 5 -3 3.56 0.21
2 -5 3 3.32 0.19
-3 5 -3 9.81 0.46
-3 5 -3 9.08 0.41
3 -5 3 10.1 0.4
-4 5 -3 0.1 0.09
-4 5 -3 0.01 0.1
-5 5 -3 0.33 0.11
-5 5 -3 0.28 0.13
-6 5 -3 0.2 0.11
-6 5 -3 0.46 0.15
-7 5 -3 -0.02 0.15
-7 5 -3 0.05 0.09
-8 5 -3 -0.15 0.15
-8 5 -3 0.04 0.11
8 4 -3 0.12 0.16
-8 -4 3 0 0.1
7 4 -3 0.22 0.15
-7 -4 3 0.11 0.09
6 4 -3 2.74 0.25
-6 -4 3 2.19 0.18
5 4 -3 0.6 0.13
5 4 -3 0.6 0.1
-5 -4 3 0.61 0.11
4 4 -3 0.12 0.09
4 4 -3 0.03 0.05
-4 -4 3 0.13 0.08
3 4 -3 2.7 0.17
3 4 -3 2.51 0.2
-3 -4 3 2.76 0.17
-3 -4 3 2.52 0.19
2 4 -3 3.34 0.22
2 4 -3 3.19 0.19
-2 -4 3 3.26 0.2
-2 -4 3 3.63 0.2
1 4 -3 0 0.05
1 4 -3 0.01 0.05
-1 -4 3 0.13 0.06
-1 -4 3 0.07 0.07
0 4 -3 0.65 0.11
0 4 -3 0.82 0.1
0 4 -3 0.77 0.12
0 -4 3 0.72 0.1
0 -4 3 0.79 0.11
0 -4 3 0.84 0.1
-1 4 -3 1.42 0.13
-1 4 -3 1.64 0.15
-1 4 -3 1.89 0.14
1 -4 3 1.88 0.13
1 -4 3 1.54 0.13
-2 4 -3 0.37 0.09
-2 4 -3 0.24 0.07
2 -4 3 0.2 0.06
2 -4 3 0.31 0.06
-3 4 -3 7.6 0.36
-3 4 -3 7.27 0.32
3 -4 3 7.31 0.3
-4 4 -3 0.49 0.11
-4 4 -3 0.23 0.08
-5 4 -3 4.25 0.23
-5 4 -3 3.88 0.28
-6 4 -3 -0.03 0.08
-6 4 -3 0.01 0.11
-7 4 -3 0.23 0.14
-7 4 -3 0.12 0.1
-8 4 -3 -0.05 0.14
-8 4 -3 0.05 0.11
8 3 -3 -0.12 0.13
-8 -3 3 0.11 0.09
7 3 -3 -0.05 0.12
-7 -3 3 -0.03 0.08
6 3 -3 -0.02 0.09
-6 -3 3 0.05 0.07
5 3 -3 0.06 0.05
5 3 -3 0.15 0.09
-5 -3 3 0.11 0.07
4 3 -3 4.24 0.26
4 3 -3 3.85 0.21
-4 -3 3 4.32 0.21
3 3 -3 2.19 0.17
3 3 -3 2.43 0.15
-3 -3 3 2.39 0.17
-3 -3 3 2.4 0.15
2 3 -3 1.41 0.14
2 3 -3 1.3 0.11
-2 -3 3 1.48 0.12
-2 -3 3 1.5 0.13
1 3 -3 1.86 0.13
1 3 -3 1.58 0.14
-1 -3 3 1.59 0.13
-1 -3 3 1.7 0.12
0 3 -3 6.48 0.29
0 -3 3 6.81 0.28
-1 3 -3 0.33 0.06
-1 3 -3 0.32 0.05
-1 3 -3 0.53 0.08
1 -3 3 0.46 0.07
1 -3 3 0.23 0.06
-2 3 -3 0.3 0.06
-2 3 -3 0.22 0.07
-2 3 -3 0.28 0.06
-2 3 -3 0.2 0.04
2 -3 3 0.15 0.05
2 -3 3 0.19 0.06
-3 3 -3 0.44 0.08
-3 3 -3 0.27 0.06
3 -3 3 0.33 0.07
-4 3 -3 0.61 0.1
-4 3 -3 0.72 0.12
-5 3 -3 0.51 0.09
-5 3 -3 0.64 0.12
-6 3 -3 -0.06 0.07
-6 3 -3 -0.11 0.09
-7 3 -3 1.18 0.21
-7 3 -3 0.91 0.13
-8 3 -3 0.14 0.14
-8 3 -3 0.19 0.09
8 2 -3 -0.05 0.12
-8 -2 3 -0.01 0.09
7 2 -3 0.06 0.11
-7 -2 3 -0.07 0.08
6 2 -3 0.41 0.12
-6 -2 3 0.41 0.09
5 2 -3 -0.04 0.04
5 2 -3 -0.01 0.07
-5 -2 3 -0.02 0.06
4 2 -3 0.22 0.08
4 2 -3 0.29 0.06
-4 -2 3 0.17 0.06
3 2 -3 3.3 0.17
3 2 -3 3.24 0.2
-3 -2 3 3.6 0.19
-3 -2 3 3.26 0.17
2 2 -3 4.23 0.22
2 2 -3 4.59 0.21
-2 -2 3 4.34 0.21
-2 -2 3 4.22 0.2
1 2 -3 0.44 0.07
-1 -2 3 0.33 0.06
-1 -2 3 0.39 0.07
0 2 -3 0.88 0.09
0 -2 3 0.96 0.1
-1 2 -3 0.91 0.09
-1 2 -3 1.32 0.1
1 -2 3 1.31 0.1
1 -2 3 1.16 0.1
-2 2 -3 6.04 0.26
-2 2 -3 5.87 0.25
2 -2 3 6.02 0.26
2 -2 3 6.12 0.26
-3 2 -3 0.36 0.05
-3 2 -3 0.42 0.06
3 -2 3 0.33 0.06
3 -2 3 0.45 0.07
-4 2 -3 0.86 0.09
-4 2 -3 0.8 0.12
4 -2 3 0.93 0.1
-5 2 -3 0.19 0.06
-5 2 -3 0.08 0.08
-6 2 -3 -0.11 0.06
-6 2 -3 -0.03 0.08
-7 2 -3 0.15 0.07
-7 2 -3 0.09 0.11
-8 2 -3 0.13 0.08
-8 2 -3 -0.1 0.12
-9 2 -3 0.21 0.09
8 1 -3 -0.04 0.11
-8 -1 3 -0.06 0.08
-8 -1 3 0 0.13
7 1 -3 0.41 0.13
-7 -1 3 0.37 0.09
-7 -1 3 0.38 0.13
6 1 -3 1.41 0.17
-6 -1 3 1.38 0.13
-6 -1 3 1.36 0.19
5 1 -3 0.54 0.11
-5 -1 3 0.46 0.08
-5 -1 3 0.23 0.1
-5 -1 3 0.63 0.12
4 1 -3 0.31 0.08
-4 -1 3 0.31 0.1
-4 -1 3 0.32 0.07
-4 -1 3 0.34 0.09
3 1 -3 0.02 0.05
-3 -1 3 0.01 0.04
-3 -1 3 0 0.05
-3 -1 3 0.02 0.06
-3 -1 3 0 0.06
-2 -1 3 1.33 0.1
-2 -1 3 1.43 0.11
-2 -1 3 1.53 0.11
1 1 -3 2.37 0.13
-1 -1 3 2.2 0.13
-1 -1 3 2.12 0.13
0 1 -3 47.03 1.69
0 -1 3 48.6 1.68
0 -1 3 48.22 1.69
-1 1 -3 0.28 0.05
1 -1 3 0.16 0.05
-2 1 -3 1.45 0.1
-2 1 -3 1.68 0.1
2 -1 3 1.43 0.1
-3 1 -3 3.79 0.17
3 -1 3 3.91 0.18
3 -1 3 3.75 0.17
-4 1 -3 1.25 0.09
4 -1 3 1.24 0.11
4 -1 3 1.32 0.09
-5 1 -3 0.35 0.08
-5 1 -3 0.28 0.05
5 -1 3 0.35 0.08
-6 1 -3 0.1 0.05
-6 1 -3 0.05 0.08
-7 1 -3 0.08 0.1
-7 1 -3 -0.05 0.06
-8 1 -3 0.13 0.07
8 0 -3 0.11 0.12
-8 0 3 0.23 0.09
-8 0 3 0 0.13
-7 0 3 0.99 0.18
-7 0 3 0.85 0.12
-7 0 3 0.82 0.16
-6 0 3 0.31 0.09
-6 0 3 0.09 0.1
-6 0 3 0.37 0.11
-5 0 3 0.33 0.1
-5 0 3 0.51 0.12
-5 0 3 0.55 0.08
-4 0 3 2.7 0.18
-4 0 3 2.49 0.15
-4 0 3 2.36 0.18
-3 0 3 8.82 0.38
-3 0 3 8.34 0.33
-3 0 3 8.53 0.37
-3 0 3 8.75 0.34
-2 0 3 9.89 0.37
-2 0 3 9.59 0.37
-2 0 3 10.3 0.41
-1 0 3 2.67 0.14
0 0 3 11.13 0.41
-1 0 -3 13.65 0.52
1 0 3 14.7 0.51
-2 0 -3 10.77 0.39
-2 0 -3 10.27 0.37
2 0 3 10.36 0.39
-3 0 -3 0.22 0.03
3 0 3 0.29 0.05
3 0 3 0.11 0.04
-4 0 -3 0.18 0.03
-4 0 -3 0.22 0.04
4 0 3 0.11 0.03
4 0 3 0.16 0.05
-5 0 -3 0.1 0.06
5 0 3 0.13 0.06
-6 0 -3 -0.01 0.08
6 0 3 -0.03 0.06
-7 0 -3 0.26 0.11
-8 1 3 0.06 0.14
-8 1 3 0.25 0.1
-8 1 3 0.16 0.16
-7 1 3 0.07 0.08
-7 1 3 0.08 0.13
-7 1 3 -0.13 0.11
-6 1 3 0.22 0.11
-6 1 3 0.33 0.09
-6 1 3 0.42 0.12
-5 1 3 0.12 0.09
-5 1 3 0.18 0.07
-5 1 3 0.07 0.09
-4 1 3 0.06 0.07
-4 1 3 0.06 0.05
-4 1 3 0.22 0.07
-3 1 3 0.12 0.05
-3 1 3 0.26 0.07
-3 1 3 0.17 0.06
-2 1 3 2.11 0.13
-2 1 3 1.62 0.12
-1 1 3 101.18 3.53
0 1 3 16.92 0.62
1 1 3 128.41 4.45
-2 -1 -3 25.08 0.86
-2 -1 -3 23.46 0.82
-3 -1 -3 3.69 0.15
3 1 3 3.74 0.18
-5 -1 -3 4.77 0.23
-6 -1 -3 2.06 0.17
6 1 3 2 0.17
7 1 3 0.38 0.11
-8 2 3 -0.03 0.15
-8 2 3 0.06 0.09
-8 2 3 -0.06 0.14
-7 2 3 0.13 0.13
-7 2 3 0.1 0.08
-7 2 3 0.13 0.13
6 -2 -3 0.03 0.09
-6 2 3 0.07 0.1
-6 2 3 -0.06 0.09
-6 2 3 0.03 0.07
5 -2 -3 1.2 0.16
-5 2 3 1.14 0.16
-5 2 3 0.91 0.12
-5 2 3 1.43 0.16
4 -2 -3 0.48 0.08
-4 2 3 0.62 0.09
-4 2 3 0.79 0.12
-4 2 3 0.7 0.12
3 -2 -3 0.01 0.05
-3 2 3 0.06 0.05
-3 2 3 0.1 0.05
-3 2 3 0.1 0.06
-2 2 3 2.27 0.13
-2 2 3 2.44 0.15
-1 2 3 -0.03 0.04
0 -2 -3 4.74 0.2
0 2 3 4.45 0.21
1 2 3 5.82 0.25
-2 -2 -3 7.37 0.28
2 2 3 7.68 0.29
-3 -2 -3 10.98 0.4
3 2 3 11.56 0.42
-4 -2 -3 4.8 0.18
-4 -2 -3 4.89 0.19
4 2 3 5.01 0.2
-5 -2 -3 0.12 0.06
-5 -2 -3 0.05 0.07
-6 -2 -3 0.03 0.08
-8 3 3 -0.05 0.14
-8 3 3 0.04 0.1
-7 3 3 0.13 0.09
-7 3 3 0.29 0.15
-7 3 3 -0.06 0.11
-6 3 3 -0.04 0.1
-6 3 3 0.03 0.09
-6 3 3 -0.03 0.09
5 -3 -3 0.34 0.1
-5 3 3 0.33 0.11
-5 3 3 0.68 0.1
-5 3 3 0.45 0.11
4 -3 -3 0.29 0.08
-4 3 3 0.32 0.09
-4 3 3 0.36 0.08
-4 3 3 0.47 0.1
3 -3 -3 1.33 0.14
-3 3 3 1.15 0.13
-3 3 3 0.96 0.1
-3 3 3 0.82 0.12
2 -3 -3 0.13 0.05
-2 3 3 0.14 0.06
-2 3 3 0.17 0.05
-2 3 3 0.12 0.06
1 -3 -3 0.05 0.04
-1 3 3 0.09 0.05
-1 3 3 0.11 0.06
0 -3 -3 0.06 0.04
0 3 3 -0.03 0.03
0 3 3 -0.03 0.04
1 3 3 18.43 0.67
1 3 3 17.66 0.68
-2 -3 -3 5.9 0.24
2 3 3 6.12 0.25
-3 -3 -3 0.17 0.04
3 3 3 0.24 0.04
-4 -3 -3 0 0.05
-4 -3 -3 0.08 0.03
4 3 3 0.04 0.03
-5 -3 -3 0.07 0.06
-5 -3 -3 0.06 0.04
5 3 3 0.07 0.03
-6 -3 -3 0.11 0.09
-8 4 3 0.08 0.17
-8 4 3 -0.05 0.11
-7 4 3 0.03 0.12
-7 4 3 -0.07 0.12
-6 4 3 0.2 0.13
-6 4 3 0.17 0.12
-6 4 3 -0.03 0.08
-5 4 3 -0.04 0.09
-5 4 3 0.01 0.07
-5 4 3 -0.06 0.09
4 -4 -3 0.78 0.12
-4 4 3 0.83 0.13
-4 4 3 0.66 0.12
-4 4 3 0.85 0.12
3 -4 -3 7.87 0.36
-3 4 3 8.04 0.37
-3 4 3 8.15 0.38
-3 4 3 8.13 0.34
-2 4 3 0.04 0.06
-2 4 3 0.03 0.03
-2 4 3 0.1 0.06
-2 4 3 0.05 0.05
1 -4 -3 0.9 0.1
-1 4 3 0.72 0.1
-1 4 3 0.73 0.09
-1 4 3 0.9 0.07
-1 4 3 0.93 0.11
0 4 3 4.5 0.22
-1 -4 -3 2.31 0.14
1 4 3 2.45 0.17
1 4 3 2.22 0.14
-2 -4 -3 5.37 0.23
2 4 3 5.35 0.24
2 4 3 4.89 0.26
-3 -4 -3 2.77 0.18
-3 -4 -3 2.98 0.15
3 4 3 3.02 0.16
-4 -4 -3 -0.03 0.05
-4 -4 -3 0.04 0.04
4 4 3 0 0.04
-5 -4 -3 0.37 0.06
-5 -4 -3 0.38 0.09
5 4 3 0.3 0.06
-6 -4 -3 0.61 0.12
-6 -4 -3 0.69 0.08
6 4 3 0.66 0.08
-7 -4 -3 -0.02 0.05
-8 -4 -3 0.07 0.05
-7 5 3 -0.08 0.11
-7 5 3 0.04 0.14
-6 5 3 0.08 0.1
-6 5 3 0.08 0.13
-5 5 3 -0.01 0.1
-5 5 3 -0.02 0.1
-5 5 3 0.01 0.08
-4 5 3 0.12 0.09
-4 5 3 0.2 0.09
-4 5 3 0.26 0.1
3 -5 -3 0.49 0.08
-3 5 3 0.59 0.11
-3 5 3 0.37 0.1
-3 5 3 0.5 0.1
2 -5 -3 0.1 0.06
2 -5 -3 0.09 0.06
-2 5 3 0.1 0.06
-2 5 3 0.12 0.06
-2 5 3 0.11 0.04
-2 5 3 0.06 0.07
-1 5 3 8.75 0.37
-1 5 3 8.71 0.32
-1 5 3 8.63 0.38
-1 5 3 9.39 0.39
-1 5 3 9.14 0.41
0 5 3 2.97 0.19
0 5 3 2.75 0.17
0 5 3 2.84 0.17
-1 -5 -3 0.98 0.11
-1 -5 -3 0.74 0.11
1 5 3 0.97 0.11
1 5 3 0.73 0.12
1 5 3 0.93 0.12
-2 -5 -3 0 0.05
-2 -5 -3 0.05 0.05
2 5 3 0.06 0.06
2 5 3 -0.01 0.04
-3 -5 -3 0.2 0.07
-3 -5 -3 0.14 0.05
3 5 3 0.3 0.06
-4 -5 -3 1.82 0.18
-4 -5 -3 2.24 0.15
4 5 3 2.14 0.16
4 5 3 2.27 0.15
-5 -5 -3 1.59 0.18
-5 -5 -3 1.6 0.13
5 5 3 1.4 0.11
-6 -5 -3 0.08 0.06
-6 -5 -3 0.24 0.1
6 5 3 0.06 0.05
-7 -5 -3 0.2 0.07
-8 -5 -3 0.57 0.09
-9 -5 -3 0.08 0.07
-7 6 3 0.06 0.15
-7 6 3 -0.01 0.12
-6 6 3 0 0.11
-6 6 3 0.04 0.13
-5 6 3 0.14 0.12
-5 6 3 0.22 0.13
-5 6 3 0.21 0.11
-4 6 3 1.11 0.16
-4 6 3 1.47 0.17
-4 6 3 1.41 0.19
3 -6 -3 0.61 0.1
-3 6 3 0.74 0.13
-3 6 3 0.73 0.13
-3 6 3 0.77 0.13
2 -6 -3 2.41 0.17
-2 6 3 2.33 0.19
-2 6 3 2.52 0.18
-2 6 3 2.08 0.13
-2 6 3 2.26 0.19
1 -6 -3 0.92 0.11
-1 6 3 0.82 0.09
-1 6 3 1.02 0.13
-1 6 3 0.97 0.13
-1 6 3 0.92 0.12
0 -6 -3 1.09 0.13
0 6 3 0.96 0.14
0 6 3 0.83 0.13
0 6 3 0.97 0.14
0 6 3 1.13 0.1
-1 -6 -3 0.38 0.08
-1 -6 -3 0.3 0.07
1 6 3 0.1 0.07
1 6 3 0.16 0.07
1 6 3 0.35 0.08
1 6 3 0.29 0.08
-2 -6 -3 8.91 0.4
-2 -6 -3 9.11 0.39
2 6 3 9.03 0.4
2 6 3 9.31 0.41
2 6 3 9.1 0.43
2 6 3 9.5 0.38
-3 -6 -3 0.07 0.06
-3 -6 -3 0.09 0.07
3 6 3 0.12 0.06
3 6 3 0.17 0.08
3 6 3 0.06 0.05
-4 -6 -3 -0.05 0.06
-4 -6 -3 -0.11 0.06
4 6 3 0.01 0.06
4 6 3 -0.03 0.07
-5 -6 -3 1.64 0.19
-5 -6 -3 2.04 0.15
5 6 3 1.81 0.16
-6 -6 -3 1.19 0.19
-6 -6 -3 0.89 0.13
-7 -6 -3 -0.09 0.06
-7 -6 -3 0.03 0.12
-8 -6 -3 -0.1 0.07
-9 -6 -3 -0.02 0.07
-6 7 3 -0.1 0.1
-6 7 3 -0.14 0.13
-5 7 3 -0.06 0.12
-5 7 3 -0.07 0.11
4 -7 -3 -0.03 0.09
-4 7 3 -0.1 0.1
-4 7 3 -0.08 0.1
-4 7 3 0.05 0.1
3 -7 -3 0.1 0.09
-3 7 3 0.06 0.09
-3 7 3 0 0.09
-3 7 3 0.06 0.1
2 -7 -3 0.76 0.12
-2 7 3 0.8 0.1
-2 7 3 1 0.16
-2 7 3 0.82 0.14
-2 7 3 0.82 0.14
-1 7 3 -0.06 0.04
-1 7 3 0.05 0.07
-1 7 3 0.08 0.09
0 -7 -3 1.03 0.14
0 7 3 1.24 0.12
0 7 3 0.97 0.16
0 7 3 1 0.15
0 7 3 0.97 0.11
-1 -7 -3 0.02 0.07
1 7 3 0.02 0.05
1 7 3 0.04 0.07
1 7 3 0.06 0.08
1 7 3 -0.06 0.06
1 7 3 0 0.06
-2 -7 -3 0.36 0.1
-2 -7 -3 0.23 0.08
2 7 3 0.28 0.08
2 7 3 0.29 0.09
2 7 3 0.43 0.1
2 7 3 0.25 0.11
-3 -7 -3 0.19 0.08
-3 -7 -3 0.13 0.08
3 7 3 0.26 0.1
3 7 3 0.19 0.07
3 7 3 0.23 0.09
3 7 3 0.2 0.08
-4 -7 -3 0.03 0.07
-4 -7 -3 0.09 0.08
4 7 3 0.21 0.08
-5 -7 -3 0.05 0.07
-5 -7 -3 0.26 0.1
-6 -7 -3 -0.01 0.12
-6 -7 -3 0.09 0.08
-7 -7 -3 0.38 0.1
-7 -7 -3 0.63 0.16
-8 -7 -3 -0.1 0.07
-6 8 3 -0.09 0.11
-6 8 3 -0.22 0.14
5 -8 -3 -0.12 0.11
-5 8 3 0.08 0.13
-5 8 3 0.1 0.14
4 -8 -3 0.12 0.11
-4 8 3 -0.01 0.12
-4 8 3 -0.04 0.12
3 -8 -3 0.07 0.11
-3 8 3 0 0.1
-3 8 3 0.21 0.11
-3 8 3 -0.05 0.11
-2 8 3 -0.05 0.09
-2 8 3 0.04 0.1
-2 8 3 0.02 0.06
-1 8 3 0.04 0.06
-1 8 3 0.05 0.09
-1 8 3 0.15 0.1
0 -8 -3 2.41 0.19
0 8 3 2.43 0.16
0 8 3 2.46 0.22
0 8 3 2.52 0.22
0 8 3 2.6 0.21
-1 -8 -3 0.32 0.1
1 8 3 0.34 0.13
1 8 3 0.12 0.08
1 8 3 0.14 0.07
1 8 3 0.12 0.09
-2 -8 -3 0.11 0.09
-2 -8 -3 -0.08 0.07
2 8 3 0.07 0.1
2 8 3 -0.03 0.07
2 8 3 0.06 0.08
2 8 3 -0.09 0.07
-3 -8 -3 0.23 0.1
-3 -8 -3 0.44 0.11
3 8 3 0.31 0.12
3 8 3 0.2 0.09
3 8 3 0.52 0.13
3 8 3 0.33 0.1
-4 -8 -3 0.25 0.1
-4 -8 -3 -0.06 0.09
4 8 3 0.01 0.1
4 8 3 0.03 0.08
4 8 3 0.11 0.1
-5 -8 -3 0.2 0.11
-5 -8 -3 0.1 0.1
-6 -8 -3 0.13 0.13
-6 -8 -3 0.06 0.1
-7 -8 -3 -0.15 0.14
-7 -8 -3 0.1 0.1
-8 -8 -3 0.11 0.1
5 -9 -3 0.18 0.13
-5 9 3 0 0.12
-5 9 3 -0.07 0.14
4 -9 -3 0.11 0.12
-4 9 3 -0.05 0.14
-4 9 3 0.14 0.13
-3 9 3 -0.08 0.11
-2 9 3 0 0.06
-2 9 3 0.06 0.12
-2 9 3 0.03 0.12
-1 9 3 0.2 0.08
-1 9 3 0.14 0.12
-1 9 3 0.07 0.11
0 9 3 0.14 0.12
0 9 3 0.18 0.07
0 9 3 0.45 0.14
0 9 3 0.31 0.09
-1 -9 -3 0.05 0.09
1 9 3 -0.07 0.1
1 9 3 0.29 0.12
1 9 3 0.03 0.06
1 9 3 0.14 0.09
-2 -9 -3 3.11 0.23
2 9 3 2.36 0.24
2 9 3 2.94 0.27
2 9 3 3.05 0.26
-3 -9 -3 0.11 0.1
-3 -9 -3 0.11 0.1
3 9 3 0.16 0.1
3 9 3 0.08 0.11
3 9 3 0.1 0.1
3 9 3 0.15 0.13
-4 -9 -3 0.68 0.14
-4 -9 -3 1.2 0.19
4 9 3 0.88 0.17
4 9 3 1.49 0.24
-5 -9 -3 0.01 0.11
-5 -9 -3 0.06 0.11
5 9 3 0.08 0.13
-6 -9 -3 0.16 0.14
-6 -9 -3 -0.11 0.11
-7 -9 -3 0.26 0.16
-7 -9 -3 0.05 0.13
-4 10 3 -0.02 0.16
-3 10 3 0.41 0.16
-2 10 3 -0.03 0.13
-1 10 3 -0.07 0.13
-1 10 3 0.05 0.14
-1 10 3 0.11 0.08
0 10 3 0.21 0.15
0 10 3 -0.07 0.12
0 10 3 -0.03 0.07
1 10 3 0.23 0.15
1 10 3 0.34 0.12
1 10 3 0.19 0.09
1 10 3 0.11 0.14
-2 -10 -3 0.23 0.11
2 10 3 0.21 0.11
2 10 3 0.19 0.14
2 10 3 0.19 0.13
-3 -10 -3 0.14 0.11
3 10 3 0.01 0.12
3 10 3 -0.1 0.12
3 10 3 0.1 0.09
-4 -10 -3 3.3 0.26
-4 -10 -3 2.55 0.24
4 10 3 3.66 0.3
4 10 3 2.77 0.29
-5 -10 -3 0.3 0.14
-5 -10 -3 0.2 0.13
5 10 3 0.24 0.12
-6 -10 -3 0.49 0.17
-6 -10 -3 0.84 0.18
-2 11 3 0.38 0.19
-1 11 3 0.55 0.18
-1 11 3 0.19 0.09
0 11 3 0 0.09
0 11 3 0.11 0.16
0 11 3 -0.08 0.14
1 11 3 0.03 0.09
1 11 3 0.03 0.14
1 11 3 0.08 0.13
1 11 3 0.05 0.16
2 11 3 -0.1 0.14
2 11 3 -0.12 0.14
2 11 3 0.14 0.13
-3 -11 -3 0.15 0.13
3 11 3 0.23 0.13
-4 -11 -3 -0.11 0.11
4 11 3 -0.07 0.1
-5 -11 -3 -0.03 0.13
5 11 3 0.15 0.11
0 12 3 0.16 0.11
1 12 3 1.62 0.26
2 12 3 0.28 0.17
2 12 3 0.11 0.12
2 10 -4 0.18 0.13
2 10 -4 -0.14 0.15
1 10 -4 0.1 0.15
0 10 -4 0.19 0.16
-1 10 -4 0.25 0.18
-2 10 -4 0.15 0.18
2 -10 4 0.15 0.14
4 9 -4 0.11 0.1
4 9 -4 0.18 0.18
3 9 -4 0.15 0.11
3 9 -4 -0.05 0.14
2 9 -4 0.18 0.15
2 9 -4 0.13 0.11
1 9 -4 0.1 0.14
1 9 -4 0.31 0.14
0 9 -4 0.31 0.16
-1 9 -4 -0.04 0.14
1 -9 4 -0.03 0.11
-2 9 -4 -0.06 0.14
2 -9 4 0.2 0.12
-3 9 -4 -0.09 0.15
3 -9 4 0.07 0.13
-4 9 -4 -0.14 0.16
4 -9 4 0.28 0.13
5 8 -4 0.78 0.19
-5 -8 4 0.56 0.15
4 8 -4 0.04 0.1
4 8 -4 -0.13 0.13
-4 -8 4 0.11 0.12
3 8 -4 0.06 0.08
3 8 -4 0.01 0.14
2 8 -4 0.04 0.09
2 8 -4 0.04 0.13
1 8 -4 -0.01 0.11
1 8 -4 0.03 0.09
-1 -8 4 0.06 0.11
0 8 -4 0.08 0.09
0 8 -4 0.1 0.12
0 -8 4 0.15 0.11
-1 8 -4 0.48 0.16
1 -8 4 0.59 0.12
-2 8 -4 0.04 0.13
2 -8 4 0.27 0.11
-3 8 -4 0.14 0.14
3 -8 4 0.01 0.09
-4 8 -4 0.23 0.16
4 -8 4 0.31 0.12
-5 8 -4 0.12 0.16
-5 8 -4 0.15 0.14
5 -8 4 -0.16 0.1
6 7 -4 -0.02 0.13
-6 -7 4 -0.01 0.11
5 7 -4 0.11 0.13
-5 -7 4 -0.1 0.11
4 7 -4 -0.03 0.11
-4 -7 4 0.01 0.14
3 7 -4 3.35 0.28
-3 -7 4 3.24 0.26
2 7 -4 0.65 0.16
2 7 -4 0.64 0.1
-2 -7 4 0.56 0.15
1 7 -4 4.46 0.31
1 7 -4 4.71 0.28
-1 -7 4 3.3 0.26
0 7 -4 0.01 0.1
0 7 -4 0 0.08
0 -7 4 0.06 0.11
0 -7 4 0.1 0.08
-1 7 -4 0.3 0.12
1 -7 4 0.02 0.08
-2 7 -4 0.36 0.13
2 -7 4 0.26 0.09
-3 7 -4 0.33 0.13
3 -7 4 0.2 0.1
-4 7 -4 0.05 0.1
-4 7 -4 -0.1 0.11
4 -7 4 0.02 0.09
-5 7 -4 0.29 0.12
-5 7 -4 -0.03 0.12
5 -7 4 0.06 0.1
-6 7 -4 0.19 0.16
-6 7 -4 0.11 0.12
7 6 -4 0.04 0.14
-7 -6 4 0.09 0.13
6 6 -4 -0.04 0.14
-6 -6 4 -0.07 0.11
5 6 -4 0.04 0.12
-5 -6 4 0.06 0.11
4 6 -4 0.26 0.13
-4 -6 4 0.21 0.13
3 6 -4 0.12 0.1
3 6 -4 0.14 0.09
-3 -6 4 0.26 0.12
2 6 -4 0.42 0.12
2 6 -4 0.36 0.1
-2 -6 4 0.09 0.1
-2 -6 4 0.1 0.1
1 6 -4 11.43 0.47
1 6 -4 11.05 0.52
-1 -6 4 11.08 0.49
0 6 -4 4.53 0.3
0 6 -4 4.44 0.27
0 -6 4 4.75 0.24
0 -6 4 3.98 0.25
-1 6 -4 14.74 0.64
1 -6 4 14.57 0.56
-2 6 -4 1.05 0.17
-2 6 -4 0.99 0.16
2 -6 4 1.14 0.15
-3 6 -4 0.75 0.13
-3 6 -4 0.35 0.12
3 -6 4 1.23 0.16
-4 6 -4 -0.02 0.09
-4 6 -4 0.06 0.1
4 -6 4 -0.09 0.09
-5 6 -4 -0.05 0.11
-5 6 -4 0.24 0.12
-6 6 -4 -0.02 0.11
-6 6 -4 -0.12 0.12
-7 6 -4 0.14 0.13
-7 6 -4 0.18 0.16
7 5 -4 0.91 0.19
-7 -5 4 0.19 0.12
6 5 -4 2.4 0.25
-6 -5 4 1.7 0.19
5 5 -4 0.26 0.13
-5 -5 4 0.15 0.09
4 5 -4 0.26 0.09
4 5 -4 0.33 0.12
-4 -5 4 0.42 0.12
3 5 -4 0.27 0.1
3 5 -4 0.39 0.09
-3 -5 4 0.48 0.12
-3 -5 4 0.42 0.11
2 5 -4 0.14 0.08
2 5 -4 -0.06 0.05
-2 -5 4 0.08 0.09
-2 -5 4 -0.05 0.08
1 5 -4 2.1 0.19
1 5 -4 1.68 0.17
1 5 -4 1.67 0.16
-1 -5 4 1.71 0.16
-1 -5 4 2.14 0.19
0 5 -4 0.04 0.07
0 5 -4 0.1 0.06
0 5 -4 0.05 0.06
0 -5 4 0.06 0.08
0 -5 4 0 0.06
-1 5 -4 18.48 0.67
-1 5 -4 17.15 0.7
-1 5 -4 17.07 0.63
1 -5 4 17.52 0.63
1 -5 4 15.74 0.65
-2 5 -4 4.21 0.26
-2 5 -4 3.86 0.24
2 -5 4 4.34 0.23
-3 5 -4 27.16 1.01
-3 5 -4 27.56 1.07
3 -5 4 28.17 0.99
-4 5 -4 2.55 0.23
-4 5 -4 2.39 0.19
-5 5 -4 1.83 0.17
-5 5 -4 1.87 0.22
-6 5 -4 -0.14 0.09
-6 5 -4 -0.06 0.11
-7 5 -4 0.15 0.11
-7 5 -4 -0.18 0.14
8 4 -4 0.13 0.15
-8 -4 4 0.04 0.11
7 4 -4 0.19 0.14
-7 -4 4 0.47 0.11
6 4 -4 2.94 0.26
-6 -4 4 2.56 0.2
5 4 -4 1.26 0.18
-5 -4 4 0.85 0.14
4 4 -4 6.2 0.33
4 4 -4 5.67 0.3
-4 -4 4 6.24 0.3
3 4 -4 1.63 0.18
3 4 -4 1.51 0.14
-3 -4 4 1.68 0.15
-3 -4 4 1.33 0.15
2 4 -4 0.22 0.07
2 4 -4 0.16 0.08
-2 -4 4 0.18 0.07
-2 -4 4 0.19 0.08
1 4 -4 1.04 0.11
1 4 -4 0.8 0.13
-1 -4 4 0.89 0.11
-1 -4 4 0.87 0.13
0 4 -4 0.99 0.12
0 4 -4 0.92 0.12
0 4 -4 0.97 0.14
0 -4 4 1.17 0.12
0 -4 4 1.04 0.12
0 -4 4 1.07 0.11
-1 4 -4 0.76 0.09
-1 4 -4 0.94 0.11
-1 4 -4 0.92 0.11
-1 4 -4 0.83 0.12
-1 4 -4 1.04 0.14
-1 4 -4 1.01 0.09
1 -4 4 0.79 0.11
1 -4 4 0.74 0.12
-2 4 -4 -0.07 0.05
-2 4 -4 0.04 0.06
2 -4 4 0.03 0.06
2 -4 4 -0.04 0.06
-3 4 -4 10.05 0.42
-3 4 -4 9.8 0.45
3 -4 4 10.36 0.4
-4 4 -4 3.02 0.19
-4 4 -4 2.95 0.23
-5 4 -4 18.57 0.77
-5 4 -4 18.73 0.71
-6 4 -4 1.98 0.17
-6 4 -4 1.85 0.22
-7 4 -4 2.09 0.25
-7 4 -4 1.83 0.17
-8 4 -4 0.09 0.11
8 3 -4 0.16 0.14
-8 -3 4 0.13 0.1
7 3 -4 0.97 0.19
-7 -3 4 0.34 0.1
6 3 -4 0.3 0.13
-6 -3 4 0.1 0.08
5 3 -4 0.62 0.1
5 3 -4 0.67 0.14
-5 -3 4 0.84 0.12
4 3 -4 7.96 0.37
4 3 -4 8.69 0.41
-4 -3 4 8.22 0.36
3 3 -4 3.57 0.22
3 3 -4 2.98 0.18
-3 -3 4 3.38 0.21
-3 -3 4 3.18 0.19
2 3 -4 23.17 0.88
2 3 -4 22.46 0.87
-2 -3 4 23.33 0.83
-2 -3 4 24 0.85
1 3 -4 0.77 0.09
1 3 -4 0.74 0.1
-1 -3 4 0.64 0.1
-1 -3 4 0.54 0.08
0 3 -4 0.37 0.08
0 3 -4 0.56 0.09
0 3 -4 0.53 0.07
0 -3 4 0.58 0.09
0 -3 4 0.51 0.08
0 -3 4 0.57 0.09
-1 3 -4 1.82 0.15
-1 3 -4 2.26 0.14
-1 3 -4 2 0.14
1 -3 4 1.81 0.14
1 -3 4 1.68 0.13
-2 3 -4 0.01 0.05
-2 3 -4 0.07 0.04
-2 3 -4 0.07 0.04
-2 3 -4 -0.02 0.04
2 -3 4 -0.03 0.05
2 -3 4 0 0.04
-3 3 -4 0.59 0.1
-3 3 -4 0.66 0.09
3 -3 4 0.69 0.1
-4 3 -4 -0.06 0.06
-4 3 -4 -0.1 0.05
-5 3 -4 3.5 0.24
-5 3 -4 3.29 0.19
-6 3 -4 0.55 0.11
-6 3 -4 0.62 0.14
-7 3 -4 7.61 0.35
-8 3 -4 0.59 0.12
8 2 -4 0.51 0.16
-8 -2 4 0.22 0.1
7 2 -4 0.26 0.13
-7 -2 4 0.2 0.1
6 2 -4 0.99 0.16
-6 -2 4 0.68 0.11
5 2 -4 1.59 0.17
5 2 -4 1.57 0.13
-5 -2 4 1.52 0.14
4 2 -4 -0.01 0.06
4 2 -4 0 0.05
-4 -2 4 -0.03 0.06
3 2 -4 1.02 0.14
3 2 -4 1.22 0.11
-3 -2 4 1.1 0.12
-3 -2 4 0.97 0.13
-3 -2 4 1.3 0.13
2 2 -4 33.87 1.25
2 2 -4 33.87 1.24
-2 -2 4 35.1 1.2
-2 -2 4 33.09 1.18
-2 -2 4 35.18 1.26
1 2 -4 8.37 0.35
-1 -2 4 8.36 0.34
-1 -2 4 8.16 0.34
0 2 -4 21.99 0.84
0 -2 4 23.52 0.81
-1 2 -4 0.93 0.1
-1 2 -4 0.97 0.1
1 -2 4 1.03 0.1
1 -2 4 0.95 0.11
-2 2 -4 1.14 0.1
-2 2 -4 1.09 0.1
2 -2 4 1.13 0.11
2 -2 4 1 0.1
-3 2 -4 2.55 0.15
-3 2 -4 2.69 0.15
-3 2 -4 2.69 0.15
3 -2 4 2.68 0.16
-4 2 -4 1.1 0.1
-4 2 -4 1.13 0.14
4 -2 4 1.25 0.12
-5 2 -4 0.16 0.06
-5 2 -4 0.2 0.09
-6 2 -4 0.59 0.09
-6 2 -4 0.47 0.12
-7 2 -4 0.45 0.14
-7 2 -4 0.83 0.12
-8 2 -4 0.01 0.08
8 1 -4 0.03 0.11
-8 -1 4 0.08 0.15
-8 -1 4 0.03 0.09
7 1 -4 2.62 0.25
-7 -1 4 2 0.16
-7 -1 4 2.62 0.27
6 1 -4 0.27 0.11
-6 -1 4 0.47 0.13
-6 -1 4 0.31 0.09
-6 -1 4 0.26 0.12
5 1 -4 -0.07 0.07
-5 -1 4 0.01 0.09
-5 -1 4 0.21 0.08
-5 -1 4 0 0.09
4 1 -4 0.86 0.13
-4 -1 4 0.82 0.12
-4 -1 4 0.68 0.11
-4 -1 4 0.87 0.13
3 1 -4 4.68 0.25
-3 -1 4 5.5 0.24
-3 -1 4 4.98 0.23
-3 -1 4 5.22 0.27
-3 -1 4 4.83 0.26
2 1 -4 6.55 0.3
2 1 -4 7.02 0.3
-2 -1 4 7.02 0.31
-2 -1 4 6.87 0.29
-2 -1 4 6.74 0.28
1 1 -4 1.54 0.11
-1 -1 4 1.33 0.11
-1 -1 4 1.38 0.1
-1 -1 4 1.1 0.11
0 1 -4 12.72 0.49
0 -1 4 12.59 0.47
0 -1 4 12.51 0.47
-1 1 -4 11.23 0.44
1 -1 4 11.54 0.43
1 -1 4 11.29 0.44
1 -1 4 10.88 0.4
-2 1 -4 17.13 0.63
-2 1 -4 16.85 0.6
-2 1 -4 16.38 0.59
2 -1 4 16.76 0.63
2 -1 4 16.83 0.61
-3 1 -4 1.79 0.1
-3 1 -4 1.68 0.12
-3 1 -4 1.82 0.11
-3 1 -4 1.77 0.11
3 -1 4 1.6 0.11
3 -1 4 1.91 0.13
-4 1 -4 0.81 0.09
-4 1 -4 0.79 0.11
4 -1 4 0.83 0.11
-5 1 -4 0.05 0.05
-5 1 -4 0.08 0.07
5 -1 4 0.07 0.07
-6 1 -4 0 0.08
-6 1 -4 0.35 0.07
-7 1 -4 0.25 0.07
-8 1 -4 0.34 0.08
8 0 -4 0.09 0.12
-8 0 4 0.13 0.16
-8 0 4 0.21 0.1
7 0 -4 1.28 0.2
-7 0 4 1.74 0.23
-7 0 4 1.11 0.14
-7 0 4 1.31 0.19
6 0 -4 1.75 0.19
-6 0 4 0.98 0.17
-6 0 4 1.72 0.14
-6 0 4 1.9 0.21
-5 0 4 4.69 0.3
-5 0 4 5.32 0.3
-5 0 4 5.2 0.25
-4 0 4 1.24 0.12
-4 0 4 1.04 0.14
-4 0 4 1.43 0.15
-3 0 4 -0.05 0.05
-3 0 4 0 0.06
-3 0 4 0.01 0.04
-3 0 4 -0.01 0.05
-2 0 4 7.93 0.32
-2 0 4 7.85 0.31
-2 0 4 7.63 0.34
-1 0 4 1.68 0.11
-1 0 4 1.62 0.11
-1 0 4 1.59 0.11
0 0 4 31.08 1.07
0 0 4 30.97 1.11
-1 0 -4 21.89 0.81
1 0 4 22.49 0.79
1 0 4 22.81 0.79
-2 0 -4 2.65 0.13
-2 0 -4 3.01 0.14
2 0 4 2.8 0.15
-3 0 -4 10.17 0.37
-3 0 -4 9.81 0.37
3 0 4 10.01 0.39
3 0 4 9.99 0.39
-4 0 -4 5.25 0.21
-4 0 -4 5.26 0.22
4 0 4 5.53 0.25
-5 0 -4 0.16 0.07
-5 0 -4 0.19 0.04
5 0 4 0.31 0.08
-6 0 -4 0.22 0.05
6 0 4 0.15 0.08
8 -1 -4 0 0.15
-8 1 4 0 0.15
-8 1 4 -0.01 0.09
-7 1 4 0.09 0.13
-7 1 4 0.18 0.09
-7 1 4 0.26 0.14
-6 1 4 -0.08 0.1
-6 1 4 0.09 0.11
-6 1 4 0 0.08
-5 1 4 5.81 0.27
-5 1 4 5.47 0.32
-5 1 4 5.26 0.31
-4 1 4 0.38 0.1
-4 1 4 0.45 0.08
-4 1 4 0.41 0.09
-3 1 4 18.95 0.75
-3 1 4 19.4 0.68
-3 1 4 19.24 0.69
-3 1 4 18.88 0.73
-2 1 4 -0.01 0.05
-2 1 4 0.1 0.05
-1 1 4 6.77 0.28
-1 1 4 7.06 0.3
0 1 4 12.67 0.48
1 1 4 7.46 0.3
-2 -1 -4 2.21 0.12
-2 -1 -4 2.17 0.12
2 1 4 2.37 0.12
2 1 4 2.35 0.13
-3 -1 -4 7.83 0.29
3 1 4 7.59 0.31
-4 -1 -4 2.38 0.14
-4 -1 -4 2.45 0.12
4 1 4 2.59 0.16
-5 -1 -4 0.1 0.03
-5 -1 -4 0.23 0.06
5 1 4 0.12 0.07
6 1 4 4.71 0.26
7 1 4 0.22 0.09
-8 2 4 0.1 0.17
-8 2 4 -0.03 0.09
7 -2 -4 -0.1 0.12
-7 2 4 -0.16 0.12
-7 2 4 0.04 0.09
-7 2 4 -0.12 0.11
6 -2 -4 0.05 0.11
-6 2 4 0.07 0.09
-6 2 4 0.16 0.11
-6 2 4 0.26 0.12
5 -2 -4 0.77 0.13
-5 2 4 1 0.15
-5 2 4 0.71 0.13
-5 2 4 1.02 0.13
4 -2 -4 1.18 0.15
-4 2 4 1.61 0.15
-4 2 4 1.68 0.16
-4 2 4 1.35 0.12
3 -2 -4 2.09 0.16
-3 2 4 2.01 0.15
-3 2 4 1.67 0.13
-3 2 4 1.82 0.14
-2 2 4 0.12 0.06
-2 2 4 0.17 0.05
-1 2 4 61.14 2.11
-1 2 4 64.61 2.23
0 2 4 21.14 0.79
1 2 4 0.26 0.05
-2 -2 -4 0.92 0.08
2 2 4 1.02 0.09
2 2 4 0.89 0.09
-3 -2 -4 4.82 0.2
3 2 4 4.97 0.22
-4 -2 -4 0 0.03
-5 -2 -4 0.13 0.06
-5 -2 -4 0.18 0.05
-5 -2 -4 0.07 0.03
-6 -2 -4 0.15 0.08
6 2 4 0.16 0.08
7 2 4 0.02 0.08
8 2 4 0.41 0.11
-8 3 4 0.54 0.14
-8 3 4 0.49 0.18
-7 3 4 -0.06 0.1
-7 3 4 -0.09 0.12
-7 3 4 0.05 0.14
6 -3 -4 0.03 0.12
-6 3 4 0.17 0.12
-6 3 4 0.09 0.08
-6 3 4 0.03 0.12
5 -3 -4 -0.03 0.09
-5 3 4 -0.02 0.09
-5 3 4 0.03 0.09
-5 3 4 -0.04 0.07
4 -3 -4 0.08 0.08
-4 3 4 0.08 0.08
-4 3 4 0.1 0.07
-4 3 4 -0.04 0.06
3 -3 -4 0.46 0.09
-3 3 4 0.32 0.08
-3 3 4 0.39 0.09
-3 3 4 0.5 0.09
2 -3 -4 8.71 0.36
2 -3 -4 8.86 0.38
-2 3 4 8.86 0.39
-2 3 4 8.5 0.35
-2 3 4 8.22 0.37
-2 3 4 8.87 0.28
1 -3 -4 0.82 0.09
-1 3 4 0.6 0.09
-1 3 4 1.03 0.12
0 -3 -4 5.35 0.24
0 3 4 5.13 0.26
1 3 4 4.71 0.23
1 3 4 4.37 0.2
-2 -3 -4 1.84 0.12
2 3 4 1.91 0.12
2 3 4 2.13 0.14
-3 -3 -4 7 0.27
3 3 4 6.79 0.28
-4 -3 -4 2.86 0.18
-4 -3 -4 2.76 0.13
4 3 4 2.44 0.14
-5 -3 -4 5.58 0.28
-5 -3 -4 5.51 0.22
5 3 4 5.44 0.23
-6 -3 -4 1.38 0.16
-6 -3 -4 1.28 0.08
8 3 4 0.15 0.11
-8 4 4 0.02 0.13
-8 4 4 0.05 0.17
-7 4 4 0.13 0.14
-7 4 4 -0.06 0.09
-7 4 4 -0.17 0.13
-6 4 4 0.91 0.17
-6 4 4 0.57 0.15
-6 4 4 0.49 0.12
-5 4 4 1.07 0.14
-5 4 4 0.78 0.15
-5 4 4 0.99 0.17
4 -4 -4 -0.01 0.07
-4 4 4 -0.05 0.07
-4 4 4 0.04 0.07
-4 4 4 0.08 0.07
3 -4 -4 2 0.18
-3 4 4 1.94 0.15
-3 4 4 1.66 0.16
-3 4 4 1.9 0.17
2 -4 -4 0 0.05
-2 4 4 -0.02 0.03
-2 4 4 0.04 0.05
-2 4 4 -0.02 0.05
-2 4 4 0.03 0.05
1 -4 -4 0.04 0.05
-1 4 4 0.07 0.05
-1 4 4 0.07 0.06
-1 4 4 0.17 0.04
0 4 4 0.82 0.11
-1 -4 -4 19.52 0.71
1 4 4 19.34 0.76
1 4 4 20.14 0.74
-2 -4 -4 7.5 0.33
-2 -4 -4 7.8 0.31
2 4 4 7.77 0.33
2 4 4 7.73 0.35
-3 -4 -4 2.19 0.13
-3 -4 -4 2.04 0.16
3 4 4 1.99 0.13
-4 -4 -4 1.31 0.1
-4 -4 -4 1.19 0.14
4 4 4 1.21 0.1
-5 -4 -4 2.15 0.13
-5 -4 -4 1.79 0.17
5 4 4 1.93 0.13
-6 -4 -4 0.61 0.08
-6 -4 -4 0.53 0.11
6 4 4 0.7 0.08
-7 -4 -4 1.16 0.09
-7 -4 -4 1.36 0.2
-8 -4 -4 0.2 0.06
-7 5 4 -0.11 0.1
-7 5 4 0.03 0.15
-6 5 4 0.19 0.13
-6 5 4 0.11 0.12
-6 5 4 0.1 0.12
-5 5 4 0.26 0.12
-5 5 4 0.29 0.11
-5 5 4 0.28 0.12
-4 5 4 0.31 0.11
-4 5 4 0.28 0.11
-4 5 4 0.37 0.1
3 -5 -4 1.27 0.14
3 -5 -4 1.3 0.18
-3 5 4 1.52 0.16
-3 5 4 1.41 0.14
-3 5 4 1.47 0.17
2 -5 -4 0.14 0.07
2 -5 -4 0.14 0.07
-2 5 4 0.19 0.07
-2 5 4 0.05 0.04
-2 5 4 0.1 0.07
-2 5 4 0.14 0.07
1 -5 -4 3.09 0.19
-1 5 4 3.08 0.19
-1 5 4 3.22 0.21
-1 5 4 3.21 0.18
-1 5 4 3.08 0.15
0 -5 -4 0.82 0.11
0 5 4 1.07 0.09
0 5 4 1.45 0.14
0 5 4 0.96 0.12
0 5 4 0.93 0.1
-1 -5 -4 0.04 0.04
-1 -5 -4 0.09 0.05
1 5 4 0.03 0.06
1 5 4 0.08 0.05
1 5 4 0.12 0.05
-2 -5 -4 0.16 0.05
-2 -5 -4 0.14 0.06
2 5 4 0.19 0.07
2 5 4 0.27 0.06
2 5 4 0.21 0.06
-3 -5 -4 3.14 0.17
-3 -5 -4 2.83 0.19
3 5 4 3.2 0.2
3 5 4 2.89 0.17
-4 -5 -4 2.39 0.15
-4 -5 -4 2.31 0.2
4 5 4 2.55 0.16
-5 -5 -4 0.01 0.05
-5 -5 -4 -0.06 0.07
5 5 4 -0.01 0.04
-6 -5 -4 0.03 0.08
-6 -5 -4 0 0.05
6 5 4 0.02 0.05
-7 -5 -4 0.02 0.06
-7 -5 -4 0.09 0.11
-8 -5 -4 0.38 0.08
-9 -5 -4 0.08 0.07
-7 6 4 -0.09 0.13
-7 6 4 -0.1 0.16
-6 6 4 0.64 0.15
-6 6 4 0.48 0.16
-5 6 4 0.17 0.12
-5 6 4 0.02 0.11
-5 6 4 0.03 0.1
-4 6 4 -0.08 0.1
-4 6 4 0.03 0.1
-4 6 4 0.13 0.12
3 -6 -4 0.18 0.09
-3 6 4 0.06 0.08
-3 6 4 -0.02 0.07
-3 6 4 0.11 0.09
2 -6 -4 0.64 0.11
-2 6 4 0.62 0.12
-2 6 4 0.58 0.1
-2 6 4 0.76 0.12
-2 6 4 0.48 0.07
1 -6 -4 0.45 0.09
-1 6 4 0.5 0.1
-1 6 4 0.58 0.1
-1 6 4 0.28 0.06
-1 6 4 0.47 0.11
0 -6 -4 3.37 0.21
0 6 4 3.26 0.16
0 6 4 3.31 0.2
0 6 4 3.54 0.23
0 6 4 3.2 0.2
-1 -6 -4 3.12 0.19
-1 -6 -4 2.78 0.2
1 6 4 2.91 0.19
1 6 4 2.79 0.15
1 6 4 3.1 0.2
1 6 4 2.66 0.18
1 6 4 3.01 0.22
-2 -6 -4 1.55 0.16
-2 -6 -4 1.54 0.14
2 6 4 1.61 0.17
2 6 4 1.62 0.14
2 6 4 1.94 0.18
2 6 4 1.57 0.14
-3 -6 -4 2.94 0.21
-3 -6 -4 3.09 0.19
3 6 4 3.17 0.19
3 6 4 2.59 0.21
3 6 4 2.98 0.19
-4 -6 -4 0.17 0.08
-4 -6 -4 -0.01 0.06
4 6 4 0.03 0.06
-5 -6 -4 0.08 0.06
-5 -6 -4 0.16 0.09
5 6 4 0.1 0.07
-6 -6 -4 1.59 0.15
-6 -6 -4 1.93 0.21
-7 -6 -4 0.15 0.12
-7 -6 -4 0.28 0.08
-8 -6 -4 -0.03 0.07
-9 -6 -4 -0.11 0.08
-6 7 4 0.11 0.11
-6 7 4 0.21 0.15
-5 7 4 -0.1 0.11
-5 7 4 -0.05 0.13
4 -7 -4 0.88 0.14
-4 7 4 0.74 0.17
-4 7 4 0.91 0.15
-4 7 4 0.76 0.16
3 -7 -4 0.34 0.11
-3 7 4 0.22 0.11
-3 7 4 0.34 0.12
-3 7 4 0.19 0.11
-2 7 4 -0.08 0.08
-2 7 4 -0.05 0.08
-2 7 4 -0.04 0.07
-2 7 4 0.02 0.05
1 -7 -4 0.08 0.07
-1 7 4 0.04 0.09
-1 7 4 0.13 0.08
-1 7 4 0.07 0.05
0 -7 -4 0.06 0.07
0 7 4 0.01 0.05
0 7 4 0.01 0.08
0 7 4 0.07 0.08
0 7 4 -0.13 0.06
-1 -7 -4 0.57 0.11
1 7 4 0.33 0.07
1 7 4 0.56 0.1
1 7 4 0.27 0.08
1 7 4 0.54 0.12
1 7 4 0.24 0.09
-2 -7 -4 0.57 0.11
-2 -7 -4 0.43 0.1
2 7 4 0.49 0.1
2 7 4 0.71 0.14
2 7 4 0.5 0.1
2 7 4 0.68 0.11
-3 -7 -4 0.35 0.1
-3 -7 -4 0.42 0.09
3 7 4 0.59 0.11
3 7 4 0.46 0.12
3 7 4 0.6 0.1
-4 -7 -4 0.22 0.1
-4 -7 -4 0.12 0.08
4 7 4 0.18 0.08
4 7 4 0.17 0.1
-5 -7 -4 0.57 0.11
-5 -7 -4 0.86 0.15
-6 -7 -4 0.08 0.11
-6 -7 -4 0.05 0.07
-7 -7 -4 0.19 0.14
-7 -7 -4 0.22 0.09
-8 -7 -4 -0.03 0.08
-6 8 4 0.12 0.13
-6 8 4 -0.14 0.14
5 -8 -4 -0.04 0.11
-5 8 4 -0.09 0.13
-5 8 4 0 0.14
4 -8 -4 0.19 0.12
-4 8 4 0.27 0.13
-4 8 4 0.34 0.14
-3 8 4 0.2 0.12
-3 8 4 0.11 0.12
-3 8 4 0.1 0.12
-2 8 4 0.24 0.11
-2 8 4 0.06 0.1
-2 8 4 0.1 0.06
-1 8 4 0.41 0.08
-1 8 4 0.31 0.11
-1 8 4 0.55 0.14
0 -8 -4 -0.16 0.08
0 8 4 0.02 0.07
0 8 4 0.04 0.09
0 8 4 0 0.05
0 8 4 0.04 0.09
-1 -8 -4 0.17 0.1
1 8 4 0.12 0.08
1 8 4 0.14 0.06
1 8 4 0.21 0.09
1 8 4 0.29 0.12
-2 -8 -4 2.12 0.19
-2 -8 -4 1.85 0.19
2 8 4 2.04 0.19
2 8 4 2 0.2
2 8 4 1.71 0.21
2 8 4 1.66 0.2
-3 -8 -4 2.7 0.22
-3 -8 -4 2.9 0.22
3 8 4 2.4 0.24
3 8 4 2.57 0.22
3 8 4 2.47 0.23
-4 -8 -4 -0.14 0.07
-4 -8 -4 0.09 0.1
4 8 4 -0.1 0.08
4 8 4 0.05 0.09
4 8 4 -0.14 0.08
-5 -8 -4 0.01 0.09
-5 -8 -4 0.15 0.12
-6 -8 -4 0.65 0.15
-6 -8 -4 0.4 0.12
-7 -8 -4 -0.06 0.14
-7 -8 -4 0.19 0.1
-8 -8 -4 0.14 0.1
-5 9 4 0.11 0.16
-5 9 4 0.06 0.13
-4 9 4 0.03 0.13
-4 9 4 0.04 0.14
-3 9 4 0.06 0.13
-2 9 4 0.49 0.15
-2 9 4 0.45 0.09
-2 9 4 0.44 0.15
-1 9 4 0.25 0.08
-1 9 4 0.35 0.14
-1 9 4 0.21 0.12
0 9 4 -0.01 0.06
0 9 4 0.07 0.11
0 9 4 0.19 0.09
0 9 4 -0.03 0.1
-1 -9 -4 0.19 0.1
1 9 4 0.15 0.11
1 9 4 0.27 0.12
1 9 4 0.15 0.07
1 9 4 0.07 0.08
-2 -9 -4 -0.05 0.09
2 9 4 0.06 0.09
2 9 4 -0.04 0.09
2 9 4 0.08 0.11
-3 -9 -4 0 0.09
-3 -9 -4 0.02 0.11
3 9 4 -0.03 0.08
3 9 4 -0.1 0.1
3 9 4 0.09 0.09
-4 -9 -4 0.35 0.11
-4 -9 -4 0.63 0.14
4 9 4 0.53 0.17
4 9 4 0.6 0.13
-5 -9 -4 0.21 0.13
-5 -9 -4 -0.12 0.1
5 9 4 0.03 0.11
-6 -9 -4 0.02 0.12
-6 -9 -4 -0.18 0.1
-7 -9 -4 -0.01 0.15
-7 -9 -4 -0.05 0.11
-4 10 4 -0.14 0.15
-3 10 4 -0.14 0.13
-2 10 4 0.03 0.13
-2 10 4 -0.01 0.07
-1 10 4 0.07 0.14
-1 10 4 0.13 0.08
-1 10 4 0.07 0.13
0 10 4 0.16 0.13
0 10 4 0.16 0.08
0 10 4 0.01 0.13
1 10 4 0.19 0.12
1 10 4 -0.06 0.12
1 10 4 0.14 0.08
1 10 4 -0.02 0.12
-2 -10 -4 -0.01 0.09
2 10 4 0.06 0.13
2 10 4 -0.04 0.09
2 10 4 0 0.13
-3 -10 -4 0.22 0.12
3 10 4 -0.04 0.08
3 10 4 -0.19 0.12
-4 -10 -4 0.14 0.12
-4 -10 -4 0.03 0.12
4 10 4 -0.01 0.1
4 10 4 0.08 0.13
-5 -10 -4 -0.1 0.13
-5 -10 -4 0.17 0.14
5 10 4 0.02 0.1
-6 -10 -4 0.38 0.15
-6 -10 -4 0.43 0.15
-2 11 4 0.23 0.17
-1 11 4 0.11 0.09
-1 11 4 0.13 0.17
0 11 4 -0.04 0.09
0 11 4 -0.07 0.15
0 11 4 -0.06 0.15
1 11 4 -0.09 0.12
1 11 4 0.18 0.17
1 11 4 0.09 0.15
1 11 4 -0.06 0.08
2 11 4 0.12 0.12
2 11 4 -0.26 0.14
-3 -11 -4 0.18 0.13
3 11 4 -0.14 0.1
-4 -11 -4 -0.04 0.12
4 11 4 -0.07 0.1
-5 -11 -4 0.16 0.15
-5 -11 -4 -0.02 0.12
5 11 4 0.08 0.11
0 12 4 0.15 0.16
0 12 4 0.02 0.1
1 12 4 0.24 0.11
1 12 4 0.16 0.17
2 12 4 -0.06 0.11
3 12 4 -0.12 0.11
0 10 -5 -0.36 0.14
3 9 -5 0.12 0.15
3 9 -5 0.28 0.14
2 9 -5 -0.24 0.12
2 9 -5 0.01 0.12
1 9 -5 0.01 0.11
1 9 -5 0.06 0.15
0 9 -5 0.13 0.15
-1 9 -5 0.02 0.13
1 -9 5 -0.08 0.12
-2 9 -5 -0.18 0.14
2 -9 5 0.13 0.12
-3 9 -5 0.15 0.18
3 -9 5 0.04 0.13
5 8 -5 0.25 0.18
-5 -8 5 0.05 0.13
4 8 -5 0.41 0.19
4 8 -5 0.15 0.1
3 8 -5 0.02 0.13
3 8 -5 0.01 0.09
2 8 -5 0.03 0.1
2 8 -5 0.28 0.14
-2 -8 5 -0.08 0.12
1 8 -5 0.47 0.13
1 8 -5 0.72 0.19
-1 -8 5 0.65 0.16
0 8 -5 0.09 0.12
0 -8 5 0.31 0.14
-1 8 -5 0 0.12
1 -8 5 0.03 0.11
-2 8 -5 -0.03 0.12
2 -8 5 0.13 0.11
-3 8 -5 0.11 0.14
3 -8 5 0.03 0.1
-4 8 -5 0.08 0.15
4 -8 5 -0.06 0.11
-5 8 -5 0.16 0.18
-5 8 -5 0.09 0.14
5 -8 5 -0.01 0.11
6 7 -5 -0.09 0.13
-6 -7 5 -0.15 0.11
5 7 -5 -0.03 0.15
-5 -7 5 -0.04 0.12
4 7 -5 -0.01 0.12
-4 -7 5 0 0.14
3 7 -5 0.61 0.16
2 7 -5 1.2 0.2
2 7 -5 1.37 0.23
-2 -7 5 1.07 0.17
1 7 -5 -0.03 0.11
1 7 -5 0.05 0.08
-1 -7 5 0.07 0.12
0 7 -5 -0.04 0.1
0 7 -5 0.07 0.09
0 -7 5 0.18 0.12
0 -7 5 0.15 0.1
-1 7 -5 1.7 0.22
1 -7 5 1.6 0.19
1 -7 5 1.77 0.18
-2 7 -5 0.3 0.13
2 -7 5 0.27 0.1
-3 7 -5 0.05 0.12
3 -7 5 0.28 0.11
-4 7 -5 -0.07 0.12
-4 7 -5 0 0.11
4 -7 5 0 0.11
-5 7 -5 0.07 0.14
-5 7 -5 0.18 0.15
5 -7 5 -0.02 0.12
-6 7 -5 0.19 0.16
-6 7 -5 0.05 0.12
6 6 -5 0.21 0.16
-6 -6 5 0.1 0.11
5 6 -5 0.25 0.14
-5 -6 5 -0.1 0.11
4 6 -5 1.07 0.18
-4 -6 5 1.3 0.19
3 6 -5 -0.16 0.08
3 6 -5 -0.02 0.1
-3 -6 5 0.1 0.12
-3 -6 5 0.09 0.11
2 6 -5 0.03 0.1
2 6 -5 -0.01 0.08
-2 -6 5 0.08 0.11
1 6 -5 0.13 0.08
1 6 -5 0.26 0.11
-1 -6 5 0.14 0.11
0 6 -5 2.68 0.24
0 6 -5 2.68 0.22
0 -6 5 2.58 0.2
0 -6 5 2.95 0.22
-1 6 -5 0.38 0.12
1 -6 5 0.37 0.12
1 -6 5 0.32 0.09
-2 6 -5 0.05 0.09
2 -6 5 0.1 0.08
-3 6 -5 0.69 0.13
-3 6 -5 0.77 0.16
3 -6 5 0.54 0.11
-4 6 -5 0.33 0.12
-4 6 -5 0.15 0.12
4 -6 5 0.15 0.11
-5 6 -5 0.35 0.13
-5 6 -5 0.26 0.14
-6 6 -5 0 0.12
-6 6 -5 0.04 0.13
-7 6 -5 0 0.12
-7 6 -5 -0.07 0.15
7 5 -5 0.22 0.13
-7 -5 5 0.11 0.12
6 5 -5 0.11 0.14
-6 -5 5 -0.16 0.1
5 5 -5 0.34 0.15
-5 -5 5 0.29 0.11
4 5 -5 -0.01 0.11
-4 -5 5 -0.02 0.1
3 5 -5 0.15 0.08
3 5 -5 -0.01 0.09
-3 -5 5 -0.01 0.09
-3 -5 5 0.06 0.1
2 5 -5 0.27 0.1
2 5 -5 0.3 0.09
-2 -5 5 0.37 0.11
-2 -5 5 0.41 0.11
1 5 -5 -0.08 0.06
1 5 -5 -0.08 0.07
1 5 -5 0.12 0.09
-1 -5 5 0.06 0.09
0 5 -5 -0.08 0.06
0 5 -5 -0.05 0.08
0 -5 5 -0.02 0.07
0 -5 5 0.05 0.08
-1 5 -5 0.06 0.07
-1 5 -5 0.18 0.09
1 -5 5 0.14 0.08
1 -5 5 0.03 0.08
-2 5 -5 0.95 0.14
-2 5 -5 1.25 0.18
2 -5 5 0.96 0.11
2 -5 5 0.95 0.14
-3 5 -5 2.75 0.21
-3 5 -5 2.47 0.23
3 -5 5 2.69 0.21
-4 5 -5 0.17 0.11
-4 5 -5 0.38 0.11
4 -5 5 0.06 0.1
-5 5 -5 0.23 0.12
-5 5 -5 0.06 0.1
-6 5 -5 0.24 0.12
-6 5 -5 0.04 0.12
-7 5 -5 0.04 0.16
-7 5 -5 0.14 0.12
7 4 -5 0.36 0.15
-7 -4 5 0.37 0.13
6 4 -5 0.18 0.13
-6 -4 5 -0.16 0.09
5 4 -5 0.2 0.12
-5 -4 5 0.1 0.09
4 4 -5 0.36 0.12
4 4 -5 0.36 0.09
-4 -4 5 0.45 0.12
-4 -4 5 0.6 0.12
3 4 -5 2.03 0.16
3 4 -5 2.27 0.21
-3 -4 5 1.95 0.17
-3 -4 5 1.75 0.18
2 4 -5 -0.03 0.05
2 4 -5 -0.04 0.07
-2 -4 5 0.02 0.08
-2 -4 5 -0.04 0.07
1 4 -5 0.14 0.06
1 4 -5 0.05 0.07
-1 -4 5 0.14 0.08
-1 -4 5 0.1 0.07
0 4 -5 0.84 0.12
0 4 -5 0.93 0.13
0 4 -5 1.07 0.14
0 -4 5 1.2 0.13
0 -4 5 1.03 0.11
-1 4 -5 -0.02 0.04
-1 4 -5 -0.14 0.05
-1 4 -5 0.08 0.07
-1 4 -5 0.09 0.06
1 -4 5 -0.03 0.06
1 -4 5 0.03 0.07
-2 4 -5 0.04 0.05
-2 4 -5 0.04 0.06
-2 4 -5 0.06 0.07
2 -4 5 -0.03 0.07
2 -4 5 0.04 0.07
-3 4 -5 1.74 0.18
-3 4 -5 1.65 0.15
3 -4 5 1.45 0.16
3 -4 5 1.6 0.15
-4 4 -5 0.09 0.1
-4 4 -5 0.12 0.08
-5 4 -5 5.66 0.3
-5 4 -5 5.76 0.34
-6 4 -5 0.34 0.12
-6 4 -5 0.27 0.13
-7 4 -5 1.18 0.16
-8 4 -5 0.04 0.12
-8 -3 5 0.14 0.12
7 3 -5 0.19 0.15
-7 -3 5 0.08 0.09
6 3 -5 0.07 0.12
-6 -3 5 -0.1 0.08
5 3 -5 1.14 0.18
-5 -3 5 1.04 0.15
4 3 -5 0.94 0.12
4 3 -5 0.96 0.15
-4 -3 5 0.97 0.15
-4 -3 5 0.99 0.14
3 3 -5 2.69 0.2
3 3 -5 2.13 0.16
-3 -3 5 2.63 0.18
-3 -3 5 2.32 0.18
2 3 -5 4.1 0.22
2 3 -5 3.94 0.24
-2 -3 5 3.94 0.23
-2 -3 5 3.99 0.22
1 3 -5 0.17 0.06
1 3 -5 0.08 0.06
-1 -3 5 0.05 0.06
-1 -3 5 0.19 0.07
0 3 -5 0.28 0.07
0 3 -5 0.6 0.1
0 3 -5 0.26 0.07
0 -3 5 0.34 0.08
0 -3 5 0.32 0.06
0 -3 5 0.33 0.08
-1 3 -5 0.49 0.08
-1 3 -5 0.54 0.09
-1 3 -5 0.46 0.07
-1 3 -5 0.58 0.1
1 -3 5 0.56 0.09
1 -3 5 0.61 0.08
-2 3 -5 0.06 0.05
-2 3 -5 0 0.04
-2 3 -5 0.09 0.05
2 -3 5 -0.08 0.06
2 -3 5 0.08 0.05
-3 3 -5 0.24 0.09
-3 3 -5 0.52 0.09
-3 3 -5 0.25 0.07
3 -3 5 0.25 0.08
3 -3 5 0.4 0.08
-4 3 -5 0.13 0.09
-4 3 -5 0.19 0.08
4 -3 5 0.09 0.07
-5 3 -5 2.01 0.2
-5 3 -5 2.25 0.16
-6 3 -5 0.15 0.09
-6 3 -5 -0.1 0.1
-7 3 -5 4.71 0.27
-8 3 -5 0.39 0.12
8 2 -5 0.16 0.14
-8 -2 5 -0.13 0.1
7 2 -5 -0.11 0.12
-7 -2 5 0.08 0.1
6 2 -5 0.21 0.12
-6 -2 5 0.2 0.09
5 2 -5 0.33 0.11
-5 -2 5 0.35 0.09
4 2 -5 0.5 0.12
4 2 -5 0.31 0.08
-4 -2 5 0.5 0.11
-4 -2 5 0.37 0.11
-4 -2 5 0.26 0.09
3 2 -5 0.21 0.07
3 2 -5 0.2 0.08
-3 -2 5 0.19 0.08
-3 -2 5 0.17 0.08
-3 -2 5 0.24 0.08
2 2 -5 0.64 0.1
2 2 -5 0.59 0.09
-2 -2 5 0.59 0.09
-2 -2 5 0.77 0.11
-2 -2 5 0.49 0.09
1 2 -5 15.57 0.62
1 2 -5 16.44 0.63
-1 -2 5 16.46 0.61
-1 -2 5 16.54 0.62
-1 -2 5 15.56 0.6
0 2 -5 37.8 1.32
0 -2 5 36.43 1.26
0 -2 5 35.85 1.25
0 -2 5 34.27 1.23
-1 2 -5 5.82 0.28
-1 2 -5 6.08 0.26
1 -2 5 6.1 0.29
1 -2 5 6.39 0.26
1 -2 5 6.07 0.28
-2 2 -5 1.33 0.11
-2 2 -5 1.39 0.11
-2 2 -5 1.23 0.11
2 -2 5 1.22 0.13
-3 2 -5 1.66 0.13
-3 2 -5 1.8 0.15
-3 2 -5 1.74 0.13
3 -2 5 1.74 0.15
-4 2 -5 0.31 0.07
-4 2 -5 0.22 0.08
-4 2 -5 0.2 0.07
4 -2 5 0.28 0.08
-5 2 -5 0.02 0.08
-5 2 -5 -0.05 0.05
5 -2 5 0.03 0.07
-6 2 -5 0.02 0.07
-7 2 -5 1.01 0.13
-8 2 -5 -0.04 0.09
-9 2 -5 1.92 0.17
8 1 -5 0.44 0.16
-8 -1 5 0.3 0.11
7 1 -5 0.66 0.15
-7 -1 5 0.61 0.12
-7 -1 5 0.97 0.2
6 1 -5 0.34 0.11
-6 -1 5 0.15 0.11
-6 -1 5 0.3 0.12
-6 -1 5 0.18 0.09
5 1 -5 0.55 0.12
5 1 -5 0.5 0.09
-5 -1 5 0.63 0.14
-5 -1 5 0.54 0.12
-5 -1 5 0.69 0.11
4 1 -5 0.67 0.12
-4 -1 5 0.43 0.11
-4 -1 5 0.8 0.12
-4 -1 5 0.62 0.11
-4 -1 5 0.46 0.11
3 1 -5 4.14 0.19
3 1 -5 3.9 0.23
-3 -1 5 3.96 0.22
-3 -1 5 3.82 0.21
-3 -1 5 4.22 0.24
2 1 -5 2.72 0.18
2 1 -5 2.94 0.18
-2 -1 5 3.13 0.12
-2 -1 5 2.72 0.17
-2 -1 5 3.13 0.18
-2 -1 5 3.01 0.18
1 1 -5 5.95 0.27
-1 -1 5 5.32 0.25
-1 -1 5 5.78 0.26
-1 -1 5 5.7 0.26
0 1 -5 10.89 0.45
0 -1 5 11.37 0.44
0 -1 5 11.85 0.45
-1 1 -5 13.87 0.53
-1 1 -5 13.37 0.5
-1 1 -5 13.32 0.5
1 -1 5 13.9 0.52
1 -1 5 13.39 0.49
-2 1 -5 51.48 1.8
-2 1 -5 50.17 1.72
-2 1 -5 50.87 1.72
2 -1 5 49.54 1.81
2 -1 5 51.79 1.74
-3 1 -5 12.83 0.48
-3 1 -5 12.86 0.5
-3 1 -5 12.55 0.44
-3 1 -5 12.96 0.48
3 -1 5 12.87 0.5
-4 1 -5 8.29 0.33
-4 1 -5 8.18 0.32
4 -1 5 8.41 0.36
-5 1 -5 -0.05 0.05
-5 1 -5 0.01 0.06
5 -1 5 0.1 0.07
-6 1 -5 0.16 0.07
-7 1 -5 -0.01 0.07
-8 1 -5 -0.02 0.07
-9 1 -5 0.05 0.09
8 0 -5 0.03 0.13
-8 0 5 0.14 0.1
-8 0 5 0.22 0.16
7 0 -5 0.81 0.17
-7 0 5 0.75 0.13
-7 0 5 0.38 0.14
-7 0 5 1.06 0.2
6 0 -5 0.39 0.12
-6 0 5 0.06 0.1
-6 0 5 0.19 0.1
-6 0 5 0.22 0.13
5 0 -5 7.76 0.4
-5 0 5 7.83 0.42
-5 0 5 8.59 0.42
-5 0 5 8.18 0.36
4 0 -5 0.26 0.08
-4 0 5 0.1 0.07
-4 0 5 0.08 0.08
-4 0 5 0.22 0.07
-4 0 5 0.19 0.08
3 0 -5 5 0.26
3 0 -5 4.92 0.22
-3 0 5 4.8 0.27
-3 0 5 4.46 0.26
-3 0 5 5.2 0.24
-3 0 5 4.99 0.24
2 0 -5 16.27 0.65
-2 0 5 17.67 0.63
-2 0 5 16.7 0.65
-2 0 5 16.77 0.63
-2 0 5 17.23 0.53
-2 0 5 17.63 0.67
-1 0 5 2.27 0.14
-1 0 5 2.57 0.14
-1 0 5 2.2 0.14
0 0 5 24.22 0.86
0 0 5 24.22 0.88
-1 0 -5 15.16 0.55
-1 0 -5 15.44 0.58
1 0 5 15.18 0.56
1 0 5 15.41 0.57
-2 0 -5 12.85 0.48
-2 0 -5 13.3 0.51
2 0 5 13.82 0.51
-3 0 -5 0.83 0.1
-3 0 -5 0.88 0.08
-3 0 -5 0.77 0.09
3 0 5 0.98 0.1
-4 0 -5 32.24 1
-4 0 -5 31.89 1.11
4 0 5 33.21 1.15
-5 0 -5 5.01 0.22
-5 0 -5 5.17 0.24
5 0 5 5.3 0.26
-6 0 -5 2.67 0.15
-6 0 -5 2.92 0.15
6 0 5 3.34 0.21
-7 0 -5 0.35 0.07
8 -1 -5 -0.02 0.12
8 -1 -5 -0.11 0.14
-8 1 5 0.03 0.15
-8 1 5 0 0.09
7 -1 -5 0.76 0.17
-7 1 5 0.35 0.15
-7 1 5 0.34 0.12
-7 1 5 0.39 0.16
-6 1 5 0.01 0.11
-6 1 5 0.11 0.1
-6 1 5 0.17 0.1
-5 1 5 1.19 0.15
-5 1 5 1.87 0.2
-5 1 5 1.24 0.15
-4 1 5 4.13 0.26
-4 1 5 4.02 0.23
-4 1 5 4.19 0.26
3 -1 -5 32.95 1.21
-3 1 5 33.56 1.27
-3 1 5 34 1.24
-3 1 5 33.5 1.17
-3 1 5 35.17 1.19
2 -1 -5 1.73 0.14
2 -1 -5 1.68 0.12
-2 1 5 1.41 0.13
-2 1 5 1.34 0.14
-2 1 5 1.63 0.13
-2 1 5 1.78 0.12
-1 1 5 17.74 0.64
-1 1 5 17.89 0.69
-1 1 5 18.4 0.65
0 1 5 0.11 0.05
0 1 5 0.23 0.06
1 1 5 7.39 0.3
1 1 5 7.35 0.31
-2 -1 -5 0.12 0.04
-2 -1 -5 0.13 0.04
2 1 5 0.15 0.05
2 1 5 0.08 0.04
-3 -1 -5 11.54 0.42
-3 -1 -5 11.67 0.43
3 1 5 11.46 0.44
3 1 5 11.09 0.44
-4 -1 -5 1.26 0.1
-4 -1 -5 1.33 0.11
4 1 5 1.41 0.13
-5 -1 -5 0.03 0.05
-5 -1 -5 0.01 0.03
5 1 5 0 0.06
-6 -1 -5 3.83 0.18
6 1 5 4.37 0.25
7 1 5 1.33 0.17
-8 2 5 0.16 0.11
-8 2 5 0.23 0.18
7 -2 -5 0.32 0.15
-7 2 5 0.11 0.15
-7 2 5 0.37 0.15
-7 2 5 0 0.1
6 -2 -5 0.1 0.12
-6 2 5 0.04 0.08
-6 2 5 -0.08 0.1
-6 2 5 -0.07 0.1
5 -2 -5 0.07 0.09
-5 2 5 0.08 0.1
-5 2 5 0.23 0.09
-5 2 5 0.01 0.08
4 -2 -5 0.33 0.09
-4 2 5 0.29 0.09
-4 2 5 0.26 0.09
-4 2 5 0.22 0.09
3 -2 -5 4.86 0.26
-3 2 5 4.65 0.26
-3 2 5 4.87 0.26
-3 2 5 4.59 0.24
2 -2 -5 10.34 0.42
-2 2 5 10.56 0.44
-2 2 5 10.22 0.41
-2 2 5 10.24 0.33
-2 2 5 9.12 0.41
-1 2 5 59.68 2.01
-1 2 5 59.34 2.12
0 2 5 78.95 2.75
0 2 5 76.61 2.6
-1 -2 -5 31.01 1.09
1 2 5 31.84 1.15
1 2 5 32.54 1.1
-2 -2 -5 0.06 0.04
2 2 5 0.14 0.05
2 2 5 0.09 0.04
-3 -2 -5 1.02 0.09
3 2 5 1.25 0.11
3 2 5 1.15 0.1
-4 -2 -5 3.65 0.17
-4 -2 -5 3.65 0.17
4 2 5 3.53 0.2
-5 -2 -5 1.33 0.1
-5 -2 -5 1.52 0.12
-5 -2 -5 1.36 0.14
5 2 5 1.55 0.14
-6 -2 -5 0.03 0.06
-6 -2 -5 -0.01 0.04
6 2 5 -0.12 0.08
7 2 5 0.39 0.12
8 2 5 1.42 0.19
-8 3 5 2.81 0.32
-8 3 5 2.57 0.22
-7 3 5 0.13 0.16
-7 3 5 -0.05 0.13
-7 3 5 -0.05 0.1
6 -3 -5 2.17 0.24
-6 3 5 2.03 0.18
-6 3 5 1.64 0.21
-6 3 5 2.14 0.25
5 -3 -5 1.02 0.17
-5 3 5 0.96 0.16
-5 3 5 0.84 0.16
-5 3 5 0.98 0.14
4 -3 -5 -0.03 0.07
-4 3 5 -0.02 0.08
-4 3 5 0.01 0.07
-4 3 5 -0.09 0.06
3 -3 -5 0.36 0.09
-3 3 5 0.61 0.1
-3 3 5 0.51 0.11
-3 3 5 0.47 0.09
2 -3 -5 1.15 0.15
-2 3 5 1.27 0.08
-2 3 5 1.06 0.12
-2 3 5 1.28 0.12
-2 3 5 1.75 0.15
1 -3 -5 6.72 0.28
1 -3 -5 7.2 0.33
-1 3 5 7.84 0.34
-1 3 5 7.3 0.31
-1 3 5 7.08 0.26
0 3 5 8.62 0.38
-1 -3 -5 101.96 3.38
1 3 5 101.24 3.38
1 3 5 101.87 3.58
-2 -3 -5 15.96 0.57
2 3 5 15.57 0.61
2 3 5 15.6 0.58
-3 -3 -5 48.02 1.62
3 3 5 47.42 1.64
3 3 5 48.03 1.72
-4 -3 -5 0.14 0.06
-4 -3 -5 0.26 0.05
4 3 5 0.27 0.07
-5 -3 -5 0.13 0.05
-5 -3 -5 0.14 0.07
-5 -3 -5 0.08 0.05
5 3 5 0.07 0.07
-6 -3 -5 0.02 0.04
-6 -3 -5 0.01 0.07
6 3 5 0.07 0.08
-7 -3 -5 1.26 0.18
-7 -3 -5 1.11 0.11
7 3 5 1.51 0.17
8 3 5 0.07 0.11
9 3 5 0.22 0.12
-7 4 5 0.71 0.19
-7 4 5 0.3 0.16
-7 4 5 0.45 0.14
-6 4 5 4.85 0.35
-6 4 5 5.77 0.31
-6 4 5 6.03 0.37
5 -4 -5 -0.11 0.12
-5 4 5 0.22 0.12
-5 4 5 0.31 0.1
-5 4 5 0.27 0.12
4 -4 -5 1.31 0.2
-4 4 5 1.66 0.16
-4 4 5 1.18 0.16
-4 4 5 1.52 0.16
3 -4 -5 0.05 0.07
-3 4 5 0.06 0.07
-3 4 5 -0.01 0.06
-3 4 5 0.02 0.08
2 -4 -5 0.01 0.05
-2 4 5 0.09 0.07
-2 4 5 0.01 0.03
-2 4 5 0.02 0.06
-2 4 5 0.07 0.05
1 -4 -5 0.02 0.05
1 -4 -5 -0.04 0.04
-1 4 5 0.05 0.05
-1 4 5 0.03 0.06
-1 4 5 -0.02 0.03
0 -4 -5 0.32 0.08
0 4 5 0.25 0.05
0 4 5 0.29 0.06
0 4 5 0.4 0.09
-1 -4 -5 16.8 0.61
-1 -4 -5 16.27 0.63
1 4 5 16.48 0.6
1 4 5 17.43 0.66
1 4 5 15.92 0.6
-2 -4 -5 0.62 0.09
-2 -4 -5 0.3 0.07
2 4 5 0.58 0.1
2 4 5 0.49 0.08
-3 -4 -5 18.07 0.7
-3 -4 -5 18.95 0.67
3 4 5 18.51 0.7
3 4 5 18.9 0.73
-4 -4 -5 1.25 0.11
-4 -4 -5 1.52 0.15
4 4 5 1.45 0.12
-5 -4 -5 12.76 0.53
-5 -4 -5 12.68 0.48
5 4 5 12.94 0.5
-6 -4 -5 0.19 0.06
-6 -4 -5 0.24 0.09
-7 -4 -5 -0.08 0.09
-7 -4 -5 0.04 0.05
-8 -4 -5 -0.01 0.05
8 4 5 -0.1 0.1
9 4 5 -0.1 0.1
-7 5 5 0.08 0.12
-7 5 5 0.16 0.15
-6 5 5 0.21 0.12
-6 5 5 0.47 0.16
-6 5 5 0.39 0.14
-5 5 5 2.81 0.24
-5 5 5 3.21 0.26
-5 5 5 2.54 0.22
4 -5 -5 6.08 0.35
-4 5 5 6.46 0.35
-4 5 5 5.02 0.34
-4 5 5 6.59 0.32
3 -5 -5 0.82 0.14
-3 5 5 0.56 0.14
-3 5 5 0.89 0.15
-3 5 5 1.02 0.15
2 -5 -5 0.19 0.08
-2 5 5 -0.01 0.06
-2 5 5 0.08 0.08
-2 5 5 0.08 0.07
-2 5 5 0.05 0.04
1 -5 -5 0.78 0.11
-1 5 5 0.65 0.08
-1 5 5 0.61 0.12
-1 5 5 0.65 0.1
-1 5 5 0.57 0.09
0 -5 -5 2.8 0.2
0 -5 -5 2.82 0.16
0 5 5 2.97 0.18
0 5 5 2.79 0.18
0 5 5 3.03 0.15
0 5 5 3.22 0.2
-1 -5 -5 0.96 0.11
-1 -5 -5 0.69 0.1
1 5 5 0.78 0.11
1 5 5 0.89 0.09
1 5 5 0.82 0.12
1 5 5 0.7 0.11
-2 -5 -5 1.53 0.13
-2 -5 -5 1.62 0.15
2 5 5 1.55 0.13
2 5 5 1.82 0.16
2 5 5 1.45 0.14
-3 -5 -5 1.17 0.15
-3 -5 -5 1.33 0.12
3 5 5 1.45 0.13
3 5 5 1.36 0.15
-4 -5 -5 1.09 0.11
-4 -5 -5 0.82 0.14
4 5 5 1.12 0.12
-5 -5 -5 3.94 0.25
-5 -5 -5 3.93 0.2
5 5 5 3.88 0.21
-6 -5 -5 0.41 0.11
-6 -5 -5 0.46 0.08
6 5 5 0.48 0.08
-7 -5 -5 0.84 0.11
-7 -5 -5 1.13 0.19
-8 -5 -5 0.03 0.06
-9 -5 -5 0.07 0.07
9 5 5 0.09 0.11
-7 6 5 -0.03 0.14
-7 6 5 0.08 0.12
-6 6 5 0.16 0.12
-6 6 5 -0.08 0.12
-6 6 5 -0.03 0.13
-5 6 5 0.03 0.11
-5 6 5 0 0.11
-5 6 5 -0.1 0.1
-4 6 5 0.22 0.13
-4 6 5 0.25 0.12
-4 6 5 0.55 0.15
3 -6 -5 0.25 0.1
-3 6 5 0.19 0.1
-3 6 5 0.31 0.1
-3 6 5 0.15 0.1
2 -6 -5 12.73 0.54
-2 6 5 12.98 0.52
-2 6 5 11.84 0.56
-2 6 5 12.32 0.43
-2 6 5 12.46 0.54
1 -6 -5 0.11 0.07
-1 6 5 -0.04 0.06
-1 6 5 0.07 0.07
-1 6 5 0.17 0.08
-1 6 5 0.07 0.05
0 -6 -5 -0.01 0.06
0 -6 -5 0.03 0.06
0 6 5 -0.02 0.03
0 6 5 -0.03 0.04
0 6 5 0.04 0.05
0 6 5 0.03 0.06
0 6 5 0 0.06
-1 -6 -5 4.08 0.2
-1 -6 -5 4.32 0.23
-1 -6 -5 4.26 0.24
1 6 5 3.84 0.19
1 6 5 3.89 0.23
1 6 5 4.02 0.26
1 6 5 4.26 0.24
1 6 5 3.9 0.21
-2 -6 -5 0.22 0.07
-2 -6 -5 0.43 0.09
2 6 5 0.42 0.08
2 6 5 0.41 0.09
2 6 5 0.32 0.09
-3 -6 -5 0.84 0.12
-3 -6 -5 0.84 0.14
3 6 5 0.63 0.13
3 6 5 0.93 0.15
3 6 5 0.73 0.12
-4 -6 -5 0.36 0.11
-4 -6 -5 0.39 0.08
4 6 5 0.45 0.09
4 6 5 0.63 0.12
-5 -6 -5 0.02 0.06
-5 -6 -5 0 0.08
5 6 5 0.11 0.07
-6 -6 -5 0.21 0.07
-6 -6 -5 0.25 0.12
-7 -6 -5 0.11 0.11
-7 -6 -5 -0.11 0.06
-8 -6 -5 0.18 0.08
-8 -6 -5 0.04 0.13
-9 -6 -5 0 0.08
-6 7 5 -0.05 0.13
-6 7 5 0.01 0.11
-5 7 5 0.17 0.13
-5 7 5 0.01 0.12
-5 7 5 -0.15 0.12
-4 7 5 0.18 0.12
-4 7 5 0.05 0.11
-4 7 5 0.31 0.14
-3 7 5 0.14 0.1
-3 7 5 0.32 0.11
-3 7 5 0.1 0.11
2 -7 -5 0.04 0.09
-2 7 5 0.16 0.09
-2 7 5 0.31 0.12
-2 7 5 0.19 0.06
-2 7 5 0.25 0.1
1 -7 -5 0.13 0.09
-1 7 5 0.21 0.09
-1 7 5 0.11 0.06
-1 7 5 0.05 0.09
0 -7 -5 7.92 0.38
0 -7 -5 8.48 0.34
0 7 5 8.42 0.43
0 7 5 8.1 0.37
0 7 5 8.75 0.39
0 7 5 8.26 0.33
-1 -7 -5 2.22 0.19
1 7 5 1.97 0.2
1 7 5 1.81 0.15
1 7 5 2.2 0.18
1 7 5 2.11 0.19
1 7 5 1.8 0.2
-2 -7 -5 -0.01 0.07
-2 -7 -5 -0.1 0.06
2 7 5 0.21 0.1
2 7 5 -0.03 0.07
2 7 5 0.04 0.06
-3 -7 -5 4.4 0.27
-3 -7 -5 4.55 0.25
3 7 5 4.06 0.26
3 7 5 4.54 0.3
3 7 5 4.39 0.26
-4 -7 -5 0.07 0.07
-4 -7 -5 0.04 0.08
4 7 5 -0.03 0.06
4 7 5 -0.01 0.09
-5 -7 -5 0.29 0.12
-5 -7 -5 0.21 0.09
5 7 5 0.37 0.11
-6 -7 -5 0 0.08
-6 -7 -5 0.12 0.11
-7 -7 -5 0.55 0.15
-7 -7 -5 0.32 0.1
-8 -7 -5 0.18 0.09
-8 -7 -5 0.19 0.15
-5 8 5 0.21 0.16
-5 8 5 -0.01 0.12
-4 8 5 0.13 0.12
-4 8 5 0.04 0.12
-4 8 5 0.14 0.12
-3 8 5 0.08 0.11
-3 8 5 -0.02 0.1
-3 8 5 -0.07 0.1
-2 8 5 0.06 0.12
-2 8 5 0.31 0.07
-2 8 5 0.24 0.11
1 -8 -5 -0.08 0.09
-1 8 5 -0.03 0.09
-1 8 5 0.06 0.09
-1 8 5 0.05 0.06
0 -8 -5 1.11 0.16
0 8 5 1.1 0.12
0 8 5 1.05 0.16
0 8 5 1.74 0.18
0 8 5 1.16 0.17
-1 -8 -5 0.36 0.11
1 8 5 0.37 0.09
1 8 5 0.42 0.08
1 8 5 0.37 0.1
1 8 5 0.51 0.13
-2 -8 -5 0.08 0.08
-2 -8 -5 0.13 0.09
2 8 5 0.02 0.1
2 8 5 -0.03 0.08
2 8 5 0.03 0.08
-3 -8 -5 -0.12 0.08
-3 -8 -5 0.13 0.1
3 8 5 0.04 0.08
3 8 5 -0.05 0.07
3 8 5 0.12 0.11
-4 -8 -5 1.62 0.2
-4 -8 -5 1.27 0.18
4 8 5 1.15 0.14
4 8 5 1.34 0.2
4 8 5 1.07 0.19
-5 -8 -5 0.59 0.12
-5 -8 -5 0.77 0.15
5 8 5 0.69 0.15
-6 -8 -5 0.49 0.15
-6 -8 -5 0.58 0.13
-7 -8 -5 0.1 0.1
-7 -8 -5 0.09 0.14
-8 -8 -5 0.25 0.17
-8 -8 -5 0.13 0.1
-5 9 5 0.07 0.16
-5 9 5 -0.04 0.14
-4 9 5 0.12 0.14
-3 9 5 0.19 0.13
-3 9 5 0.08 0.13
-2 9 5 0.11 0.12
-2 9 5 -0.08 0.12
-2 9 5 -0.06 0.06
-1 9 5 0.03 0.11
-1 9 5 -0.01 0.11
-1 9 5 0.1 0.07
0 -9 -5 0.18 0.11
0 9 5 0.08 0.09
0 9 5 0.08 0.1
0 9 5 0.04 0.07
0 9 5 0.05 0.08
-1 -9 -5 0.21 0.11
1 9 5 0.08 0.09
1 9 5 0.04 0.11
1 9 5 0.01 0.06
1 9 5 0.06 0.11
-2 -9 -5 1.04 0.18
2 9 5 0.72 0.17
2 9 5 0.93 0.13
-3 -9 -5 0.03 0.1
-3 -9 -5 0.17 0.11
3 9 5 0.22 0.14
3 9 5 0.25 0.1
3 9 5 0.34 0.1
-4 -9 -5 0.07 0.1
-4 -9 -5 -0.08 0.1
4 9 5 0.02 0.11
4 9 5 -0.05 0.09
-5 -9 -5 0.48 0.14
-5 -9 -5 0.26 0.12
5 9 5 0.25 0.14
-6 -9 -5 -0.03 0.14
-6 -9 -5 -0.17 0.11
6 9 5 0.17 0.13
-7 -9 -5 0.1 0.12
-7 -9 -5 0.21 0.16
-4 10 5 0.05 0.17
-3 10 5 0.27 0.17
-2 10 5 0.2 0.08
-2 10 5 0.17 0.15
-2 10 5 0.43 0.17
-1 10 5 0.08 0.13
-1 10 5 -0.13 0.06
-1 10 5 -0.04 0.12
0 10 5 -0.03 0.12
0 10 5 0.03 0.08
0 10 5 0.27 0.13
-1 -10 -5 0.24 0.11
1 10 5 0.19 0.13
1 10 5 0.64 0.14
1 10 5 0.33 0.1
1 10 5 0.27 0.15
-2 -10 -5 0.17 0.12
2 10 5 0.01 0.13
2 10 5 0.02 0.09
-3 -10 -5 -0.06 0.1
3 10 5 0.08 0.09
3 10 5 -0.05 0.13
-4 -10 -5 0.08 0.11
-4 -10 -5 0.09 0.12
4 10 5 0.04 0.14
4 10 5 -0.07 0.09
-5 -10 -5 0.12 0.14
-5 -10 -5 0.38 0.14
5 10 5 0.09 0.11
-6 -10 -5 0.05 0.13
-6 -10 -5 0.06 0.13
-2 11 5 -0.23 0.14
-1 11 5 0.11 0.16
-1 11 5 -0.05 0.15
-1 11 5 0.05 0.09
0 11 5 0.18 0.16
0 11 5 0.18 0.1
0 11 5 0.09 0.14
1 11 5 0.14 0.16
1 11 5 0.03 0.09
1 11 5 0.19 0.14
-2 -11 -5 0.24 0.13
2 11 5 0.08 0.17
2 11 5 0.06 0.12
-3 -11 -5 0.07 0.13
3 11 5 -0.01 0.12
-4 -11 -5 0.14 0.13
4 11 5 0.08 0.1
-5 -11 -5 -0.05 0.12
-5 -11 -5 0.1 0.14
5 11 5 0.09 0.12
0 12 5 -0.19 0.15
0 12 5 -0.01 0.1
1 12 5 0.05 0.1
2 12 5 0.15 0.13
-3 -12 -5 0.34 0.14
3 12 5 0.01 0.12
2 9 -6 0 0.16
2 9 -6 0.06 0.11
1 9 -6 -0.06 0.11
1 9 -6 -0.12 0.14
-1 -9 6 0.1 0.14
0 9 -6 -0.06 0.13
-1 9 -6 0.17 0.16
-2 9 -6 -0.16 0.15
2 -9 6 0.11 0.13
4 8 -6 0.02 0.15
4 8 -6 0.04 0.1
3 8 -6 0.06 0.09
3 8 -6 0.01 0.14
2 8 -6 0.07 0.11
2 8 -6 0.12 0.15
-2 -8 6 0.13 0.13
1 8 -6 0.31 0.13
1 8 -6 0.28 0.16
-1 -8 6 0.07 0.14
0 8 -6 0.36 0.17
0 -8 6 0.4 0.15
-1 8 -6 -0.15 0.12
1 -8 6 0.01 0.11
-2 8 -6 -0.19 0.12
2 -8 6 -0.01 0.11
-3 8 -6 0.08 0.15
3 -8 6 0.27 0.12
-4 8 -6 -0.13 0.16
4 -8 6 0.03 0.11
5 7 -6 0.21 0.16
-5 -7 6 -0.04 0.14
4 7 -6 0.33 0.16
-4 -7 6 -0.03 0.12
3 7 -6 0 0.09
3 7 -6 0.04 0.14
-3 -7 6 -0.02 0.11
2 7 -6 -0.04 0.08
2 7 -6 -0.08 0.12
-2 -7 6 0.11 0.13
1 7 -6 -0.01 0.12
1 7 -6 0.02 0.09
-1 -7 6 0.08 0.12
0 7 -6 0.14 0.12
0 7 -6 0.09 0.1
0 -7 6 -0.12 0.11
-1 7 -6 0.08 0.11
1 -7 6 0.1 0.1
1 -7 6 0.2 0.12
-2 7 -6 0.15 0.13
2 -7 6 0.23 0.1
-3 7 -6 0.06 0.13
3 -7 6 -0.04 0.1
-4 7 -6 0.11 0.14
4 -7 6 0.18 0.12
-5 7 -6 0.04 0.15
-5 7 -6 -0.01 0.14
5 -7 6 0.2 0.12
6 6 -6 -0.07 0.14
-6 -6 6 -0.04 0.13
5 6 -6 0.09 0.13
-5 -6 6 0 0.13
4 6 -6 0.69 0.17
-4 -6 6 0.7 0.17
3 6 -6 0.15 0.12
-3 -6 6 0.17 0.13
-3 -6 6 0.12 0.11
2 6 -6 0.15 0.1
-2 -6 6 0.07 0.11
1 6 -6 -0.04 0.06
1 6 -6 0.08 0.11
-1 -6 6 0.06 0.1
0 6 -6 0.14 0.08
0 6 -6 0.2 0.11
0 -6 6 0.16 0.12
0 -6 6 0.17 0.09
-1 6 -6 0.03 0.1
1 -6 6 0.16 0.08
1 -6 6 0.04 0.1
-2 6 -6 0.33 0.13
2 -6 6 0.56 0.1
2 -6 6 0.5 0.13
-3 6 -6 0.06 0.11
-3 6 -6 -0.1 0.1
3 -6 6 0.03 0.1
-4 6 -6 0.09 0.12
-4 6 -6 -0.05 0.1
4 -6 6 -0.02 0.11
-5 6 -6 0.19 0.14
-5 6 -6 0.03 0.12
5 -6 6 0.14 0.11
-6 6 -6 0.2 0.16
-6 6 -6 0.22 0.12
6 5 -6 -0.05 0.14
-6 -5 6 0.02 0.12
5 5 -6 0.17 0.14
-5 -5 6 0.17 0.12
4 5 -6 0.79 0.18
-4 -5 6 0.53 0.14
-4 -5 6 0.6 0.16
3 5 -6 -0.14 0.07
3 5 -6 0.02 0.1
-3 -5 6 0.1 0.11
-3 -5 6 0.12 0.12
2 5 -6 -0.02 0.08
2 5 -6 0.03 0.07
-2 -5 6 0.03 0.1
-2 -5 6 0.02 0.1
1 5 -6 1.32 0.18
1 5 -6 0.93 0.11
-1 -5 6 1.06 0.16
0 5 -6 0.08 0.09
0 5 -6 -0.1 0.06
0 -5 6 -0.07 0.08
0 -5 6 -0.1 0.07
-1 5 -6 0.56 0.13
1 -5 6 0.32 0.09
1 -5 6 0.53 0.12
-2 5 -6 0.07 0.09
2 -5 6 -0.01 0.08
2 -5 6 0.09 0.09
-3 5 -6 0.17 0.1
-3 5 -6 0.07 0.08
3 -5 6 0.07 0.09
-4 5 -6 0.46 0.13
-4 5 -6 0.68 0.14
4 -5 6 0.49 0.12
-5 5 -6 0.24 0.12
-5 5 -6 0.31 0.13
-6 5 -6 -0.07 0.11
-6 5 -6 0 0.13
-7 5 -6 0.29 0.14
7 4 -6 -0.15 0.12
-7 -4 6 0.07 0.13
6 4 -6 0.14 0.12
-6 -4 6 -0.13 0.1
5 4 -6 -0.01 0.1
-5 -4 6 0.11 0.1
4 4 -6 0.24 0.12
-4 -4 6 0.2 0.11
-4 -4 6 -0.06 0.1
3 4 -6 1.01 0.13
3 4 -6 0.86 0.15
-3 -4 6 0.9 0.15
-3 -4 6 1.38 0.17
2 4 -6 3.79 0.24
2 4 -6 3.43 0.25
-2 -4 6 4.29 0.25
-2 -4 6 3.51 0.24
1 4 -6 0.66 0.12
1 4 -6 0.7 0.12
-1 -4 6 0.57 0.12
-1 -4 6 0.79 0.13
0 4 -6 0.41 0.11
0 4 -6 0.43 0.08
0 -4 6 0.26 0.09
0 -4 6 0.37 0.08
-1 4 -6 2.09 0.13
-1 4 -6 2.55 0.2
-1 4 -6 1.76 0.17
1 -4 6 2 0.17
1 -4 6 1.74 0.17
-2 4 -6 0.92 0.15
-2 4 -6 0.58 0.09
-2 4 -6 0.85 0.12
2 -4 6 0.77 0.1
2 -4 6 0.74 0.13
-3 4 -6 0.13 0.09
-3 4 -6 0.16 0.07
-3 4 -6 0.13 0.09
3 -4 6 0.29 0.1
3 -4 6 -0.04 0.09
-4 4 -6 -0.15 0.08
-4 4 -6 -0.1 0.07
4 -4 6 -0.19 0.08
-5 4 -6 -0.14 0.08
-5 4 -6 -0.04 0.1
-6 4 -6 0.19 0.11
-7 4 -6 0.13 0.11
-8 4 -6 0.21 0.12
7 3 -6 0.02 0.14
-7 -3 6 0 0.11
6 3 -6 0.05 0.12
-6 -3 6 0.13 0.1
5 3 -6 -0.07 0.1
-5 -3 6 -0.01 0.09
4 3 -6 0.77 0.14
4 3 -6 0.32 0.09
-4 -3 6 0.65 0.13
-4 -3 6 0.44 0.12
3 3 -6 1.16 0.13
3 3 -6 1.34 0.16
-3 -3 6 1.37 0.16
-3 -3 6 1.7 0.16
2 3 -6 0.01 0.06
2 3 -6 0.06 0.06
-2 -3 6 0.16 0.08
-2 -3 6 0.05 0.08
1 3 -6 -0.01 0.05
1 3 -6 0 0.06
-1 -3 6 -0.02 0.07
-1 -3 6 0.11 0.07
0 3 -6 2.05 0.16
0 3 -6 2.1 0.12
0 3 -6 1.91 0.17
0 -3 6 2.01 0.15
0 -3 6 2.04 0.16
-1 3 -6 4.07 0.21
-1 3 -6 4.55 0.23
-1 3 -6 4.45 0.2
-1 3 -6 4.27 0.25
1 -3 6 4.49 0.23
1 -3 6 4.25 0.24
-2 3 -6 2.35 0.18
-2 3 -6 2.15 0.14
-2 3 -6 2.42 0.16
2 -3 6 2.41 0.18
2 -3 6 2.33 0.16
-3 3 -6 0.38 0.08
-3 3 -6 0.36 0.09
-3 3 -6 0.32 0.08
3 -3 6 0.32 0.08
3 -3 6 0.37 0.1
-4 3 -6 0.27 0.09
-4 3 -6 0.01 0.08
4 -3 6 0.35 0.1
-5 3 -6 -0.04 0.09
-5 3 -6 -0.13 0.07
-6 3 -6 0.15 0.09
-7 3 -6 0.03 0.09
-8 3 -6 -0.28 0.1
7 2 -6 0.07 0.13
-7 -2 6 0.09 0.11
6 2 -6 0.11 0.11
-6 -2 6 0.01 0.08
5 2 -6 -0.12 0.09
-5 -2 6 -0.01 0.08
4 2 -6 1.58 0.19
4 2 -6 1.23 0.13
-4 -2 6 1.4 0.16
-4 -2 6 1.48 0.15
-4 -2 6 1.12 0.15
3 2 -6 0.12 0.08
3 2 -6 0.25 0.08
-3 -2 6 0.44 0.1
-3 -2 6 0.25 0.09
-3 -2 6 0.2 0.09
2 2 -6 -0.01 0.06
2 2 -6 0.03 0.05
-2 -2 6 0.03 0.07
-2 -2 6 0.04 0.07
-2 -2 6 0.03 0.07
1 2 -6 6.81 0.32
1 2 -6 6.4 0.31
-1 -2 6 6.68 0.32
-1 -2 6 6.95 0.31
-1 -2 6 6.87 0.31
0 2 -6 -0.07 0.04
0 2 -6 0.02 0.05
0 -2 6 -0.08 0.05
0 -2 6 -0.05 0.05
0 -2 6 0.02 0.05
-1 2 -6 0.83 0.09
-1 2 -6 0.86 0.1
-1 2 -6 0.88 0.11
-1 2 -6 0.93 0.11
1 -2 6 0.76 0.11
1 -2 6 0.77 0.11
-2 2 -6 0.04 0.04
-2 2 -6 0 0.05
-2 2 -6 0.06 0.05
2 -2 6 0.1 0.06
2 -2 6 -0.04 0.05
-3 2 -6 5.04 0.25
-3 2 -6 4.99 0.23
-3 2 -6 4.87 0.24
3 -2 6 4.76 0.26
3 -2 6 5.18 0.24
-4 2 -6 1.33 0.13
-4 2 -6 0.93 0.14
-4 2 -6 1.21 0.12
4 -2 6 0.94 0.14
-5 2 -6 0 0.07
5 -2 6 0 0.07
-6 2 -6 0.23 0.08
-7 2 -6 0.09 0.09
-8 2 -6 -0.1 0.09
-9 2 -6 0.52 0.13
7 1 -6 0.25 0.13
-7 -1 6 0.04 0.1
6 1 -6 0.18 0.11
-6 -1 6 0.17 0.1
-6 -1 6 0.03 0.08
5 1 -6 0.32 0.11
-5 -1 6 0.29 0.09
-5 -1 6 0.13 0.1
4 1 -6 1.71 0.15
4 1 -6 2.36 0.19
-4 -1 6 2.16 0.19
-4 -1 6 2.19 0.18
-4 -1 6 2.5 0.18
3 1 -6 1.02 0.11
3 1 -6 0.6 0.1
3 1 -6 0.71 0.11
-3 -1 6 0.66 0.12
-3 -1 6 1 0.12
-3 -1 6 0.95 0.13
2 1 -6 0.17 0.06
2 1 -6 0.19 0.06
2 1 -6 0.08 0.06
-2 -1 6 0.24 0.05
-2 -1 6 0.13 0.07
-2 -1 6 0.19 0.07
-2 -1 6 0.24 0.08
1 1 -6 0.31 0.07
1 1 -6 0.36 0.08
-1 -1 6 0.5 0.09
-1 -1 6 0.4 0.08
-1 -1 6 0.39 0.08
0 1 -6 0.15 0.06
0 -1 6 0.2 0.07
0 -1 6 0.25 0.06
0 -1 6 0.21 0.06
0 -1 6 0.15 0.07
-1 1 -6 3.49 0.2
-1 1 -6 3.87 0.19
-1 1 -6 3.42 0.16
-1 1 -6 3.83 0.19
1 -1 6 3.25 0.19
1 -1 6 3.74 0.16
1 -1 6 3.93 0.21
-2 1 -6 2.48 0.15
-2 1 -6 1.98 0.13
-2 1 -6 2.3 0.14
-2 1 -6 1.99 0.13
2 -1 6 2.35 0.16
-3 1 -6 1.24 0.11
-3 1 -6 1.29 0.12
-3 1 -6 1.4 0.12
3 -1 6 1.22 0.13
-4 1 -6 0.14 0.06
-4 1 -6 0.11 0.06
4 -1 6 0.23 0.08
-5 1 -6 -0.06 0.06
-5 1 -6 0.06 0.06
5 -1 6 -0.04 0.07
-6 1 -6 0.26 0.08
6 -1 6 0.3 0.1
-7 1 -6 -0.09 0.07
-8 1 -6 0.22 0.09
-9 1 -6 0.13 0.1
8 0 -6 0.07 0.15
8 0 -6 -0.06 0.12
-8 0 6 0.12 0.11
-8 0 6 -0.13 0.15
7 0 -6 0.04 0.11
-7 0 6 0.29 0.17
-7 0 6 -0.1 0.1
6 0 -6 -0.15 0.08
-6 0 6 0.01 0.12
-6 0 6 0.06 0.12
-6 0 6 -0.04 0.09
5 0 -6 0.02 0.09
5 0 -6 -0.03 0.08
-5 0 6 0.09 0.11
-5 0 6 0.16 0.1
-5 0 6 -0.06 0.07
4 0 -6 1 0.13
4 0 -6 0.96 0.14
-4 0 6 0.78 0.13
-4 0 6 0.94 0.16
-4 0 6 0.87 0.14
-4 0 6 1.01 0.13
3 0 -6 2.16 0.17
3 0 -6 2.21 0.15
-3 0 6 1.85 0.17
-3 0 6 1.92 0.17
-3 0 6 2.39 0.17
-3 0 6 2.15 0.16
2 0 -6 1.67 0.14
2 0 -6 1.7 0.13
-2 0 6 1.76 0.09
-2 0 6 1.57 0.14
-2 0 6 1.49 0.15
-2 0 6 1.73 0.14
-2 0 6 1.44 0.14
1 0 -6 8.06 0.37
-1 0 6 8.61 0.36
-1 0 6 8.83 0.36
-1 0 6 9.07 0.37
0 0 6 2.86 0.15
0 0 6 2.69 0.17
-1 0 -6 0.16 0.05
-1 0 -6 0.02 0.04
1 0 6 0.07 0.06
1 0 6 0.02 0.03
-2 0 -6 1.32 0.1
-2 0 -6 1.33 0.11
-2 0 -6 1.04 0.11
2 0 6 1.33 0.12
2 0 6 1.21 0.08
-3 0 -6 0.39 0.07
-3 0 -6 0.44 0.07
-3 0 -6 0.46 0.07
3 0 6 0.32 0.08
-4 0 -6 2.06 0.14
-4 0 -6 1.81 0.13
4 0 6 1.76 0.15
-5 0 -6 2.81 0.18
-5 0 -6 2.57 0.15
5 0 6 2.77 0.19
-6 0 -6 1.24 0.12
-6 0 -6 1.3 0.11
6 0 6 1.46 0.17
-7 0 -6 0.27 0.08
-8 0 -6 -0.08 0.07
8 -1 -6 0.05 0.17
8 -1 -6 -0.05 0.14
-8 1 6 -0.07 0.1
-8 1 6 -0.16 0.15
7 -1 -6 0.52 0.17
7 -1 -6 0.22 0.13
-7 1 6 0.23 0.15
-7 1 6 0.29 0.16
-7 1 6 0.42 0.12
6 -1 -6 0.08 0.11
-6 1 6 0.02 0.12
-6 1 6 -0.07 0.1
-6 1 6 0.09 0.09
5 -1 -6 0.02 0.08
-5 1 6 0.18 0.1
-5 1 6 0.13 0.1
-5 1 6 -0.06 0.08
4 -1 -6 0.55 0.11
4 -1 -6 0.43 0.09
-4 1 6 0.22 0.09
-4 1 6 0.33 0.1
-4 1 6 0.26 0.1
3 -1 -6 0.26 0.08
3 -1 -6 0.26 0.07
-3 1 6 0.23 0.07
-3 1 6 0.22 0.08
-3 1 6 0.26 0.09
-3 1 6 0.15 0.07
2 -1 -6 9.78 0.43
2 -1 -6 10.44 0.37
-2 1 6 10.53 0.45
-2 1 6 10.13 0.43
-2 1 6 10.6 0.41
-2 1 6 9.93 0.42
-2 1 6 10.55 0.34
1 -1 -6 5.66 0.28
1 -1 -6 5.77 0.24
-1 1 6 6.24 0.28
-1 1 6 6.12 0.27
-1 1 6 5.85 0.26
-1 1 6 5.77 0.22
0 1 6 5.03 0.24
0 1 6 5.22 0.24
-1 -1 -6 2.24 0.14
1 1 6 2.42 0.15
1 1 6 2.27 0.13
-2 -1 -6 5.48 0.23
-2 -1 -6 5.77 0.25
-2 -1 -6 6.01 0.26
2 1 6 5.92 0.25
2 1 6 5.99 0.27
-3 -1 -6 0.83 0.1
-3 -1 -6 0.62 0.08
-3 -1 -6 0.67 0.08
3 1 6 0.63 0.09
3 1 6 0.74 0.08
-4 -1 -6 1.15 0.1
-4 -1 -6 1.14 0.12
4 1 6 1.08 0.12
-5 -1 -6 0.22 0.07
-5 -1 -6 0.38 0.06
5 1 6 0.46 0.1
-6 -1 -6 5.58 0.24
6 1 6 5.75 0.3
-7 -1 -6 0.73 0.09
7 1 6 0.67 0.14
7 -2 -6 0.08 0.16
-7 2 6 0.1 0.1
-7 2 6 0.05 0.13
6 -2 -6 -0.05 0.12
-6 2 6 0.13 0.1
-6 2 6 -0.16 0.11
-6 2 6 0.12 0.11
5 -2 -6 0.19 0.1
-5 2 6 0.07 0.08
-5 2 6 -0.01 0.1
-5 2 6 0.1 0.1
4 -2 -6 0.41 0.1
-4 2 6 0.78 0.13
-4 2 6 0.69 0.12
-4 2 6 0.56 0.12
3 -2 -6 -0.03 0.06
3 -2 -6 -0.02 0.06
-3 2 6 0.1 0.06
-3 2 6 0.06 0.07
-3 2 6 0.05 0.07
2 -2 -6 0.82 0.14
2 -2 -6 0.85 0.11
-2 2 6 1 0.12
-2 2 6 1.16 0.13
-2 2 6 1.13 0.13
-2 2 6 0.98 0.1
-2 2 6 1 0.07
1 -2 -6 4.61 0.21
1 -2 -6 4.62 0.25
-1 2 6 4.28 0.18
-1 2 6 4.37 0.23
-1 2 6 4.69 0.24
-1 2 6 4.66 0.21
0 2 6 0.57 0.08
0 2 6 0.44 0.08
-1 -2 -6 59.32 2
1 2 6 58.87 2.01
1 2 6 60.1 2.11
-2 -2 -6 0.73 0.09
2 2 6 0.7 0.1
2 2 6 0.88 0.09
-3 -2 -6 0.04 0.04
-3 -2 -6 0.07 0.04
3 2 6 0.1 0.05
3 2 6 0.07 0.05
-4 -2 -6 10.8 0.38
-4 -2 -6 10.92 0.41
4 2 6 10.95 0.44
4 2 6 10.54 0.44
-5 -2 -6 0.51 0.08
-5 -2 -6 0.6 0.09
-5 -2 -6 0.67 0.1
5 2 6 0.57 0.1
-6 -2 -6 2.39 0.17
-6 -2 -6 2.21 0.14
6 2 6 2.51 0.19
-7 -2 -6 0.53 0.08
7 2 6 0.34 0.12
8 2 6 2.77 0.24
7 -3 -6 0.48 0.19
-7 3 6 0.02 0.11
-7 3 6 0.05 0.15
6 -3 -6 0.02 0.14
-6 3 6 0.29 0.13
-6 3 6 0.27 0.13
-6 3 6 0.16 0.1
5 -3 -6 0.2 0.12
-5 3 6 0.18 0.1
-5 3 6 0.06 0.11
-5 3 6 0.08 0.1
4 -3 -6 0.33 0.11
-4 3 6 0.27 0.1
-4 3 6 0.59 0.12
-4 3 6 0.38 0.11
3 -3 -6 0.47 0.11
-3 3 6 0.71 0.11
-3 3 6 0.64 0.11
-3 3 6 0.8 0.13
2 -3 -6 3.44 0.19
2 -3 -6 3.49 0.23
-2 3 6 3.75 0.21
-2 3 6 3.48 0.22
-2 3 6 3.64 0.2
-2 3 6 3.41 0.15
1 -3 -6 0.49 0.08
1 -3 -6 0.7 0.1
-1 3 6 0.55 0.07
-1 3 6 0.68 0.11
-1 3 6 0.61 0.09
-1 3 6 0.66 0.11
0 -3 -6 4.17 0.2
0 -3 -6 4.09 0.24
0 3 6 4.53 0.21
0 3 6 4.42 0.22
0 3 6 4.43 0.24
0 3 6 4.26 0.21
-1 -3 -6 13.55 0.52
1 3 6 13.93 0.56
1 3 6 14.02 0.52
-2 -3 -6 15.6 0.57
2 3 6 14.86 0.57
2 3 6 15.52 0.6
-3 -3 -6 28.59 0.96
-3 -3 -6 26.73 0.99
-3 -3 -6 27.39 0.85
3 3 6 28.13 1.03
3 3 6 26.82 0.98
-4 -3 -6 1.12 0.14
-4 -3 -6 1.19 0.11
-4 -3 -6 1.06 0.11
4 3 6 1.31 0.13
4 3 6 1.03 0.12
-5 -3 -6 2.29 0.15
-5 -3 -6 2.35 0.14
-5 -3 -6 2.07 0.18
5 3 6 2.34 0.18
-6 -3 -6 0.58 0.11
-6 -3 -6 0.56 0.09
-6 -3 -6 0.65 0.08
6 3 6 0.77 0.13
-7 -3 -6 -0.06 0.05
-7 -3 -6 0.19 0.1
7 3 6 0 0.1
8 3 6 0.34 0.14
9 3 6 0.32 0.12
-7 4 6 0.26 0.14
-7 4 6 0.28 0.15
-6 4 6 3.89 0.31
-6 4 6 4.27 0.28
-6 4 6 4.36 0.32
5 -4 -6 0.83 0.17
-5 4 6 0.56 0.14
-5 4 6 0.47 0.14
-5 4 6 0.8 0.17
4 -4 -6 2.98 0.25
-4 4 6 3.06 0.23
-4 4 6 3.5 0.23
-4 4 6 2.95 0.24
3 -4 -6 -0.12 0.07
-3 4 6 -0.19 0.07
-3 4 6 -0.07 0.06
-3 4 6 -0.04 0.06
2 -4 -6 0.45 0.1
-2 4 6 0.46 0.09
-2 4 6 0.7 0.07
-2 4 6 0.74 0.12
-2 4 6 0.59 0.12
1 -4 -6 0.19 0.07
1 -4 -6 0.19 0.07
-1 4 6 0.15 0.04
-1 4 6 0.12 0.07
-1 4 6 0.15 0.06
-1 4 6 0.16 0.06
0 -4 -6 1.81 0.13
0 -4 -6 1.82 0.16
0 4 6 1.72 0.15
0 4 6 2.09 0.16
0 4 6 1.83 0.11
0 4 6 1.98 0.13
0 4 6 1.76 0.14
-1 -4 -6 1.55 0.13
-1 -4 -6 1.3 0.15
-1 -4 -6 1.39 0.11
1 4 6 1.52 0.14
1 4 6 1.41 0.14
1 4 6 1.42 0.11
-2 -4 -6 0.2 0.06
-2 -4 -6 0.04 0.04
2 4 6 0.06 0.05
2 4 6 0.13 0.05
-3 -4 -6 18.7 0.68
-3 -4 -6 17.76 0.7
3 4 6 19.12 0.74
3 4 6 18.8 0.7
-4 -4 -6 8.54 0.38
-4 -4 -6 8.52 0.31
-4 -4 -6 8.52 0.35
4 4 6 8.15 0.37
4 4 6 8.82 0.39
-5 -4 -6 14.46 0.53
-5 -4 -6 13.88 0.58
-5 -4 -6 14.06 0.48
5 4 6 13.79 0.57
-6 -4 -6 4.05 0.21
-6 -4 -6 3.93 0.26
6 4 6 4.39 0.26
-7 -4 -6 1.04 0.12
-7 -4 -6 1.09 0.17
7 4 6 0.97 0.16
-8 -4 -6 -0.04 0.11
-8 -4 -6 0.02 0.06
8 4 6 -0.03 0.1
9 4 6 0.03 0.12
-7 5 6 -0.15 0.14
-7 5 6 -0.1 0.13
-6 5 6 0.41 0.14
-6 5 6 0.43 0.16
-6 5 6 0.49 0.16
5 -5 -6 0.04 0.13
-5 5 6 0.29 0.13
-5 5 6 0.16 0.11
-5 5 6 0.06 0.11
-4 5 6 17.11 0.77
-4 5 6 17.75 0.7
-4 5 6 18.24 0.74
3 -5 -6 1.99 0.24
-3 5 6 2.12 0.2
-3 5 6 2.35 0.19
-3 5 6 1.57 0.2
2 -5 -6 19.81 0.79
-2 5 6 19.68 0.78
-2 5 6 20.64 0.76
-2 5 6 19.76 0.82
-2 5 6 20.06 0.64
1 -5 -6 0.49 0.09
1 -5 -6 0.37 0.1
-1 5 6 0.38 0.08
-1 5 6 0.36 0.1
-1 5 6 0.34 0.08
-1 5 6 0.47 0.07
0 -5 -6 2.61 0.16
0 -5 -6 2.76 0.19
0 5 6 2.57 0.14
0 5 6 2.44 0.19
0 5 6 2.66 0.17
0 5 6 2.56 0.14
0 5 6 2.48 0.17
-1 -5 -6 1.22 0.15
-1 -5 -6 1.45 0.13
-1 -5 -6 1.29 0.12
1 5 6 1.22 0.11
1 5 6 1.05 0.14
1 5 6 1.37 0.14
-2 -5 -6 0.34 0.07
-2 -5 -6 0.59 0.08
-2 -5 -6 0.48 0.09
2 5 6 0.46 0.1
2 5 6 0.48 0.08
2 5 6 0.56 0.09
-3 -5 -6 0.04 0.05
-3 -5 -6 -0.02 0.06
3 5 6 0.06 0.05
3 5 6 -0.02 0.04
3 5 6 0.07 0.06
-4 -5 -6 -0.01 0.05
-4 -5 -6 0.11 0.08
4 5 6 -0.03 0.04
4 5 6 0.04 0.07
-5 -5 -6 6.36 0.29
-5 -5 -6 5.76 0.33
-6 -5 -6 4.83 0.24
-6 -5 -6 4.61 0.29
-7 -5 -6 6.95 0.37
-7 -5 -6 7.08 0.31
-8 -5 -6 0.42 0.09
-8 -5 -6 0.69 0.15
8 5 6 0.44 0.14
-9 -5 -6 0.89 0.13
9 5 6 0.74 0.18
-6 6 6 0.08 0.15
-6 6 6 0 0.11
-6 6 6 0.04 0.14
-5 6 6 0.01 0.11
-5 6 6 -0.09 0.1
-5 6 6 0.11 0.12
4 -6 -6 0.36 0.13
-4 6 6 0.33 0.13
-4 6 6 0.41 0.14
-4 6 6 0.34 0.13
3 -6 -6 1.63 0.22
-3 6 6 1.68 0.19
-3 6 6 1.68 0.19
-3 6 6 1.13 0.18
2 -6 -6 20.18 0.81
-2 6 6 20.14 0.8
-2 6 6 19.44 0.84
-2 6 6 20.33 0.66
-2 6 6 20.95 0.78
1 -6 -6 8.03 0.34
1 -6 -6 7.93 0.39
-1 6 6 8.02 0.37
-1 6 6 7.33 0.4
-1 6 6 7.82 0.37
-1 6 6 7.86 0.31
0 -6 -6 36.15 1.33
0 -6 -6 36.79 1.15
0 6 6 36.4 1.28
0 6 6 36.29 1.4
0 6 6 37.51 1.32
0 6 6 37.78 1.16
-1 -6 -6 1.68 0.17
-1 -6 -6 1.5 0.15
-1 -6 -6 1.14 0.13
1 6 6 1.38 0.12
1 6 6 1.54 0.17
1 6 6 1.53 0.16
1 6 6 1.44 0.12
-2 -6 -6 -0.05 0.05
-2 -6 -6 0.09 0.07
-2 -6 -6 0.06 0.05
2 6 6 -0.03 0.05
2 6 6 0.08 0.07
2 6 6 0.05 0.06
-3 -6 -6 0.08 0.08
-3 -6 -6 -0.01 0.05
3 6 6 0.04 0.05
3 6 6 0.03 0.06
3 6 6 0.05 0.08
-4 -6 -6 0.49 0.12
-4 -6 -6 0.86 0.12
4 6 6 0.74 0.14
4 6 6 0.61 0.1
-5 -6 -6 -0.07 0.08
-5 -6 -6 0.06 0.06
5 6 6 -0.02 0.06
5 6 6 0.02 0.08
-6 -6 -6 0.15 0.11
-6 -6 -6 0.17 0.07
-7 -6 -6 3.19 0.26
-7 -6 -6 3.02 0.2
-8 -6 -6 0.53 0.15
-8 -6 -6 0.29 0.08
-9 -6 -6 2.12 0.17
9 6 6 2.34 0.24
-6 7 6 -0.07 0.13
-6 7 6 0.09 0.13
-5 7 6 -0.03 0.13
-5 7 6 -0.03 0.12
-5 7 6 0.1 0.14
-4 7 6 0.39 0.14
-4 7 6 0.13 0.11
-4 7 6 0.17 0.13
-3 7 6 0.01 0.11
-3 7 6 0.09 0.1
-3 7 6 0.01 0.11
2 -7 -6 0.04 0.09
-2 7 6 0.07 0.09
-2 7 6 -0.11 0.08
-2 7 6 -0.15 0.09
-2 7 6 0.02 0.05
1 -7 -6 2.44 0.19
1 -7 -6 2.41 0.22
-1 7 6 1.99 0.14
-1 7 6 1.73 0.2
-1 7 6 2.5 0.2
0 -7 -6 10.92 0.41
0 -7 -6 10.84 0.48
0 7 6 10.85 0.41
0 7 6 10.13 0.51
0 7 6 10.33 0.47
0 7 6 11.42 0.44
-1 -7 -6 17.34 0.7
-1 -7 -6 17.31 0.6
1 7 6 18.59 0.68
1 7 6 17.63 0.61
1 7 6 18.04 0.72
1 7 6 16.74 0.75
-2 -7 -6 17.03 0.68
-2 -7 -6 16.9 0.65
2 7 6 16.74 0.68
2 7 6 14.99 0.7
2 7 6 16.72 0.64
-3 -7 -6 5.66 0.32
-3 -7 -6 6.17 0.31
3 7 6 5.43 0.31
3 7 6 5.52 0.3
3 7 6 5.55 0.34
-4 -7 -6 0.04 0.07
-4 -7 -6 0.07 0.09
4 7 6 0.04 0.09
4 7 6 0 0.07
-5 -7 -6 0.09 0.11
-5 -7 -6 0.15 0.09
5 7 6 0.11 0.1
-6 -7 -6 0.26 0.13
-6 -7 -6 0.33 0.1
6 7 6 0.32 0.13
-7 -7 -6 0.31 0.1
-7 -7 -6 0.36 0.14
-8 -7 -6 0.23 0.1
-8 -7 -6 0.4 0.15
-5 8 6 0.2 0.14
-5 8 6 0.18 0.15
-4 8 6 -0.08 0.11
-4 8 6 -0.03 0.13
-4 8 6 -0.14 0.11
-3 8 6 0.07 0.13
-3 8 6 0.25 0.13
-3 8 6 0.16 0.12
-2 8 6 -0.13 0.1
-2 8 6 -0.02 0.05
-2 8 6 0.17 0.11
1 -8 -6 0.61 0.12
1 -8 -6 0.47 0.12
-1 8 6 0.54 0.1
-1 8 6 0.59 0.14
-1 8 6 0.54 0.13
0 -8 -6 0.14 0.08
0 -8 -6 0.15 0.09
0 8 6 0.09 0.11
0 8 6 0.13 0.07
0 8 6 0.13 0.09
0 8 6 0.01 0.05
-1 -8 -6 0.58 0.12
1 8 6 0.26 0.09
1 8 6 0.48 0.14
1 8 6 0.5 0.09
-2 -8 -6 9.32 0.43
2 8 6 9.19 0.42
2 8 6 7.83 0.46
2 8 6 9.15 0.44
-3 -8 -6 1.95 0.21
-3 -8 -6 1.87 0.2
3 8 6 1.05 0.18
3 8 6 1.78 0.21
3 8 6 1.48 0.2
-4 -8 -6 12.93 0.56
-4 -8 -6 13.7 0.59
4 8 6 13.95 0.56
4 8 6 11.84 0.58
4 8 6 12.72 0.62
-5 -8 -6 0.74 0.13
-5 -8 -6 1.27 0.2
5 8 6 1.23 0.2
-6 -8 -6 0.07 0.13
-6 -8 -6 0.09 0.1
6 8 6 0.06 0.11
-7 -8 -6 0.39 0.14
-7 -8 -6 0.13 0.1
7 8 6 -0.09 0.12
-8 -8 -6 -0.03 0.09
-8 -8 -6 0.02 0.15
-4 9 6 -0.04 0.15
-4 9 6 0.01 0.14
-3 9 6 0.19 0.14
-3 9 6 0.22 0.14
-2 9 6 0.09 0.13
-2 9 6 0.03 0.12
-2 9 6 -0.02 0.07
1 -9 -6 0.36 0.12
-1 9 6 0.57 0.1
-1 9 6 0.5 0.14
-1 9 6 0.54 0.16
0 -9 -6 -0.02 0.09
0 9 6 0.04 0.08
0 9 6 0.19 0.07
0 9 6 0.18 0.12
0 9 6 0.1 0.1
-1 -9 -6 1.05 0.16
1 9 6 1.13 0.15
1 9 6 1.18 0.19
1 9 6 0.73 0.11
-2 -9 -6 -0.03 0.1
2 9 6 0.05 0.08
2 9 6 -0.05 0.11
-3 -9 -6 0.08 0.11
-3 -9 -6 0.2 0.1
3 9 6 0.29 0.11
3 9 6 0.16 0.09
3 9 6 0.32 0.14
-4 -9 -6 2.83 0.25
-4 -9 -6 3.06 0.27
4 9 6 3.56 0.28
4 9 6 2.55 0.26
-5 -9 -6 0.12 0.11
-5 -9 -6 0.02 0.12
5 9 6 0.27 0.14
-6 -9 -6 3.78 0.3
-6 -9 -6 2.69 0.25
6 9 6 3.01 0.29
-7 -9 -6 0.05 0.12
-7 -9 -6 0.05 0.14
-3 10 6 0.37 0.18
-2 10 6 0.14 0.14
-2 10 6 -0.07 0.07
-2 10 6 0.27 0.14
-1 10 6 0.02 0.07
-1 10 6 -0.1 0.13
-1 10 6 0.11 0.13
0 10 6 0.13 0.08
0 10 6 0.09 0.14
0 10 6 0.2 0.13
-1 -10 -6 0 0.11
1 10 6 0.18 0.15
1 10 6 0.32 0.12
1 10 6 0.08 0.08
-2 -10 -6 0.15 0.12
2 10 6 -0.05 0.1
2 10 6 0.19 0.15
-3 -10 -6 0.2 0.14
3 10 6 0.14 0.09
3 10 6 0.25 0.16
-4 -10 -6 0.63 0.17
-4 -10 -6 0.53 0.14
4 10 6 0.49 0.12
4 10 6 0.71 0.19
-5 -10 -6 -0.04 0.13
-5 -10 -6 0 0.12
5 10 6 -0.02 0.1
-6 -10 -6 0.37 0.16
-6 -10 -6 0.38 0.16
-2 11 6 0.02 0.08
-2 11 6 0.01 0.17
-1 11 6 0.14 0.1
-1 11 6 0.24 0.17
0 11 6 0.07 0.09
1 11 6 -0.1 0.08
1 11 6 -0.04 0.12
1 11 6 -0.02 0.16
-2 -11 -6 -0.14 0.12
2 11 6 -0.02 0.13
-3 -11 -6 -0.02 0.12
3 11 6 0.18 0.13
-4 -11 -6 0.12 0.14
4 11 6 -0.17 0.1
-5 -11 -6 0.05 0.15
-5 -11 -6 0.06 0.14
5 11 6 0.07 0.12
0 12 6 -0.03 0.1
1 12 6 -0.04 0.1
2 12 6 0.14 0.13
-3 -12 -6 -0.02 0.14
3 12 6 -0.17 0.11
0 9 -7 0.01 0.16
-1 9 -7 0.07 0.17
3 8 -7 0.18 0.12
3 8 -7 0.02 0.16
2 8 -7 0.04 0.1
2 8 -7 0.26 0.16
-2 -8 7 -0.06 0.14
1 8 -7 0.63 0.14
1 8 -7 1.14 0.22
-1 -8 7 0.15 0.17
0 8 -7 0.23 0.15
0 -8 7 -0.16 0.13
-1 8 -7 0.19 0.14
1 -8 7 0.25 0.13
-2 8 -7 0.01 0.15
2 -8 7 -0.16 0.11
-3 8 -7 0 0.16
3 -8 7 -0.04 0.12
-4 8 -7 0.03 0.17
4 7 -7 0.15 0.16
3 7 -7 0.05 0.09
3 7 -7 -0.13 0.13
-3 -7 7 0 0.13
2 7 -7 0.03 0.14
2 7 -7 0.12 0.09
-2 -7 7 0.03 0.13
1 7 -7 -0.03 0.13
1 7 -7 0 0.1
-1 -7 7 0.03 0.12
0 7 -7 0.43 0.16
0 -7 7 0.26 0.14
-1 7 -7 0.89 0.19
1 -7 7 0.56 0.16
1 -7 7 0.82 0.14
-2 7 -7 0.04 0.12
2 -7 7 0.25 0.11
-3 7 -7 0.3 0.15
3 -7 7 0.28 0.11
-4 7 -7 0.21 0.16
4 -7 7 0.03 0.12
-5 7 -7 -0.12 0.15
-5 7 -7 0.25 0.16
5 -7 7 0.35 0.14
5 6 -7 0.13 0.16
-5 -6 7 0.16 0.15
4 6 -7 0.21 0.16
-4 -6 7 -0.03 0.13
3 6 -7 -0.07 0.11
-3 -6 7 0.03 0.12
2 6 -7 0.18 0.13
2 6 -7 0.09 0.08
-2 -6 7 0.3 0.13
1 6 -7 0.07 0.11
1 6 -7 0.07 0.07
-1 -6 7 -0.03 0.1
0 6 -7 0.03 0.1
0 6 -7 0.03 0.08
0 -6 7 -0.22 0.09
-1 6 -7 0.06 0.1
1 -6 7 0.02 0.08
1 -6 7 0.07 0.11
-2 6 -7 0.78 0.16
2 -6 7 0.63 0.12
2 -6 7 0.44 0.14
-3 6 -7 0.3 0.14
3 -6 7 0.32 0.12
-4 6 -7 0.13 0.13
-4 6 -7 0.16 0.14
4 -6 7 0.18 0.12
-5 6 -7 -0.16 0.13
-5 6 -7 0.06 0.14
5 -6 7 0.11 0.12
-6 6 -7 0.24 0.13
6 5 -7 0.15 0.16
-6 -5 7 0.15 0.14
5 5 -7 0 0.13
-5 -5 7 0.21 0.13
4 5 -7 0.24 0.15
-4 -5 7 0.44 0.14
-4 -5 7 0.4 0.13
3 5 -7 0.77 0.17
-3 -5 7 0.26 0.13
-3 -5 7 0.4 0.14
2 5 -7 0.16 0.11
-2 -5 7 0.04 0.09
1 5 -7 0.04 0.07
1 5 -7 0.1 0.11
-1 -5 7 0 0.1
0 5 -7 0.94 0.11
0 5 -7 1.08 0.17
0 -5 7 0.99 0.15
0 -5 7 0.86 0.16
-1 5 -7 0.56 0.13
1 -5 7 0.37 0.12
1 -5 7 0.53 0.1
-2 5 -7 -0.04 0.07
-2 5 -7 -0.04 0.06
2 -5 7 -0.06 0.08
2 -5 7 -0.13 0.09
-3 5 -7 0.25 0.12
-3 5 -7 0.14 0.11
3 -5 7 0.12 0.1
3 -5 7 0.35 0.11
-4 5 -7 0.27 0.13
-4 5 -7 0.22 0.11
4 -5 7 0.17 0.11
-5 5 -7 0.23 0.13
-5 5 -7 0.09 0.12
-6 5 -7 -0.07 0.12
-7 5 -7 0.1 0.13
6 4 -7 -0.05 0.12
-6 -4 7 0 0.11
5 4 -7 -0.11 0.13
-5 -4 7 -0.05 0.1
4 4 -7 0.09 0.12
-4 -4 7 -0.01 0.1
-4 -4 7 -0.03 0.1
3 4 -7 -0.03 0.1
3 4 -7 -0.06 0.07
-3 -4 7 0.08 0.1
-3 -4 7 0.03 0.12
2 4 -7 0.07 0.09
2 4 -7 0.08 0.07
-2 -4 7 0.13 0.11
-2 -4 7 0.02 0.1
1 4 -7 1.77 0.19
-1 -4 7 1.43 0.17
0 4 -7 0 0.08
0 4 -7 0.03 0.06
0 -4 7 0.01 0.07
0 -4 7 0.05 0.09
-1 4 -7 0.08 0.06
-1 4 -7 -0.02 0.06
-1 4 -7 0.07 0.08
1 -4 7 -0.02 0.08
1 -4 7 -0.05 0.07
-2 4 -7 2.03 0.18
-2 4 -7 2.07 0.15
-2 4 -7 2.4 0.21
2 -4 7 2.03 0.19
2 -4 7 2.02 0.19
-3 4 -7 0.99 0.15
-3 4 -7 1.02 0.15
-3 4 -7 1 0.13
3 -4 7 0.88 0.15
3 -4 7 0.87 0.12
-4 4 -7 0.09 0.09
-4 4 -7 0.02 0.09
4 -4 7 0 0.08
-5 4 -7 0.17 0.1
-6 4 -7 -0.04 0.1
-7 4 -7 0.04 0.12
7 3 -7 0.04 0.14
-7 -3 7 0.21 0.13
6 3 -7 0.16 0.14
-6 -3 7 0.16 0.11
5 3 -7 -0.06 0.12
-5 -3 7 -0.1 0.09
4 3 -7 -0.05 0.09
-4 -3 7 0.04 0.09
-4 -3 7 0.04 0.1
3 3 -7 0.12 0.08
3 3 -7 0.25 0.11
-3 -3 7 0.05 0.09
-3 -3 7 0.12 0.1
2 3 -7 0.35 0.11
2 3 -7 0.15 0.08
-2 -3 7 0.27 0.1
-2 -3 7 0.26 0.09
1 3 -7 0.51 0.1
1 3 -7 0.68 0.12
-1 -3 7 0.57 0.11
-1 -3 7 0.67 0.12
0 3 -7 0.24 0.09
0 3 -7 0.19 0.06
0 -3 7 0.05 0.07
0 -3 7 0.19 0.09
-1 3 -7 3.33 0.23
-1 3 -7 3.23 0.19
-1 3 -7 3.43 0.17
1 -3 7 3.45 0.22
1 -3 7 3.33 0.21
-2 3 -7 0.01 0.05
-2 3 -7 0.05 0.07
-2 3 -7 0.11 0.07
2 -3 7 0.11 0.07
2 -3 7 0.1 0.09
-3 3 -7 -0.06 0.06
-3 3 -7 0.07 0.07
-3 3 -7 0 0.06
3 -3 7 -0.13 0.07
3 -3 7 0.01 0.08
-4 3 -7 0.28 0.1
-4 3 -7 0.25 0.1
-4 3 -7 0.33 0.09
4 -3 7 0.15 0.1
-5 3 -7 0.73 0.13
-6 3 -7 0.07 0.09
-7 3 -7 0.11 0.1
-8 3 -7 -0.17 0.11
7 2 -7 0.13 0.15
-7 -2 7 0.07 0.11
6 2 -7 0.04 0.12
-6 -2 7 0.16 0.11
5 2 -7 0.1 0.12
-5 -2 7 0.08 0.09
4 2 -7 1.15 0.17
4 2 -7 1.22 0.14
-4 -2 7 0.87 0.16
-4 -2 7 1.03 0.17
-4 -2 7 1.16 0.16
3 2 -7 -0.05 0.06
3 2 -7 0.01 0.08
-3 -2 7 0.07 0.09
-3 -2 7 -0.02 0.09
-3 -2 7 -0.09 0.08
2 2 -7 2.04 0.16
2 2 -7 2.29 0.18
-2 -2 7 2.27 0.18
-2 -2 7 2.07 0.19
-2 -2 7 2.23 0.18
1 2 -7 0.11 0.06
1 2 -7 0.19 0.08
1 2 -7 0.13 0.06
-1 -2 7 0.12 0.07
-1 -2 7 0.16 0.08
-1 -2 7 0.21 0.08
0 2 -7 0.86 0.1
0 2 -7 0.98 0.12
0 2 -7 0.84 0.13
0 -2 7 0.85 0.09
0 -2 7 0.8 0.13
-1 2 -7 0.05 0.05
-1 2 -7 -0.02 0.04
-1 2 -7 -0.05 0.04
-1 2 -7 0.05 0.05
1 -2 7 -0.02 0.06
1 -2 7 -0.08 0.06
-2 2 -7 1.97 0.14
-2 2 -7 2.29 0.16
-2 2 -7 1.95 0.16
2 -2 7 1.95 0.17
2 -2 7 1.97 0.17
-3 2 -7 3.6 0.2
-3 2 -7 3.46 0.2
-3 2 -7 3.65 0.22
3 -2 7 3.57 0.23
3 -2 7 3.2 0.2
-4 2 -7 0.91 0.12
-4 2 -7 0.81 0.11
4 -2 7 0.93 0.15
-5 2 -7 0.05 0.08
-5 2 -7 0 0.07
5 -2 7 0.13 0.09
-6 2 -7 0.06 0.08
-7 2 -7 0.21 0.1
-8 2 -7 0.14 0.1
7 1 -7 0.25 0.13
-7 -1 7 0.37 0.12
6 1 -7 -0.07 0.1
-6 -1 7 -0.09 0.09
-6 -1 7 0 0.11
5 1 -7 0.17 0.1
-5 -1 7 0.01 0.09
-5 -1 7 0.03 0.1
4 1 -7 0.99 0.15
4 1 -7 0.7 0.11
-4 -1 7 0.37 0.12
-4 -1 7 0.72 0.13
-4 -1 7 0.71 0.13
3 1 -7 1.56 0.14
3 1 -7 1.58 0.14
3 1 -7 1.77 0.18
-3 -1 7 1.82 0.15
-3 -1 7 1.59 0.17
-3 -1 7 1.56 0.17
2 1 -7 -0.06 0.05
2 1 -7 -0.04 0.05
2 1 -7 0.04 0.06
-2 -1 7 0.07 0.05
-2 -1 7 0.04 0.07
-2 -1 7 -0.03 0.07
-2 -1 7 -0.01 0.07
1 1 -7 -0.06 0.05
1 1 -7 0.05 0.05
1 1 -7 0.1 0.06
1 1 -7 -0.03 0.05
-1 -1 7 0.01 0.06
-1 -1 7 -0.02 0.07
-1 -1 7 0.04 0.06
0 1 -7 10.57 0.37
0 1 -7 10.51 0.45
0 1 -7 10.17 0.44
0 -1 7 10.75 0.43
0 -1 7 11.16 0.45
0 -1 7 10.16 0.41
0 -1 7 11.22 0.44
-1 1 -7 1.35 0.12
-1 1 -7 1.4 0.11
-1 1 -7 1.27 0.12
1 -1 7 1.12 0.09
1 -1 7 1.12 0.13
1 -1 7 1.06 0.13
-2 1 -7 0.13 0.05
-2 1 -7 0.14 0.05
-2 1 -7 0.07 0.05
2 -1 7 0.09 0.06
2 -1 7 0.17 0.08
-3 1 -7 0.14 0.05
-3 1 -7 0.04 0.05
-3 1 -7 0.01 0.05
3 -1 7 -0.07 0.06
3 -1 7 -0.1 0.05
-4 1 -7 0.98 0.12
-4 1 -7 1.36 0.13
4 -1 7 1.24 0.14
-5 1 -7 0 0.07
-5 1 -7 0.08 0.07
5 -1 7 0.05 0.08
-6 1 -7 0.45 0.1
6 -1 7 0.43 0.12
-7 1 -7 -0.01 0.07
-8 1 -7 0.08 0.09
-9 1 -7 -0.07 0.09
7 0 -7 0.12 0.13
7 0 -7 0.03 0.11
-7 0 7 0.09 0.15
-7 0 7 -0.07 0.11
6 0 -7 0.11 0.13
6 0 -7 -0.03 0.1
-6 0 7 -0.03 0.12
-6 0 7 0.07 0.12
-6 0 7 -0.03 0.1
5 0 -7 0.11 0.1
-5 0 7 0.22 0.1
-5 0 7 0.21 0.12
-5 0 7 0.03 0.1
4 0 -7 0.14 0.08
4 0 -7 0.03 0.07
-4 0 7 0.09 0.08
-4 0 7 -0.06 0.08
-4 0 7 0.15 0.09
-4 0 7 0.02 0.09
3 0 -7 0.47 0.11
3 0 -7 0.66 0.1
3 0 -7 0.45 0.1
-3 0 7 0.57 0.11
-3 0 7 0.58 0.11
-3 0 7 0.38 0.1
-3 0 7 0.43 0.1
2 0 -7 2.09 0.18
2 0 -7 2.06 0.14
2 0 -7 1.87 0.15
-2 0 7 1.88 0.17
-2 0 7 2.28 0.17
-2 0 7 2.19 0.11
-2 0 7 2.19 0.17
1 0 -7 1.17 0.12
1 0 -7 1.26 0.15
1 0 -7 1.33 0.12
-1 0 7 1.28 0.14
-1 0 7 1.26 0.13
-1 0 7 1.36 0.13
0 0 -7 3.08 0.19
0 0 -7 3.31 0.17
0 0 7 2.93 0.17
0 0 7 3.2 0.18
0 0 7 3.32 0.18
0 0 7 3.11 0.19
-1 0 -7 0.11 0.04
-1 0 -7 0.08 0.05
-1 0 -7 0.11 0.05
1 0 7 0.14 0.04
1 0 7 0.09 0.05
1 0 7 0.14 0.06
-2 0 -7 14.94 0.56
-2 0 -7 14.19 0.49
-2 0 -7 15.07 0.58
2 0 7 14.89 0.58
2 0 7 14.87 0.55
-3 0 -7 6.62 0.29
-3 0 -7 6.82 0.28
3 0 7 6.74 0.32
-4 0 -7 0.64 0.1
-4 0 -7 0.6 0.09
4 0 7 0.64 0.12
-5 0 -7 0.27 0.07
-5 0 -7 0.36 0.09
5 0 7 0.41 0.1
-6 0 -7 0.12 0.06
-6 0 -7 0.11 0.08
-6 0 -7 0.09 0.07
6 0 7 0.16 0.09
-7 0 -7 0.03 0.07
7 0 7 0.09 0.09
-8 0 -7 0 0.08
-9 0 -7 0.04 0.08
7 -1 -7 0.54 0.16
7 -1 -7 0.7 0.19
-7 1 7 0.46 0.14
-7 1 7 0.4 0.17
6 -1 -7 0.16 0.12
6 -1 -7 -0.04 0.12
-6 1 7 0.1 0.1
-6 1 7 -0.03 0.13
-6 1 7 -0.01 0.12
5 -1 -7 -0.11 0.08
5 -1 -7 -0.04 0.08
5 -1 -7 0.08 0.09
-5 1 7 0.05 0.08
-5 1 7 -0.06 0.1
-5 1 7 -0.01 0.09
4 -1 -7 0.09 0.08
4 -1 -7 0.13 0.08
4 -1 -7 0.1 0.08
-4 1 7 -0.03 0.08
-4 1 7 0.05 0.09
-4 1 7 0.15 0.1
3 -1 -7 0.02 0.06
3 -1 -7 0.04 0.06
3 -1 -7 0.1 0.07
-3 1 7 -0.06 0.07
-3 1 7 0.05 0.08
-3 1 7 0.06 0.07
-3 1 7 0.06 0.07
2 -1 -7 6.18 0.3
2 -1 -7 6.57 0.27
2 -1 -7 5.76 0.31
-2 1 7 6.02 0.31
-2 1 7 6.36 0.3
-2 1 7 6.59 0.3
-2 1 7 6.54 0.23
-2 1 7 6.13 0.29
1 -1 -7 0.76 0.1
1 -1 -7 0.68 0.11
1 -1 -7 0.73 0.1
-1 1 7 0.94 0.11
-1 1 7 0.74 0.12
-1 1 7 0.72 0.07
-1 1 7 0.94 0.11
-1 1 7 0.64 0.1
0 -1 -7 0.45 0.08
0 -1 -7 0.48 0.07
0 1 7 0.63 0.09
0 1 7 0.37 0.07
0 1 7 0.48 0.08
0 1 7 0.45 0.06
-1 -1 -7 3.01 0.16
-1 -1 -7 2.98 0.17
1 1 7 2.87 0.18
1 1 7 2.74 0.17
1 1 7 3.03 0.16
-2 -1 -7 1.06 0.1
-2 -1 -7 1.23 0.11
-2 -1 -7 1.29 0.11
2 1 7 1.17 0.12
2 1 7 1.23 0.1
-3 -1 -7 0.44 0.07
-3 -1 -7 0.55 0.09
3 1 7 0.45 0.08
-4 -1 -7 1.6 0.13
-4 -1 -7 1.74 0.13
4 1 7 1.51 0.15
-5 -1 -7 1.95 0.14
-5 -1 -7 1.68 0.15
5 1 7 2.11 0.18
-6 -1 -7 -0.05 0.06
-6 -1 -7 0.01 0.05
6 1 7 -0.02 0.09
-7 -1 -7 -0.03 0.05
7 1 7 0.07 0.1
-8 -1 -7 0.04 0.07
7 -2 -7 0.08 0.13
7 -2 -7 -0.06 0.11
7 -2 -7 -0.02 0.15
-7 2 7 -0.1 0.15
-7 2 7 0.01 0.1
6 -2 -7 0.04 0.13
6 -2 -7 0.09 0.11
-6 2 7 0.05 0.1
-6 2 7 -0.02 0.13
-6 2 7 -0.01 0.11
5 -2 -7 0.66 0.14
5 -2 -7 0.47 0.12
-5 2 7 0.83 0.17
-5 2 7 0.3 0.13
-5 2 7 0.86 0.14
4 -2 -7 0.58 0.12
4 -2 -7 0.69 0.12
-4 2 7 0.72 0.13
-4 2 7 0.53 0.12
-4 2 7 0.64 0.13
3 -2 -7 0.03 0.07
3 -2 -7 0.01 0.07
-3 2 7 -0.02 0.07
-3 2 7 0.1 0.08
-3 2 7 0.01 0.07
2 -2 -7 0.97 0.15
2 -2 -7 0.73 0.1
-2 2 7 0.74 0.11
-2 2 7 0.97 0.13
-2 2 7 1.07 0.13
-2 2 7 0.62 0.08
-2 2 7 0.68 0.12
1 -2 -7 0.36 0.08
1 -2 -7 0.33 0.08
-1 2 7 0.34 0.08
-1 2 7 0.35 0.05
-1 2 7 0.41 0.09
-1 2 7 0.37 0.08
0 -2 -7 0.1 0.05
0 -2 -7 0.08 0.06
0 2 7 0.23 0.08
0 2 7 0.11 0.05
0 2 7 0.19 0.05
0 2 7 0 0.05
0 2 7 0.15 0.06
-1 -2 -7 5.35 0.22
-1 -2 -7 5.19 0.27
-1 -2 -7 5.47 0.25
1 2 7 5.59 0.26
1 2 7 5.75 0.26
1 2 7 5.15 0.25
-2 -2 -7 1.17 0.11
-2 -2 -7 1.43 0.11
2 2 7 1.3 0.12
2 2 7 1.27 0.11
-3 -2 -7 0.68 0.09
-3 -2 -7 0.66 0.09
3 2 7 0.5 0.09
3 2 7 0.51 0.09
-4 -2 -7 0.08 0.05
-4 -2 -7 0.16 0.05
-4 -2 -7 0.17 0.07
4 2 7 0.1 0.05
4 2 7 0.29 0.08
-5 -2 -7 0.6 0.09
-5 -2 -7 0.63 0.1
-5 -2 -7 0.58 0.1
5 2 7 0.85 0.13
-6 -2 -7 0.29 0.07
-6 -2 -7 0.32 0.09
6 2 7 0.35 0.11
-7 -2 -7 0.36 0.07
7 2 7 0.35 0.13
-8 -2 -7 0.02 0.06
8 2 7 0.09 0.11
7 -3 -7 0.12 0.17
-7 3 7 -0.04 0.11
-7 3 7 0.03 0.16
6 -3 -7 0.32 0.17
-6 3 7 0.19 0.13
-6 3 7 0.29 0.16
-6 3 7 0.37 0.12
5 -3 -7 0.7 0.16
-5 3 7 0.64 0.14
-5 3 7 0.26 0.11
-5 3 7 0.6 0.15
4 -3 -7 0.01 0.09
-4 3 7 0.07 0.1
-4 3 7 0.19 0.11
-4 3 7 -0.03 0.08
3 -3 -7 1.07 0.18
3 -3 -7 0.77 0.12
-3 3 7 0.84 0.14
-3 3 7 0.87 0.13
-3 3 7 0.92 0.14
2 -3 -7 2.02 0.15
2 -3 -7 1.92 0.19
-2 3 7 2.02 0.16
-2 3 7 1.85 0.16
-2 3 7 1.84 0.17
-2 3 7 1.78 0.11
1 -3 -7 3.35 0.22
1 -3 -7 3.36 0.18
-1 3 7 3.77 0.21
-1 3 7 3.73 0.19
-1 3 7 3.6 0.16
-1 3 7 3.67 0.22
-1 3 7 3.58 0.2
0 -3 -7 0.05 0.05
0 -3 -7 0.08 0.06
0 3 7 0 0.03
0 3 7 0.05 0.07
0 3 7 0.04 0.05
0 3 7 0.04 0.04
0 3 7 -0.05 0.04
-1 -3 -7 4.03 0.24
-1 -3 -7 4.39 0.22
-1 -3 -7 4.12 0.19
1 3 7 4.21 0.21
1 3 7 4.36 0.23
1 3 7 4.21 0.21
-2 -3 -7 1.86 0.16
-2 -3 -7 1.64 0.13
-2 -3 -7 1.85 0.13
2 3 7 1.89 0.15
2 3 7 1.71 0.15
2 3 7 2.24 0.15
-3 -3 -7 0.03 0.04
-3 -3 -7 0 0.05
-3 -3 -7 -0.02 0.04
3 3 7 -0.02 0.04
3 3 7 -0.01 0.04
-4 -3 -7 1.35 0.15
-4 -3 -7 1.28 0.12
-4 -3 -7 1.22 0.12
4 3 7 1.22 0.13
4 3 7 1.22 0.13
-5 -3 -7 0.04 0.07
-5 -3 -7 0.13 0.06
-5 -3 -7 0.11 0.06
5 3 7 0.14 0.07
5 3 7 0.08 0.08
-6 -3 -7 0.14 0.09
-6 -3 -7 0.15 0.06
-6 -3 -7 0.2 0.08
6 3 7 -0.04 0.08
-7 -3 -7 0.03 0.06
7 3 7 0.09 0.1
-8 -3 -7 0.14 0.06
8 3 7 0.02 0.12
9 3 7 0.12 0.12
-7 4 7 0.16 0.16
-7 4 7 0.12 0.14
6 -4 -7 0.21 0.16
-6 4 7 0.21 0.15
-6 4 7 0.26 0.12
-6 4 7 0.1 0.13
5 -4 -7 0.27 0.14
-5 4 7 0.12 0.12
-5 4 7 0.06 0.12
-5 4 7 0.07 0.1
4 -4 -7 1.56 0.21
-4 4 7 1.74 0.18
-4 4 7 1.59 0.18
-4 4 7 1.15 0.19
3 -4 -7 0.48 0.11
3 -4 -7 0.93 0.15
-3 4 7 0.86 0.13
-3 4 7 0.73 0.14
-3 4 7 0.88 0.14
2 -4 -7 0.13 0.08
2 -4 -7 0.19 0.08
-2 4 7 0.08 0.08
-2 4 7 0.14 0.07
-2 4 7 0.07 0.08
-2 4 7 0.11 0.05
1 -4 -7 1.09 0.14
1 -4 -7 0.95 0.12
-1 4 7 0.82 0.13
-1 4 7 0.87 0.09
-1 4 7 0.86 0.13
-1 4 7 0.78 0.11
0 -4 -7 1.06 0.15
0 -4 -7 1.44 0.13
0 4 7 1.27 0.12
0 4 7 1.33 0.14
0 4 7 1.53 0.1
0 4 7 1.71 0.16
0 4 7 1.47 0.15
-1 -4 -7 0.63 0.09
-1 -4 -7 0.47 0.08
-1 -4 -7 0.53 0.1
1 4 7 0.45 0.08
1 4 7 0.55 0.07
1 4 7 0.52 0.1
-2 -4 -7 3.49 0.18
-2 -4 -7 3.6 0.22
-2 -4 -7 3.65 0.2
2 4 7 3.65 0.2
2 4 7 3.31 0.2
2 4 7 3.6 0.22
-3 -4 -7 1.83 0.16
-3 -4 -7 1.79 0.13
-3 -4 -7 1.89 0.14
3 4 7 1.85 0.16
3 4 7 1.94 0.15
-4 -4 -7 0.29 0.06
-4 -4 -7 0.35 0.07
-4 -4 -7 0.31 0.09
4 4 7 0.18 0.07
4 4 7 0.39 0.09
-5 -4 -7 1.33 0.13
-5 -4 -7 1.02 0.16
-5 -4 -7 1.28 0.13
5 4 7 1.36 0.15
5 4 7 1.46 0.16
-6 -4 -7 0.22 0.07
-6 -4 -7 0.17 0.09
6 4 7 0.3 0.1
-7 -4 -7 0.59 0.1
-7 -4 -7 0.63 0.13
7 4 7 0.58 0.13
-8 -4 -7 0.03 0.06
8 4 7 0.07 0.13
-9 -4 -7 0.15 0.07
9 4 7 0.09 0.11
-6 5 7 0.16 0.15
-6 5 7 -0.12 0.11
5 -5 -7 -0.06 0.13
-5 5 7 0 0.11
-5 5 7 -0.07 0.1
-5 5 7 0.07 0.11
4 -5 -7 0.04 0.13
-4 5 7 0.02 0.1
-4 5 7 -0.09 0.09
-4 5 7 0.06 0.11
3 -5 -7 0.15 0.11
-3 5 7 0.18 0.09
-3 5 7 0.15 0.09
-3 5 7 0.31 0.11
2 -5 -7 3.84 0.22
2 -5 -7 3.68 0.28
-2 5 7 3.67 0.17
-2 5 7 3.42 0.26
-2 5 7 3.49 0.24
-2 5 7 3.82 0.24
1 -5 -7 0.07 0.08
1 -5 -7 0.12 0.07
-1 5 7 0.25 0.08
-1 5 7 0.12 0.05
-1 5 7 0.25 0.08
-1 5 7 0.1 0.08
0 -5 -7 2.84 0.18
0 -5 -7 2.67 0.21
0 5 7 2.71 0.16
0 5 7 2.56 0.18
0 5 7 2.81 0.15
0 5 7 2.67 0.21
-1 -5 -7 0.27 0.07
-1 -5 -7 0.27 0.08
-1 -5 -7 0.26 0.07
1 5 7 0.3 0.07
1 5 7 0.3 0.09
1 5 7 0.35 0.07
1 5 7 0.15 0.05
-2 -5 -7 1.19 0.11
-2 -5 -7 1.33 0.14
-2 -5 -7 1.49 0.16
2 5 7 1.54 0.13
2 5 7 1.68 0.15
2 5 7 1.33 0.16
-3 -5 -7 0.5 0.09
-3 -5 -7 0.79 0.09
-3 -5 -7 0.81 0.12
3 5 7 0.72 0.12
3 5 7 0.7 0.09
3 5 7 0.64 0.11
-4 -5 -7 0.96 0.11
-4 -5 -7 1.06 0.13
-4 -5 -7 1.24 0.16
4 5 7 0.88 0.14
4 5 7 0.98 0.14
-5 -5 -7 0.12 0.09
-5 -5 -7 0.05 0.05
5 5 7 0.01 0.07
5 5 7 0.03 0.07
-6 -5 -7 0.35 0.08
-6 -5 -7 0.5 0.12
6 5 7 0.51 0.12
6 5 7 0.28 0.1
-7 -5 -7 2.1 0.16
-7 -5 -7 2.36 0.23
7 5 7 1.66 0.2
-8 -5 -7 0.69 0.16
-8 -5 -7 1.03 0.13
8 5 7 0.91 0.18
-9 -5 -7 0.48 0.11
9 5 7 0.37 0.14
-6 6 7 -0.09 0.15
-6 6 7 0.07 0.12
-5 6 7 -0.01 0.12
-5 6 7 0.06 0.11
-5 6 7 -0.05 0.11
4 -6 -7 0.22 0.13
-4 6 7 0.1 0.12
-4 6 7 0.12 0.1
-4 6 7 0.2 0.13
3 -6 -7 0 0.1
-3 6 7 0.04 0.1
-3 6 7 -0.05 0.09
-3 6 7 -0.08 0.09
2 -6 -7 0.62 0.14
2 -6 -7 0.66 0.12
-2 6 7 1 0.15
-2 6 7 0.84 0.1
-2 6 7 0.76 0.15
-2 6 7 0.77 0.13
1 -6 -7 1.94 0.23
1 -6 -7 2.26 0.18
-1 6 7 2.38 0.15
-1 6 7 2.61 0.19
-1 6 7 2.03 0.21
-1 6 7 2.42 0.2
0 -6 -7 4.66 0.25
0 -6 -7 4.9 0.3
0 6 7 4.95 0.22
0 6 7 5.15 0.26
0 6 7 4.84 0.26
0 6 7 5 0.3
-1 -6 -7 4.44 0.27
-1 -6 -7 3.93 0.22
1 6 7 4.31 0.21
1 6 7 4.02 0.21
1 6 7 4.24 0.27
1 6 7 4.61 0.25
-2 -6 -7 0.37 0.09
-2 -6 -7 0.42 0.09
-2 -6 -7 0.45 0.08
2 6 7 0.51 0.12
2 6 7 0.55 0.1
2 6 7 0.4 0.08
-3 -6 -7 0.1 0.06
-3 -6 -7 0.24 0.1
3 6 7 0.11 0.07
3 6 7 0.18 0.07
3 6 7 0.21 0.09
-4 -6 -7 2.14 0.17
-4 -6 -7 2.16 0.2
4 6 7 2.04 0.17
4 6 7 2.07 0.19
-5 -6 -7 0.14 0.1
-5 -6 -7 -0.02 0.06
5 6 7 0.17 0.09
5 6 7 -0.08 0.06
-6 -6 -7 0.63 0.13
-6 -6 -7 0.43 0.09
6 6 7 0.67 0.13
6 6 7 0.27 0.12
-7 -6 -7 0 0.11
-7 -6 -7 0.15 0.08
7 6 7 -0.11 0.07
-8 -6 -7 -0.05 0.07
-8 -6 -7 -0.02 0.12
8 6 7 -0.06 0.12
-9 -6 -7 1.17 0.15
9 6 7 0.95 0.19
-6 7 7 -0.06 0.12
-6 7 7 -0.14 0.13
-5 7 7 -0.02 0.12
-5 7 7 -0.13 0.12
-5 7 7 0.02 0.14
-4 7 7 0.12 0.13
-4 7 7 0.12 0.11
-4 7 7 0.28 0.14
3 -7 -7 0.76 0.16
-3 7 7 0.39 0.13
-3 7 7 1.02 0.17
-3 7 7 1.18 0.17
2 -7 -7 -0.17 0.09
2 -7 -7 -0.04 0.09
-2 7 7 -0.04 0.09
-2 7 7 -0.09 0.09
-2 7 7 0.07 0.1
-2 7 7 0.01 0.06
1 -7 -7 0.7 0.13
1 -7 -7 0.64 0.14
-1 7 7 0.73 0.1
-1 7 7 0.83 0.16
-1 7 7 0.83 0.13
0 -7 -7 6.04 0.34
0 -7 -7 6.28 0.29
0 7 7 6.22 0.27
0 7 7 6.35 0.3
0 7 7 6.13 0.36
-1 -7 -7 0.67 0.13
-1 -7 -7 0.55 0.1
1 7 7 0.77 0.11
1 7 7 0.88 0.12
1 7 7 0.51 0.13
-2 -7 -7 30.32 1.1
-2 -7 -7 29.87 1.13
2 7 7 29.23 1.19
2 7 7 30.72 1.08
2 7 7 29.97 1.08
-3 -7 -7 2.37 0.22
-3 -7 -7 1.93 0.18
3 7 7 1.73 0.21
3 7 7 1.95 0.16
3 7 7 1.98 0.2
3 7 7 1.95 0.18
-4 -7 -7 7.2 0.35
-4 -7 -7 7.5 0.4
4 7 7 6.87 0.36
4 7 7 7.15 0.4
4 7 7 7.34 0.35
-5 -7 -7 0.22 0.12
-5 -7 -7 0.25 0.08
5 7 7 0.27 0.11
-6 -7 -7 -0.07 0.12
-6 -7 -7 0.09 0.09
6 7 7 0.08 0.11
-7 -7 -7 0.42 0.1
-7 -7 -7 0.67 0.16
7 7 7 0.33 0.14
-8 -7 -7 -0.08 0.08
-8 -7 -7 -0.02 0.14
8 7 7 -0.01 0.11
-5 8 7 0.02 0.14
-5 8 7 0.01 0.13
-4 8 7 0.01 0.11
-4 8 7 -0.05 0.14
-4 8 7 -0.06 0.15
-3 8 7 0.06 0.12
-3 8 7 0.06 0.12
2 -8 -7 -0.1 0.11
2 -8 -7 0.13 0.1
-2 8 7 0.12 0.07
-2 8 7 0.18 0.11
-2 8 7 -0.06 0.1
1 -8 -7 0.16 0.1
1 -8 -7 -0.08 0.1
-1 8 7 -0.02 0.11
-1 8 7 0.17 0.07
-1 8 7 -0.07 0.09
0 -8 -7 -0.09 0.09
0 -8 -7 0.06 0.08
0 8 7 0.03 0.06
0 8 7 0.17 0.11
0 8 7 0.04 0.07
-1 -8 -7 2.1 0.21
1 8 7 2.1 0.16
1 8 7 2.16 0.22
1 8 7 2.01 0.22
-2 -8 -7 5.87 0.34
2 8 7 5.12 0.34
2 8 7 5.67 0.32
-3 -8 -7 4.6 0.31
-3 -8 -7 4.56 0.28
3 8 7 4.61 0.29
3 8 7 4.38 0.29
3 8 7 4.44 0.32
-4 -8 -7 19.39 0.81
-4 -8 -7 19.15 0.77
4 8 7 20.53 0.76
4 8 7 18.68 0.84
-5 -8 -7 3.5 0.24
-5 -8 -7 3.85 0.3
5 8 7 3.56 0.3
-6 -8 -7 7.99 0.43
-6 -8 -7 7.51 0.38
6 8 7 7.51 0.45
-7 -8 -7 0.79 0.17
-7 -8 -7 0.7 0.13
7 8 7 0.35 0.15
-8 -8 -7 0.01 0.14
-8 -8 -7 0.05 0.1
-4 9 7 -0.24 0.14
-3 9 7 0.29 0.14
-3 9 7 0.24 0.14
2 -9 -7 0.13 0.12
-2 9 7 0.14 0.14
-2 9 7 -0.01 0.06
-2 9 7 -0.09 0.12
1 -9 -7 -0.06 0.09
1 -9 -7 0.02 0.12
-1 9 7 0.09 0.07
-1 9 7 0.07 0.12
-1 9 7 -0.1 0.12
0 -9 -7 0.01 0.11
0 9 7 0.23 0.13
0 9 7 0.09 0.07
-1 -9 -7 0.08 0.11
1 9 7 0.18 0.13
1 9 7 0.18 0.08
1 9 7 0.13 0.1
-2 -9 -7 0.66 0.15
2 9 7 0.72 0.18
2 9 7 0.71 0.14
-3 -9 -7 0.38 0.13
3 9 7 0.37 0.13
3 9 7 0.28 0.1
-4 -9 -7 0.79 0.18
-4 -9 -7 0.68 0.14
4 9 7 0.67 0.18
4 9 7 0.9 0.14
-5 -9 -7 3.46 0.3
-5 -9 -7 3.24 0.26
5 9 7 3.26 0.31
5 9 7 3.8 0.3
-6 -9 -7 9.04 0.48
-6 -9 -7 8.44 0.43
6 9 7 7.91 0.49
-7 -9 -7 3.23 0.26
-7 -9 -7 3.99 0.32
3 -10 -7 0.34 0.16
-3 10 7 0.68 0.21
2 -10 -7 -0.01 0.13
-2 10 7 -0.09 0.07
-2 10 7 0.01 0.13
-2 10 7 0.08 0.14
-1 10 7 1.05 0.19
-1 10 7 0.82 0.13
-1 10 7 0.84 0.19
0 -10 -7 0 0.11
0 10 7 0.22 0.14
0 10 7 0.31 0.1
-1 -10 -7 0.34 0.13
1 10 7 0.5 0.11
1 10 7 0.72 0.13
1 10 7 0.37 0.16
-2 -10 -7 -0.1 0.11
2 10 7 -0.1 0.13
2 10 7 -0.14 0.1
-3 -10 -7 0.11 0.14
3 10 7 0.04 0.14
3 10 7 0.17 0.09
-4 -10 -7 0.07 0.13
4 10 7 0.13 0.14
4 10 7 0.08 0.1
-5 -10 -7 1.26 0.21
-5 -10 -7 0.91 0.18
5 10 7 0.47 0.13
-6 -10 -7 0.69 0.18
-6 -10 -7 0.15 0.15
-2 11 7 0.13 0.16
-2 11 7 -0.01 0.07
-1 11 7 0.48 0.11
0 11 7 0.14 0.09
-1 -11 -7 1.49 0.22
1 11 7 1.12 0.16
1 11 7 1.13 0.17
-2 -11 -7 0.25 0.15
2 11 7 0.1 0.12
-3 -11 -7 0.32 0.15
3 11 7 0.39 0.13
-4 -11 -7 0 0.14
4 11 7 -0.01 0.1
-5 -11 -7 0.3 0.16
-5 -11 -7 0.08 0.15
5 11 7 -0.08 0.11
1 12 7 0.18 0.12
-2 -12 -7 0.05 0.14
2 12 7 0.13 0.14
-3 -12 -7 0.23 0.15
3 12 7 0.07 0.14
2 8 -8 -0.14 0.1
2 8 -8 0.18 0.17
-2 -8 8 0.13 0.14
1 8 -8 0.61 0.2
1 8 -8 0.43 0.13
-1 -8 8 0.39 0.18
0 8 -8 0.22 0.16
0 -8 8 0.17 0.14
-1 8 -8 0.51 0.18
-2 8 -8 -0.15 0.14
2 -8 8 -0.16 0.12
3 7 -8 -0.05 0.14
3 7 -8 -0.03 0.11
-3 -7 8 0.01 0.15
2 7 -8 0.16 0.11
2 7 -8 -0.05 0.14
-2 -7 8 0.13 0.14
1 7 -8 -0.06 0.13
1 7 -8 0.02 0.11
-1 -7 8 0.04 0.13
0 7 -8 -0.11 0.12
0 -7 8 -0.05 0.13
-1 7 -8 0.56 0.17
1 -7 8 0.48 0.13
1 -7 8 0.6 0.16
-2 7 -8 0.41 0.17
2 -7 8 0.39 0.12
-3 7 -8 0.69 0.19
3 -7 8 0.4 0.13
-4 7 -8 -0.05 0.16
4 -7 8 0.41 0.14
4 6 -8 0.75 0.21
-4 -6 8 0.73 0.18
3 6 -8 0.2 0.14
-3 -6 8 0.17 0.13
2 6 -8 -0.16 0.12
2 6 -8 0.23 0.1
-2 -6 8 0.17 0.13
1 6 -8 -0.08 0.08
1 6 -8 -0.01 0.12
-1 -6 8 0.06 0.12
0 6 -8 0.15 0.1
0 6 -8 0.19 0.12
0 -6 8 -0.01 0.11
-1 6 -8 -0.01 0.12
1 -6 8 -0.02 0.09
1 -6 8 0.21 0.13
-2 6 -8 0.1 0.13
2 -6 8 0.08 0.12
2 -6 8 0.02 0.09
-3 6 -8 0.76 0.17
3 -6 8 0.37 0.12
-4 6 -8 0.25 0.15
4 -6 8 0.4 0.13
-5 6 -8 0.68 0.19
5 -6 8 0.48 0.14
-6 6 -8 -0.08 0.12
5 5 -8 0.56 0.2
-5 -5 8 0.62 0.17
4 5 -8 1.07 0.21
-4 -5 8 0.77 0.17
-4 -5 8 1.18 0.2
3 5 -8 1.19 0.2
-3 -5 8 0.66 0.16
2 5 -8 2.04 0.23
-2 -5 8 1.59 0.19
1 5 -8 0.41 0.14
1 5 -8 0.3 0.09
-1 -5 8 0.12 0.11
0 5 -8 0.07 0.11
0 5 -8 0.02 0.08
0 -5 8 0.12 0.1
0 -5 8 0.24 0.09
-1 5 -8 0.08 0.11
1 -5 8 0.11 0.11
1 -5 8 0.22 0.09
-2 5 -8 0 0.1
2 -5 8 0.01 0.09
2 -5 8 0.11 0.11
-3 5 -8 0.01 0.11
3 -5 8 0.06 0.11
3 -5 8 -0.06 0.11
-4 5 -8 0.06 0.12
-4 5 -8 0.04 0.11
4 -5 8 0.28 0.12
-5 5 -8 0.06 0.13
5 -5 8 0.08 0.11
-6 5 -8 0.25 0.12
6 4 -8 -0.07 0.15
-6 -4 8 -0.2 0.12
5 4 -8 0.14 0.16
-5 -4 8 0.06 0.12
4 4 -8 1.09 0.2
-4 -4 8 0.71 0.16
-4 -4 8 1.03 0.18
3 4 -8 0.06 0.11
-3 -4 8 -0.12 0.11
-3 -4 8 0.31 0.13
2 4 -8 3.64 0.27
-2 -4 8 2.95 0.25
1 4 -8 0.26 0.11
-1 -4 8 0.4 0.12
0 4 -8 3.01 0.22
0 4 -8 3.13 0.24
0 -4 8 2.75 0.23
0 -4 8 3.26 0.19
-1 4 -8 -0.02 0.08
1 -4 8 0.03 0.08
1 -4 8 0.02 0.09
-2 4 -8 -0.03 0.09
-2 4 -8 0.05 0.07
2 -4 8 -0.07 0.09
2 -4 8 -0.02 0.08
-3 4 -8 0.25 0.11
-3 4 -8 0.25 0.1
-3 4 -8 0.34 0.09
3 -4 8 0.28 0.12
3 -4 8 0.08 0.1
-4 4 -8 -0.17 0.08
-4 4 -8 0.17 0.09
4 -4 8 -0.1 0.09
4 -4 8 -0.04 0.1
-5 4 -8 0.14 0.11
-6 4 -8 0.01 0.11
-7 4 -8 -0.12 0.12
6 3 -8 0.36 0.16
-6 -3 8 0.2 0.11
5 3 -8 0.06 0.13
-5 -3 8 0.11 0.11
4 3 -8 0.02 0.1
-4 -3 8 -0.11 0.1
-4 -3 8 0.04 0.1
3 3 -8 0.04 0.08
3 3 -8 0.1 0.1
-3 -3 8 0.03 0.09
-3 -3 8 -0.16 0.1
2 3 -8 0.54 0.11
2 3 -8 0.72 0.15
-2 -3 8 0.86 0.14
-2 -3 8 0.9 0.15
1 3 -8 -0.06 0.07
-1 -3 8 0.07 0.09
0 3 -8 0.78 0.1
0 3 -8 0.86 0.15
0 -3 8 0.86 0.14
0 -3 8 0.8 0.1
-1 3 -8 -0.02 0.06
-1 3 -8 -0.01 0.07
-1 3 -8 0.04 0.06
1 -3 8 0 0.08
1 -3 8 0.08 0.09
-2 3 -8 4.48 0.22
-2 3 -8 4.05 0.27
-2 3 -8 4.62 0.26
2 -3 8 4.16 0.25
2 -3 8 4.27 0.27
-3 3 -8 0.57 0.12
-3 3 -8 0.37 0.08
-3 3 -8 0.41 0.1
3 -3 8 0.39 0.12
3 -3 8 0.66 0.11
-4 3 -8 0.1 0.08
-4 3 -8 0.09 0.08
4 -3 8 0.09 0.09
4 -3 8 -0.12 0.09
-5 3 -8 0.15 0.1
-6 3 -8 0.18 0.11
-7 3 -8 -0.02 0.1
-8 3 -8 -0.02 0.1
6 2 -8 0.29 0.16
-6 -2 8 0.22 0.12
5 2 -8 0.86 0.19
-5 -2 8 0.88 0.16
4 2 -8 -0.02 0.1
-4 -2 8 0.14 0.13
-4 -2 8 0.13 0.11
-4 -2 8 -0.1 0.1
3 2 -8 0.77 0.15
3 2 -8 0.69 0.12
-3 -2 8 0.68 0.15
-3 -2 8 0.74 0.14
-3 -2 8 0.65 0.14
2 2 -8 1.58 0.19
2 2 -8 1.39 0.16
-2 -2 8 1.84 0.18
-2 -2 8 1.4 0.17
-2 -2 8 1.74 0.17
1 2 -8 0.09 0.07
1 2 -8 0.14 0.08
1 2 -8 0.11 0.06
1 2 -8 0.21 0.07
-1 -2 8 -0.02 0.08
-1 -2 8 0.1 0.09
-1 -2 8 0.07 0.07
0 2 -8 0.18 0.07
0 2 -8 0.14 0.06
0 2 -8 0.25 0.08
0 -2 8 0.3 0.1
0 -2 8 0.19 0.07
-1 2 -8 0.53 0.08
-1 2 -8 0.47 0.07
-1 2 -8 0.51 0.1
1 -2 8 0.55 0.11
1 -2 8 0.51 0.09
-2 2 -8 0.41 0.09
-2 2 -8 0.29 0.08
-2 2 -8 0.27 0.07
2 -2 8 0.28 0.1
2 -2 8 0.33 0.08
-3 2 -8 0.07 0.06
-3 2 -8 0.03 0.07
3 -2 8 0.07 0.08
3 -2 8 0.05 0.08
-4 2 -8 1.39 0.15
-4 2 -8 1.58 0.15
4 -2 8 1.4 0.17
-5 2 -8 0.69 0.12
-5 2 -8 0.98 0.13
5 -2 8 0.72 0.15
-6 2 -8 0.11 0.09
-7 2 -8 -0.12 0.09
-8 2 -8 0.03 0.1
7 1 -8 0.45 0.16
7 1 -8 0.29 0.16
-7 -1 8 0.18 0.13
6 1 -8 0.1 0.15
-6 -1 8 0.18 0.12
5 1 -8 1.16 0.19
-5 -1 8 1.1 0.18
-5 -1 8 1.01 0.16
4 1 -8 0.21 0.1
-4 -1 8 0.16 0.1
-4 -1 8 -0.08 0.1
-4 -1 8 0.25 0.12
3 1 -8 0.98 0.14
3 1 -8 1.17 0.17
-3 -1 8 1.2 0.16
-3 -1 8 0.85 0.15
-3 -1 8 1.1 0.16
2 1 -8 1.64 0.19
2 1 -8 1.84 0.16
2 1 -8 1.96 0.15
2 1 -8 1.77 0.18
-2 -1 8 1.64 0.18
-2 -1 8 1.97 0.12
-2 -1 8 1.62 0.17
-2 -1 8 1.9 0.18
1 1 -8 1.6 0.15
1 1 -8 1.21 0.17
1 1 -8 1.32 0.13
1 1 -8 1.49 0.14
-1 -1 8 1.42 0.14
-1 -1 8 1.38 0.16
-1 -1 8 1.62 0.15
0 1 -8 4.19 0.25
0 1 -8 4.3 0.21
0 1 -8 4.86 0.26
0 1 -8 4.65 0.25
0 -1 8 4.58 0.23
0 -1 8 4.69 0.26
0 -1 8 4.6 0.23
-1 1 -8 0.33 0.08
-1 1 -8 0.25 0.07
-1 1 -8 0.34 0.08
1 -1 8 0.16 0.07
1 -1 8 0.29 0.09
-2 1 -8 0.05 0.05
-2 1 -8 0.06 0.06
-2 1 -8 0.17 0.06
2 -1 8 0.06 0.06
2 -1 8 0.23 0.09
-3 1 -8 -0.02 0.05
-3 1 -8 0.05 0.06
-3 1 -8 0.08 0.06
3 -1 8 -0.04 0.08
3 -1 8 0.01 0.06
-4 1 -8 1.26 0.14
-4 1 -8 0.85 0.13
4 -1 8 1 0.15
-5 1 -8 0.99 0.13
-5 1 -8 0.86 0.13
5 -1 8 0.85 0.15
-6 1 -8 1.08 0.14
-6 1 -8 1.26 0.16
6 -1 8 1.51 0.19
-7 1 -8 0.3 0.1
-8 1 -8 -0.04 0.1
7 0 -8 -0.03 0.14
7 0 -8 0.22 0.15
-7 0 8 0.12 0.12
6 0 -8 0.09 0.13
6 0 -8 0.06 0.11
-6 0 8 0.05 0.14
-6 0 8 0.02 0.11
5 0 -8 0.03 0.09
5 0 -8 -0.1 0.1
-5 0 8 -0.04 0.11
-5 0 8 0.11 0.11
-5 0 8 -0.1 0.09
4 0 -8 -0.11 0.08
4 0 -8 0.02 0.1
4 0 -8 -0.02 0.08
-4 0 8 -0.1 0.08
-4 0 8 0.15 0.1
-4 0 8 0 0.09
3 0 -8 2.53 0.18
3 0 -8 3.04 0.23
3 0 -8 2.24 0.2
-3 0 8 2.16 0.19
-3 0 8 2.18 0.19
-3 0 8 2.48 0.2
2 0 -8 1.05 0.12
2 0 -8 0.7 0.12
2 0 -8 0.64 0.12
-2 0 8 0.84 0.13
-2 0 8 0.84 0.13
-2 0 8 0.56 0.11
-2 0 8 0.72 0.08
1 0 -8 0.34 0.07
1 0 -8 0.2 0.07
1 0 -8 0.22 0.08
-1 0 8 0.28 0.09
-1 0 8 0.44 0.1
-1 0 8 0.32 0.09
0 0 -8 0.1 0.06
0 0 -8 0.13 0.07
0 0 -8 0.1 0.06
0 0 -8 0.11 0.05
0 0 8 0.15 0.08
0 0 8 0.24 0.06
0 0 8 0.04 0.07
0 0 8 0.2 0.06
-1 0 -8 2.19 0.14
-1 0 -8 2.16 0.16
-1 0 -8 2.18 0.15
1 0 8 2.08 0.13
1 0 8 2.15 0.17
1 0 8 1.86 0.17
-2 0 -8 5.57 0.27
-2 0 -8 5.67 0.24
2 0 8 5.68 0.29
2 0 8 5.54 0.26
-3 0 -8 0.64 0.09
-3 0 -8 0.53 0.09
3 0 8 0.99 0.14
3 0 8 0.74 0.09
-4 0 -8 1.59 0.14
-4 0 -8 1.16 0.14
4 0 8 1.22 0.16
-5 0 -8 0.06 0.06
-5 0 -8 0.19 0.07
5 0 8 0.15 0.1
-6 0 -8 0 0.07
-6 0 -8 0.25 0.08
-6 0 -8 0.15 0.07
6 0 8 0.22 0.11
-7 0 -8 0.61 0.12
7 0 8 0.08 0.11
-8 0 -8 0.67 0.12
-9 0 -8 0.09 0.09
7 -1 -8 0.02 0.13
7 -1 -8 0.03 0.14
-7 1 8 0.1 0.14
-7 1 8 0.19 0.13
6 -1 -8 0.2 0.15
6 -1 -8 -0.05 0.11
-6 1 8 0.05 0.14
-6 1 8 -0.05 0.13
-6 1 8 0.19 0.11
5 -1 -8 0.32 0.13
5 -1 -8 0.04 0.1
5 -1 -8 0.04 0.09
-5 1 8 0.18 0.11
-5 1 8 -0.07 0.11
-5 1 8 0 0.09
4 -1 -8 0.06 0.08
4 -1 -8 -0.03 0.08
4 -1 -8 -0.05 0.09
-4 1 8 0.08 0.1
-4 1 8 0.14 0.1
-4 1 8 0.06 0.1
3 -1 -8 1.53 0.16
3 -1 -8 1.26 0.15
3 -1 -8 1.44 0.2
-3 1 8 1.31 0.16
-3 1 8 1.52 0.17
-3 1 8 1.66 0.16
-3 1 8 1.26 0.17
2 -1 -8 0.54 0.09
2 -1 -8 0.26 0.09
2 -1 -8 0.43 0.09
-2 1 8 0.33 0.1
-2 1 8 0.24 0.09
-2 1 8 0.39 0.09
-2 1 8 0.35 0.06
-2 1 8 0.18 0.08
1 -1 -8 0.57 0.09
1 -1 -8 0.58 0.11
1 -1 -8 0.47 0.09
-1 1 8 0.52 0.07
-1 1 8 0.39 0.09
-1 1 8 0.8 0.13
-1 1 8 0.73 0.12
0 -1 -8 0.15 0.07
0 -1 -8 0.17 0.06
0 1 8 0.12 0.06
0 1 8 0.28 0.07
0 1 8 0.17 0.08
0 1 8 0.02 0.06
-1 -1 -8 4.75 0.21
-1 -1 -8 4.32 0.25
-1 -1 -8 4.6 0.23
1 1 8 4.56 0.25
1 1 8 4.35 0.23
1 1 8 4.46 0.22
-2 -1 -8 0.02 0.04
-2 -1 -8 0.02 0.05
2 1 8 0.04 0.06
2 1 8 0.06 0.05
2 1 8 0.03 0.04
-3 -1 -8 1.8 0.13
-3 -1 -8 1.69 0.14
3 1 8 1.44 0.16
3 1 8 1.65 0.15
-4 -1 -8 0.01 0.05
-4 -1 -8 -0.01 0.04
4 1 8 0.01 0.07
-5 -1 -8 0.08 0.06
-5 -1 -8 0.01 0.07
5 1 8 0.24 0.1
-6 -1 -8 0.4 0.1
-6 -1 -8 0.28 0.08
6 1 8 0.52 0.13
-7 -1 -8 0.08 0.06
7 1 8 0.12 0.11
-8 -1 -8 -0.05 0.05
-8 -1 -8 -0.01 0.08
8 1 8 -0.03 0.1
-9 -1 -8 -0.07 0.08
7 -2 -8 -0.22 0.14
7 -2 -8 -0.02 0.13
-7 2 8 0.11 0.12
-7 2 8 -0.02 0.15
6 -2 -8 0 0.14
6 -2 -8 -0.07 0.1
6 -2 -8 0.01 0.1
-6 2 8 0.08 0.11
-6 2 8 0.08 0.13
-6 2 8 0 0.14
5 -2 -8 -0.03 0.09
5 -2 -8 -0.12 0.11
-5 2 8 -0.01 0.1
-5 2 8 0.12 0.11
-5 2 8 0.09 0.12
4 -2 -8 -0.07 0.09
4 -2 -8 0.1 0.09
-4 2 8 0.05 0.09
-4 2 8 -0.05 0.09
-4 2 8 -0.01 0.09
3 -2 -8 1.35 0.18
3 -2 -8 1.92 0.16
-3 2 8 1.5 0.17
-3 2 8 1.67 0.17
-3 2 8 1.58 0.18
2 -2 -8 2.32 0.17
2 -2 -8 1.97 0.22
-2 2 8 2.09 0.18
-2 2 8 2.31 0.19
-2 2 8 2.29 0.16
-2 2 8 2.15 0.12
-2 2 8 1.79 0.17
1 -2 -8 4 0.2
1 -2 -8 3.81 0.21
1 -2 -8 4.04 0.25
-1 2 8 4.13 0.22
-1 2 8 3.91 0.18
-1 2 8 4.02 0.22
-1 2 8 4 0.23
-1 2 8 3.96 0.24
0 -2 -8 1.16 0.16
0 -2 -8 1.45 0.13
0 2 8 1.69 0.15
0 2 8 1.78 0.15
0 2 8 1.4 0.14
0 2 8 1.66 0.14
-1 -2 -8 2.23 0.15
-1 -2 -8 2.22 0.15
-1 -2 -8 2.11 0.18
1 2 8 2.26 0.17
1 2 8 2.48 0.17
1 2 8 2.53 0.16
-2 -2 -8 0.26 0.06
-2 -2 -8 0.32 0.07
-2 -2 -8 0.28 0.07
2 2 8 0.22 0.06
2 2 8 0.28 0.08
2 2 8 0.19 0.06
-3 -2 -8 3.56 0.2
-3 -2 -8 3.38 0.19
-3 -2 -8 3.49 0.18
3 2 8 3.66 0.22
3 2 8 3.8 0.19
3 2 8 3.46 0.2
-4 -2 -8 -0.06 0.04
-4 -2 -8 0.05 0.05
-4 -2 -8 0.04 0.06
4 2 8 0.12 0.08
-5 -2 -8 0.03 0.06
-5 -2 -8 0.04 0.05
5 2 8 0.02 0.08
-6 -2 -8 0.02 0.06
-6 -2 -8 0.1 0.07
6 2 8 -0.12 0.08
-7 -2 -8 0.06 0.09
-7 -2 -8 0.06 0.06
7 2 8 -0.01 0.1
-8 -2 -8 0.12 0.07
8 2 8 0.27 0.13
-9 -2 -8 0.21 0.08
-9 -2 -8 0.09 0.06
7 -3 -8 -0.18 0.16
7 -3 -8 0.1 0.14
-7 3 8 0.16 0.17
-7 3 8 -0.06 0.13
6 -3 -8 0.18 0.16
6 -3 -8 0.12 0.12
-6 3 8 -0.03 0.12
-6 3 8 -0.15 0.14
5 -3 -8 -0.1 0.1
5 -3 -8 0.12 0.13
-5 3 8 0.03 0.12
-5 3 8 0.12 0.1
-5 3 8 -0.21 0.1
4 -3 -8 0.02 0.09
4 -3 -8 0.04 0.09
-4 3 8 0.07 0.09
-4 3 8 -0.08 0.09
-4 3 8 -0.02 0.1
3 -3 -8 -0.06 0.08
3 -3 -8 -0.04 0.07
-3 3 8 -0.05 0.07
-3 3 8 0.03 0.08
-3 3 8 -0.03 0.09
2 -3 -8 0.2 0.09
2 -3 -8 0.32 0.09
-2 3 8 0.14 0.1
-2 3 8 0.21 0.1
-2 3 8 0.19 0.05
-2 3 8 0.18 0.08
1 -3 -8 11.09 0.42
1 -3 -8 11.31 0.5
-1 3 8 11.16 0.4
-1 3 8 11.17 0.5
-1 3 8 11.65 0.48
-1 3 8 11.14 0.46
-1 3 8 11.46 0.45
0 -3 -8 2.73 0.16
0 -3 -8 2.61 0.21
0 3 8 2.46 0.17
0 3 8 2.51 0.14
0 3 8 3.09 0.19
0 3 8 2.41 0.18
0 3 8 2.78 0.17
-1 -3 -8 0.13 0.06
-1 -3 -8 0.11 0.05
-1 -3 -8 0.14 0.07
1 3 8 0 0.05
1 3 8 0.14 0.06
1 3 8 0.06 0.06
-2 -3 -8 1.34 0.12
-2 -3 -8 1.51 0.13
-2 -3 -8 1.42 0.15
2 3 8 1.54 0.14
2 3 8 1.65 0.15
2 3 8 1.34 0.14
-3 -3 -8 0.18 0.06
-3 -3 -8 0.14 0.06
-3 -3 -8 0.07 0.06
3 3 8 0.24 0.06
3 3 8 0.07 0.06
3 3 8 0.24 0.07
-4 -3 -8 0.72 0.11
-4 -3 -8 0.66 0.1
-4 -3 -8 0.93 0.11
4 3 8 0.79 0.13
4 3 8 0.65 0.11
-5 -3 -8 0.09 0.08
-5 -3 -8 0.08 0.06
-5 -3 -8 0.06 0.06
5 3 8 0.03 0.06
-6 -3 -8 0.18 0.07
-6 -3 -8 0.13 0.08
6 3 8 0.07 0.1
-7 -3 -8 0.03 0.09
-7 -3 -8 0.07 0.06
7 3 8 0.19 0.12
-8 -3 -8 0.07 0.06
8 3 8 0.14 0.12
-9 -3 -8 0 0.06
9 3 8 0.13 0.12
6 -4 -8 0.13 0.12
6 -4 -8 0.37 0.19
-6 4 8 0.06 0.12
-6 4 8 0.08 0.14
5 -4 -8 -0.09 0.1
5 -4 -8 0.13 0.14
-5 4 8 0.03 0.12
-5 4 8 0.25 0.12
-5 4 8 -0.08 0.11
4 -4 -8 0.18 0.12
4 -4 -8 0.1 0.1
-4 4 8 0.2 0.11
-4 4 8 0.19 0.12
-4 4 8 0.06 0.1
3 -4 -8 -0.05 0.08
3 -4 -8 -0.11 0.08
-3 4 8 0.02 0.08
-3 4 8 -0.02 0.09
-3 4 8 0.03 0.08
2 -4 -8 0.01 0.08
2 -4 -8 0.33 0.09
-2 4 8 0.19 0.08
-2 4 8 0.32 0.11
-2 4 8 0.26 0.1
-2 4 8 0.45 0.07
1 -4 -8 1.31 0.13
1 -4 -8 1.17 0.18
-1 4 8 1.51 0.17
-1 4 8 1.52 0.17
-1 4 8 1.37 0.11
-1 4 8 1.31 0.14
0 -4 -8 0.71 0.1
0 -4 -8 0.7 0.12
0 4 8 0.58 0.08
0 4 8 0.64 0.08
0 4 8 0.62 0.11
0 4 8 0.6 0.12
-1 -4 -8 6.7 0.29
-1 -4 -8 6.92 0.34
-1 -4 -8 7.07 0.32
1 4 8 6.97 0.28
1 4 8 6.69 0.31
1 4 8 7.42 0.32
1 4 8 6.78 0.34
-2 -4 -8 11.62 0.42
-2 -4 -8 12.15 0.5
-2 -4 -8 12 0.48
2 4 8 11.87 0.51
2 4 8 11.84 0.48
2 4 8 11.58 0.46
-3 -4 -8 -0.02 0.05
-3 -4 -8 0.05 0.05
-3 -4 -8 0.05 0.05
3 4 8 0.07 0.06
3 4 8 0.08 0.06
3 4 8 -0.02 0.06
-4 -4 -8 0.85 0.1
-4 -4 -8 0.82 0.13
-4 -4 -8 0.97 0.13
4 4 8 0.91 0.13
4 4 8 0.64 0.12
-5 -4 -8 0.08 0.08
-5 -4 -8 0.02 0.05
-5 -4 -8 0.02 0.06
5 4 8 0.03 0.07
5 4 8 -0.02 0.06
-6 -4 -8 -0.1 0.05
-6 -4 -8 0.12 0.07
-6 -4 -8 0.15 0.09
6 4 8 0.09 0.09
-7 -4 -8 0.35 0.12
-7 -4 -8 0.23 0.08
7 4 8 0.26 0.11
-8 -4 -8 0.1 0.07
8 4 8 0.03 0.09
-9 -4 -8 0.08 0.07
9 4 8 -0.11 0.1
6 -5 -8 0 0.13
-6 5 8 0.07 0.13
-6 5 8 -0.05 0.11
5 -5 -8 -0.01 0.1
5 -5 -8 0.14 0.16
-5 5 8 -0.03 0.12
-5 5 8 -0.02 0.12
-5 5 8 0.08 0.12
4 -5 -8 0.02 0.11
4 -5 -8 0.02 0.1
-4 5 8 -0.06 0.1
-4 5 8 -0.08 0.12
-4 5 8 -0.05 0.11
3 -5 -8 -0.07 0.09
3 -5 -8 -0.05 0.09
-3 5 8 0.09 0.1
-3 5 8 0 0.08
-3 5 8 -0.03 0.09
2 -5 -8 0.42 0.11
2 -5 -8 0.16 0.09
-2 5 8 0.2 0.1
-2 5 8 0.16 0.1
-2 5 8 0.21 0.06
-2 5 8 0.12 0.07
1 -5 -8 0.15 0.1
1 -5 -8 0.24 0.09
-1 5 8 0.58 0.12
-1 5 8 0.36 0.07
-1 5 8 0.39 0.09
-1 5 8 0.31 0.1
0 -5 -8 -0.01 0.07
0 -5 -8 0.1 0.08
0 5 8 -0.11 0.05
0 5 8 0.03 0.08
0 5 8 0.02 0.04
-1 -5 -8 0.39 0.09
-1 -5 -8 0.32 0.08
-1 -5 -8 0.36 0.1
1 5 8 0.6 0.09
1 5 8 0.6 0.09
1 5 8 0.45 0.07
1 5 8 0.33 0.09
-2 -5 -8 0.01 0.05
-2 -5 -8 0.05 0.07
-2 -5 -8 0.1 0.06
2 5 8 0 0.06
2 5 8 0.07 0.06
2 5 8 0.02 0.06
-3 -5 -8 1.94 0.17
-3 -5 -8 1.88 0.15
-3 -5 -8 2.15 0.2
3 5 8 2.12 0.19
3 5 8 2.08 0.16
3 5 8 2 0.18
-4 -5 -8 2.1 0.15
-4 -5 -8 2.18 0.16
-4 -5 -8 1.92 0.19
4 5 8 2.24 0.18
4 5 8 1.84 0.18
-5 -5 -8 0.03 0.09
-5 -5 -8 0.05 0.06
5 5 8 0.17 0.09
5 5 8 0.02 0.08
-6 -5 -8 -0.04 0.05
-6 -5 -8 0.08 0.09
6 5 8 0.12 0.09
-7 -5 -8 0.19 0.08
-7 -5 -8 0.22 0.12
7 5 8 0.24 0.12
-8 -5 -8 -0.08 0.11
-8 -5 -8 -0.06 0.08
8 5 8 -0.05 0.09
-9 -5 -8 -0.06 0.06
9 5 8 -0.04 0.11
-6 6 8 0.37 0.16
-6 6 8 0.06 0.14
5 -6 -8 0.12 0.14
-5 6 8 0.29 0.14
-5 6 8 -0.01 0.12
-5 6 8 0.07 0.14
4 -6 -8 0.12 0.15
4 -6 -8 0.01 0.11
-4 6 8 0.18 0.14
-4 6 8 0 0.11
-4 6 8 0.19 0.13
3 -6 -8 0.73 0.17
3 -6 -8 0.59 0.13
-3 6 8 0.65 0.15
-3 6 8 0.99 0.17
-3 6 8 0.57 0.14
2 -6 -8 0.11 0.09
2 -6 -8 0.02 0.1
-2 6 8 -0.03 0.05
-2 6 8 -0.08 0.07
-2 6 8 0.03 0.09
-2 6 8 0.08 0.1
1 -6 -8 0.61 0.11
1 -6 -8 0.88 0.15
-1 6 8 0.92 0.14
-1 6 8 0.8 0.1
-1 6 8 0.65 0.14
0 -6 -8 1.78 0.2
0 -6 -8 1.53 0.15
0 6 8 2 0.17
0 6 8 1.32 0.18
0 6 8 2.01 0.13
-1 -6 -8 3.71 0.26
-1 -6 -8 3.88 0.21
1 6 8 3.59 0.21
1 6 8 3.96 0.26
1 6 8 3.84 0.23
1 6 8 3.84 0.19
-2 -6 -8 -0.05 0.05
-2 -6 -8 0.08 0.08
-2 -6 -8 0.09 0.06
2 6 8 0.1 0.07
2 6 8 0 0.06
2 6 8 0.08 0.08
-3 -6 -8 0.7 0.13
-3 -6 -8 0.59 0.1
-3 -6 -8 0.59 0.09
3 6 8 0.8 0.11
3 6 8 0.71 0.12
3 6 8 0.98 0.15
-4 -6 -8 0.03 0.09
-4 -6 -8 -0.01 0.05
4 6 8 0.01 0.07
4 6 8 0.02 0.08
-5 -6 -8 0.23 0.08
-5 -6 -8 0.47 0.13
5 6 8 0.23 0.1
5 6 8 0.17 0.11
-6 -6 -8 0.41 0.1
-6 -6 -8 0.42 0.13
6 6 8 0.34 0.13
6 6 8 0.51 0.14
-7 -6 -8 -0.02 0.11
-7 -6 -8 0.08 0.08
7 6 8 0.26 0.12
-8 -6 -8 0.05 0.12
-8 -6 -8 -0.08 0.08
8 6 8 -0.01 0.11
-9 -6 -8 -0.12 0.08
-9 -6 -8 -0.07 0.14
9 6 8 0.01 0.11
-5 7 8 0.01 0.13
-5 7 8 0.12 0.15
4 -7 -8 -0.02 0.15
-4 7 8 0.21 0.13
-4 7 8 -0.01 0.12
-4 7 8 -0.03 0.11
3 -7 -8 0.25 0.12
3 -7 -8 0.44 0.14
-3 7 8 0.24 0.12
-3 7 8 0.51 0.15
-3 7 8 0.3 0.13
2 -7 -8 0.09 0.12
2 -7 -8 -0.06 0.09
-2 7 8 0.04 0.09
-2 7 8 -0.05 0.05
-2 7 8 0 0.1
1 -7 -8 0.42 0.13
1 -7 -8 0.72 0.12
-1 7 8 0.7 0.13
-1 7 8 0.69 0.15
-1 7 8 0.75 0.11
0 -7 -8 0.28 0.1
0 -7 -8 0.2 0.1
0 7 8 0.22 0.11
0 7 8 0.37 0.08
0 7 8 0.41 0.08
-1 -7 -8 -0.04 0.07
-1 -7 -8 -0.2 0.08
1 7 8 0.04 0.09
1 7 8 0.06 0.05
1 7 8 0.04 0.07
-2 -7 -8 0.1 0.07
-2 -7 -8 -0.05 0.06
-2 -7 -8 0.14 0.09
2 7 8 0.03 0.09
2 7 8 -0.1 0.06
2 7 8 0.04 0.07
-3 -7 -8 0.09 0.07
-3 -7 -8 -0.05 0.09
3 7 8 0.05 0.07
3 7 8 -0.06 0.08
3 7 8 0.05 0.07
-4 -7 -8 0.08 0.11
-4 -7 -8 -0.05 0.06
4 7 8 0 0.08
4 7 8 0.05 0.1
4 7 8 -0.01 0.07
-5 -7 -8 0.03 0.11
-5 -7 -8 0.22 0.08
5 7 8 0.18 0.12
5 7 8 0.07 0.09
-6 -7 -8 0.18 0.13
-6 -7 -8 0.13 0.08
6 7 8 0.11 0.12
6 7 8 0.12 0.11
-7 -7 -8 0.17 0.09
-7 -7 -8 0.18 0.13
7 7 8 0.05 0.11
7 7 8 0.13 0.12
-8 -7 -8 0 0.09
-8 -7 -8 0.12 0.13
8 7 8 0.23 0.13
-5 8 8 -0.12 0.12
-5 8 8 0.06 0.13
4 -8 -8 -0.07 0.12
-4 8 8 -0.03 0.14
-4 8 8 0.2 0.13
3 -8 -8 0.02 0.13
3 -8 -8 0 0.12
-3 8 8 0.06 0.12
-3 8 8 -0.05 0.11
2 -8 -8 -0.06 0.12
2 -8 -8 -0.05 0.1
-2 8 8 0.03 0.1
-2 8 8 0.06 0.12
-2 8 8 -0.06 0.06
1 -8 -8 0.18 0.1
1 -8 -8 0.09 0.11
-1 8 8 0.01 0.1
-1 8 8 0.26 0.08
0 -8 -8 0.16 0.11
0 -8 -8 0.15 0.1
0 8 8 0.13 0.11
0 8 8 0.18 0.08
0 8 8 0.14 0.07
-1 -8 -8 0.03 0.1
-1 -8 -8 -0.04 0.08
1 8 8 0.04 0.08
1 8 8 0.05 0.09
1 8 8 0.04 0.05
-2 -8 -8 1.48 0.21
2 8 8 1.26 0.2
2 8 8 1.53 0.2
-3 -8 -8 -0.08 0.1
-3 -8 -8 0.04 0.07
3 8 8 0.15 0.08
3 8 8 -0.08 0.11
3 8 8 0 0.08
-4 -8 -8 0.5 0.11
-4 -8 -8 0.64 0.16
4 8 8 1 0.14
4 8 8 0.96 0.16
4 8 8 0.92 0.18
-5 -8 -8 1.44 0.21
-5 -8 -8 1.09 0.15
5 8 8 1.37 0.21
5 8 8 1.58 0.18
-6 -8 -8 -0.11 0.07
-6 -8 -8 0.17 0.14
6 8 8 0.02 0.09
6 8 8 0 0.13
-7 -8 -8 0.34 0.16
-7 -8 -8 0.37 0.12
7 8 8 0.37 0.15
7 8 8 0.32 0.13
-8 -8 -8 0.15 0.1
-8 -8 -8 0.24 0.15
8 8 8 0.02 0.11
4 -9 -8 -0.2 0.13
-4 9 8 0.16 0.16
3 -9 -8 -0.02 0.13
-3 9 8 0.13 0.15
2 -9 -8 0.08 0.12
2 -9 -8 0.03 0.12
-2 9 8 0.11 0.14
-2 9 8 -0.02 0.07
-2 9 8 -0.17 0.11
1 -9 -8 0 0.12
1 -9 -8 -0.02 0.11
-1 9 8 -0.03 0.11
-1 9 8 -0.01 0.07
0 -9 -8 -0.21 0.1
0 9 8 0.04 0.07
0 9 8 -0.08 0.1
-1 -9 -8 0.07 0.11
1 9 8 -0.26 0.1
1 9 8 0.02 0.09
1 9 8 -0.13 0.06
-2 -9 -8 0.13 0.11
2 9 8 -0.05 0.09
2 9 8 0.03 0.11
-3 -9 -8 0.9 0.17
3 9 8 0.94 0.14
3 9 8 1.16 0.21
3 9 8 0.82 0.15
-4 -9 -8 0.04 0.13
-4 -9 -8 -0.07 0.08
4 9 8 0.12 0.09
4 9 8 0.03 0.13
4 9 8 0.05 0.09
-5 -9 -8 0.35 0.12
-5 -9 -8 0.49 0.17
5 9 8 0.23 0.11
5 9 8 0.55 0.16
5 9 8 0.56 0.14
-6 -9 -8 1.67 0.18
-6 -9 -8 1.7 0.27
6 9 8 1.78 0.26
6 9 8 1.94 0.21
-7 -9 -8 0.71 0.19
-7 -9 -8 0.56 0.13
7 9 8 0.45 0.15
3 -10 -8 0.14 0.15
-3 10 8 0.37 0.17
2 -10 -8 -0.13 0.13
-2 10 8 0.1 0.14
-2 10 8 0.17 0.09
1 -10 -8 0.05 0.12
-1 10 8 0.2 0.14
-1 10 8 0.08 0.09
0 -10 -8 0.08 0.12
0 10 8 0.16 0.14
0 10 8 -0.03 0.08
-1 -10 -8 0.02 0.14
1 10 8 -0.09 0.07
1 10 8 0.03 0.13
1 10 8 0.08 0.11
-2 -10 -8 0.4 0.15
2 10 8 0.4 0.17
2 10 8 0.24 0.13
-3 -10 -8 -0.01 0.12
3 10 8 0.09 0.11
3 10 8 -0.05 0.13
-4 -10 -8 0.11 0.15
4 10 8 0.14 0.12
4 10 8 0 0.09
4 10 8 0.11 0.14
-5 -10 -8 0.03 0.11
-5 -10 -8 0.26 0.16
5 10 8 0.07 0.1
-6 -10 -8 -0.18 0.14
-6 -10 -8 -0.12 0.12
-1 11 8 0.13 0.1
0 11 8 0.06 0.09
-1 -11 -8 0.09 0.13
1 11 8 -0.02 0.09
-2 -11 -8 -0.08 0.12
2 11 8 0.05 0.12
-3 -11 -8 -0.07 0.15
3 11 8 0.17 0.14
-4 -11 -8 0.6 0.18
4 11 8 0.38 0.13
-5 -11 -8 -0.02 0.16
5 11 8 0.05 0.13
5 11 8 0.23 0.12
1 12 8 -0.07 0.1
-2 -12 -8 -0.05 0.14
2 12 8 -0.02 0.13
2 7 -9 0.06 0.1
2 7 -9 0.13 0.17
-2 -7 9 0.1 0.15
1 7 -9 0.07 0.15
1 7 -9 0.08 0.1
-1 -7 9 0.14 0.14
0 7 -9 0.07 0.14
0 -7 9 -0.09 0.14
-1 7 -9 0.5 0.18
1 -7 9 0.27 0.15
-2 7 -9 0 0.13
2 -7 9 0.01 0.11
-3 7 -9 0.29 0.18
3 -7 9 0.24 0.12
4 6 -9 0.23 0.16
-4 -6 9 -0.06 0.12
3 6 -9 -0.13 0.13
-3 -6 9 0.21 0.14
2 6 -9 0.04 0.14
2 6 -9 -0.15 0.09
-2 -6 9 0.09 0.13
1 6 -9 -0.02 0.1
1 6 -9 0.11 0.14
-1 -6 9 0.1 0.13
0 6 -9 0.13 0.14
0 -6 9 0.27 0.13
-1 6 -9 -0.14 0.11
1 -6 9 0 0.12
1 -6 9 -0.01 0.1
-2 6 -9 0.13 0.13
2 -6 9 0.14 0.11
2 -6 9 -0.05 0.12
-3 6 -9 0.32 0.16
3 -6 9 0.3 0.12
4 -6 9 0.14 0.13
5 -6 9 0.41 0.14
4 5 -9 0.4 0.18
-4 -5 9 0.26 0.15
3 5 -9 0.07 0.14
-3 -5 9 0.09 0.13
2 5 -9 0.77 0.18
-2 -5 9 0.54 0.16
1 5 -9 0.1 0.09
1 5 -9 0.16 0.12
-1 -5 9 0.02 0.12
0 5 -9 0.19 0.09
0 5 -9 -0.02 0.11
0 -5 9 0.04 0.11
-1 5 -9 -0.15 0.1
1 -5 9 0.14 0.13
1 -5 9 -0.06 0.08
-2 5 -9 -0.1 0.09
2 -5 9 0.16 0.1
2 -5 9 0.01 0.12
-3 5 -9 0.02 0.09
-3 5 -9 0.13 0.13
3 -5 9 -0.01 0.12
3 -5 9 0.06 0.11
4 -5 9 -0.07 0.11
-5 5 -9 0.18 0.13
5 -5 9 0.2 0.13
-6 5 -9 -0.02 0.12
5 4 -9 -0.3 0.12
-5 -4 9 0.02 0.14
4 4 -9 0.12 0.15
-4 -4 9 -0.04 0.13
-4 -4 9 -0.13 0.11
3 4 -9 0.09 0.14
-3 -4 9 0.18 0.13
2 4 -9 0.33 0.13
-2 -4 9 0.45 0.14
1 4 -9 1.18 0.2
-1 -4 9 0.95 0.17
0 4 -9 3.38 0.26
0 4 -9 3.59 0.24
0 -4 9 2.68 0.25
0 -4 9 3.49 0.21
-1 4 -9 0.51 0.13
1 -4 9 0.74 0.11
1 -4 9 0.52 0.13
-2 4 -9 1.1 0.13
-2 4 -9 1.31 0.19
2 -4 9 0.69 0.15
2 -4 9 1.11 0.19
-3 4 -9 0 0.08
3 -4 9 -0.04 0.11
3 -4 9 -0.1 0.1
-4 4 -9 -0.05 0.08
-4 4 -9 0.02 0.11
4 -4 9 0.02 0.11
4 -4 9 -0.13 0.11
-5 4 -9 0.15 0.12
5 -4 9 -0.08 0.1
-6 4 -9 -0.05 0.1
-7 4 -9 0.26 0.13
6 3 -9 0.17 0.15
-6 -3 9 0.1 0.13
5 3 -9 0 0.13
-5 -3 9 -0.05 0.12
4 3 -9 -0.02 0.12
-4 -3 9 0.03 0.12
-4 -3 9 -0.01 0.12
3 3 -9 0.02 0.11
-3 -3 9 0.11 0.12
-3 -3 9 -0.14 0.11
2 3 -9 0.14 0.12
-2 -3 9 0.17 0.11
1 3 -9 0.87 0.15
-1 -3 9 0.37 0.13
0 3 -9 2.21 0.21
0 -3 9 2.3 0.2
0 -3 9 2.04 0.17
-1 3 -9 2.09 0.15
-1 3 -9 2.3 0.2
1 -3 9 1.76 0.19
1 -3 9 2.23 0.19
-2 3 -9 4.23 0.27
2 -3 9 4.26 0.25
2 -3 9 4.07 0.28
-3 3 -9 2.3 0.2
-3 3 -9 2.51 0.18
3 -3 9 1.82 0.21
3 -3 9 2.66 0.21
-4 3 -9 1.95 0.18
-4 3 -9 2.35 0.2
4 -3 9 2.35 0.21
4 -3 9 1.73 0.2
-5 3 -9 -0.09 0.08
-5 3 -9 0.15 0.11
5 -3 9 0.13 0.12
-6 3 -9 0.11 0.11
-7 3 -9 0.16 0.11
6 2 -9 1.8 0.25
6 2 -9 1.62 0.27
-6 -2 9 1.25 0.2
-5 -2 9 6.63 0.38
4 2 -9 0.25 0.13
-4 -2 9 0.25 0.13
-4 -2 9 0.2 0.12
3 2 -9 1.14 0.16
3 2 -9 1.21 0.19
-3 -2 9 1.15 0.18
-3 -2 9 1.29 0.19
-3 -2 9 1.26 0.18
2 2 -9 -0.04 0.07
2 2 -9 0.05 0.1
2 2 -9 -0.01 0.07
-2 -2 9 -0.14 0.1
-2 -2 9 0.13 0.1
-2 -2 9 -0.14 0.08
1 2 -9 0.26 0.11
1 2 -9 0.29 0.1
1 2 -9 0.35 0.08
-1 -2 9 0.21 0.11
0 2 -9 0.6 0.11
0 2 -9 0.65 0.1
0 -2 9 0.64 0.09
0 -2 9 0.68 0.13
-1 2 -9 1.07 0.12
-1 2 -9 0.83 0.13
-1 2 -9 0.8 0.14
1 -2 9 1 0.16
1 -2 9 0.79 0.11
-2 2 -9 4.15 0.21
-2 2 -9 3.94 0.24
2 -2 9 3.54 0.23
2 -2 9 3.75 0.25
-3 2 -9 0.99 0.16
-3 2 -9 0.97 0.14
3 -2 9 1.15 0.16
3 -2 9 1.07 0.13
-4 2 -9 4.64 0.27
-4 2 -9 5.44 0.27
4 -2 9 5.25 0.28
4 -2 9 4.79 0.3
-5 2 -9 1.5 0.16
-5 2 -9 1.29 0.16
5 -2 9 1.09 0.18
-6 2 -9 1.81 0.18
-7 2 -9 0.17 0.11
-8 2 -9 0.06 0.1
6 1 -9 0.22 0.14
6 1 -9 0.36 0.17
-6 -1 9 0.06 0.12
5 1 -9 8.59 0.47
5 1 -9 8.77 0.45
-5 -1 9 8.2 0.41
-5 -1 9 6.53 0.44
4 1 -9 4.11 0.3
4 1 -9 3.04 0.27
-4 -1 9 3.38 0.25
-4 -1 9 3.52 0.26
-4 -1 9 2.54 0.25
3 1 -9 16.29 0.68
3 1 -9 15.35 0.68
3 1 -9 15.34 0.68
-3 -1 9 16.99 0.66
-3 -1 9 15.09 0.69
-3 -1 9 16.3 0.66
2 1 -9 2.18 0.2
2 1 -9 2.43 0.19
2 1 -9 2.38 0.16
2 1 -9 2.05 0.24
-2 -1 9 2.91 0.22
-2 -1 9 2.19 0.14
-2 -1 9 2.04 0.2
-2 -1 9 2.27 0.21
1 1 -9 1.91 0.16
1 1 -9 1.95 0.21
1 1 -9 2.08 0.18
1 1 -9 1.33 0.19
-1 -1 9 1.69 0.16
-1 -1 9 1.89 0.19
0 1 -9 0.22 0.09
0 1 -9 0.27 0.08
0 1 -9 0.09 0.07
0 -1 9 0.01 0.09
0 -1 9 0.17 0.07
-1 1 -9 -0.02 0.06
-1 1 -9 -0.13 0.05
1 -1 9 0.09 0.07
1 -1 9 -0.11 0.07
-2 1 -9 -0.05 0.06
-2 1 -9 0.12 0.07
2 -1 9 -0.04 0.07
2 -1 9 0.02 0.08
-3 1 -9 0.04 0.06
-3 1 -9 0.03 0.07
3 -1 9 0.01 0.07
3 -1 9 0.14 0.1
-4 1 -9 3.56 0.22
-4 1 -9 3.63 0.23
4 -1 9 3.78 0.24
4 -1 9 4.23 0.26
-5 1 -9 0.28 0.09
-5 1 -9 0.2 0.09
5 -1 9 0.24 0.12
-6 1 -9 2.22 0.21
-6 1 -9 1.88 0.18
6 -1 9 1.68 0.2
-7 1 -9 0.38 0.11
-8 1 -9 1.2 0.16
6 0 -9 -0.08 0.11
6 0 -9 -0.21 0.11
-6 0 9 0 0.12
5 0 -9 0.2 0.12
5 0 -9 0.24 0.13
-5 0 9 -0.02 0.11
-5 0 9 -0.05 0.1
4 0 -9 0.57 0.14
4 0 -9 0.74 0.15
-4 0 9 0.52 0.13
-4 0 9 0.44 0.13
-4 0 9 0.56 0.14
3 0 -9 5.49 0.26
3 0 -9 4.93 0.31
3 0 -9 5.68 0.34
-3 0 9 5.35 0.3
-3 0 9 4.27 0.3
-3 0 9 5.23 0.3
2 0 -9 15.42 0.54
2 0 -9 14.62 0.63
2 0 -9 15.63 0.65
-2 0 9 14.74 0.51
-2 0 9 15.15 0.62
-2 0 9 14.31 0.64
-2 0 9 16.18 0.62
1 0 -9 23.71 0.94
1 0 -9 24.22 0.78
1 0 -9 24.01 0.92
1 0 -9 23.92 0.91
-1 0 9 23.86 0.89
-1 0 9 23.89 0.93
-1 0 9 23.84 0.91
0 0 -9 2.49 0.16
0 0 -9 2.44 0.18
0 0 -9 1.86 0.2
0 0 -9 2.24 0.18
0 0 9 2.29 0.17
0 0 9 2.44 0.17
0 0 9 1.92 0.19
-1 0 -9 1.09 0.17
-1 0 -9 0.9 0.13
1 0 9 0.94 0.15
1 0 9 1.15 0.16
-2 0 -9 0.14 0.06
-2 0 -9 -0.04 0.06
2 0 9 -0.05 0.07
2 0 9 0 0.07
-3 0 -9 0.05 0.05
-3 0 -9 0.07 0.06
3 0 9 0.08 0.07
3 0 9 0.04 0.09
-4 0 -9 0.98 0.13
-4 0 -9 1.41 0.15
4 0 9 1.2 0.16
-5 0 -9 -0.09 0.07
-5 0 -9 0.01 0.06
-5 0 -9 -0.11 0.06
5 0 9 0.17 0.1
-6 0 -9 0.6 0.12
-6 0 -9 0.46 0.09
-6 0 -9 0.6 0.11
6 0 9 1 0.17
-7 0 -9 0.13 0.09
7 0 9 -0.16 0.09
-8 0 -9 0.14 0.1
6 -1 -9 0.34 0.15
6 -1 -9 0.58 0.17
-6 1 9 0.49 0.18
-6 1 9 0.44 0.13
5 -1 -9 -0.01 0.11
5 -1 -9 0.15 0.1
5 -1 -9 0.2 0.13
-5 1 9 -0.02 0.11
-5 1 9 0.39 0.15
-5 1 9 0.1 0.11
4 -1 -9 0.11 0.09
4 -1 -9 0.01 0.09
4 -1 -9 0.03 0.09
-4 1 9 0.14 0.11
-4 1 9 -0.05 0.09
-4 1 9 0.1 0.11
3 -1 -9 -0.02 0.08
3 -1 -9 0.08 0.09
3 -1 -9 0.05 0.08
-3 1 9 0.04 0.09
-3 1 9 0.01 0.09
-3 1 9 0.07 0.09
-3 1 9 -0.19 0.09
2 -1 -9 0.3 0.1
2 -1 -9 0.26 0.08
2 -1 -9 0.16 0.1
-2 1 9 0.52 0.11
-2 1 9 0.23 0.07
-2 1 9 0.19 0.12
-2 1 9 0.12 0.09
1 -1 -9 8.6 0.34
1 -1 -9 8.26 0.38
1 -1 -9 8.14 0.41
-1 1 9 8.93 0.4
-1 1 9 8.76 0.39
-1 1 9 8.18 0.32
-1 1 9 7.97 0.39
0 -1 -9 4.43 0.22
0 -1 -9 4 0.26
0 -1 -9 3.89 0.22
0 1 9 4.14 0.23
0 1 9 4.24 0.25
0 1 9 4.25 0.22
-1 -1 -9 26.98 0.86
-1 -1 -9 27.15 1
-1 -1 -9 26.63 0.97
1 1 9 27.3 1
1 1 9 26.56 1
1 1 9 26.87 0.96
-2 -1 -9 2.22 0.18
-2 -1 -9 1.86 0.15
-2 -1 -9 2.38 0.17
2 1 9 2.05 0.18
2 1 9 2.55 0.18
-3 -1 -9 0.09 0.06
-3 -1 -9 0.11 0.06
3 1 9 0.01 0.06
3 1 9 0.32 0.09
-4 -1 -9 1.72 0.16
-4 -1 -9 1.99 0.16
4 1 9 1.93 0.19
-5 -1 -9 -0.05 0.06
-5 -1 -9 0.01 0.06
5 1 9 0.09 0.09
-6 -1 -9 0.69 0.12
-6 -1 -9 0.79 0.12
6 1 9 0.98 0.18
-7 -1 -9 0.35 0.09
-7 -1 -9 0.13 0.1
7 1 9 0.44 0.15
-8 -1 -9 0.03 0.08
-8 -1 -9 0 0.06
8 1 9 0.05 0.12
-9 -1 -9 0.04 0.09
6 -2 -9 0.08 0.14
6 -2 -9 -0.05 0.1
6 -2 -9 -0.08 0.11
-6 2 9 0.31 0.15
-6 2 9 0.12 0.12
5 -2 -9 0.04 0.13
5 -2 -9 0.34 0.12
5 -2 -9 0.25 0.13
-5 2 9 -0.01 0.11
-5 2 9 0.17 0.14
-5 2 9 0.15 0.11
4 -2 -9 0.87 0.15
4 -2 -9 1.34 0.22
4 -2 -9 1.21 0.16
-4 2 9 0.62 0.14
-4 2 9 1.13 0.17
-4 2 9 1.23 0.19
3 -2 -9 0.11 0.09
3 -2 -9 0.2 0.1
3 -2 -9 0.23 0.1
-3 2 9 0.18 0.11
-3 2 9 0.07 0.11
-3 2 9 0.07 0.09
2 -2 -9 3.16 0.2
2 -2 -9 3.15 0.22
2 -2 -9 3.3 0.26
-2 2 9 3.05 0.16
-2 2 9 3.08 0.23
-2 2 9 3.27 0.23
-2 2 9 3.69 0.24
-2 2 9 3.71 0.22
1 -2 -9 1.14 0.18
1 -2 -9 1.1 0.13
1 -2 -9 1.53 0.13
-1 2 9 1.27 0.14
-1 2 9 1.34 0.11
-1 2 9 1.35 0.15
-1 2 9 1.28 0.14
-1 2 9 1.06 0.16
0 -2 -9 1.35 0.14
0 -2 -9 1.38 0.18
0 2 9 1.43 0.15
0 2 9 1.36 0.14
0 2 9 1.23 0.15
-1 -2 -9 0.1 0.06
-1 -2 -9 0.11 0.07
-1 -2 -9 0.05 0.05
1 2 9 -0.03 0.06
1 2 9 0.08 0.06
1 2 9 0.02 0.06
-2 -2 -9 0.53 0.09
-2 -2 -9 0.52 0.09
-2 -2 -9 0.58 0.09
2 2 9 0.38 0.09
2 2 9 0.45 0.08
2 2 9 0.61 0.1
-3 -2 -9 14.28 0.57
-3 -2 -9 14.75 0.51
-3 -2 -9 14.62 0.56
3 2 9 14.4 0.59
3 2 9 14.3 0.55
-4 -2 -9 0.26 0.07
-4 -2 -9 0.51 0.09
4 2 9 0.66 0.13
-5 -2 -9 0.36 0.09
-5 -2 -9 0.53 0.09
5 2 9 0.66 0.13
-6 -2 -9 0.12 0.08
-6 -2 -9 0.17 0.07
6 2 9 0.24 0.12
-7 -2 -9 -0.02 0.07
-7 -2 -9 -0.01 0.09
7 2 9 0.15 0.12
-8 -2 -9 0.18 0.08
8 2 9 -0.02 0.11
-9 -2 -9 0.17 0.07
-9 -2 -9 0.21 0.09
9 2 9 0.32 0.15
6 -3 -9 0.17 0.17
6 -3 -9 0.25 0.13
-6 3 9 0.12 0.13
-6 3 9 0.27 0.17
5 -3 -9 -0.04 0.13
5 -3 -9 0.04 0.1
-5 3 9 0.03 0.11
-5 3 9 -0.01 0.12
-5 3 9 0.04 0.13
4 -3 -9 0.02 0.11
4 -3 -9 0.05 0.09
-4 3 9 -0.02 0.1
-4 3 9 0.21 0.12
-4 3 9 0.06 0.1
3 -3 -9 0.19 0.09
3 -3 -9 0.27 0.12
-3 3 9 0.25 0.13
-3 3 9 0.3 0.11
-3 3 9 0.16 0.11
2 -3 -9 2.34 0.22
2 -3 -9 2.16 0.17
-2 3 9 2.05 0.13
-2 3 9 1.67 0.18
-2 3 9 2.03 0.2
-2 3 9 2.07 0.2
1 -3 -9 0.12 0.07
1 -3 -9 0.12 0.08
-1 3 9 0.12 0.07
-1 3 9 0.04 0.05
-1 3 9 0.21 0.1
-1 3 9 0.06 0.07
-1 3 9 0.07 0.06
0 -3 -9 0.55 0.11
0 -3 -9 0.46 0.09
0 3 9 0.51 0.1
0 3 9 0.46 0.08
0 3 9 0.49 0.07
0 3 9 0.42 0.1
-1 -3 -9 0.29 0.07
-1 -3 -9 0.31 0.09
-1 -3 -9 0.29 0.07
1 3 9 0.15 0.07
1 3 9 0.15 0.07
1 3 9 0.25 0.08
-2 -3 -9 0.29 0.07
-2 -3 -9 0.53 0.09
-2 -3 -9 0.47 0.1
2 3 9 0.31 0.08
2 3 9 0.36 0.09
2 3 9 0.27 0.08
-3 -3 -9 0.08 0.07
-3 -3 -9 0.19 0.08
-3 -3 -9 -0.02 0.05
3 3 9 0.09 0.07
3 3 9 0.03 0.06
3 3 9 0.06 0.06
-4 -3 -9 0.15 0.06
-4 -3 -9 0.11 0.06
-4 -3 -9 0.06 0.07
4 3 9 0.11 0.08
-5 -3 -9 1.07 0.14
-5 -3 -9 1.08 0.14
-5 -3 -9 1.39 0.17
5 3 9 1 0.15
-6 -3 -9 0.6 0.11
-6 -3 -9 0.49 0.1
6 3 9 0.67 0.14
-7 -3 -9 0.03 0.1
-7 -3 -9 0.23 0.08
7 3 9 0.17 0.11
-8 -3 -9 0.16 0.08
8 3 9 0.25 0.13
-9 -3 -9 -0.02 0.06
9 3 9 0.19 0.12
6 -4 -9 -0.01 0.17
6 -4 -9 0.09 0.12
-6 4 9 -0.07 0.12
-6 4 9 -0.1 0.15
5 -4 -9 0.04 0.14
5 -4 -9 -0.04 0.1
-5 4 9 0.21 0.14
-5 4 9 -0.04 0.11
-5 4 9 -0.05 0.11
4 -4 -9 1.05 0.19
4 -4 -9 0.42 0.13
-4 4 9 0.6 0.15
-4 4 9 0.93 0.18
-4 4 9 0.6 0.16
3 -4 -9 -0.08 0.09
3 -4 -9 -0.16 0.08
-3 4 9 -0.1 0.08
-3 4 9 0 0.11
-3 4 9 0.01 0.08
2 -4 -9 -0.06 0.07
2 -4 -9 0.1 0.08
-2 4 9 0 0.09
-2 4 9 -0.02 0.05
-2 4 9 -0.01 0.08
-2 4 9 -0.01 0.09
1 -4 -9 1.47 0.21
1 -4 -9 1.29 0.15
-1 4 9 1.22 0.17
-1 4 9 1.24 0.11
-1 4 9 1.05 0.16
0 -4 -9 0.06 0.08
0 -4 -9 0.03 0.06
0 4 9 0.04 0.05
0 4 9 0.03 0.06
0 4 9 -0.09 0.05
0 4 9 0 0.07
-1 -4 -9 0.09 0.07
-1 -4 -9 0.02 0.06
1 4 9 0.04 0.07
1 4 9 -0.05 0.06
1 4 9 0.05 0.04
1 4 9 -0.06 0.05
-2 -4 -9 1.23 0.16
-2 -4 -9 1.28 0.13
-2 -4 -9 1.02 0.14
2 4 9 1.09 0.13
2 4 9 1 0.16
2 4 9 1.03 0.14
-3 -4 -9 0.45 0.1
-3 -4 -9 0.58 0.1
-3 -4 -9 0.57 0.1
3 4 9 0.57 0.11
3 4 9 0.51 0.11
3 4 9 0.54 0.09
-4 -4 -9 0.15 0.07
-4 -4 -9 0.23 0.1
-4 -4 -9 0.14 0.07
4 4 9 0.29 0.09
4 4 9 0.16 0.08
-5 -4 -9 0.17 0.07
-5 -4 -9 0.13 0.08
-5 -4 -9 0.27 0.1
5 4 9 0.33 0.1
-6 -4 -9 0.51 0.12
-6 -4 -9 0.57 0.1
-6 -4 -9 0.61 0.11
6 4 9 0.37 0.12
-7 -4 -9 0.44 0.1
7 4 9 0.31 0.14
-8 -4 -9 0.06 0.07
8 4 9 0.04 0.1
-9 -4 -9 -0.02 0.07
9 4 9 0.2 0.14
6 -5 -9 0.2 0.16
6 -5 -9 0.12 0.13
-6 5 9 0.21 0.16
-6 5 9 0.16 0.15
5 -5 -9 0.01 0.17
5 -5 -9 -0.02 0.12
-5 5 9 0.02 0.12
-5 5 9 -0.11 0.12
4 -5 -9 -0.07 0.1
4 -5 -9 0.09 0.13
-4 5 9 0.16 0.13
-4 5 9 0.37 0.15
-4 5 9 -0.09 0.12
3 -5 -9 -0.1 0.11
3 -5 -9 0.08 0.1
-3 5 9 0.05 0.1
-3 5 9 0.06 0.1
-3 5 9 0.08 0.12
2 -5 -9 1.66 0.16
2 -5 -9 2.27 0.25
-2 5 9 2.14 0.21
-2 5 9 1.73 0.19
-2 5 9 1.95 0.13
-2 5 9 2.2 0.2
1 -5 -9 0.08 0.08
1 -5 -9 0.18 0.08
-1 5 9 0.16 0.06
-1 5 9 0.14 0.1
0 -5 -9 0.04 0.07
0 -5 -9 -0.01 0.07
0 5 9 0.02 0.06
0 5 9 0.02 0.04
0 5 9 -0.04 0.07
-1 -5 -9 0.24 0.1
-1 -5 -9 0.35 0.09
1 5 9 0.26 0.1
1 5 9 0.18 0.06
1 5 9 0.51 0.09
1 5 9 0.42 0.09
-2 -5 -9 0.06 0.06
-2 -5 -9 0.13 0.08
-2 -5 -9 0.11 0.06
2 5 9 0.21 0.09
2 5 9 0.12 0.07
2 5 9 0.14 0.07
-3 -5 -9 0.43 0.09
-3 -5 -9 0.41 0.1
-3 -5 -9 0.44 0.09
3 5 9 0.33 0.1
3 5 9 0.34 0.09
3 5 9 0.24 0.08
-4 -5 -9 0.37 0.08
-4 -5 -9 0.39 0.1
-4 -5 -9 0.4 0.1
4 5 9 0.3 0.1
4 5 9 0.29 0.1
-5 -5 -9 0.87 0.13
-5 -5 -9 0.72 0.13
-5 -5 -9 0.71 0.12
5 5 9 0.72 0.13
5 5 9 0.86 0.15
-6 -5 -9 -0.01 0.07
-6 -5 -9 0.07 0.1
6 5 9 0.09 0.09
-7 -5 -9 0.05 0.09
-7 -5 -9 0.1 0.11
7 5 9 0.27 0.12
-8 -5 -9 -0.03 0.07
8 5 9 0.05 0.1
-9 -5 -9 -0.06 0.08
9 5 9 -0.01 0.11
5 -6 -9 0.03 0.14
5 -6 -9 0.25 0.14
-5 6 9 -0.01 0.14
-5 6 9 0.18 0.14
4 -6 -9 -0.02 0.14
4 -6 -9 -0.01 0.11
-4 6 9 -0.1 0.13
-4 6 9 -0.04 0.11
-4 6 9 0.04 0.13
3 -6 -9 0.91 0.19
3 -6 -9 0.5 0.14
-3 6 9 0.85 0.16
-3 6 9 0.54 0.15
-3 6 9 0.79 0.18
2 -6 -9 0.36 0.14
2 -6 -9 0.19 0.1
-2 6 9 0.63 0.09
-2 6 9 0.46 0.13
-2 6 9 0.54 0.12
1 -6 -9 0.1 0.09
1 -6 -9 0 0.09
-1 6 9 0.16 0.1
-1 6 9 0.04 0.06
0 -6 -9 0.02 0.09
0 -6 -9 0.07 0.09
0 6 9 0 0.05
0 6 9 0.03 0.09
0 6 9 0.13 0.07
-1 -6 -9 2.13 0.17
-1 -6 -9 2.85 0.22
1 6 9 2.6 0.16
1 6 9 2.65 0.21
1 6 9 2.39 0.18
1 6 9 2.64 0.2
-2 -6 -9 0.36 0.09
-2 -6 -9 0.39 0.11
-2 -6 -9 0.36 0.09
2 6 9 0.43 0.12
2 6 9 0.57 0.1
2 6 9 0.45 0.1
-3 -6 -9 0.31 0.08
-3 -6 -9 0.34 0.11
-3 -6 -9 0.35 0.09
3 6 9 0.43 0.12
3 6 9 0.43 0.1
3 6 9 0.34 0.09
-4 -6 -9 0.29 0.11
-4 -6 -9 0.24 0.08
-4 -6 -9 0.22 0.09
4 6 9 0.47 0.11
4 6 9 0.27 0.1
4 6 9 0.39 0.09
-5 -6 -9 1.66 0.2
-5 -6 -9 1.03 0.14
5 6 9 1.41 0.18
5 6 9 1.1 0.16
-6 -6 -9 -0.02 0.07
-6 -6 -9 0.08 0.1
6 6 9 0.09 0.1
-7 -6 -9 0.44 0.11
-7 -6 -9 0.43 0.14
7 6 9 0.53 0.13
-8 -6 -9 -0.08 0.09
-8 -6 -9 0.05 0.13
8 6 9 0.2 0.14
5 -7 -9 -0.18 0.1
-5 7 9 0.18 0.16
-5 7 9 0.15 0.16
4 -7 -9 -0.06 0.12
4 -7 -9 -0.06 0.12
-4 7 9 0.28 0.15
-4 7 9 -0.05 0.13
3 -7 -9 0.02 0.11
3 -7 -9 0.19 0.14
-3 7 9 0.14 0.13
-3 7 9 0.16 0.11
2 -7 -9 -0.02 0.12
2 -7 -9 0.03 0.1
-2 7 9 0.17 0.11
-2 7 9 0.24 0.07
-2 7 9 0.11 0.11
1 -7 -9 1.68 0.18
1 -7 -9 2.06 0.23
-1 7 9 1.51 0.13
-1 7 9 1.35 0.19
0 -7 -9 0.32 0.13
0 -7 -9 0.33 0.1
0 7 9 0.53 0.09
0 7 9 0.36 0.12
0 7 9 0.47 0.09
-1 -7 -9 0.03 0.1
-1 -7 -9 -0.04 0.07
1 7 9 -0.04 0.05
1 7 9 0.09 0.1
1 7 9 0.01 0.08
-2 -7 -9 0.12 0.11
-2 -7 -9 0.18 0.08
2 7 9 0.17 0.08
2 7 9 0.16 0.1
2 7 9 -0.03 0.08
-3 -7 -9 0.51 0.14
-3 -7 -9 0.15 0.08
3 7 9 0.25 0.09
3 7 9 0.28 0.12
3 7 9 0.32 0.09
-4 -7 -9 0.15 0.09
-4 -7 -9 0.44 0.14
4 7 9 0.38 0.13
4 7 9 0.27 0.1
4 7 9 0.25 0.09
-5 -7 -9 0.21 0.12
-5 -7 -9 -0.07 0.06
5 7 9 0.18 0.11
5 7 9 0.11 0.1
-6 -7 -9 0.35 0.11
-6 -7 -9 0.4 0.14
6 7 9 0.51 0.15
6 7 9 0.33 0.12
-7 -7 -9 -0.01 0.12
-7 -7 -9 0.11 0.09
7 7 9 0.03 0.11
-8 -7 -9 0.13 0.09
-8 -7 -9 -0.09 0.13
8 7 9 0.07 0.12
4 -8 -9 0.05 0.13
-4 8 9 0 0.14
3 -8 -9 0 0.11
3 -8 -9 -0.05 0.11
-3 8 9 0.28 0.14
-3 8 9 0.32 0.15
2 -8 -9 0.12 0.12
2 -8 -9 0.13 0.14
-2 8 9 0.14 0.13
-2 8 9 0.31 0.08
1 -8 -9 -0.06 0.11
1 -8 -9 -0.05 0.1
-1 8 9 0.06 0.07
-1 8 9 -0.07 0.11
0 -8 -9 0.36 0.11
0 -8 -9 0.45 0.15
0 8 9 1.02 0.17
0 8 9 0.54 0.1
-1 -8 -9 -0.01 0.08
-1 -8 -9 -0.03 0.11
1 8 9 0.02 0.08
1 8 9 0.02 0.06
1 8 9 0.02 0.1
-2 -8 -9 0.68 0.16
2 8 9 0.83 0.17
2 8 9 1 0.14
-3 -8 -9 0.4 0.11
-3 -8 -9 0.46 0.15
3 8 9 0.59 0.13
3 8 9 0.47 0.14
3 8 9 0.5 0.12
-4 -8 -9 0.13 0.13
-4 -8 -9 0.06 0.08
4 8 9 0.26 0.13
4 8 9 0.06 0.08
4 8 9 0.17 0.1
-5 -8 -9 0.19 0.09
-5 -8 -9 0.13 0.14
5 8 9 0.09 0.12
5 8 9 0.24 0.12
-6 -8 -9 0.11 0.09
-6 -8 -9 0.22 0.15
6 8 9 0.07 0.11
6 8 9 0.14 0.14
-7 -8 -9 0.45 0.12
-7 -8 -9 0.72 0.18
7 8 9 0.7 0.18
7 8 9 0.74 0.17
-8 -8 -9 0.04 0.1
-8 -8 -9 0.14 0.15
8 8 9 -0.04 0.14
3 -9 -9 -0.09 0.13
-3 9 9 0.09 0.13
2 -9 -9 0.1 0.13
2 -9 -9 0.1 0.12
-2 9 9 0.04 0.08
-2 9 9 0.07 0.13
1 -9 -9 0.04 0.13
1 -9 -9 0.05 0.11
-1 9 9 -0.02 0.08
-1 9 9 0.23 0.14
0 -9 -9 0.08 0.12
0 -9 -9 0.06 0.11
0 9 9 0.04 0.08
0 9 9 0.02 0.12
-1 -9 -9 -0.12 0.11
1 9 9 0.07 0.12
1 9 9 -0.15 0.09
1 9 9 0.06 0.07
-2 -9 -9 0.15 0.13
2 9 9 0.27 0.13
2 9 9 -0.06 0.1
-3 -9 -9 0.48 0.15
3 9 9 0.36 0.12
3 9 9 0.44 0.16
-4 -9 -9 0.06 0.13
-4 -9 -9 0.08 0.1
4 9 9 0.14 0.1
4 9 9 0.1 0.11
4 9 9 -0.14 0.11
-5 -9 -9 0.1 0.1
-5 -9 -9 0.03 0.14
5 9 9 0.07 0.13
5 9 9 0.14 0.11
5 9 9 0.16 0.1
-6 -9 -9 0 0.09
-6 -9 -9 0.16 0.16
6 9 9 0.15 0.13
-7 -9 -9 0.25 0.17
-7 -9 -9 0.12 0.1
7 9 9 -0.09 0.12
2 -10 -9 0.05 0.13
-2 10 9 0 0.07
1 -10 -9 0.23 0.13
1 -10 -9 0.04 0.13
-1 10 9 0.05 0.09
0 -10 -9 0.08 0.12
0 10 9 0 0.14
0 10 9 0.08 0.09
-1 -10 -9 0.1 0.14
1 10 9 0.16 0.1
1 10 9 0.13 0.14
1 10 9 0.19 0.12
-2 -10 -9 0.16 0.14
2 10 9 0.14 0.13
2 10 9 -0.03 0.12
-3 -10 -9 -0.03 0.13
3 10 9 -0.06 0.14
3 10 9 0.03 0.11
-4 -10 -9 0 0.15
4 10 9 0.13 0.1
-5 -10 -9 -0.06 0.15
-5 -10 -9 0.03 0.11
5 10 9 0.16 0.12
5 10 9 -0.11 0.11
-6 -10 -9 0.08 0.1
-6 -10 -9 0.16 0.17
6 10 9 0.01 0.13
-1 11 9 0.11 0.09
0 -11 -9 0.05 0.13
0 11 9 -0.15 0.08
-1 -11 -9 0.56 0.17
1 11 9 0.55 0.13
-2 -11 -9 -0.02 0.15
2 11 9 0.13 0.13
-3 -11 -9 0.11 0.16
3 11 9 -0.01 0.14
-4 -11 -9 0.07 0.16
4 11 9 0.26 0.14
-5 -11 -9 0.08 0.17
5 11 9 -0.02 0.1
-1 -7 10 0.06 0.14
0 7 -10 0.24 0.16
0 -7 10 -0.04 0.14
-1 7 -10 -0.16 0.14
1 -7 10 0 0.15
-2 7 -10 0.07 0.15
2 -7 10 -0.19 0.11
-3 -6 10 0 0.14
2 6 -10 -0.04 0.15
2 6 -10 0.03 0.11
-2 -6 10 -0.08 0.13
1 6 -10 -0.15 0.13
1 6 -10 0.08 0.09
-1 -6 10 -0.09 0.14
0 6 -10 0.22 0.15
0 -6 10 0.11 0.13
-1 6 -10 -0.14 0.13
1 -6 10 0.19 0.14
-2 6 -10 0.02 0.13
2 -6 10 -0.04 0.11
2 -6 10 -0.06 0.13
3 -6 10 0.1 0.12
4 -6 10 -0.14 0.11
4 5 -10 0.06 0.16
-4 -5 10 -0.02 0.12
3 5 -10 0.07 0.14
-3 -5 10 0.13 0.14
2 5 -10 0.08 0.14
-2 -5 10 0.01 0.13
1 5 -10 -0.14 0.12
1 5 -10 0.04 0.11
-1 -5 10 0.32 0.15
0 5 -10 0.01 0.12
0 5 -10 -0.07 0.1
0 -5 10 0.01 0.12
-1 5 -10 0.08 0.13
1 -5 10 0.1 0.12
1 -5 10 0.17 0.1
-2 5 -10 0.05 0.12
2 -5 10 0.01 0.14
2 -5 10 0.08 0.1
3 -5 10 0.06 0.12
3 -5 10 -0.12 0.11
4 -5 10 -0.1 0.12
-5 5 -10 0.08 0.13
5 -5 10 0.14 0.13
4 4 -10 0.04 0.16
-4 -4 10 0.11 0.14
3 4 -10 0.06 0.14
-3 -4 10 0.06 0.13
2 4 -10 0.11 0.14
-2 -4 10 0.07 0.13
1 4 -10 0.26 0.12
-1 -4 10 0.43 0.14
0 4 -10 0.04 0.08
0 4 -10 0.16 0.12
0 -4 10 0.23 0.13
-1 4 -10 -0.03 0.1
1 -4 10 -0.09 0.09
1 -4 10 0.08 0.11
-2 4 -10 -0.01 0.07
2 -4 10 0.05 0.1
2 -4 10 0.01 0.11
-3 4 -10 0.21 0.1
3 -4 10 0.01 0.1
3 -4 10 0.11 0.14
-4 4 -10 0.31 0.11
-4 4 -10 0.24 0.12
4 -4 10 0.04 0.13
4 -4 10 0.15 0.13
-5 4 -10 0.04 0.12
5 -4 10 0.03 0.11
-6 4 -10 0.02 0.12
5 3 -10 -0.1 0.14
5 3 -10 -0.06 0.12
-5 -3 10 -0.15 0.12
-5 -3 10 0.07 0.14
4 3 -10 0.04 0.12
4 3 -10 0.13 0.14
-4 -3 10 -0.28 0.11
-4 -3 10 0.08 0.13
3 3 -10 0.61 0.15
3 3 -10 1.14 0.21
-3 -3 10 0.88 0.17
2 3 -10 -0.04 0.1
2 3 -10 0.05 0.1
-2 -3 10 -0.05 0.1
1 3 -10 0.21 0.12
-1 -3 10 0.35 0.13
0 3 -10 -0.03 0.09
0 -3 10 -0.09 0.09
-1 3 -10 0.18 0.11
-1 3 -10 0.21 0.08
1 -3 10 0.09 0.1
1 -3 10 0.19 0.09
-2 3 -10 0.08 0.07
2 -3 10 0.09 0.09
2 -3 10 0.12 0.11
-3 3 -10 -0.03 0.08
3 -3 10 -0.01 0.11
3 -3 10 0.1 0.1
-4 3 -10 0.25 0.11
-4 3 -10 0.09 0.09
4 -3 10 0.07 0.11
4 -3 10 0.06 0.12
-5 3 -10 -0.01 0.11
-5 3 -10 0.07 0.09
5 -3 10 -0.13 0.12
5 -3 10 0.02 0.11
-6 3 -10 0.03 0.12
-7 3 -10 0.03 0.11
5 2 -10 0.59 0.17
5 2 -10 0.74 0.19
-5 -2 10 0.7 0.16
-5 -2 10 0.4 0.16
4 2 -10 0.14 0.13
4 2 -10 0.14 0.13
-4 -2 10 0.32 0.14
-4 -2 10 0.05 0.12
3 2 -10 -0.04 0.1
3 2 -10 -0.06 0.12
-3 -2 10 0.13 0.14
-3 -2 10 -0.05 0.1
2 2 -10 0.05 0.1
2 2 -10 0.08 0.1
-2 -2 10 0.08 0.07
-2 -2 10 0.11 0.12
1 2 -10 0.35 0.11
1 2 -10 0.19 0.1
-1 -2 10 0.43 0.13
0 2 -10 0.24 0.09
0 2 -10 0.49 0.11
0 -2 10 0.18 0.08
0 -2 10 0.3 0.13
-1 2 -10 0.29 0.08
1 -2 10 0.4 0.12
1 -2 10 0.15 0.09
-2 2 -10 0.07 0.07
2 -2 10 0.14 0.1
2 -2 10 0.06 0.08
-3 2 -10 0.12 0.1
-3 2 -10 -0.06 0.06
3 -2 10 0.06 0.09
3 -2 10 -0.09 0.09
-4 2 -10 0.7 0.14
-4 2 -10 0.47 0.11
4 -2 10 0.8 0.14
4 -2 10 0.78 0.16
-5 2 -10 0.23 0.1
-5 2 -10 0.18 0.1
5 -2 10 0.23 0.13
-6 2 -10 0.41 0.13
-6 2 -10 0.45 0.11
6 -2 10 0.24 0.13
-7 2 -10 0.28 0.13
6 1 -10 -0.01 0.14
6 1 -10 -0.01 0.15
-6 -1 10 -0.05 0.14
5 1 -10 -0.09 0.13
5 1 -10 0.03 0.13
-5 -1 10 0.13 0.14
4 1 -10 0.77 0.17
4 1 -10 0.75 0.18
-4 -1 10 0.98 0.18
-4 -1 10 0.72 0.16
-4 -1 10 0.34 0.15
3 1 -10 4.13 0.3
3 1 -10 4.7 0.34
-3 -1 10 4.39 0.31
-3 -1 10 4.43 0.3
-3 -1 10 4.95 0.31
2 1 -10 1.73 0.18
2 1 -10 1.24 0.17
2 1 -10 1.89 0.23
2 1 -10 1.37 0.15
-2 -1 10 1.78 0.13
-2 -1 10 1.39 0.18
-2 -1 10 1.81 0.2
1 1 -10 1.77 0.22
1 1 -10 1.27 0.16
1 1 -10 1.67 0.2
-1 -1 10 1.34 0.17
0 1 -10 -0.02 0.08
0 1 -10 -0.03 0.07
0 1 -10 0.03 0.07
0 -1 10 0.06 0.07
0 -1 10 0.07 0.09
-1 1 -10 0.32 0.09
1 -1 10 0.53 0.13
1 -1 10 0.29 0.09
-2 1 -10 0.01 0.06
2 -1 10 0.02 0.09
2 -1 10 0.16 0.09
-3 1 -10 0.08 0.07
-3 1 -10 -0.05 0.07
3 -1 10 0.1 0.1
3 -1 10 -0.03 0.08
-4 1 -10 -0.04 0.07
-4 1 -10 0 0.09
4 -1 10 0.02 0.09
4 -1 10 -0.12 0.1
-5 1 -10 0.26 0.11
-5 1 -10 0.13 0.09
5 -1 10 -0.07 0.11
-6 1 -10 1.55 0.18
-6 1 -10 1.99 0.21
6 -1 10 1.34 0.2
-7 1 -10 0.99 0.15
-8 1 -10 0.44 0.12
6 0 -10 0.13 0.14
6 0 -10 -0.04 0.13
-6 0 10 0.12 0.13
5 0 -10 -0.11 0.12
5 0 -10 0.17 0.13
-5 0 10 0.14 0.13
-5 0 10 -0.03 0.12
4 0 -10 0.06 0.12
4 0 -10 0.24 0.14
-4 0 10 -0.06 0.1
-4 0 10 0.19 0.12
3 0 -10 3.4 0.29
3 0 -10 2.65 0.24
3 0 -10 3.01 0.22
-3 0 10 2.8 0.23
-3 0 10 2.87 0.23
-3 0 10 2.33 0.22
2 0 -10 0.29 0.11
2 0 -10 0.19 0.1
2 0 -10 0.25 0.1
2 0 -10 0.27 0.1
-2 0 10 0.12 0.11
-2 0 10 0.25 0.11
-2 0 10 0.34 0.11
-2 0 10 0.16 0.07
1 0 -10 22.05 0.88
1 0 -10 23.27 0.76
1 0 -10 23.14 0.89
-1 0 10 23.1 0.89
-1 0 10 22.53 0.9
0 0 -10 10.86 0.49
0 0 -10 10.98 0.42
0 0 10 11.66 0.45
0 0 10 10.89 0.5
-1 0 -10 9.22 0.42
-1 0 -10 9.23 0.38
1 0 10 9.36 0.39
1 0 10 9.42 0.45
-2 0 -10 0.71 0.11
-2 0 -10 0.77 0.12
-2 0 -10 0.62 0.11
2 0 10 0.25 0.12
2 0 10 0.58 0.1
-3 0 -10 0.03 0.06
-3 0 -10 0.06 0.06
3 0 10 0.08 0.1
3 0 10 0.07 0.08
-4 0 -10 0.13 0.07
-4 0 -10 0.05 0.07
-4 0 -10 0.14 0.09
4 0 10 0.18 0.09
4 0 10 0.1 0.1
-5 0 -10 0.06 0.07
-5 0 -10 0.05 0.07
-5 0 -10 0.05 0.08
5 0 10 -0.01 0.1
-6 0 -10 0.22 0.08
-6 0 -10 0.36 0.11
-6 0 -10 0.11 0.09
6 0 10 -0.02 0.12
-7 0 -10 0.09 0.1
-7 0 -10 -0.06 0.09
7 0 10 0.04 0.1
-8 0 -10 1.71 0.18
6 -1 -10 0.1 0.14
6 -1 -10 -0.01 0.14
-6 1 10 0.23 0.12
5 -1 -10 0.09 0.13
5 -1 -10 0.08 0.11
-5 1 10 0.07 0.12
-5 1 10 0.12 0.13
4 -1 -10 0.57 0.13
4 -1 -10 0.53 0.15
4 -1 -10 0.51 0.14
-4 1 10 0.34 0.13
-4 1 10 0.36 0.14
3 -1 -10 0.76 0.16
3 -1 -10 0.68 0.13
3 -1 -10 0.75 0.12
-3 1 10 1.02 0.16
-3 1 10 0.55 0.15
-3 1 10 0.49 0.12
2 -1 -10 0 0.08
2 -1 -10 0.11 0.08
2 -1 -10 -0.05 0.08
-2 1 10 -0.03 0.05
-2 1 10 0 0.09
-2 1 10 0.21 0.1
-2 1 10 -0.07 0.1
1 -1 -10 3.57 0.28
1 -1 -10 3.52 0.23
1 -1 -10 3.34 0.21
-1 1 10 3.57 0.23
-1 1 10 3.43 0.18
-1 1 10 3.35 0.23
0 -1 -10 4.24 0.27
0 -1 -10 3.52 0.21
0 1 10 3.53 0.22
0 1 10 3.63 0.21
0 1 10 3.64 0.25
-1 -1 -10 38.35 1.39
-1 -1 -10 38.98 1.21
1 1 10 38.54 1.4
1 1 10 38.46 1.35
-2 -1 -10 18.22 0.61
-2 -1 -10 18.17 0.68
-2 -1 -10 16.45 0.69
2 1 10 18.34 0.67
2 1 10 16.19 0.71
-3 -1 -10 22.83 0.76
-3 -1 -10 23.45 0.86
3 1 10 22.61 0.84
3 1 10 22.54 0.88
-4 -1 -10 4.87 0.26
-4 -1 -10 4.49 0.25
4 1 10 4.32 0.28
4 1 10 4.67 0.26
-5 -1 -10 0.18 0.09
5 1 10 0.25 0.11
-6 -1 -10 -0.01 0.07
-6 -1 -10 -0.02 0.08
6 1 10 -0.22 0.1
-7 -1 -10 -0.04 0.06
-7 -1 -10 0.1 0.1
7 1 10 0.1 0.13
-8 -1 -10 0.23 0.11
8 1 10 -0.03 0.13
6 -2 -10 0.55 0.19
6 -2 -10 0.66 0.18
-6 2 10 0.95 0.22
-6 2 10 0.49 0.15
5 -2 -10 0.05 0.1
5 -2 -10 0.02 0.11
5 -2 -10 0.16 0.15
-5 2 10 0.35 0.16
-5 2 10 -0.03 0.12
4 -2 -10 0.13 0.13
4 -2 -10 0.18 0.11
4 -2 -10 0.2 0.12
-4 2 10 0.2 0.13
-4 2 10 0.25 0.12
-4 2 10 0.19 0.13
3 -2 -10 0.44 0.14
3 -2 -10 0.41 0.12
3 -2 -10 0.39 0.11
-3 2 10 0.22 0.12
-3 2 10 0.26 0.11
-3 2 10 0.33 0.13
2 -2 -10 -0.06 0.07
2 -2 -10 -0.13 0.06
2 -2 -10 0.02 0.09
-2 2 10 -0.01 0.05
-2 2 10 -0.02 0.08
-2 2 10 0.11 0.09
-2 2 10 0.05 0.09
-2 2 10 -0.09 0.1
1 -2 -10 0.39 0.1
1 -2 -10 0.47 0.12
1 -2 -10 0.48 0.1
-1 2 10 0.48 0.08
-1 2 10 0.36 0.1
-1 2 10 0.39 0.1
0 -2 -10 0.01 0.07
0 -2 -10 0.02 0.07
0 2 10 0.02 0.07
0 2 10 -0.02 0.07
0 2 10 -0.08 0.07
0 2 10 -0.03 0.04
-1 -2 -10 4.95 0.24
-1 -2 -10 4.77 0.29
1 2 10 4.66 0.25
1 2 10 4.11 0.27
1 2 10 5.03 0.28
-2 -2 -10 2.97 0.23
-2 -2 -10 3.13 0.2
-2 -2 -10 2.87 0.21
2 2 10 3.28 0.22
2 2 10 2.9 0.23
-3 -2 -10 25.75 0.96
-3 -2 -10 26.04 0.95
-3 -2 -10 26.45 0.85
3 2 10 25.79 0.93
3 2 10 25.06 0.97
-4 -2 -10 18.84 0.7
-4 -2 -10 17.89 0.64
4 2 10 17.82 0.74
-5 -2 -10 21.21 0.79
-5 -2 -10 21.43 0.73
5 2 10 20.5 0.84
-6 -2 -10 2.51 0.21
-6 -2 -10 2.79 0.2
6 2 10 2.57 0.23
-7 -2 -10 0.59 0.11
-7 -2 -10 0.53 0.13
7 2 10 0.68 0.17
-8 -2 -10 0.03 0.07
8 2 10 -0.11 0.11
-9 -2 -10 -0.12 0.09
-9 -2 -10 0.04 0.07
9 2 10 -0.13 0.12
6 -3 -10 0.35 0.14
6 -3 -10 0.66 0.2
6 -3 -10 0.56 0.14
-6 3 10 0.53 0.18
-6 3 10 0.46 0.16
5 -3 -10 0.29 0.13
5 -3 -10 0.2 0.16
5 -3 -10 0.16 0.12
-5 3 10 0.18 0.13
-5 3 10 0.24 0.16
4 -3 -10 1.82 0.27
4 -3 -10 1.34 0.17
4 -3 -10 1.21 0.17
-4 3 10 1.31 0.21
-4 3 10 1.44 0.22
-4 3 10 1.17 0.18
3 -3 -10 -0.08 0.08
3 -3 -10 0.03 0.11
-3 3 10 0.05 0.12
-3 3 10 0.07 0.09
-3 3 10 0.07 0.1
2 -3 -10 0.86 0.13
2 -3 -10 0.47 0.11
2 -3 -10 0.82 0.16
-2 3 10 0.5 0.12
-2 3 10 0.55 0.15
-2 3 10 0.76 0.1
-2 3 10 0.65 0.13
1 -3 -10 1.17 0.14
1 -3 -10 1.22 0.18
-1 3 10 0.98 0.14
-1 3 10 1.03 0.1
-1 3 10 0.93 0.15
0 -3 -10 1.08 0.16
0 -3 -10 1.19 0.14
0 3 10 1.11 0.1
0 3 10 1.27 0.14
0 3 10 1 0.14
0 3 10 1.04 0.15
-1 -3 -10 0.38 0.1
-1 -3 -10 0.37 0.09
1 3 10 0.24 0.08
1 3 10 0.04 0.08
1 3 10 0.37 0.1
-2 -3 -10 2.1 0.16
-2 -3 -10 2.22 0.18
-2 -3 -10 1.93 0.2
2 3 10 2.23 0.17
2 3 10 1.7 0.19
2 3 10 2.21 0.19
-3 -3 -10 1.53 0.15
-3 -3 -10 0.94 0.15
-3 -3 -10 1.08 0.17
3 3 10 1.3 0.13
3 3 10 1.18 0.15
-4 -3 -10 0.68 0.12
-4 -3 -10 1.2 0.14
-4 -3 -10 0.92 0.13
4 3 10 1.1 0.16
-5 -3 -10 15.29 0.61
-5 -3 -10 14.96 0.55
5 3 10 15.12 0.64
-6 -3 -10 4.49 0.25
-6 -3 -10 4.57 0.25
6 3 10 4.14 0.29
-7 -3 -10 8.63 0.39
-7 -3 -10 8.48 0.38
7 3 10 8.4 0.45
-8 -3 -10 1.53 0.16
8 3 10 1.84 0.22
-9 -3 -10 0.24 0.09
9 3 10 0.26 0.15
6 -4 -10 -0.16 0.15
-6 4 10 -0.01 0.13
-6 4 10 0.03 0.17
5 -4 -10 -0.09 0.14
5 -4 -10 0.1 0.11
-5 4 10 0.03 0.13
-5 4 10 -0.03 0.13
4 -4 -10 0.52 0.16
4 -4 -10 0.26 0.11
-4 4 10 0.56 0.16
-4 4 10 0.57 0.15
-4 4 10 0.26 0.13
3 -4 -10 0.11 0.13
3 -4 -10 0.15 0.11
-3 4 10 0.15 0.12
-3 4 10 0.29 0.13
-3 4 10 0.18 0.1
2 -4 -10 2.75 0.26
2 -4 -10 2.82 0.2
-2 4 10 2.6 0.15
-2 4 10 2.83 0.23
-2 4 10 2.5 0.23
-2 4 10 2.65 0.24
1 -4 -10 1.79 0.23
1 -4 -10 1.05 0.14
-1 4 10 1.07 0.16
-1 4 10 1.1 0.11
0 -4 -10 1.19 0.17
0 -4 -10 0.86 0.12
0 4 10 0.87 0.14
0 4 10 0.95 0.11
0 4 10 1 0.1
0 4 10 1.24 0.14
-1 -4 -10 1.48 0.15
-1 -4 -10 1.88 0.22
1 4 10 1.3 0.18
1 4 10 1.58 0.15
1 4 10 1.53 0.12
1 4 10 1.7 0.17
-2 -4 -10 0.52 0.1
-2 -4 -10 0.69 0.13
-2 -4 -10 0.79 0.12
2 4 10 0.68 0.12
2 4 10 0.56 0.1
2 4 10 0.78 0.13
-3 -4 -10 0.07 0.07
-3 -4 -10 0.13 0.07
-3 -4 -10 0 0.06
3 4 10 0.06 0.07
3 4 10 0.04 0.07
3 4 10 -0.05 0.06
-4 -4 -10 6.16 0.32
-4 -4 -10 6.35 0.33
-4 -4 -10 6.46 0.29
4 4 10 5.82 0.31
4 4 10 5.99 0.33
-5 -4 -10 0.71 0.13
-5 -4 -10 1.07 0.17
-5 -4 -10 0.83 0.12
5 4 10 0.99 0.16
-6 -4 -10 0.18 0.09
-6 -4 -10 0.04 0.08
6 4 10 -0.01 0.09
-7 -4 -10 3.87 0.25
-7 -4 -10 3.53 0.23
7 4 10 3.68 0.28
-8 -4 -10 0.78 0.13
8 4 10 0.93 0.19
-9 -4 -10 1.86 0.17
9 4 10 1.99 0.24
5 -5 -10 -0.06 0.11
5 -5 -10 0.06 0.16
-5 5 10 0.31 0.14
-5 5 10 0.07 0.15
4 -5 -10 -0.08 0.1
4 -5 -10 0.03 0.14
-4 5 10 0.03 0.13
-4 5 10 -0.03 0.12
-4 5 10 0.09 0.14
3 -5 -10 -0.08 0.12
3 -5 -10 0.14 0.1
-3 5 10 0.17 0.12
-3 5 10 0.04 0.13
-3 5 10 0.13 0.11
2 -5 -10 0.12 0.09
2 -5 -10 -0.09 0.11
-2 5 10 0.14 0.1
-2 5 10 0.02 0.07
1 -5 -10 0.99 0.18
1 -5 -10 0.97 0.14
-1 5 10 0.72 0.14
-1 5 10 0.75 0.11
0 -5 -10 1.94 0.22
0 -5 -10 1.49 0.14
0 5 10 1.07 0.11
0 5 10 1.51 0.17
0 5 10 1.49 0.17
-1 -5 -10 0.65 0.11
-1 -5 -10 0.76 0.14
1 5 10 0.67 0.12
1 5 10 0.72 0.13
1 5 10 0.91 0.11
1 5 10 0.64 0.1
-2 -5 -10 0.25 0.09
-2 -5 -10 0.34 0.09
-2 -5 -10 0.16 0.1
2 5 10 0.11 0.08
2 5 10 0.26 0.1
2 5 10 0.27 0.09
-3 -5 -10 0.3 0.09
-3 -5 -10 0.25 0.08
-3 -5 -10 0.25 0.1
3 5 10 0.22 0.1
3 5 10 0.22 0.09
3 5 10 0.29 0.09
-4 -5 -10 1.53 0.15
-4 -5 -10 1.25 0.16
-4 -5 -10 1.33 0.19
4 5 10 1.34 0.17
4 5 10 1.36 0.16
4 5 10 1.33 0.18
-5 -5 -10 0.26 0.08
-5 -5 -10 0.14 0.07
-5 -5 -10 0.23 0.1
5 5 10 0.25 0.11
-6 -5 -10 2.67 0.21
-6 -5 -10 2.76 0.24
6 5 10 2.42 0.22
-7 -5 -10 -0.02 0.08
7 5 10 -0.1 0.08
-8 -5 -10 0.08 0.1
8 5 10 0.02 0.11
5 -6 -10 0.31 0.14
5 -6 -10 0.16 0.19
-5 6 10 0.33 0.16
-5 6 10 0.34 0.16
4 -6 -10 0.2 0.17
4 -6 -10 0.09 0.12
-4 6 10 0.06 0.13
-4 6 10 -0.02 0.13
3 -6 -10 -0.04 0.14
3 -6 -10 0.09 0.11
-3 6 10 0.06 0.13
-3 6 10 -0.01 0.11
-3 6 10 0.06 0.12
2 -6 -10 0.08 0.1
2 -6 -10 0.12 0.13
-2 6 10 -0.02 0.1
-2 6 10 0.02 0.06
1 -6 -10 0.83 0.17
1 -6 -10 0.58 0.12
-1 6 10 0.66 0.15
-1 6 10 0.56 0.09
0 -6 -10 0.4 0.12
0 -6 -10 0.31 0.1
0 6 10 0.42 0.13
0 6 10 0.5 0.09
0 6 10 0.25 0.07
-1 -6 -10 0.91 0.16
-1 -6 -10 1.06 0.14
1 6 10 0.88 0.11
1 6 10 1.15 0.13
1 6 10 1.43 0.17
-2 -6 -10 2.48 0.17
-2 -6 -10 2.74 0.24
2 6 10 2.12 0.22
2 6 10 2.36 0.22
2 6 10 2.31 0.18
-3 -6 -10 0.75 0.12
-3 -6 -10 0.6 0.14
-3 -6 -10 0.76 0.11
3 6 10 0.57 0.12
3 6 10 0.76 0.12
3 6 10 0.59 0.14
-4 -6 -10 0.05 0.08
-4 -6 -10 -0.01 0.07
-4 -6 -10 0.09 0.1
4 6 10 0.15 0.09
4 6 10 0.1 0.09
4 6 10 -0.04 0.08
-5 -6 -10 0.31 0.1
-5 -6 -10 0.14 0.11
5 6 10 0.17 0.11
5 6 10 0.2 0.1
-6 -6 -10 0.02 0.1
-6 -6 -10 -0.08 0.07
6 6 10 -0.04 0.09
-7 -6 -10 0.14 0.12
-7 -6 -10 -0.03 0.08
7 6 10 -0.04 0.09
-8 -6 -10 0.75 0.14
8 6 10 0.32 0.15
4 -7 -10 0.03 0.18
4 -7 -10 0.01 0.13
-4 7 10 0.26 0.15
3 -7 -10 0.16 0.12
3 -7 -10 -0.08 0.15
-3 7 10 0.1 0.12
-3 7 10 0.2 0.13
2 -7 -10 0.1 0.11
2 -7 -10 0.36 0.15
-2 7 10 0.25 0.08
-2 7 10 0.14 0.13
1 -7 -10 0.16 0.11
1 -7 -10 -0.01 0.1
-1 7 10 -0.01 0.1
-1 7 10 0.23 0.08
0 -7 -10 -0.06 0.11
0 -7 -10 0.09 0.09
0 7 10 0.14 0.07
0 7 10 0.16 0.11
-1 -7 -10 0.7 0.16
-1 -7 -10 0.95 0.13
1 7 10 0.85 0.12
1 7 10 0.96 0.13
1 7 10 0.94 0.17
-2 -7 -10 0.3 0.13
-2 -7 -10 0.07 0.08
2 7 10 0.12 0.09
2 7 10 0.19 0.09
2 7 10 0.18 0.11
-3 -7 -10 0.66 0.15
-3 -7 -10 0.66 0.12
-3 -7 -10 0.33 0.09
3 7 10 0.42 0.11
3 7 10 0.58 0.15
3 7 10 0.53 0.12
-4 -7 -10 1.64 0.23
-4 -7 -10 1.76 0.19
4 7 10 1.89 0.22
4 7 10 1.95 0.19
4 7 10 1.85 0.23
-5 -7 -10 0.02 0.07
-5 -7 -10 0.18 0.12
5 7 10 0.03 0.09
5 7 10 0.02 0.1
-6 -7 -10 0.17 0.09
-6 -7 -10 0.21 0.13
6 7 10 0.23 0.12
-7 -7 -10 0.02 0.1
-7 -7 -10 0.07 0.13
7 7 10 -0.19 0.09
-8 -7 -10 0.06 0.1
-8 -7 -10 -0.09 0.13
8 7 10 0.09 0.12
4 -8 -10 0.21 0.16
4 -8 -10 0.09 0.13
-4 8 10 0.06 0.15
3 -8 -10 0.39 0.14
3 -8 -10 0.42 0.18
2 -8 -10 0.23 0.12
2 -8 -10 -0.03 0.13
-2 8 10 0.07 0.13
-2 8 10 0.02 0.07
1 -8 -10 0.09 0.13
1 -8 -10 0.23 0.11
-1 8 10 0.04 0.08
-1 8 10 0.03 0.11
0 -8 -10 0.03 0.1
0 -8 -10 0.29 0.13
0 8 10 0.11 0.1
0 8 10 0.07 0.07
-1 -8 -10 1.18 0.16
-1 -8 -10 1.17 0.19
1 8 10 1.15 0.14
1 8 10 0.88 0.13
1 8 10 1.22 0.18
-2 -8 -10 0.94 0.13
-2 -8 -10 0.82 0.18
2 8 10 0.8 0.17
2 8 10 1.2 0.15
-3 -8 -10 0.26 0.14
3 8 10 0.09 0.1
3 8 10 0.23 0.12
3 8 10 0.17 0.1
-4 -8 -10 0.07 0.13
-4 -8 -10 -0.01 0.07
4 8 10 0.14 0.12
4 8 10 0.03 0.1
4 8 10 0.02 0.09
-5 -8 -10 0.09 0.13
-5 -8 -10 -0.02 0.08
5 8 10 -0.08 0.08
5 8 10 0 0.12
5 8 10 0.09 0.1
-6 -8 -10 0.05 0.09
-6 -8 -10 0 0.13
6 8 10 0.19 0.13
6 8 10 0.17 0.12
-7 -8 -10 0.21 0.11
-7 -8 -10 0.24 0.15
7 8 10 0.36 0.14
3 -9 -10 -0.16 0.12
3 -9 -10 0.03 0.13
2 -9 -10 -0.08 0.12
2 -9 -10 0.13 0.13
-2 9 10 -0.05 0.08
1 -9 -10 0.03 0.11
1 -9 -10 0.21 0.15
-1 9 10 0.06 0.09
-1 9 10 0.02 0.14
0 -9 -10 0.13 0.14
0 -9 -10 -0.06 0.11
0 9 10 0.02 0.08
0 9 10 0.14 0.14
-1 -9 -10 0.04 0.13
1 9 10 0.06 0.12
1 9 10 0.01 0.07
1 9 10 -0.02 0.09
-2 -9 -10 0.25 0.15
2 9 10 0.3 0.14
2 9 10 0.26 0.12
-3 -9 -10 0.77 0.17
3 9 10 0.64 0.17
3 9 10 0.68 0.14
-4 -9 -10 -0.07 0.09
-4 -9 -10 0.01 0.14
4 9 10 -0.09 0.09
4 9 10 0.04 0.12
4 9 10 -0.06 0.1
-5 -9 -10 0.25 0.16
-5 -9 -10 0.25 0.12
5 9 10 0.19 0.12
5 9 10 0.08 0.14
5 9 10 0.23 0.11
-6 -9 -10 -0.18 0.13
-6 -9 -10 0.13 0.1
6 9 10 -0.12 0.11
-7 -9 -10 0.1 0.1
-7 -9 -10 0.14 0.17
7 9 10 0.08 0.13
2 -10 -10 -0.02 0.14
2 -10 -10 -0.16 0.13
-2 10 10 -0.01 0.08
1 -10 -10 0.39 0.14
1 -10 -10 0.19 0.14
-1 10 10 0.07 0.09
0 -10 -10 0.06 0.14
0 10 10 -0.01 0.08
-1 -10 -10 0.16 0.15
1 10 10 -0.07 0.12
1 10 10 0.02 0.09
-2 -10 -10 0.08 0.14
2 10 10 0.11 0.14
2 10 10 -0.07 0.11
-3 -10 -10 0.21 0.15
3 10 10 0.26 0.14
-4 -10 -10 0.15 0.16
4 10 10 0.49 0.14
-5 -10 -10 0.61 0.2
-5 -10 -10 0.35 0.13
5 10 10 0.28 0.12
5 10 10 0.41 0.15
-6 -10 -10 0.14 0.12
-6 -10 -10 -0.12 0.17
6 10 10 0.04 0.11
6 10 10 0 0.12
0 -11 -10 0.06 0.14
0 11 10 0.22 0.11
-1 -11 -10 -0.05 0.14
1 11 10 0.04 0.1
-2 -11 -10 0.14 0.16
2 11 10 0.1 0.13
-3 -11 -10 0.01 0.15
3 11 10 0.05 0.12
-4 -11 -10 -0.08 0.16
4 11 10 0.06 0.13
1 6 -11 -0.15 0.1
1 6 -11 -0.01 0.15
-1 -6 11 -0.19 0.14
0 6 -11 0.03 0.14
0 -6 11 -0.03 0.13
-1 6 -11 -0.17 0.13
1 -6 11 0.03 0.13
2 -6 11 0.1 0.14
2 -6 11 0.16 0.12
3 -6 11 0.09 0.12
-3 -5 11 0.01 0.14
2 5 -11 0.08 0.15
-2 -5 11 -0.01 0.13
1 5 -11 -0.21 0.13
1 5 -11 0.04 0.09
-1 -5 11 -0.07 0.12
0 5 -11 0.2 0.15
0 -5 11 0.19 0.14
-1 5 -11 -0.17 0.13
1 -5 11 0.15 0.13
2 -5 11 -0.11 0.1
2 -5 11 0.11 0.15
3 -5 11 0.13 0.13
3 -5 11 -0.03 0.11
4 -5 11 -0.09 0.12
3 4 -11 0 0.14
-3 -4 11 -0.04 0.13
2 4 -11 0.07 0.13
-2 -4 11 0.07 0.14
1 4 -11 -0.06 0.12
-1 -4 11 0.1 0.11
0 4 -11 0.11 0.1
0 4 -11 -0.03 0.11
0 -4 11 0.05 0.12
1 -4 11 0.24 0.11
1 -4 11 0.09 0.13
2 -4 11 -0.06 0.1
2 -4 11 -0.21 0.11
-3 4 -11 0.04 0.09
3 -4 11 -0.11 0.12
3 -4 11 -0.08 0.1
-4 4 -11 0.01 0.1
4 -4 11 0.09 0.13
4 -4 11 0.08 0.12
-5 4 -11 0.18 0.14
5 -4 11 -0.09 0.11
-6 4 -11 0.03 0.13
4 3 -11 -0.1 0.13
4 3 -11 -0.16 0.14
-4 -3 11 0.07 0.15
3 3 -11 0.08 0.14
3 3 -11 0.1 0.14
-3 -3 11 0.09 0.13
2 3 -11 0.07 0.12
-2 -3 11 0.05 0.12
1 3 -11 0.21 0.12
-1 -3 11 0.19 0.13
0 3 -11 -0.03 0.08
0 3 -11 0.08 0.11
0 -3 11 0.12 0.12
-1 3 -11 0.13 0.08
1 -3 11 -0.1 0.09
1 -3 11 0.01 0.13
-2 3 -11 0.05 0.08
2 -3 11 0.16 0.12
2 -3 11 0.16 0.1
-3 3 -11 0.23 0.1
3 -3 11 0.16 0.11
3 -3 11 0.08 0.13
-4 3 -11 0.07 0.1
-4 3 -11 0.08 0.11
4 -3 11 -0.14 0.1
4 -3 11 0.07 0.13
-5 3 -11 0.21 0.11
-5 3 -11 -0.11 0.12
5 -3 11 -0.08 0.13
5 -3 11 0.1 0.11
-6 3 -11 -0.03 0.12
5 2 -11 0.07 0.15
5 2 -11 0.27 0.15
-5 -2 11 0.18 0.15
-5 -2 11 0.26 0.15
4 2 -11 -0.05 0.13
4 2 -11 -0.05 0.13
-4 -2 11 0.23 0.14
-4 -2 11 -0.3 0.11
3 2 -11 0.39 0.14
3 2 -11 0.42 0.16
-3 -2 11 0.23 0.14
2 2 -11 0.24 0.12
2 2 -11 -0.04 0.11
-2 -2 11 0.07 0.13
-2 -2 11 0.07 0.07
1 2 -11 0.5 0.14
-1 -2 11 0.38 0.14
0 2 -11 0.1 0.08
0 -2 11 0.04 0.1
-1 2 -11 0.16 0.07
1 -2 11 0.11 0.09
1 -2 11 0.08 0.11
-2 2 -11 -0.03 0.07
2 -2 11 -0.18 0.09
2 -2 11 0 0.09
-3 2 -11 0.02 0.07
3 -2 11 0.08 0.11
3 -2 11 -0.05 0.09
-4 2 -11 0.03 0.08
-4 2 -11 0.13 0.1
4 -2 11 -0.04 0.1
4 -2 11 0.14 0.12
-5 2 -11 -0.02 0.09
-5 2 -11 0.05 0.11
5 -2 11 0.02 0.13
5 -2 11 0.03 0.11
-6 2 -11 0.16 0.11
-6 2 -11 0.15 0.12
6 -2 11 0.02 0.14
-7 2 -11 -0.04 0.1
5 1 -11 0.12 0.16
5 1 -11 0.12 0.14
-5 -1 11 -0.03 0.14
4 1 -11 0.46 0.16
4 1 -11 0.64 0.17
-4 -1 11 0.33 0.17
-4 -1 11 0.7 0.16
-4 -1 11 0.46 0.15
3 1 -11 0.34 0.13
3 1 -11 0.14 0.13
-3 -1 11 0.17 0.14
-3 -1 11 0.15 0.13
2 1 -11 0 0.1
2 1 -11 0.1 0.1
-2 -1 11 0.02 0.11
-2 -1 11 0.01 0.07
1 1 -11 0.69 0.14
1 1 -11 0.94 0.16
1 1 -11 0.79 0.12
-1 -1 11 0.59 0.15
0 1 -11 0.13 0.08
0 -1 11 0.05 0.08
0 -1 11 0.1 0.1
-1 1 -11 2.59 0.18
1 -1 11 2.28 0.2
1 -1 11 2.13 0.23
-2 1 -11 0.04 0.07
2 -1 11 0.04 0.08
2 -1 11 -0.08 0.09
-3 1 -11 0.21 0.08
-3 1 -11 0.04 0.09
3 -1 11 0.29 0.11
3 -1 11 0.19 0.12
-4 1 -11 0.02 0.09
-4 1 -11 0.02 0.08
4 -1 11 0.1 0.11
4 -1 11 0.15 0.11
-5 1 -11 0.04 0.08
-5 1 -11 0.06 0.1
5 -1 11 -0.08 0.11
-6 1 -11 0.1 0.11
-6 1 -11 0.02 0.09
6 -1 11 -0.04 0.14
-7 1 -11 0.02 0.11
-7 1 -11 0.04 0.11
7 -1 11 0.1 0.12
5 0 -11 -0.17 0.12
5 0 -11 -0.04 0.14
-5 0 11 -0.25 0.12
4 0 -11 0.1 0.13
4 0 -11 0.17 0.14
-4 0 11 0.11 0.13
-4 0 11 0.02 0.11
3 0 -11 0.47 0.15
3 0 -11 0.5 0.14
-3 0 11 0.43 0.14
-3 0 11 0.51 0.14
-3 0 11 0.5 0.15
2 0 -11 0.14 0.09
2 0 -11 0.23 0.12
2 0 -11 0.18 0.11
-2 0 11 0.14 0.07
-2 0 11 0.13 0.1
-2 0 11 0.11 0.12
1 0 -11 0.61 0.13
1 0 -11 0.39 0.1
1 0 -11 0.31 0.09
-1 0 11 0.3 0.12
0 0 -11 0.38 0.1
0 0 -11 0.36 0.1
0 0 11 0.27 0.11
0 0 11 0.44 0.1
-1 0 -11 -0.06 0.07
1 0 11 0.06 0.08
1 0 11 0.04 0.09
-2 0 -11 0 0.07
2 0 11 0.11 0.1
2 0 11 0 0.08
-3 0 -11 3.28 0.21
-3 0 -11 3.22 0.22
-3 0 -11 2.95 0.23
3 0 11 3.02 0.25
3 0 11 2.92 0.23
-4 0 -11 0.12 0.07
-4 0 -11 0.33 0.09
-4 0 -11 0.49 0.12
4 0 11 0.23 0.12
4 0 11 0.32 0.11
-5 0 -11 0.22 0.09
-5 0 -11 0.24 0.1
-5 0 -11 0.35 0.12
5 0 11 0.19 0.13
-6 0 -11 0.11 0.1
-6 0 -11 0.11 0.1
6 0 11 -0.11 0.11
-7 0 -11 0.01 0.08
-7 0 -11 0.12 0.12
7 0 11 -0.05 0.11
-8 0 -11 -0.13 0.1
5 -1 -11 -0.05 0.11
5 -1 -11 -0.01 0.14
-5 1 11 -0.01 0.12
4 -1 -11 0.03 0.13
4 -1 -11 0.2 0.12
4 -1 -11 0.24 0.11
-4 1 11 -0.12 0.12
-4 1 11 0.14 0.12
3 -1 -11 0.21 0.11
3 -1 -11 0.4 0.12
3 -1 -11 0.41 0.14
-3 1 11 0.42 0.13
-3 1 11 0.39 0.12
2 -1 -11 -0.1 0.09
2 -1 -11 0.09 0.1
2 -1 -11 -0.12 0.08
-2 1 11 0.01 0.06
-2 1 11 0.02 0.09
-2 1 11 0.16 0.11
1 -1 -11 0.43 0.1
1 -1 -11 0.45 0.13
-1 1 11 0.38 0.12
-1 1 11 0.33 0.08
-1 1 11 0.39 0.11
0 -1 -11 0.56 0.11
0 -1 -11 0.28 0.1
0 1 11 0.24 0.1
0 1 11 0.37 0.09
-1 -1 -11 0.26 0.1
-1 -1 -11 0.33 0.09
1 1 11 0.29 0.11
1 1 11 0.3 0.09
-2 -1 -11 0.19 0.08
2 1 11 0.25 0.09
2 1 11 0.17 0.1
-3 -1 -11 1.16 0.14
-3 -1 -11 1.22 0.16
3 1 11 1.04 0.18
3 1 11 0.95 0.16
-4 -1 -11 0.72 0.12
-4 -1 -11 0.53 0.11
4 1 11 0.5 0.11
4 1 11 0.16 0.12
-5 -1 -11 0.04 0.07
-5 -1 -11 0.08 0.08
5 1 11 0.04 0.12
-6 -1 -11 -0.04 0.09
-6 -1 -11 0.1 0.08
6 1 11 0.12 0.12
-7 -1 -11 0.21 0.09
-7 -1 -11 0.42 0.12
-7 -1 -11 0.1 0.11
7 1 11 0.07 0.12
-8 -1 -11 -0.06 0.09
8 1 11 0.13 0.14
5 -2 -11 0.01 0.15
5 -2 -11 0 0.11
5 -2 -11 -0.02 0.11
-5 2 11 0.17 0.17
-5 2 11 0.04 0.13
4 -2 -11 -0.13 0.11
4 -2 -11 -0.19 0.1
4 -2 -11 -0.06 0.11
-4 2 11 -0.17 0.12
-4 2 11 0.08 0.1
-4 2 11 0 0.14
3 -2 -11 0.1 0.1
3 -2 -11 0.01 0.09
3 -2 -11 0.03 0.12
-3 2 11 -0.04 0.1
-3 2 11 -0.04 0.12
-3 2 11 0.07 0.12
2 -2 -11 0.06 0.09
2 -2 -11 0.05 0.11
2 -2 -11 0.16 0.09
-2 2 11 0.08 0.09
-2 2 11 0.08 0.1
-2 2 11 0.04 0.06
1 -2 -11 1.64 0.16
1 -2 -11 1.68 0.22
-1 2 11 1.78 0.13
-1 2 11 1.47 0.17
-1 2 11 1.57 0.17
0 -2 -11 1.36 0.15
0 -2 -11 1.19 0.17
0 2 11 1.25 0.12
0 2 11 1.43 0.17
0 2 11 1.34 0.15
0 2 11 1.39 0.16
-1 -2 -11 0 0.08
-1 -2 -11 0.17 0.08
1 2 11 0.16 0.08
1 2 11 -0.05 0.07
-2 -2 -11 0.09 0.08
-2 -2 -11 0.01 0.07
2 2 11 -0.07 0.07
2 2 11 -0.01 0.07
-3 -2 -11 4.3 0.24
-3 -2 -11 4.86 0.27
3 2 11 4.53 0.28
3 2 11 4.8 0.29
-4 -2 -11 1.11 0.15
-4 -2 -11 0.78 0.12
4 2 11 0.93 0.12
4 2 11 0.78 0.15
-5 -2 -11 5.24 0.29
-5 -2 -11 5.4 0.28
5 2 11 4.91 0.32
-6 -2 -11 3.02 0.22
-6 -2 -11 3.04 0.23
6 2 11 3.11 0.27
-7 -2 -11 0.27 0.1
-7 -2 -11 0.29 0.11
7 2 11 0.4 0.15
-8 -2 -11 0.14 0.09
-8 -2 -11 0.23 0.12
8 2 11 0.12 0.13
5 -3 -11 0.19 0.14
5 -3 -11 0.13 0.12
5 -3 -11 -0.06 0.14
-5 3 11 0.17 0.16
-5 3 11 0.18 0.14
4 -3 -11 0.59 0.14
4 -3 -11 0.72 0.17
4 -3 -11 0.81 0.17
-4 3 11 0.66 0.18
-4 3 11 1.05 0.19
-4 3 11 0.6 0.16
3 -3 -11 0.15 0.11
3 -3 -11 0.31 0.14
3 -3 -11 0.21 0.11
-3 3 11 0.18 0.11
-3 3 11 0.09 0.13
-3 3 11 0.2 0.12
2 -3 -11 0.15 0.12
2 -3 -11 0.14 0.09
2 -3 -11 0.13 0.09
-2 3 11 0.02 0.06
-2 3 11 0.01 0.09
1 -3 -11 0.15 0.09
1 -3 -11 0.19 0.11
-1 3 11 0.05 0.08
-1 3 11 0 0.09
-1 3 11 0.18 0.07
0 -3 -11 0.18 0.1
0 -3 -11 -0.02 0.07
0 3 11 0.06 0.07
0 3 11 0.06 0.08
0 3 11 0.05 0.08
0 3 11 0.1 0.05
-1 -3 -11 1.18 0.15
-1 -3 -11 1.36 0.17
1 3 11 1.01 0.17
1 3 11 0.96 0.15
1 3 11 1.11 0.14
-2 -3 -11 0.41 0.1
-2 -3 -11 0.35 0.11
2 3 11 0.36 0.1
2 3 11 0.15 0.08
-3 -3 -11 0.41 0.09
-3 -3 -11 0.31 0.09
-3 -3 -11 0.35 0.1
3 3 11 0.38 0.12
3 3 11 0.39 0.1
-4 -3 -11 0.21 0.09
-4 -3 -11 0.23 0.08
-4 -3 -11 0.12 0.07
4 3 11 0.13 0.09
4 3 11 0.37 0.12
-5 -3 -11 6.2 0.31
-5 -3 -11 5.77 0.29
5 3 11 5.34 0.34
-6 -3 -11 3.68 0.24
-6 -3 -11 3.96 0.24
6 3 11 4.12 0.3
-7 -3 -11 7.64 0.36
-7 -3 -11 7.16 0.35
7 3 11 6.67 0.4
-8 -3 -11 2.42 0.23
-8 -3 -11 2.67 0.21
8 3 11 2.95 0.27
5 -4 -11 0.24 0.13
5 -4 -11 -0.13 0.14
5 -4 -11 -0.05 0.12
-5 4 11 0.06 0.17
-5 4 11 -0.05 0.13
4 -4 -11 0.06 0.14
4 -4 -11 -0.04 0.11
-4 4 11 0.16 0.14
-4 4 11 0.06 0.13
-4 4 11 0.05 0.12
3 -4 -11 -0.05 0.12
3 -4 -11 -0.01 0.1
-3 4 11 0.01 0.11
-3 4 11 -0.02 0.09
-3 4 11 -0.14 0.1
2 -4 -11 1.39 0.2
2 -4 -11 1.09 0.16
-2 4 11 1.28 0.12
-2 4 11 0.91 0.17
1 -4 -11 0.47 0.14
1 -4 -11 0.54 0.11
-1 4 11 0.32 0.12
-1 4 11 0.56 0.09
0 -4 -11 2.29 0.19
0 -4 -11 2.62 0.26
0 4 11 1.86 0.19
0 4 11 2.56 0.19
0 4 11 2.62 0.16
0 4 11 1.97 0.18
-1 -4 -11 0.02 0.08
-1 -4 -11 0.15 0.07
1 4 11 -0.02 0.07
1 4 11 0.03 0.08
1 4 11 0.09 0.05
1 4 11 -0.04 0.07
-2 -4 -11 0.06 0.09
-2 -4 -11 -0.12 0.06
2 4 11 -0.01 0.07
2 4 11 -0.01 0.07
2 4 11 0.1 0.08
-3 -4 -11 2.33 0.2
-3 -4 -11 2.09 0.22
-3 -4 -11 2.35 0.18
3 4 11 2.04 0.2
3 4 11 2.03 0.21
-4 -4 -11 0.14 0.08
-4 -4 -11 0 0.07
-4 -4 -11 0.06 0.07
4 4 11 0.07 0.09
4 4 11 -0.06 0.08
-5 -4 -11 0 0.07
-5 -4 -11 0.06 0.1
-5 -4 -11 0 0.07
5 4 11 0 0.09
-6 -4 -11 0.01 0.08
-6 -4 -11 0.12 0.09
6 4 11 0.18 0.12
-7 -4 -11 4.33 0.26
-7 -4 -11 4.4 0.26
7 4 11 3.33 0.28
-8 -4 -11 1.93 0.18
8 4 11 1.64 0.23
5 -5 -11 0.23 0.17
5 -5 -11 0.13 0.13
-5 5 11 -0.05 0.14
-5 5 11 0.1 0.18
4 -5 -11 0.02 0.15
4 -5 -11 0.09 0.12
-4 5 11 0.22 0.14
-4 5 11 0.08 0.13
3 -5 -11 -0.05 0.13
3 -5 -11 0.22 0.12
-3 5 11 -0.01 0.11
2 -5 -11 1.05 0.19
2 -5 -11 0.87 0.16
-2 5 11 0.86 0.17
-2 5 11 0.99 0.11
1 -5 -11 1.1 0.18
1 -5 -11 0.89 0.14
-1 5 11 0.88 0.16
-1 5 11 0.86 0.12
0 -5 -11 4.27 0.32
0 -5 -11 3.73 0.23
0 5 11 3.8 0.28
0 5 11 3.77 0.21
0 5 11 4.24 0.24
-1 -5 -11 1.16 0.2
-1 -5 -11 1.31 0.15
1 5 11 0.88 0.11
1 5 11 1.32 0.18
1 5 11 1.1 0.17
1 5 11 0.98 0.15
-2 -5 -11 1.99 0.22
-2 -5 -11 1.67 0.16
2 5 11 1.75 0.18
2 5 11 2.45 0.2
2 5 11 2.01 0.2
-3 -5 -11 0.83 0.13
-3 -5 -11 1.01 0.17
-3 -5 -11 0.95 0.14
3 5 11 1.13 0.14
3 5 11 0.8 0.14
3 5 11 0.93 0.15
-4 -5 -11 0.55 0.11
-4 -5 -11 0.54 0.11
-4 -5 -11 0.66 0.14
4 5 11 0.45 0.11
4 5 11 0.44 0.12
-5 -5 -11 0.5 0.11
-5 -5 -11 0.51 0.11
-5 -5 -11 0.59 0.15
5 5 11 0.47 0.13
-6 -5 -11 0.15 0.09
-6 -5 -11 0.08 0.08
-6 -5 -11 0.19 0.12
6 5 11 0.04 0.12
-7 -5 -11 0.22 0.1
7 5 11 0.5 0.15
-8 -5 -11 0.24 0.1
8 5 11 0.1 0.13
4 -6 -11 0.05 0.11
4 -6 -11 -0.17 0.17
-4 6 11 0.12 0.14
-4 6 11 0.11 0.14
3 -6 -11 -0.08 0.14
3 -6 -11 -0.03 0.1
-3 6 11 0 0.12
2 -6 -11 0.06 0.13
2 -6 -11 0.06 0.11
-2 6 11 0.03 0.07
-2 6 11 0.09 0.11
1 -6 -11 0.13 0.1
1 -6 -11 -0.02 0.11
-1 6 11 0.13 0.07
-1 6 11 0.12 0.11
0 -6 -11 0.39 0.13
0 -6 -11 0.39 0.11
0 6 11 0.42 0.13
0 6 11 0.23 0.08
-1 -6 -11 0.03 0.1
-1 -6 -11 -0.04 0.08
1 6 11 0.11 0.09
1 6 11 0.02 0.05
1 6 11 -0.03 0.09
-2 -6 -11 1.56 0.17
-2 -6 -11 2.25 0.24
2 6 11 1.84 0.2
2 6 11 1.8 0.18
2 6 11 2.21 0.22
-3 -6 -11 0.33 0.1
-3 -6 -11 0.54 0.13
-3 -6 -11 0.39 0.1
3 6 11 0.35 0.11
3 6 11 0.3 0.11
3 6 11 0.34 0.13
-4 -6 -11 3.19 0.21
-4 -6 -11 3.04 0.23
-4 -6 -11 3.3 0.27
4 6 11 2.55 0.22
4 6 11 3.16 0.25
4 6 11 2.95 0.26
-5 -6 -11 2.33 0.2
-5 -6 -11 2.16 0.18
-5 -6 -11 2.31 0.25
5 6 11 1.35 0.19
-6 -6 -11 -0.15 0.11
-6 -6 -11 -0.03 0.06
6 6 11 0.05 0.11
-7 -6 -11 0.7 0.14
-7 -6 -11 0.59 0.15
7 6 11 0.86 0.17
-8 -6 -11 0.21 0.11
8 6 11 0.31 0.15
4 -7 -11 0.35 0.14
4 -7 -11 0.4 0.21
-4 7 11 0.74 0.18
3 -7 -11 0.46 0.15
3 -7 -11 0.4 0.18
2 -7 -11 -0.21 0.13
2 -7 -11 -0.13 0.09
-2 7 11 0.05 0.07
-2 7 11 -0.06 0.11
1 -7 -11 0.5 0.14
1 -7 -11 0.59 0.16
-1 7 11 0.48 0.1
-1 7 11 0.44 0.15
0 -7 -11 0.45 0.12
0 -7 -11 0.51 0.15
0 7 11 0.64 0.11
0 7 11 0.86 0.17
-1 -7 -11 0.22 0.1
-1 -7 -11 0.38 0.13
1 7 11 0.48 0.14
1 7 11 0.19 0.08
1 7 11 0.19 0.1
-2 -7 -11 0.01 0.11
-2 -7 -11 0.21 0.09
2 7 11 0.16 0.11
2 7 11 0.09 0.09
-3 -7 -11 0.12 0.08
-3 -7 -11 0.12 0.11
3 7 11 -0.01 0.1
3 7 11 0.3 0.11
3 7 11 0.12 0.1
-4 -7 -11 0.43 0.12
-4 -7 -11 0.78 0.17
4 7 11 0.59 0.15
4 7 11 0.49 0.14
4 7 11 0.5 0.13
-5 -7 -11 0.64 0.13
-5 -7 -11 0.62 0.17
5 7 11 0.69 0.16
5 7 11 0.87 0.16
5 7 11 0.94 0.15
-6 -7 -11 0.36 0.14
-6 -7 -11 0.56 0.12
6 7 11 0.57 0.15
-7 -7 -11 1.03 0.17
-7 -7 -11 1.38 0.23
7 7 11 1.11 0.21
-8 -7 -11 0.28 0.17
-8 -7 -11 0.03 0.09
8 7 11 0.11 0.14
3 -8 -11 0.82 0.22
3 -8 -11 0.43 0.15
2 -8 -11 0.36 0.17
2 -8 -11 0.41 0.14
-2 8 11 0.44 0.1
1 -8 -11 1.61 0.2
1 -8 -11 1.62 0.26
-1 8 11 1.28 0.21
-1 8 11 1.47 0.15
0 -8 -11 0.12 0.13
0 -8 -11 0.08 0.1
0 8 11 -0.02 0.11
0 8 11 0.1 0.08
-1 -8 -11 -0.02 0.11
-1 -8 -11 -0.05 0.09
1 8 11 0 0.11
1 8 11 -0.03 0.09
1 8 11 -0.04 0.06
-2 -8 -11 0.14 0.08
-2 -8 -11 0.12 0.12
2 8 11 0.25 0.13
2 8 11 0.16 0.1
-3 -8 -11 0.38 0.15
3 8 11 0.22 0.11
3 8 11 0.28 0.13
3 8 11 0.21 0.11
-4 -8 -11 0.11 0.09
-4 -8 -11 0.15 0.13
4 8 11 0.29 0.12
4 8 11 0.32 0.14
4 8 11 0.21 0.12
-5 -8 -11 0.24 0.11
-5 -8 -11 0.47 0.16
5 8 11 0.37 0.12
5 8 11 0.15 0.12
5 8 11 0.5 0.15
-6 -8 -11 0.59 0.13
-6 -8 -11 0.78 0.19
6 8 11 1.08 0.18
-7 -8 -11 -0.05 0.13
-7 -8 -11 0.06 0.1
7 8 11 0.14 0.13
2 -9 -11 0.08 0.14
2 -9 -11 0.04 0.14
-2 9 11 -0.04 0.07
1 -9 -11 0.68 0.16
1 -9 -11 0.8 0.19
-1 9 11 0.65 0.12
0 -9 -11 0.1 0.11
0 -9 -11 0.6 0.17
0 9 11 0.3 0.15
0 9 11 0.16 0.09
-1 -9 -11 2.94 0.23
-1 -9 -11 3.23 0.31
1 9 11 2.89 0.29
1 9 11 3.11 0.21
1 9 11 3.43 0.27
-2 -9 -11 0.21 0.14
2 9 11 0.07 0.12
2 9 11 0.22 0.13
-3 -9 -11 0.05 0.14
3 9 11 -0.05 0.1
3 9 11 0 0.11
-4 -9 -11 -0.13 0.14
4 9 11 -0.18 0.1
4 9 11 -0.04 0.1
4 9 11 0.12 0.14
-5 -9 -11 -0.07 0.09
-5 -9 -11 -0.06 0.15
5 9 11 -0.03 0.11
5 9 11 0.03 0.15
5 9 11 -0.02 0.12
-6 -9 -11 -0.08 0.14
-6 -9 -11 -0.14 0.09
6 9 11 -0.08 0.12
1 -10 -11 0.25 0.15
1 -10 -11 0.14 0.13
-1 10 11 0.33 0.11
0 -10 -11 -0.04 0.12
0 -10 -11 0.09 0.15
0 10 11 0.09 0.09
-1 -10 -11 0.97 0.2
1 10 11 0.69 0.13
-2 -10 -11 0.23 0.17
2 10 11 0.11 0.12
-3 -10 -11 1.06 0.2
3 10 11 0.62 0.17
-4 -10 -11 -0.06 0.14
4 10 11 -0.02 0.13
-5 -10 -11 -0.09 0.16
5 10 11 -0.04 0.12
5 10 11 0.02 0.12
-1 -11 -11 0.07 0.17
1 11 11 0 0.1
-2 -11 -11 -0.12 0.15
2 11 11 0.12 0.1
2 11 11 -0.04 0.12
-3 -11 -11 0.15 0.17
3 11 11 0.06 0.12
-4 -11 -11 0.04 0.17
4 11 11 -0.16 0.14
1 5 -12 -0.13 0.15
1 5 -12 0.09 0.11
-1 -5 12 0.03 0.14
0 5 -12 0.31 0.18
0 -5 12 0.47 0.18
1 -5 12 0.11 0.14
2 -5 12 0.55 0.14
2 -5 12 0.54 0.17
3 -5 12 0 0.12
3 -5 12 0.09 0.14
2 4 -12 0.09 0.14
-2 -4 12 0.07 0.14
1 4 -12 -0.02 0.14
1 4 -12 0.04 0.1
-1 -4 12 -0.09 0.15
0 -4 12 0.08 0.14
1 -4 12 0.04 0.13
2 -4 12 -0.09 0.12
2 -4 12 0.14 0.12
-3 4 -12 0.14 0.1
3 -4 12 0 0.12
3 -4 12 0.1 0.14
-4 4 -12 0.39 0.13
4 -4 12 0.1 0.14
4 -4 12 0.17 0.13
-5 4 -12 0 0.12
5 -4 12 0.19 0.14
3 3 -12 -0.06 0.14
3 3 -12 0.06 0.16
-3 -3 12 -0.07 0.13
2 3 -12 0.06 0.14
-2 -3 12 -0.01 0.08
-2 -3 12 0.03 0.12
1 3 -12 0.06 0.13
-1 -3 12 0.13 0.13
0 3 -12 -0.02 0.1
0 -3 12 0.18 0.12
1 -3 12 0.04 0.1
1 -3 12 -0.02 0.11
-2 3 -12 0.08 0.09
2 -3 12 0.23 0.11
2 -3 12 0.19 0.15
-3 3 -12 0.14 0.1
3 -3 12 -0.07 0.11
3 -3 12 -0.03 0.11
-4 3 -12 0.13 0.11
4 -3 12 0.06 0.15
4 -3 12 0.15 0.12
-5 3 -12 0.03 0.1
-5 3 -12 -0.02 0.12
5 -3 12 -0.17 0.11
5 -3 12 0.01 0.11
-6 3 -12 0.09 0.14
6 -3 12 0.15 0.12
4 2 -12 0.16 0.16
4 2 -12 0.17 0.17
-4 -2 12 0.13 0.15
3 2 -12 0.43 0.17
3 2 -12 0.01 0.15
-3 -2 12 0.01 0.13
2 2 -12 0.14 0.14
2 2 -12 0.11 0.13
-2 -2 12 -0.05 0.12
-2 -2 12 0.08 0.07
1 2 -12 -0.09 0.11
-1 -2 12 0.02 0.12
0 -2 12 0.16 0.13
-1 2 -12 0.27 0.09
1 -2 12 0.37 0.11
1 -2 12 0.34 0.14
-2 2 -12 0.6 0.12
2 -2 12 0.56 0.13
2 -2 12 0.21 0.12
-3 2 -12 0.17 0.09
3 -2 12 0.16 0.13
3 -2 12 0.15 0.1
-4 2 -12 0.04 0.09
-4 2 -12 0.21 0.13
4 -2 12 0.08 0.13
4 -2 12 0.01 0.11
-5 2 -12 0.24 0.11
-5 2 -12 0.06 0.12
5 -2 12 0.07 0.11
5 -2 12 0.24 0.14
-6 2 -12 0.04 0.09
-6 2 -12 -0.07 0.11
6 -2 12 -0.03 0.12
4 1 -12 0.69 0.17
4 1 -12 0.24 0.17
-4 -1 12 0.39 0.16
3 1 -12 0.13 0.14
3 1 -12 0.1 0.13
-3 -1 12 0.05 0.15
2 1 -12 0.17 0.13
2 1 -12 -0.11 0.12
-2 -1 12 0 0.07
-2 -1 12 0.09 0.13
1 1 -12 0.09 0.09
1 1 -12 0.16 0.12
-1 -1 12 0.14 0.12
0 1 -12 -0.11 0.08
0 -1 12 0.06 0.12
-1 1 -12 0.09 0.08
1 -1 12 0.01 0.11
1 -1 12 0.03 0.09
-2 1 -12 0.1 0.08
2 -1 12 0.06 0.11
2 -1 12 -0.01 0.08
-3 1 -12 0.56 0.11
3 -1 12 0.48 0.12
3 -1 12 0.21 0.14
-4 1 -12 0.1 0.11
-4 1 -12 0.07 0.08
4 -1 12 0.01 0.11
4 -1 12 -0.02 0.11
-5 1 -12 0.71 0.13
-5 1 -12 1.02 0.17
5 -1 12 0.62 0.18
5 -1 12 0.78 0.14
-6 1 -12 0.05 0.1
-6 1 -12 -0.08 0.12
6 -1 12 0.12 0.13
-7 1 -12 0.18 0.13
-7 1 -12 0.02 0.11
7 -1 12 0 0.13
4 0 -12 0.82 0.18
4 0 -12 0.6 0.2
-4 0 12 0.49 0.15
3 0 -12 0.09 0.13
3 0 -12 0.22 0.15
-3 0 12 0.01 0.12
-3 0 12 -0.03 0.12
2 0 -12 0.02 0.09
2 0 -12 0.19 0.11
2 0 -12 0.25 0.13
-2 0 12 -0.08 0.11
-2 0 12 0.22 0.08
1 0 -12 0.21 0.1
1 0 -12 0.36 0.14
-1 0 12 0.3 0.13
-1 0 12 0.31 0.08
0 0 -12 0.18 0.09
0 0 -12 0.19 0.1
0 0 12 0.15 0.12
-1 0 -12 0.84 0.13
1 0 12 0.66 0.15
1 0 12 0.59 0.11
-2 0 -12 0.19 0.08
2 0 12 -0.03 0.09
2 0 12 -0.07 0.11
-3 0 -12 0.42 0.1
3 0 12 0.2 0.11
3 0 12 0.25 0.1
-4 0 -12 0.1 0.1
-4 0 -12 0.1 0.08
-4 0 -12 0.04 0.08
4 0 12 0.1 0.1
4 0 12 -0.08 0.1
-5 0 -12 0 0.08
-5 0 -12 -0.03 0.11
-5 0 -12 -0.03 0.07
5 0 12 -0.04 0.12
5 0 12 0.01 0.11
-6 0 -12 -0.02 0.1
-6 0 -12 0 0.11
6 0 12 0.09 0.14
-7 0 -12 0.31 0.12
-7 0 -12 0.17 0.13
7 0 12 0.2 0.15
5 -1 -12 0.29 0.17
5 -1 -12 0.08 0.13
-5 1 12 0.32 0.14
4 -1 -12 0.06 0.14
4 -1 -12 0.02 0.13
-4 1 12 0.12 0.13
3 -1 -12 0.79 0.18
3 -1 -12 0.71 0.14
3 -1 -12 1.02 0.17
-3 1 12 0.32 0.14
2 -1 -12 0.07 0.09
2 -1 -12 -0.05 0.11
-2 1 12 0.05 0.07
-2 1 12 -0.1 0.1
-2 1 12 -0.03 0.13
1 -1 -12 0.06 0.11
1 -1 -12 -0.02 0.08
-1 1 12 0.06 0.07
-1 1 12 0.03 0.1
0 -1 -12 0.08 0.08
0 -1 -12 0.07 0.1
0 1 12 0.04 0.1
-1 -1 -12 0.65 0.14
-1 -1 -12 1 0.14
1 1 12 0.75 0.12
1 1 12 1.08 0.17
-2 -1 -12 -0.04 0.07
2 1 12 0.02 0.09
2 1 12 -0.13 0.09
-3 -1 -12 1.16 0.17
-3 -1 -12 0.89 0.13
3 1 12 1.09 0.14
3 1 12 1.1 0.18
-4 -1 -12 0.18 0.09
-4 -1 -12 0.18 0.09
4 1 12 0.16 0.1
4 1 12 0 0.1
-5 -1 -12 2.14 0.2
-5 -1 -12 2.45 0.21
5 1 12 2.27 0.24
-6 -1 -12 -0.01 0.08
-6 -1 -12 0.06 0.08
6 1 12 -0.03 0.12
-7 -1 -12 0.35 0.12
-7 -1 -12 0.52 0.14
-7 -1 -12 0.45 0.13
7 1 12 0.22 0.14
-8 -1 -12 0.19 0.12
-8 -1 -12 0.13 0.11
8 1 12 -0.12 0.12
5 -2 -12 0.18 0.15
5 -2 -12 0.11 0.13
-5 2 12 0.11 0.14
4 -2 -12 0.12 0.15
4 -2 -12 0.08 0.11
4 -2 -12 -0.01 0.1
-4 2 12 -0.01 0.13
3 -2 -12 -0.09 0.12
3 -2 -12 0.07 0.11
3 -2 -12 -0.04 0.1
-3 2 12 0.12 0.12
2 -2 -12 0.07 0.12
2 -2 -12 0.15 0.1
-2 2 12 0.09 0.07
-2 2 12 0.05 0.1
1 -2 -12 0.15 0.11
1 -2 -12 0.13 0.09
-1 2 12 0.15 0.07
-1 2 12 0.27 0.1
-1 2 12 0.23 0.12
0 -2 -12 0.4 0.11
0 -2 -12 0.75 0.15
0 2 12 0.69 0.14
0 2 12 0.5 0.09
-1 -2 -12 -0.03 0.08
-1 -2 -12 -0.03 0.09
1 2 12 0.06 0.09
1 2 12 0.08 0.09
-2 -2 -12 0.43 0.12
-2 -2 -12 0.63 0.12
2 2 12 0.48 0.13
2 2 12 0.57 0.11
-3 -2 -12 1.26 0.16
-3 -2 -12 1.02 0.16
3 2 12 1.09 0.17
3 2 12 1.42 0.19
-4 -2 -12 0.04 0.07
-4 -2 -12 0.04 0.07
4 2 12 0.16 0.1
4 2 12 -0.01 0.1
-5 -2 -12 0.33 0.1
-5 -2 -12 0.54 0.12
5 2 12 0.4 0.13
-6 -2 -12 0.21 0.09
-6 -2 -12 0.35 0.11
6 2 12 0.11 0.14
-7 -2 -12 0.85 0.15
-7 -2 -12 1 0.15
7 2 12 1 0.21
-8 -2 -12 0.02 0.1
-8 -2 -12 0.1 0.09
8 2 12 0.12 0.15
5 -3 -12 -0.13 0.12
5 -3 -12 0.01 0.15
-5 3 12 0.09 0.14
-5 3 12 -0.05 0.15
4 -3 -12 -0.16 0.13
4 -3 -12 0.06 0.12
4 -3 -12 0.19 0.13
-4 3 12 -0.01 0.13
-4 3 12 -0.02 0.13
3 -3 -12 0.29 0.11
3 -3 -12 0.14 0.11
3 -3 -12 0.42 0.15
-3 3 12 0.19 0.12
2 -3 -12 0.43 0.15
2 -3 -12 0.43 0.12
-2 3 12 0.39 0.09
-2 3 12 0.08 0.1
1 -3 -12 1.28 0.2
1 -3 -12 1.23 0.16
-1 3 12 1.18 0.12
-1 3 12 1 0.16
-1 3 12 1.16 0.16
0 -3 -12 0.25 0.09
0 -3 -12 0.15 0.1
0 3 12 0.13 0.1
0 3 12 0.11 0.06
0 3 12 0.14 0.09
-1 -3 -12 0.78 0.15
-1 -3 -12 0.64 0.13
1 3 12 0.46 0.12
1 3 12 0.61 0.11
1 3 12 0.55 0.09
-2 -3 -12 0.1 0.09
-2 -3 -12 0.15 0.09
2 3 12 0.1 0.09
2 3 12 0.07 0.1
-3 -3 -12 0.01 0.09
-3 -3 -12 0.01 0.06
-3 -3 -12 0.16 0.08
3 3 12 0.05 0.09
3 3 12 0.18 0.11
-4 -3 -12 0.23 0.08
-4 -3 -12 0.17 0.08
4 3 12 -0.05 0.09
4 3 12 0.12 0.11
-5 -3 -12 0.48 0.11
-5 -3 -12 0.27 0.1
5 3 12 0.18 0.12
-6 -3 -12 0.07 0.08
-6 -3 -12 0 0.09
6 3 12 0.03 0.12
-7 -3 -12 0.14 0.1
-7 -3 -12 0.04 0.1
7 3 12 0.07 0.15
-8 -3 -12 0.01 0.08
-8 -3 -12 0.11 0.11
8 3 12 -0.04 0.13
4 -4 -12 0.02 0.15
4 -4 -12 0.13 0.13
4 -4 -12 0.11 0.12
-4 4 12 0.12 0.13
-4 4 12 0.13 0.15
3 -4 -12 -0.15 0.11
3 -4 -12 -0.12 0.09
-3 4 12 -0.06 0.09
2 -4 -12 0.71 0.17
2 -4 -12 0.72 0.14
-2 4 12 0.2 0.11
-2 4 12 0.59 0.1
1 -4 -12 0.53 0.16
1 -4 -12 0.47 0.11
-1 4 12 0.35 0.12
-1 4 12 0.4 0.09
0 -4 -12 0.09 0.09
0 -4 -12 0.04 0.1
0 4 12 0.07 0.09
0 4 12 0.16 0.09
0 4 12 -0.07 0.05
-1 -4 -12 0.05 0.1
-1 -4 -12 -0.13 0.07
1 4 12 -0.02 0.08
1 4 12 0.08 0.09
1 4 12 0.03 0.08
1 4 12 -0.05 0.05
-2 -4 -12 0.03 0.1
-2 -4 -12 0.09 0.08
2 4 12 -0.05 0.08
2 4 12 0.14 0.09
-3 -4 -12 1.11 0.19
-3 -4 -12 1.32 0.16
-3 -4 -12 1.51 0.16
3 4 12 1.47 0.18
3 4 12 1.34 0.2
-4 -4 -12 0.04 0.1
-4 -4 -12 0.08 0.07
-4 -4 -12 0.12 0.08
4 4 12 -0.01 0.09
4 4 12 0.09 0.1
-5 -4 -12 0.1 0.08
-5 -4 -12 0.33 0.1
5 4 12 0.17 0.11
-6 -4 -12 0.22 0.09
-6 -4 -12 0.18 0.1
6 4 12 0.14 0.13
-7 -4 -12 -0.01 0.08
-7 -4 -12 -0.05 0.09
7 4 12 -0.11 0.13
-8 -4 -12 -0.1 0.12
-8 -4 -12 0.09 0.09
8 4 12 0.02 0.11
4 -5 -12 0.12 0.16
4 -5 -12 -0.04 0.11
3 -5 -12 0.02 0.14
3 -5 -12 0.12 0.11
-3 5 12 -0.01 0.11
2 -5 -12 0.58 0.17
2 -5 -12 0.51 0.13
-2 5 12 0.38 0.14
-2 5 12 0.35 0.08
1 -5 -12 0.21 0.14
1 -5 -12 0.22 0.1
-1 5 12 0.13 0.08
-1 5 12 0.26 0.12
0 -5 -12 0.54 0.15
0 -5 -12 0.45 0.11
0 5 12 0.28 0.12
0 5 12 0.37 0.08
-1 -5 -12 0.08 0.1
-1 -5 -12 0.04 0.08
1 5 12 0.06 0.09
1 5 12 0.04 0.06
1 5 12 0.09 0.1
1 5 12 0.07 0.08
-2 -5 -12 0.27 0.11
-2 -5 -12 0.32 0.1
2 5 12 0.15 0.1
2 5 12 0.11 0.09
2 5 12 0.28 0.11
-3 -5 -12 0.02 0.07
-3 -5 -12 -0.01 0.08
-3 -5 -12 0 0.09
3 5 12 0.03 0.09
3 5 12 -0.06 0.09
-4 -5 -12 0.05 0.08
-4 -5 -12 0.05 0.09
-4 -5 -12 0.04 0.08
4 5 12 0.22 0.1
4 5 12 -0.05 0.09
-5 -5 -12 -0.1 0.1
-5 -5 -12 0.13 0.08
-5 -5 -12 0 0.08
5 5 12 0.06 0.1
-6 -5 -12 0 0.08
-6 -5 -12 0.12 0.09
6 5 12 -0.06 0.11
-7 -5 -12 0.08 0.09
7 5 12 -0.03 0.12
-8 -5 -12 -0.09 0.09
8 5 12 0.08 0.14
4 -6 -12 0.19 0.18
4 -6 -12 0.1 0.13
3 -6 -12 0.03 0.12
3 -6 -12 -0.03 0.15
2 -6 -12 -0.04 0.14
2 -6 -12 -0.08 0.11
-2 6 12 0.03 0.12
-2 6 12 -0.12 0.07
1 -6 -12 0.87 0.18
1 -6 -12 0.5 0.13
-1 6 12 0.65 0.11
-1 6 12 0.81 0.18
0 -6 -12 0.35 0.11
0 -6 -12 0.6 0.18
0 6 12 0.73 0.12
0 6 12 0.55 0.15
-1 -6 -12 0.08 0.12
-1 -6 -12 -0.1 0.08
1 6 12 -0.08 0.05
1 6 12 0.01 0.08
1 6 12 0.09 0.11
-2 -6 -12 1.89 0.25
-2 -6 -12 1.41 0.16
2 6 12 1.47 0.17
2 6 12 1.41 0.2
2 6 12 1.65 0.21
-3 -6 -12 0.23 0.1
-3 -6 -12 0.19 0.12
3 6 12 0.12 0.1
3 6 12 0.06 0.1
3 6 12 0.16 0.11
-4 -6 -12 0.13 0.09
-4 -6 -12 0.12 0.12
-4 -6 -12 0.08 0.09
4 6 12 0.02 0.11
4 6 12 0.05 0.1
-5 -6 -12 0.27 0.11
-5 -6 -12 0.16 0.13
-5 -6 -12 0.05 0.09
5 6 12 0.14 0.11
5 6 12 0.24 0.12
-6 -6 -12 0.68 0.17
-6 -6 -12 0.68 0.14
6 6 12 0.81 0.18
-7 -6 -12 -0.06 0.09
7 6 12 0.03 0.13
-8 -6 -12 -0.01 0.09
8 6 12 -0.05 0.13
3 -7 -12 0.39 0.19
3 -7 -12 0.38 0.15
2 -7 -12 0.21 0.17
2 -7 -12 0.27 0.14
-2 7 12 0.2 0.08
1 -7 -12 0.09 0.14
1 -7 -12 0.1 0.11
-1 7 12 -0.05 0.12
-1 7 12 0.13 0.08
0 -7 -12 1.13 0.21
0 -7 -12 0.82 0.14
0 7 12 1.02 0.14
0 7 12 1.04 0.2
-1 -7 -12 -0.02 0.12
-1 -7 -12 -0.07 0.08
1 7 12 -0.04 0.05
1 7 12 -0.1 0.1
1 7 12 -0.03 0.09
-2 -7 -12 0.03 0.12
-2 -7 -12 -0.01 0.09
2 7 12 -0.04 0.11
2 7 12 0.01 0.09
-3 -7 -12 0.19 0.1
-3 -7 -12 0.06 0.12
3 7 12 0.07 0.1
3 7 12 -0.06 0.11
3 7 12 0.04 0.1
-4 -7 -12 1.55 0.17
-4 -7 -12 2.24 0.26
-4 -7 -12 1.96 0.22
4 7 12 1.73 0.22
4 7 12 1.87 0.24
4 7 12 1.77 0.2
-5 -7 -12 -0.02 0.08
-5 -7 -12 -0.01 0.12
5 7 12 -0.06 0.1
5 7 12 -0.02 0.1
-6 -7 -12 1.63 0.26
-6 -7 -12 2 0.21
6 7 12 1.73 0.21
-7 -7 -12 0.06 0.15
-7 -7 -12 -0.01 0.09
7 7 12 0.15 0.13
3 -8 -12 0.2 0.18
3 -8 -12 0.28 0.15
2 -8 -12 0.02 0.15
2 -8 -12 -0.03 0.12
-2 8 12 0.11 0.08
1 -8 -12 1.22 0.22
1 -8 -12 1.35 0.19
-1 8 12 1.25 0.15
0 -8 -12 -0.01 0.13
0 -8 -12 0.02 0.1
0 8 12 0.01 0.08
0 8 12 0.02 0.12
-1 -8 -12 0.55 0.13
-1 -8 -12 0.62 0.18
1 8 12 0.74 0.14
1 8 12 0.71 0.12
1 8 12 0.61 0.16
-2 -8 -12 0.2 0.13
-2 -8 -12 0.15 0.1
2 8 12 0.13 0.12
2 8 12 0.17 0.11
-3 -8 -12 0.26 0.15
-3 -8 -12 0.3 0.11
3 8 12 0.46 0.16
3 8 12 0.23 0.12
-4 -8 -12 0.4 0.15
4 8 12 0.06 0.12
4 8 12 0.13 0.12
4 8 12 0.26 0.12
-5 -8 -12 0.2 0.15
-5 -8 -12 0.14 0.11
5 8 12 0.3 0.12
5 8 12 0.19 0.13
-6 -8 -12 0.46 0.18
-6 -8 -12 0.52 0.14
6 8 12 0.49 0.16
-7 -8 -12 0.02 0.16
-7 -8 -12 0.09 0.11
7 8 12 0.27 0.14
2 -9 -12 0.37 0.19
2 -9 -12 0.02 0.14
-2 9 12 0.08 0.08
1 -9 -12 0.46 0.18
1 -9 -12 0.37 0.15
-1 9 12 0.28 0.11
0 -9 -12 -0.15 0.14
0 -9 -12 0.07 0.11
0 9 12 0.08 0.09
-1 -9 -12 0.51 0.14
-1 -9 -12 0.89 0.2
1 9 12 0.73 0.13
1 9 12 0.58 0.18
-2 -9 -12 1.84 0.28
2 9 12 1.3 0.23
2 9 12 1.39 0.23
-3 -9 -12 0.11 0.15
3 9 12 0.21 0.15
3 9 12 0.32 0.14
-4 -9 -12 -0.25 0.13
4 9 12 0.09 0.14
4 9 12 -0.11 0.12
4 9 12 0.06 0.11
-5 -9 -12 0.21 0.11
-5 -9 -12 0.11 0.16
5 9 12 0.34 0.13
5 9 12 0.16 0.13
-6 -9 -12 0.14 0.12
-6 -9 -12 0.12 0.16
6 9 12 -0.1 0.12
6 9 12 0.16 0.12
0 -10 -12 -0.04 0.11
0 -10 -12 0.24 0.16
0 10 12 -0.01 0.09
-1 -10 -12 0.23 0.16
1 10 12 0.16 0.1
-2 -10 -12 0.06 0.15
2 10 12 0.47 0.12
2 10 12 0.16 0.13
-3 -10 -12 2.59 0.32
3 10 12 2.34 0.27
-4 -10 -12 0.4 0.19
4 10 12 0.88 0.18
-5 -10 -12 0.52 0.2
5 10 12 0.37 0.16
5 10 12 0.36 0.15
1 4 -13 0.01 0.11
-1 -4 13 -0.02 0.16
0 -4 13 0.06 0.14
1 -4 13 0.16 0.15
2 -4 13 1.94 0.23
3 -4 13 0.55 0.17
3 -4 13 0.84 0.16
2 3 -13 -0.14 0.14
-2 -3 13 0.2 0.09
-2 -3 13 -0.1 0.13
-1 -3 13 -0.02 0.14
0 -3 13 0.1 0.15
1 -3 13 -0.04 0.11
-2 3 -13 -0.05 0.08
2 -3 13 -0.07 0.11
2 -3 13 0.29 0.15
-3 3 -13 0.06 0.1
3 -3 13 0.21 0.12
3 -3 13 -0.2 0.11
-4 3 -13 0.82 0.15
4 -3 13 0.68 0.14
4 -3 13 0.39 0.16
-5 3 -13 0.23 0.13
5 -3 13 0.14 0.14
5 -3 13 0.53 0.15
3 2 -13 0.53 0.2
3 2 -13 0.27 0.18
-3 -2 13 0.36 0.17
2 2 -13 0.13 0.17
-2 -2 13 -0.18 0.13
-2 -2 13 0.03 0.08
-1 -2 13 0.31 0.14
0 -2 13 0.02 0.12
-1 2 -13 0.11 0.09
1 -2 13 0 0.11
1 -2 13 0.04 0.11
-2 2 -13 0.32 0.1
2 -2 13 0.33 0.12
2 -2 13 0.25 0.15
-3 2 -13 0 0.09
3 -2 13 -0.01 0.12
3 -2 13 -0.05 0.13
-4 2 -13 0.18 0.1
4 -2 13 -0.03 0.13
4 -2 13 0.14 0.12
-5 2 -13 0.19 0.11
-5 2 -13 0.18 0.13
5 -2 13 0.17 0.14
5 -2 13 0.02 0.12
-6 2 -13 0.17 0.12
-6 2 -13 0.01 0.13
6 -2 13 0.1 0.14
6 -2 13 0.31 0.13
3 1 -13 -0.29 0.13
3 1 -13 0.04 0.14
-3 -1 13 -0.07 0.14
2 1 -13 0.05 0.14
-2 -1 13 -0.01 0.07
-2 -1 13 0.03 0.14
-1 -1 13 0.18 0.13
0 1 -13 -0.01 0.08
0 -1 13 0.09 0.13
-1 1 -13 0.43 0.11
1 -1 13 0.58 0.12
1 -1 13 0.34 0.15
-2 1 -13 -0.06 0.08
2 -1 13 0.06 0.1
2 -1 13 0.06 0.12
-3 1 -13 -0.06 0.08
3 -1 13 0.01 0.12
3 -1 13 0 0.1
-4 1 -13 0.05 0.08
4 -1 13 -0.12 0.1
4 -1 13 0 0.11
-5 1 -13 -0.01 0.09
-5 1 -13 -0.06 0.11
5 -1 13 -0.04 0.14
5 -1 13 0.06 0.11
-6 1 -13 0.24 0.12
-6 1 -13 -0.02 0.1
6 -1 13 0 0.13
4 0 -13 0.24 0.17
4 0 -13 -0.06 0.12
3 0 -13 0.17 0.13
3 0 -13 0.13 0.14
-3 0 13 0.07 0.15
2 0 -13 0.07 0.1
2 0 -13 0 0.12
-2 0 13 0.09 0.14
-2 0 13 0.14 0.08
1 0 -13 0.03 0.12
1 0 -13 0.05 0.1
-1 0 13 0.03 0.12
-1 0 13 0 0.08
0 0 -13 0.09 0.1
0 0 13 0.03 0.12
-1 0 -13 0.92 0.14
1 0 13 0.73 0.12
1 0 13 0.69 0.16
-2 0 -13 0.19 0.09
2 0 13 0.13 0.1
2 0 13 0.02 0.11
-3 0 -13 0.26 0.1
3 0 13 0.34 0.14
3 0 13 0.44 0.12
-4 0 -13 0.38 0.11
-4 0 -13 0.06 0.11
-4 0 -13 -0.01 0.07
4 0 13 0.26 0.11
4 0 13 0.23 0.14
-5 0 -13 0.17 0.14
-5 0 -13 -0.01 0.09
5 0 13 0.29 0.14
5 0 13 -0.03 0.11
-6 0 -13 0.07 0.1
-6 0 -13 0.11 0.13
6 0 13 0.27 0.13
-7 0 -13 0.03 0.1
-7 0 -13 0.03 0.1
7 0 13 -0.04 0.13
4 -1 -13 -0.07 0.14
4 -1 -13 0.06 0.14
3 -1 -13 -0.02 0.09
3 -1 -13 0.07 0.16
-3 1 13 0.12 0.12
2 -1 -13 0.8 0.18
2 -1 -13 0.88 0.16
-2 1 13 1.01 0.18
-2 1 13 0.92 0.11
1 -1 -13 0.06 0.11
1 -1 -13 -0.1 0.11
-1 1 13 0.04 0.12
-1 1 13 0.09 0.09
0 -1 -13 0.37 0.14
0 -1 -13 0.43 0.12
0 1 13 0.14 0.12
-1 -1 -13 -0.02 0.08
1 1 13 -0.12 0.08
1 1 13 0 0.12
-2 -1 -13 0.26 0.1
2 1 13 0.14 0.11
2 1 13 0.05 0.1
-3 -1 -13 0.23 0.09
3 1 13 0.03 0.12
3 1 13 0.19 0.11
-4 -1 -13 0.05 0.07
-4 -1 -13 0.09 0.09
4 1 13 0.12 0.12
4 1 13 0.13 0.11
-5 -1 -13 0.75 0.15
-5 -1 -13 0.4 0.12
-5 -1 -13 0.54 0.12
5 1 13 0.4 0.15
5 1 13 0.44 0.12
-6 -1 -13 -0.04 0.09
-6 -1 -13 0.14 0.12
-6 -1 -13 0.08 0.08
6 1 13 0.08 0.14
-7 -1 -13 0.31 0.14
-7 -1 -13 -0.02 0.1
-7 -1 -13 0.06 0.1
7 1 13 0.09 0.14
4 -2 -13 0.12 0.13
4 -2 -13 -0.06 0.14
4 -2 -13 0.04 0.13
3 -2 -13 0.04 0.11
3 -2 -13 -0.01 0.13
-3 2 13 0.09 0.12
2 -2 -13 0.12 0.1
2 -2 -13 -0.06 0.12
-2 2 13 0.01 0.11
-2 2 13 0.04 0.07
1 -2 -13 0.24 0.14
1 -2 -13 0.19 0.11
-1 2 13 0.22 0.09
-1 2 13 0.37 0.14
0 -2 -13 0.49 0.15
0 -2 -13 0.71 0.13
0 2 13 0.4 0.09
0 2 13 0.39 0.12
-1 -2 -13 0.12 0.11
-1 -2 -13 -0.05 0.09
1 2 13 0.16 0.11
1 2 13 0.09 0.09
-2 -2 -13 1.78 0.19
2 2 13 1.49 0.2
2 2 13 1.87 0.21
-3 -2 -13 0.1 0.09
3 2 13 -0.04 0.09
3 2 13 0.04 0.11
-4 -2 -13 0.12 0.08
-4 -2 -13 -0.01 0.07
4 2 13 0.01 0.11
4 2 13 0.07 0.1
-5 -2 -13 -0.04 0.08
-5 -2 -13 0.12 0.09
5 2 13 -0.07 0.1
5 2 13 0.06 0.12
-6 -2 -13 0.06 0.09
-6 -2 -13 0.25 0.11
6 2 13 0.19 0.15
-7 -2 -13 -0.01 0.09
-7 -2 -13 0.17 0.11
7 2 13 -0.06 0.11
4 -3 -13 0.09 0.11
4 -3 -13 0 0.12
4 -3 -13 -0.04 0.14
3 -3 -13 0.03 0.11
3 -3 -13 -0.02 0.13
2 -3 -13 -0.02 0.1
2 -3 -13 -0.05 0.11
-2 3 13 0.02 0.1
-2 3 13 -0.14 0.07
1 -3 -13 0.67 0.17
1 -3 -13 0.82 0.15
-1 3 13 0.67 0.14
-1 3 13 0.96 0.12
0 -3 -13 0.29 0.11
0 -3 -13 0.19 0.13
0 3 13 0.08 0.11
0 3 13 0.09 0.08
-1 -3 -13 0.33 0.11
-1 -3 -13 0.44 0.12
1 3 13 0.26 0.1
1 3 13 0.16 0.07
1 3 13 0.28 0.12
-2 -3 -13 0.8 0.14
-2 -3 -13 0.52 0.13
2 3 13 0.51 0.14
2 3 13 0.44 0.11
-3 -3 -13 0.1 0.09
-3 -3 -13 0.24 0.12
3 3 13 0.06 0.1
3 3 13 0.21 0.1
-4 -3 -13 0.48 0.11
-4 -3 -13 0.46 0.11
4 3 13 0.47 0.14
4 3 13 0.72 0.14
-5 -3 -13 0.04 0.09
-5 -3 -13 0.01 0.08
5 3 13 -0.02 0.11
5 3 13 0.1 0.12
-6 -3 -13 0.1 0.1
-6 -3 -13 0.21 0.1
6 3 13 0.13 0.13
-7 -3 -13 0.37 0.12
-7 -3 -13 0.39 0.12
7 3 13 0.46 0.17
4 -4 -13 0.18 0.13
4 -4 -13 0.07 0.17
3 -4 -13 0.07 0.15
3 -4 -13 -0.04 0.1
2 -4 -13 0.11 0.14
2 -4 -13 0.2 0.12
-2 4 13 -0.07 0.07
-2 4 13 0 0.1
1 -4 -13 0.12 0.13
1 -4 -13 0.21 0.11
-1 4 13 0.34 0.12
-1 4 13 0.22 0.09
0 -4 -13 0.69 0.17
0 -4 -13 0.75 0.14
0 4 13 0.56 0.1
0 4 13 0.43 0.13
-1 -4 -13 0.3 0.13
-1 -4 -13 0.16 0.09
1 4 13 0.03 0.06
1 4 13 0.07 0.09
1 4 13 0.11 0.09
-2 -4 -13 0.17 0.1
-2 -4 -13 0.18 0.11
2 4 13 0.22 0.1
2 4 13 -0.02 0.09
-3 -4 -13 0.28 0.12
-3 -4 -13 0.36 0.11
3 4 13 0.18 0.1
3 4 13 0.27 0.11
-4 -4 -13 0.07 0.11
-4 -4 -13 0.05 0.09
-4 -4 -13 0.03 0.07
4 4 13 0.15 0.11
4 4 13 0.09 0.11
-5 -4 -13 0.14 0.09
-5 -4 -13 0.11 0.09
5 4 13 0.24 0.13
5 4 13 0.23 0.12
-6 -4 -13 0.25 0.1
-6 -4 -13 0.07 0.1
6 4 13 -0.08 0.11
-7 -4 -13 0.03 0.1
-7 -4 -13 0.02 0.1
7 4 13 0.03 0.14
3 -5 -13 0.37 0.14
3 -5 -13 0.74 0.2
2 -5 -13 0.33 0.17
2 -5 -13 0.09 0.1
-2 5 13 0.17 0.08
-2 5 13 0.15 0.11
1 -5 -13 -0.06 0.12
1 -5 -13 0.01 0.1
-1 5 13 0.12 0.09
-1 5 13 0.09 0.11
0 -5 -13 0 0.12
0 -5 -13 0.11 0.1
0 5 13 -0.08 0.09
0 5 13 0.02 0.06
-1 -5 -13 -0.02 0.09
-1 -5 -13 -0.1 0.1
1 5 13 0 0.05
1 5 13 -0.05 0.09
1 5 13 0.13 0.1
1 5 13 0.07 0.09
-2 -5 -13 0.52 0.15
-2 -5 -13 0.68 0.13
2 5 13 0.58 0.14
2 5 13 0.64 0.12
-3 -5 -13 0.01 0.09
-3 -5 -13 0.33 0.13
3 5 13 0.09 0.1
3 5 13 0.27 0.11
-4 -5 -13 0.1 0.07
-4 -5 -13 0.07 0.1
-4 -5 -13 0.15 0.09
4 5 13 0.2 0.11
4 5 13 0.1 0.11
-5 -5 -13 0.35 0.14
-5 -5 -13 0.38 0.11
-5 -5 -13 0.33 0.11
5 5 13 0.27 0.13
5 5 13 0.49 0.14
-6 -5 -13 0.32 0.12
-6 -5 -13 -0.05 0.09
6 5 13 0.2 0.13
-7 -5 -13 0.16 0.11
-7 -5 -13 0.25 0.11
7 5 13 0.12 0.14
3 -6 -13 0.11 0.15
3 -6 -13 0.02 0.12
2 -6 -13 0.15 0.1
2 -6 -13 0.14 0.16
-2 6 13 0.11 0.08
1 -6 -13 0 0.1
1 -6 -13 -0.03 0.13
-1 6 13 0.07 0.08
-1 6 13 -0.11 0.11
0 -6 -13 0.08 0.13
0 -6 -13 0.01 0.1
0 6 13 0.1 0.12
0 6 13 0.01 0.08
-1 -6 -13 -0.07 0.08
-1 -6 -13 -0.04 0.1
1 6 13 0.13 0.07
1 6 13 0.06 0.11
1 6 13 0.07 0.09
-2 -6 -13 0.87 0.14
-2 -6 -13 0.69 0.17
2 6 13 0.61 0.14
2 6 13 0.62 0.13
2 6 13 0.79 0.16
-3 -6 -13 0.19 0.1
-3 -6 -13 0.09 0.12
3 6 13 0.19 0.12
3 6 13 0.22 0.11
-4 -6 -13 1.38 0.23
-4 -6 -13 1.29 0.17
-4 -6 -13 1.12 0.19
4 6 13 1.5 0.18
4 6 13 1.07 0.18
-5 -6 -13 0.09 0.1
-5 -6 -13 0.16 0.1
-5 -6 -13 0.22 0.13
5 6 13 0.28 0.13
5 6 13 0.06 0.12
-6 -6 -13 0.31 0.11
-6 -6 -13 0.2 0.1
-6 -6 -13 0.15 0.14
6 6 13 0.29 0.14
-7 -6 -13 0.02 0.09
7 6 13 -0.17 0.12
3 -7 -13 -0.14 0.15
2 -7 -13 0.18 0.18
2 -7 -13 0.15 0.13
-2 7 13 0.03 0.07
1 -7 -13 0.05 0.11
1 -7 -13 -0.2 0.12
-1 7 13 0.02 0.08
0 -7 -13 0.36 0.13
0 -7 -13 0.52 0.17
0 7 13 0.43 0.16
0 7 13 0.71 0.12
-1 -7 -13 0.12 0.11
-1 -7 -13 0.19 0.13
1 7 13 0.21 0.08
1 7 13 0.22 0.11
1 7 13 0.08 0.12
-2 -7 -13 0.06 0.1
-2 -7 -13 0.21 0.14
2 7 13 0.06 0.11
2 7 13 0.07 0.12
-3 -7 -13 0.16 0.12
-3 -7 -13 -0.06 0.09
3 7 13 0.07 0.11
3 7 13 -0.03 0.1
3 7 13 0.11 0.11
-4 -7 -13 0.36 0.11
-4 -7 -13 0.36 0.15
4 7 13 0.6 0.14
4 7 13 0.33 0.13
-5 -7 -13 0.12 0.09
-5 -7 -13 -0.02 0.13
5 7 13 0.02 0.12
5 7 13 0.12 0.13
-6 -7 -13 0.24 0.15
-6 -7 -13 0.25 0.11
6 7 13 0.14 0.13
-7 -7 -13 -0.11 0.1
-7 -7 -13 -0.18 0.13
7 7 13 0.05 0.11
2 -8 -13 0.21 0.14
2 -8 -13 -0.17 0.14
-2 8 13 0.03 0.08
1 -8 -13 -0.17 0.14
1 -8 -13 0.02 0.12
-1 8 13 0.02 0.09
0 -8 -13 0.19 0.12
0 -8 -13 0.02 0.15
0 8 13 0.34 0.11
-1 -8 -13 0.17 0.12
-1 -8 -13 0.1 0.14
1 8 13 0.29 0.11
1 8 13 0.38 0.15
-2 -8 -13 0.31 0.12
-2 -8 -13 0.29 0.16
2 8 13 0.32 0.15
2 8 13 0.52 0.14
-3 -8 -13 0.07 0.13
-3 -8 -13 0.08 0.1
3 8 13 -0.03 0.12
3 8 13 -0.06 0.12
-4 -8 -13 0.17 0.15
4 8 13 0.23 0.13
4 8 13 0.16 0.14
4 8 13 0.3 0.13
-5 -8 -13 0.64 0.18
-5 -8 -13 0.12 0.1
5 8 13 0.8 0.17
5 8 13 0.39 0.15
-6 -8 -13 0.12 0.15
-6 -8 -13 -0.11 0.09
6 8 13 0.3 0.13
6 8 13 0.12 0.14
1 -9 -13 -0.01 0.15
1 -9 -13 0.22 0.13
-1 9 13 0.15 0.1
0 -9 -13 0.16 0.12
0 -9 -13 0.01 0.14
0 9 13 0.07 0.1
-1 -9 -13 0.41 0.13
-1 -9 -13 0.32 0.16
1 9 13 0.58 0.13
-2 -9 -13 0.01 0.11
-2 -9 -13 0.01 0.15
2 9 13 -0.05 0.09
2 9 13 -0.01 0.11
-3 -9 -13 -0.11 0.14
3 9 13 -0.01 0.11
-4 -9 -13 0.1 0.15
4 9 13 0.22 0.14
-5 -9 -13 0.08 0.15
5 9 13 0.01 0.13
5 9 13 0.12 0.14
-1 -10 -13 0.02 0.15
1 10 13 0 0.1
-2 -10 -13 0.41 0.18
2 10 13 0.18 0.14
2 10 13 0.68 0.15
-3 -10 -13 0.27 0.19
3 10 13 0.4 0.14
-4 -10 -13 -0.14 0.16
4 10 13 0.06 0.13
0 -3 14 -0.06 0.16
1 -3 14 0.16 0.15
2 -3 14 0.1 0.14
2 -3 14 0.06 0.13
-3 3 -14 0.16 0.11
3 -3 14 -0.06 0.12
3 -3 14 0.16 0.14
-1 -2 14 0.36 0.17
0 -2 14 -0.18 0.13
-1 2 -14 0.2 0.09
1 -2 14 0.3 0.17
-2 2 -14 0.14 0.09
2 -2 14 0.12 0.13
2 -2 14 0.17 0.14
-3 2 -14 0.43 0.12
3 -2 14 0.09 0.15
3 -2 14 0.24 0.13
-4 2 -14 0.09 0.11
4 -2 14 0.13 0.11
4 -2 14 0.04 0.12
5 -2 14 0.05 0.15
2 1 -14 0.25 0.17
-2 -1 14 0.18 0.15
-2 -1 14 0.21 0.09
-1 -1 14 0.64 0.13
-1 -1 14 0.41 0.18
0 1 -14 0.04 0.1
0 -1 14 -0.07 0.11
-1 1 -14 1.13 0.16
1 -1 14 0.96 0.2
-2 1 -14 -0.04 0.09
2 -1 14 0.02 0.11
2 -1 14 -0.04 0.12
-3 1 -14 0.1 0.1
3 -1 14 0.14 0.13
3 -1 14 0.17 0.11
-4 1 -14 0.06 0.1
4 -1 14 0.03 0.12
4 -1 14 0.05 0.14
-5 1 -14 0.02 0.1
5 -1 14 0.05 0.12
5 -1 14 0.09 0.13
3 0 -14 -0.05 0.15
2 0 -14 0.09 0.14
-2 0 14 -0.09 0.07
-2 0 14 0.12 0.15
1 0 -14 0 0.09
1 0 -14 -0.08 0.12
-1 0 14 -0.08 0.12
-1 0 14 -0.08 0.08
0 0 -14 0.55 0.14
0 0 14 0.57 0.15
-1 0 -14 0.08 0.1
1 0 14 0.14 0.11
1 0 14 0.17 0.13
-2 0 -14 -0.01 0.09
2 0 14 -0.03 0.1
2 0 14 0.13 0.13
-3 0 -14 1.89 0.18
3 0 14 1.24 0.21
3 0 14 2.09 0.24
-4 0 -14 -0.13 0.08
4 0 14 0.06 0.12
4 0 14 0.16 0.14
-5 0 -14 0.67 0.17
-5 0 -14 0.49 0.13
5 0 14 0.18 0.15
5 0 14 0.38 0.12
-6 0 -14 0.03 0.12
-6 0 -14 -0.12 0.09
6 0 14 0.06 0.13
6 0 14 0.01 0.12
3 -1 -14 0.16 0.16
2 -1 -14 0.76 0.15
2 -1 -14 0.76 0.19
-2 1 14 0.57 0.19
-2 1 14 0.52 0.1
1 -1 -14 0.11 0.13
1 -1 -14 0.08 0.1
-1 1 14 0.11 0.09
-1 1 14 -0.15 0.12
0 -1 -14 0.02 0.13
0 -1 -14 -0.12 0.09
0 1 14 -0.07 0.07
0 1 14 -0.09 0.11
-1 -1 -14 0.07 0.11
1 1 14 0.06 0.1
1 1 14 -0.01 0.12
-2 -1 -14 0.49 0.12
2 1 14 0.3 0.14
2 1 14 0.57 0.12
-3 -1 -14 0.12 0.09
3 1 14 0.01 0.13
3 1 14 -0.04 0.1
-4 -1 -14 -0.07 0.08
4 1 14 0.24 0.14
4 1 14 0.01 0.11
-5 -1 -14 0.75 0.16
-5 -1 -14 0.61 0.13
-5 -1 -14 0.83 0.14
5 1 14 0.41 0.17
5 1 14 0.53 0.14
-6 -1 -14 -0.1 0.09
-6 -1 -14 0.37 0.14
-6 -1 -14 0.17 0.11
6 1 14 0.15 0.12
3 -2 -14 -0.03 0.11
3 -2 -14 -0.14 0.14
2 -2 -14 3.06 0.32
2 -2 -14 2.65 0.22
-2 2 14 2.56 0.18
1 -2 -14 0.06 0.11
1 -2 -14 -0.09 0.13
-1 2 14 -0.07 0.12
-1 2 14 -0.1 0.07
0 -2 -14 0.24 0.11
0 -2 -14 0.26 0.14
0 2 14 0.23 0.13
0 2 14 0.4 0.1
-1 -2 -14 0.04 0.1
-1 -2 -14 0.01 0.11
1 2 14 -0.16 0.08
1 2 14 0.05 0.1
-2 -2 -14 0.07 0.09
2 2 14 0.19 0.11
2 2 14 0.04 0.11
-3 -2 -14 -0.08 0.08
3 2 14 0.28 0.11
3 2 14 0.02 0.11
-4 -2 -14 0.16 0.11
4 2 14 0.05 0.11
4 2 14 0.05 0.13
-5 -2 -14 -0.05 0.08
-5 -2 -14 0.03 0.11
5 2 14 -0.04 0.12
5 2 14 0.1 0.11
-6 -2 -14 0.02 0.08
-6 -2 -14 -0.22 0.09
6 2 14 0.11 0.14
-7 -2 -14 0.06 0.11
-7 -2 -14 0.17 0.11
7 2 14 0.11 0.14
3 -3 -14 -0.01 0.11
3 -3 -14 0.07 0.15
2 -3 -14 -0.1 0.09
2 -3 -14 0.23 0.16
-2 3 14 0.25 0.13
-2 3 14 -0.03 0.08
1 -3 -14 0.48 0.12
1 -3 -14 0.05 0.14
-1 3 14 0.23 0.09
0 -3 -14 1.01 0.16
0 -3 -14 1.01 0.19
0 3 14 0.73 0.17
0 3 14 0.95 0.13
-1 -3 -14 -0.11 0.09
-1 -3 -14 0.03 0.11
1 3 14 0.04 0.11
1 3 14 0.01 0.09
1 3 14 0.09 0.07
-2 -3 -14 0.15 0.12
-2 -3 -14 0.13 0.1
2 3 14 0.28 0.11
2 3 14 0.17 0.12
-3 -3 -14 0.05 0.11
3 3 14 0.03 0.11
3 3 14 0.18 0.1
-4 -3 -14 0.24 0.11
4 3 14 0.65 0.16
4 3 14 0.48 0.13
-5 -3 -14 -0.02 0.09
-5 -3 -14 -0.02 0.08
5 3 14 0 0.14
5 3 14 0.16 0.14
-6 -3 -14 0.08 0.1
-6 -3 -14 -0.08 0.09
6 3 14 0.05 0.13
-7 -3 -14 0.28 0.12
-7 -3 -14 0.01 0.1
7 3 14 0.39 0.19
3 -4 -14 -0.05 0.1
3 -4 -14 -0.1 0.15
2 -4 -14 0.17 0.11
2 -4 -14 -0.04 0.14
-2 4 14 -0.02 0.08
1 -4 -14 0.01 0.14
1 -4 -14 -0.06 0.1
-1 4 14 -0.14 0.1
-1 4 14 -0.14 0.07
0 -4 -14 0.27 0.13
0 -4 -14 0.2 0.11
0 4 14 0.08 0.08
-1 -4 -14 0.37 0.14
-1 -4 -14 0.37 0.11
1 4 14 0.26 0.09
1 4 14 0.5 0.14
1 4 14 0.44 0.11
-2 -4 -14 0.41 0.14
-2 -4 -14 0.26 0.12
2 4 14 0.36 0.12
2 4 14 0.25 0.12
-3 -4 -14 -0.07 0.09
-3 -4 -14 -0.03 0.11
3 4 14 -0.11 0.1
3 4 14 0.1 0.1
-4 -4 -14 0.05 0.08
4 4 14 0.05 0.12
4 4 14 -0.09 0.1
-5 -4 -14 0.38 0.11
-5 -4 -14 0.21 0.11
5 4 14 0.35 0.16
5 4 14 0.55 0.15
-6 -4 -14 0.34 0.11
-6 -4 -14 0.55 0.14
6 4 14 0.44 0.16
-7 -4 -14 0.12 0.11
-7 -4 -14 0.06 0.1
7 4 14 0.03 0.14
3 -5 -14 0.01 0.11
3 -5 -14 0.05 0.16
2 -5 -14 0.17 0.16
2 -5 -14 0.17 0.12
-2 5 14 0.17 0.08
1 -5 -14 0.11 0.14
1 -5 -14 0.15 0.11
-1 5 14 0.15 0.1
-1 5 14 0.25 0.13
0 -5 -14 0.12 0.11
0 -5 -14 0.08 0.14
0 5 14 0.17 0.11
0 5 14 0.24 0.09
-1 -5 -14 0.14 0.1
-1 -5 -14 0.17 0.13
1 5 14 0.05 0.1
1 5 14 -0.05 0.07
-2 -5 -14 0.08 0.11
-2 -5 -14 -0.11 0.1
2 5 14 -0.03 0.09
2 5 14 0.02 0.1
-3 -5 -14 0.16 0.11
-3 -5 -14 0.12 0.13
3 5 14 0.2 0.13
3 5 14 0.25 0.12
-4 -5 -14 -0.06 0.09
-4 -5 -14 0.01 0.12
4 5 14 0.07 0.11
4 5 14 0.01 0.12
-5 -5 -14 0.71 0.14
-5 -5 -14 0.69 0.14
5 5 14 0.55 0.17
5 5 14 0.51 0.15
-6 -5 -14 0.16 0.1
-6 -5 -14 0.06 0.09
6 5 14 -0.03 0.12
-7 -5 -14 -0.04 0.11
-7 -5 -14 0.24 0.12
7 5 14 0.37 0.16
2 -6 -14 -0.09 0.1
2 -6 -14 -0.11 0.15
-2 6 14 0.13 0.08
1 -6 -14 0.63 0.19
1 -6 -14 0.39 0.15
-1 6 14 0.54 0.12
0 -6 -14 -0.11 0.1
0 -6 -14 -0.08 0.12
0 6 14 0.03 0.11
0 6 14 0.12 0.09
-1 -6 -14 -0.08 0.1
-1 -6 -14 0.26 0.14
1 6 14 0 0.07
1 6 14 0.21 0.13
1 6 14 0.02 0.1
-2 -6 -14 0.03 0.09
-2 -6 -14 -0.03 0.12
2 6 14 0.08 0.11
2 6 14 0.18 0.11
-3 -6 -14 -0.08 0.1
-3 -6 -14 0.16 0.13
3 6 14 0.09 0.12
3 6 14 0.02 0.1
-4 -6 -14 0.13 0.12
-4 -6 -14 0.36 0.12
4 6 14 0.04 0.12
4 6 14 0.06 0.12
-5 -6 -14 0.11 0.1
-5 -6 -14 0.35 0.15
-5 -6 -14 0.37 0.12
5 6 14 0.31 0.13
5 6 14 0.13 0.14
-6 -6 -14 0.03 0.1
-6 -6 -14 0.1 0.1
6 6 14 0.28 0.15
2 -7 -14 0.12 0.13
2 -7 -14 0.42 0.2
-2 7 14 0.22 0.09
1 -7 -14 0.17 0.11
1 -7 -14 0.1 0.15
-1 7 14 -0.04 0.08
0 -7 -14 -0.01 0.13
0 -7 -14 0.07 0.11
0 7 14 -0.1 0.08
0 7 14 0.04 0.13
-1 -7 -14 0.23 0.11
-1 -7 -14 0.57 0.16
1 7 14 0.37 0.15
1 7 14 0.49 0.11
-2 -7 -14 0.11 0.1
-2 -7 -14 0.35 0.15
2 7 14 0.01 0.12
2 7 14 -0.01 0.11
-3 -7 -14 -0.07 0.12
-3 -7 -14 0.15 0.11
3 7 14 0.02 0.11
3 7 14 0.11 0.12
-4 -7 -14 0.06 0.1
-4 -7 -14 -0.17 0.12
4 7 14 0.17 0.13
4 7 14 0.08 0.12
-5 -7 -14 -0.01 0.09
-5 -7 -14 -0.1 0.09
-5 -7 -14 0 0.13
5 7 14 0.23 0.13
5 7 14 -0.09 0.11
-6 -7 -14 -0.09 0.13
-6 -7 -14 0.01 0.1
6 7 14 -0.06 0.13
6 7 14 0.06 0.14
1 -8 -14 -0.08 0.12
1 -8 -14 -0.06 0.15
-1 8 14 -0.06 0.09
0 -8 -14 0.28 0.17
0 -8 -14 0.09 0.12
0 8 14 0.27 0.11
-1 -8 -14 0.26 0.12
-1 -8 -14 0.34 0.17
1 8 14 0.3 0.12
-2 -8 -14 0.09 0.1
-2 -8 -14 0.12 0.15
2 8 14 -0.05 0.13
2 8 14 0.04 0.12
2 8 14 -0.04 0.07
-3 -8 -14 0.7 0.18
-3 -8 -14 1.01 0.17
3 8 14 0.74 0.16
3 8 14 0.4 0.17
-4 -8 -14 -0.14 0.14
4 8 14 -0.02 0.12
4 8 14 0.05 0.12
-5 -8 -14 0.42 0.17
5 8 14 0.3 0.13
5 8 14 0.19 0.14
0 -9 -14 0.14 0.16
0 -9 -14 0.17 0.13
0 9 14 -0.04 0.1
-1 -9 -14 0.19 0.17
-1 -9 -14 0.04 0.11
1 9 14 0.16 0.1
-2 -9 -14 -0.03 0.14
-2 -9 -14 0.01 0.11
2 9 14 0.24 0.11
2 9 14 -0.08 0.12
-3 -9 -14 -0.04 0.14
3 9 14 0.02 0.12
-4 -9 -14 -0.06 0.14
4 9 14 0.01 0.13
1 -2 15 -0.11 0.14
-2 2 -15 0.05 0.1
2 -2 15 0.03 0.13
2 -2 15 -0.24 0.12
3 -2 15 -0.09 0.14
-1 -1 15 -0.09 0.14
-1 -1 15 0 0.09
0 -1 15 0.08 0.15
-1 1 -15 0.2 0.1
1 -1 15 0.09 0.14
-2 1 -15 0.36 0.11
2 -1 15 0.26 0.17
2 -1 15 0.39 0.13
-3 1 -15 0.12 0.1
3 -1 15 -0.02 0.11
3 -1 15 0.12 0.14
-4 1 -15 0.07 0.11
4 -1 15 0.08 0.17
4 -1 15 0.03 0.11
1 0 -15 0.11 0.1
-1 0 15 0.05 0.09
-1 0 15 -0.12 0.13
0 0 -15 -0.03 0.1
0 0 15 0.15 0.14
-1 0 -15 0.45 0.14
1 0 15 0.44 0.16
-2 0 -15 -0.03 0.09
2 0 15 0.06 0.11
2 0 15 0.18 0.15
-3 0 -15 0.33 0.11
3 0 15 0.23 0.14
3 0 15 0.46 0.13
-4 0 -15 1.02 0.16
4 0 15 0.83 0.15
4 0 15 0.4 0.17
-5 0 -15 0.17 0.11
5 0 15 0.29 0.15
5 0 15 0.47 0.15
2 -1 -15 0.37 0.18
2 -1 -15 0.24 0.12
-2 1 15 0.12 0.09
1 -1 -15 0.06 0.16
1 -1 -15 0.07 0.12
-1 1 15 0.12 0.15
-1 1 15 0.08 0.09
0 -1 -15 -0.01 0.12
0 1 15 0 0.09
0 1 15 0.16 0.14
-1 -1 -15 0.18 0.12
1 1 15 0.1 0.14
-2 -1 -15 0.02 0.09
2 1 15 -0.21 0.11
2 1 15 0.15 0.11
-3 -1 -15 0.63 0.14
3 1 15 0.39 0.17
3 1 15 0.58 0.14
-4 -1 -15 -0.03 0.1
4 1 15 0.04 0.13
4 1 15 0.19 0.12
-5 -1 -15 0.43 0.13
5 1 15 0.54 0.19
5 1 15 0.69 0.16
-6 -1 -15 0.35 0.14
2 -2 -15 0.53 0.15
2 -2 -15 1.02 0.23
-2 2 15 0.52 0.11
1 -2 -15 0.88 0.16
1 -2 -15 0.83 0.2
-1 2 15 0.81 0.13
-1 2 15 1 0.2
0 -2 -15 1.32 0.19
0 -2 -15 1.51 0.24
0 2 15 1.07 0.2
0 2 15 1.59 0.16
-1 -2 -15 -0.01 0.1
1 2 15 -0.09 0.12
1 2 15 0.06 0.09
-2 -2 -15 0.15 0.11
2 2 15 -0.02 0.11
2 2 15 -0.03 0.12
-3 -2 -15 0.04 0.09
3 2 15 0.09 0.11
3 2 15 0.09 0.13
-4 -2 -15 0.06 0.09
4 2 15 0.29 0.13
4 2 15 -0.03 0.13
-5 -2 -15 0.12 0.11
-5 -2 -15 0.45 0.12
5 2 15 0.67 0.19
5 2 15 0.34 0.14
-6 -2 -15 0.1 0.14
-6 -2 -15 0.06 0.11
-6 -2 -15 0.14 0.12
6 2 15 0.34 0.12
6 2 15 0.2 0.16
2 -3 -15 0.58 0.14
2 -3 -15 0.77 0.21
-2 3 15 0.63 0.11
1 -3 -15 -0.03 0.11
1 -3 -15 -0.07 0.14
-1 3 15 0.04 0.09
0 -3 -15 3.77 0.33
0 -3 -15 3.48 0.26
0 3 15 3.09 0.27
0 3 15 3.18 0.22
-1 -3 -15 1.29 0.19
-1 -3 -15 0.97 0.2
1 3 15 1.08 0.15
1 3 15 0.89 0.19
-2 -3 -15 2.87 0.24
2 3 15 3.36 0.25
2 3 15 2.32 0.25
-3 -3 -15 0.18 0.12
3 3 15 0.26 0.12
3 3 15 0.29 0.15
-4 -3 -15 0.26 0.12
4 3 15 0.36 0.16
4 3 15 0.28 0.13
-5 -3 -15 0 0.09
-5 -3 -15 -0.09 0.09
5 3 15 0.17 0.13
5 3 15 0.04 0.14
-6 -3 -15 0.01 0.09
-6 -3 -15 0.05 0.11
6 3 15 0.19 0.13
6 3 15 0.15 0.16
2 -4 -15 0.16 0.11
2 -4 -15 0.25 0.17
-2 4 15 0.01 0.07
1 -4 -15 0.02 0.11
1 -4 -15 0.35 0.17
-1 4 15 0.15 0.1
0 -4 -15 1.3 0.19
0 -4 -15 1.43 0.23
0 4 15 0.97 0.15
-1 -4 -15 -0.02 0.13
-1 -4 -15 0.32 0.12
1 4 15 0.22 0.1
1 4 15 0.28 0.14
-2 -4 -15 3.91 0.31
-2 -4 -15 3.77 0.27
2 4 15 3.33 0.28
2 4 15 4.12 0.28
-3 -4 -15 0.3 0.15
-3 -4 -15 0.12 0.12
3 4 15 0.45 0.14
3 4 15 0.43 0.16
-4 -4 -15 3.96 0.27
4 4 15 4.41 0.31
4 4 15 3.25 0.3
-5 -4 -15 0.33 0.11
-5 -4 -15 0.35 0.12
5 4 15 0.34 0.14
5 4 15 0.57 0.16
-6 -4 -15 0.18 0.11
-6 -4 -15 0.21 0.12
6 4 15 0.22 0.17
6 4 15 0.23 0.13
2 -5 -15 0.09 0.17
2 -5 -15 0.18 0.12
-2 5 15 0.01 0.08
1 -5 -15 0.09 0.14
1 -5 -15 0.05 0.11
-1 5 15 0.04 0.09
0 -5 -15 0.31 0.15
0 -5 -15 -0.01 0.11
0 5 15 -0.06 0.08
-1 -5 -15 -0.05 0.1
-1 -5 -15 0.08 0.13
1 5 15 -0.08 0.08
-2 -5 -15 0.68 0.17
-2 -5 -15 0.75 0.16
2 5 15 0.7 0.17
2 5 15 0.94 0.15
2 5 15 0.68 0.13
-3 -5 -15 -0.04 0.1
-3 -5 -15 0.11 0.13
3 5 15 0.18 0.12
3 5 15 0.04 0.11
-4 -5 -15 2.52 0.22
-4 -5 -15 2.98 0.28
4 5 15 2.05 0.24
4 5 15 2.89 0.3
-5 -5 -15 0.33 0.12
-5 -5 -15 0.43 0.12
5 5 15 0.45 0.16
5 5 15 0.46 0.16
-6 -5 -15 1.04 0.17
-6 -5 -15 0.95 0.17
6 5 15 0.8 0.2
6 5 15 1.67 0.25
1 -6 -15 0.71 0.15
1 -6 -15 1.06 0.23
-1 6 15 1.05 0.15
0 -6 -15 -0.01 0.1
0 -6 -15 0.09 0.13
0 6 15 0.14 0.1
-1 -6 -15 -0.15 0.1
-1 -6 -15 0.13 0.14
1 6 15 0 0.07
-2 -6 -15 -0.06 0.12
-2 -6 -15 0.02 0.1
2 6 15 -0.05 0.11
2 6 15 -0.02 0.07
-3 -6 -15 0.03 0.11
-3 -6 -15 -0.07 0.12
3 6 15 -0.04 0.12
3 6 15 0.05 0.12
-4 -6 -15 0.06 0.1
-4 -6 -15 -0.1 0.11
4 6 15 0.12 0.13
4 6 15 0.13 0.14
-5 -6 -15 0.02 0.1
-5 -6 -15 -0.04 0.13
5 6 15 0.2 0.14
5 6 15 0.14 0.14
-6 -6 -15 1 0.18
-6 -6 -15 1.04 0.18
6 6 15 1.22 0.21
6 6 15 0.56 0.18
1 -7 -15 3.53 0.35
-1 7 15 3.07 0.22
0 -7 -15 0.07 0.12
0 -7 -15 0.11 0.14
0 7 15 0.09 0.1
-1 -7 -15 0.8 0.16
-1 -7 -15 0.62 0.18
1 7 15 0.66 0.13
-2 -7 -15 0.14 0.11
-2 -7 -15 0.23 0.14
2 7 15 0.09 0.08
2 7 15 0.1 0.12
-3 -7 -15 0.08 0.12
-3 -7 -15 0.1 0.12
3 7 15 -0.08 0.11
3 7 15 -0.05 0.12
-4 -7 -15 0.16 0.15
-4 -7 -15 -0.05 0.1
4 7 15 -0.03 0.12
4 7 15 0.01 0.13
-5 -7 -15 -0.14 0.14
-5 -7 -15 0 0.1
5 7 15 0.24 0.14
5 7 15 0 0.13
0 -8 -15 0.01 0.15
0 8 15 0.18 0.11
-1 -8 -15 0.66 0.15
-1 -8 -15 0.84 0.2
1 8 15 0.41 0.12
-2 -8 -15 0.01 0.15
-2 -8 -15 0.16 0.12
2 8 15 0.16 0.13
2 8 15 0.01 0.08
-3 -8 -15 0.63 0.19
-3 -8 -15 0.52 0.14
3 8 15 0.44 0.15
-4 -8 -15 0.22 0.12
-4 -8 -15 -0.03 0.14
4 8 15 -0.04 0.13
4 8 15 0 0.12
-1 0 -16 0.04 0.1
1 0 16 0.08 0.14
-2 0 -16 -0.02 0.1
2 0 16 0.12 0.13
2 0 16 -0.06 0.12
-3 0 -16 0.02 0.1
3 0 16 -0.02 0.12
3 0 16 0.11 0.17
0 -1 -16 0.25 0.13
0 1 16 0.01 0.09
0 1 16 0.08 0.15
-1 -1 -16 -0.02 0.11
1 1 16 -0.07 0.14
-2 -1 -16 0.3 0.11
2 1 16 0.48 0.17
2 1 16 0.06 0.12
-3 -1 -16 -0.03 0.1
3 1 16 0.22 0.13
3 1 16 -0.17 0.13
-4 -1 -16 0.16 0.11
4 1 16 0.15 0.14
4 1 16 0.25 0.13
-1 2 16 0.23 0.1
0 -2 -16 0.18 0.13
0 -2 -16 -0.16 0.14
0 2 16 -0.11 0.1
0 2 16 0.1 0.15
-1 -2 -16 0.1 0.11
1 2 16 0.12 0.1
1 2 16 0.04 0.14
-2 -2 -16 -0.13 0.1
2 2 16 0.12 0.14
2 2 16 0.07 0.12
-3 -2 -16 0.16 0.11
3 2 16 0.1 0.15
3 2 16 0.13 0.13
-4 -2 -16 0.28 0.11
4 2 16 0.2 0.16
4 2 16 0.38 0.13
-5 -2 -16 -0.04 0.11
5 2 16 -0.09 0.12
5 2 16 0 0.14
1 -3 -16 -0.08 0.15
-1 3 16 0.08 0.09
0 -3 -16 -0.25 0.1
0 -3 -16 0.26 0.16
0 3 16 -0.06 0.09
0 3 16 -0.01 0.14
-1 -3 -16 0.06 0.11
-1 -3 -16 -0.1 0.14
1 3 16 0.04 0.09
1 3 16 -0.01 0.14
-2 -3 -16 0.57 0.14
2 3 16 0.32 0.16
2 3 16 0.57 0.14
2 3 16 0.32 0.11
-3 -3 -16 0.02 0.09
3 3 16 0.09 0.14
3 3 16 0.03 0.12
-4 -3 -16 -0.03 0.09
4 3 16 0.15 0.15
4 3 16 0.1 0.12
-5 -3 -16 -0.1 0.09
5 3 16 -0.12 0.12
5 3 16 -0.08 0.14
1 -4 -16 -0.07 0.14
-1 4 16 -0.22 0.09
0 -4 -16 0.18 0.13
0 -4 -16 0.25 0.16
0 4 16 0.07 0.1
-1 -4 -16 0.16 0.12
-1 -4 -16 0.04 0.13
1 4 16 0.13 0.14
1 4 16 -0.03 0.09
-2 -4 -16 0.34 0.12
-2 -4 -16 0.42 0.16
2 4 16 0.32 0.14
2 4 16 0.25 0.15
2 4 16 0.4 0.11
-3 -4 -16 0.18 0.12
3 4 16 0.21 0.14
3 4 16 0 0.12
-4 -4 -16 0.76 0.15
4 4 16 0.54 0.18
4 4 16 0.58 0.14
-5 -4 -16 0.27 0.12
5 4 16 0.29 0.14
5 4 16 0.15 0.15
0 -5 -16 0.06 0.15
0 -5 -16 0 0.11
0 5 16 0 0.09
-1 -5 -16 0.34 0.16
-1 -5 -16 0.23 0.12
1 5 16 0.08 0.1
-2 -5 -16 -0.06 0.11
-2 -5 -16 0.08 0.12
2 5 16 0.12 0.09
2 5 16 0.19 0.14
2 5 16 -0.03 0.11
-3 -5 -16 -0.07 0.13
-3 -5 -16 0.08 0.11
3 5 16 0.17 0.14
3 5 16 0.12 0.13
-4 -5 -16 0.73 0.15
4 5 16 0.83 0.16
4 5 16 0.72 0.18
-5 -5 -16 0.5 0.14
5 5 16 0.1 0.14
5 5 16 0.38 0.16
0 -6 -16 -0.09 0.14
0 -6 -16 0.23 0.15
0 6 16 0.33 0.12
-1 -6 -16 0.08 0.15
-1 -6 -16 0.11 0.12
1 6 16 0.11 0.1
-2 -6 -16 0.08 0.11
-2 -6 -16 -0.08 0.14
2 6 16 0.11 0.08
2 6 16 -0.06 0.12
-3 -6 -16 0.06 0.14
-3 -6 -16 -0.03 0.11
3 6 16 -0.02 0.12
3 6 16 -0.03 0.11
-4 -6 -16 0.17 0.13
-4 -6 -16 -0.04 0.13
4 6 16 0.12 0.14
4 6 16 0.1 0.12
-1 -7 -16 4.34 0.38
-1 -7 -16 3.25 0.27
1 7 16 4.01 0.26
-2 -7 -16 0.64 0.19
-2 -7 -16 0.35 0.14
2 7 16 0.28 0.11
2 7 16 0.53 0.15
-3 -7 -16 0.81 0.2
-3 -7 -16 0.31 0.14
3 7 16 0.53 0.15
-4 -7 -16 -0.03 0.12
-4 -7 -16 0.04 0.14
4 7 16 -0.07 0.13
4 7 16 0.1 0.14
2 3 17 0.01 0.11
2 3 17 0.18 0.14
2 4 17 0.23 0.12
2 4 17 0.15 0.13
2 4 17 0.02 0.14
3 4 17 0.59 0.18
