#------------------------------------------------------------------------------
#$Date: 2017-12-11 01:28:22 +0200 (Mon, 11 Dec 2017) $
#$Revision: 204147 $
#$URL: file:///home/coder/svn-repositories/cod/cif/4/12/35/4123577.cif $
#------------------------------------------------------------------------------
#
# This file is available in the Crystallography Open Database (COD),
# http://www.crystallography.net/
#
# All data on this site have been placed in the public domain by the
# contributors.
#
data_4123577
loop_
_publ_author_name
'Masarwa, Ahmad'
'Weber, Manuel'
'Sarpong, Richmond'
_publ_section_title
;
 Selective C-C and C-h bond activation/cleavage of pinene derivatives:
 synthesis of enantiopure cyclohexenone scaffolds and mechanistic
 insights.
;
_journal_issue                   19
_journal_name_full               'Journal of the American Chemical Society'
_journal_page_first              6327
_journal_page_last               6334
_journal_paper_doi               10.1021/jacs.5b02254
_journal_volume                  137
_journal_year                    2015
_chemical_absolute_configuration ad
_chemical_formula_sum            'C10 H14 O2'
_chemical_formula_weight         166.21
_chemical_name_common            AM-II-21
_chemical_name_systematic        sarpong101
_space_group.centring_type       P
_space_group_crystal_system      monoclinic
_space_group_IT_number           4
_space_group_name_Hall           'P 2yb'
_space_group_name_H-M_alt        'P 1 21 1'
_symmetry_space_group_name_Hall  'P 2yb'
_symmetry_space_group_name_H-M   'P 1 21 1'
_atom_sites_solution_hydrogens   geom
_atom_sites_solution_primary     iterative
_atom_sites_solution_secondary   difmap
_audit_creation_method           SHELXL-2014/7
_cell_angle_alpha                90
_cell_angle_beta                 100.1330(10)
_cell_angle_gamma                90
_cell_formula_units_Z            2
_cell_length_a                   7.2838(3)
_cell_length_b                   7.0680(3)
_cell_length_c                   8.6698(3)
_cell_measurement_reflns_used    8827
_cell_measurement_temperature    100(2)
_cell_measurement_theta_max      68.37
_cell_measurement_theta_min      5.18
_cell_volume                     439.38(3)
_computing_cell_refinement       'Bruker SAINT'
_computing_data_collection       'Bruker APEX2'
_computing_data_reduction        'Bruker SAINT'
_computing_molecular_graphics    ORTEP-32
_computing_publication_material  WinGX
_computing_structure_refinement  SHELXL-2014
_computing_structure_solution    SHELXT
_diffrn_ambient_temperature      100(2)
_diffrn_detector_area_resol_mean 8.366
_diffrn_measured_fraction_theta_full 1.000
_diffrn_measured_fraction_theta_max 0.999
_diffrn_measurement_device_type  'Bruker APEX-II CCD'
_diffrn_measurement_method       'phi and omega scans'
_diffrn_radiation_type           CuK\a
_diffrn_radiation_wavelength     1.54178
_diffrn_reflns_av_R_equivalents  0.0286
_diffrn_reflns_av_unetI/netI     0.0120
_diffrn_reflns_Laue_measured_fraction_full 1.000
_diffrn_reflns_Laue_measured_fraction_max 0.999
_diffrn_refln_scan_rate          5
_diffrn_refln_scan_width         2.0
_diffrn_reflns_limit_h_max       8
_diffrn_reflns_limit_h_min       -8
_diffrn_reflns_limit_k_max       8
_diffrn_reflns_limit_k_min       -8
_diffrn_reflns_limit_l_max       10
_diffrn_reflns_limit_l_min       -10
_diffrn_reflns_number            19010
_diffrn_reflns_point_group_measured_fraction_full 0.993
_diffrn_reflns_point_group_measured_fraction_max 0.990
_diffrn_reflns_theta_full        67.000
_diffrn_reflns_theta_max         68.362
_diffrn_reflns_theta_min         5.182
_diffrn_source                   'microfocus rotating anode'
_exptl_absorpt_coefficient_mu    0.690
_exptl_absorpt_correction_T_max  0.929
_exptl_absorpt_correction_T_min  0.864
_exptl_absorpt_correction_type   multi-scan
_exptl_absorpt_process_details   SADABS
_exptl_crystal_colour            colorless
_exptl_crystal_density_diffrn    1.256
_exptl_crystal_description       prism
_exptl_crystal_F_000             180
_exptl_crystal_size_max          0.070
_exptl_crystal_size_mid          0.060
_exptl_crystal_size_min          0.050
_refine_diff_density_max         0.147
_refine_diff_density_min         -0.156
_refine_diff_density_rms         0.032
_refine_ls_abs_structure_details
; 
 Flack x determined using 721 quotients [(I+)-(I-)]/[(I+)+(I-)] 
 (Parsons, Flack and Wagner, Acta Cryst. B69 (2013) 249-259). 
;
_refine_ls_abs_structure_Flack   0.07(3)
_refine_ls_extinction_method     none
_refine_ls_goodness_of_fit_ref   1.097
_refine_ls_hydrogen_treatment    constr
_refine_ls_matrix_type           full
_refine_ls_number_parameters     111
_refine_ls_number_reflns         1603
_refine_ls_number_restraints     1
_refine_ls_restrained_S_all      1.096
_refine_ls_R_factor_all          0.0255
_refine_ls_R_factor_gt           0.0254
_refine_ls_shift/su_max          0.000
_refine_ls_shift/su_mean         0.000
_refine_ls_structure_factor_coef Fsqd
_refine_ls_weighting_details
'w=1/[\s^2^(Fo^2^)+(0.0340P)^2^+0.0802P] where P=(Fo^2^+2Fc^2^)/3'
_refine_ls_weighting_scheme      calc
_refine_ls_wR_factor_gt          0.0646
_refine_ls_wR_factor_ref         0.0646
_reflns_Friedel_coverage         0.824
_reflns_Friedel_fraction_full    0.985
_reflns_Friedel_fraction_max     0.980
_reflns_number_gt                1601
_reflns_number_total             1603
_reflns_threshold_expression     'I > 2\s(I)'
_cod_data_source_file            ja5b02254_si_001.cif
_cod_data_source_block           sarpong101
_cod_depositor_comments
;Adding full bibliography for 4123577--4123669.cif.

The following automatic conversions were performed:

'_space_group.centring_type' value 'primitive' was replaced with the
value 'P' as specified in the replacement file
'/home/antanas/src/cod-tools/trunk/data/replacement-values/replacement_values.lst'.

Automatic conversion script
Id: cif_fix_values 5642 2017-10-24 12:04:52Z antanas 
;
_cod_database_code               4123577
#BEGIN Tags that were not found in dictionaries:
_shelx_shelxl_version_number     2014/7
_shelx_space_group_comment
; 
The symmetry employed for this shelxl refinement is uniquely defined 
by the following loop, which should always be used as a source of 
symmetry information in preference to the above space-group names. 
They are only intended as comments. 
;
_shelx_estimated_absorpt_t_min   0.953
_shelx_estimated_absorpt_t_max   0.966
_shelx_res_file
; 
  
    shelx.res created by SHELXL-2014/7 
  
TITL shelxt_a.res in P2(1) 
CELL  1.54178   7.2838   7.0680   8.6698   90.000  100.133   90.000 
ZERR     2.00   0.0003   0.0003   0.0003    0.000    0.001    0.000 
LATT  -1 
SYMM  - X, 1/2 + Y, - Z 
SFAC  C    H    O 
UNIT  20 28 4 
MERG   2 
FMAP   2 
PLAN   20 
SIZE     0.050   0.060   0.070 
ACTA   134.00 
BOND   $H 
LIST   4 
WPDB  -2 
L.S.  10 
TEMP  -173.00 
WGHT    0.034000    0.080200 
FVAR       0.69995 
C1    1    0.202337    0.391509    0.276862    11.00000    0.01673    0.01720 = 
         0.01572    0.00109    0.00311   -0.00023 
C2    1    0.237782    0.511807    0.424323    11.00000    0.01358    0.02261 = 
         0.01671   -0.00251    0.00351   -0.00075 
C3    1    0.223676    0.695428    0.391794    11.00000    0.02098    0.02136 = 
         0.02151   -0.00246    0.00657    0.00035 
AFIX  43 
H3    2    0.240993    0.791301    0.469804    11.00000   -1.20000 
AFIX   0 
C4    1    0.177565    0.736305    0.219172    11.00000    0.03251    0.01858 = 
         0.02327    0.00169    0.00902    0.00652 
AFIX  23 
H4A   2    0.273674    0.818317    0.185931    11.00000   -1.20000 
H4B   2    0.054648    0.799159    0.192080    11.00000   -1.20000 
AFIX   0 
C5    1    0.174360    0.539178    0.141078    11.00000    0.01801    0.01919 = 
         0.01686    0.00137    0.00213    0.00190 
AFIX  13 
H5    2    0.049310    0.518777    0.074308    11.00000   -1.20000 
AFIX   0 
C6    1    0.325939    0.518589    0.038753    11.00000    0.02581    0.01874 = 
         0.01540    0.00169    0.00568    0.00211 
AFIX  23 
H6A   2    0.298657    0.405661   -0.028954    11.00000   -1.20000 
H6B   2    0.322715    0.630728   -0.030092    11.00000   -1.20000 
AFIX   0 
C7    1    0.517826    0.499621    0.135339    11.00000    0.02394    0.01753 = 
         0.01962    0.00032    0.00980    0.00272 
C8    1    0.368688    0.263886    0.264970    11.00000    0.02068    0.01657 = 
         0.01964    0.00214    0.00699    0.00025 
AFIX  23 
H8A   2    0.394352    0.181365    0.358556    11.00000   -1.20000 
H8B   2    0.337370    0.181731    0.171557    11.00000   -1.20000 
AFIX   0 
C9    1    0.031793    0.263318    0.272201    11.00000    0.01973    0.02330 = 
         0.02227   -0.00142    0.00336   -0.00432 
AFIX 137 
H9A   2    0.054415    0.174646    0.360406    11.00000   -1.50000 
H9B   2    0.009689    0.192411    0.173533    11.00000   -1.50000 
H9C   2   -0.077799    0.340912    0.279683    11.00000   -1.50000 
AFIX   0 
C10   1    0.278291    0.422591    0.583497    11.00000    0.02341    0.02757 = 
         0.01636    0.00026    0.00305    0.00027 
AFIX 137 
H10A  2    0.291171    0.521520    0.663881    11.00000   -1.50000 
H10B  2    0.394519    0.350084    0.594106    11.00000   -1.50000 
H10C  2    0.175671    0.337826    0.596596    11.00000   -1.50000 
AFIX   0 
O1    3    0.534525    0.372959    0.253436    11.00000    0.01765    0.02200 = 
         0.02204    0.00469    0.00666    0.00254 
O2    3    0.654605    0.585101    0.114588    11.00000    0.02484    0.02902 = 
         0.03658    0.00881    0.01159   -0.00003 
HKLF    4 
  
REM  shelxt_a.res in P2(1) 
REM R1 =  0.0254 for    1601 Fo > 4sig(Fo)  and  0.0255 for all    1603 data 
REM    111 parameters refined using      1 restraints 
  
END 
  
WGHT      0.0342      0.0801 
  
REM Highest difference peak  0.147,  deepest hole -0.156,  1-sigma level  0.032 
Q1    1   0.2535  0.5341  0.0959  11.00000  0.05    0.15 
Q2    1   0.2281  0.4350  0.3574  11.00000  0.05    0.13 
Q3    1   0.2815  0.3308  0.2625  11.00000  0.05    0.13 
Q4    1   0.1820  0.6354  0.1799  11.00000  0.05    0.13 
Q5    1   0.1820  0.4591  0.2060  11.00000  0.05    0.12 
Q6    1   0.2113  0.7297  0.3024  11.00000  0.05    0.11 
Q7    1   0.3028  0.5001  0.7994  11.00000  0.05    0.10 
Q8    1   0.1720  0.6055  0.4163  11.00000  0.05    0.10 
Q9    1  -0.0911  0.8306  0.1659  11.00000  0.05    0.09 
Q10   1   0.1250  0.3296  0.2683  11.00000  0.05    0.09 
Q11   1   0.4113  0.5290  0.0963  11.00000  0.05    0.08 
Q12   1   0.2605  0.4720  0.5028  11.00000  0.05    0.08 
Q13   1   0.1739  0.0422  0.1866  11.00000  0.05    0.08 
Q14   1   0.6606  0.5684  0.0012  11.00000  0.05    0.08 
Q15   1   0.4445  0.1989  0.3590  11.00000  0.05    0.08 
Q16   1   0.2498  0.1622  0.0751  11.00000  0.05    0.08 
Q17   1   0.2573  0.6336  0.7316  11.00000  0.05    0.08 
Q18   1   0.3405  0.7909 -0.0602  11.00000  0.05    0.08 
Q19   1   0.6366  0.6683  0.0187  11.00000  0.05    0.08 
Q20   1   0.4423  0.1585  0.0815  11.00000  0.05    0.07 
;
_shelx_res_checksum              42144
_shelx_hkl_file
; 
   1   0   0  167.64    5.71 
   1   0   0  169.53    5.75 
   1   0   0  171.43    5.74 
   1   0   0  169.23    5.75 
   1   0   0  165.73    5.68 
   1   0   0  164.10    5.74 
  -1   0   0  156.56    5.71 
  -1   0   0  164.02    5.68 
   1   0   0  167.43    5.71 
   1   0   0  163.42    5.71 
   1   0   0  161.86    5.71 
  -1   0   0  171.77    5.74 
  -1   0   0  163.94    5.74 
  -1   0   0  160.22    5.71 
  -1   0   0  165.00    5.71 
  -1   0   0  163.41    5.70 
  -1   0   0  161.32    5.70 
   2   0   0  325.73   11.61 
   2   0   0  335.38   11.65 
   2   0   0  347.64   11.72 
  -2   0   0  330.66   11.64 
  -2   0   0  320.81   11.62 
  -2   0   0  334.00   11.63 
  -2   0   0  345.62   11.69 
  -2   0   0  319.83   11.68 
  -2   0   0  342.03   11.71 
  -2   0   0  336.34   11.65 
  -2   0   0  321.85   11.64 
  -2   0   0  342.56   11.58 
   2   0   0  345.76   11.74 
   2   0   0  333.34   11.65 
   2   0   0  353.99   11.73 
   2   0   0  338.10   11.59 
   2   0   0  349.11   11.77 
  -3   0   0    0.32    0.12 
   3   0   0    0.27    0.09 
   3   0   0    0.16    0.08 
   3   0   0    0.29    0.15 
  -3   0   0    0.47    0.13 
   3   0   0    0.10    0.09 
   3   0   0    0.20    0.07 
   3   0   0    0.22    0.13 
  -3   0   0    0.19    0.16 
   4   0   0   76.59    2.87 
  -4   0   0   79.98    2.77 
   4   0   0   79.31    2.80 
  -4   0   0   78.26    2.77 
   4   0   0   77.65    3.14 
  -4   0   0   80.14    2.79 
   4   0   0   79.30    2.83 
  -4   0   0   79.42    2.83 
  -4   0   0   78.57    2.83 
  -4   0   0   78.54    3.24 
  -4   0   0   84.85    2.95 
   4   0   0   73.52    2.91 
   4   0   0   78.06    2.88 
   4   0   0   79.49    2.89 
   4   0   0   76.02    2.79 
   5   0   0   13.99    0.61 
   5   0   0   13.80    0.65 
  -5   0   0   13.81    0.75 
   5   0   0   13.41    0.65 
  -5   0   0   13.61    0.57 
  -5   0   0   13.21    0.60 
   5   0   0   13.50    0.60 
   5   0   0   12.72    0.69 
  -5   0   0   11.99    0.60 
  -5   0   0   13.79    0.56 
   5   0   0   13.87    0.70 
   5   0   0   13.44    0.70 
   5   0   0   13.04    0.93 
   5   0   0   14.58    0.69 
  -5   0   0   13.44    0.92 
  -6   0   0   57.98    2.17 
   6   0   0   57.61    2.21 
   6   0   0   54.14    2.32 
   6   0   0   59.04    2.31 
   6   0   0   61.56    2.31 
  -6   0   0   58.74    2.11 
   6   0   0   62.13    2.25 
  -6   0   0   56.00    2.38 
   6   0   0   56.91    2.17 
  -7   0   0   45.51    1.60 
   7   0   0   50.96    1.79 
   7   0   0   47.01    1.79 
  -7   0   0   45.77    1.70 
  -7   0   0   45.08    1.76 
  -7   0   0   44.34    1.64 
  -7   0   0   42.44    1.71 
  -7   0   0   43.40    1.63 
  -7   0   0   45.88    1.63 
  -7   0   0   44.09    1.62 
   7   0   0   43.20    1.66 
  -7   0   0   43.51    1.65 
  -7   0   0   42.97    1.64 
  -7   0   0   45.53    1.67 
   7   0   0   47.87    1.67 
  -7   0   0   44.90    1.71 
  -7   0   0   43.47    1.69 
  -7   0   0   42.85    1.61 
  -8   0   0    0.41    0.09 
  -8   0   0    0.42    0.10 
  -8   0   0    0.44    0.09 
  -8   0   0    0.52    0.13 
   8   0   0    0.38    0.12 
  -8   0   0    0.50    0.15 
  -8   0   0    0.40    0.14 
  -8   0   0    0.38    0.13 
  -8   0   0    0.22    0.07 
  -8   0   0    0.53    0.11 
  -8   0   0    0.45    0.13 
   8   0   0    0.45    0.16 
   8   0   0    0.45    0.12 
   0  -1   0    0.03    0.02 
   0  -1   0    0.03    0.03 
   0  -1   0    0.10    0.05 
   0  -1   0    0.03    0.03 
   0  -1   0    0.00    0.02 
   0  -1   0    0.18    0.04 
   0  -1   0    0.07    0.03 
   0   1   0    0.02    0.02 
   0   1   0    0.07    0.03 
   0   1   0    0.02    0.02 
   0   1   0    0.14    0.16 
   0   1   0    0.03    0.06 
   0   1   0    0.04    0.03 
   0   1   0   -0.01    0.02 
   0   1   0    0.02    0.02 
  -1  -1   0  656.16   22.45 
   1  -1   0  666.14   22.41 
  -1  -1   0  666.59   22.48 
  -1  -1   0  661.06   22.44 
  -1  -1   0  649.22   22.50 
   1  -1   0  660.70   22.43 
   1  -1   0  623.77   22.39 
   1  -1   0  657.33   22.37 
  -1  -1   0  684.54   22.44 
   1  -1   0  632.36   22.37 
  -1  -1   0  655.91   22.49 
  -1  -1   0  625.11   22.43 
  -1  -1   0  654.23   22.40 
  -1   1   0  650.06   22.59 
   1   1   0  624.07   22.43 
  -1   1   0  655.07   22.71 
   1   1   0  662.89   22.50 
   1   1   0  636.68   22.44 
   1   1   0  666.06   22.48 
   1   1   0  651.37   22.52 
   1   1   0  646.05   22.48 
   1   1   0  635.87   22.44 
   1   1   0  685.64   23.32 
   1   1   0  646.36   22.44 
   1   1   0  653.23   22.40 
   2  -1   0  293.94   10.23 
  -2  -1   0  293.34   10.37 
  -2  -1   0  288.26   10.40 
   2  -1   0  291.60   10.23 
   2  -1   0  300.21   10.18 
   2  -1   0  291.16   10.27 
   2  -1   0  304.02   10.19 
  -2  -1   0  293.83   10.28 
   2  -1   0  312.99   10.25 
  -2  -1   0  293.41   10.22 
   2  -1   0  319.88   10.28 
  -2  -1   0  295.64   10.28 
  -2  -1   0  288.71   10.20 
   2   1   0  271.80   10.37 
  -2   1   0  299.66   10.25 
   2   1   0  279.51   10.28 
   2   1   0  297.43   10.37 
   2   1   0  306.46   10.21 
   2   1   0  288.02   10.38 
  -2   1   0  299.73   10.20 
   2   1   0  301.43   10.29 
  -3  -1   0  393.89   12.88 
   3  -1   0  351.48   12.94 
   3  -1   0  364.19   12.75 
   3  -1   0  360.31   12.93 
  -3  -1   0  353.59   12.79 
   3  -1   0  362.75   12.79 
   3  -1   0  377.20   12.84 
  -3  -1   0  349.62   13.01 
   3  -1   0  380.71   12.78 
   3  -1   0  381.56   12.76 
   3   1   0  387.70   12.92 
  -3   1   0  373.54   12.82 
   3   1   0  390.67   13.08 
  -3   1   0  380.99   12.90 
   3   1   0  365.18   12.83 
   3   1   0  360.84   12.79 
   3   1   0  355.08   12.82 
   4  -1   0  127.35    4.54 
   4  -1   0  125.71    4.27 
   4  -1   0  116.77    4.22 
   4  -1   0  111.83    4.49 
   4  -1   0  116.29    4.20 
  -4  -1   0  124.69    4.38 
   4  -1   0  119.13    4.19 
  -4  -1   0  116.94    4.18 
  -4  -1   0  119.99    4.23 
   4  -1   0  122.28    4.29 
  -4  -1   0  118.54    4.21 
   4  -1   0  118.09    4.22 
   4  -1   0  117.79    4.26 
  -4  -1   0  120.84    4.18 
  -4  -1   0  119.41    4.27 
   4   1   0  123.88    4.31 
  -4   1   0  126.73    4.31 
   4   1   0  115.76    4.29 
   4   1   0  125.84    4.65 
  -4   1   0  120.05    4.32 
   4   1   0  125.42    4.27 
   4   1   0  119.35    4.32 
  -4   1   0  117.15    4.16 
   4   1   0  110.65    4.25 
  -4   1   0  115.92    4.19 
   4   1   0  119.68    4.23 
   4   1   0  117.09    4.21 
  -4   1   0  114.29    4.17 
   4   1   0  123.88    4.32 
   5  -1   0   14.82    0.77 
  -5  -1   0   16.15    0.68 
  -5  -1   0   17.56    0.66 
   5  -1   0   16.06    0.69 
  -5  -1   0   17.16    0.72 
  -5  -1   0   15.93    0.87 
   5  -1   0   16.24    0.76 
   5  -1   0   16.03    0.69 
   5  -1   0   14.75    0.99 
  -5  -1   0   16.58    0.76 
   5  -1   0   16.13    0.73 
   5  -1   0   16.25    0.73 
   5  -1   0   17.22    0.80 
   5   1   0   15.13    0.81 
   5   1   0   16.34    0.80 
  -5   1   0   16.38    0.83 
  -5   1   0   16.35    0.69 
   5   1   0   16.09    1.09 
  -5   1   0   16.98    0.66 
  -5   1   0   16.42    0.69 
  -5   1   0   16.31    0.67 
   5   1   0   16.86    0.81 
  -5   1   0   16.05    0.62 
   5   1   0   16.61    0.76 
   5   1   0   16.53    0.81 
  -6  -1   0   42.26    1.45 
  -6  -1   0   38.33    1.47 
  -6  -1   0   38.54    1.53 
   6  -1   0   38.82    1.49 
   6  -1   0   36.81    1.61 
   6  -1   0   38.53    1.57 
   6  -1   0   39.22    1.54 
   6  -1   0   36.04    1.60 
   6  -1   0   37.04    1.54 
  -6   1   0   40.58    1.35 
   6   1   0   37.20    1.66 
   6   1   0   39.52    1.57 
  -6   1   0   38.34    1.42 
   6   1   0   36.75    1.61 
   6   1   0   38.45    1.64 
  -6   1   0   33.04    1.63 
  -6   1   0   38.15    1.35 
  -6   1   0   38.89    1.48 
   6   1   0   38.36    1.53 
  -6   1   0   39.13    1.46 
  -6   1   0   39.08    1.46 
   6   1   0   39.01    1.53 
  -7  -1   0    4.66    0.96 
  -7  -1   0    4.71    0.34 
   7  -1   0    4.34    0.33 
  -7  -1   0    4.34    0.22 
  -7  -1   0    4.29    0.29 
   7  -1   0    3.78    0.33 
  -7  -1   0    4.72    0.28 
  -7  -1   0    4.32    0.35 
  -7  -1   0    4.42    0.29 
   7  -1   0    4.56    0.28 
  -7  -1   0    4.36    0.27 
  -7  -1   0    4.49    0.27 
  -7  -1   0    4.38    0.28 
   7   1   0    4.10    0.35 
   7   1   0    4.63    0.28 
   7   1   0    4.38    0.30 
   7   1   0    4.74    0.28 
  -7   1   0    4.22    0.28 
  -7   1   0    4.70    0.27 
  -7   1   0    4.34    0.31 
  -7   1   0    4.27    0.25 
  -7   1   0    4.37    0.27 
  -7   1   0    3.77    0.24 
  -7   1   0    4.42    0.22 
  -7   1   0    4.33    0.23 
   7   1   0    3.99    0.33 
   7   1   0    3.99    0.36 
  -7   1   0    4.59    0.29 
   7   1   0    4.83    0.34 
  -8  -1   0   14.57    0.57 
  -8  -1   0   14.39    0.61 
   8  -1   0   14.74    0.59 
   8  -1   0   14.11    0.59 
  -8  -1   0   14.84    0.56 
  -8  -1   0   15.17    0.56 
  -8  -1   0   14.08    0.55 
  -8  -1   0   14.38    0.59 
  -8  -1   0   15.09    0.60 
   8  -1   0   13.76    0.64 
   8   1   0   14.08    0.65 
   8   1   0   13.98    0.59 
  -8   1   0   14.45    0.61 
  -8   1   0   14.31    0.59 
   8   1   0   14.59    0.58 
  -8   1   0   14.89    0.60 
  -8   1   0   16.43    0.63 
  -8   1   0   14.45    0.54 
  -8   1   0   14.86    0.57 
   8   1   0   14.13    0.57 
  -8   1   0   14.24    0.57 
  -8   1   0   14.70    0.58 
   8   1   0   14.99    0.65 
   8   1   0   14.42    0.63 
  -8   1   0   14.47    0.56 
   0  -2   0   56.61    2.10 
   0  -2   0   59.06    2.02 
   0  -2   0   60.06    2.07 
   0  -2   0   58.87    2.09 
   0  -2   0   57.52    2.03 
   0  -2   0   59.34    2.09 
   0  -2   0   58.88    2.06 
   0  -2   0   57.48    2.11 
   0  -2   0   55.97    2.06 
   0   2   0   56.41    2.04 
   0   2   0   54.67    2.09 
   0   2   0   58.82    2.06 
   0   2   0   59.37    3.16 
   0   2   0   59.94    2.27 
   0   2   0   57.22    2.44 
   0   2   0   58.29    2.09 
   0   2   0   56.87    2.08 
  -1  -2   0  189.49    6.73 
   1  -2   0  185.82    6.59 
  -1  -2   0  194.51    6.67 
  -1  -2   0  197.09    6.62 
  -1  -2   0  189.45    6.67 
   1  -2   0  194.42    6.61 
   1  -2   0  195.85    6.57 
   1  -2   0  190.14    6.58 
   1  -2   0  191.48    6.59 
  -1  -2   0  189.86    6.62 
  -1  -2   0  194.79    6.76 
   1  -2   0  188.85    6.58 
  -1  -2   0  197.20    6.61 
  -1   2   0  189.71    6.58 
   1   2   0  186.79    6.65 
  -1   2   0  185.89    7.94 
   1   2   0  192.00    6.71 
  -1   2   0  191.79    7.12 
   1   2   0  179.74    6.61 
  -1   2   0  188.57    6.86 
   1   2   0  196.75    8.08 
  -1   2   0  190.75    6.58 
   1   2   0  186.93    6.68 
   1   2   0  194.14    6.86 
  -2  -2   0  114.53    4.02 
   2  -2   0  114.09    3.95 
  -2  -2   0  115.16    4.04 
  -2  -2   0  114.34    4.22 
   2  -2   0  117.81    3.99 
   2  -2   0  116.27    3.95 
   2  -2   0  112.02    4.02 
  -2  -2   0  113.52    4.00 
  -2  -2   0  113.90    4.03 
   2  -2   0  115.46    4.02 
  -2  -2   0  115.37    4.10 
   2   2   0  111.40    4.07 
   2   2   0  116.57    4.15 
  -2   2   0  113.09    4.63 
   2   2   0  116.35    4.00 
   2   2   0  108.89    4.21 
  -2   2   0  111.97    3.97 
   2   2   0  114.21    5.64 
  -2   2   0  113.59    3.97 
  -3  -2   0   85.03    3.11 
  -3  -2   0   85.83    3.04 
   3  -2   0   84.11    3.07 
   3  -2   0   86.38    3.03 
  -3  -2   0   87.75    3.07 
   3  -2   0   83.97    3.16 
  -3  -2   0   88.46    3.11 
  -3  -2   0   89.37    3.38 
   3  -2   0   87.28    3.00 
  -3  -2   0   87.02    3.10 
  -3  -2   0   80.43    2.99 
   3  -2   0   82.86    3.01 
   3   2   0   86.52    3.04 
  -3   2   0   85.01    3.20 
  -3   2   0   84.04    3.07 
   3   2   0   84.17    3.11 
   3   2   0   85.01    3.07 
  -3   2   0   86.63    3.04 
   3   2   0   87.55    3.10 
   3   2   0   91.10    3.39 
   3   2   0   81.53    4.91 
   3   2   0   87.64    3.11 
   3   2   0   84.28    3.12 
  -4  -2   0   77.79    2.73 
  -4  -2   0   76.17    2.85 
  -4  -2   0   76.62    3.12 
   4  -2   0   78.98    2.76 
   4  -2   0   76.53    2.80 
  -4  -2   0   76.21    2.78 
  -4  -2   0   77.68    3.21 
   4  -2   0   72.82    2.73 
  -4  -2   0   79.57    2.82 
  -4  -2   0   77.19    2.84 
  -4  -2   0   78.26    2.77 
   4  -2   0   76.98    3.02 
  -4   2   0   76.60    2.72 
   4   2   0   79.79    2.83 
   4   2   0   76.58    2.79 
   4   2   0   77.83    2.88 
   4   2   0   83.30    3.26 
   4   2   0   76.97    2.86 
  -4   2   0   75.68    3.02 
   4   2   0   76.60    2.87 
   4   2   0   77.93    2.79 
  -4   2   0   76.42    2.84 
   4   2   0   78.92    2.88 
   4   2   0   73.42    2.88 
  -5  -2   0   61.87    2.31 
  -5  -2   0   62.73    2.22 
  -5  -2   0   63.37    2.37 
   5  -2   0   62.41    2.24 
  -5  -2   0   62.72    2.27 
   5  -2   0   59.55    2.38 
   5  -2   0   58.72    2.33 
   5  -2   0   58.97    2.28 
  -5  -2   0   61.38    2.22 
   5   2   0   63.41    2.30 
   5   2   0   59.12    2.40 
   5   2   0   61.37    2.83 
   5   2   0   61.94    2.29 
   5   2   0   61.05    2.41 
  -5   2   0   61.34    2.60 
  -5   2   0   59.37    2.38 
  -5   2   0   62.92    2.21 
   5   2   0   61.03    2.40 
  -5   2   0   62.98    2.24 
   5   2   0   64.72    2.40 
  -5   2   0   61.96    2.20 
   5   2   0   61.17    2.33 
   5   2   0   63.44    2.44 
  -6  -2   0    8.37    0.48 
   6  -2   0    8.93    0.45 
  -6  -2   0    8.72    0.54 
   6  -2   0    8.45    0.49 
  -6  -2   0    7.54    0.44 
   6   2   0    8.57    0.60 
   6   2   0    8.93    0.57 
  -6   2   0    8.45    0.38 
  -6   2   0    8.37    0.42 
   6   2   0    9.21    0.50 
  -6   2   0    8.71    0.41 
   6   2   0    9.19    0.51 
  -6   2   0    8.64    0.81 
   6   2   0    9.21    0.54 
  -6   2   0    9.04    0.75 
   6   2   0    8.48    0.50 
  -6   2   0    8.83    0.44 
  -7  -2   0    3.08    0.25 
  -7  -2   0    3.45    0.25 
  -7  -2   0    3.23    0.32 
  -7  -2   0    3.42    0.23 
  -7  -2   0    3.58    0.33 
  -7  -2   0    3.45    0.27 
  -7  -2   0    3.46    0.27 
  -7  -2   0    3.36    0.28 
  -7  -2   0    3.30    0.25 
  -7   2   0    3.20    0.27 
  -7   2   0    3.34    0.29 
  -7   2   0    3.68    0.18 
  -7   2   0    3.53    0.24 
   7   2   0    3.04    0.21 
  -7   2   0    3.44    0.25 
  -7   2   0    3.56    0.24 
   7   2   0    3.56    0.26 
  -7   2   0    3.35    0.25 
   7   2   0    3.42    0.33 
  -7   2   0    3.26    0.20 
   7   2   0    3.78    0.30 
   7   2   0    3.43    0.29 
   7   2   0    3.26    0.31 
  -8  -2   0    0.70    0.14 
  -8  -2   0    0.71    0.11 
  -8  -2   0    0.63    0.14 
  -8  -2   0    0.89    0.15 
   8  -2   0    0.93    0.12 
  -8  -2   0    0.83    0.12 
  -8  -2   0    0.84    0.12 
  -8  -2   0    0.73    0.12 
  -8  -2   0    1.06    0.15 
  -8  -2   0    0.60    0.13 
   8   2   0    0.80    0.17 
  -8   2   0    0.84    0.10 
  -8   2   0    0.77    0.10 
   8   2   0    0.89    0.13 
  -8   2   0    0.84    0.11 
  -8   2   0    0.70    0.09 
  -8   2   0    0.86    0.07 
   8   2   0    0.71    0.08 
   8   2   0    0.90    0.16 
  -8   2   0    0.93    0.11 
   8   2   0    0.61    0.15 
   0  -3   0   -0.01    0.05 
   0  -3   0    0.06    0.04 
   0  -3   0    0.27    0.11 
   0  -3   0   -0.02    0.04 
   0  -3   0   -0.02    0.05 
   0  -3   0    0.04    0.03 
   0  -3   0    0.06    0.10 
   0   3   0    0.01    0.16 
   0   3   0    0.00    0.03 
   0   3   0    0.24    0.07 
   0   3   0    0.03    0.13 
   0   3   0    0.05    0.06 
   0   3   0    0.06    0.29 
   0   3   0    0.03    0.03 
   0   3   0    0.04    0.08 
   0   3   0   -0.02    0.05 
   1  -3   0  140.37    4.86 
  -1  -3   0  142.91    5.09 
  -1  -3   0  142.16    4.92 
  -1  -3   0  133.63    5.10 
   1  -3   0  138.97    4.90 
  -1  -3   0  138.21    4.93 
  -1  -3   0  139.10    4.89 
  -1  -3   0  138.99    4.94 
  -1  -3   0  141.44    4.99 
  -1  -3   0  149.48    4.91 
   1  -3   0  135.12    4.86 
   1  -3   0  142.53    4.94 
   1   3   0  138.82    4.96 
  -1   3   0  144.04    4.88 
  -1   3   0  141.74    4.90 
  -1   3   0  139.73    4.90 
   1   3   0  138.69    4.97 
  -1   3   0  136.29    4.87 
  -1   3   0  141.05    6.89 
  -1   3   0  140.54    5.28 
   1   3   0  145.68    5.19 
  -1   3   0  139.80    5.65 
   1   3   0  139.89    6.94 
   1   3   0  140.09    4.92 
  -2  -3   0   13.24    0.67 
  -2  -3   0   12.78    0.59 
   2  -3   0   13.04    0.57 
  -2  -3   0   13.21    0.58 
   2  -3   0   12.41    0.52 
  -2  -3   0   12.68    0.60 
  -2  -3   0   12.61    0.56 
   2  -3   0   12.86    0.49 
  -2  -3   0   12.80    0.59 
  -2  -3   0   12.65    0.78 
   2  -3   0   12.73    0.50 
   2   3   0   13.82    0.65 
   2   3   0   12.25    0.58 
   2   3   0   12.60    1.74 
  -2   3   0   13.26    0.59 
  -2   3   0   13.14    0.88 
  -2   3   0   11.84    0.57 
  -2   3   0   12.96    0.53 
   2   3   0   13.10    0.56 
   2   3   0   12.78    0.55 
  -2   3   0   13.19    0.51 
  -2   3   0   14.28    1.15 
  -2   3   0   12.82    0.51 
   3  -3   0  107.58    3.84 
   3  -3   0  106.67    3.65 
  -3  -3   0  100.35    3.71 
  -3  -3   0  103.61    3.72 
  -3  -3   0  108.76    3.82 
  -3  -3   0  106.34    3.80 
   3  -3   0  104.51    3.68 
  -3  -3   0  106.36    3.72 
  -3  -3   0  101.05    4.11 
  -3  -3   0  109.04    3.74 
  -3  -3   0  104.16    3.80 
  -3  -3   0  108.02    3.76 
  -3  -3   0  105.06    3.73 
   3   3   0  104.41    3.73 
   3   3   0  102.12    3.78 
   3   3   0  102.21    3.71 
   3   3   0  107.72    3.79 
   3   3   0   96.36    3.86 
  -3   3   0  107.08    3.69 
  -3   3   0  108.13    3.74 
   3   3   0  108.07    3.75 
  -3   3   0  105.35    3.63 
   3   3   0  103.48    3.69 
  -3   3   0  103.51    3.69 
  -3   3   0  102.34    3.79 
  -4  -3   0    6.22    0.44 
   4  -3   0    6.72    0.36 
  -4  -3   0    7.06    0.39 
  -4  -3   0    6.27    0.37 
  -4  -3   0    6.20    0.43 
  -4  -3   0    6.56    0.38 
  -4  -3   0    6.80    0.37 
  -4  -3   0    6.13    0.35 
  -4  -3   0    6.61    0.65 
  -4  -3   0    6.41    0.37 
  -4  -3   0    6.44    0.40 
  -4  -3   0    6.81    0.45 
  -4  -3   0    6.76    0.42 
  -4  -3   0    6.46    0.42 
   4  -3   0    7.10    0.34 
   4   3   0    7.15    0.38 
  -4   3   0    6.68    0.39 
   4   3   0    6.82    0.36 
   4   3   0    6.78    0.40 
  -4   3   0    6.95    0.45 
  -4   3   0    6.44    0.35 
  -4   3   0    6.76    0.28 
   4   3   0    6.66    0.44 
   4   3   0    6.69    0.45 
  -4   3   0    6.53    0.32 
  -5  -3   0    7.07    0.41 
   5  -3   0    7.30    0.39 
  -5  -3   0    7.46    0.51 
  -5  -3   0    7.00    0.40 
  -5  -3   0    7.50    0.46 
   5  -3   0    6.99    0.36 
  -5   3   0    7.28    0.49 
   5   3   0    7.30    0.46 
   5   3   0    6.99    0.51 
  -5   3   0    7.00    0.30 
   5   3   0    6.74    0.48 
   5   3   0    7.41    0.43 
  -5   3   0    7.03    0.46 
   5   3   0    7.11    0.40 
  -5   3   0    6.23    0.36 
  -5   3   0    7.33    0.36 
  -6  -3   0    7.33    0.42 
  -6  -3   0    7.86    0.44 
  -6  -3   0    7.33    0.43 
  -6  -3   0    6.76    0.36 
  -6  -3   0    7.11    0.35 
  -6  -3   0    6.85    0.41 
  -6  -3   0    6.97    0.28 
  -6  -3   0    7.22    0.43 
  -6  -3   0    8.00    0.66 
  -6  -3   0    5.73    0.42 
  -6  -3   0    6.71    0.48 
  -6  -3   0    7.00    0.40 
   6  -3   0    7.67    0.39 
  -6   3   0    6.50    0.39 
   6   3   0    7.01    0.50 
   6   3   0    7.25    0.42 
   6   3   0    6.14    0.49 
  -6   3   0    6.69    0.34 
   6   3   0    7.40    0.31 
   6   3   0    7.04    0.45 
   6   3   0    7.53    0.44 
  -6   3   0    6.99    0.32 
   6   3   0    7.35    0.53 
  -6   3   0    6.99    0.32 
   6   3   0    6.81    0.44 
  -6   3   0    7.36    0.35 
   6   3   0    6.75    0.37 
  -6   3   0    7.32    0.36 
  -6   3   0    6.80    0.31 
  -6   3   0    5.94    0.42 
  -6   3   0    6.96    0.29 
   6   3   0    6.80    0.47 
  -7  -3   0    3.55    0.28 
  -7  -3   0    3.44    0.27 
  -7  -3   0    2.98    0.23 
  -7  -3   0    2.91    0.22 
  -7  -3   0    3.21    0.25 
  -7  -3   0    3.90    0.33 
  -7  -3   0    3.12    0.31 
  -7  -3   0    2.89    0.26 
  -7  -3   0    3.24    0.32 
  -7   3   0    3.47    0.21 
   7   3   0    2.70    0.27 
  -7   3   0    3.25    0.22 
  -7   3   0    3.41    0.19 
  -7   3   0    3.55    0.20 
   7   3   0    3.45    0.17 
   7   3   0    3.38    0.27 
   7   3   0    3.66    0.29 
   7   3   0    3.08    0.22 
  -7   3   0    3.24    0.18 
  -7   3   0    3.47    0.20 
  -7   3   0    3.28    0.18 
   7   3   0    2.99    0.24 
  -7   3   0    3.23    0.15 
  -8  -3   0    1.18    0.11 
  -8  -3   0    1.29    0.15 
  -8  -3   0    1.18    0.11 
  -8  -3   0    1.09    0.13 
  -8  -3   0    1.35    0.12 
  -8   3   0    1.36    0.09 
   8   3   0    1.32    0.12 
   8   3   0    1.04    0.12 
  -8   3   0    1.01    0.09 
   8   3   0    1.21    0.14 
   8   3   0    1.18    0.08 
   8   3   0    1.17    0.13 
   8   3   0    1.29    0.13 
  -8   3   0    1.26    0.08 
   0  -4   0   79.20    2.85 
   0  -4   0   80.53    2.88 
   0  -4   0   83.58    2.87 
   0  -4   0   83.94    3.09 
   0  -4   0   85.11    2.91 
   0   4   0   81.32    5.32 
   0   4   0   81.21    2.85 
   0   4   0   77.40    2.92 
   0   4   0   81.72    3.14 
   0   4   0   79.80    3.84 
   0   4   0   81.46    2.96 
   0   4   0   79.62    3.39 
  -1  -4   0   30.63    1.18 
  -1  -4   0   31.13    1.15 
   1  -4   0   30.41    1.12 
  -1  -4   0   30.84    1.18 
  -1  -4   0   31.07    1.40 
  -1  -4   0   30.17    1.15 
  -1  -4   0   29.19    1.19 
  -1  -4   0   30.17    1.39 
   1  -4   0   29.61    1.10 
   1  -4   0   29.13    1.24 
   1  -4   0   30.29    1.09 
  -1  -4   0   29.15    1.11 
  -1  -4   0   28.93    1.12 
  -1  -4   0   28.19    1.14 
  -1   4   0   29.89    1.17 
   1   4   0   29.31    2.99 
   1   4   0   31.27    1.21 
  -1   4   0   29.81    1.13 
  -1   4   0   30.27    1.26 
   1   4   0   29.57    1.24 
  -1   4   0   29.40    1.07 
   1   4   0   29.09    1.20 
   1   4   0   29.23    1.12 
   1   4   0   32.42    1.19 
  -1   4   0   30.38    1.60 
  -1   4   0   30.92    2.00 
   1   4   0   26.67    1.57 
   1   4   0   30.06    1.09 
   1   4   0   31.80    1.97 
  -1   4   0   30.09    1.13 
  -1   4   0   29.47    2.97 
  -1   4   0   31.26    1.29 
  -2  -4   0   11.86    0.52 
  -2  -4   0   11.96    0.59 
   2  -4   0   11.89    0.48 
  -2  -4   0   12.92    0.83 
  -2  -4   0   11.39    0.54 
   2  -4   0   11.68    0.59 
  -2  -4   0   11.82    0.59 
  -2  -4   0   11.04    0.57 
  -2  -4   0   12.14    0.52 
  -2  -4   0   11.88    0.60 
  -2  -4   0   11.89    0.54 
   2  -4   0   11.58    0.45 
  -2   4   0   10.91    0.42 
   2   4   0   10.86    0.51 
  -2   4   0   11.64    0.50 
  -2   4   0   12.02    0.49 
   2   4   0   11.60    0.64 
   2   4   0   11.82    0.56 
   2   4   0   10.71    0.81 
  -2   4   0   11.08    0.49 
  -2   4   0   11.92    0.52 
  -2   4   0   11.40    0.48 
   2   4   0   12.00    0.51 
   2   4   0   11.57    0.55 
  -3  -4   0   23.51    0.94 
  -3  -4   0   23.88    1.05 
  -3  -4   0   23.74    1.03 
  -3  -4   0   22.41    0.95 
  -3  -4   0   23.87    1.03 
  -3  -4   0   22.14    0.92 
   3  -4   0   22.57    0.89 
  -3  -4   0   23.20    0.96 
  -3  -4   0   23.95    0.97 
  -3  -4   0   22.18    1.32 
   3  -4   0   23.02    0.86 
   3   4   0   23.62    1.00 
   3   4   0   25.42    1.14 
   3   4   0   20.79    0.93 
  -3   4   0   22.31    0.89 
   3   4   0   23.21    0.97 
  -3   4   0   22.63    0.88 
  -3   4   0   22.47    0.88 
  -3   4   0   23.12    0.88 
   3   4   0   21.84    0.91 
  -4  -4   0   27.89    1.19 
  -4  -4   0   28.10    1.14 
  -4  -4   0   28.93    1.16 
  -4  -4   0   28.95    1.15 
  -4  -4   0   29.35    1.29 
  -4  -4   0   28.89    1.26 
  -4  -4   0   29.47    1.17 
  -4  -4   0   27.08    1.59 
  -4  -4   0   27.77    1.16 
  -4  -4   0   27.09    1.13 
  -4  -4   0   27.81    1.16 
   4  -4   0   28.45    1.08 
   4   4   0   27.90    1.12 
  -4   4   0   27.06    1.12 
   4   4   0   28.46    1.23 
   4   4   0   28.28    1.17 
  -4   4   0   28.73    1.09 
  -5  -4   0    5.79    0.30 
  -5  -4   0    4.22    0.58 
  -5  -4   0    5.19    0.45 
  -5  -4   0    5.28    0.38 
   5  -4   0    5.79    0.34 
  -5  -4   0    5.54    0.34 
  -5  -4   0    5.70    0.41 
  -5  -4   0    6.51    0.48 
  -5  -4   0    6.07    0.38 
  -5  -4   0    6.30    0.40 
  -5  -4   0    5.63    0.38 
  -5  -4   0    5.61    0.47 
  -5  -4   0    5.32    0.37 
  -5  -4   0    5.15    0.41 
   5   4   0    5.96    0.24 
   5   4   0    5.92    0.40 
   5   4   0    5.41    0.47 
  -5   4   0    6.16    0.33 
   5   4   0    5.55    0.45 
   5   4   0    5.08    0.38 
  -5   4   0    5.35    0.26 
   5   4   0    6.07    0.35 
   5   4   0    5.86    0.41 
  -5   4   0    5.86    0.30 
   5   4   0    5.67    0.37 
  -5   4   0    5.40    0.27 
   5   4   0    5.64    0.44 
  -5   4   0    5.91    0.26 
   5   4   0    5.97    0.39 
   5   4   0    5.89    0.39 
   5   4   0    6.45    0.35 
   5   4   0    6.13    0.35 
   5   4   0    5.61    0.39 
  -6  -4   0   19.46    0.76 
  -6  -4   0   19.16    0.71 
  -6  -4   0   19.63    0.83 
  -6  -4   0   20.19    0.82 
  -6  -4   0   20.66    0.86 
  -6  -4   0   19.81    0.84 
   6   4   0   18.82    0.68 
  -6   4   0   19.43    0.73 
   6   4   0   18.75    0.81 
   6   4   0   19.10    0.84 
  -6   4   0   19.37    0.71 
   6   4   0   19.06    0.82 
  -6   4   0   20.00    0.73 
  -6   4   0   18.88    0.77 
   6   4   0   18.83    0.93 
   6   4   0   19.11    1.41 
   6   4   0   18.09    0.76 
  -6   4   0   19.44    0.75 
   6   4   0   19.64    0.77 
   6   4   0   19.61    0.83 
   6   4   0   18.72    0.82 
  -7  -4   0    2.95    0.29 
  -7  -4   0    2.46    0.21 
  -7  -4   0    2.59    0.22 
   7   4   0    2.58    0.17 
  -7   4   0    2.64    0.14 
  -7   4   0    2.52    0.12 
   7   4   0    2.78    0.22 
   7   4   0    2.54    0.23 
   7   4   0    2.78    0.29 
   7   4   0    2.63    0.12 
   7   4   0    2.36    0.20 
   0  -5   0    0.02    0.06 
   0  -5   0    0.02    0.06 
   0  -5   0   -0.02    0.07 
   0   5   0    0.02    0.05 
   0   5   0   -0.01    0.08 
   0   5   0    0.02    0.10 
   0   5   0    0.34    0.15 
   0   5   0    0.07    0.07 
   0   5   0   -0.06    0.08 
  -1  -5   0   49.33    2.21 
  -1  -5   0   50.59    1.90 
  -1  -5   0   52.95    1.94 
  -1  -5   0   47.62    1.95 
  -1  -5   0   50.85    1.89 
   1  -5   0   51.10    1.88 
  -1  -5   0   50.74    1.89 
  -1  -5   0   48.83    1.93 
  -1  -5   0   49.71    1.85 
  -1  -5   0   51.34    1.85 
   1  -5   0   50.44    1.83 
  -1   5   0   47.34    1.96 
   1   5   0   52.87    1.94 
   1   5   0   48.21    1.84 
   1   5   0   49.01    1.84 
   1   5   0   50.43    1.84 
  -1   5   0   54.09    2.00 
  -1   5   0   52.18    1.83 
   1   5   0   50.81    2.02 
  -1   5   0   51.34    1.87 
  -1   5   0   49.87    1.86 
  -1   5   0   51.18    1.78 
   1   5   0   50.03    1.86 
  -2  -5   0   58.83    2.11 
  -2  -5   0   57.65    2.15 
  -2  -5   0   59.56    2.12 
  -2  -5   0   56.65    2.21 
   2  -5   0   58.99    2.06 
  -2  -5   0   58.32    2.57 
  -2  -5   0   60.05    2.22 
   2  -5   0   55.45    2.09 
  -2  -5   0   59.58    2.16 
  -2  -5   0   55.83    2.23 
   2   5   0   57.36    2.32 
  -2   5   0   56.81    2.07 
   2   5   0   56.02    2.12 
   2   5   0   56.30    2.10 
   2   5   0   55.13    2.11 
  -2   5   0   56.92    2.07 
  -2   5   0   55.17    2.07 
   2   5   0   57.29    2.11 
   2   5   0   56.57    2.19 
  -3  -5   0   18.37    0.93 
   3  -5   0   18.67    0.73 
  -3  -5   0   19.13    0.84 
  -3  -5   0   18.83    0.83 
  -3  -5   0   18.52    0.80 
  -3  -5   0   18.81    0.80 
  -3  -5   0   19.24    0.91 
  -3  -5   0   19.89    0.85 
  -3  -5   0   18.78    0.85 
  -3   5   0   17.78    0.71 
   3   5   0   17.76    0.81 
   3   5   0   18.32    1.00 
   3   5   0   18.35    0.79 
  -3   5   0   18.40    0.72 
   3   5   0   15.58    0.84 
  -4  -5   0   18.38    0.73 
  -4  -5   0   19.53    0.81 
  -4  -5   0   19.00    0.85 
  -4  -5   0   18.79    0.83 
  -4  -5   0   17.55    0.75 
  -4  -5   0   17.44    0.82 
  -4  -5   0   17.42    0.82 
  -4  -5   0   17.45    0.73 
  -4  -5   0   14.75    1.01 
  -4  -5   0   18.46    0.81 
  -4  -5   0   18.77    0.83 
   4  -5   0   20.47    0.83 
  -4  -5   0   17.12    0.90 
  -4  -5   0   17.43    0.78 
   4   5   0   17.50    0.89 
   4   5   0   16.63    0.81 
  -4   5   0   17.88    0.65 
   4   5   0   18.06    0.80 
   4   5   0   18.45    0.73 
   4   5   0   17.67    0.67 
   4   5   0   17.76    0.77 
   4   5   0   17.99    0.75 
   4   5   0   17.05    0.84 
   4   5   0   17.66    0.75 
   4   5   0   18.06    0.78 
   4   5   0   19.05    0.87 
   4   5   0   17.88    0.74 
   4   5   0   17.57    0.78 
  -4   5   0   17.13    0.66 
   4   5   0   17.35    0.78 
  -4   5   0   18.53    0.68 
  -5  -5   0   13.24    0.62 
  -5  -5   0   13.28    0.57 
  -5  -5   0   12.98    0.54 
  -5  -5   0   13.10    0.63 
  -5  -5   0   12.73    0.61 
  -5  -5   0   10.98    0.64 
  -5  -5   0   12.57    0.64 
   5   5   0   13.52    0.58 
   5   5   0   12.92    0.61 
   5   5   0   13.17    0.60 
  -5   5   0   13.46    0.48 
   5   5   0   13.46    0.67 
   5   5   0   13.10    0.58 
  -5   5   0   12.62    0.48 
   5   5   0   14.13    0.71 
   5   5   0   13.43    0.56 
   5   5   0   13.01    0.57 
   5   5   0   13.07    0.61 
  -5   5   0   13.93    0.50 
   5   5   0   13.39    0.67 
   5   5   0   12.80    0.58 
  -6  -5   0    4.69    0.31 
  -6  -5   0    4.70    0.30 
  -6  -5   0    4.71    0.21 
  -6  -5   0    4.76    0.25 
  -6  -5   0    4.50    0.31 
   6   5   0    4.76    0.26 
  -6   5   0    4.69    0.20 
   6   5   0    5.00    0.28 
   6   5   0    4.68    0.25 
   6   5   0    4.21    0.33 
   6   5   0    4.64    0.37 
   6   5   0    4.50    0.25 
   6   5   0    5.18    0.32 
   6   5   0    4.47    0.30 
   6   5   0    5.22    0.32 
   6   5   0    4.79    0.27 
   0  -6   0   85.69    3.20 
   0  -6   0   90.74    3.16 
   0   6   0   86.19    3.16 
   0   6   0   88.83    3.10 
   0   6   0   90.10    3.43 
   0   6   0   82.30    3.10 
   0   6   0   89.72    3.32 
   0   6   0   86.84    3.13 
   0   6   0   93.54    3.22 
  -1  -6   0    5.13    0.35 
   1  -6   0    5.44    0.31 
  -1  -6   0    5.41    0.41 
  -1  -6   0    5.21    0.32 
   1   6   0    5.47    0.31 
   1   6   0    4.71    0.47 
   1   6   0    5.34    0.33 
  -1   6   0    5.09    0.27 
   1   6   0    5.45    0.28 
  -1   6   0    5.51    0.30 
  -1   6   0    5.07    0.25 
   1   6   0    5.53    0.31 
  -1   6   0    5.28    0.33 
  -1   6   0    5.11    0.31 
   1   6   0    5.19    0.28 
   1   6   0    5.24    0.30 
  -2  -6   0   16.63    0.71 
  -2  -6   0   16.38    0.75 
   2  -6   0   15.88    0.67 
  -2  -6   0   15.45    0.74 
  -2  -6   0   14.88    0.77 
  -2  -6   0   14.17    0.78 
  -2  -6   0   15.91    0.71 
  -2  -6   0   16.07    0.74 
   2   6   0   16.59    0.70 
   2   6   0   16.20    0.69 
   2   6   0   16.71    0.71 
   2   6   0   16.46    0.73 
   2   6   0   18.19    0.69 
   2   6   0   16.90    0.70 
   2   6   0   17.47    0.80 
   2   6   0   18.96    0.69 
   2   6   0   17.07    0.73 
   2   6   0   12.85    0.79 
   2   6   0   15.76    0.66 
   2   6   0   17.76    0.77 
  -2   6   0   16.59    0.65 
  -2   6   0   15.04    0.64 
  -2   6   0   14.58    0.59 
   2   6   0   15.32    0.77 
   2   6   0   14.13    0.72 
   2   6   0   16.14    0.70 
  -3  -6   0   65.67    2.36 
  -3  -6   0   63.39    2.42 
  -3  -6   0   68.30    2.48 
  -3  -6   0   65.28    2.47 
  -3  -6   0   59.68    2.41 
  -3  -6   0   61.15    2.45 
  -3  -6   0   64.66    2.36 
  -3  -6   0   69.44    2.47 
   3   6   0   66.42    2.41 
   3   6   0   64.87    2.41 
  -3   6   0   69.61    2.28 
   3   6   0   64.70    2.37 
   3   6   0   65.32    2.39 
   3   6   0   68.56    2.43 
   3   6   0   69.78    2.35 
   3   6   0   55.36    2.44 
   3   6   0   66.14    2.31 
   3   6   0   63.03    2.42 
   3   6   0   66.22    2.52 
   3   6   0   65.77    2.38 
   3   6   0   65.41    2.33 
   3   6   0   67.73    2.45 
   3   6   0   67.00    2.36 
   3   6   0   65.55    2.32 
   3   6   0   66.41    2.39 
  -3   6   0   64.22    2.27 
   3   6   0   69.20    2.43 
   3   6   0   67.01    2.34 
   3   6   0   65.58    2.36 
  -4  -6   0   20.33    0.78 
  -4  -6   0   17.80    0.87 
  -4  -6   0   20.23    0.87 
  -4  -6   0   18.91    0.77 
  -4  -6   0   18.97    0.83 
  -4  -6   0   19.48    0.84 
  -4  -6   0   22.56    1.01 
   4   6   0   20.07    0.83 
   4   6   0   18.15    0.84 
   4   6   0   18.97    0.92 
   4   6   0   19.25    0.85 
   4   6   0   20.52    0.79 
   4   6   0   18.28    0.76 
   4   6   0   19.08    0.72 
   4   6   0   20.83    0.78 
   4   6   0   18.99    0.76 
   4   6   0   19.09    0.79 
   4   6   0   20.56    0.82 
   4   6   0   19.96    0.88 
  -5  -6   0   13.41    0.62 
  -5  -6   0   13.23    0.55 
  -5  -6   0   12.78    0.51 
  -5  -6   0   14.13    0.59 
  -5  -6   0   13.32    0.60 
   5   6   0   13.08    0.57 
   5   6   0   13.29    0.61 
   5   6   0   12.56    0.54 
   5   6   0   13.29    0.55 
   5   6   0   12.30    0.54 
   5   6   0   13.70    0.68 
   5   6   0   12.70    0.52 
   5   6   0   12.23    0.54 
   5   6   0   13.79    0.54 
   5   6   0   12.68    0.58 
  -6  -6   0    5.60    0.22 
  -6  -6   0    5.70    0.61 
  -6  -6   0    5.90    0.31 
  -6  -6   0    6.31    0.31 
  -6  -6   0    5.24    0.25 
   6   6   0    6.11    0.27 
   6   6   0    7.13    0.48 
   6   6   0    5.70    0.28 
   6   6   0    5.83    0.27 
   6   6   0    6.08    0.26 
   6   6   0    5.66    0.32 
   6   6   0    5.85    0.27 
   6   6   0    5.98    0.31 
   0  -7   0   -0.05    0.15 
   0   7   0    0.00    0.05 
   0   7   0    0.07    0.08 
   0   7   0   -0.01    0.07 
   0   7   0    0.02    0.06 
   0   7   0    0.01    0.08 
   0   7   0    0.03    0.06 
   0   7   0    0.07    0.09 
   0   7   0   -0.04    0.11 
  -1   7   0   48.80    1.74 
   1   7   0   50.01    1.81 
   1   7   0   49.37    1.77 
   1   7   0   50.86    1.77 
  -1   7   0   49.16    1.76 
   1   7   0   48.51    1.78 
  -1   7   0   49.20    1.79 
  -1   7   0   49.67    1.76 
   1   7   0   46.88    1.83 
   1   7   0   49.23    1.74 
   1   7   0   49.69    1.80 
  -1   7   0   48.46    1.75 
   1   7   0   48.27    1.80 
  -2  -7   0    1.80    0.22 
  -2  -7   0    1.04    0.17 
  -2  -7   0    1.42    0.21 
  -2  -7   0    1.55    0.28 
  -2   7   0    1.49    0.11 
   2   7   0    1.56    0.18 
  -2   7   0    1.48    0.08 
   2   7   0    1.91    0.17 
   2   7   0    1.30    0.20 
   2   7   0    1.34    0.18 
   2   7   0    1.59    0.22 
  -2   7   0    1.39    0.08 
   2   7   0    1.30    0.18 
   2   7   0    1.41    0.16 
   2   7   0    1.74    0.16 
   2   7   0    1.36    0.13 
   2   7   0    1.73    0.19 
  -3  -7   0    6.77    0.53 
  -3  -7   0    5.85    0.37 
  -3  -7   0    6.61    0.32 
  -3  -7   0    6.21    0.37 
  -3  -7   0    6.14    0.31 
   3   7   0    6.34    0.44 
   3   7   0    5.93    0.30 
   3   7   0    5.88    0.31 
   3   7   0    6.21    0.34 
   3   7   0    5.95    0.34 
   3   7   0    6.56    0.40 
   3   7   0    5.98    0.31 
   3   7   0    6.41    0.28 
   3   7   0    6.28    0.27 
   3   7   0    6.37    0.35 
   3   7   0    6.04    0.26 
   3   7   0    6.20    0.33 
   3   7   0    6.10    0.31 
  -4  -7   0   10.77    0.45 
  -4  -7   0   12.56    0.52 
  -4  -7   0   11.11    0.46 
   4   7   0   11.21    0.47 
   4   7   0   11.37    0.47 
   4   7   0   11.53    0.44 
   4   7   0    9.80    0.48 
   4   7   0   11.43    0.43 
   4   7   0   11.62    0.48 
   4   7   0   11.32    0.43 
   4   7   0   11.40    0.49 
   4   7   0   11.21    0.55 
   4   7   0   11.66    0.42 
   4   7   0   10.50    0.49 
   0   8   0   51.32    1.79 
   0   8   0   49.62    1.77 
   0   8   0   50.56    1.78 
   1   8   0    6.57    0.28 
   1   8   0    6.40    0.27 
   1   8   0    6.67    0.29 
   1   8   0    6.54    0.25 
   1   8   0    5.97    0.28 
  -1   8   0    6.36    0.26 
   1   8   0    6.61    0.29 
  -2  -8   0   11.09    0.45 
  -2  -8   0   10.70    0.45 
   2   8   0   11.07    0.46 
   2   8   0   10.97    0.44 
   2   8   0   10.86    0.43 
   2   8   0   10.70    0.41 
   2   8   0   10.72    0.45 
   2   8   0   11.03    0.42 
   2   8   0   13.00    0.53 
  -8   0   1    0.03    0.07 
  -8   0   1    0.00    0.05 
  -8   0   1    0.05    0.09 
   8   0  -1    0.06    0.08 
   8   0  -1    0.11    0.07 
  -8   0   1    0.20    0.09 
   8   0  -1    0.17    0.16 
  -8   0   1    0.16    0.07 
  -8   0   1    0.12    0.08 
  -8   0   1    0.05    0.06 
   8   0  -1    0.14    0.12 
  -8   0   1    0.10    0.07 
  -8   0   1    0.08    0.06 
   8   0  -1   -0.07    0.08 
  -8   0   1    0.09    0.10 
  -8   0   1    0.06    0.05 
  -8   0   1    0.06    0.09 
  -7   0   1    1.74    0.19 
  -7   0   1    2.04    0.18 
  -7   0   1    2.28    0.20 
   7   0  -1    1.83    0.20 
  -7   0   1    1.88    0.19 
  -7   0   1    2.02    0.25 
  -7   0   1    1.83    0.27 
  -7   0   1    1.88    0.19 
  -7   0   1    2.04    0.24 
   7   0  -1    2.19    0.22 
  -7   0   1    1.69    0.22 
  -7   0   1    1.78    0.18 
   7   0  -1    2.54    0.29 
  -7   0   1    2.16    0.22 
  -6   0   1  538.43   18.23 
   6   0  -1  505.33   18.28 
   6   0  -1  532.78   18.36 
   6   0  -1  535.04   18.36 
   6   0  -1  528.62   18.29 
   6   0  -1  537.39   18.43 
  -6   0   1  516.05   18.30 
   6   0  -1  530.03   18.33 
  -6   0   1  530.24   18.54 
   6   0  -1  544.06   18.44 
   6   0  -1  513.72   18.45 
   5   0  -1   62.06    2.29 
  -5   0   1   59.21    2.13 
   5   0  -1   56.79    2.18 
  -5   0   1   57.40    2.17 
   5   0  -1   57.11    2.59 
   5   0  -1   56.88    2.14 
   5   0  -1   59.34    2.24 
  -5   0   1   55.99    2.09 
   5   0  -1   59.36    2.27 
  -5   0   1   55.52    2.18 
  -5   0   1   61.43    2.34 
   5   0  -1   59.26    2.15 
   4   0  -1  215.42    7.53 
   4   0  -1  222.02    7.59 
   4   0  -1  211.67    7.49 
  -4   0   1  211.68    7.46 
  -4   0   1  207.81    7.63 
   4   0  -1  211.35    7.50 
   4   0  -1  225.83    7.59 
  -4   0   1  210.88    7.53 
   4   0  -1  226.16    7.88 
   4   0  -1  218.24    7.68 
  -4   0   1  219.38    7.50 
  -4   0   1  208.41    7.48 
   4   0  -1  214.28    7.57 
   4   0  -1  224.27    7.58 
   4   0  -1  207.11    7.52 
   3   0  -1    2.89    0.21 
  -3   0   1    2.87    0.23 
   3   0  -1    2.82    0.24 
   3   0  -1    2.78    0.21 
   3   0  -1    2.65    0.21 
  -3   0   1    2.91    0.24 
  -3   0   1    2.67    0.17 
   3   0  -1    2.93    0.19 
  -2   0   1  859.01   29.24 
  -2   0   1  840.95   29.35 
   2   0  -1  921.70   29.39 
  -2   0   1  869.45   29.38 
   2   0  -1  857.88   29.31 
  -2   0   1  833.07   29.37 
   2   0  -1  842.49   29.38 
   2   0  -1  839.26   29.37 
  -2   0   1  825.35   29.29 
   2   0  -1  864.08   29.26 
   2   0  -1  875.79   29.31 
   2   0  -1  852.62   29.39 
   2   0  -1  878.86   29.24 
  -2   0   1  801.22   29.24 
  -2   0   1  852.13   29.32 
   2   0  -1  822.46   29.26 
  -2   0   1  836.61   29.28 
   1   0  -1  181.20    6.17 
  -1   0   1  176.12    6.13 
   1   0  -1  172.24    6.13 
  -1   0   1  177.48    6.18 
   1   0  -1  182.92    6.14 
   1   0  -1  183.24    6.10 
   1   0  -1  171.78    6.17 
   1   0  -1  179.73    6.13 
   1   0  -1  174.43    6.18 
  -1   0   1  183.88    6.13 
   1   0  -1  175.25    6.17 
  -1   0   1  181.92    6.13 
  -1   0   1  184.36    6.19 
  -1   0   1  162.85    6.14 
  -1   0   1  168.26    6.10 
   1   0  -1  173.12    6.17 
  -1   0   1  177.33    6.17 
   0   0  -1   17.15    0.65 
   0   0   1   18.08    0.63 
   0   0  -1   16.83    0.63 
   0   0   1   16.72    0.66 
   0   0   1   17.39    0.65 
   0   0  -1   17.18    0.63 
   0   0   1   16.28    0.63 
   0   0   1   16.94    0.63 
   0   0   1   16.60    0.61 
   0   0   1   17.46    0.66 
   0   0  -1   17.10    0.63 
   0   0   1   16.91    0.63 
   0   0  -1   17.48    0.61 
   0   0   1   17.41    0.63 
   0   0  -1   16.41    0.63 
  -1   0  -1  872.22   31.39 
  -1   0  -1  948.87   31.49 
   1   0   1  975.11   31.60 
  -1   0  -1  923.68   31.50 
   1   0   1  843.94   31.44 
  -1   0  -1  938.79   31.43 
  -1   0  -1  852.64   31.45 
   1   0   1  935.12   31.44 
   1   0   1  935.55   31.45 
   1   0   1  963.71   31.52 
  -1   0  -1  929.37   31.44 
   1   0   1  931.79   31.40 
   1   0   1  871.80   31.49 
  -1   0  -1  887.52   31.43 
   1   0   1  915.56   31.43 
   2   0   1   86.67    3.11 
   2   0   1   83.22    3.19 
  -2   0  -1   88.30    3.08 
   2   0   1   88.32    3.05 
  -2   0  -1   92.57    3.12 
  -2   0  -1   86.95    3.27 
   2   0   1   88.37    3.07 
   2   0   1   88.91    3.19 
  -2   0  -1   88.38    3.14 
  -2   0  -1   82.98    3.07 
   2   0   1   83.97    3.11 
   3   0   1  161.87    5.64 
   3   0   1  154.33    5.60 
   3   0   1  159.06    5.64 
  -3   0  -1  162.75    5.68 
  -3   0  -1  161.11    5.91 
   3   0   1  162.40    5.85 
   3   0   1  164.39    5.71 
   3   0   1  159.84    5.83 
  -4   0  -1   29.28    1.13 
  -4   0  -1   30.56    1.08 
  -4   0  -1   28.72    1.43 
   4   0   1   29.16    1.19 
   4   0   1   29.85    1.20 
   4   0   1   28.74    1.10 
  -4   0  -1   29.92    1.25 
   4   0   1   29.83    1.19 
   4   0   1   28.87    1.14 
  -4   0  -1   29.23    1.09 
   4   0   1   29.66    1.20 
   4   0   1   29.31    1.43 
  -4   0  -1   28.05    1.10 
   5   0   1    0.92    0.20 
  -5   0  -1    0.94    0.15 
   5   0   1    0.72    0.14 
  -5   0  -1    0.77    0.23 
   5   0   1    0.66    0.20 
   5   0   1    0.52    0.29 
  -5   0  -1    0.67    0.16 
   5   0   1    1.12    0.21 
  -5   0  -1    0.70    0.25 
   5   0   1    0.70    0.18 
  -5   0  -1    0.80    0.12 
   5   0   1    0.63    0.19 
  -5   0  -1    0.88    0.15 
   6   0   1    8.35    0.48 
  -6   0  -1    7.36    0.41 
  -6   0  -1    7.80    0.42 
  -6   0  -1    7.64    0.39 
  -6   0  -1    8.62    0.45 
   6   0   1    8.00    0.54 
   6   0   1    7.86    0.54 
   6   0   1    8.00    0.44 
   6   0   1    8.35    0.50 
  -6   0  -1    7.77    0.44 
  -6   0  -1    8.18    0.37 
  -7   0  -1    1.34    0.19 
   7   0   1    1.00    0.16 
  -7   0  -1    0.81    0.17 
   7   0   1    1.05    0.22 
  -7   0  -1    0.90    0.13 
  -7   0  -1    0.84    0.17 
  -7   0  -1    1.11    0.16 
  -7   0  -1    0.89    0.11 
  -7   0  -1    0.86    0.15 
  -7   0  -1    0.86    0.13 
   7   0   1    0.95    0.22 
  -7   0  -1    0.89    0.18 
  -7   0  -1    0.80    0.17 
  -7   0  -1    1.11    0.13 
  -7   0  -1    0.94    0.16 
  -7   0  -1    1.01    0.13 
   7   0   1    0.85    0.16 
   8   0   1   29.45    1.09 
  -8   0  -1   27.72    1.10 
  -8   0  -1   30.59    1.08 
   8   0   1   29.18    1.09 
  -8   0  -1   30.30    1.07 
  -8   0  -1   29.95    1.08 
  -8   0  -1   26.72    1.10 
  -8   0  -1   31.13    1.06 
  -8  -1   1   22.24    0.80 
  -8  -1   1   20.24    0.81 
  -8  -1   1   22.11    0.81 
  -8  -1   1   21.99    0.84 
   8  -1  -1   20.30    0.88 
  -8  -1   1   22.57    0.87 
  -8  -1   1   18.46    0.90 
   8  -1  -1   22.02    0.82 
  -8  -1   1   20.96    0.80 
  -8  -1   1   21.40    0.83 
   8  -1  -1   21.05    0.82 
  -8  -1   1   22.30    0.82 
   8   1  -1   19.46    0.79 
  -8   1   1   21.34    0.80 
  -8   1   1   20.41    0.80 
  -8   1   1   21.46    0.78 
   8   1  -1   20.89    0.86 
  -8   1   1   23.43    0.89 
  -8   1   1   21.50    0.84 
  -8   1   1   21.52    0.83 
  -8   1   1   21.36    1.19 
  -8   1   1   21.60    0.81 
  -8   1   1   19.02    0.76 
   8   1  -1   21.40    0.89 
   8   1  -1   21.11    0.88 
   8   1  -1   21.57    0.82 
  -8   1   1   21.41    0.81 
   7  -1  -1   59.84    2.19 
   7  -1  -1   59.61    2.20 
   7  -1  -1   57.36    2.18 
  -7  -1   1   59.77    2.17 
  -7  -1   1   55.21    2.10 
  -7  -1   1   56.07    2.07 
  -7  -1   1   55.98    2.10 
   7  -1  -1   56.40    2.09 
  -7  -1   1   56.53    2.08 
  -7  -1   1   59.00    2.09 
  -7  -1   1   59.46    2.06 
  -7  -1   1   56.93    2.08 
  -7  -1   1   59.24    2.10 
  -7  -1   1   57.95    2.17 
  -7   1   1   57.23    2.06 
  -7   1   1   58.65    2.11 
  -7   1   1   56.37    2.05 
  -7   1   1   49.94    2.10 
  -7   1   1   56.51    2.08 
   7   1  -1   59.53    2.23 
   7   1  -1   57.39    2.08 
   7   1  -1   56.03    2.08 
  -7   1   1   56.45    2.10 
   7   1  -1   56.45    2.09 
  -7   1   1   54.77    2.03 
  -7   1   1   56.40    2.03 
  -7   1   1   58.20    2.14 
  -7   1   1   60.31    2.20 
  -7   1   1   57.76    2.04 
  -7   1   1   56.29    2.07 
   7   1  -1   61.66    2.21 
   7   1  -1   57.06    2.18 
  -7   1   1   58.44    2.04 
  -7   1   1   54.93    2.10 
   7   1  -1   57.71    2.14 
  -7   1   1   57.04    2.10 
  -6  -1   1   29.82    1.29 
   6  -1  -1   29.86    1.27 
   6  -1  -1   31.49    1.24 
   6  -1  -1   30.49    1.24 
  -6  -1   1   31.03    1.24 
  -6  -1   1   33.09    1.20 
   6  -1  -1   31.63    1.30 
   6  -1  -1   30.60    1.37 
  -6  -1   1   33.11    1.26 
   6  -1  -1   30.22    1.33 
  -6   1   1   29.29    1.42 
  -6   1   1   31.43    1.23 
  -6   1   1   32.00    1.19 
  -6   1   1   33.07    1.16 
   6   1  -1   31.72    1.42 
  -6   1   1   31.92    1.25 
   6   1  -1   31.99    1.32 
   6   1  -1   30.66    1.36 
   6   1  -1   31.12    1.29 
  -6   1   1   30.47    1.22 
   6   1  -1   31.84    1.39 
   6   1  -1   30.57    1.28 
   6   1  -1   31.33    1.27 
  -5  -1   1   40.58    1.77 
  -5  -1   1   43.73    1.61 
  -5  -1   1   41.93    1.64 
   5  -1  -1   40.73    1.96 
   5  -1  -1   40.51    1.64 
   5  -1  -1   42.86    1.69 
  -5  -1   1   41.50    1.56 
   5  -1  -1   42.66    1.67 
   5  -1  -1   42.38    1.57 
   5  -1  -1   42.74    1.61 
  -5  -1   1   40.69    1.53 
   5  -1  -1   42.34    1.57 
   5   1  -1   41.96    1.59 
   5   1  -1   43.00    1.61 
   5   1  -1   40.70    1.70 
  -5   1   1   41.61    1.52 
   5   1  -1   41.01    1.69 
   5   1  -1   40.88    1.63 
  -5   1   1   41.23    1.55 
   5   1  -1   41.49    1.58 
  -5   1   1   43.02    1.74 
   5   1  -1   37.11    1.99 
   5   1  -1   41.61    1.69 
   5   1  -1   41.29    1.63 
  -5   1   1   37.99    1.55 
  -5   1   1   43.93    1.58 
  -5   1   1   43.12    1.75 
   5   1  -1   43.79    1.69 
   4  -1  -1   11.28    0.55 
   4  -1  -1   11.16    0.71 
  -4  -1   1   10.71    0.60 
  -4  -1   1   10.50    0.44 
   4  -1  -1   10.62    0.49 
   4  -1  -1   10.70    0.49 
  -4  -1   1   10.87    0.53 
  -4  -1   1   10.95    0.46 
   4  -1  -1   11.35    0.54 
  -4  -1   1   11.00    0.51 
   4  -1  -1   10.92    0.53 
   4  -1  -1   10.49    0.46 
   4  -1  -1   10.99    0.47 
  -4  -1   1   10.64    0.48 
   4  -1  -1   11.30    0.55 
  -4  -1   1   10.49    0.50 
  -4   1   1   10.18    0.47 
  -4   1   1   11.29    0.58 
  -4   1   1    9.98    0.45 
  -4   1   1   10.69    0.44 
  -4   1   1   11.87    0.73 
   4   1  -1   10.38    0.49 
  -4   1   1   10.24    0.46 
   4   1  -1    9.77    0.48 
   4   1  -1   10.87    0.48 
  -4   1   1   10.35    0.74 
   4   1  -1   11.15    0.77 
   4   1  -1   13.15    0.59 
   4   1  -1   10.93    0.56 
   4   1  -1   11.49    0.56 
  -3  -1   1  320.40   11.35 
   3  -1  -1  310.20   11.34 
   3  -1  -1  333.83   11.33 
   3  -1  -1  314.81   11.33 
   3  -1  -1  334.14   11.40 
  -3  -1   1  340.82   11.60 
   3  -1  -1  343.71   11.31 
  -3  -1   1  328.26   11.34 
   3  -1  -1  342.23   11.52 
  -3  -1   1  310.41   11.40 
   3  -1  -1  313.77   11.51 
   3  -1  -1  325.17   11.30 
   3   1  -1  318.10   11.58 
  -3   1   1  330.05   11.39 
   3   1  -1  318.26   11.37 
  -3   1   1  338.26   11.59 
   3   1  -1  342.28   11.37 
  -2  -1   1  432.45   14.98 
   2  -1  -1  456.74   14.79 
  -2  -1   1  374.14   14.96 
  -2  -1   1  427.42   14.88 
   2  -1  -1  453.98   14.92 
   2  -1  -1  386.65   14.82 
  -2  -1   1  445.15   14.88 
  -2  -1   1  451.54   14.82 
  -2  -1   1  434.15   14.97 
   2  -1  -1  435.34   14.80 
   2  -1  -1  434.06   14.99 
   2  -1  -1  442.59   14.86 
   2  -1  -1  470.26   14.86 
  -2  -1   1  425.51   14.80 
  -2   1   1  406.62   14.98 
  -2   1   1  428.19   14.85 
   2   1  -1  446.11   14.80 
  -2   1   1  414.65   14.80 
  -2   1   1  439.03   14.86 
  -2   1   1  430.10   14.90 
   2   1  -1  425.73   14.79 
   2   1  -1  416.79   14.82 
   2   1  -1  417.81   14.88 
   2   1  -1  436.83   14.88 
   2   1  -1  429.59   14.96 
  -2   1   1  401.43   14.85 
  -2   1   1  443.00   15.27 
  -1  -1   1   36.88    1.41 
   1  -1  -1   36.59    1.35 
   1  -1  -1   37.84    1.35 
   1  -1  -1   37.95    1.35 
   1  -1  -1   37.74    1.35 
   1  -1  -1   37.19    1.39 
   1  -1  -1   37.41    1.40 
  -1  -1   1   35.93    1.36 
   1  -1  -1   38.02    1.39 
  -1  -1   1   37.19    1.36 
  -1  -1   1   37.91    1.42 
  -1  -1   1   35.93    1.41 
   1  -1  -1   37.59    1.31 
  -1  -1   1   38.67    1.32 
  -1  -1   1   37.16    1.36 
  -1  -1   1   36.62    1.40 
  -1   1   1   38.45    1.35 
  -1   1   1   35.82    1.33 
  -1   1   1   39.35    1.37 
  -1   1   1   35.70    1.58 
  -1   1   1   38.31    1.33 
   1   1  -1   36.83    1.35 
   1   1  -1   34.95    1.40 
   1   1  -1   38.36    1.31 
  -1   1   1   35.11    1.31 
   1   1  -1   37.09    1.36 
  -1   1   1   36.20    1.36 
  -1   1   1   38.82    1.39 
   1   1  -1   37.48    1.36 
   1   1  -1   35.21    1.34 
   1   1  -1   38.38    1.40 
  -1   1   1   35.35    1.37 
   1   1  -1   36.27    1.36 
   0  -1  -1  904.93   32.03 
   0  -1  -1  930.32   32.17 
   0  -1  -1  964.22   32.11 
   0  -1  -1  964.23   32.06 
   0  -1  -1  898.44   32.05 
   0  -1  -1  977.78   32.00 
   0  -1   1  905.32   32.04 
   0  -1   1  921.02   32.01 
   0  -1  -1  908.50   32.05 
   0  -1  -1  894.77   32.08 
   0   1   1  983.25   32.06 
   0   1  -1  915.06   32.30 
   0   1   1  931.15   32.07 
   0   1   1  905.97   32.04 
   0   1  -1  977.61   32.90 
   0   1   1  884.60   32.03 
   0   1   1 1000.00   32.13 
   0   1   1  860.30   32.87 
   0   1  -1  939.91   32.24 
   0   1   1  939.09   32.05 
   0   1   1  961.52   31.99 
   0   1   1  944.78   32.05 
  -1  -1  -1  306.44   11.04 
  -1  -1  -1  309.34   11.17 
   1  -1   1  322.97   10.99 
  -1  -1  -1  330.26   11.09 
  -1  -1  -1  320.80   11.10 
   1  -1   1  316.33   11.00 
  -1  -1  -1  330.34   11.03 
  -1  -1  -1  319.94   11.15 
  -1  -1  -1  329.30   11.10 
   1  -1   1  322.27   11.01 
   1  -1   1  324.97   11.00 
  -1  -1  -1  313.20   11.15 
   1  -1   1  330.14   11.01 
  -1  -1  -1  322.60   11.09 
   1   1   1  329.82   11.09 
  -1   1  -1  306.36   11.35 
   1   1   1  312.02   11.16 
   1   1   1  334.64   11.16 
   1   1   1  328.14   11.09 
   1   1   1  305.86   11.15 
   1   1   1  329.37   11.91 
  -1   1  -1  322.51   11.24 
   1   1   1  318.60   11.10 
   1   1   1  316.06   11.03 
   1   1   1  305.47   11.09 
  -2  -1  -1  277.93    9.35 
   2  -1   1  265.40    9.32 
   2  -1   1  264.18    9.24 
  -2  -1  -1  282.49    9.45 
   2  -1   1  276.77    9.28 
  -2  -1  -1  264.76    9.28 
  -2  -1  -1  270.54    9.26 
   2  -1   1  237.96    9.35 
  -2  -1  -1  249.90    9.44 
   2  -1   1  275.92    9.23 
   2   1   1  275.43    9.36 
   2   1   1  270.67    9.48 
   2   1   1  260.52    9.30 
   2   1   1  265.11    9.47 
  -2   1  -1  265.16    9.25 
   2   1   1  273.63    9.36 
   2   1   1  291.32    9.36 
   2   1   1  275.17   10.49 
  -2   1  -1  264.47    9.25 
   2   1   1  256.55    9.27 
   3  -1   1   31.36    1.14 
   3  -1   1   29.37    1.28 
  -3  -1  -1   28.95    1.13 
  -3  -1  -1   30.52    1.15 
   3  -1   1   29.75    1.12 
   3  -1   1   30.04    1.15 
  -3  -1  -1   30.60    1.09 
   3  -1   1   30.02    1.29 
   3  -1   1   28.75    1.19 
  -3  -1  -1   30.73    1.23 
   3  -1   1   30.46    1.11 
  -3  -1  -1   28.32    1.10 
   3   1   1   30.26    1.40 
  -3   1  -1   30.86    1.18 
   3   1   1   32.31    1.16 
   3   1   1   30.86    1.19 
   3   1   1   30.71    1.19 
   3   1   1   30.25    1.19 
  -3   1  -1   30.11    1.14 
   3   1   1   30.47    1.20 
   3   1   1   30.62    1.27 
  -4  -1  -1   15.69    0.59 
  -4  -1  -1   14.35    0.67 
  -4  -1  -1   14.19    0.75 
   4  -1   1   14.90    0.86 
  -4  -1  -1   14.22    0.61 
   4  -1   1   14.96    0.66 
   4  -1   1   14.28    0.62 
   4  -1   1   15.02    0.67 
   4  -1   1   14.33    0.85 
   4  -1   1   14.17    0.67 
   4  -1   1   13.92    0.60 
  -4  -1  -1   14.22    0.63 
   4  -1   1   14.19    0.59 
  -4   1  -1   15.33    0.71 
   4   1   1   14.85    0.62 
  -4   1  -1   15.58    0.58 
  -4   1  -1   14.76    0.59 
   4   1   1   16.10    0.72 
  -4   1  -1   14.40    0.55 
   4   1   1   15.47    0.73 
  -4   1  -1   16.22    0.56 
   4   1   1   15.14    0.70 
   5  -1   1    6.92    0.46 
   5  -1   1    7.16    0.45 
   5  -1   1    7.55    0.42 
   5  -1   1    6.63    0.45 
  -5  -1  -1    9.27    0.46 
  -5  -1  -1    7.53    0.39 
   5  -1   1    7.12    0.42 
  -5  -1  -1    7.70    0.36 
   5  -1   1    7.49    0.65 
  -5  -1  -1    7.14    0.44 
   5  -1   1    7.45    0.47 
   5  -1   1    7.42    0.39 
  -5  -1  -1    6.93    0.52 
   5   1   1    8.19    0.51 
  -5   1  -1    7.93    0.51 
   5   1   1    6.93    0.49 
  -5   1  -1    7.88    0.37 
  -5   1  -1    7.84    0.38 
   5   1   1    7.44    0.74 
  -5   1  -1    8.05    0.30 
   5   1   1    7.56    0.41 
  -5   1  -1    7.76    0.35 
  -5   1  -1    7.06    0.30 
   5   1   1    7.63    0.45 
   5   1   1    7.55    0.48 
  -5   1  -1    7.48    0.38 
  -6  -1  -1   20.71    0.92 
   6  -1   1   19.89    0.82 
   6  -1   1   17.30    0.91 
   6  -1   1   17.88    0.84 
   6  -1   1   16.77    0.90 
  -6  -1  -1   18.88    0.76 
  -6   1  -1   19.49    0.80 
  -6   1  -1   19.57    0.77 
   6   1   1   19.56    0.96 
   6   1   1   17.57    0.92 
  -6   1  -1   17.66    0.76 
   6   1   1   18.23    0.87 
   6   1   1   17.89    0.85 
  -6   1  -1   18.59    0.77 
  -7  -1  -1    5.41    0.31 
   7  -1   1    5.47    0.37 
  -7  -1  -1    5.26    0.29 
  -7  -1  -1    5.70    0.29 
   7  -1   1    5.25    0.37 
  -7  -1  -1    5.36    0.34 
  -7  -1  -1    5.63    0.31 
  -7  -1  -1    5.58    0.31 
   7  -1   1    5.37    0.31 
  -7  -1  -1    5.51    0.38 
  -7  -1  -1    5.80    0.37 
   7   1   1    5.04    0.37 
  -7   1  -1    4.73    0.26 
  -7   1  -1    5.31    0.32 
  -7   1  -1    5.30    0.26 
  -7   1  -1    5.34    0.64 
  -7   1  -1    5.08    0.29 
   7   1   1    5.60    0.30 
   7   1   1    5.58    0.31 
   7   1   1    4.65    0.38 
  -7   1  -1    5.12    0.31 
  -7   1  -1    5.05    0.25 
  -7   1  -1    5.26    0.23 
   7   1   1    5.35    0.36 
  -7   1  -1    5.09    0.30 
  -7   1  -1    5.33    0.27 
  -8  -1  -1    2.00    0.14 
  -8  -1  -1    2.22    0.16 
  -8  -1  -1    1.86    0.16 
  -8  -1  -1    1.91    0.13 
  -8  -1  -1    2.49    0.16 
  -8  -1  -1    1.87    0.16 
  -8  -1  -1    2.05    0.16 
   8  -1   1    1.96    0.16 
   8  -1   1    1.99    0.16 
  -8  -1  -1    1.71    0.14 
   8   1   1    1.87    0.14 
  -8   1  -1    2.14    0.12 
  -8   1  -1    2.17    0.16 
   8   1   1    1.82    0.21 
  -8   1  -1    1.92    0.15 
  -8   1  -1    2.10    0.15 
   8   1   1    1.96    0.20 
  -8   1  -1    2.09    0.15 
   8   1   1    1.92    0.14 
  -8   1  -1    2.06    0.13 
   8   1   1    1.89    0.16 
  -8  -2   1    3.16    0.26 
   8  -2  -1    3.68    0.21 
  -8  -2   1    3.47    0.21 
  -8  -2   1    3.36    0.21 
  -8  -2   1    3.70    0.22 
  -8  -2   1    3.28    0.24 
   8  -2  -1    3.52    0.21 
  -8  -2   1    3.60    0.22 
  -8  -2   1    3.32    0.25 
  -8  -2   1    3.85    0.22 
  -8  -2   1    3.41    0.20 
   8   2  -1    3.41    0.21 
  -8   2   1    3.57    0.16 
   8   2  -1    3.53    0.24 
   8   2  -1    3.55    0.27 
   8   2  -1    3.59    0.17 
  -8   2   1    3.27    0.20 
  -8   2   1    3.68    0.19 
  -8   2   1    3.91    0.21 
  -8   2   1    3.62    0.19 
  -8   2   1    3.68    0.19 
   8   2  -1    3.44    0.23 
   8   2  -1    3.42    0.26 
   7  -2  -1   20.13    0.87 
   7  -2  -1   17.15    0.84 
  -7  -2   1   20.48    0.82 
  -7  -2   1   18.54    0.86 
  -7  -2   1   18.61    0.77 
  -7  -2   1   18.97    0.88 
  -7  -2   1   19.69    0.79 
   7  -2  -1   19.19    0.78 
  -7  -2   1   19.40    0.79 
  -7  -2   1   19.16    0.78 
  -7  -2   1   19.49    0.79 
  -7  -2   1   19.23    0.81 
   7   2  -1   19.25    0.91 
  -7   2   1   19.02    0.78 
   7   2  -1   17.43    0.85 
  -7   2   1   19.88    1.21 
  -7   2   1   19.61    0.72 
  -7   2   1   19.29    0.75 
  -7   2   1   19.44    0.79 
  -7   2   1   18.50    0.75 
  -7   2   1   19.42    0.83 
   7   2  -1   20.68    0.79 
   7   2  -1   18.92    0.85 
  -7   2   1   18.87    0.76 
  -7   2   1   19.59    0.81 
  -7   2   1   18.58    0.72 
   7   2  -1   18.41    0.86 
   7   2  -1   19.34    0.83 
  -7   2   1   21.35    0.74 
  -7   2   1   20.02    0.79 
   6  -2  -1   11.86    0.61 
  -6  -2   1   12.04    0.54 
   6  -2  -1   12.17    0.58 
   6  -2  -1   12.38    0.58 
  -6  -2   1   11.85    0.58 
  -6  -2   1   12.18    0.67 
  -6  -2   1   12.51    0.63 
  -6   2   1   12.73    0.55 
  -6   2   1   12.33    0.54 
  -6   2   1   12.64    0.58 
   6   2  -1   11.95    0.61 
   6   2  -1   12.86    0.74 
   6   2  -1   11.96    0.62 
   6   2  -1   12.83    0.70 
  -6   2   1   11.85    0.55 
   6   2  -1   12.24    0.72 
   6   2  -1   12.76    0.67 
   6   2  -1   12.92    0.63 
   5  -2  -1   16.22    0.81 
   5  -2  -1   16.81    0.82 
  -5  -2   1   17.34    0.83 
  -5  -2   1   17.58    0.76 
  -5  -2   1   16.79    0.79 
   5  -2  -1   17.55    0.73 
   5  -2  -1   18.00    0.77 
   5  -2  -1   17.38    0.73 
   5  -2  -1   17.24    0.80 
   5  -2  -1   18.34    1.08 
  -5  -2   1   17.66    0.73 
   5  -2  -1   16.87    0.76 
  -5  -2   1   17.09    0.70 
  -5   2   1   17.93    0.71 
  -5   2   1   18.14    0.71 
   5   2  -1   17.86    0.81 
  -5   2   1   16.40    0.62 
   5   2  -1   17.12    0.85 
   5   2  -1   16.97    0.81 
   5   2  -1   18.23    0.85 
  -5   2   1   18.51    0.63 
   5   2  -1   16.82    0.86 
   5   2  -1   18.85    1.21 
   5   2  -1   16.68    0.85 
  -5   2   1   16.77    0.86 
   5   2  -1   17.70    0.77 
   5   2  -1   17.99    0.77 
  -5   2   1   17.23    0.73 
  -4  -2   1   92.35    3.36 
  -4  -2   1   92.58    3.33 
   4  -2  -1   91.36    3.26 
   4  -2  -1   93.22    3.32 
  -4  -2   1   95.93    3.30 
   4  -2  -1   90.17    3.32 
  -4  -2   1   88.84    3.36 
  -4  -2   1   91.66    3.38 
  -4  -2   1   96.30    3.29 
   4  -2  -1   88.72    3.25 
  -4  -2   1   93.28    3.30 
   4  -2  -1   92.74    3.35 
  -4  -2   1   91.07    3.71 
  -4  -2   1   91.57    3.38 
   4  -2  -1   92.69    3.29 
   4  -2  -1   83.35    3.54 
  -4  -2   1   93.28    3.29 
  -4  -2   1   96.26    3.24 
   4  -2  -1   96.73    3.59 
   4   2  -1   93.78    3.33 
   4   2  -1   90.54    3.38 
   4   2  -1   86.47    3.37 
   4   2  -1   89.44    3.71 
   4   2  -1   92.21    3.30 
   4   2  -1   98.23    3.39 
  -4   2   1   95.81    3.40 
  -4   2   1   91.32    3.20 
  -4   2   1   92.87    3.25 
   4   2  -1   89.34    3.36 
   4   2  -1   92.13    3.29 
  -4   2   1   94.64    3.21 
  -3  -2   1   88.32    3.31 
  -3  -2   1   79.98    2.97 
  -3  -2   1   80.25    3.00 
   3  -2  -1   82.10    3.00 
   3  -2  -1   86.36    3.05 
   3  -2  -1   85.06    2.96 
   3  -2  -1   80.57    3.15 
   3  -2  -1   80.52    3.15 
  -3  -2   1   83.01    3.04 
  -3  -2   1   82.61    3.04 
   3  -2  -1   84.23    2.98 
   3  -2  -1   83.57    2.96 
  -3  -2   1   85.35    3.03 
   3  -2  -1   74.22    3.12 
  -3   2   1   82.38    3.04 
   3   2  -1   84.48    3.03 
   3   2  -1   91.51    3.10 
   3   2  -1   80.63    2.96 
   3   2  -1   83.38    2.99 
   3   2  -1   83.81    2.98 
  -3   2   1   87.97    3.80 
   3   2  -1   82.59    3.09 
  -3   2   1   87.97    2.96 
   3   2  -1   92.13    3.33 
   2  -2  -1   87.07    3.05 
  -2  -2   1   78.83    2.94 
  -2  -2   1   86.07    2.94 
   2  -2  -1   82.66    2.90 
  -2  -2   1   85.54    2.92 
   2  -2  -1   88.12    3.02 
  -2  -2   1   82.02    2.94 
   2  -2  -1   74.87    2.93 
  -2  -2   1   84.27    3.01 
   2  -2  -1   83.61    2.89 
   2  -2  -1   79.62    2.94 
  -2  -2   1   82.46    3.13 
   2   2  -1   81.59    2.99 
   2   2  -1   79.30    4.46 
  -2   2   1   82.87    2.89 
  -2   2   1   80.91    2.94 
  -2   2   1   81.76    2.91 
   2   2  -1   79.48    2.98 
  -2   2   1   88.26    3.57 
   2   2  -1   85.11    2.92 
  -2   2   1   79.72    2.88 
   2   2  -1   79.59    2.92 
  -1  -2   1  253.25    8.77 
  -1  -2   1  248.84    8.62 
   1  -2  -1  252.67    8.60 
  -1  -2   1  254.77    8.74 
  -1  -2   1  236.53    8.66 
   1  -2  -1  257.84    8.61 
   1  -2  -1  254.94    8.65 
   1  -2  -1  258.44    8.71 
  -1  -2   1  246.50    8.66 
  -1  -2   1  245.53    8.61 
   1  -2  -1  254.53    8.66 
  -1  -2   1  233.84    8.62 
   1   2  -1  259.85   10.15 
   1   2  -1  238.04    8.71 
  -1   2   1  258.22    8.73 
   1   2  -1  253.06    8.66 
  -1   2   1  278.59   10.45 
   1   2  -1  222.23    8.62 
  -1   2   1  251.15    8.73 
  -1   2   1  236.50    8.79 
  -1   2   1  255.80    8.69 
  -1   2   1  247.58    8.62 
   1   2  -1  256.63    8.80 
   1   2  -1  244.04    8.62 
  -1   2   1  254.78    9.16 
   1   2  -1  233.18    8.69 
   0  -2  -1  307.56   10.59 
   0  -2   1  300.05   10.59 
   0  -2   1  316.57   10.61 
   0  -2   1  318.01   10.61 
   0  -2   1  321.82   10.56 
   0  -2   1  294.55   10.55 
   0  -2  -1  299.82   10.60 
   0  -2  -1  314.40   10.71 
   0  -2   1  302.49   10.59 
   0  -2   1  305.48   10.62 
   0  -2  -1  292.87   10.64 
   0  -2  -1  295.25   10.65 
   0  -2   1  311.83   10.61 
   0  -2   1  310.37   10.59 
   0  -2  -1  307.10   10.60 
   0   2   1  311.84   10.68 
   0   2   1  297.98   10.81 
   0   2  -1  305.18   10.57 
   0   2   1  325.56   10.65 
   0   2   1  300.06   10.60 
   0   2  -1  306.09   10.58 
   0   2   1  296.10   10.62 
   0   2   1  312.93   10.62 
   0   2   1  310.54   10.67 
   0   2  -1  307.94   10.60 
   0   2   1  292.19   10.74 
   0   2   1  324.40   12.16 
   0   2  -1  311.38   10.99 
   0   2   1  310.71   10.65 
   0   2  -1  314.79   10.89 
   0   2  -1  302.35   11.81 
  -1  -2  -1   45.02    1.66 
  -1  -2  -1   43.81    1.59 
  -1  -2  -1   42.46    1.65 
  -1  -2  -1   46.60    1.58 
  -1  -2  -1   43.51    1.59 
  -1  -2  -1   44.01    1.74 
  -1  -2  -1   43.78    1.72 
   1   2   1   42.85    1.77 
   1   2   1   43.16    1.57 
   1   2   1   41.61    1.65 
   1   2   1   44.87    1.64 
  -1   2  -1   45.55    1.88 
  -1   2  -1   42.05    2.01 
  -1   2  -1   43.61    2.53 
   1   2   1   43.62    2.74 
   2  -2   1   31.43    1.04 
   2  -2   1   28.58    1.05 
   2  -2   1   28.71    1.04 
   2  -2   1   28.31    1.02 
  -2  -2  -1   28.65    1.09 
  -2  -2  -1   29.71    1.12 
  -2  -2  -1   28.87    1.31 
  -2  -2  -1   27.74    1.13 
  -2   2  -1   29.10    1.64 
   2   2   1   27.92    1.17 
   2   2   1   30.15    2.32 
  -2   2  -1   30.02    1.04 
   2   2   1   27.67    1.13 
  -2   2  -1   28.71    1.42 
   2   2   1   31.13    1.35 
  -2   2  -1   27.60    1.04 
   2   2   1   29.56    1.08 
  -3  -2  -1   34.54    1.33 
   3  -2   1   35.22    1.32 
   3  -2   1   35.81    1.28 
   3  -2   1   35.26    1.25 
   3  -2   1   35.29    1.41 
  -3  -2  -1   31.98    1.36 
  -3  -2  -1   35.53    1.31 
  -3  -2  -1   36.62    1.39 
   3  -2   1   34.78    1.27 
  -3  -2  -1   34.24    1.37 
  -3  -2  -1   36.85    1.31 
  -3  -2  -1   36.38    1.36 
  -3  -2  -1   37.12    1.63 
  -3  -2  -1   35.99    1.26 
   3   2   1   34.99    1.37 
   3   2   1   30.21    3.02 
   3   2   1   35.75    1.31 
   3   2   1   34.30    1.39 
  -3   2  -1   34.86    1.24 
   3   2   1   31.09    1.42 
  -3   2  -1   36.60    1.29 
   3   2   1   36.20    1.40 
  -3   2  -1   35.43    1.30 
   3   2   1   35.31    1.34 
   3   2   1   35.78    1.32 
  -3   2  -1   35.62    1.32 
  -3   2  -1   35.80    1.41 
   3   2   1   35.68    1.66 
  -3   2  -1   34.16    1.46 
  -4  -2  -1    2.51    0.16 
   4  -2   1    2.54    0.21 
  -4  -2  -1    2.70    0.27 
  -4  -2  -1    2.38    0.21 
  -4  -2  -1    2.75    0.24 
   4  -2   1    2.61    0.18 
  -4  -2  -1    2.88    0.20 
   4   2   1    2.46    0.22 
   4   2   1    2.63    0.25 
  -4   2  -1    2.57    0.29 
   4   2   1    2.30    0.26 
  -4   2  -1    2.28    0.22 
  -4   2  -1    2.61    0.15 
   4   2   1    2.59    0.26 
   4   2   1    2.48    0.23 
   4   2   1    2.75    0.29 
   4   2   1    2.60    0.28 
   4   2   1    2.39    0.41 
   5  -2   1   40.08    1.55 
  -5  -2  -1   39.05    1.52 
   5  -2   1   40.81    1.51 
  -5  -2  -1   41.18    1.48 
  -5  -2  -1   41.22    1.64 
  -5  -2  -1   38.99    1.56 
  -5   2  -1   38.08    1.62 
   5   2   1   36.23    2.06 
   5   2   1   40.65    1.69 
   5   2   1   38.81    1.57 
  -5   2  -1   40.79    1.47 
  -5   2  -1   41.60    1.50 
  -5   2  -1   41.09    1.80 
   5   2   1   40.70    1.57 
   5   2   1   38.73    1.60 
   5   2   1   42.50    1.67 
  -5   2  -1   40.28    1.44 
   5   2   1   41.91    1.57 
  -5   2  -1   38.99    1.91 
   5   2   1   42.08    1.72 
  -6  -2  -1  108.32    4.02 
  -6  -2  -1  108.50    4.05 
  -6  -2  -1  110.91    4.03 
  -6  -2  -1  113.43    4.11 
  -6  -2  -1  116.04    4.07 
  -6  -2  -1  118.34    4.09 
  -6  -2  -1  113.81    4.03 
  -6  -2  -1  106.93    4.06 
  -6  -2  -1  117.64    4.16 
  -6  -2  -1  106.41    4.04 
  -6  -2  -1  113.13    3.95 
   6  -2   1  114.50    4.06 
  -6  -2  -1  111.95    4.02 
  -6  -2  -1  112.64    4.14 
   6   2   1  113.10    4.02 
  -6   2  -1  117.67    4.36 
  -6   2  -1  108.72    3.97 
   6   2   1  117.49    4.18 
  -6   2  -1  119.90    4.37 
   6   2   1  113.12    4.11 
  -6   2  -1  122.07    4.39 
  -6   2  -1  112.18    4.01 
   6   2   1  113.89    4.03 
   6   2   1  114.84    4.23 
   6   2   1  113.69    4.12 
   6   2   1  112.73    4.02 
   6   2   1  114.96    4.08 
  -6   2  -1  114.53    3.95 
  -6   2  -1  116.21    4.02 
  -6   2  -1  113.55    3.99 
   6   2   1  106.64    4.24 
   6   2   1  112.77    4.11 
  -6   2  -1  117.34    4.04 
   6   2   1  119.31    4.13 
  -7  -2  -1    1.01    0.20 
  -7  -2  -1    1.06    0.17 
  -7  -2  -1    0.80    0.15 
  -7  -2  -1    0.79    0.59 
  -7  -2  -1    0.81    0.22 
  -7  -2  -1    0.83    0.16 
  -7  -2  -1    0.69    0.18 
  -7  -2  -1    0.84    0.19 
  -7  -2  -1    0.99    0.12 
  -7  -2  -1    0.89    0.17 
  -7  -2  -1    0.67    0.21 
   7   2   1    0.96    0.21 
   7   2   1    0.83    0.19 
  -7   2  -1    0.74    0.14 
   7   2   1    0.65    0.28 
  -7   2  -1    1.01    0.14 
   7   2   1    0.92    0.17 
  -7   2  -1    0.73    0.09 
   7   2   1    0.74    0.14 
   7   2   1    0.90    0.22 
  -7   2  -1    0.98    0.12 
  -7   2  -1    0.85    0.13 
  -8  -2  -1    3.36    0.17 
  -8  -2  -1    3.35    0.17 
  -8  -2  -1    3.17    0.17 
  -8  -2  -1    3.57    0.21 
   8  -2   1    3.25    0.18 
  -8  -2  -1    3.04    0.21 
  -8  -2  -1    3.40    0.19 
  -8  -2  -1    3.24    0.18 
  -8   2  -1    3.41    0.17 
  -8   2  -1    3.14    0.16 
   8   2   1    3.23    0.22 
  -8   2  -1    3.37    0.17 
   8   2   1    3.03    0.15 
   8   2   1    3.29    0.22 
  -8   2  -1    3.37    0.14 
  -8   2  -1    3.26    0.16 
   8   2   1    3.41    0.19 
  -8  -3   1    1.59    0.38 
  -8  -3   1    1.35    0.17 
  -8  -3   1    1.40    0.09 
  -8  -3   1    1.77    0.14 
   8  -3  -1    1.41    0.13 
  -8  -3   1    1.39    0.14 
  -8  -3   1    1.39    0.18 
  -8  -3   1    1.38    0.14 
  -8  -3   1    1.98    0.16 
   8   3  -1    1.27    0.11 
   8   3  -1    1.53    0.13 
  -8   3   1    1.50    0.08 
  -8   3   1    1.53    0.11 
  -8   3   1    1.47    0.10 
   8   3  -1    1.54    0.15 
   8   3  -1    1.66    0.17 
  -8   3   1    1.61    0.10 
   8   3  -1    1.55    0.16 
   8   3  -1    1.67    0.09 
   8   3  -1    1.55    0.17 
  -7  -3   1    4.39    0.29 
  -7  -3   1    3.95    0.36 
  -7  -3   1    4.42    0.41 
  -7  -3   1    4.08    0.30 
   7   3  -1    4.18    0.32 
  -7   3   1    4.28    0.21 
  -7   3   1    3.84    0.24 
   7   3  -1    4.36    0.25 
   7   3  -1    3.99    0.27 
   7   3  -1    4.29    0.30 
  -7   3   1    3.88    0.25 
   7   3  -1    4.14    0.19 
   7   3  -1    3.00    1.03 
  -7   3   1    3.99    0.22 
  -7   3   1    4.01    0.22 
   7   3  -1    3.95    0.31 
  -7   3   1    4.15    0.24 
  -7   3   1    3.93    0.23 
   7   3  -1    4.42    0.32 
  -7   3   1    4.18    0.19 
  -6  -3   1    7.50    0.44 
   6  -3  -1    7.72    0.40 
  -6  -3   1    7.29    0.47 
  -6  -3   1    6.96    0.41 
  -6  -3   1    6.97    0.36 
  -6  -3   1    7.08    0.31 
  -6  -3   1    7.06    0.50 
  -6  -3   1    6.85    0.44 
  -6  -3   1    7.16    0.43 
  -6  -3   1    6.90    0.42 
   6   3  -1    7.44    0.45 
  -6   3   1    7.19    0.36 
  -6   3   1    7.27    0.36 
  -6   3   1    7.94    0.49 
  -6   3   1    7.47    0.34 
  -6   3   1    7.09    0.33 
  -6   3   1    7.63    0.34 
   6   3  -1    6.95    0.45 
   6   3  -1    7.47    0.32 
   6   3  -1    7.39    0.44 
   6   3  -1    6.86    0.44 
  -6   3   1    7.94    0.40 
   6   3  -1    7.08    0.53 
   6   3  -1    7.49    0.43 
   6   3  -1    7.27    0.45 
  -6   3   1    7.51    0.57 
  -6   3   1    7.96    0.56 
   6   3  -1    6.85    0.40 
   6   3  -1    7.25    0.37 
   6   3  -1    7.26    0.48 
  -6   3   1    7.54    0.33 
  -6   3   1    7.13    0.30 
  -6   3   1    7.29    0.36 
  -5  -3   1   16.73    0.74 
  -5  -3   1   16.19    0.75 
  -5  -3   1   18.35    1.47 
   5  -3  -1   17.48    0.71 
  -5  -3   1   16.54    0.84 
  -5  -3   1   16.15    0.75 
  -5  -3   1   16.54    0.80 
  -5  -3   1   16.59    0.86 
   5  -3  -1   16.98    0.74 
  -5  -3   1   15.90    0.73 
  -5  -3   1   17.44    0.76 
   5   3  -1   16.96    0.75 
  -5   3   1   15.63    0.82 
   5   3  -1   18.08    0.81 
  -5   3   1   17.16    0.98 
  -5   3   1   17.70    0.67 
  -5   3   1   16.44    0.66 
  -5   3   1   16.89    0.64 
  -5   3   1   16.85    0.71 
   5   3  -1   18.74    0.88 
  -5   3   1   16.18    0.68 
   5   3  -1   16.35    0.71 
  -5   3   1   16.80    1.07 
  -4  -3   1   16.13    0.79 
  -4  -3   1   16.57    0.71 
  -4  -3   1   14.96    0.78 
  -4  -3   1   16.64    0.78 
  -4  -3   1   15.95    0.71 
   4  -3  -1   16.70    0.68 
   4  -3  -1   16.37    0.65 
   4  -3  -1   15.84    0.71 
  -4  -3   1   15.46    0.72 
  -4  -3   1   15.69    1.07 
  -4  -3   1   15.87    0.69 
  -4  -3   1   15.71    0.71 
  -4  -3   1   16.30    0.70 
  -4  -3   1   16.01    0.71 
  -4   3   1   17.00    0.91 
   4   3  -1   15.95    0.66 
  -4   3   1   15.87    0.76 
   4   3  -1   16.87    0.78 
   4   3  -1   15.64    0.69 
  -4   3   1   15.87    0.61 
  -4   3   1   16.07    0.62 
  -4   3   1   16.35    0.66 
   4   3  -1   15.11    0.71 
  -3  -3   1  416.77   14.26 
  -3  -3   1  404.42   14.18 
  -3  -3   1  423.87   14.22 
  -3  -3   1  404.94   14.17 
  -3  -3   1  391.43   14.26 
   3  -3  -1  404.45   14.15 
   3  -3  -1  428.81   14.19 
   3  -3  -1  422.83   14.15 
  -3  -3   1  405.85   14.28 
  -3  -3   1  394.10   14.23 
  -3  -3   1  399.22   14.20 
  -3  -3   1  407.99   14.20 
  -3  -3   1  434.41   14.63 
   3  -3  -1  404.31   14.38 
   3   3  -1  411.64   14.20 
   3   3  -1  421.94   14.35 
   3   3  -1  400.33   14.24 
  -3   3   1  418.35   14.12 
  -3   3   1  407.70   14.25 
  -3   3   1  422.21   14.42 
   3   3  -1  428.39   14.22 
   3   3  -1  387.86   14.17 
  -3   3   1  395.49   14.19 
   2  -3  -1   10.11    0.47 
  -2  -3   1   10.78    0.67 
  -2  -3   1    9.71    0.48 
   2  -3  -1   10.29    0.55 
  -2  -3   1   10.21    0.48 
  -2  -3   1    9.74    0.45 
   2  -3  -1    9.57    0.41 
  -2  -3   1    9.22    0.42 
  -2  -3   1    9.83    0.48 
  -2  -3   1   10.36    0.46 
   2  -3  -1    9.85    0.40 
   2  -3  -1   10.64    0.44 
  -2  -3   1   10.07    0.48 
  -2  -3   1   10.47    0.55 
  -2   3   1    9.67    0.40 
  -2   3   1    9.95    0.44 
   2   3  -1   10.22    0.46 
  -2   3   1    9.62    0.48 
   2   3  -1   10.45    1.58 
  -2   3   1   10.15    0.98 
  -2   3   1    9.36    0.58 
   2   3  -1    9.94    0.43 
   2   3  -1   10.66    0.72 
   2   3  -1    9.76    0.52 
   1  -3  -1   11.72    0.59 
  -1  -3   1   11.69    0.61 
  -1  -3   1   11.75    0.54 
   1  -3  -1   11.64    0.53 
   1  -3  -1   10.65    0.45 
   1  -3  -1   11.72    0.49 
  -1  -3   1   11.20    0.62 
   1  -3  -1   11.11    0.61 
   1  -3  -1   12.10    0.48 
  -1  -3   1   11.13    0.46 
  -1  -3   1   11.27    0.49 
  -1  -3   1   11.33    0.50 
   1  -3  -1   11.53    0.46 
  -1  -3   1   11.09    0.47 
  -1   3   1   11.71    0.53 
   1   3  -1   12.03    0.58 
  -1   3   1   11.64    1.58 
   1   3  -1   11.32    0.53 
  -1   3   1   11.69    0.99 
   1   3  -1   11.12    0.57 
   1   3  -1   11.57    0.89 
  -1   3   1   11.07    0.49 
   1   3  -1   10.90    0.49 
   1   3  -1   11.36    0.80 
   1   3  -1   11.29    1.52 
   0  -3  -1   15.94    0.75 
   0  -3  -1   15.78    0.66 
   0  -3  -1   16.67    0.65 
   0  -3  -1   16.85    0.78 
   0  -3   1   16.04    0.64 
   0  -3  -1   16.05    0.71 
   0  -3  -1   16.81    0.81 
   0  -3  -1   16.38    0.64 
   0  -3  -1   15.41    0.62 
   0  -3   1   15.91    0.61 
   0  -3   1   16.30    0.61 
   0  -3   1   17.34    0.59 
   0  -3   1   17.13    0.70 
   0   3  -1   16.18    0.62 
   0   3   1   15.23    0.65 
   0   3  -1   16.74    0.98 
   0   3  -1   15.47    0.65 
   0   3   1   16.56    1.85 
   0   3  -1   15.42    0.62 
   0   3  -1   16.29    1.73 
   0   3   1   16.13    1.17 
   0   3   1   16.03    0.70 
   0   3   1   14.84    0.86 
   0   3   1   15.71    0.81 
   0   3  -1   16.23    1.09 
   0   3  -1   15.58    0.64 
  -1  -3  -1   31.67    1.24 
   1  -3   1   32.05    1.14 
  -1  -3  -1   33.22    1.33 
  -1  -3  -1   31.08    1.21 
  -1  -3  -1   32.81    1.44 
  -1  -3  -1   32.33    1.25 
  -1  -3  -1   31.11    1.22 
  -1  -3  -1   32.74    1.24 
  -1  -3  -1   33.20    1.26 
   1   3   1   32.54    1.56 
   1   3   1   33.14    1.23 
   1   3   1   30.89    1.30 
  -1   3  -1   34.80    2.62 
   1   3   1   32.10    1.21 
   1   3   1   32.63    2.73 
  -1   3  -1   33.15    1.82 
  -1   3  -1   33.25    1.15 
  -1   3  -1   34.80    1.63 
  -1   3  -1   32.48    1.15 
  -2  -3  -1   20.78    0.85 
  -2  -3  -1   20.04    1.07 
  -2  -3  -1   20.41    0.80 
  -2  -3  -1   20.16    0.79 
  -2  -3  -1   19.44    0.99 
  -2  -3  -1   19.71    0.85 
  -2  -3  -1   21.94    0.88 
  -2  -3  -1   18.31    0.78 
  -2  -3  -1   20.26    0.82 
  -2   3  -1   20.16    0.72 
   2   3   1   19.62    0.76 
   2   3   1   20.75    0.81 
   2   3   1   20.46    0.79 
   2   3   1   20.37    0.92 
  -2   3  -1   19.33    1.41 
   2   3   1   19.54    0.85 
   2   3   1   20.21    2.22 
  -2   3  -1   20.08    1.20 
   2   3   1   20.13    0.81 
  -2   3  -1   20.53    0.72 
   2   3   1   18.98    0.84 
  -3  -3  -1  109.13    3.85 
  -3  -3  -1  111.82    4.28 
  -3  -3  -1  109.21    3.85 
  -3  -3  -1  114.89    3.94 
   3  -3   1  106.25    3.79 
  -3  -3  -1  106.48    3.93 
  -3  -3  -1  106.47    3.86 
   3  -3   1  110.16    3.91 
  -3  -3  -1  104.66    3.95 
  -3  -3  -1  105.70    3.94 
  -3  -3  -1  107.26    3.85 
   3   3   1  108.88    3.94 
   3   3   1  104.07    3.91 
   3   3   1  107.09    3.83 
  -3   3  -1  110.60    3.80 
  -3   3  -1  110.83    3.79 
   3   3   1  107.15    3.85 
   3   3   1  111.35    3.94 
   3   3   1  111.25    3.89 
  -4  -3  -1   36.73    1.46 
  -4  -3  -1   38.63    1.92 
   4  -3   1   37.68    1.44 
   4  -3   1   39.61    1.40 
  -4  -3  -1   36.40    1.54 
  -4  -3  -1   37.84    1.54 
  -4  -3  -1   38.55    1.50 
  -4  -3  -1   38.10    1.57 
  -4  -3  -1   39.56    1.45 
  -4  -3  -1   37.77    1.46 
   4   3   1   36.32    1.54 
   4   3   1   38.36    1.51 
  -4   3  -1   38.03    1.41 
  -4   3  -1   37.50    1.38 
   4   3   1   36.41    1.55 
   4   3   1   39.07    1.57 
   4   3   1   38.26    1.45 
   4   3   1   38.12    1.47 
  -4   3  -1   38.17    1.42 
  -5  -3  -1   27.31    1.20 
  -5  -3  -1   28.11    1.10 
  -5  -3  -1   26.46    1.04 
   5  -3   1   25.90    1.06 
  -5  -3  -1   26.26    1.13 
   5   3   1   26.79    1.11 
  -5   3  -1   25.49    1.01 
   5   3   1   25.76    1.21 
   5   3   1   26.87    1.22 
   5   3   1   26.13    1.15 
  -5   3  -1   27.80    1.13 
   5   3   1   26.40    1.09 
  -6  -3  -1    2.87    0.33 
  -6  -3  -1    3.26    0.30 
  -6  -3  -1    3.46    0.34 
  -6  -3  -1    2.99    0.37 
  -6  -3  -1    3.17    0.24 
  -6  -3  -1    2.54    0.25 
  -6  -3  -1    2.50    0.29 
  -6  -3  -1    3.13    0.28 
  -6  -3  -1    3.27    0.29 
  -6  -3  -1    3.35    0.55 
  -6  -3  -1    3.44    0.41 
   6  -3   1    3.47    0.25 
  -6   3  -1    3.45    0.21 
  -6   3  -1    3.32    0.22 
   6   3   1    3.28    0.31 
   6   3   1    3.43    0.39 
   6   3   1    3.20    0.18 
   6   3   1    3.32    0.32 
   6   3   1    3.04    0.28 
  -6   3  -1    3.35    0.20 
  -6   3  -1    3.33    0.18 
   6   3   1    3.37    0.25 
   6   3   1    3.08    0.29 
  -6   3  -1    3.13    0.15 
  -7  -3  -1    6.30    0.36 
  -7  -3  -1    6.39    0.31 
  -7  -3  -1    6.47    0.35 
  -7  -3  -1    5.92    0.31 
  -7  -3  -1    6.57    0.33 
  -7  -3  -1    6.29    0.32 
  -7  -3  -1    6.26    0.34 
  -7  -3  -1    6.44    0.36 
  -7  -3  -1    6.28    0.39 
  -7  -3  -1    5.92    0.39 
   7   3   1    6.58    0.32 
  -7   3  -1    6.90    0.27 
   7   3   1    6.27    0.38 
   7   3   1    5.77    0.37 
   7   3   1    6.92    0.37 
   7   3   1    6.31    0.34 
  -7   3  -1    6.39    0.29 
   7   3   1    6.41    0.27 
  -7   3  -1    6.37    0.27 
  -7   3  -1    6.00    0.32 
  -7   3  -1    6.35    0.28 
  -7  -4   1   12.36    0.69 
  -7  -4   1   13.26    0.60 
  -7  -4   1   13.29    0.57 
  -7  -4   1   13.91    0.57 
  -7  -4   1   13.66    0.58 
   7   4  -1   14.17    0.52 
   7   4  -1   13.71    0.60 
   7   4  -1   14.13    0.49 
  -7   4   1   13.28    0.52 
   7   4  -1   14.12    0.61 
  -7   4   1   13.72    0.52 
  -7   4   1   13.21    0.51 
   7   4  -1   13.82    0.59 
  -7   4   1   13.71    0.51 
  -6  -4   1   21.59    0.84 
  -6  -4   1   22.77    0.90 
  -6  -4   1   21.75    0.79 
  -6  -4   1   20.90    0.90 
  -6  -4   1   21.55    0.91 
   6   4  -1   21.93    1.01 
   6   4  -1   22.14    0.92 
  -6   4   1   21.19    0.82 
  -6   4   1   21.16    0.82 
   6   4  -1   22.17    0.96 
  -6   4   1   20.47    0.81 
   6   4  -1   21.20    0.91 
  -6   4   1   20.87    0.85 
   6   4  -1   21.13    0.84 
  -6   4   1   20.99    0.77 
   6   4  -1   20.61    0.89 
   6   4  -1   21.54    0.83 
  -6   4   1   21.81    0.81 
  -6   4   1   21.26    0.80 
  -6   4   1   21.20    0.79 
   6   4  -1   21.09    0.85 
   5  -4  -1    5.12    0.32 
  -5  -4   1    4.68    0.35 
  -5  -4   1    5.42    0.35 
  -5  -4   1    5.58    0.37 
  -5  -4   1    4.84    0.39 
  -5  -4   1    5.01    0.43 
   5  -4  -1    5.21    0.30 
  -5  -4   1    5.98    0.46 
  -5  -4   1    4.21    0.30 
  -5  -4   1    5.05    0.36 
  -5  -4   1    5.01    0.36 
  -5  -4   1    5.07    0.34 
  -5  -4   1    5.08    0.36 
  -5  -4   1    3.66    0.56 
   5   4  -1    4.13    0.38 
  -5   4   1    4.94    0.26 
   5   4  -1    5.39    0.29 
   5   4  -1    3.19    0.37 
   5   4  -1    5.04    0.36 
  -5   4   1    5.38    0.30 
   5   4  -1    5.37    0.33 
   5   4  -1    5.01    0.41 
  -5   4   1    5.19    0.27 
   5   4  -1    3.65    0.58 
  -5   4   1    5.13    0.24 
  -4  -4   1    1.77    0.21 
  -4  -4   1    1.57    0.24 
  -4  -4   1    1.72    0.21 
  -4  -4   1    1.65    0.20 
  -4  -4   1    1.22    0.20 
  -4  -4   1    1.58    0.29 
  -4  -4   1    1.79    0.24 
  -4  -4   1    1.05    0.38 
   4  -4  -1    2.08    0.18 
  -4  -4   1    1.57    0.27 
  -4  -4   1    1.75    0.22 
  -4  -4   1    1.43    0.23 
  -4   4   1    1.65    0.22 
   4   4  -1    1.23    0.20 
   4   4  -1    1.38    0.34 
  -4   4   1    1.64    0.16 
  -4   4   1    1.69    0.11 
   4   4  -1    1.61    0.25 
  -4   4   1    1.68    0.14 
  -4   4   1    1.67    0.35 
   4   4  -1    1.59    0.19 
  -3  -4   1   10.23    0.52 
  -3  -4   1   11.07    0.51 
  -3  -4   1   10.75    0.60 
  -3  -4   1   10.83    0.59 
  -3  -4   1   10.79    0.53 
  -3  -4   1   10.78    0.59 
   3  -4  -1   10.71    0.51 
  -3  -4   1   10.57    0.53 
  -3  -4   1   10.51    0.83 
  -3  -4   1   11.12    0.50 
   3  -4  -1   10.09    0.46 
   3   4  -1   10.47    0.54 
  -3   4   1   10.62    0.55 
   3   4  -1   11.48    0.66 
  -3   4   1   11.02    0.50 
   3   4  -1   10.33    0.89 
   3   4  -1    9.71    0.50 
  -3   4   1   10.37    0.61 
  -3   4   1   10.47    0.46 
  -3   4   1   10.70    0.42 
   3   4  -1   10.30    0.49 
   3   4  -1   10.14    0.53 
  -2  -4   1   21.58    0.95 
  -2  -4   1   23.37    0.98 
  -2  -4   1   22.21    0.92 
  -2  -4   1   22.47    0.89 
  -2  -4   1   23.44    0.97 
   2  -4  -1   22.96    0.87 
   2  -4  -1   22.33    1.07 
  -2  -4   1   21.23    0.91 
  -2  -4   1   22.20    1.20 
  -2  -4   1   22.74    0.89 
   2  -4  -1   23.58    0.91 
  -2  -4   1   22.27    0.92 
  -2   4   1   23.52    0.84 
  -2   4   1   22.78    0.91 
   2   4  -1   22.38    1.44 
  -2   4   1   22.49    1.09 
   2   4  -1   23.02    0.95 
   2   4  -1   22.18    0.89 
   2   4  -1   23.43    1.14 
  -2   4   1   22.81    0.96 
   2   4  -1   22.82    1.02 
   1  -4  -1   67.28    2.49 
  -1  -4   1   71.46    2.53 
  -1  -4   1   68.17    2.58 
   1  -4  -1   69.60    2.73 
  -1  -4   1   70.02    2.79 
  -1  -4   1   70.74    2.77 
   1  -4  -1   71.75    2.53 
  -1  -4   1   71.74    2.57 
   1  -4  -1   72.88    2.52 
  -1  -4   1   71.91    2.51 
  -1  -4   1   70.25    2.51 
  -1  -4   1   62.59    2.54 
  -1  -4   1   72.72    2.57 
   1  -4  -1   72.11    2.55 
  -1  -4   1   70.47    2.55 
   1   4  -1   68.27    4.86 
   1   4  -1   71.04    2.46 
  -1   4   1   60.46    5.21 
  -1   4   1   71.34    2.49 
   1   4  -1   72.68    2.58 
   1   4  -1   74.49    3.17 
   1   4  -1   76.00    2.95 
   1   4  -1   72.32    2.51 
  -1   4   1   68.14    2.79 
   1   4  -1   74.68    2.63 
  -1   4   1   73.31    2.63 
   0  -4  -1   97.74    3.43 
   0  -4  -1  100.90    3.45 
   0  -4  -1   91.52    3.36 
   0  -4   1   90.88    3.35 
   0  -4  -1  100.17    3.40 
   0  -4  -1   96.05    3.42 
   0  -4  -1   93.40    3.35 
   0  -4   1   95.99    3.52 
   0  -4   1   96.78    3.38 
   0  -4   1   98.40    3.34 
   0  -4  -1   89.86    3.61 
   0  -4  -1   98.11    3.67 
   0  -4  -1   95.06    3.38 
   0   4   1   95.55    3.50 
   0   4  -1   97.32    4.62 
   0   4  -1   95.27    3.39 
   0   4   1  100.34    4.49 
   0   4  -1   92.17    3.42 
   0   4  -1   92.46    3.33 
   0   4  -1   94.98    3.55 
   0   4  -1   98.12    3.42 
   0   4  -1   98.26    3.99 
   0   4  -1   92.04    5.73 
   0   4   1   95.02    6.02 
   0   4   1   93.80    3.36 
   1  -4   1  103.21    3.70 
  -1  -4  -1  105.87    3.81 
  -1  -4  -1  108.41    3.82 
  -1  -4  -1  112.16    4.11 
  -1  -4  -1  111.23    3.84 
  -1  -4  -1  104.53    3.74 
  -1  -4  -1  109.18    3.81 
   1  -4   1  107.39    3.79 
  -1  -4  -1  107.98    3.73 
  -1  -4  -1  103.94    3.77 
  -1  -4  -1  103.56    3.76 
   1   4   1  111.37    3.91 
  -1   4  -1  110.97    3.71 
   1   4   1  107.61    3.80 
   1   4   1  105.98    4.10 
   1   4   1  100.87    3.76 
  -1   4  -1  107.40    3.70 
   1   4   1  107.95    3.73 
   1   4   1  100.87    3.73 
  -1   4  -1   96.23    4.66 
  -1   4  -1   97.72    4.31 
   1   4   1  106.57    3.84 
  -2  -4  -1   65.67    2.80 
  -2  -4  -1   65.26    2.43 
  -2  -4  -1   64.30    2.48 
  -2  -4  -1   65.19    2.39 
  -2  -4  -1   70.02    2.52 
  -2  -4  -1   64.93    2.39 
  -2  -4  -1   66.76    2.49 
  -2  -4  -1   67.33    2.42 
   2   4   1   64.44    2.49 
  -2   4  -1   64.34    2.30 
   2   4   1   67.85    2.41 
  -2   4  -1   64.82    2.30 
  -2   4  -1   66.36    2.29 
   2   4   1   68.17    2.45 
   2   4   1   60.31    2.37 
   2   4   1   69.77    2.60 
  -2   4  -1   68.11    2.29 
  -3  -4  -1   43.25    1.76 
  -3  -4  -1   43.92    1.67 
  -3  -4  -1   40.39    1.74 
  -3  -4  -1   44.06    1.78 
  -3  -4  -1   44.69    1.70 
  -3  -4  -1   42.11    1.65 
  -3  -4  -1   44.40    2.13 
  -3  -4  -1   44.08    1.68 
  -3  -4  -1   44.78    1.66 
  -3   4  -1   46.29    1.55 
   3   4   1   43.80    1.73 
   3   4   1   40.83    1.84 
   3   4   1   42.70    1.64 
  -3   4  -1   43.16    1.54 
   3   4   1   46.19    1.77 
   3   4   1   44.12    1.68 
  -4  -4  -1    1.85    0.21 
  -4  -4  -1    1.94    0.30 
  -4  -4  -1    1.40    0.34 
  -4  -4  -1    1.54    0.25 
  -4  -4  -1    1.78    0.48 
  -4  -4  -1    1.79    0.23 
  -4  -4  -1    1.52    0.23 
  -4  -4  -1    1.38    0.22 
  -4  -4  -1    2.30    0.25 
   4  -4   1    1.82    0.15 
   4   4   1    1.86    0.25 
   4   4   1    1.57    0.21 
  -4   4  -1    1.82    0.13 
   4   4   1    1.62    0.28 
   4   4   1    1.94    0.27 
  -4   4  -1    1.79    0.12 
  -5  -4  -1    5.75    0.39 
  -5  -4  -1    5.05    0.39 
  -5  -4  -1    5.59    0.37 
  -5  -4  -1    5.39    0.31 
  -5  -4  -1    5.42    0.36 
  -5  -4  -1    5.21    0.45 
  -5  -4  -1    5.25    0.26 
  -5  -4  -1    5.45    0.40 
  -5  -4  -1    5.35    0.34 
  -5   4  -1    5.52    0.26 
   5   4   1    4.81    0.36 
  -5   4  -1    5.26    0.24 
   5   4   1    4.84    0.30 
   5   4   1    5.48    0.36 
   5   4   1    4.72    0.42 
  -5   4  -1    5.02    0.22 
   5   4   1    5.47    0.45 
   5   4   1    5.64    0.35 
   5   4   1    5.30    0.23 
   5   4   1    5.01    0.43 
   5   4   1    5.02    0.37 
   5   4   1    5.98    0.41 
   5   4   1    5.67    0.37 
  -5   4  -1    6.04    0.27 
   5   4   1    5.18    0.32 
   5   4   1    5.18    0.36 
  -6  -4  -1   12.11    0.55 
  -6  -4  -1   11.30    0.56 
  -6  -4  -1   10.81    0.47 
  -6  -4  -1   10.90    0.52 
  -6  -4  -1   11.88    1.08 
  -6  -4  -1   10.44    0.53 
  -6  -4  -1   10.93    0.41 
  -6   4  -1   11.22    0.43 
   6   4   1   12.21    1.15 
   6   4   1   10.58    0.52 
   6   4   1   10.50    0.54 
   6   4   1   10.84    0.47 
   6   4   1   11.21    0.55 
  -6   4  -1   11.15    0.42 
   6   4   1   10.87    0.41 
   6   4   1   10.89    0.56 
  -7  -4  -1    2.53    0.20 
  -7  -4  -1    2.83    0.18 
  -7  -4  -1    2.61    0.21 
  -7  -4  -1    2.61    0.24 
  -7  -4  -1    2.98    0.26 
  -7  -4  -1    2.68    0.19 
   7   4   1    2.71    0.20 
   7   4   1    2.59    0.20 
  -7   4  -1    2.57    0.12 
   7   4   1    2.66    0.22 
   7   4   1    2.61    0.20 
   7   4   1    2.76    0.17 
  -7  -5   1    4.15    0.28 
  -7  -5   1    3.74    0.25 
  -7  -5   1    3.04    0.21 
  -7  -5   1    3.49    0.21 
   7   5  -1    3.30    0.21 
   7   5  -1    3.55    0.21 
   7   5  -1    3.12    0.23 
   7   5  -1    3.34    0.19 
   7   5  -1    3.94    0.22 
   7   5  -1    3.60    0.20 
  -6  -5   1    6.45    0.38 
  -6  -5   1    6.11    0.36 
  -6  -5   1    6.36    0.27 
  -6  -5   1    6.73    0.32 
  -6  -5   1    6.98    0.37 
   6   5  -1    6.41    0.36 
   6   5  -1    6.19    0.34 
   6   5  -1    6.40    0.31 
  -6   5   1    6.28    0.25 
   6   5  -1    6.38    0.31 
   6   5  -1    6.66    0.40 
  -6   5   1    6.14    0.27 
   6   5  -1    6.34    0.35 
   6   5  -1    6.76    0.37 
   6   5  -1    6.47    0.33 
  -5  -5   1   19.84    0.80 
  -5  -5   1   20.70    0.88 
  -5  -5   1   20.67    0.81 
  -5  -5   1   19.90    0.87 
  -5  -5   1   20.42    0.91 
  -5  -5   1   19.69    0.92 
  -5  -5   1   20.51    0.90 
  -5  -5   1   19.24    0.82 
  -5  -5   1   19.59    0.90 
   5   5  -1   21.80    0.95 
   5   5  -1   20.86    0.83 
   5   5  -1   20.76    0.85 
   5   5  -1   20.34    0.75 
   5   5  -1   22.04    0.92 
  -5   5   1   20.99    0.77 
   5   5  -1   20.37    0.87 
   5   5  -1   20.79    0.82 
  -5   5   1   19.83    0.76 
   5   5  -1   20.64    0.88 
   5   5  -1   21.17    0.87 
   5   5  -1   21.10    1.00 
  -5   5   1   21.04    0.77 
   5   5  -1   19.99    0.83 
   5   5  -1   20.56    0.81 
  -4  -5   1    6.33    0.40 
  -4  -5   1    6.40    0.43 
  -4  -5   1    6.82    0.44 
   4  -5  -1    6.78    0.36 
  -4  -5   1    6.45    0.41 
  -4  -5   1    6.39    0.34 
  -4  -5   1    6.45    0.42 
  -4  -5   1    6.78    0.50 
  -4  -5   1    6.99    0.41 
  -4  -5   1    6.46    0.35 
  -4  -5   1    6.94    0.43 
   4   5  -1    6.37    0.38 
  -4   5   1    6.21    0.29 
  -4   5   1    6.81    0.33 
   4   5  -1    8.02    0.40 
   4   5  -1    5.79    0.38 
  -4   5   1    6.81    0.35 
  -4   5   1    6.09    0.30 
   4   5  -1    6.08    0.49 
   4   5  -1    6.22    0.38 
   4   5  -1    6.62    0.29 
  -4   5   1    6.32    0.28 
   4   5  -1    7.00    0.36 
   4   5  -1    6.72    0.40 
   4   5  -1    7.37    0.47 
   4   5  -1    6.44    0.38 
   4   5  -1    6.63    0.34 
   4   5  -1    6.72    0.41 
   4   5  -1    6.52    0.50 
  -3  -5   1   43.05    2.33 
  -3  -5   1   42.71    1.61 
  -3  -5   1   40.66    1.60 
  -3  -5   1   40.88    1.56 
  -3  -5   1   42.55    1.56 
  -3  -5   1   39.59    1.59 
   3  -5  -1   41.41    1.52 
  -3  -5   1   39.85    1.58 
  -3  -5   1   42.51    1.70 
  -3  -5   1   40.58    1.66 
   3   5  -1   39.17    1.56 
   3   5  -1   40.30    1.77 
  -3   5   1   38.72    1.53 
   3   5  -1   40.38    1.54 
  -3   5   1   37.74    1.44 
   3   5  -1   40.10    1.56 
  -3   5   1   39.69    1.50 
   3   5  -1   39.49    1.50 
  -2  -5   1   20.43    1.20 
  -2  -5   1   20.34    0.93 
  -2  -5   1   20.89    0.85 
  -2  -5   1   20.34    0.85 
  -2  -5   1   21.42    0.96 
   2  -5  -1   20.47    0.83 
  -2  -5   1   21.96    0.94 
   2  -5  -1   20.98    0.88 
  -2  -5   1   20.20    0.88 
  -2  -5   1   19.56    0.88 
  -2  -5   1   21.48    0.89 
  -2   5   1   19.93    0.82 
   2   5  -1   20.99    1.02 
   2   5  -1   21.23    0.92 
   2   5  -1   19.53    0.85 
  -2   5   1   22.74    1.02 
   2   5  -1   19.82    0.83 
  -2   5   1   19.94    0.79 
   2   5  -1   20.36    0.77 
  -2   5   1   20.52    1.00 
  -2   5   1   21.68    0.77 
   2   5  -1   20.40    0.84 
   2   5  -1   20.55    0.84 
   1  -5  -1   16.74    0.66 
  -1  -5   1   17.89    0.83 
   1  -5  -1   16.91    0.70 
  -1  -5   1   16.16    0.74 
   1  -5  -1   16.43    0.73 
  -1  -5   1   16.34    0.68 
  -1  -5   1   15.62    0.70 
   1   5  -1   16.24    0.97 
  -1   5   1   15.16    0.65 
   1   5  -1   16.21    0.66 
   1   5  -1   16.20    0.68 
  -1   5   1   16.75    0.95 
  -1   5   1   16.60    0.63 
  -1   5   1   17.50    0.81 
  -1   5   1   15.91    0.68 
   1   5  -1   16.68    0.76 
   1   5  -1   15.71    0.65 
  -1   5   1   17.33    0.65 
   1   5  -1   16.39    0.81 
   1   5  -1   16.96    0.67 
   0  -5   1   36.69    1.31 
   0  -5  -1   36.31    1.37 
   0  -5  -1   34.54    1.39 
   0  -5   1   35.73    1.34 
   0  -5  -1   33.73    1.34 
   0  -5  -1   34.92    1.31 
   0  -5  -1   34.86    1.31 
   0  -5  -1   34.36    1.40 
   0   5   1   32.86    1.46 
   0   5   1   34.12    1.32 
   0   5  -1   33.27    1.34 
   0   5  -1   36.51    1.49 
   0   5  -1   33.83    1.39 
   0   5  -1   35.57    1.29 
   0   5   1   35.89    1.30 
   0   5   1   34.72    1.30 
   0   5  -1   35.75    1.26 
   0   5   1   33.98    1.30 
   0   5  -1   33.00    1.37 
   1  -5   1   13.37    0.58 
   1  -5   1   13.63    0.54 
  -1  -5  -1   13.63    0.70 
  -1  -5  -1   12.06    0.66 
  -1  -5  -1   13.48    0.68 
  -1  -5  -1   13.59    0.93 
  -1  -5  -1   13.90    0.63 
  -1  -5  -1   11.88    0.75 
  -1  -5  -1   15.30    0.65 
  -1  -5  -1   13.35    0.60 
  -1  -5  -1   14.17    0.60 
  -1   5  -1   13.93    0.56 
   1   5   1   13.63    0.60 
  -1   5  -1   13.80    0.56 
   1   5   1   13.73    0.61 
   1   5   1   14.97    0.78 
  -1   5  -1   12.88    0.55 
   1   5   1   13.99    0.60 
   1   5   1   13.25    0.58 
  -2  -5  -1   22.00    0.92 
  -2  -5  -1   18.35    1.23 
  -2  -5  -1   21.40    1.05 
  -2  -5  -1   21.36    0.92 
   2  -5   1   21.18    0.78 
  -2  -5  -1   22.18    0.89 
  -2  -5  -1   20.20    0.90 
  -2  -5  -1   22.34    0.89 
  -2  -5  -1   20.92    0.98 
  -2  -5  -1   20.39    0.99 
   2   5   1   21.54    0.87 
  -2   5  -1   22.35    0.77 
   2   5   1   22.27    1.09 
   2   5   1   18.70    1.33 
   2   5   1   21.83    0.90 
  -3  -5  -1   55.08    2.22 
  -3  -5  -1   58.79    2.14 
   3  -5   1   55.36    1.98 
  -3  -5  -1   54.81    2.12 
  -3  -5  -1   54.31    2.23 
  -3  -5  -1   53.87    2.13 
  -3  -5  -1   56.37    2.13 
  -3  -5  -1   57.98    2.10 
   3   5   1   56.38    2.09 
   3   5   1   57.63    2.36 
   3   5   1   53.67    2.14 
  -4  -5  -1   31.91    1.24 
  -4  -5  -1   31.50    1.28 
  -4  -5  -1   26.23    1.33 
  -4  -5  -1   30.22    1.25 
  -4  -5  -1   30.37    1.16 
  -4  -5  -1   29.83    1.18 
  -4  -5  -1   30.33    1.16 
  -4  -5  -1   32.16    1.27 
  -4  -5  -1   30.73    1.27 
  -4  -5  -1   30.34    1.24 
  -4  -5  -1   28.68    1.23 
  -4  -5  -1   34.27    1.32 
   4   5   1   29.54    1.23 
   4   5   1   30.82    1.20 
   4   5   1   30.63    1.24 
   4   5   1   32.43    1.19 
   4   5   1   30.85    1.23 
   4   5   1   30.64    1.19 
   4   5   1   31.39    1.11 
   4   5   1   29.13    1.22 
   4   5   1   30.74    1.27 
   4   5   1   30.55    1.31 
   4   5   1   32.73    1.33 
   4   5   1   31.81    1.22 
   4   5   1   31.61    1.12 
   4   5   1   31.43    1.16 
   4   5   1   30.25    1.19 
  -5  -5  -1   21.97    0.93 
  -5  -5  -1   21.27    0.84 
  -5  -5  -1   22.13    0.79 
  -5  -5  -1   21.25    0.89 
  -5  -5  -1   21.31    0.90 
   5   5   1   21.54    0.98 
   5   5   1   21.81    0.83 
   5   5   1   21.35    0.90 
   5   5   1   20.68    0.86 
   5   5   1   21.55    0.85 
   5   5   1   21.45    0.79 
   5   5   1   20.75    0.86 
   5   5   1   21.67    0.89 
   5   5   1   20.61    0.93 
   5   5   1   19.89    0.86 
   5   5   1   20.61    0.89 
  -6  -5  -1    3.81    0.27 
  -6  -5  -1    3.78    0.26 
  -6  -5  -1    3.50    0.54 
  -6  -5  -1    3.80    0.15 
  -6  -5  -1    3.99    0.29 
  -6  -5  -1    3.56    0.21 
  -6  -5  -1    3.42    0.25 
   6   5   1    3.60    0.24 
   6   5   1    3.86    0.22 
   6   5   1    3.59    0.26 
   6   5   1    3.69    0.26 
   6   5   1    3.70    0.29 
   6   5   1    3.70    0.23 
   6   5   1    3.96    0.27 
   6   5   1    3.34    0.23 
   6   5   1    3.53    0.32 
  -6  -6   1   24.01    0.99 
  -6  -6   1   26.21    0.93 
  -6  -6   1   28.16    0.97 
  -6  -6   1   27.38    1.00 
  -6  -6   1   25.00    1.00 
   6   6  -1   26.53    0.96 
   6   6  -1   26.37    1.00 
   6   6  -1   26.11    0.96 
   6   6  -1   26.59    0.96 
   6   6  -1   26.82    0.99 
   6   6  -1   28.48    0.98 
   6   6  -1   24.65    1.05 
   6   6  -1   27.39    1.00 
  -5  -6   1   18.13    0.80 
  -5  -6   1   21.01    0.75 
  -5  -6   1   20.21    0.84 
  -5  -6   1   17.99    0.82 
  -5  -6   1   19.63    0.75 
  -5  -6   1   19.82    0.77 
   5   6  -1   19.24    0.76 
   5   6  -1   19.96    0.76 
   5   6  -1   19.22    0.82 
   5   6  -1   19.24    0.77 
  -5   6   1   20.03    0.71 
   5   6  -1   19.52    0.71 
   5   6  -1   20.61    0.75 
   5   6  -1   20.30    0.81 
   5   6  -1   20.25    0.78 
   5   6  -1   19.15    0.89 
   5   6  -1   19.69    0.79 
  -4  -6   1   31.19    1.11 
  -4  -6   1   25.24    1.18 
  -4  -6   1   29.80    1.11 
  -4  -6   1   29.84    1.21 
  -4  -6   1   30.46    1.18 
  -4  -6   1   30.18    1.20 
   4   6  -1   30.40    1.08 
   4   6  -1   29.91    1.16 
   4   6  -1   28.47    1.13 
   4   6  -1   29.80    1.15 
   4   6  -1   27.09    1.15 
   4   6  -1   29.16    1.14 
   4   6  -1   28.89    1.09 
  -4   6   1   29.38    1.03 
   4   6  -1   28.43    1.09 
   4   6  -1   28.16    1.10 
   4   6  -1   29.28    1.05 
   4   6  -1   31.38    1.26 
   4   6  -1   27.55    1.07 
   4   6  -1   28.12    1.11 
  -4   6   1   29.50    1.05 
  -4   6   1   25.84    1.02 
   4   6  -1   29.54    1.10 
   4   6  -1   29.59    1.16 
  -3  -6   1   21.10    0.94 
  -3  -6   1   21.60    0.92 
  -3  -6   1   21.31    0.85 
  -3  -6   1   22.74    0.95 
  -3  -6   1   21.58    0.90 
  -3  -6   1   22.84    0.97 
  -3  -6   1   20.15    0.90 
  -3  -6   1   21.30    0.95 
  -3   6   1   22.45    0.81 
   3   6  -1   21.12    0.88 
   3   6  -1   21.18    0.86 
   3   6  -1   20.89    0.83 
   3   6  -1   20.64    0.97 
  -3   6   1   21.97    0.82 
   3   6  -1   22.11    0.92 
   3   6  -1   22.45    0.89 
   3   6  -1   22.78    0.85 
   3   6  -1   20.95    0.81 
   3   6  -1   22.05    0.90 
   3   6  -1   21.13    0.82 
   3   6  -1   19.99    0.81 
   3   6  -1   20.44    0.86 
   3   6  -1   22.02    0.90 
   3   6  -1   21.10    0.89 
   3   6  -1   20.55    0.80 
   3   6  -1   21.33    0.89 
   3   6  -1   20.46    0.89 
  -3   6   1   21.80    0.80 
   3   6  -1   21.69    0.82 
   3   6  -1   22.34    0.86 
  -3   6   1   22.16    0.85 
  -2  -6   1   21.61    0.93 
  -2  -6   1   22.59    0.96 
  -2  -6   1   21.30    0.93 
  -2  -6   1   23.70    0.91 
   2  -6  -1   21.53    0.89 
   2  -6  -1   21.58    0.86 
  -2  -6   1   21.45    0.89 
   2   6  -1   22.42    0.85 
  -2   6   1   21.04    0.82 
   2   6  -1   20.96    0.86 
   2   6  -1   19.95    0.81 
   2   6  -1   21.49    0.97 
   2   6  -1   20.74    0.88 
   2   6  -1   22.57    0.88 
  -2   6   1   22.17    0.91 
   2   6  -1   19.07    0.82 
  -2   6   1   22.95    0.87 
   2   6  -1   18.96    0.90 
   2   6  -1   24.49    0.87 
   2   6  -1   22.00    0.89 
  -2   6   1   20.45    0.83 
  -2   6   1   21.63    0.83 
  -2   6   1   21.16    0.83 
   2   6  -1   22.85    0.91 
  -2   6   1   20.70    0.81 
   2   6  -1   22.90    0.86 
   2   6  -1   20.44    0.87 
   1  -6  -1   20.85    0.82 
   1  -6  -1   20.48    0.85 
  -1  -6   1   18.80    0.85 
  -1  -6   1   19.67    0.82 
  -1   6   1   22.02    1.04 
  -1   6   1   19.51    0.79 
   1   6  -1   15.95    1.09 
  -1   6   1   20.45    0.82 
   1   6  -1   20.91    0.74 
   1   6  -1   19.97    1.08 
   1   6  -1   19.54    0.80 
  -1   6   1   16.64    1.06 
   1   6  -1   20.38    0.77 
  -1   6   1   20.20    0.75 
   1   6  -1   19.97    0.80 
   1   6  -1   20.08    0.78 
  -1   6   1   18.90    0.76 
   1   6  -1   20.97    0.83 
  -1   6   1   20.20    0.79 
   0  -6  -1    0.79    0.16 
   0  -6  -1    0.88    0.24 
   0  -6   1    0.70    0.13 
   0  -6   1    0.86    0.14 
   0  -6  -1    0.87    0.16 
   0   6  -1    0.87    0.13 
   0   6  -1    0.94    0.14 
   0   6   1    0.73    0.13 
   0   6   1    0.88    0.24 
   0   6   1    0.78    0.30 
   0   6   1    0.74    0.12 
   0   6  -1    0.73    0.12 
   0   6  -1    0.68    0.13 
   0   6   1    0.96    0.15 
   0   6   1    0.94    0.16 
   0   6   1    0.76    0.17 
   0   6   1    0.68    0.13 
  -1  -6  -1   17.03    0.79 
  -1  -6  -1   16.28    0.75 
  -1  -6  -1   17.57    0.76 
  -1  -6  -1   16.96    0.83 
   1  -6   1   17.21    0.72 
  -1   6  -1   17.59    0.70 
   1   6   1   17.19    0.74 
   1   6   1   17.54    0.71 
   1   6   1   17.01    0.74 
  -1   6  -1   17.51    0.70 
   1   6   1   17.67    0.73 
   1   6   1   17.52    0.77 
   1   6   1   18.76    0.75 
  -2  -6  -1   37.15    1.41 
  -2  -6  -1   34.20    1.38 
  -2  -6  -1   32.69    1.29 
  -2  -6  -1   35.28    1.39 
  -2  -6  -1   34.75    1.46 
  -2  -6  -1   33.81    1.45 
  -2  -6  -1   35.73    1.36 
  -2  -6  -1   37.25    1.37 
   2   6   1   35.75    1.30 
   2   6   1   35.49    1.34 
   2   6   1   33.13    1.24 
  -2   6  -1   34.87    1.20 
   2   6   1   34.63    1.34 
   2   6   1   34.10    1.26 
   2   6   1   33.86    1.32 
   2   6   1   35.17    1.35 
   2   6   1   35.40    1.27 
   2   6   1   33.48    1.35 
   2   6   1   33.15    1.30 
   2   6   1   35.03    1.43 
   2   6   1   36.07    1.35 
   2   6   1   32.93    1.31 
   2   6   1   33.52    1.28 
   2   6   1   35.87    1.38 
   2   6   1   32.47    1.27 
   2   6   1   33.95    1.33 
  -2   6  -1   32.93    1.20 
   2   6   1   33.62    1.29 
   2   6   1   34.62    1.27 
  -3  -6  -1   39.39    1.61 
  -3  -6  -1   43.35    1.59 
  -3  -6  -1   39.48    1.45 
  -3  -6  -1   35.02    1.53 
  -3  -6  -1   40.41    1.45 
  -3  -6  -1   40.29    1.55 
  -3  -6  -1   35.40    1.51 
  -3  -6  -1   39.00    1.55 
   3   6   1   37.54    1.44 
   3   6   1   39.27    1.52 
   3   6   1   40.63    1.53 
   3   6   1   36.99    1.49 
   3   6   1   39.09    1.44 
   3   6   1   40.09    1.44 
   3   6   1   40.91    1.62 
   3   6   1   38.61    1.49 
   3   6   1   39.19    1.39 
   3   6   1   39.65    1.43 
   3   6   1   39.54    1.50 
   3   6   1   37.66    1.52 
   3   6   1   39.31    1.48 
   3   6   1   37.64    1.46 
   3   6   1   39.20    1.46 
  -4  -6  -1    2.74    0.19 
  -4  -6  -1    2.68    0.29 
  -4  -6  -1    2.71    0.27 
  -4  -6  -1    2.62    0.25 
  -4  -6  -1    2.70    0.26 
  -4  -6  -1    2.53    0.23 
  -4  -6  -1    2.70    0.20 
  -4  -6  -1    2.46    0.27 
   4   6   1    2.45    0.21 
   4   6   1    2.61    0.23 
   4   6   1    2.57    0.15 
   4   6   1    2.48    0.13 
   4   6   1    2.61    0.23 
   4   6   1    2.90    0.25 
   4   6   1    2.22    0.21 
   4   6   1    2.64    0.22 
   4   6   1    2.69    0.32 
   4   6   1    2.50    0.21 
   4   6   1    2.68    0.28 
   4   6   1    2.40    0.28 
   4   6   1    2.97    0.27 
  -5  -6  -1    8.58    0.42 
  -5  -6  -1    8.63    0.39 
  -5  -6  -1    9.07    0.45 
  -5  -6  -1    8.81    0.35 
  -5  -6  -1    8.98    0.49 
   5   6   1    8.02    0.39 
   5   6   1    8.73    0.38 
   5   6   1    8.92    0.51 
   5   6   1    8.18    0.39 
   5   6   1    8.87    0.43 
   5   6   1    8.88    0.43 
   5   6   1    8.84    0.41 
   5   6   1    9.13    0.45 
   5   6   1    8.83    0.46 
   5   6   1    9.23    0.41 
   5   7  -1   32.27    1.14 
   5   7  -1   26.10    1.06 
  -4  -7   1    0.63    0.15 
  -4  -7   1    0.44    0.11 
  -4  -7   1    0.89    0.12 
   4   7  -1    0.57    0.12 
   4   7  -1    0.44    0.13 
   4   7  -1    0.45    0.08 
   4   7  -1    0.42    0.10 
   4   7  -1    0.42    0.10 
   4   7  -1    0.65    0.09 
   4   7  -1    0.45    0.08 
   4   7  -1    0.56    0.15 
   4   7  -1    0.14    0.09 
   4   7  -1    0.42    0.13 
  -3  -7   1   12.40    0.52 
  -3  -7   1   12.17    0.52 
  -3  -7   1   11.88    0.58 
   3   7  -1   12.61    0.48 
   3   7  -1   12.31    0.55 
  -3   7   1   12.57    0.45 
   3   7  -1   11.76    0.59 
   3   7  -1   12.22    0.59 
   3   7  -1   13.34    0.55 
  -3   7   1   12.87    0.45 
   3   7  -1   12.47    0.52 
   3   7  -1   11.67    0.52 
   3   7  -1   12.82    0.55 
   3   7  -1   11.84    0.52 
   3   7  -1   12.27    0.49 
  -3   7   1   13.08    0.48 
   3   7  -1   12.48    0.52 
  -2  -7   1   21.78    0.91 
   2   7  -1   22.68    0.88 
   2   7  -1   21.78    0.84 
  -2   7   1   21.74    0.79 
   2   7  -1   22.73    0.85 
   2   7  -1   22.02    0.87 
   2   7  -1   21.90    0.80 
  -2   7   1   22.23    0.82 
   2   7  -1   21.65    0.89 
  -2   7   1   21.16    0.85 
  -2   7   1   20.01    0.86 
   2   7  -1   21.71    0.85 
  -2   7   1   22.42    0.82 
  -2   7   1   21.39    0.84 
   2   7  -1   22.77    0.87 
   2   7  -1   20.59    0.89 
   1   7  -1   28.46    1.12 
  -1   7   1   30.70    1.15 
   1   7  -1   30.52    1.13 
   1   7  -1   30.15    1.16 
   1   7  -1   31.12    1.11 
   1   7  -1   31.25    1.14 
  -1   7   1   29.88    1.10 
  -1   7   1   29.23    1.12 
   1   7  -1   29.29    1.07 
  -1   7   1   29.92    1.06 
   1   7  -1   30.39    1.12 
  -1   7   1   29.42    1.12 
   1   7  -1   29.53    1.10 
  -1   7   1   30.20    1.11 
  -1   7   1   29.68    1.09 
  -1   7   1   28.03    1.11 
   0  -7  -1   33.50    1.43 
   0   7  -1   33.89    1.23 
   0   7   1   34.35    1.28 
   0   7   1   34.01    1.22 
   0   7   1   35.40    1.26 
   0   7  -1   35.02    1.30 
   0   7   1   34.53    1.29 
   0   7  -1   34.49    1.25 
   0   7   1   33.50    1.26 
   0   7   1   34.53    1.29 
   0   7   1   33.30    1.25 
   0   7  -1   34.30    1.24 
   0   7  -1   33.54    1.27 
   0   7   1   33.18    1.31 
  -1  -7  -1    0.80    0.15 
  -1  -7  -1    0.91    0.26 
   1   7   1    0.68    0.16 
   1   7   1    0.92    0.17 
   1   7   1    0.89    0.14 
   1   7   1    0.86    0.11 
   1   7   1    0.80    0.15 
   1   7   1    0.76    0.18 
   1   7   1    0.92    0.17 
  -1   7  -1    0.79    0.07 
   1   7   1    0.79    0.16 
   1   7   1    1.13    0.14 
  -1   7  -1    0.77    0.10 
   1   7   1    0.74    0.16 
  -1   7  -1    0.68    0.06 
  -2  -7  -1    1.73    0.17 
  -2  -7  -1    1.67    0.22 
  -2  -7  -1    1.07    0.25 
  -2  -7  -1    1.51    0.19 
  -2  -7  -1    1.46    0.22 
   2   7   1    1.56    0.19 
   2   7   1    1.40    0.21 
   2   7   1    1.46    0.12 
   2   7   1    1.25    0.20 
   2   7   1    1.66    0.14 
   2   7   1    1.42    0.16 
   2   7   1    1.78    0.19 
   2   7   1    1.33    0.12 
   2   7   1    1.50    0.16 
   2   7   1    1.61    0.17 
   2   7   1    1.66    0.19 
   2   7   1    1.25    0.18 
   2   7   1    1.35    0.15 
  -3  -7  -1   10.67    0.52 
  -3  -7  -1   10.73    0.45 
  -3  -7  -1   11.01    0.46 
   3   7   1   10.52    0.48 
   3   7   1   10.31    0.42 
   3   7   1    9.89    0.42 
   3   7   1   10.77    0.49 
   3   7   1   10.61    0.46 
   3   7   1   12.63    0.47 
   3   7   1   10.44    0.41 
   3   7   1   10.04    0.47 
   3   7   1   10.97    0.47 
   3   7   1   10.39    0.42 
   3   7   1   10.20    0.45 
   3   7   1    8.67    0.47 
   3   7   1   10.81    0.51 
   3   7   1   10.48    0.55 
  -4  -7  -1   43.23    1.61 
  -4  -7  -1   41.16    1.58 
  -4  -7  -1   41.64    1.54 
  -4  -7  -1   44.07    1.56 
  -4  -7  -1   42.71    1.54 
   4   7   1   43.97    1.57 
   4   7   1   41.35    1.64 
   4   7   1   47.13    1.57 
   4   7   1   44.17    1.53 
   4   7   1   40.95    1.56 
   4   7   1   44.08    1.53 
   4   7   1   44.09    1.59 
   4   7   1   45.81    1.59 
   4   7   1   43.10    1.51 
   4   7   1   42.42    1.54 
  -3  -8   1    2.03    0.16 
  -3  -8   1    1.62    0.15 
   3   8  -1    1.31    0.15 
   3   8  -1    1.54    0.09 
  -2  -8   1    1.28    0.12 
   2   8  -1    0.93    0.08 
   2   8  -1    1.16    0.11 
   2   8  -1    1.15    0.07 
   2   8  -1    1.07    0.10 
   2   8  -1    0.97    0.11 
   2   8  -1    1.11    0.10 
   2   8  -1    1.08    0.10 
  -2   8   1    1.19    0.09 
   1   8  -1   10.91    0.43 
   1   8  -1   10.71    0.43 
  -1   8   1   11.47    0.44 
   1   8  -1   10.60    0.42 
   1   8  -1   11.74    0.44 
  -1   8   1   11.40    0.41 
   1   8  -1   11.31    0.44 
   0   8   1    2.33    0.15 
   0   8  -1    2.30    0.13 
   0   8  -1    2.07    0.09 
   0   8   1    2.24    0.15 
   0   8   1    2.05    0.11 
   0   8   1    2.35    0.13 
   0   8   1    2.21    0.14 
   0   8  -1    2.28    0.10 
   0   8   1    2.20    0.15 
  -1  -8  -1   17.65    0.69 
   1   8   1   17.86    0.66 
   1   8   1   17.97    0.68 
   1   8   1   18.13    0.68 
   1   8   1   18.91    0.66 
   1   8   1   18.80    0.70 
   1   8   1   17.62    0.69 
   1   8   1   18.32    0.70 
  -2  -8  -1    1.52    0.12 
  -2  -8  -1    1.25    0.12 
   2   8   1    1.35    0.11 
   2   8   1    1.09    0.11 
   2   8   1    1.40    0.09 
   2   8   1    1.48    0.13 
   2   8   1    1.33    0.09 
   2   8   1    1.26    0.12 
  -8   0   2   63.30    2.17 
   8   0  -2   61.78    2.18 
  -8   0   2   60.27    2.22 
   8   0  -2   61.33    2.26 
  -8   0   2   59.38    2.21 
  -8   0   2   60.31    2.20 
  -8   0   2   59.65    2.17 
   8   0  -2   58.08    2.18 
  -8   0   2   62.97    2.16 
   8   0  -2   63.15    2.27 
  -8   0   2   59.82    2.16 
  -8   0   2   62.63    2.19 
   8   0  -2   60.81    2.23 
   8   0  -2   61.38    2.19 
  -8   0   2   62.90    2.30 
  -7   0   2   14.67    0.66 
  -7   0   2   14.29    0.75 
   7   0  -2   15.03    0.64 
   7   0  -2   16.41    0.75 
  -7   0   2   15.02    0.63 
  -7   0   2   14.57    0.64 
  -7   0   2   15.34    0.64 
  -7   0   2   15.48    1.68 
   7   0  -2   15.31    0.69 
  -7   0   2   15.01    0.59 
  -7   0   2   15.40    0.64 
  -7   0   2   14.52    0.69 
   7   0  -2   14.96    0.64 
  -7   0   2   14.94    0.62 
  -7   0   2   15.60    0.63 
   7   0  -2   14.83    0.75 
  -7   0   2   15.12    0.70 
  -6   0   2   86.47    3.20 
   6   0  -2   95.67    3.45 
   6   0  -2   92.24    3.27 
  -6   0   2   90.97    3.29 
  -6   0   2   91.96    3.24 
  -6   0   2   78.71    3.46 
   6   0  -2   89.94    3.40 
   6   0  -2   93.12    3.31 
   5   0  -2   85.06    3.22 
  -5   0   2   88.81    3.07 
   5   0  -2   83.81    3.58 
   5   0  -2   91.43    3.24 
  -5   0   2   87.39    3.16 
   5   0  -2   82.70    3.15 
   5   0  -2   91.62    3.13 
   5   0  -2   77.54    3.55 
  -5   0   2   86.62    3.31 
   5   0  -2   83.11    3.23 
  -5   0   2   95.26    3.14 
  -5   0   2   85.70    3.09 
   5   0  -2   84.72    3.10 
  -4   0   2    0.36    0.11 
   4   0  -2    0.47    0.24 
   4   0  -2    0.40    0.11 
  -4   0   2    0.39    0.18 
  -4   0   2    0.43    0.13 
  -4   0   2    0.27    0.08 
   4   0  -2    0.31    0.12 
   4   0  -2    0.19    0.11 
  -4   0   2    0.37    0.10 
   4   0  -2    0.67    0.12 
   4   0  -2    0.23    0.10 
   4   0  -2    0.31    0.10 
  -4   0   2    0.25    0.07 
   4   0  -2    0.35    0.13 
  -3   0   2  134.00    5.11 
   3   0  -2  139.37    4.85 
   3   0  -2  138.50    4.89 
   3   0  -2  131.51    4.96 
  -3   0   2  138.08    4.85 
  -3   0   2  135.76    4.94 
   3   0  -2  143.17    5.12 
   3   0  -2  147.22    4.90 
   3   0  -2  138.50    4.90 
   2   0  -2   67.82    2.54 
   2   0  -2   67.28    2.40 
  -2   0   2   65.99    2.58 
   2   0  -2   64.34    2.36 
   2   0  -2   63.47    2.45 
  -2   0   2   67.78    2.45 
   2   0  -2   67.90    2.38 
  -2   0   2   66.30    2.38 
   2   0  -2   69.29    2.57 
   2   0  -2   68.16    2.47 
  -2   0   2   68.47    2.55 
   2   0  -2   65.93    2.40 
  -2   0   2   65.70    2.44 
   2   0  -2   71.35    2.57 
  -2   0   2   70.80    2.65 
  -2   0   2   66.08    2.39 
  -1   0   2   45.09    1.72 
  -1   0   2   44.53    1.65 
  -1   0   2   43.49    1.61 
   1   0  -2   46.78    1.66 
   1   0  -2   47.67    1.60 
  -1   0   2   44.22    1.72 
  -1   0   2   43.88    1.66 
   1   0  -2   44.28    1.71 
   1   0  -2   44.42    1.71 
  -1   0   2   45.95    1.74 
  -1   0   2   44.92    1.71 
   1   0  -2   44.27    1.62 
   1   0  -2   45.65    1.66 
  -1   0   2   46.45    1.66 
  -1   0   2   46.03    1.61 
   0   0   2  428.43   14.96 
   0   0   2  435.96   14.96 
   0   0  -2  428.04   15.00 
   0   0   2  426.02   15.02 
   0   0  -2  427.84   14.97 
   0   0  -2  454.77   14.97 
   0   0   2  443.11   15.03 
   0   0   2  388.54   15.02 
   0   0  -2  448.28   15.01 
   0   0  -2  458.89   14.96 
   0   0   2  456.79   14.93 
   0   0  -2  434.39   14.92 
   0   0  -2  411.17   14.95 
   1   0   2    5.55    0.27 
   1   0   2    5.86    0.26 
   1   0   2    6.20    0.31 
  -1   0  -2    6.15    0.28 
  -1   0  -2    5.41    0.31 
   1   0   2    5.75    0.30 
  -1   0  -2    6.22    0.32 
   1   0   2    5.97    0.40 
  -1   0  -2    6.39    0.29 
   2   0   2  461.84   15.80 
   2   0   2  445.13   15.97 
   2   0   2  455.50   15.85 
   2   0   2  464.00   15.85 
   2   0   2  456.59   15.80 
   2   0   2  453.72   15.77 
   2   0   2  469.58   15.97 
  -2   0  -2  478.04   15.83 
  -2   0  -2  436.75   16.02 
   3   0   2  105.92    3.59 
   3   0   2  101.97    3.83 
   3   0   2  104.81    3.55 
   3   0   2   99.65    3.58 
   3   0   2   96.49    3.51 
   3   0   2  100.84    3.66 
  -3   0  -2  101.25    3.49 
  -3   0  -2  103.96    3.63 
   3   0   2   95.13    3.57 
   3   0   2   93.53    3.78 
   3   0   2   99.32    3.58 
  -3   0  -2   97.59    3.50 
  -3   0  -2  104.15    3.84 
   3   0   2   96.19    3.53 
  -4   0  -2    1.80    0.14 
   4   0   2    1.56    0.20 
   4   0   2    1.81    0.22 
   4   0   2    2.12    0.23 
  -4   0  -2    1.50    0.16 
   4   0   2    1.65    0.18 
   4   0   2    1.62    0.16 
   4   0   2    1.52    0.33 
   4   0   2    1.81    0.21 
  -4   0  -2    1.84    0.24 
   4   0   2    1.91    0.22 
  -5   0  -2    6.86    0.38 
   5   0   2    6.72    0.69 
  -5   0  -2    7.08    0.39 
  -5   0  -2    7.02    0.38 
   5   0   2    7.30    0.48 
   5   0   2    6.52    0.41 
   5   0   2    6.56    0.47 
   5   0   2    7.10    0.43 
   5   0   2    7.24    0.39 
   5   0   2    7.21    0.46 
  -5   0  -2    7.61    0.52 
   5   0   2    7.74    0.50 
  -6   0  -2    0.63    0.16 
  -6   0  -2    0.32    0.10 
  -6   0  -2    0.11    0.08 
  -6   0  -2    0.21    0.10 
  -6   0  -2    0.18    0.09 
  -6   0  -2    0.20    0.10 
  -6   0  -2    0.15    0.10 
  -6   0  -2    0.27    0.10 
   6   0   2    0.14    0.16 
   6   0   2    0.35    0.19 
  -6   0  -2    0.29    0.08 
   6   0   2    0.29    0.12 
   6   0   2    0.40    0.12 
  -6   0  -2    0.48    0.14 
  -6   0  -2    0.31    0.14 
  -6   0  -2    0.17    0.08 
  -6   0  -2    0.37    0.08 
  -6   0  -2    0.39    0.12 
  -6   0  -2    0.33    0.15 
  -6   0  -2    0.22    0.12 
   6   0   2    0.52    0.19 
  -6   0  -2    0.16    0.08 
  -6   0  -2    0.28    0.16 
   7   0   2    0.29    0.15 
  -7   0  -2    0.22    0.13 
  -7   0  -2    0.19    0.10 
  -7   0  -2    0.33    0.16 
   7   0   2    0.16    0.09 
  -7   0  -2    0.13    0.09 
  -7   0  -2    0.25    0.07 
   7   0   2    0.15    0.09 
  -7   0  -2    0.22    0.07 
  -7   0  -2    0.16    0.08 
  -7   0  -2    0.04    0.05 
  -7   0  -2    0.02    0.10 
  -7   0  -2    0.25    0.11 
   7   0   2    0.11    0.16 
  -8   0  -2   21.16    0.79 
  -8   0  -2   21.87    0.80 
   8   0   2   21.95    0.82 
  -8   0  -2   23.81    0.84 
   8   0   2   21.22    0.82 
  -8   0  -2   23.54    0.89 
  -8   0  -2   21.85    0.81 
  -8   0  -2   21.25    0.81 
  -8  -1   2    3.06    0.24 
  -8  -1   2    3.53    0.27 
   8  -1  -2    3.21    0.21 
  -8  -1   2    3.07    0.20 
  -8  -1   2    3.44    0.21 
  -8  -1   2    3.40    0.21 
   8  -1  -2    3.31    0.21 
  -8  -1   2    3.23    0.30 
  -8  -1   2    3.26    0.22 
   8  -1  -2    3.13    0.26 
  -8  -1   2    3.16    0.21 
  -8  -1   2    3.06    0.23 
  -8  -1   2    3.29    0.21 
  -8   1   2    3.02    0.25 
  -8   1   2    3.07    0.18 
   8   1  -2    3.32    0.25 
  -8   1   2    2.90    0.18 
  -8   1   2    3.31    0.30 
   8   1  -2    2.98    0.18 
  -8   1   2    3.12    0.16 
  -8   1   2    2.95    0.20 
   8   1  -2    3.12    0.27 
   8   1  -2    2.45    0.24 
  -8   1   2    3.04    0.17 
  -8   1   2    3.26    0.21 
  -8   1   2    3.18    0.19 
   8   1  -2    3.13    0.22 
  -8   1   2    3.48    0.25 
  -8   1   2    3.21    0.22 
  -7  -1   2    2.07    0.21 
   7  -1  -2    2.07    0.21 
  -7  -1   2    1.65    0.20 
  -7  -1   2    2.08    0.19 
  -7  -1   2    2.12    0.21 
  -7  -1   2    1.89    0.23 
  -7  -1   2    2.22    0.21 
   7  -1  -2    2.14    0.25 
  -7  -1   2    2.19    0.28 
  -7  -1   2    2.17    0.28 
  -7  -1   2    1.66    0.32 
  -7  -1   2    1.88    0.19 
  -7  -1   2    2.10    0.22 
   7  -1  -2    2.22    0.21 
   7  -1  -2    2.20    0.26 
   7   1  -2    2.32    0.22 
  -7   1   2    1.85    0.17 
  -7   1   2    2.11    0.16 
  -7   1   2    1.85    0.18 
  -7   1   2    2.10    0.19 
  -7   1   2    2.03    0.12 
  -7   1   2    2.14    0.23 
   7   1  -2    2.07    0.19 
  -7   1   2    2.05    0.18 
  -7   1   2    1.63    0.12 
   7   1  -2    2.06    0.25 
  -7   1   2    1.78    0.21 
   7   1  -2    2.02    0.29 
  -7   1   2    1.93    0.18 
   7   1  -2    2.05    0.27 
  -7   1   2    1.75    0.26 
  -7   1   2    1.52    0.21 
  -7   1   2    2.18    0.22 
  -7   1   2    2.58    0.30 
   7   1  -2    2.08    0.18 
  -7   1   2    2.02    0.23 
  -7   1   2    2.01    0.18 
   7   1  -2    1.94    0.25 
   7   1  -2    1.99    0.28 
  -7   1   2    2.46    0.18 
  -7   1   2    1.63    0.31 
  -7   1   2    2.11    0.22 
   6  -1  -2  153.82    5.60 
   6  -1  -2  154.80    5.65 
   6  -1  -2  171.42    5.80 
  -6  -1   2  153.89    5.68 
   6  -1  -2  168.50    5.63 
  -6  -1   2  149.99    5.63 
   6  -1  -2  167.41    5.75 
   6  -1  -2  158.55    5.67 
  -6  -1   2  161.34    5.56 
  -6   1   2  162.08    5.86 
   6   1  -2  165.56    5.65 
   6   1  -2  156.36    5.65 
   6   1  -2  146.37    5.76 
   6   1  -2  163.35    5.75 
  -6   1   2  149.64    5.61 
  -6   1   2  160.15    5.61 
   6   1  -2  156.27    5.69 
  -6   1   2  156.65    5.55 
   6   1  -2  160.82    5.64 
   6   1  -2  154.20    5.76 
   5  -1  -2   89.98    3.21 
  -5  -1   2   92.61    3.30 
  -5  -1   2   84.32    3.15 
   5  -1  -2   88.37    3.32 
  -5  -1   2   82.75    3.16 
   5  -1  -2   91.34    3.25 
  -5  -1   2   88.26    3.21 
   5  -1  -2   93.53    3.34 
   5  -1  -2   83.93    3.31 
   5  -1  -2   92.94    3.69 
  -5  -1   2   93.30    3.26 
   5  -1  -2   88.44    3.20 
  -5  -1   2   97.22    3.29 
  -5  -1   2   87.60    3.22 
   5   1  -2   91.01    3.24 
   5   1  -2   89.03    3.33 
   5   1  -2   87.07    3.73 
   5   1  -2   90.34    3.28 
   5   1  -2   93.28    3.37 
   5   1  -2   89.40    3.22 
  -5   1   2   90.51    3.22 
  -5   1   2   83.09    3.62 
   5   1  -2   88.84    3.23 
  -5   1   2   89.89    3.40 
  -5   1   2   88.30    3.22 
   5   1  -2   88.08    3.33 
  -5   1   2   88.48    3.16 
  -4  -1   2  180.52    6.27 
   4  -1  -2  183.51    6.22 
   4  -1  -2  173.21    6.28 
  -4  -1   2  173.19    6.23 
  -4  -1   2  168.31    6.61 
  -4  -1   2  170.60    6.23 
  -4  -1   2  173.81    6.18 
  -4  -1   2  199.23    6.39 
   4  -1  -2  174.71    6.24 
   4  -1  -2  189.77    6.32 
   4  -1  -2  182.16    6.30 
  -4  -1   2  185.38    6.21 
   4  -1  -2  170.45    6.57 
   4  -1  -2  177.20    6.21 
   4  -1  -2  176.74    6.30 
  -4  -1   2  179.95    6.29 
  -4  -1   2  180.36    6.27 
  -4   1   2  180.25    6.24 
   4   1  -2  165.74    6.30 
  -4   1   2  179.99    6.37 
   4   1  -2  166.62    6.22 
   4   1  -2  182.18    6.23 
   4   1  -2  166.52    6.61 
   4   1  -2  188.38    6.67 
  -4   1   2  169.30    6.18 
  -4   1   2  174.62    6.21 
  -4   1   2  181.43    6.21 
   4   1  -2  178.31    6.24 
  -4   1   2  187.70    6.72 
   4   1  -2  173.78    6.25 
   4   1  -2  180.92    6.32 
   4   1  -2  180.23    6.33 
   4   1  -2  182.16    6.31 
   3  -1  -2   15.68    0.63 
   3  -1  -2   13.96    0.59 
  -3  -1   2   14.18    0.63 
  -3  -1   2   14.85    0.63 
   3  -1  -2   14.73    0.80 
   3  -1  -2   14.41    0.60 
  -3  -1   2   14.45    0.84 
   3  -1  -2   14.42    0.70 
   3  -1  -2   15.04    0.64 
   3  -1  -2   13.96    0.66 
   3  -1  -2   14.73    0.64 
  -3  -1   2   14.91    0.61 
  -3   1   2   15.74    0.92 
   3   1  -2   15.01    0.64 
   3   1  -2   13.69    0.64 
  -3   1   2   15.67    0.64 
   3   1  -2   14.41    0.58 
   3   1  -2   14.43    0.82 
  -3   1   2   13.97    0.68 
   3   1  -2   13.06    0.59 
  -2  -1   2  169.76    5.81 
  -2  -1   2  169.92    5.83 
   2  -1  -2  169.22    5.80 
  -2  -1   2  158.34    5.83 
   2  -1  -2  163.68    5.82 
  -2  -1   2  178.72    6.05 
  -2  -1   2  166.21    5.98 
   2  -1  -2  172.80    6.00 
   2  -1  -2  163.71    5.83 
  -2  -1   2  170.39    5.89 
  -2  -1   2  167.84    5.89 
   2  -1  -2  156.26    5.96 
   2  -1  -2  165.05    5.88 
   2  -1  -2  170.24    5.89 
  -2  -1   2  165.73    5.83 
   2  -1  -2  170.67    5.83 
  -2   1   2  173.38    5.90 
   2   1  -2  161.29    5.82 
   2   1  -2  166.60    5.89 
  -2   1   2  176.48    5.86 
   2   1  -2  156.57    6.01 
  -2   1   2  163.68    6.21 
  -2   1   2  167.70    6.14 
   2   1  -2  162.27    5.80 
  -2   1   2  166.37    5.92 
   2   1  -2  160.97    5.99 
  -2   1   2  164.36    5.79 
  -2   1   2  179.02    5.98 
   2   1  -2  167.38    5.80 
   1  -1  -2  307.10   10.78 
   1  -1  -2  313.79   10.64 
  -1  -1   2  321.14   10.83 
  -1  -1   2  322.77   10.69 
   1  -1  -2  287.32   10.65 
   1  -1  -2  310.05   10.70 
   1  -1  -2  283.67   10.76 
  -1  -1   2  317.16   10.78 
  -1  -1   2  295.03   10.64 
  -1  -1   2  312.36   10.76 
  -1  -1   2  310.35   10.65 
  -1  -1   2  312.40   10.77 
  -1  -1   2  317.07   10.64 
  -1  -1   2  310.93   10.69 
   1  -1  -2  315.42   10.66 
   1  -1  -2  320.86   10.71 
   1  -1  -2  320.40   10.78 
   1   1  -2  294.04   10.62 
   1   1  -2  311.65   10.69 
   1   1  -2  315.30   10.73 
  -1   1   2  291.25   10.77 
   1   1  -2  290.65   10.64 
  -1   1   2  312.00   10.69 
   1   1  -2  309.35   10.67 
   1   1  -2  313.13   10.67 
  -1   1   2  314.68   10.78 
  -1   1   2  315.02   10.70 
  -1   1   2  301.66   10.95 
   1   1  -2  308.67   10.72 
  -1   1   2  297.90   10.64 
  -1   1   2  316.32   10.64 
  -1   1   2  309.01   10.72 
  -1   1   2  308.80   10.76 
   1   1  -2  305.11   10.69 
   0  -1   2  409.44   13.59 
   0  -1   2  402.77   13.61 
   0  -1   2  405.39   13.66 
   0  -1  -2  389.17   13.65 
   0  -1  -2  372.30   13.72 
   0  -1  -2  397.86   13.60 
   0  -1   2  411.98   13.58 
   0  -1  -2  399.32   13.74 
   0  -1   2  404.93   13.66 
   0  -1   2  373.01   13.61 
   0  -1  -2  416.86   13.62 
   0  -1  -2  396.47   13.66 
   0  -1   2  379.86   13.62 
   0  -1  -2  404.37   13.74 
   0  -1   2  378.08   13.65 
   0  -1  -2  390.14   13.74 
   0  -1   2  396.69   13.61 
   0   1  -2  382.44   13.59 
   0   1   2  418.83   13.66 
   0   1  -2  397.96   14.16 
   0   1  -2  412.02   13.60 
   0   1   2  386.35   14.55 
   0   1   2  395.61   13.76 
   0   1   2  396.51   13.68 
   0   1   2  394.18   13.65 
   0   1   2  377.58   13.73 
   0   1   2  389.85   13.73 
   0   1   2  380.67   13.99 
   0   1   2  391.73   13.61 
   0   1  -2  403.03   13.69 
   0   1   2  390.68   13.60 
   0   1  -2  393.76   13.80 
   1  -1   2   13.40    0.48 
   1  -1   2   11.37    0.49 
  -1  -1  -2   11.33    0.54 
  -1  -1  -2   12.45    0.54 
   1  -1   2   11.58    0.44 
  -1  -1  -2   12.02    0.47 
  -1  -1  -2   12.41    0.49 
   1  -1   2   12.00    0.51 
  -1  -1  -2   11.82    0.60 
   1  -1   2   11.77    0.47 
   1  -1   2   12.33    0.44 
  -1   1  -2   11.67    0.67 
  -1   1  -2   11.58    0.45 
   1   1   2   11.65    0.61 
   1   1   2   11.06    0.48 
  -1   1  -2   10.96    0.45 
   1   1   2   11.68    0.54 
   1   1   2   10.78    0.50 
   1   1   2   11.38    0.64 
   1   1   2   11.42    0.62 
   1   1   2   11.48    0.53 
   1   1   2   10.95    0.99 
  -2  -1  -2   46.86    1.90 
   2  -1   2   46.85    1.71 
   2  -1   2   47.26    1.67 
   2  -1   2   46.41    1.65 
  -2  -1  -2   45.50    1.75 
  -2  -1  -2   46.61    1.70 
   2  -1   2   44.34    1.63 
   2  -1   2   43.45    1.79 
   2  -1   2   45.49    1.77 
   2   1   2   48.24    1.70 
  -2   1  -2   46.14    1.67 
   2   1   2   48.68    1.95 
  -2   1  -2   46.42    1.69 
  -2   1  -2   45.22    1.67 
   2   1   2   46.77    1.73 
   2   1   2   48.46    1.73 
   2   1   2   48.42    1.79 
   3  -1   2   16.87    0.86 
   3  -1   2   17.92    0.73 
  -3  -1  -2   17.41    0.67 
   3  -1   2   17.86    0.70 
  -3  -1  -2   18.32    0.82 
   3  -1   2   17.83    0.73 
   3  -1   2   17.18    0.88 
   3  -1   2   17.38    0.87 
  -3  -1  -2   17.72    0.71 
   3  -1   2   17.36    0.68 
   3  -1   2   16.45    0.72 
  -3  -1  -2   16.95    0.74 
  -3  -1  -2   17.20    0.66 
   3   1   2   17.43    0.74 
   3   1   2   18.87    1.02 
   3   1   2   17.27    0.78 
  -3   1  -2   17.07    0.88 
   3   1   2   18.13    0.86 
  -3   1  -2   17.41    0.64 
  -3   1  -2   17.18    0.67 
   3   1   2   19.07    0.79 
   3   1   2   17.37    0.76 
  -3   1  -2   18.84    0.77 
   3   1   2   18.18    0.79 
   3   1   2   18.18    0.70 
   4  -1   2    0.34    0.13 
  -4  -1  -2    0.15    0.08 
   4  -1   2    0.16    0.09 
  -4  -1  -2    0.22    0.11 
   4  -1   2    0.73    0.26 
   4  -1   2    0.50    0.26 
  -4  -1  -2    0.17    0.07 
   4  -1   2    0.25    0.10 
  -4  -1  -2    0.08    0.07 
   4  -1   2    0.23    0.11 
  -4  -1  -2    0.24    0.16 
   4  -1   2    0.15    0.07 
   4   1   2    0.14    0.11 
  -4   1  -2    0.22    0.05 
  -4   1  -2    0.15    0.06 
  -4   1  -2    0.19    0.04 
   4   1   2    0.51    0.12 
  -4   1  -2    0.14    0.12 
   4   1   2    0.25    0.12 
   4   1   2    0.54    0.29 
   4   1   2    0.37    0.14 
   5  -1   2    0.20    0.09 
   5  -1   2    0.50    0.18 
   5  -1   2    0.41    0.14 
  -5  -1  -2    0.15    0.12 
  -5  -1  -2    0.32    0.22 
  -5  -1  -2    0.41    0.11 
   5  -1   2    0.22    0.14 
   5   1   2    0.70    0.23 
   5   1   2    0.19    0.10 
  -5   1  -2    0.41    0.12 
   5   1   2    0.29    0.14 
  -5   1  -2    0.35    0.17 
   5   1   2    0.40    0.16 
  -5   1  -2    0.35    0.09 
   5   1   2    0.19    0.26 
   5   1   2    0.57    0.21 
   5   1   2    0.38    0.19 
  -5   1  -2    0.20    0.12 
  -6  -1  -2   94.29    3.22 
  -6  -1  -2   90.90    3.20 
  -6  -1  -2   87.19    3.19 
  -6  -1  -2   85.52    3.27 
  -6  -1  -2   86.52    3.24 
  -6  -1  -2   91.02    3.22 
  -6  -1  -2   91.89    3.21 
  -6  -1  -2   89.97    3.22 
  -6  -1  -2   90.89    3.26 
  -6  -1  -2   88.10    3.16 
  -6  -1  -2   89.14    3.20 
   6  -1   2   90.52    3.27 
   6  -1   2   91.83    3.31 
  -6  -1  -2   88.13    3.24 
  -6  -1  -2   91.54    3.15 
  -6  -1  -2   89.94    3.28 
   6   1   2   90.76    3.22 
  -6   1  -2   93.74    3.19 
  -6   1  -2   90.67    3.15 
  -6   1  -2   90.92    3.15 
  -6   1  -2   87.33    3.20 
   6   1   2   84.54    3.39 
   6   1   2   88.90    3.43 
   6   1   2   93.04    3.23 
  -6   1  -2   92.95    3.18 
  -6   1  -2   87.89    3.22 
  -6   1  -2   94.53    3.26 
   6   1   2   89.38    3.36 
  -6   1  -2   90.25    3.22 
   6   1   2   96.82    3.33 
  -6   1  -2   89.25    3.22 
  -7  -1  -2    4.41    0.29 
  -7  -1  -2    4.73    0.26 
  -7  -1  -2    4.45    0.26 
  -7  -1  -2    4.66    0.25 
  -7  -1  -2    4.71    0.25 
   7  -1   2    4.33    0.32 
  -7  -1  -2    4.42    0.29 
  -7  -1  -2    3.89    0.29 
  -7  -1  -2    4.49    0.27 
  -7  -1  -2    4.08    0.30 
  -7  -1  -2    4.45    0.29 
   7  -1   2    4.31    0.27 
  -7  -1  -2    4.67    0.23 
  -7  -1  -2    4.74    0.26 
  -7  -1  -2    4.52    0.21 
  -7   1  -2    4.66    0.29 
  -7   1  -2    4.70    0.35 
  -7   1  -2    4.46    0.27 
   7   1   2    4.47    0.32 
  -7   1  -2    4.91    0.22 
   7   1   2    4.23    0.27 
   7   1   2    4.31    0.27 
   7   1   2    4.70    0.34 
  -7   1  -2    4.25    0.23 
  -7   1  -2    4.85    0.25 
  -7   1  -2    4.79    0.27 
  -7   1  -2    4.52    0.34 
   8  -1   2    7.88    0.33 
  -8  -1  -2    7.59    0.30 
  -8  -1  -2    6.78    0.28 
  -8  -1  -2    7.80    0.34 
  -8  -1  -2    6.50    0.32 
  -8  -1  -2    7.80    0.33 
  -8  -1  -2    8.01    0.33 
   8  -1   2    7.72    0.33 
   8   1   2    7.42    0.31 
   8   1   2    7.98    0.33 
   8   1   2    6.53    0.36 
  -8   1  -2    7.68    0.30 
  -8   1  -2    7.11    0.31 
   8   1   2    8.27    0.42 
  -8   1  -2    7.52    0.28 
  -8   1  -2    7.26    0.35 
   8   1   2    7.59    0.32 
  -8   1  -2    7.57    0.31 
  -8  -2   2   12.70    0.52 
   8  -2  -2   12.70    0.72 
  -8  -2   2   13.12    0.52 
   8  -2  -2   12.90    0.52 
  -8  -2   2   12.92    0.53 
  -8  -2   2   12.04    0.53 
  -8  -2   2   12.76    0.48 
  -8  -2   2   10.78    1.15 
  -8  -2   2   12.06    0.56 
  -8  -2   2   12.74    0.51 
  -8  -2   2   12.90    1.20 
   8  -2  -2   12.93    0.52 
  -8  -2   2   13.25    0.58 
  -8   2   2   11.58    0.53 
  -8   2   2   13.11    0.47 
   8   2  -2   12.75    0.47 
   8   2  -2   13.24    0.52 
  -8   2   2   12.51    0.52 
   8   2  -2   11.66    0.56 
  -8   2   2   12.71    0.49 
   8   2  -2   12.33    0.56 
  -8   2   2   11.96    0.49 
  -8   2   2   12.96    0.53 
  -8   2   2   12.79    0.51 
   8   2  -2   14.13    1.44 
  -8   2   2   13.04    0.50 
   8   2  -2   12.90    0.53 
   8   2  -2   12.22    0.54 
   7  -2  -2    3.11    0.28 
  -7  -2   2    2.80    0.26 
   7  -2  -2    3.05    0.23 
   7  -2  -2    2.31    0.28 
  -7  -2   2    2.97    0.24 
  -7  -2   2    2.82    0.29 
  -7  -2   2    2.87    0.23 
  -7  -2   2    2.83    0.26 
  -7  -2   2    2.57    0.26 
  -7  -2   2    3.26    0.33 
   7   2  -2    3.20    0.19 
  -7   2   2    2.81    0.22 
  -7   2   2    3.27    0.26 
  -7   2   2    2.92    0.27 
  -7   2   2    2.75    0.17 
  -7   2   2    3.23    0.20 
   7   2  -2    2.89    0.24 
  -7   2   2    3.52    0.21 
   7   2  -2    2.99    0.31 
  -7   2   2    3.17    0.21 
   7   2  -2    3.01    0.29 
   7   2  -2    3.15    0.28 
  -7   2   2    3.28    0.24 
  -7   2   2    3.25    0.23 
  -7   2   2    3.06    0.17 
  -7   2   2    2.89    0.21 
  -7   2   2    2.97    0.24 
  -6  -2   2   13.82    0.62 
  -6  -2   2   12.02    0.56 
   6  -2  -2   13.09    0.61 
   6  -2  -2   12.56    0.68 
  -6  -2   2   14.28    0.72 
  -6  -2   2   13.47    0.66 
   6  -2  -2   12.98    0.61 
   6  -2  -2   12.66    0.64 
   6  -2  -2   12.62    0.63 
   6   2  -2   13.53    0.64 
   6   2  -2   13.11    0.63 
  -6   2   2   13.46    0.62 
  -6   2   2   12.62    0.54 
   6   2  -2   11.97    0.73 
  -6   2   2   12.58    0.57 
  -6   2   2   12.49    0.57 
  -6   2   2   13.28    0.58 
   6   2  -2   11.83    0.67 
  -6   2   2   13.33    0.59 
   6   2  -2   13.12    0.75 
   6   2  -2   11.36    0.70 
  -5  -2   2    1.56    0.19 
  -5  -2   2    1.20    0.17 
   5  -2  -2    0.84    0.31 
   5  -2  -2    0.95    0.19 
  -5  -2   2    1.23    0.17 
  -5  -2   2    0.74    0.21 
  -5  -2   2    1.08    0.18 
   5  -2  -2    0.80    0.21 
  -5  -2   2    0.92    0.23 
  -5  -2   2    1.17    0.21 
   5  -2  -2    0.93    0.21 
   5  -2  -2    0.87    0.15 
   5  -2  -2    1.02    0.16 
  -5  -2   2    1.04    0.15 
   5  -2  -2    1.05    0.21 
   5   2  -2    1.00    0.22 
  -5   2   2    0.85    0.11 
  -5   2   2    0.70    0.16 
   5   2  -2    1.07    0.17 
  -5   2   2    0.88    0.14 
  -5   2   2    1.00    0.16 
   5   2  -2    0.70    0.20 
   5   2  -2    0.78    0.26 
   5   2  -2    1.01    0.18 
   5   2  -2    1.38    0.24 
  -5   2   2    0.90    0.14 
  -5   2   2    0.87    0.23 
   5   2  -2    0.97    0.21 
  -4  -2   2    1.11    0.15 
   4  -2  -2    1.22    0.14 
  -4  -2   2    1.35    0.36 
  -4  -2   2    0.68    0.23 
  -4  -2   2    1.16    0.20 
  -4  -2   2    1.28    0.20 
  -4  -2   2    1.25    0.20 
   4  -2  -2    1.79    0.20 
   4  -2  -2    1.21    0.18 
   4  -2  -2    1.51    0.20 
  -4  -2   2    1.08    0.17 
   4  -2  -2    1.23    0.28 
  -4  -2   2    1.26    0.17 
   4  -2  -2    1.36    0.15 
  -4  -2   2    1.08    0.13 
  -4  -2   2    1.18    0.19 
  -4  -2   2    1.39    0.16 
  -4  -2   2    1.49    0.20 
   4  -2  -2    1.12    0.18 
   4  -2  -2    1.19    0.14 
   4   2  -2    1.33    0.16 
  -4   2   2    1.43    0.21 
  -4   2   2    1.19    0.20 
  -4   2   2    1.50    0.14 
   4   2  -2    1.38    0.19 
   4   2  -2    1.36    0.22 
  -4   2   2    1.43    0.22 
   4   2  -2    1.37    0.16 
   3  -2  -2   73.98    2.79 
   3  -2  -2   69.60    2.76 
   3  -2  -2   69.64    2.51 
   3  -2  -2   69.64    2.62 
   3  -2  -2   70.66    2.55 
  -3  -2   2   73.32    2.58 
  -3  -2   2   72.09    2.59 
  -3  -2   2   69.10    2.51 
   3  -2  -2   67.63    2.51 
   3  -2  -2   68.21    2.54 
  -3  -2   2   69.57    2.54 
  -3  -2   2   64.59    2.51 
  -3  -2   2   70.72    2.86 
  -3  -2   2   68.61    2.58 
   3  -2  -2   68.00    2.48 
   3  -2  -2   71.06    2.56 
   3   2  -2   70.32    2.50 
  -3   2   2   70.78    2.62 
   3   2  -2   69.05    2.57 
  -3   2   2   72.89    3.29 
   3   2  -2   71.45    2.49 
   3   2  -2   69.74    2.52 
   3   2  -2   72.94    2.53 
   3   2  -2   71.50    2.63 
  -3   2   2   69.82    2.48 
   3   2  -2   70.92    2.55 
  -3   2   2   69.69    2.76 
   2  -2  -2  151.37    5.59 
  -2  -2   2  157.39    5.64 
   2  -2  -2  154.35    5.81 
  -2  -2   2  161.99    5.65 
   2  -2  -2  152.11    5.63 
  -2  -2   2  167.88    5.72 
   2  -2  -2  155.06    5.63 
  -2  -2   2  162.36    5.62 
   2  -2  -2  170.37    5.81 
   2  -2  -2  161.15    5.60 
  -2  -2   2  160.06    5.64 
   2  -2  -2  158.97    5.63 
  -2  -2   2  164.47    5.88 
   2  -2  -2  166.46    5.70 
   2   2  -2  155.38    5.68 
  -2   2   2  163.99    5.91 
  -2   2   2  161.24    5.69 
   2   2  -2  162.45    5.62 
  -2   2   2  166.50    6.29 
   2   2  -2  158.74    5.95 
  -2   2   2  169.23    5.69 
  -1  -2   2  275.22    9.61 
   1  -2  -2  276.28    9.43 
   1  -2  -2  266.35    9.46 
  -1  -2   2  280.88    9.49 
  -1  -2   2  275.00    9.44 
  -1  -2   2  276.67    9.56 
   1  -2  -2  271.78    9.52 
   1  -2  -2  259.59    9.45 
   1  -2  -2  281.19    9.61 
   1  -2  -2  273.36    9.51 
  -1  -2   2  279.89    9.43 
  -1  -2   2  265.38    9.45 
   1  -2  -2  271.46    9.63 
  -1  -2   2  270.72    9.49 
   1  -2  -2  253.96    9.45 
  -1   2   2  266.39    9.47 
  -1   2   2  266.61    9.74 
   1   2  -2  283.51    9.47 
   1   2  -2  274.83    9.59 
   1   2  -2  270.97    9.44 
   1   2  -2  268.71    9.47 
   1   2  -2  280.88    9.61 
  -1   2   2  279.88    9.51 
  -1   2   2  271.99    9.51 
   1   2  -2  267.72    9.45 
  -1   2   2  275.08   10.02 
  -1   2   2  287.26   11.33 
  -1   2   2  265.98    9.59 
   1   2  -2  278.77   11.00 
   0  -2  -2  644.18   22.42 
   0  -2  -2  693.09   22.36 
   0  -2   2  661.37   22.42 
   0  -2  -2  630.58   22.35 
   0  -2  -2  641.79   22.50 
   0  -2  -2  659.50   22.33 
   0  -2  -2  632.26   22.36 
   0  -2  -2  617.25   22.53 
   0  -2   2  670.48   22.33 
   0  -2  -2  628.81   22.41 
   0  -2   2  674.72   22.39 
   0  -2   2  643.79   22.30 
   0  -2   2  627.71   22.29 
   0   2   2  678.39   22.40 
   0   2  -2  666.80   22.32 
   0   2   2  620.18   22.42 
   0   2  -2  657.91   22.69 
   0   2   2  658.58   22.75 
   0   2   2  642.69   22.42 
   0   2  -2  651.68   23.56 
   0   2  -2  645.20   22.33 
   0   2  -2  651.79   22.31 
   0   2   2  622.46   24.01 
   0   2  -2  661.71   22.68 
   1  -2   2   11.56    0.43 
  -1  -2  -2   11.35    0.52 
  -1  -2  -2   11.46    0.57 
   1  -2   2   11.72    0.42 
  -1  -2  -2   11.46    0.51 
  -1  -2  -2   11.32    0.66 
  -1  -2  -2   11.63    0.51 
  -1  -2  -2   11.89    0.49 
  -1   2  -2   11.92    0.76 
   1   2   2   11.16    0.70 
   1   2   2   11.89    1.34 
  -1   2  -2   11.46    0.43 
   1   2   2   11.09    0.51 
  -2  -2  -2   32.09    1.45 
   2  -2   2   31.94    1.14 
  -2  -2  -2   31.04    1.18 
   2  -2   2   32.41    1.15 
  -2  -2  -2   32.29    1.23 
  -2  -2  -2   30.32    1.24 
  -2   2  -2   33.21    1.14 
  -2   2  -2   32.09    1.14 
   2   2   2   30.60    1.24 
  -2   2  -2   32.50    1.60 
  -2   2  -2   32.43    1.20 
   2   2   2   32.58    1.50 
   2   2   2   30.84    1.18 
   2   2   2   33.99    1.25 
   2   2   2   27.04    1.26 
   3  -2   2  112.00    3.87 
  -3  -2  -2  108.58    3.93 
  -3  -2  -2  112.95    3.92 
  -3  -2  -2  108.24    3.94 
  -3  -2  -2  106.79    3.98 
   3  -2   2  111.31    3.92 
  -3  -2  -2  110.35    4.00 
   3  -2   2  110.57    4.06 
  -3  -2  -2  112.92    3.96 
   3   2   2  111.36    3.94 
   3   2   2  112.77    4.02 
   3   2   2  111.97    4.04 
   3   2   2  112.64    4.02 
  -3   2  -2  108.56    3.86 
   3   2   2  109.62    3.94 
  -3   2  -2  112.91    3.91 
  -3   2  -2  113.39    3.93 
  -3   2  -2  110.31    4.04 
   3   2   2  109.93    3.95 
   3   2   2  114.81    4.05 
  -3   2  -2  110.47    4.03 
   3   2   2  111.02    4.05 
   3   2   2  113.89    4.39 
  -3   2  -2  115.55    3.95 
  -4  -2  -2   40.86    1.56 
   4  -2   2   43.64    1.60 
  -4  -2  -2   36.24    1.51 
   4  -2   2   41.69    1.55 
  -4  -2  -2   43.35    1.60 
  -4  -2  -2   42.13    1.65 
   4   2   2   42.83    1.69 
  -4   2  -2   39.94    1.51 
  -4   2  -2   41.61    1.62 
   4   2   2   42.56    1.71 
   4   2   2   42.38    1.59 
   4   2   2   43.40    1.72 
  -4   2  -2   42.31    1.49 
  -4   2  -2   44.01    1.75 
  -4   2  -2   40.66    1.46 
   4   2   2   42.48    2.09 
   4   2   2   41.20    1.64 
   4   2   2   40.64    1.59 
  -5  -2  -2    6.07    0.35 
  -5  -2  -2    6.50    0.38 
   5  -2   2    6.55    0.34 
   5  -2   2    6.04    0.37 
  -5  -2  -2    5.99    0.43 
   5   2   2    6.04    0.48 
   5   2   2    5.99    0.44 
  -5   2  -2    6.62    0.53 
  -5   2  -2    6.23    0.51 
   5   2   2    4.80    0.96 
  -5   2  -2    5.69    0.41 
  -5   2  -2    6.77    0.29 
   5   2   2    6.95    0.48 
   5   2   2    6.58    0.51 
  -5   2  -2    5.91    0.33 
   5   2   2    6.06    0.41 
  -5   2  -2    6.46    0.50 
   5   2   2    5.81    0.39 
   5   2   2    6.35    0.40 
   5   2   2    6.35    0.40 
  -6  -2  -2    2.99    0.24 
  -6  -2  -2    3.01    0.27 
  -6  -2  -2    2.33    0.24 
  -6  -2  -2    2.93    0.23 
  -6  -2  -2    2.74    0.26 
  -6  -2  -2    2.68    0.34 
  -6  -2  -2    2.71    0.25 
  -6  -2  -2    2.52    0.24 
  -6  -2  -2    2.53    0.31 
   6  -2   2    2.96    0.24 
  -6  -2  -2    2.98    0.28 
  -6  -2  -2    2.62    0.29 
  -6  -2  -2    3.14    0.28 
  -6  -2  -2    2.88    0.16 
  -6   2  -2    2.93    0.16 
   6   2   2    2.76    0.22 
   6   2   2    2.94    0.29 
   6   2   2    2.44    0.31 
  -6   2  -2    2.95    0.16 
  -6   2  -2    3.01    0.21 
  -6   2  -2    2.88    0.22 
   6   2   2    2.73    0.29 
   6   2   2    2.88    0.22 
  -6   2  -2    2.95    0.21 
  -6   2  -2    2.85    0.18 
   6   2   2    2.61    0.31 
   6   2   2    2.72    0.29 
   6   2   2    2.69    0.24 
   6   2   2    2.99    0.29 
  -7  -2  -2   17.38    0.74 
  -7  -2  -2   16.86    0.69 
  -7  -2  -2   17.61    0.69 
  -7  -2  -2   17.79    0.71 
  -7  -2  -2   17.62    0.74 
  -7  -2  -2   18.17    0.73 
  -7  -2  -2   18.15    0.76 
  -7  -2  -2   17.58    0.71 
  -7  -2  -2   17.65    0.71 
  -7  -2  -2   17.89    0.69 
  -7   2  -2   17.62    0.64 
  -7   2  -2   18.25    0.67 
   7   2   2   17.74    0.78 
   7   2   2   17.25    0.77 
   7   2   2   15.95    0.69 
  -7   2  -2   18.04    0.69 
   7   2   2   17.84    0.71 
   7   2   2   17.39    0.68 
   7   2   2   17.46    0.75 
  -8  -3   2    2.19    0.18 
  -8  -3   2    2.14    0.62 
  -8  -3   2    2.53    0.17 
  -8  -3   2    2.28    0.14 
  -8  -3   2    2.26    0.16 
  -8  -3   2    1.96    0.16 
  -8  -3   2    2.23    0.19 
   8  -3  -2    2.19    0.15 
  -8  -3   2    2.46    0.23 
   8  -3  -2    2.23    0.15 
  -8  -3   2    1.97    0.16 
  -8   3   2    2.09    0.13 
   8   3  -2    2.19    0.16 
   8   3  -2    2.35    0.19 
   8   3  -2    2.25    0.14 
  -8   3   2    2.26    0.14 
   8   3  -2    2.02    0.17 
  -8   3   2    2.29    0.11 
   8   3  -2    1.89    0.19 
   8   3  -2    2.17    0.17 
  -8   3   2    2.05    0.13 
   8   3  -2    2.24    0.10 
  -8   3   2    2.00    0.12 
  -7  -3   2   11.78    0.54 
   7  -3  -2   12.55    0.51 
  -7  -3   2   11.53    0.83 
  -7  -3   2   11.32    0.54 
  -7  -3   2   11.64    0.53 
  -7  -3   2   11.46    0.62 
  -7  -3   2   11.03    0.51 
  -7   3   2   11.41    0.50 
   7   3  -2   11.66    0.50 
  -7   3   2   11.31    0.53 
   7   3  -2   10.72    0.48 
   7   3  -2   12.22    0.57 
  -7   3   2   11.44    0.48 
  -7   3   2   11.55    0.52 
  -7   3   2   11.80    0.51 
   7   3  -2   11.45    0.57 
  -7   3   2   10.51    0.47 
  -7   3   2   11.97    0.50 
   7   3  -2   11.51    0.42 
   7   3  -2   11.63    0.55 
  -7   3   2   11.50    0.44 
   7   3  -2   11.37    0.44 
  -7   3   2   10.99    0.46 
   7   3  -2   11.64    0.54 
   6  -3  -2    6.27    0.36 
  -6  -3   2    5.95    0.33 
  -6  -3   2    6.13    0.39 
  -6  -3   2    6.33    0.40 
  -6  -3   2    6.11    0.28 
  -6  -3   2    5.37    0.33 
  -6  -3   2    6.19    0.37 
  -6  -3   2    6.66    0.41 
  -6  -3   2    6.46    0.40 
  -6  -3   2    6.06    0.43 
  -6  -3   2    5.91    0.46 
  -6  -3   2    6.55    0.39 
   6   3  -2    5.98    0.49 
  -6   3   2    5.95    0.36 
  -6   3   2    6.52    0.29 
  -6   3   2    6.13    0.68 
  -6   3   2    5.87    0.29 
  -6   3   2    6.37    0.34 
   6   3  -2    5.82    0.40 
   6   3  -2    5.75    0.40 
  -6   3   2    5.41    0.30 
   6   3  -2    6.00    0.27 
  -6   3   2    6.62    0.32 
   6   3  -2    6.01    0.40 
   6   3  -2    5.58    0.37 
   6   3  -2    6.06    0.36 
  -6   3   2    6.40    0.26 
  -6   3   2    6.21    0.33 
   6   3  -2    6.17    0.43 
   6   3  -2    5.42    0.41 
   6   3  -2    6.30    0.40 
  -6   3   2    6.07    0.27 
  -6   3   2    6.08    0.30 
   6   3  -2    6.00    0.33 
  -6   3   2    6.22    0.33 
  -6   3   2    5.83    0.36 
  -6   3   2    5.75    0.31 
  -5  -3   2   27.05    1.21 
   5  -3  -2   27.50    1.07 
   5  -3  -2   27.42    1.12 
   5  -3  -2   27.08    1.18 
  -5  -3   2   27.38    1.11 
  -5  -3   2   26.36    1.14 
  -5  -3   2   25.79    1.10 
  -5  -3   2   26.68    1.23 
  -5  -3   2   24.58    1.33 
   5  -3  -2   27.88    1.11 
  -5  -3   2   28.83    1.65 
  -5  -3   2   27.22    1.10 
   5  -3  -2   27.23    1.11 
  -5  -3   2   26.76    1.11 
  -5  -3   2   26.81    1.09 
  -5  -3   2   26.82    1.12 
  -5   3   2   28.00    1.08 
  -5   3   2   27.40    1.03 
  -5   3   2   26.22    1.00 
  -5   3   2   28.32    1.04 
   5   3  -2   27.78    1.21 
  -5   3   2   26.86    1.04 
   5   3  -2   28.36    1.11 
   5   3  -2   25.00    1.13 
  -5   3   2   24.55    1.21 
  -4  -3   2    0.67    0.14 
   4  -3  -2    0.33    0.11 
  -4  -3   2    0.32    0.11 
  -4  -3   2    0.36    0.13 
  -4  -3   2    0.33    0.14 
   4  -3  -2    0.39    0.11 
   4  -3  -2    0.20    0.11 
  -4  -3   2    0.35    0.29 
  -4  -3   2    0.14    0.12 
   4  -3  -2    0.50    0.16 
  -4  -3   2    0.42    0.13 
   4  -3  -2    0.32    0.13 
  -4  -3   2    0.28    0.11 
   4  -3  -2    0.37    0.14 
  -4  -3   2    0.25    0.14 
   4  -3  -2    0.37    0.12 
  -4  -3   2    0.53    0.17 
  -4  -3   2    0.22    0.15 
   4   3  -2    0.12    0.10 
  -4   3   2    0.31    0.10 
  -4   3   2    0.33    0.11 
   4   3  -2    0.64    0.13 
  -4   3   2    0.24    0.04 
  -4   3   2    0.31    0.17 
   4   3  -2    0.17    0.11 
  -4   3   2    0.86    0.14 
  -4   3   2    0.37    0.04 
  -3  -3   2   46.22    1.87 
   3  -3  -2   46.54    1.70 
  -3  -3   2   47.44    1.73 
   3  -3  -2   46.20    1.78 
  -3  -3   2   45.15    1.74 
  -3  -3   2   47.00    1.76 
   3  -3  -2   48.27    1.74 
  -3  -3   2   51.47    1.84 
  -3  -3   2   48.65    1.84 
   3  -3  -2   46.59    2.01 
  -3  -3   2   46.51    1.81 
  -3  -3   2   48.29    2.13 
   3  -3  -2   46.10    2.00 
   3  -3  -2   46.03    1.71 
   3  -3  -2   48.74    1.78 
   3  -3  -2   47.12    1.77 
   3   3  -2   47.15    1.78 
   3   3  -2   46.65    1.77 
  -3   3   2   45.75    1.70 
  -3   3   2   45.16    1.74 
   3   3  -2   48.90    1.90 
   3   3  -2   47.34    1.72 
   3   3  -2   48.74    1.75 
  -3   3   2   48.83    1.86 
   3   3  -2   45.24    1.78 
  -3   3   2   45.75    1.66 
  -2  -3   2  120.29    4.45 
   2  -3  -2  126.83    4.67 
   2  -3  -2  128.37    4.40 
  -2  -3   2  117.50    4.53 
   2  -3  -2  119.48    4.43 
   2  -3  -2  126.14    4.64 
   2  -3  -2  126.69    4.41 
   2  -3  -2  127.95    4.45 
  -2  -3   2  126.32    4.40 
  -2  -3   2  125.26    4.39 
  -2  -3   2  136.70    4.75 
   2  -3  -2  123.53    4.38 
  -2  -3   2  122.30    4.41 
  -2  -3   2  127.05    4.43 
  -2  -3   2  128.71    4.46 
   2  -3  -2  130.62    4.44 
  -2  -3   2  125.25    4.46 
  -2  -3   2  127.41    4.47 
  -2   3   2  121.70    4.38 
   2   3  -2  127.57    4.73 
  -2   3   2  132.17    4.52 
   2   3  -2  127.43    4.50 
  -2   3   2  117.23    4.44 
  -2   3   2  125.87    5.35 
   2   3  -2  123.89    4.42 
   2   3  -2  117.37    4.42 
  -2   3   2  130.29    4.45 
   2   3  -2  124.66    4.39 
   2   3  -2  120.82    4.45 
   2   3  -2  125.02    4.51 
   2   3  -2  127.80    6.84 
   2   3  -2  130.58    4.45 
   1  -3  -2   57.33    2.29 
   1  -3  -2   56.22    2.09 
  -1  -3   2   55.06    2.07 
   1  -3  -2   59.81    2.09 
  -1  -3   2   56.54    2.03 
   1  -3  -2   56.89    2.05 
   1  -3  -2   56.25    2.08 
   1  -3  -2   57.00    2.15 
  -1  -3   2   57.41    2.25 
  -1  -3   2   57.19    2.06 
   1  -3  -2   54.72    2.04 
  -1  -3   2   59.15    2.05 
   1  -3  -2   58.47    2.27 
  -1  -3   2   58.06    2.22 
  -1  -3   2   57.54    2.12 
  -1   3   2   55.96    2.82 
   1   3  -2   54.46    2.03 
   1   3  -2   59.32    2.56 
   1   3  -2   56.59    3.77 
  -1   3   2   57.35    2.15 
   1   3  -2   58.16    2.10 
  -1   3   2   56.55    2.31 
   1   3  -2   58.44    2.08 
  -1   3   2   54.91    3.93 
   0  -3  -2  138.02    5.00 
   0  -3  -2  147.80    5.13 
   0  -3   2  141.96    4.92 
   0  -3  -2  135.89    5.00 
   0  -3  -2  154.17    5.04 
   0  -3  -2  140.22    5.04 
   0  -3   2  145.07    4.96 
   0  -3   2  143.42    4.96 
   0  -3  -2  147.14    5.29 
   0  -3   2  142.75    5.06 
   0  -3  -2  135.64    5.03 
   0  -3  -2  135.65    5.04 
   0  -3   2  140.42    4.99 
   0   3   2  139.60    7.20 
   0   3   2  145.86    5.07 
   0   3  -2  142.83    5.49 
   0   3  -2  143.59    5.08 
   0   3   2  149.99    5.42 
   0   3  -2  136.07    4.97 
   0   3   2  141.16    5.00 
   0   3  -2  144.24    5.01 
   0   3  -2  146.92    4.98 
   0   3  -2  142.59    4.99 
   0   3   2  150.64    5.12 
  -1  -3  -2   14.05    0.63 
  -1  -3  -2   13.98    0.62 
  -1  -3  -2   13.38    0.59 
  -1  -3  -2   14.15    0.59 
  -1  -3  -2   14.17    0.83 
  -1  -3  -2   12.96    0.63 
  -1  -3  -2   13.03    0.61 
  -1  -3  -2   12.94    0.70 
   1   3   2   16.42    1.91 
   1   3   2   13.84    0.60 
  -1   3  -2   12.92    1.34 
   1   3   2   13.73    0.54 
  -1   3  -2   13.87    0.50 
  -1   3  -2   14.36    0.51 
   1   3   2   13.43    0.68 
  -1   3  -2   14.39    0.97 
   1   3   2   13.59    0.61 
   1   3   2   13.30    0.63 
  -2  -3  -2   22.06    0.87 
  -2  -3  -2   22.18    0.92 
  -2  -3  -2   19.90    0.88 
  -2  -3  -2   22.45    0.94 
  -2  -3  -2   21.15    0.86 
  -2  -3  -2   21.83    0.94 
  -2  -3  -2   20.62    0.85 
  -2  -3  -2   21.09    0.85 
  -2  -3  -2   23.63    1.20 
   2   3   2   20.87    0.91 
   2   3   2   21.91    0.84 
   2   3   2   21.73    1.00 
   2   3   2   21.02    0.93 
   2   3   2   20.84    0.88 
   2   3   2   20.98    0.85 
  -2   3  -2   21.71    1.33 
  -3  -3  -2   75.88    2.76 
  -3  -3  -2   72.58    2.76 
  -3  -3  -2   70.23    2.70 
  -3  -3  -2   72.46    2.68 
  -3  -3  -2   71.17    2.76 
  -3  -3  -2   74.79    2.67 
  -3  -3  -2   77.01    2.67 
  -3  -3  -2   75.25    2.78 
  -3  -3  -2   77.44    2.72 
  -3  -3  -2   74.44    2.67 
  -3  -3  -2   71.13    3.10 
   3   3   2   72.52    2.78 
  -3   3  -2   73.70    2.59 
  -3   3  -2   76.62    2.59 
   3   3   2   71.23    2.66 
   3   3   2   74.38    2.68 
   3   3   2   74.33    2.72 
   3   3   2   73.44    2.77 
  -3   3  -2   73.47    2.59 
  -3   3  -2   73.74    2.59 
  -4  -3  -2   58.61    2.26 
  -4  -3  -2   61.92    2.24 
   4  -3   2   63.63    2.21 
  -4  -3  -2   60.67    2.31 
  -4  -3  -2   62.67    2.38 
  -4   3  -2   60.01    2.20 
   4   3   2   61.84    2.43 
   4   3   2   60.76    3.30 
  -4   3  -2   57.17    2.20 
   4   3   2   59.84    2.39 
  -4   3  -2   61.57    2.20 
   4   3   2   63.08    2.35 
   4   3   2   63.89    2.30 
   4   3   2   63.95    2.41 
  -5  -3  -2    7.73    0.47 
  -5  -3  -2    7.65    0.43 
   5  -3   2    8.55    0.43 
  -5  -3  -2    8.11    0.52 
   5   3   2    8.08    0.48 
   5   3   2    7.88    0.55 
   5   3   2    8.61    0.60 
   5   3   2    8.53    0.46 
  -5   3  -2    8.29    0.38 
  -5   3  -2    8.69    0.41 
   5   3   2    7.67    0.52 
  -5   3  -2    7.90    0.36 
   5   3   2    7.81    0.47 
   5   3   2    8.28    0.58 
  -6  -3  -2   49.59    1.93 
  -6  -3  -2   48.90    1.85 
  -6  -3  -2   51.27    1.82 
  -6  -3  -2   48.53    1.83 
  -6  -3  -2   46.53    1.80 
  -6  -3  -2   51.27    1.90 
  -6  -3  -2   51.55    1.95 
  -6  -3  -2   48.56    1.81 
  -6  -3  -2   47.20    1.81 
  -6  -3  -2   50.64    1.85 
  -6   3  -2   50.72    1.78 
   6   3   2   47.52    1.80 
   6   3   2   50.46    1.86 
  -6   3  -2   47.97    1.81 
   6   3   2   48.31    1.87 
   6   3   2   49.44    1.89 
   6   3   2   48.48    1.75 
  -7  -3  -2   11.70    0.44 
  -7  -3  -2   12.14    0.55 
  -7  -3  -2   11.64    0.55 
  -7  -3  -2   11.29    0.50 
  -7  -3  -2   11.85    0.49 
  -7  -3  -2   12.36    0.54 
  -7  -3  -2   12.50    0.50 
  -7  -3  -2   10.50    1.01 
  -7  -3  -2   11.12    0.51 
  -7  -3  -2   11.58    0.54 
  -7  -3  -2   11.94    0.50 
  -7  -3  -2   12.08    0.51 
   7   3   2   11.70    0.44 
  -7   3  -2   11.61    0.45 
   7   3   2   11.51    0.48 
   7   3   2   12.04    0.55 
  -7   3  -2   12.12    0.45 
   7   3   2   11.64    0.54 
   7   3   2   11.81    0.52 
  -7   3  -2   11.89    0.43 
  -7  -4   2    2.27    0.21 
  -7  -4   2    2.13    0.42 
  -7  -4   2    2.01    0.22 
  -7  -4   2    2.16    0.21 
  -7  -4   2    2.25    0.19 
  -7  -4   2    2.32    0.16 
   7   4  -2    2.25    0.20 
   7   4  -2    2.12    0.21 
  -7   4   2    2.44    0.15 
   7   4  -2    2.12    0.28 
   7   4  -2    2.27    0.18 
  -7   4   2    2.33    0.14 
  -7   4   2    2.50    0.15 
   7   4  -2    2.63    0.22 
  -7   4   2    2.38    0.14 
   7   4  -2    2.45    0.19 
   7   4  -2    2.19    0.25 
  -7   4   2    2.38    0.15 
  -7   4   2    2.21    0.11 
  -6  -4   2   10.54    0.58 
  -6  -4   2    9.61    0.45 
  -6  -4   2   10.00    0.50 
  -6  -4   2    9.79    0.52 
  -6  -4   2    9.09    0.49 
  -6  -4   2    9.60    0.52 
  -6  -4   2    9.73    0.40 
  -6   4   2   10.08    0.41 
  -6   4   2    9.29    0.47 
  -6   4   2    9.46    0.42 
  -6   4   2   10.10    0.44 
   6   4  -2    9.58    0.46 
  -6   4   2   10.00    0.41 
   6   4  -2   10.16    0.42 
  -6   4   2    9.59    0.43 
   6   4  -2    9.72    0.55 
   6   4  -2   10.28    0.52 
   6   4  -2    9.45    0.44 
   6   4  -2   10.59    0.52 
  -6   4   2   10.20    0.44 
   6   4  -2    9.95    0.37 
   6   4  -2   10.32    0.51 
   6   4  -2    9.21    0.48 
  -6   4   2    9.37    0.38 
  -5  -4   2   78.09    2.96 
  -5  -4   2   82.80    2.94 
  -5  -4   2   84.45    2.90 
  -5  -4   2   76.60    2.86 
  -5  -4   2   83.95    2.97 
  -5  -4   2   84.53    2.97 
  -5  -4   2   82.24    3.01 
  -5  -4   2   76.88    2.95 
  -5  -4   2   82.94    2.95 
   5  -4  -2   76.98    2.90 
  -5  -4   2   85.45    2.99 
  -5  -4   2   81.22    2.87 
  -5  -4   2   81.04    3.01 
  -5  -4   2   77.98    2.96 
  -5  -4   2   74.34    3.08 
   5   4  -2   78.74    2.95 
   5   4  -2   80.13    2.90 
  -5   4   2   81.76    2.91 
   5   4  -2   87.44    2.95 
  -5   4   2   80.93    3.17 
   5   4  -2   79.14    2.94 
  -5   4   2   81.84    2.84 
   5   4  -2   82.92    2.96 
   5   4  -2   79.06    3.02 
   5   4  -2   78.33    2.79 
  -5   4   2   82.70    2.85 
   5   4  -2   77.46    2.87 
   5   4  -2   75.59    2.89 
  -5   4   2   82.12    2.87 
   5   4  -2   76.37    2.81 
  -5   4   2   77.35    2.84 
   5   4  -2   76.34    2.85 
  -5   4   2   80.43    2.87 
   5   4  -2   77.37    3.03 
  -5   4   2   82.72    2.84 
  -5   4   2   88.93    2.90 
  -5   4   2   81.93    2.81 
   5   4  -2   81.21    2.99 
   4  -4  -2   69.32    2.51 
   4  -4  -2   68.24    2.47 
  -4  -4   2   72.37    2.56 
  -4  -4   2   66.27    2.51 
  -4  -4   2   68.72    2.66 
  -4  -4   2   69.56    2.65 
  -4  -4   2   74.58    2.59 
  -4  -4   2   68.35    2.54 
  -4  -4   2   61.30    3.01 
  -4  -4   2   71.26    2.56 
  -4  -4   2   68.50    2.53 
  -4   4   2   64.04    2.43 
   4   4  -2   70.60    2.58 
  -4   4   2   62.66    2.62 
  -4   4   2   71.59    2.83 
  -4   4   2   69.78    2.41 
   4   4  -2   70.11    2.51 
  -4   4   2   65.90    2.48 
   4   4  -2   67.40    2.73 
  -4   4   2   66.12    2.91 
  -4   4   2   68.82    2.43 
  -3  -4   2   22.99    0.96 
  -3  -4   2   23.33    0.95 
  -3  -4   2   22.70    1.06 
   3  -4  -2   24.87    1.01 
   3  -4  -2   23.67    0.96 
  -3  -4   2   23.77    0.97 
  -3  -4   2   22.69    0.99 
  -3  -4   2   23.05    1.05 
  -3  -4   2   24.69    1.00 
  -3  -4   2   24.91    1.38 
  -3  -4   2   25.12    1.07 
  -3  -4   2   23.86    1.05 
  -3  -4   2   24.48    1.01 
   3  -4  -2   23.26    0.92 
  -3   4   2   23.88    0.90 
   3   4  -2   24.13    1.01 
   3   4  -2   22.43    1.01 
  -3   4   2   24.38    1.08 
   3   4  -2   24.58    1.13 
   3   4  -2   24.75    1.05 
   3   4  -2   24.77    1.06 
  -3   4   2   24.08    0.97 
   3   4  -2   23.10    0.96 
   3   4  -2   23.24    0.98 
  -3   4   2   27.87    0.97 
  -3   4   2   24.09    0.95 
  -3   4   2   23.57    1.25 
  -3   4   2   24.61    0.91 
   3   4  -2   21.06    1.28 
  -2  -4   2   23.48    0.98 
  -2  -4   2   25.13    0.91 
  -2  -4   2   23.29    0.91 
   2  -4  -2   23.31    0.97 
  -2  -4   2   24.29    1.00 
   2  -4  -2   25.69    1.16 
   2  -4  -2   22.67    0.96 
   2  -4  -2   23.04    0.92 
  -2  -4   2   23.11    0.95 
  -2  -4   2   23.63    0.94 
  -2  -4   2   22.87    0.98 
   2  -4  -2   23.07    0.89 
   2  -4  -2   22.75    1.22 
  -2  -4   2   21.92    1.21 
  -2  -4   2   23.88    0.95 
  -2   4   2   23.90    0.89 
  -2   4   2   23.50    0.82 
   2   4  -2   22.86    0.99 
  -2   4   2   19.37    1.36 
   2   4  -2   24.13    0.98 
  -2   4   2   22.03    0.93 
   2   4  -2   22.60    0.86 
  -2   4   2   23.79    1.04 
   2   4  -2   23.20    1.04 
   2   4  -2   22.86    0.91 
   1  -4  -2   13.23    0.56 
  -1  -4   2   13.62    0.54 
   1  -4  -2   12.96    0.82 
  -1  -4   2   13.56    0.57 
   1  -4  -2   13.30    0.62 
   1  -4  -2   13.69    0.58 
   1  -4  -2   13.98    0.56 
  -1  -4   2   13.00    0.75 
  -1  -4   2   14.32    0.66 
   1  -4  -2   13.58    0.62 
   1  -4  -2   12.87    1.00 
   1  -4  -2   13.68    0.63 
  -1  -4   2   13.38    0.60 
   1   4  -2   13.12    0.63 
  -1   4   2   13.14    0.55 
   1   4  -2   13.65    0.65 
   1   4  -2   13.45    0.54 
   1   4  -2   13.59    1.06 
   1   4  -2   13.80    0.79 
   1   4  -2   15.97    2.45 
   1   4  -2   13.49    0.62 
  -1   4   2   13.61    0.69 
   0  -4  -2    4.20    0.26 
   0  -4  -2    3.88    0.30 
   0  -4  -2    4.12    0.29 
   0  -4  -2    4.17    0.29 
   0  -4   2    4.27    0.23 
   0  -4  -2    3.93    0.23 
   0  -4  -2    3.87    0.28 
   0  -4  -2    3.68    0.43 
   0  -4   2    4.09    0.20 
   0  -4   2    3.89    0.31 
   0  -4  -2    3.97    0.24 
   0   4  -2    4.14    0.27 
   0   4  -2    3.92    0.29 
   0   4   2    3.80    0.33 
   0   4   2    3.49    0.23 
   0   4  -2    4.13    0.26 
   0   4   2    4.41    0.44 
   0   4  -2    3.93    0.23 
   0   4   2    4.06    0.25 
   0   4  -2    3.94    0.22 
   0   4   2    3.63    0.31 
   0   4  -2    3.81    0.30 
  -1  -4  -2   56.57    2.03 
  -1  -4  -2   56.70    2.40 
   1  -4   2   51.64    2.01 
  -1  -4  -2   53.74    1.98 
  -1  -4  -2   55.83    2.08 
  -1  -4  -2   56.23    2.08 
  -1  -4  -2   52.48    2.06 
  -1  -4  -2   53.75    2.01 
  -1  -4  -2   53.17    1.99 
  -1  -4  -2   54.59    2.10 
  -1   4  -2   56.86    1.91 
  -1   4  -2   54.31    1.91 
   1   4   2   54.40    2.11 
  -1   4  -2   54.33    1.92 
   1   4   2   54.51    2.17 
  -1   4  -2   53.25    1.91 
   1   4   2   57.38    2.52 
   1   4   2   54.41    2.04 
   1   4   2   51.92    2.00 
  -2  -4  -2   54.43    2.10 
  -2  -4  -2   55.45    2.06 
  -2  -4  -2   56.69    2.50 
  -2  -4  -2   51.07    2.06 
  -2  -4  -2   55.17    2.13 
  -2  -4  -2   56.45    2.14 
  -2  -4  -2   57.09    2.04 
  -2  -4  -2   54.24    2.02 
  -2  -4  -2   53.74    2.15 
   2   4   2   55.22    2.15 
   2   4   2   56.38    2.11 
   2   4   2   54.93    2.03 
   2   4   2   57.83    2.07 
   2   4   2   52.24    2.22 
  -3  -4  -2   27.36    1.12 
  -3  -4  -2   29.28    1.13 
  -3  -4  -2   27.39    1.13 
  -3  -4  -2   28.44    1.23 
  -3  -4  -2   26.79    1.15 
  -3  -4  -2   26.92    1.24 
  -3  -4  -2   28.73    1.13 
  -3  -4  -2   23.29    1.51 
  -3  -4  -2   30.44    1.16 
  -3  -4  -2   28.54    1.24 
   3   4   2   28.35    1.17 
   3   4   2   27.12    1.12 
   3   4   2   29.74    1.26 
   3   4   2   28.36    1.21 
  -4  -4  -2   22.69    0.94 
  -4  -4  -2   19.91    1.04 
   4  -4   2   22.75    0.84 
  -4  -4  -2   22.42    0.93 
  -4  -4  -2   22.16    0.99 
  -4  -4  -2   20.25    0.93 
  -4  -4  -2   21.89    1.04 
   4   4   2   22.15    0.95 
   4   4   2   22.84    1.00 
   4   4   2   22.05    1.05 
   4   4   2   23.25    1.06 
  -5  -4  -2    7.90    0.34 
  -5  -4  -2    8.45    0.48 
  -5  -4  -2    8.52    0.46 
  -5  -4  -2    7.96    0.39 
  -5  -4  -2    8.67    0.46 
  -5  -4  -2    7.73    0.54 
  -5  -4  -2    8.66    0.49 
  -5  -4  -2    7.76    0.46 
   5   4   2    8.35    0.47 
   5   4   2    8.39    0.34 
   5   4   2    8.22    0.40 
   5   4   2    8.60    0.49 
   5   4   2    9.00    0.49 
   5   4   2    8.06    0.45 
   5   4   2    7.70    0.46 
  -5   4  -2    8.36    0.31 
  -5   4  -2    8.82    0.31 
   5   4   2    8.93    0.59 
  -6  -4  -2    5.14    0.31 
  -6  -4  -2    5.68    0.34 
  -6  -4  -2    4.65    0.33 
  -6  -4  -2    4.58    0.40 
  -6  -4  -2    4.77    0.34 
  -6   4  -2    4.98    0.18 
   6   4   2    4.25    0.69 
   6   4   2    4.64    0.26 
   6   4   2    5.61    0.35 
   6   4   2    5.48    0.34 
   6   4   2    5.53    0.35 
  -6   4  -2    5.18    0.18 
   6   4   2    4.55    0.31 
  -6   4  -2    5.09    0.21 
  -7  -4  -2   11.58    0.47 
  -7  -4  -2   12.01    0.44 
  -7  -4  -2   12.78    0.53 
  -7  -4  -2   10.64    1.06 
  -7  -4  -2   10.80    0.47 
  -7  -4  -2   11.70    0.48 
  -7  -4  -2   10.62    0.51 
  -7  -4  -2   11.75    0.48 
   7   4   2   11.85    0.51 
   7   4   2   12.54    0.49 
   7   4   2   12.26    0.51 
   7   4   2   12.47    0.45 
   7   4   2   11.92    0.49 
  -7  -5   2    5.60    0.29 
  -7  -5   2    5.59    0.28 
  -7  -5   2    6.04    0.29 
  -7  -5   2    5.97    0.27 
  -7   5   2    5.66    0.21 
  -7   5   2    5.65    0.23 
   7   5  -2    4.71    0.29 
   7   5  -2    5.54    0.25 
   7   5  -2    5.61    0.26 
   7   5  -2    6.06    0.29 
   7   5  -2    5.33    0.30 
  -7   5   2    5.42    0.21 
   7   5  -2    5.62    0.28 
   7   5  -2    5.43    0.27 
  -6  -5   2   10.55    0.50 
  -6  -5   2    9.71    0.48 
  -6  -5   2    9.70    0.43 
  -6  -5   2    9.77    0.39 
  -6  -5   2    9.85    0.47 
  -6   5   2    9.51    0.38 
   6   5  -2    9.41    0.45 
  -6   5   2    9.34    0.39 
   6   5  -2    9.68    0.50 
   6   5  -2   10.13    0.44 
  -6   5   2    9.81    0.39 
   6   5  -2    9.74    0.44 
   6   5  -2    9.69    0.46 
   6   5  -2    8.82    0.46 
  -6   5   2    9.33    0.38 
   6   5  -2    9.81    0.44 
   6   5  -2    9.66    0.47 
   6   5  -2    9.71    0.40 
  -5  -5   2    0.96    0.21 
  -5  -5   2    1.31    0.23 
  -5  -5   2    0.67    0.23 
  -5  -5   2    1.10    0.16 
  -5  -5   2    1.03    0.19 
  -5  -5   2    0.94    0.21 
  -5  -5   2    0.91    0.18 
  -5  -5   2    0.81    0.21 
  -5  -5   2    1.02    0.16 
  -5   5   2    0.99    0.09 
   5   5  -2    0.85    0.19 
   5   5  -2    1.06    0.21 
  -5   5   2    0.90    0.11 
   5   5  -2    1.06    0.20 
   5   5  -2    0.73    0.21 
  -5   5   2    0.89    0.11 
  -5   5   2    0.82    0.11 
   5   5  -2    0.99    0.18 
   5   5  -2    1.03    0.18 
  -5   5   2    0.97    0.12 
  -5   5   2    1.02    0.15 
   5   5  -2    1.20    0.20 
  -5   5   2    0.98    0.13 
   5   5  -2    0.93    0.16 
   5   5  -2    1.07    0.28 
  -5   5   2    0.98    0.13 
   5   5  -2    1.00    0.23 
   5   5  -2    1.01    0.12 
  -4  -5   2   29.17    1.16 
  -4  -5   2   25.73    1.20 
  -4  -5   2   27.42    1.04 
   4  -5  -2   27.80    1.05 
  -4  -5   2   29.48    1.12 
  -4  -5   2   28.20    1.15 
  -4  -5   2   26.14    1.03 
  -4  -5   2   28.08    1.15 
  -4  -5   2   28.33    1.14 
  -4  -5   2   28.62    1.12 
  -4   5   2   26.13    1.01 
  -4   5   2   28.40    0.99 
   4   5  -2   26.85    1.08 
  -4   5   2   26.30    1.01 
  -4   5   2   23.98    1.08 
  -4   5   2   26.33    0.99 
  -4   5   2   25.79    1.01 
   4   5  -2   27.24    1.03 
   4   5  -2   26.12    1.08 
   4   5  -2   26.60    1.19 
   4   5  -2   26.80    1.05 
   4   5  -2   25.76    1.07 
   4   5  -2   25.85    1.01 
   4   5  -2   26.02    1.06 
   4   5  -2   27.09    1.05 
  -4   5   2   26.23    0.98 
   4   5  -2   27.29    1.04 
   4   5  -2   27.11    1.11 
  -4   5   2   26.67    0.96 
   4   5  -2   26.42    1.04 
   4   5  -2   25.63    1.08 
  -4   5   2   27.56    1.06 
  -4   5   2   26.91    1.00 
   4   5  -2   25.92    0.98 
  -3  -5   2   24.41    0.99 
  -3  -5   2   24.87    1.08 
  -3  -5   2   22.70    0.99 
  -3  -5   2   23.66    1.01 
   3  -5  -2   23.35    0.93 
  -3  -5   2   24.07    0.98 
  -3  -5   2   24.15    1.03 
  -3  -5   2   23.01    0.97 
  -3  -5   2   24.05    1.02 
  -3  -5   2   22.02    1.08 
   3  -5  -2   22.81    0.96 
   3   5  -2   22.95    0.95 
  -3   5   2   24.41    1.19 
  -3   5   2   23.81    0.91 
   3   5  -2   24.36    0.97 
   3   5  -2   22.80    1.15 
   3   5  -2   23.58    0.97 
  -3   5   2   22.07    1.07 
  -3   5   2   23.99    0.95 
   3   5  -2   23.33    0.97 
  -3   5   2   24.52    0.89 
   3   5  -2   22.93    0.92 
  -3   5   2   23.06    0.88 
   3   5  -2   23.70    0.89 
  -2  -5   2   37.27    1.53 
  -2  -5   2   39.35    1.46 
  -2  -5   2   36.83    1.56 
   2  -5  -2   39.02    1.48 
  -2  -5   2   39.32    1.50 
  -2  -5   2   36.03    1.48 
  -2  -5   2   37.94    1.51 
  -2  -5   2   38.67    1.46 
  -2  -5   2   39.09    1.52 
   2  -5  -2   39.89    1.44 
   2   5  -2   38.31    1.46 
   2   5  -2   38.01    1.62 
   2   5  -2   37.52    1.43 
  -2   5   2   37.17    1.45 
  -2   5   2   39.15    1.42 
   2   5  -2   39.69    1.45 
   2   5  -2   38.46    1.44 
  -2   5   2   37.24    1.82 
  -2   5   2   39.35    1.40 
  -2   5   2   39.60    1.41 
  -2   5   2   38.24    1.61 
   1  -5  -2   10.46    0.47 
   1  -5  -2   10.02    0.51 
  -1  -5   2    9.98    0.52 
  -1  -5   2    9.99    0.45 
   1  -5  -2   10.12    0.54 
   1  -5  -2   10.32    0.48 
   1  -5  -2   10.01    0.55 
   1  -5  -2    9.61    0.56 
   1  -5  -2   10.26    0.50 
  -1  -5   2   10.85    0.49 
  -1   5   2    9.67    0.48 
   1   5  -2   10.12    0.41 
   1   5  -2    9.59    0.53 
  -1   5   2   10.41    0.62 
   1   5  -2    9.95    0.56 
  -1   5   2    9.79    0.45 
  -1   5   2   10.48    0.46 
   1   5  -2    9.84    0.44 
   1   5  -2   10.52    0.46 
   1   5  -2    9.99    0.68 
  -1   5   2   10.47    0.46 
   0  -5  -2   28.86    1.21 
   0  -5  -2   27.50    1.19 
   0  -5  -2   24.15    1.44 
   0  -5  -2   30.42    1.23 
   0  -5  -2   29.85    1.11 
   0  -5  -2   28.06    1.14 
   0  -5   2   27.98    1.11 
   0  -5  -2   28.57    1.18 
   0  -5   2   29.90    1.08 
   0  -5  -2   28.96    1.11 
   0  -5  -2   28.04    1.14 
   0   5   2   28.79    1.12 
   0   5  -2   28.24    1.09 
   0   5  -2   29.28    1.07 
   0   5   2   27.54    1.09 
   0   5   2   28.11    1.10 
   0   5  -2   28.09    1.05 
   0   5  -2   28.13    1.10 
   0   5   2   28.35    1.29 
   0   5   2   27.02    1.08 
   0   5  -2   26.68    1.06 
  -1  -5  -2    1.43    0.24 
  -1  -5  -2    1.57    0.18 
  -1  -5  -2    1.39    0.24 
  -1  -5  -2    1.63    0.18 
  -1  -5  -2    1.16    0.29 
  -1  -5  -2    1.44    0.24 
  -1  -5  -2    1.48    0.25 
   1  -5   2    1.52    0.11 
  -1  -5  -2    1.43    0.22 
  -1  -5  -2    1.57    0.20 
  -1  -5  -2    1.82    0.42 
   1   5   2    1.32    0.20 
   1   5   2    1.83    0.21 
   1   5   2    1.57    0.19 
  -1   5  -2    1.72    0.11 
   1   5   2    1.50    0.17 
  -1   5  -2    1.40    0.08 
  -1   5  -2    1.58    0.08 
   1   5   2    1.59    0.28 
  -1   5  -2    1.59    0.11 
   1   5   2    1.38    0.27 
  -2  -5  -2   74.80    2.75 
  -2  -5  -2   77.84    2.80 
  -2  -5  -2   74.32    2.66 
  -2  -5  -2   73.21    3.20 
  -2  -5  -2   75.98    2.64 
  -2  -5  -2   69.94    2.61 
  -2  -5  -2   71.85    2.64 
  -2  -5  -2   68.38    2.66 
  -2  -5  -2   70.81    2.71 
   2   5   2   64.29    2.84 
   2   5   2   72.22    2.61 
   2   5   2   63.84    2.64 
   2   5   2   72.28    2.77 
  -3  -5  -2   81.07    2.91 
  -3  -5  -2   81.85    2.91 
  -3  -5  -2   75.48    2.89 
  -3  -5  -2   83.83    2.90 
  -3  -5  -2   80.94    3.04 
  -3  -5  -2   78.66    2.96 
  -3  -5  -2   75.77    2.92 
   3   5   2   74.54    2.94 
   3   5   2   75.32    3.02 
   3   5   2   79.59    2.89 
  -4  -5  -2    0.42    0.18 
  -4  -5  -2    0.09    0.13 
  -4  -5  -2    0.55    0.16 
  -4  -5  -2    0.51    0.14 
  -4  -5  -2    0.43    0.13 
  -4  -5  -2    0.50    0.18 
  -4  -5  -2    0.39    0.12 
  -4  -5  -2    0.45    0.17 
   4   5   2    0.21    0.17 
   4   5   2    0.42    0.12 
   4   5   2    0.55    0.14 
   4   5   2    0.49    0.17 
   4   5   2    0.37    0.16 
   4   5   2    0.40    0.13 
   4   5   2    0.33    0.14 
   4   5   2    0.25    0.12 
   4   5   2    0.42    0.20 
  -5  -5  -2   17.77    0.73 
  -5  -5  -2   19.02    0.81 
  -5  -5  -2   18.28    0.68 
  -5  -5  -2   17.99    0.79 
  -5  -5  -2   18.63    0.78 
   5   5   2   18.39    0.70 
   5   5   2   20.84    0.86 
   5   5   2   18.71    0.84 
   5   5   2   18.46    0.73 
   5   5   2   18.34    0.79 
   5   5   2   18.55    0.87 
   5   5   2   18.52    0.80 
   5   5   2   17.51    0.77 
   5   5   2   18.17    0.79 
   5   5   2   18.59    0.75 
  -6  -5  -2   36.88    1.36 
  -6  -5  -2   37.27    1.36 
  -6  -5  -2   38.84    1.38 
  -6  -5  -2   35.16    1.39 
   6   5   2   37.85    1.39 
   6   5   2   37.13    1.40 
   6   5   2   35.99    1.44 
   6   5   2   38.51    1.47 
   6   5   2   36.52    1.41 
   6   5   2   38.58    1.35 
   6   5   2   37.09    1.36 
   6   5   2   37.88    1.36 
  -6  -6   2   11.68    0.49 
  -6  -6   2   12.02    0.44 
  -6  -6   2   12.75    0.47 
  -6  -6   2   11.64    0.51 
   6   6  -2   10.68    0.47 
   6   6  -2   11.58    0.50 
   6   6  -2   12.19    0.50 
   6   6  -2   11.72    0.45 
   6   6  -2   12.48    0.46 
   6   6  -2   12.00    0.45 
  -6   6   2   11.52    0.43 
   6   6  -2   11.64    0.55 
   6   6  -2   12.42    0.49 
   6   6  -2   11.99    0.46 
  -5  -6   2   11.84    0.49 
  -5  -6   2   12.04    0.51 
  -5  -6   2   12.19    0.57 
  -5  -6   2   11.25    0.54 
  -5  -6   2   11.92    0.50 
  -5  -6   2   11.92    0.57 
   5   6  -2   12.70    0.48 
  -5   6   2   10.80    0.49 
   5   6  -2   11.49    0.45 
   5   6  -2   12.06    0.49 
   5   6  -2   12.61    0.55 
   5   6  -2   12.50    0.54 
   5   6  -2   12.58    0.52 
  -5   6   2   11.99    0.45 
  -5   6   2   12.58    0.47 
   5   6  -2   12.27    0.49 
   5   6  -2   12.21    0.54 
   5   6  -2   12.88    0.50 
   5   6  -2   12.57    0.62 
   5   6  -2   12.05    0.53 
  -4  -6   2    8.66    0.41 
  -4  -6   2    8.27    0.49 
  -4  -6   2    8.76    0.41 
  -4  -6   2    8.70    0.46 
  -4  -6   2    8.23    0.47 
  -4   6   2    8.58    0.40 
   4   6  -2    7.74    0.46 
   4   6  -2    9.03    0.38 
   4   6  -2    8.29    0.42 
   4   6  -2    9.11    0.45 
   4   6  -2    8.81    0.45 
   4   6  -2    8.44    0.52 
   4   6  -2    8.98    0.44 
  -4   6   2    8.51    0.36 
   4   6  -2    9.05    0.41 
   4   6  -2    8.90    0.42 
   4   6  -2    9.19    0.36 
   4   6  -2    8.64    0.45 
  -4   6   2    8.70    0.38 
  -4   6   2    8.34    0.37 
   4   6  -2    8.79    0.44 
   4   6  -2    8.31    0.37 
  -4   6   2    8.90    0.38 
   4   6  -2    8.89    0.41 
   4   6  -2    8.75    0.39 
   4   6  -2    9.14    0.39 
  -4   6   2    8.41    0.42 
  -3  -6   2   87.59    3.13 
  -3  -6   2   84.98    3.14 
  -3  -6   2   84.51    3.14 
  -3  -6   2   83.27    3.09 
  -3  -6   2   90.25    3.16 
  -3  -6   2   87.05    3.10 
  -3  -6   2   80.01    3.03 
   3  -6  -2   82.81    3.05 
  -3  -6   2   86.70    3.11 
   3   6  -2   84.66    3.05 
  -3   6   2   84.72    2.99 
   3   6  -2   83.19    3.07 
  -3   6   2   88.38    3.07 
   3   6  -2   89.02    3.03 
  -3   6   2   84.69    3.00 
   3   6  -2   85.45    3.07 
  -3   6   2   86.59    3.02 
   3   6  -2   83.05    3.04 
  -3   6   2   85.33    2.97 
   3   6  -2   86.45    3.08 
   3   6  -2   84.60    2.99 
  -3   6   2   83.40    3.00 
   3   6  -2   85.34    3.10 
   3   6  -2   85.00    3.05 
   3   6  -2   85.73    3.04 
  -3   6   2   85.96    3.02 
   3   6  -2   87.47    3.00 
  -3   6   2   83.21    3.02 
   3   6  -2   85.91    3.15 
  -2  -6   2   20.20    0.83 
   2  -6  -2   20.01    0.80 
  -2  -6   2   18.56    0.86 
  -2  -6   2   19.06    0.86 
  -2  -6   2   19.16    0.83 
   2   6  -2   18.98    0.79 
  -2   6   2   19.41    0.81 
  -2   6   2   19.23    0.72 
  -2   6   2   19.20    0.74 
   2   6  -2   19.69    1.14 
   2   6  -2   19.81    0.73 
   2   6  -2   18.71    0.79 
   2   6  -2   18.57    0.76 
   2   6  -2   20.38    0.74 
   2   6  -2   20.08    0.82 
   2   6  -2   18.88    0.85 
  -2   6   2   18.92    0.75 
   2   6  -2   18.86    0.77 
  -2   6   2   19.69    0.73 
  -2   6   2   19.32    0.98 
   2   6  -2   18.39    0.77 
  -2   6   2   20.29    0.75 
  -2   6   2   20.08    0.78 
  -2   6   2   19.38    0.77 
   2   6  -2   19.76    0.80 
   2   6  -2   18.18    0.75 
  -2   6   2   18.84    0.77 
   1  -6  -2    3.17    0.25 
  -1  -6   2    3.10    0.23 
  -1  -6   2    2.82    0.25 
   1  -6  -2    3.28    0.27 
  -1   6   2    3.45    0.47 
  -1   6   2    3.41    0.23 
  -1   6   2    3.38    0.19 
   1   6  -2    3.45    0.21 
   1   6  -2    3.37    0.31 
  -1   6   2    3.47    0.27 
  -1   6   2    3.37    0.21 
   1   6  -2    3.20    0.22 
  -1   6   2    3.37    0.22 
   1   6  -2    2.84    0.22 
  -1   6   2    3.22    0.24 
   1   6  -2    3.38    0.24 
   0  -6  -2   41.58    1.74 
   0  -6  -2   43.45    1.63 
   0  -6   2   43.23    1.61 
   0  -6  -2   41.83    1.63 
   0  -6  -2   40.22    1.66 
   0   6  -2   43.38    1.57 
   0   6   2   43.60    1.58 
   0   6   2   44.06    1.61 
   0   6   2   44.20    1.60 
   0   6  -2   41.25    1.54 
   0   6   2   44.06    1.61 
   0   6  -2   42.74    1.55 
   0   6  -2   43.61    1.61 
   0   6   2   42.62    1.61 
   0   6   2   44.49    1.66 
  -1  -6  -2    6.94    0.47 
  -1  -6  -2    6.29    0.38 
  -1  -6  -2    6.49    0.35 
  -1  -6  -2    6.93    0.48 
  -1  -6  -2    6.79    0.41 
  -1  -6  -2    6.26    0.38 
  -1  -6  -2    6.93    0.43 
   1  -6   2    6.97    0.32 
   1   6   2    6.52    0.37 
   1   6   2    6.71    0.38 
   1   6   2    7.05    0.41 
   1   6   2    5.90    0.35 
   1   6   2    5.76    0.37 
   1   6   2    6.64    0.38 
   1   6   2    6.36    0.32 
   1   6   2    6.01    0.34 
   1   6   2    6.36    0.33 
   1   6   2    6.47    0.36 
   1   6   2    5.66    0.31 
  -1   6  -2    6.02    0.25 
   1   6   2    6.42    0.34 
   1   6   2    6.11    0.38 
   1   6   2    6.68    0.45 
   1   6   2    6.52    0.31 
   1   6   2    6.52    0.37 
  -1   6  -2    6.42    0.25 
   1   6   2    6.24    0.33 
  -2  -6  -2    0.68    0.21 
  -2  -6  -2    0.60    0.20 
  -2  -6  -2    0.71    0.16 
  -2  -6  -2    0.81    0.16 
  -2  -6  -2    0.60    0.18 
  -2  -6  -2    0.89    0.25 
  -2  -6  -2    0.94    0.27 
   2   6   2    0.64    0.13 
   2   6   2    0.53    0.21 
   2   6   2    0.54    0.19 
   2   6   2    0.41    0.11 
   2   6   2    0.46    0.18 
   2   6   2    0.42    0.13 
   2   6   2    0.67    0.15 
   2   6   2    0.90    0.19 
   2   6   2    0.60    0.25 
   2   6   2    0.65    0.12 
   2   6   2    0.77    0.21 
   2   6   2    0.62    0.11 
   2   6   2    0.65    0.14 
   2   6   2    0.52    0.16 
   2   6   2    0.67    0.19 
   2   6   2    0.71    0.14 
   2   6   2    0.64    0.15 
   2   6   2    0.55    0.14 
  -3  -6  -2   17.18    0.84 
  -3  -6  -2   17.15    0.80 
  -3  -6  -2   17.74    0.78 
  -3  -6  -2   16.73    0.69 
  -3  -6  -2   16.69    0.77 
  -3  -6  -2   15.87    0.73 
  -3  -6  -2   16.54    0.68 
   3   6   2   16.13    0.68 
   3   6   2   16.60    0.77 
   3   6   2   17.72    0.74 
   3   6   2   16.83    0.63 
   3   6   2   16.75    0.63 
   3   6   2   16.39    0.71 
   3   6   2   17.05    0.69 
   3   6   2   16.85    0.71 
   3   6   2   16.93    0.74 
   3   6   2   17.58    0.85 
   3   6   2   16.38    0.67 
   3   6   2   16.19    0.76 
   3   6   2   17.33    0.71 
  -4  -6  -2   11.84    0.49 
  -4  -6  -2   12.51    0.53 
  -4  -6  -2   12.56    0.57 
  -4  -6  -2   12.12    0.58 
  -4  -6  -2   11.99    0.59 
   4   6   2   12.30    0.53 
   4   6   2   11.89    0.54 
   4   6   2   12.39    0.54 
   4   6   2   12.39    0.66 
   4   6   2   13.34    0.57 
   4   6   2   12.59    0.60 
   4   6   2   12.28    0.47 
   4   6   2   12.18    0.51 
   4   6   2   11.77    0.51 
   4   6   2   11.93    0.59 
   4   6   2   11.91    0.52 
   4   6   2   11.55    0.56 
  -5  -6  -2   65.53    2.32 
  -5  -6  -2   64.42    2.36 
  -5  -6  -2   64.27    2.28 
  -5  -6  -2   65.70    2.37 
  -5  -6  -2   62.38    3.29 
  -5  -6  -2   71.04    2.37 
   5   6   2   63.73    2.31 
   5   6   2   69.79    2.37 
   5   6   2   66.27    2.33 
   5   6   2   65.85    2.34 
   5   6   2   60.50    2.35 
   5   6   2   68.46    2.40 
   5   6   2   65.84    2.33 
   5   6   2   67.44    2.39 
   5   6   2   64.87    2.33 
  -4  -7   2    3.66    0.36 
  -4  -7   2    4.33    0.22 
  -4  -7   2    4.20    0.22 
   4   7  -2    4.05    0.27 
   4   7  -2    4.02    0.22 
   4   7  -2    4.33    0.22 
   4   7  -2    4.21    0.19 
   4   7  -2    4.04    0.19 
   4   7  -2    4.09    0.22 
  -4   7   2    4.09    0.18 
   4   7  -2    4.16    0.24 
  -4   7   2    4.29    0.16 
   4   7  -2    4.12    0.24 
   4   7  -2    3.83    0.22 
  -4   7   2    4.04    0.15 
  -3  -7   2   15.17    0.59 
  -3  -7   2   14.59    0.65 
   3   7  -2   13.85    0.60 
   3   7  -2   14.38    0.61 
  -3   7   2   13.89    0.55 
   3   7  -2   13.68    0.60 
   3   7  -2   13.78    0.58 
   3   7  -2   13.91    0.62 
  -3   7   2   13.74    0.53 
   3   7  -2   15.49    0.58 
   3   7  -2   14.49    0.54 
   3   7  -2   14.43    0.59 
  -3   7   2   14.37    0.55 
   3   7  -2   14.68    0.55 
   3   7  -2   14.87    0.61 
  -3   7   2   14.72    0.56 
   2   7  -2   25.33    0.92 
   2   7  -2   24.82    0.98 
   2   7  -2   25.87    0.96 
  -2   7   2   25.33    0.96 
  -2   7   2   26.95    0.94 
   2   7  -2   25.29    0.97 
   2   7  -2   24.01    0.94 
  -2   7   2   26.03    0.95 
  -2   7   2   24.63    0.98 
   2   7  -2   24.61    0.95 
  -2   7   2   25.28    0.95 
  -2   7   2   26.15    0.93 
  -2   7   2   25.28    0.96 
   2   7  -2   24.88    0.98 
  -2   7   2   25.84    0.91 
   2   7  -2   25.00    1.00 
   1   7  -2   14.46    0.59 
   1   7  -2   14.48    0.59 
   1   7  -2   14.49    0.62 
  -1   7   2   15.37    0.59 
   1   7  -2   14.85    0.54 
  -1   7   2   14.28    0.61 
   1   7  -2   14.69    0.60 
  -1   7   2   14.75    0.55 
   1   7  -2   15.63    0.59 
   1   7  -2   14.79    0.57 
   1   7  -2   14.62    0.57 
  -1   7   2   14.44    0.59 
  -1   7   2   14.89    0.62 
  -1   7   2   14.30    0.61 
  -1   7   2   14.02    0.64 
  -1   7   2   14.66    0.58 
   0  -7  -2    3.38    0.36 
   0   7  -2    3.88    0.19 
   0   7   2    4.07    0.27 
   0   7  -2    4.09    0.19 
   0   7   2    4.32    0.21 
   0   7   2    4.27    0.24 
   0   7  -2    4.46    0.19 
   0   7   2    4.21    0.25 
   0   7   2    3.95    0.26 
   0   7   2    4.09    0.29 
   0   7   2    4.10    0.30 
   0   7   2    4.31    0.27 
   0   7  -2    4.26    0.21 
   0   7   2    3.70    0.34 
   0   7   2    4.34    0.25 
  -1  -7  -2    4.59    0.41 
  -1  -7  -2    4.97    0.28 
  -1  -7  -2    3.70    0.33 
  -1  -7  -2    5.45    0.34 
   1   7   2    5.20    0.25 
   1   7   2    4.98    0.30 
   1   7   2    4.73    0.28 
   1   7   2    4.97    0.22 
   1   7   2    5.07    0.24 
   1   7   2    4.90    0.28 
   1   7   2    4.80    0.29 
   1   7   2    4.90    0.33 
   1   7   2    5.06    0.30 
   1   7   2    5.03    0.27 
   1   7   2    4.52    0.34 
   1   7   2    5.60    0.31 
   1   7   2    4.97    0.23 
  -2  -7  -2    4.02    0.30 
  -2  -7  -2    4.34    0.25 
  -2  -7  -2    4.11    0.25 
  -2  -7  -2    3.56    0.35 
   2   7   2    4.59    0.28 
   2   7   2    4.37    0.28 
   2   7   2    4.67    0.26 
   2   7   2    4.23    0.34 
   2   7   2    4.24    0.26 
   2   7   2    4.31    0.22 
   2   7   2    4.37    0.27 
   2   7   2    3.77    0.30 
   2   7   2    4.29    0.25 
   2   7   2    4.06    0.28 
   2   7   2    4.21    0.28 
   2   7   2    3.81    0.27 
   2   7   2    4.12    0.22 
   2   7   2    4.12    0.22 
   2   7   2    4.61    0.21 
  -3  -7  -2    1.54    0.15 
  -3  -7  -2    1.63    0.16 
  -3  -7  -2    1.47    0.19 
  -3  -7  -2    0.90    0.17 
  -3  -7  -2    1.73    0.14 
   3   7   2    1.81    0.16 
   3   7   2    1.39    0.17 
   3   7   2    1.64    0.12 
   3   7   2    1.58    0.14 
   3   7   2    1.63    0.13 
   3   7   2    1.46    0.22 
   3   7   2    1.79    0.20 
   3   7   2    1.47    0.16 
   3   7   2    1.85    0.19 
   3   7   2    1.57    0.16 
   3   7   2    1.70    0.11 
   3   7   2    1.62    0.14 
   3   7   2    1.60    0.18 
  -4  -7  -2    3.63    0.20 
  -4  -7  -2    3.75    0.22 
  -4  -7  -2    3.83    0.17 
  -4  -7  -2    3.64    0.25 
   4   7   2    3.90    0.21 
   4   7   2    4.02    0.28 
   4   7   2    3.82    0.22 
   4   7   2    3.79    0.18 
   4   7   2    3.82    0.22 
   4   7   2    3.75    0.17 
   4   7   2    3.49    0.18 
   4   7   2    4.19    0.19 
   4   7   2    3.83    0.21 
  -2   8   2    7.06    0.28 
  -2   8   2    6.81    0.26 
  -2   8   2    6.99    0.26 
   2   8  -2    6.66    0.27 
   2   8  -2    7.13    0.32 
   2   8  -2    7.30    0.29 
   2   8  -2    6.90    0.29 
   1   8  -2    3.41    0.14 
  -1   8   2    3.40    0.17 
  -1   8   2    3.30    0.16 
  -1   8   2    3.30    0.17 
   1   8  -2    3.17    0.13 
   1   8  -2    3.25    0.16 
   0  -8  -2   25.27    0.94 
   0   8   2   25.12    0.91 
   0   8   2   25.29    0.94 
   0   8   2   25.55    0.90 
   0   8   2   25.40    0.95 
   0   8   2   25.72    0.94 
   0   8   2   25.84    0.92 
   0   8   2   25.44    0.93 
  -1  -8  -2   11.77    0.44 
  -1  -8  -2   10.47    0.44 
   1   8   2   10.26    0.45 
   1   8   2   11.10    0.44 
   1   8   2   10.17    0.42 
   1   8   2   11.22    0.41 
   1   8   2   10.86    0.45 
   1   8   2   10.71    0.40 
   1   8   2   10.04    0.48 
  -2  -8  -2    1.34    0.11 
  -2  -8  -2    1.18    0.11 
   2   8   2    1.22    0.12 
   2   8   2    1.36    0.09 
   2   8   2    0.95    0.10 
   2   8   2    1.24    0.08 
  -8   0   3   19.08    0.70 
  -8   0   3   18.73    0.71 
  -8   0   3   18.17    0.73 
  -8   0   3   18.46    0.75 
   8   0  -3   17.83    0.70 
  -8   0   3   18.17    0.71 
   8   0  -3   17.63    0.70 
   8   0  -3   18.41    0.72 
   8   0  -3   18.42    0.75 
  -8   0   3   18.78    0.82 
   8   0  -3   17.11    0.77 
  -8   0   3   18.80    0.70 
  -8   0   3   18.36    0.73 
   8   0  -3   18.81    0.78 
  -8   0   3   17.72    0.71 
  -7   0   3    2.57    0.22 
   7   0  -3    2.70    0.24 
  -7   0   3    2.46    0.96 
   7   0  -3    2.59    0.31 
  -7   0   3    3.30    0.23 
  -7   0   3    2.85    0.20 
   7   0  -3    2.21    0.28 
  -7   0   3    3.04    0.29 
  -7   0   3    3.15    0.30 
  -7   0   3    2.50    0.31 
   7   0  -3    3.01    0.30 
   7   0  -3    2.77    0.27 
  -7   0   3    2.38    0.24 
  -7   0   3    3.10    0.24 
   7   0  -3    3.30    0.29 
  -7   0   3    2.95    0.25 
   7   0  -3    2.49    0.21 
  -7   0   3    2.89    0.24 
   7   0  -3    2.89    0.22 
  -7   0   3    3.02    0.23 
   6   0  -3   76.86    2.89 
   6   0  -3   79.54    3.03 
   6   0  -3   82.33    2.94 
   6   0  -3   75.90    2.88 
   6   0  -3   73.50    2.87 
  -6   0   3   82.46    2.86 
   6   0  -3   78.70    3.00 
  -6   0   3   75.93    2.80 
  -6   0   3   77.04    2.91 
   6   0  -3   78.01    2.87 
   5   0  -3   87.72    3.31 
  -5   0   3   88.75    3.22 
   5   0  -3   91.48    3.20 
  -5   0   3   90.84    3.14 
  -5   0   3   85.36    3.17 
   5   0  -3   87.87    3.21 
  -5   0   3   91.92    3.26 
  -5   0   3   84.28    3.16 
   5   0  -3   90.43    3.73 
   5   0  -3   89.31    3.20 
   5   0  -3   87.53    3.24 
  -5   0   3   86.70    3.19 
   5   0  -3   87.86    3.32 
  -4   0   3   40.68    1.57 
  -4   0   3   41.57    1.61 
   4   0  -3   44.43    1.97 
   4   0  -3   42.98    1.66 
   4   0  -3   43.34    1.58 
  -4   0   3   41.63    1.73 
   4   0  -3   41.77    1.61 
  -4   0   3   41.95    1.62 
   4   0  -3   44.58    1.67 
   4   0  -3   42.05    1.59 
  -4   0   3   40.39    1.58 
  -4   0   3   43.49    1.54 
   4   0  -3   40.50    1.57 
   4   0  -3   41.94    1.67 
   3   0  -3   23.86    1.02 
   3   0  -3   26.17    1.02 
  -3   0   3   24.84    1.26 
   3   0  -3   24.66    0.96 
  -3   0   3   25.63    0.99 
   3   0  -3   24.62    0.95 
   3   0  -3   26.03    1.02 
  -3   0   3   25.35    1.01 
   3   0  -3   24.92    1.23 
  -3   0   3   25.49    1.00 
   3   0  -3   25.37    0.98 
  -3   0   3   24.00    0.94 
  -3   0   3   24.64    1.08 
  -2   0   3   10.03    0.45 
   2   0  -3   10.58    0.44 
   2   0  -3   10.02    0.61 
   2   0  -3   10.34    0.47 
  -2   0   3   10.08    0.46 
   2   0  -3   10.42    0.44 
  -2   0   3   10.35    0.66 
   2   0  -3   10.09    0.47 
  -2   0   3   10.03    0.45 
  -1   0   3   38.57    1.49 
  -1   0   3   39.15    1.44 
   1   0  -3   38.52    1.68 
  -1   0   3   38.88    1.43 
   1   0  -3   38.81    1.43 
   1   0  -3   38.97    1.42 
   1   0  -3   39.97    1.49 
   1   0  -3   39.90    1.58 
  -1   0   3   37.94    1.58 
  -1   0   3   39.70    1.46 
  -1   0   3   40.14    1.50 
  -1   0   3   41.18    1.67 
  -1   0   3   37.81    1.44 
   0   0  -3    8.88    0.37 
   0   0   3    8.60    0.43 
   0   0   3    9.09    0.41 
   0   0   3    9.39    0.40 
   0   0   3    9.39    0.44 
   0   0   3    8.30    0.39 
   0   0  -3    9.14    0.42 
   0   0   3    8.87    0.39 
   0   0   3    8.44    0.54 
   1   0   3   73.20    2.80 
   1   0   3   73.52    2.69 
   1   0   3   75.20    2.65 
   1   0   3   74.71    2.85 
  -1   0  -3   72.91    2.66 
   1   0   3   73.53    2.64 
   1   0   3   75.57    2.69 
   1   0   3   71.09    2.62 
   1   0   3   71.97    2.63 
   1   0   3   76.97    2.63 
   2   0   3   25.92    1.10 
   2   0   3   25.82    1.02 
   2   0   3   26.47    1.06 
  -2   0  -3   27.45    1.08 
  -2   0  -3   29.04    0.99 
   2   0   3   27.44    1.05 
   2   0   3   24.73    1.00 
   2   0   3   26.72    1.23 
   2   0   3   26.13    1.05 
   2   0   3   26.55    1.27 
   3   0   3   77.66    3.08 
  -3   0  -3   77.47    2.82 
  -3   0  -3   79.22    2.74 
   3   0   3   75.71    2.79 
   3   0   3   75.26    2.78 
   3   0   3   74.57    2.68 
  -3   0  -3   69.84    2.68 
   3   0   3   76.38    2.78 
   3   0   3   74.49    2.72 
   4   0   3   38.63    1.53 
   4   0   3   37.44    1.54 
   4   0   3   38.94    1.86 
  -4   0  -3   37.18    1.41 
   4   0   3   37.52    1.54 
  -4   0  -3   38.38    1.58 
   4   0   3   35.91    1.47 
   4   0   3   37.38    1.42 
  -4   0  -3   37.93    1.42 
  -4   0  -3   37.32    1.42 
  -5   0  -3   30.48    1.19 
   5   0   3   32.37    1.22 
   5   0   3   30.44    1.34 
  -5   0  -3   30.39    1.11 
  -5   0  -3   30.34    1.19 
  -5   0  -3   30.36    1.15 
  -5   0  -3   25.80    1.34 
   5   0   3   29.10    1.31 
   5   0   3   31.00    1.24 
   5   0   3   32.00    1.23 
   5   0   3   32.75    1.28 
  -5   0  -3   30.68    1.20 
  -6   0  -3    1.55    0.15 
  -6   0  -3    1.56    0.19 
  -6   0  -3    1.65    0.19 
   6   0   3    1.80    0.26 
  -6   0  -3    1.46    0.20 
   6   0   3    1.67    0.19 
  -6   0  -3    1.75    0.13 
  -6   0  -3    1.71    0.15 
  -6   0  -3    1.76    0.16 
   6   0   3    1.64    0.21 
  -6   0  -3    1.57    0.18 
  -6   0  -3    1.80    0.21 
  -6   0  -3    1.81    0.18 
  -6   0  -3    1.78    0.18 
  -6   0  -3    1.91    0.22 
  -6   0  -3    1.60    0.18 
  -6   0  -3    1.62    0.19 
   6   0   3    1.61    0.22 
   6   0   3    1.38    0.25 
  -7   0  -3    1.32    0.16 
  -7   0  -3    1.32    0.36 
  -7   0  -3    1.36    0.13 
  -7   0  -3    1.28    0.11 
   7   0   3    1.60    0.16 
  -7   0  -3    1.32    0.16 
   7   0   3    1.51    0.15 
   7   0   3    1.52    0.21 
  -7   0  -3    1.58    0.11 
  -7   0  -3    1.42    0.14 
  -7   0  -3    1.31    0.17 
  -8  -1   3   37.78    1.39 
   8  -1  -3   37.01    1.39 
  -8  -1   3   38.92    1.45 
   8  -1  -3   38.95    1.41 
  -8  -1   3   38.12    1.39 
  -8  -1   3   38.02    1.40 
  -8  -1   3   37.01    1.60 
  -8  -1   3   37.82    1.41 
   8  -1  -3   38.06    1.39 
   8  -1  -3   38.59    1.43 
  -8  -1   3   38.73    1.39 
  -8  -1   3   38.05    1.44 
  -8  -1   3   40.01    1.41 
  -8  -1   3   38.52    1.39 
   8  -1  -3   40.52    1.47 
  -8   1   3   39.77    1.36 
  -8   1   3   38.71    1.39 
   8   1  -3   37.65    1.35 
  -8   1   3   38.83    1.37 
  -8   1   3   36.74    1.39 
   8   1  -3   38.45    1.43 
  -8   1   3   38.22    1.36 
   8   1  -3   42.34    1.48 
   8   1  -3   39.15    1.47 
  -8   1   3   37.52    1.40 
  -8   1   3   37.35    1.39 
   8   1  -3   37.11    1.44 
  -8   1   3   39.79    1.41 
  -8   1   3   32.94    1.40 
   8   1  -3   38.09    1.39 
  -8   1   3   37.42    1.35 
  -8   1   3   37.57    1.38 
   7  -1  -3   35.46    1.37 
   7  -1  -3   34.42    1.28 
  -7  -1   3   33.74    1.27 
  -7  -1   3   35.73    1.32 
  -7  -1   3   31.82    1.27 
  -7  -1   3   32.29    1.28 
  -7  -1   3   35.32    1.37 
   7  -1  -3   35.90    1.41 
  -7  -1   3   34.66    1.29 
  -7  -1   3   32.18    1.30 
  -7  -1   3   36.25    1.40 
   7  -1  -3   34.27    1.28 
  -7  -1   3   31.55    1.27 
  -7   1   3   34.20    1.31 
  -7   1   3   33.60    1.26 
   7   1  -3   30.62    1.39 
  -7   1   3   32.82    1.25 
  -7   1   3   33.48    1.27 
  -7   1   3   36.60    1.41 
  -7   1   3   33.31    1.33 
   7   1  -3   32.49    1.25 
  -7   1   3   34.26    1.29 
  -7   1   3   33.32    1.25 
   7   1  -3   34.15    1.28 
  -7   1   3   36.12    1.26 
   7   1  -3   32.67    1.35 
   7   1  -3   34.18    1.37 
  -7   1   3   32.82    1.26 
  -7   1   3   32.63    1.30 
  -7   1   3   34.15    1.32 
  -7   1   3   34.36    1.31 
   7   1  -3   34.33    1.33 
  -6  -1   3   10.79    0.53 
  -6  -1   3   10.19    0.49 
  -6  -1   3   11.54    0.55 
   6  -1  -3   10.86    0.59 
   6  -1  -3   10.77    0.65 
   6  -1  -3   11.48    0.59 
  -6  -1   3   10.76    0.55 
  -6  -1   3   11.16    0.59 
   6  -1  -3   10.83    0.56 
  -6  -1   3   11.57    0.63 
   6   1  -3   11.67    0.57 
   6   1  -3   11.12    0.68 
   6   1  -3   10.97    0.57 
  -6   1   3   10.46    0.49 
  -6   1   3   10.23    0.74 
   6   1  -3   12.86    1.00 
  -6   1   3   10.59    0.51 
   6   1  -3   10.95    0.57 
   6   1  -3   10.55    0.57 
   6   1  -3   10.43    0.63 
   6   1  -3   10.05    0.60 
  -5  -1   3    5.93    0.31 
  -5  -1   3    5.44    0.32 
  -5  -1   3    5.83    0.35 
  -5  -1   3    6.04    0.41 
   5  -1  -3    5.92    0.64 
   5  -1  -3    5.58    0.37 
   5  -1  -3    5.54    0.42 
  -5  -1   3    5.61    0.32 
   5  -1  -3    5.21    0.32 
   5  -1  -3    6.05    0.35 
   5  -1  -3    5.43    0.42 
  -5  -1   3    5.91    0.39 
  -5  -1   3    5.73    0.35 
   5  -1  -3    5.58    0.42 
  -5   1   3    5.69    0.35 
   5   1  -3    5.22    0.41 
  -5   1   3    5.70    0.36 
  -5   1   3    5.97    0.79 
   5   1  -3    5.87    0.36 
  -5   1   3    5.54    0.37 
   5   1  -3    6.17    0.69 
   5   1  -3    6.14    0.37 
   5   1  -3    6.21    0.39 
  -5   1   3    5.65    0.48 
   5   1  -3    5.90    0.35 
  -5   1   3    5.28    0.32 
  -5   1   3    5.71    0.34 
  -5   1   3    5.35    0.30 
   5   1  -3    5.70    0.39 
   5   1  -3    5.95    0.44 
   5   1  -3    5.58    0.43 
   5   1  -3    5.10    0.64 
   4  -1  -3   62.28    2.67 
  -4  -1   3   66.51    2.35 
  -4  -1   3   61.25    2.29 
  -4  -1   3   62.04    2.38 
  -4  -1   3   63.82    2.28 
   4  -1  -3   61.07    2.37 
  -4  -1   3   64.19    2.34 
  -4  -1   3   63.84    2.73 
  -4  -1   3   62.38    2.35 
   4  -1  -3   62.20    2.27 
   4  -1  -3   65.54    2.37 
  -4  -1   3   64.41    2.30 
  -4  -1   3   58.97    2.28 
   4  -1  -3   64.13    2.39 
   4  -1  -3   62.08    2.28 
   4  -1  -3   65.35    2.34 
  -4   1   3   64.42    2.32 
   4   1  -3   58.71    2.31 
  -4   1   3   62.85    2.29 
  -4   1   3   66.96    2.48 
   4   1  -3   62.78    2.29 
   4   1  -3   65.06    2.29 
   4   1  -3   62.16    2.38 
   4   1  -3   61.44    2.32 
   4   1  -3   65.26    2.37 
   4   1  -3   58.59    2.28 
   4   1  -3   65.22    2.71 
   4   1  -3   63.52    2.37 
  -4   1   3   61.75    2.30 
  -4   1   3   57.50    2.26 
  -3  -1   3   61.68    2.56 
  -3  -1   3   59.83    2.28 
  -3  -1   3   59.01    2.23 
  -3  -1   3   60.15    2.26 
  -3  -1   3   56.77    2.19 
   3  -1  -3   60.10    2.22 
   3  -1  -3   62.62    2.36 
   3  -1  -3   64.29    2.21 
  -3  -1   3   57.79    2.24 
   3  -1  -3   62.56    2.27 
   3  -1  -3   61.86    2.26 
   3  -1  -3   63.97    2.28 
   3  -1  -3   63.51    2.53 
  -3  -1   3   60.94    2.25 
   3  -1  -3   64.03    2.27 
   3   1  -3   61.44    2.25 
   3   1  -3   62.75    2.21 
   3   1  -3   63.48    2.27 
  -3   1   3   59.10    2.34 
   3   1  -3   60.64    2.32 
  -3   1   3   60.35    2.16 
  -3   1   3   57.83    2.22 
   3   1  -3   63.19    2.53 
   3   1  -3   59.12    2.19 
   3   1  -3   61.75    2.22 
   3   1  -3   64.29    2.28 
  -3   1   3   60.85    2.23 
   3   1  -3   58.22    2.20 
   2  -1  -3   45.25    1.75 
  -2  -1   3   46.07    1.66 
  -2  -1   3   45.06    1.73 
  -2  -1   3   45.06    1.67 
   2  -1  -3   45.23    1.67 
  -2  -1   3   47.69    1.66 
   2  -1  -3   46.08    1.65 
  -2  -1   3   46.42    1.92 
   2  -1  -3   42.64    1.67 
  -2  -1   3   46.30    1.68 
   2  -1  -3   48.17    1.68 
   2  -1  -3   44.81    1.88 
  -2   1   3   39.94    1.88 
   2   1  -3   44.69    1.64 
   2   1  -3   45.74    1.72 
  -2   1   3   45.34    1.65 
   2   1  -3   43.12    1.64 
  -2   1   3   42.49    1.73 
   1  -1  -3   55.03    2.10 
   1  -1  -3   58.06    2.17 
   1  -1  -3   59.36    2.10 
   1  -1  -3   60.31    2.08 
  -1  -1   3   57.75    2.08 
  -1  -1   3   59.95    2.25 
  -1  -1   3   59.11    2.14 
  -1  -1   3   60.06    2.10 
   1  -1  -3   57.63    2.29 
  -1  -1   3   60.44    2.31 
  -1  -1   3   57.71    2.14 
  -1  -1   3   56.41    2.08 
  -1  -1   3   56.72    2.08 
   1   1  -3   53.37    2.10 
   1   1  -3   57.51    2.12 
   1   1  -3   58.55    2.32 
   1   1  -3   60.21    2.14 
  -1   1   3   59.47    2.34 
  -1   1   3   56.36    2.28 
   1   1  -3   59.30    2.08 
  -1   1   3   57.22    2.09 
   1   1  -3   56.91    2.33 
  -1   1   3   57.82    2.09 
   0  -1   3  624.32   22.24 
   0  -1   3  655.66   22.24 
   0  -1   3  627.13   22.33 
   0  -1   3  651.81   22.21 
   0  -1  -3  654.77   22.29 
   0  -1  -3  639.88   22.39 
   0  -1  -3  643.74   22.42 
   0  -1   3  672.05   22.19 
   0  -1   3  589.74   22.37 
   0  -1   3  556.84   22.21 
   0  -1  -3  668.03   22.20 
   0  -1  -3  671.00   22.22 
   0   1  -3  628.57   22.20 
   0   1   3  615.12   22.28 
   0   1   3  681.61   22.50 
   0   1  -3  669.26   22.20 
   0   1   3  604.01   22.22 
   0   1   3  633.32   22.21 
   0   1  -3  667.29   22.46 
   0   1   3  676.30   22.22 
   0   1   3  615.02   22.22 
   0   1  -3  678.96   22.22 
   0   1  -3  673.66   22.22 
   0   1  -3  626.71   22.33 
   0   1  -3  660.96   22.23 
   0   1   3  670.11   22.25 
   0   1  -3  665.65   22.34 
  -1  -1  -3  118.27    4.12 
  -1  -1  -3  115.20    4.29 
   1  -1   3  115.21    4.03 
   1  -1   3  118.52    4.18 
   1  -1   3  111.54    4.00 
   1  -1   3  117.17    4.05 
   1  -1   3  109.56    4.03 
   1  -1   3  110.70    4.21 
   1  -1   3  117.88    4.08 
  -1  -1  -3  115.59    4.06 
  -1   1  -3  115.42    4.02 
  -1   1  -3  116.68    4.35 
   1   1   3  117.56    4.07 
   1   1   3  121.77    4.37 
   1   1   3  115.78    4.10 
   1   1   3  114.54    4.08 
  -1   1  -3  113.80    4.04 
  -1   1  -3  109.77    4.06 
   1   1   3  115.77    4.15 
   2  -1   3  179.78    6.35 
   2  -1   3  175.90    6.30 
   2  -1   3  178.79    6.28 
   2  -1   3  184.83    6.48 
  -2  -1  -3  176.28    6.25 
   2  -1   3  175.20    6.26 
   2  -1   3  188.54    6.53 
  -2  -1  -3  180.32    6.30 
   2  -1   3  182.97    6.31 
  -2  -1  -3  176.74    6.40 
  -2   1  -3  182.22    6.34 
   2   1   3  187.57    6.69 
  -2   1  -3  180.54    6.31 
  -2   1  -3  177.77    6.50 
   2   1   3  184.19    6.37 
   2   1   3  171.90    6.36 
   2   1   3  173.49    6.34 
   2   1   3  187.16    6.33 
   2   1   3  190.91    6.38 
   2   1   3  178.86    6.44 
   3  -1   3   20.48    0.80 
  -3  -1  -3   20.23    0.88 
   3  -1   3   21.39    0.88 
  -3  -1  -3   22.22    0.98 
   3  -1   3   21.56    0.89 
  -3  -1  -3   20.79    0.82 
   3  -1   3   20.96    0.83 
   3  -1   3   18.55    1.04 
  -3  -1  -3   21.03    0.84 
  -3   1  -3   21.23    0.91 
  -3   1  -3   21.55    0.80 
  -3   1  -3   20.45    0.75 
   3   1   3   21.53    0.86 
   3   1   3   20.66    0.83 
   3   1   3   22.13    0.96 
  -3   1  -3   21.51    0.75 
  -3   1  -3   22.09    1.08 
   3   1   3   21.27    0.91 
   3   1   3   22.40    0.94 
   3   1   3   21.70    1.22 
   3   1   3   21.60    0.94 
   4  -1   3   30.17    1.18 
  -4  -1  -3   28.27    1.16 
  -4  -1  -3   30.08    1.15 
  -4  -1  -3   29.83    1.33 
  -4  -1  -3   31.93    1.21 
   4  -1   3   29.71    1.24 
   4  -1   3   29.49    1.24 
   4  -1   3   29.80    1.13 
  -4   1  -3   28.01    1.13 
  -4   1  -3   29.87    1.12 
   4   1   3   30.55    1.19 
  -4   1  -3   29.82    1.26 
   4   1   3   29.38    1.25 
  -4   1  -3   28.15    1.11 
   4   1   3   30.14    1.29 
   4   1   3   30.40    1.65 
  -4   1  -3   30.64    1.95 
   4   1   3   30.01    1.29 
   4   1   3   29.64    1.16 
   4   1   3   29.47    1.23 
   5  -1   3    1.99    0.28 
   5  -1   3    2.46    0.21 
  -5  -1  -3    1.80    0.31 
  -5  -1  -3    2.30    0.25 
   5  -1   3    2.47    0.24 
  -5   1  -3    2.13    0.17 
   5   1   3    2.15    0.29 
   5   1   3    2.67    0.33 
  -5   1  -3    2.49    0.19 
   5   1   3    2.48    0.31 
  -5   1  -3    2.17    0.21 
  -5   1  -3    2.08    0.28 
   5   1   3    2.09    0.25 
   5   1   3    2.34    0.33 
   5   1   3    2.53    0.24 
  -5   1  -3    2.20    0.18 
   5   1   3    3.05    0.28 
  -6  -1  -3    1.70    0.22 
  -6  -1  -3    1.74    0.20 
   6  -1   3    2.18    0.21 
  -6  -1  -3    2.14    0.19 
  -6  -1  -3    1.78    0.23 
  -6  -1  -3    1.76    0.20 
  -6  -1  -3    1.81    0.24 
  -6  -1  -3    1.93    0.22 
  -6  -1  -3    1.91    0.20 
  -6  -1  -3    1.93    0.15 
  -6  -1  -3    1.76    0.21 
  -6  -1  -3    1.80    0.16 
  -6  -1  -3    2.07    0.19 
  -6  -1  -3    1.92    0.19 
  -6  -1  -3    1.86    0.22 
   6   1   3    1.95    0.25 
  -6   1  -3    1.25    0.45 
   6   1   3    1.95    0.20 
  -6   1  -3    2.03    0.42 
  -6   1  -3    1.51    0.17 
  -6   1  -3    1.81    0.17 
  -6   1  -3    2.00    0.21 
  -6   1  -3    1.98    0.19 
  -6   1  -3    1.89    0.14 
   6   1   3    1.95    0.20 
  -6   1  -3    1.68    0.18 
  -6   1  -3    2.12    0.15 
  -6   1  -3    1.70    0.16 
   6   1   3    1.32    0.26 
   6   1   3    2.01    0.25 
   7  -1   3   18.79    0.73 
  -7  -1  -3   18.22    0.72 
  -7  -1  -3   19.13    0.67 
  -7  -1  -3   18.21    0.71 
  -7  -1  -3   18.38    0.69 
  -7  -1  -3   18.75    0.69 
  -7  -1  -3   17.16    0.74 
  -7  -1  -3   17.88    0.68 
  -7  -1  -3   18.82    0.70 
  -7  -1  -3   18.61    0.73 
  -7  -1  -3   17.02    0.71 
  -7  -1  -3   18.76    0.74 
  -7   1  -3   18.99    0.73 
   7   1   3   17.93    0.79 
   7   1   3   18.07    0.72 
  -7   1  -3   20.06    0.73 
  -7   1  -3   18.96    0.70 
  -7   1  -3   18.03    0.67 
  -7   1  -3   18.30    0.67 
   7   1   3   18.45    0.72 
  -8  -2   3   11.74    0.49 
   8  -2  -3   11.38    0.49 
  -8  -2   3   11.96    1.36 
  -8  -2   3   11.76    0.55 
   8  -2  -3   12.61    0.49 
  -8  -2   3   12.52    0.52 
  -8  -2   3   11.70    0.49 
  -8  -2   3   12.28    0.47 
  -8  -2   3   11.51    0.54 
  -8  -2   3   12.10    0.49 
  -8  -2   3   12.61    0.52 
  -8   2   3   12.32    0.48 
   8   2  -3   12.04    0.48 
   8   2  -3   11.40    0.98 
  -8   2   3   12.14    0.51 
   8   2  -3   11.57    0.51 
  -8   2   3   12.49    0.46 
   8   2  -3   12.17    0.53 
   8   2  -3   12.09    0.53 
  -8   2   3   11.74    0.47 
  -8   2   3   12.11    0.50 
  -8   2   3   11.63    0.48 
   8   2  -3   12.36    0.54 
   8   2  -3   11.87    0.44 
  -8   2   3   12.12    0.53 
   8   2  -3   12.42    0.50 
   8   2  -3   11.72    0.43 
  -8   2   3   11.68    0.48 
  -7  -2   3   12.02    0.56 
   7  -2  -3   13.31    0.58 
   7  -2  -3   13.95    0.65 
   7  -2  -3   13.84    0.58 
  -7  -2   3   14.07    0.61 
   7  -2  -3   11.63    0.65 
  -7  -2   3   13.51    0.62 
  -7  -2   3   12.88    0.66 
  -7  -2   3   12.71    0.68 
   7   2  -3   12.94    0.63 
  -7   2   3   14.06    0.62 
   7   2  -3   13.21    0.59 
  -7   2   3   12.81    0.59 
  -7   2   3   13.58    0.53 
  -7   2   3   13.91    0.60 
  -7   2   3   13.52    0.58 
  -7   2   3   13.01    0.58 
  -7   2   3   13.71    0.59 
  -7   2   3   13.92    0.58 
   7   2  -3   13.30    0.64 
  -7   2   3   13.79    0.58 
   7   2  -3   13.92    0.52 
  -7   2   3   13.81    0.66 
  -7   2   3   13.41    0.52 
  -7   2   3   13.58    0.52 
  -7   2   3   14.10    0.56 
  -7   2   3   13.66    0.56 
  -7   2   3   13.61    0.54 
   7   2  -3   13.31    0.57 
  -7   2   3   13.63    0.63 
  -7   2   3   13.07    0.56 
   7   2  -3   13.88    0.62 
  -6  -2   3   15.75    0.70 
  -6  -2   3   15.88    0.72 
  -6  -2   3   14.92    0.67 
   6  -2  -3   14.82    0.67 
  -6  -2   3   13.96    0.69 
  -6  -2   3   15.54    0.62 
  -6  -2   3   16.01    0.71 
  -6  -2   3   14.19    0.68 
   6  -2  -3   14.35    0.71 
  -6  -2   3   12.79    0.61 
  -6  -2   3   14.78    0.68 
  -6  -2   3   13.93    0.65 
   6  -2  -3   14.21    0.69 
  -6  -2   3   15.36    0.74 
   6  -2  -3   15.36    0.68 
  -6  -2   3   14.69    0.77 
   6  -2  -3   13.94    0.64 
  -6  -2   3   14.19    0.55 
  -6   2   3   12.22    0.60 
  -6   2   3   14.40    0.68 
  -6   2   3   12.57    0.61 
  -6   2   3   14.50    0.57 
  -6   2   3   17.01    0.73 
  -6   2   3   14.03    0.64 
  -6   2   3   13.65    0.59 
  -6   2   3   15.30    0.61 
  -6   2   3   14.46    0.65 
   6   2  -3   14.87    0.68 
   6   2  -3   11.70    0.73 
  -6   2   3   13.37    0.59 
  -6   2   3   13.49    0.70 
  -6   2   3   14.08    0.67 
   6   2  -3   14.79    0.74 
  -6   2   3   13.97    0.63 
   6   2  -3   13.94    0.68 
  -6   2   3   14.84    0.61 
   6   2  -3   13.68    0.72 
  -6   2   3   15.13    0.58 
   6   2  -3   14.46    0.65 
   6   2  -3   14.57    0.63 
  -6   2   3   12.92    0.62 
   6   2  -3   14.48    0.56 
   6   2  -3   13.33    0.77 
  -6   2   3   15.56    0.60 
  -6   2   3   15.02    0.66 
  -5  -2   3    9.53    0.49 
  -5  -2   3    9.39    0.87 
  -5  -2   3   10.27    0.45 
   5  -2  -3    9.73    0.49 
  -5  -2   3    9.90    0.48 
   5  -2  -3   10.32    0.58 
   5  -2  -3    8.17    0.59 
  -5  -2   3    9.10    0.58 
  -5  -2   3   10.29    0.49 
   5  -2  -3    9.39    0.50 
  -5  -2   3   10.54    0.57 
   5  -2  -3    9.99    0.58 
   5  -2  -3    8.99    0.79 
  -5  -2   3    9.76    0.57 
  -5  -2   3   10.14    0.51 
   5  -2  -3    9.10    0.52 
  -5  -2   3    9.93    0.56 
   5  -2  -3   10.34    0.60 
   5  -2  -3   10.41    0.49 
  -5  -2   3    9.60    0.50 
  -5   2   3    9.08    0.48 
  -5   2   3    9.87    0.50 
   5   2  -3   10.01    0.59 
   5   2  -3    9.34    0.50 
  -5   2   3    9.95    0.46 
  -5   2   3   10.58    0.67 
  -5   2   3   10.24    0.54 
   5   2  -3    8.73    0.47 
  -5   2   3    9.71    0.47 
   5   2  -3    9.81    0.53 
  -4  -2   3    5.44    0.37 
   4  -2  -3    5.72    0.32 
  -4  -2   3    5.88    0.41 
  -4  -2   3    6.00    0.34 
  -4  -2   3    5.48    0.33 
   4  -2  -3    5.94    0.32 
  -4  -2   3    6.05    0.64 
  -4  -2   3    5.69    0.36 
  -4  -2   3    6.03    0.39 
   4  -2  -3    6.07    0.58 
   4  -2  -3    5.27    0.38 
  -4  -2   3    5.85    0.39 
   4  -2  -3    5.68    0.39 
  -4  -2   3    6.05    0.34 
  -4  -2   3    6.26    0.35 
  -4  -2   3    5.37    0.32 
   4  -2  -3    5.69    0.36 
   4  -2  -3    5.93    0.39 
   4  -2  -3    6.02    0.39 
   4   2  -3    5.76    0.39 
  -4   2   3    5.94    0.33 
  -4   2   3    5.61    0.56 
   4   2  -3    5.47    0.30 
   4   2  -3    6.04    0.33 
  -4   2   3    5.70    0.32 
  -4   2   3    6.00    0.45 
  -4   2   3    5.80    0.30 
  -4   2   3    5.53    0.31 
   4   2  -3    5.96    0.37 
   4   2  -3    6.31    0.36 
  -3  -2   3  123.35    4.51 
   3  -2  -3  128.82    4.81 
  -3  -2   3  126.36    4.45 
  -3  -2   3  124.39    4.46 
   3  -2  -3  135.79    4.54 
   3  -2  -3  126.22    4.47 
   3  -2  -3  125.37    4.51 
  -3  -2   3  118.87    4.43 
  -3  -2   3  125.91    4.49 
  -3  -2   3  129.74    4.88 
  -3  -2   3  128.50    4.53 
  -3  -2   3  124.57    4.46 
   3  -2  -3  127.92    4.45 
   3  -2  -3  122.67    4.43 
   3  -2  -3  130.29    4.53 
  -3  -2   3  127.40    4.54 
   3  -2  -3  127.45    4.51 
   3   2  -3  123.09    4.40 
   3   2  -3  127.58    4.59 
   3   2  -3  122.88    4.43 
  -3   2   3  128.18    4.61 
  -3   2   3  125.39    4.46 
   3   2  -3  131.05    4.48 
  -3   2   3  129.12    4.47 
   3   2  -3  126.57    4.50 
  -3   2   3  124.12    4.45 
   3   2  -3  127.02    4.49 
   3   2  -3  125.96    4.46 
  -3   2   3  126.60    4.45 
  -3   2   3  125.12    4.91 
  -3   2   3  122.77    4.43 
  -2  -2   3   84.70    3.11 
   2  -2  -3   85.42    3.13 
  -2  -2   3   87.16    3.05 
  -2  -2   3   84.98    3.06 
   2  -2  -3   87.12    3.05 
  -2  -2   3   86.75    3.32 
   2  -2  -3   87.25    3.06 
  -2  -2   3   82.88    3.00 
   2  -2  -3   82.83    3.01 
  -2  -2   3   88.32    3.05 
   2  -2  -3   85.09    3.30 
   2  -2  -3   85.25    3.06 
   2  -2  -3   84.36    3.04 
  -2  -2   3   82.86    3.02 
  -2  -2   3   83.61    3.04 
   2   2  -3   79.34    3.09 
  -2   2   3   81.07    3.01 
  -2   2   3   89.38    3.51 
   2   2  -3   81.04    2.98 
   2   2  -3   84.89    3.02 
   2   2  -3   84.00    3.35 
  -2   2   3   82.75    3.12 
  -1  -2   3  130.42    4.63 
   1  -2  -3  135.59    4.69 
   1  -2  -3  130.37    4.61 
  -1  -2   3  131.72    4.59 
  -1  -2   3  127.10    4.79 
  -1  -2   3  128.52    4.55 
   1  -2  -3  128.35    4.84 
   1  -2  -3  127.81    4.62 
   1  -2  -3  135.06    4.62 
  -1  -2   3  137.76    4.57 
   1  -2  -3  134.02    4.58 
  -1  -2   3  131.72    4.75 
  -1  -2   3  125.67    4.58 
   1   2  -3  130.39    4.98 
   1   2  -3  129.01    4.73 
   1   2  -3  126.08    4.62 
   1   2  -3  132.55    4.72 
  -1   2   3  133.12    4.69 
   1   2  -3  130.47    4.59 
   1   2  -3  133.63    4.60 
  -1   2   3  124.25    5.17 
   0  -2  -3   61.92    2.48 
   0  -2   3   69.71    2.36 
   0  -2   3   63.95    2.51 
   0  -2  -3   64.63    2.40 
   0  -2   3   66.95    2.34 
   0  -2  -3   64.51    2.37 
   0  -2   3   68.29    2.47 
   0  -2  -3   70.94    2.67 
   0  -2  -3   70.47    2.41 
   0  -2   3   64.74    2.31 
   0  -2   3   66.90    2.38 
   0   2  -3   64.21    2.35 
   0   2  -3   65.50    2.37 
   0   2   3   64.52    2.40 
   0   2  -3   65.08    2.35 
   0   2   3   63.58    3.81 
   0   2  -3   67.66    2.74 
   0   2  -3   64.74    2.36 
   0   2   3   68.28    2.69 
   0   2   3   64.66    2.47 
   1  -2   3   71.11    2.51 
  -1  -2  -3   70.66    2.76 
   1  -2   3   66.44    2.35 
   1  -2   3   67.38    2.39 
   1  -2   3   67.37    2.40 
   1  -2   3   66.43    2.42 
  -1  -2  -3   72.78    2.50 
  -1  -2  -3   70.92    2.48 
  -1  -2  -3   67.78    2.42 
  -1  -2  -3   68.12    2.49 
  -1   2  -3   67.07    2.51 
   1   2   3   65.98    2.42 
   1   2   3   66.35    2.78 
   1   2   3   66.63    2.48 
   1   2   3   66.55    2.49 
  -1   2  -3   67.77    2.40 
  -1   2  -3   67.68    2.42 
  -1   2  -3   68.90    2.40 
   1   2   3   61.93    2.54 
   1   2   3   66.64    2.46 
  -1   2  -3   71.00    2.87 
  -2  -2  -3   54.89    2.01 
  -2  -2  -3   54.89    1.98 
   2  -2   3   54.24    1.93 
  -2  -2  -3   52.86    2.02 
   2  -2   3   52.36    2.06 
  -2  -2  -3   54.13    2.31 
  -2  -2  -3   53.94    1.94 
   2  -2   3   53.42    1.89 
  -2  -2  -3   54.59    1.95 
  -2  -2  -3   52.84    2.07 
   2   2   3   54.14    2.39 
   2   2   3   53.26    1.96 
   2   2   3   52.88    2.03 
  -2   2  -3   53.90    1.94 
  -2   2  -3   55.28    1.94 
   2   2   3   54.76    2.04 
   2   2   3   55.78    2.06 
   2   2   3   55.30    1.98 
  -2   2  -3   54.38    2.04 
   2   2   3   55.48    2.05 
   2   2   3   51.34    2.00 
  -2   2  -3   53.55    1.95 
   2   2   3   54.73    1.97 
  -2   2  -3   51.09    2.03 
  -2   2  -3   53.05    1.88 
  -3  -2  -3   77.84    2.74 
  -3  -2  -3   73.92    2.68 
  -3  -2  -3   74.19    2.70 
   3  -2   3   75.07    2.66 
   3  -2   3   77.06    2.72 
  -3  -2  -3   79.19    2.80 
  -3   2  -3   77.00    2.74 
  -3   2  -3   78.15    2.71 
   3   2   3   74.99    2.78 
   3   2   3   74.83    2.73 
  -3   2  -3   70.67    2.69 
   3   2   3   74.73    2.83 
   3   2   3   75.60    2.82 
   3   2   3   68.02    3.19 
   3   2   3   74.49    2.73 
   3   2   3   76.52    2.74 
  -3   2  -3   73.51    3.08 
   3   2   3   75.87    2.85 
  -3   2  -3   77.35    2.63 
  -3   2  -3   77.48    2.84 
   4  -2   3    5.99    0.38 
  -4  -2  -3    6.22    0.42 
  -4  -2  -3    6.36    0.35 
   4  -2   3    6.37    0.34 
  -4  -2  -3    5.76    0.36 
  -4   2  -3    6.08    0.62 
   4   2   3    5.35    0.36 
   4   2   3    5.61    0.45 
   4   2   3    6.07    0.46 
  -4   2  -3    6.23    0.27 
  -4   2  -3    6.27    0.45 
   4   2   3    6.15    0.38 
   4   2   3    6.39    0.43 
   4   2   3    6.24    0.44 
  -4   2  -3    6.31    0.31 
   4   2   3    6.38    0.38 
  -4   2  -3    6.78    0.46 
  -4   2  -3    6.30    0.39 
   4   2   3    6.15    0.73 
   4   2   3    6.23    0.38 
  -5  -2  -3    6.05    0.36 
   5  -2   3    5.91    0.37 
   5  -2   3    6.02    0.33 
  -5  -2  -3    5.84    0.41 
   5   2   3    5.67    0.39 
   5   2   3    5.62    0.43 
  -5   2  -3    6.02    0.33 
  -5   2  -3    6.03    0.43 
   5   2   3    5.81    0.47 
  -5   2  -3    5.69    0.30 
   5   2   3    5.95    0.45 
   5   2   3    5.94    0.40 
  -5   2  -3    5.98    0.26 
   5   2   3    5.78    0.39 
   5   2   3    6.20    0.40 
  -6  -2  -3   46.36    1.73 
  -6  -2  -3   46.43    1.73 
  -6  -2  -3   47.49    1.69 
  -6  -2  -3   44.36    1.69 
  -6  -2  -3   43.06    1.70 
  -6  -2  -3   47.66    1.69 
  -6  -2  -3   46.31    1.63 
  -6  -2  -3   44.41    1.77 
  -6  -2  -3   47.21    1.66 
  -6  -2  -3   48.69    1.78 
  -6  -2  -3   46.97    1.71 
  -6  -2  -3   45.25    1.69 
  -6   2  -3   46.00    1.68 
   6   2   3   45.18    1.69 
  -6   2  -3   43.38    1.69 
  -6   2  -3   46.37    1.68 
   6   2   3   48.68    1.86 
   6   2   3   45.44    1.75 
  -6   2  -3   46.04    1.65 
   6   2   3   47.00    1.70 
   6   2   3   46.64    1.79 
   6   2   3   46.35    1.79 
  -6   2  -3   46.20    1.62 
   6   2   3   46.56    1.71 
  -7  -2  -3    7.33    0.35 
  -7  -2  -3    7.43    0.34 
  -7  -2  -3    7.29    0.36 
  -7  -2  -3    8.05    0.39 
  -7  -2  -3    7.64    0.33 
  -7  -2  -3    7.52    0.34 
  -7  -2  -3    7.84    0.33 
  -7  -2  -3    8.77    0.44 
  -7  -2  -3    7.66    0.37 
   7   2   3    7.87    0.38 
   7   2   3    7.17    0.38 
  -7   2  -3    7.61    0.29 
  -7   2  -3    7.67    0.31 
   7   2   3    7.70    0.41 
  -7   2  -3    7.19    0.31 
   7   2   3    7.62    0.33 
   7   2   3    7.20    0.35 
   8  -3  -3    9.87    0.39 
  -8  -3   3    9.70    0.38 
  -8  -3   3    8.52    0.40 
  -8  -3   3   10.76    1.44 
  -8  -3   3    8.97    0.49 
  -8  -3   3    9.76    0.39 
  -8  -3   3    9.07    0.44 
  -8  -3   3    8.35    0.40 
   8  -3  -3    9.62    0.38 
  -8   3   3    9.76    0.35 
  -8   3   3    9.61    0.43 
   8   3  -3    8.36    0.41 
   8   3  -3    8.83    0.41 
  -8   3   3    9.13    0.36 
   8   3  -3   10.19    0.41 
  -8   3   3    8.99    0.38 
   8   3  -3    9.49    0.39 
  -7  -3   3    7.46    0.81 
  -7  -3   3    6.69    0.26 
   7  -3  -3    6.42    0.38 
  -7  -3   3    6.61    0.38 
  -7  -3   3    6.78    0.36 
  -7  -3   3    7.01    0.38 
  -7  -3   3    6.70    0.38 
   7  -3  -3    7.12    0.34 
  -7  -3   3    6.71    0.31 
  -7   3   3    6.45    0.32 
   7   3  -3    7.12    0.56 
   7   3  -3    7.09    0.28 
   7   3  -3    6.19    0.54 
  -7   3   3    6.49    0.37 
  -7   3   3    7.02    0.31 
  -7   3   3    6.76    0.34 
  -7   3   3    7.11    0.35 
  -7   3   3    7.35    0.32 
  -7   3   3    6.68    0.37 
   7   3  -3    7.19    0.39 
   7   3  -3    6.67    0.39 
   7   3  -3    6.95    0.33 
   7   3  -3    5.85    0.35 
  -7   3   3    6.51    0.34 
   7   3  -3    7.34    0.38 
  -7   3   3    7.48    0.29 
  -7   3   3    6.39    0.31 
  -7   3   3    6.88    0.55 
   7   3  -3    7.35    0.40 
   6  -3  -3   37.84    1.44 
  -6  -3   3   37.25    1.46 
  -6  -3   3   34.02    1.54 
   6  -3  -3   37.06    1.47 
  -6  -3   3   36.48    1.32 
   6  -3  -3   37.52    1.45 
  -6  -3   3   36.16    1.36 
  -6  -3   3   36.99    1.44 
   6  -3  -3   37.47    1.43 
  -6  -3   3   37.58    1.43 
   6  -3  -3   36.59    1.38 
  -6  -3   3   36.87    1.42 
  -6  -3   3   35.95    1.43 
  -6  -3   3   35.79    1.46 
   6   3  -3   37.69    1.44 
  -6   3   3   37.40    1.35 
   6   3  -3   37.19    2.35 
   6   3  -3   38.11    1.56 
   6   3  -3   31.36    1.42 
   6   3  -3   36.37    1.36 
  -6   3   3   37.58    1.37 
   6   3  -3   34.98    1.36 
   6   3  -3   36.83    1.31 
  -6   3   3   38.13    1.39 
   6   3  -3   34.45    1.40 
  -6   3   3   38.00    1.39 
   6   3  -3   37.48    1.37 
  -6   3   3   38.08    1.36 
  -6   3   3   38.39    1.46 
   6   3  -3   36.57    1.29 
  -6   3   3   36.46    1.36 
  -6   3   3   38.52    1.45 
  -6   3   3   37.80    1.39 
  -6   3   3   37.58    1.32 
  -6   3   3   36.54    1.37 
  -6   3   3   37.19    1.39 
   6   3  -3   36.96    1.45 
   6   3  -3   33.98    1.42 
   6   3  -3   37.30    1.39 
   6   3  -3   36.73    1.44 
  -6   3   3   35.76    1.32 
   5  -3  -3    1.43    0.22 
   5  -3  -3    1.78    0.21 
   5  -3  -3    1.40    0.24 
  -5  -3   3    1.76    0.21 
  -5  -3   3    1.40    0.29 
   5  -3  -3    1.85    0.20 
  -5  -3   3    1.64    0.23 
   5  -3  -3    1.73    0.26 
  -5  -3   3    1.80    0.33 
  -5  -3   3    1.93    0.23 
  -5  -3   3    1.63    0.22 
  -5  -3   3    1.77    0.23 
  -5  -3   3    1.57    0.26 
  -5   3   3    2.02    0.19 
  -5   3   3    1.64    0.31 
  -5   3   3    1.44    0.16 
  -5   3   3    1.99    0.22 
  -5   3   3    1.88    0.09 
   5   3  -3    1.78    0.20 
  -5   3   3    1.64    0.15 
  -5   3   3    1.84    0.19 
   5   3  -3    2.02    0.28 
  -5   3   3    1.52    0.09 
   5   3  -3    1.59    0.23 
   4  -3  -3    7.50    0.68 
  -4  -3   3    8.23    0.43 
  -4  -3   3    8.02    0.51 
  -4  -3   3    7.71    0.44 
  -4  -3   3    8.26    0.44 
   4  -3  -3    7.96    0.41 
   4  -3  -3    7.89    0.48 
   4  -3  -3    8.11    0.45 
   4  -3  -3    8.18    0.48 
   4  -3  -3    8.05    0.48 
  -4  -3   3    8.26    0.42 
  -4  -3   3    8.31    0.50 
  -4  -3   3    7.83    0.76 
   4  -3  -3    7.51    0.43 
  -4  -3   3    8.53    0.52 
  -4  -3   3    7.89    0.47 
  -4  -3   3    8.34    0.45 
   4  -3  -3    8.01    0.40 
   4   3  -3    7.89    0.41 
   4   3  -3    7.50    0.46 
  -4   3   3    8.32    0.44 
  -4   3   3    7.86    0.42 
  -4   3   3    7.78    0.38 
   4   3  -3    8.17    0.48 
  -4   3   3    7.54    0.54 
   4   3  -3    7.97    0.56 
  -4   3   3    8.43    0.39 
   4   3  -3    8.49    0.44 
  -4   3   3    7.82    0.43 
  -4   3   3    7.58    0.39 
   3  -3  -3  114.00    4.04 
   3  -3  -3  112.04    4.35 
  -3  -3   3  115.25    4.00 
  -3  -3   3  112.35    4.04 
  -3  -3   3  112.36    4.06 
   3  -3  -3  108.53    3.97 
  -3  -3   3  106.08    4.04 
  -3  -3   3  113.77    3.96 
   3  -3  -3  113.10    3.94 
  -3  -3   3  114.31    4.42 
  -3  -3   3  112.24    3.94 
   3  -3  -3  110.68    3.98 
  -3  -3   3  109.26    3.98 
   3  -3  -3  108.40    4.02 
   3  -3  -3  111.71    4.02 
  -3  -3   3  111.35    4.05 
   3  -3  -3  113.14    3.95 
   3   3  -3  115.26    3.95 
   3   3  -3  104.50    4.00 
   3   3  -3  108.14    3.99 
   3   3  -3  110.97    4.46 
  -3   3   3  109.26    3.97 
   3   3  -3  114.44    4.00 
  -3   3   3  107.06    3.93 
  -3   3   3  116.50    4.16 
  -3   3   3  113.78    4.13 
   3   3  -3  112.15    4.12 
  -2  -3   3   43.54    1.61 
  -2  -3   3   40.99    1.55 
  -2  -3   3   42.75    1.61 
   2  -3  -3   42.13    1.61 
   2  -3  -3   44.78    1.62 
   2  -3  -3   42.98    1.54 
  -2  -3   3   39.15    1.52 
  -2  -3   3   42.27    1.88 
   2  -3  -3   41.08    1.56 
   2  -3  -3   41.66    1.60 
  -2  -3   3   41.60    1.61 
  -2  -3   3   41.39    1.54 
   2  -3  -3   41.35    1.52 
   2  -3  -3   40.53    1.86 
  -2  -3   3   42.95    1.56 
   2  -3  -3   41.89    1.62 
   2   3  -3   43.12    1.77 
   2   3  -3   39.30    1.59 
   2   3  -3   42.94    1.66 
  -2   3   3   43.26    1.70 
  -2   3   3   40.39    1.55 
  -2   3   3   38.79    2.33 
   2   3  -3   40.81    3.42 
  -2   3   3   42.05    1.53 
   2   3  -3   43.06    1.59 
  -2   3   3   42.61    1.91 
  -2   3   3   39.65    1.55 
  -2   3   3   40.67    1.53 
   2   3  -3   41.42    2.12 
   1  -3  -3   55.60    2.09 
   1  -3  -3   55.93    2.05 
   1  -3  -3   57.00    2.03 
  -1  -3   3   54.96    1.99 
   1  -3  -3   59.65    2.39 
  -1  -3   3   55.99    2.01 
  -1  -3   3   55.49    2.27 
   1  -3  -3   56.30    2.09 
   1  -3  -3   57.44    2.10 
  -1  -3   3   57.44    2.24 
   1  -3  -3   60.98    2.49 
  -1  -3   3   52.17    2.02 
  -1  -3   3   57.38    2.06 
  -1  -3   3   54.94    2.06 
   1  -3  -3   53.72    2.01 
  -1  -3   3   58.33    2.06 
   1  -3  -3   54.90    2.09 
  -1   3   3   58.99    2.19 
   1   3  -3   55.96    1.96 
  -1   3   3   56.60    2.88 
   1   3  -3   55.31    2.06 
   1   3  -3   54.11    2.26 
  -1   3   3   58.35    2.51 
  -1   3   3   53.60    2.02 
   1   3  -3   57.59    2.59 
   1   3  -3   56.34    2.10 
   1   3  -3   57.78    2.08 
   1   3  -3   55.13    1.96 
  -1   3   3   54.55    2.04 
  -1   3   3   54.68    2.05 
   0  -3  -3  430.65   14.21 
   0  -3  -3  412.68   14.19 
   0  -3   3  409.48   14.24 
   0  -3   3  393.10   14.09 
   0  -3  -3  403.82   14.19 
   0  -3  -3  418.37   14.31 
   0  -3  -3  405.04   14.12 
   0  -3   3  416.29   14.11 
   0  -3  -3  392.35   14.10 
   0  -3   3  406.86   14.06 
   0  -3  -3  405.14   14.19 
   0  -3  -3  436.94   14.55 
   0   3   3  422.60   16.95 
   0   3  -3  401.82   14.11 
   0   3  -3  409.42   14.14 
   0   3  -3  410.34   14.45 
   0   3  -3  421.82   14.15 
   0   3   3  395.39   14.21 
   0   3   3  415.49   14.29 
   0   3   3  389.46   14.16 
   0   3   3  400.01   14.08 
   0   3  -3  401.68   14.11 
   0   3  -3  403.61   14.24 
   0   3   3  405.17   14.12 
   0   3   3  407.82   14.15 
   0   3  -3  416.37   14.74 
  -1  -3  -3   66.91    2.85 
  -1  -3  -3   70.11    2.47 
   1  -3   3   68.19    2.50 
  -1  -3  -3   68.00    2.46 
  -1  -3  -3   67.45    2.50 
  -1  -3  -3   71.53    2.54 
  -1  -3  -3   66.02    2.54 
  -1  -3  -3   68.39    2.55 
  -1  -3  -3   67.18    2.47 
   1   3   3   68.64    2.53 
   1   3   3   66.51    2.50 
   1   3   3   68.33    2.56 
  -1   3  -3   70.48    3.04 
  -1   3  -3   69.01    2.41 
   1   3   3   67.16    2.44 
   1   3   3   67.67    2.47 
  -1   3  -3   73.90    2.42 
   1   3   3   66.39    2.63 
  -2  -3  -3  119.31    4.16 
  -2  -3  -3  115.93    4.19 
  -2  -3  -3  116.54    4.15 
  -2  -3  -3  120.47    4.24 
  -2  -3  -3  113.93    4.23 
  -2  -3  -3  115.73    4.19 
  -2  -3  -3  118.69    4.27 
  -2  -3  -3  115.24    4.61 
  -2  -3  -3  112.23    4.15 
  -2  -3  -3  118.44    4.26 
   2   3   3  113.72    4.20 
  -2   3  -3  122.89    4.07 
  -2   3  -3  117.20    4.08 
   2   3   3  117.96    4.24 
  -2   3  -3  120.10    4.07 
  -2   3  -3  114.42    4.07 
   2   3   3  119.03    4.17 
   2   3   3  118.27    4.14 
   2   3   3  118.77    4.27 
  -3  -3  -3    3.67    0.27 
  -3  -3  -3    3.22    0.31 
   3  -3   3    3.47    0.18 
  -3  -3  -3    3.87    0.30 
  -3  -3  -3    3.92    0.27 
  -3  -3  -3    3.82    0.34 
   3   3   3    3.92    0.32 
  -3   3  -3    3.59    0.19 
   3   3   3    3.66    0.34 
   3   3   3    3.74    0.29 
   3   3   3    3.85    0.27 
  -3   3  -3    3.55    0.19 
  -3   3  -3    3.62    0.19 
   3   3   3    3.98    0.59 
   3   3   3    3.73    0.37 
   3   3   3    3.72    0.33 
  -3   3  -3    3.82    0.19 
  -4  -3  -3   49.77    1.79 
   4  -3   3   44.52    1.66 
  -4  -3  -3   46.42    1.71 
  -4  -3  -3   44.95    1.82 
  -4  -3  -3   44.74    1.75 
   4   3   3   41.70    2.73 
   4   3   3   46.75    1.87 
   4   3   3   46.20    1.86 
   4   3   3   42.40    1.87 
  -4   3  -3   46.40    1.65 
  -4   3  -3   42.99    1.65 
   4   3   3   46.77    1.81 
   4   3   3   47.10    1.76 
   4   3   3   42.19    1.71 
   4   3   3   42.23    1.72 
  -5  -3  -3    7.79    0.75 
  -5  -3  -3    7.48    0.44 
  -5  -3  -3    8.94    0.54 
  -5  -3  -3    7.99    0.41 
  -5  -3  -3    8.48    0.48 
  -5  -3  -3    7.56    0.41 
  -5  -3  -3    8.07    0.54 
  -5  -3  -3    7.21    0.41 
  -5  -3  -3    7.75    0.44 
  -5  -3  -3    7.90    0.45 
  -5  -3  -3    7.95    0.44 
  -5   3  -3    8.10    0.33 
  -5   3  -3    8.26    0.39 
   5   3   3    8.38    0.46 
  -5   3  -3    8.19    0.35 
   5   3   3    8.79    0.47 
   5   3   3    8.29    0.38 
   5   3   3    7.76    0.46 
   5   3   3    6.91    0.57 
   5   3   3    9.33    0.57 
   5   3   3    8.87    0.42 
   5   3   3    8.08    0.55 
   5   3   3    7.91    0.49 
   5   3   3    8.31    0.48 
   5   3   3    8.02    0.46 
   5   3   3    8.10    0.56 
  -6  -3  -3    4.53    0.29 
  -6  -3  -3    4.16    0.26 
  -6  -3  -3    4.25    0.31 
  -6  -3  -3    4.55    0.28 
  -6  -3  -3    4.43    0.29 
  -6  -3  -3    4.04    0.33 
  -6  -3  -3    4.68    0.29 
  -6  -3  -3    4.47    0.26 
  -6  -3  -3    4.56    0.37 
  -6  -3  -3    4.39    0.30 
  -6   3  -3    4.31    0.19 
   6   3   3    4.84    0.28 
   6   3   3    4.37    0.34 
   6   3   3    4.65    0.22 
   6   3   3    4.54    0.32 
  -7  -3  -3    1.26    0.13 
  -7  -3  -3    1.32    0.14 
  -7  -3  -3    1.11    0.13 
  -7  -3  -3    1.05    0.14 
  -7  -3  -3    1.25    0.12 
  -7  -3  -3    1.18    0.13 
  -7  -3  -3    0.98    0.13 
  -7  -3  -3    1.39    0.12 
  -7  -3  -3    1.26    0.16 
  -7  -3  -3    1.36    0.15 
   7   3   3    0.96    0.13 
   7   3   3    0.78    0.34 
   7   3   3    1.17    0.08 
  -7   3  -3    1.08    0.08 
   7   3   3    1.20    0.16 
   7   3   3    1.24    0.16 
   7   3   3    1.25    0.16 
  -7  -4   3   13.34    0.58 
  -7  -4   3   10.99    0.51 
  -7  -4   3   11.74    0.53 
  -7  -4   3   11.86    0.43 
   7  -4  -3   11.58    0.49 
  -7  -4   3   11.55    0.53 
  -7  -4   3   12.08    0.48 
  -7  -4   3    9.94    0.93 
  -7   4   3   12.42    0.47 
  -7   4   3   12.43    0.45 
  -7   4   3   12.62    0.48 
   7   4  -3   12.86    0.55 
   7   4  -3   12.43    0.50 
   7   4  -3   11.40    0.50 
  -7   4   3   12.67    0.49 
   7   4  -3   11.86    0.53 
   7   4  -3   12.77    0.49 
   7   4  -3   11.78    0.51 
  -7   4   3   12.77    0.49 
  -7   4   3   12.42    0.50 
   7   4  -3   12.06    0.52 
   7   4  -3   11.70    0.56 
  -6  -4   3   11.35    0.56 
  -6  -4   3   10.55    0.53 
  -6  -4   3   12.06    0.45 
  -6  -4   3   10.97    0.69 
  -6  -4   3   11.40    0.53 
  -6  -4   3    9.26    0.75 
  -6  -4   3   11.52    0.48 
  -6  -4   3   11.04    0.54 
  -6   4   3   10.34    0.42 
  -6   4   3    9.56    0.51 
   6   4  -3   10.40    0.52 
  -6   4   3   11.02    0.45 
  -6   4   3   11.31    0.46 
  -6   4   3   10.23    0.47 
  -6   4   3   10.94    0.46 
   6   4  -3   10.90    0.39 
   6   4  -3   11.02    0.50 
   6   4  -3   11.02    0.58 
   6   4  -3   11.01    0.53 
   6   4  -3   11.14    0.48 
  -6   4   3   11.13    0.48 
   6   4  -3   10.61    0.52 
  -6   4   3   10.20    0.49 
   6   4  -3   10.12    0.50 
  -6   4   3   11.24    0.48 
   6   4  -3   10.56    0.48 
   6   4  -3   10.47    0.50 
  -5  -4   3    7.21    0.43 
  -5  -4   3    7.36    0.47 
  -5  -4   3    7.36    0.44 
  -5  -4   3    7.20    0.43 
  -5  -4   3    7.17    0.44 
  -5  -4   3    6.12    0.37 
  -5  -4   3    7.15    0.42 
  -5  -4   3    6.83    0.35 
  -5  -4   3    6.74    0.35 
  -5  -4   3    6.51    0.43 
  -5  -4   3    7.29    0.44 
  -5  -4   3    7.29    0.43 
   5  -4  -3    6.67    0.39 
  -5  -4   3    5.98    0.43 
  -5  -4   3    7.06    0.52 
  -5   4   3    7.53    0.41 
  -5   4   3    7.72    0.33 
   5   4  -3    7.33    0.39 
  -5   4   3    7.69    0.36 
   5   4  -3    7.15    0.38 
  -5   4   3    7.51    0.41 
  -5   4   3    7.45    0.36 
   5   4  -3    7.29    0.41 
   5   4  -3    7.36    0.42 
   5   4  -3    7.43    0.41 
   5   4  -3    5.96    0.39 
  -5   4   3    7.09    0.30 
   5   4  -3    7.22    0.45 
   5   4  -3    7.21    0.38 
   5   4  -3    7.60    0.31 
  -5   4   3    6.86    0.35 
  -5   4   3    7.21    0.33 
  -5   4   3    7.36    0.37 
   5   4  -3    5.75    0.41 
   5   4  -3    7.08    0.35 
  -5   4   3    7.53    0.34 
  -5   4   3    7.38    0.34 
  -5   4   3    7.48    0.37 
  -5   4   3    7.65    0.75 
  -5   4   3    7.15    0.30 
   5   4  -3    7.55    0.44 
   5   4  -3    7.05    0.27 
   4  -4  -3    1.82    0.21 
   4  -4  -3    1.73    0.23 
  -4  -4   3    1.83    0.22 
  -4  -4   3    1.75    0.26 
  -4  -4   3    1.66    0.28 
  -4  -4   3    1.72    0.23 
  -4  -4   3    1.57    0.29 
  -4  -4   3    1.84    0.23 
  -4  -4   3    1.53    0.25 
  -4  -4   3    1.73    0.24 
   4  -4  -3    1.92    0.19 
   4  -4  -3    2.13    0.23 
  -4  -4   3    1.79    0.23 
   4  -4  -3    1.42    0.24 
  -4   4   3    1.78    0.20 
  -4   4   3    1.89    0.17 
   4   4  -3    1.63    0.33 
   4   4  -3    1.64    0.23 
  -4   4   3    1.81    0.17 
   4   4  -3    1.74    0.26 
  -4   4   3    1.41    0.15 
   4   4  -3    1.75    0.21 
  -4   4   3    1.82    0.22 
  -4   4   3    1.54    0.15 
  -4   4   3    1.92    0.30 
   4   4  -3    1.48    0.24 
   3  -4  -3    0.94    0.34 
  -3  -4   3    0.71    0.20 
  -3  -4   3    0.45    0.16 
  -3  -4   3    0.88    0.16 
   3  -4  -3    0.85    0.15 
   3  -4  -3    1.01    0.19 
   3  -4  -3    0.89    0.17 
  -3  -4   3    0.80    0.21 
  -3  -4   3    1.08    0.37 
  -3  -4   3    0.68    0.14 
  -3  -4   3    0.75    0.16 
   3  -4  -3    0.77    0.18 
  -3  -4   3    1.04    0.19 
  -3  -4   3    1.01    0.15 
   3  -4  -3    1.02    0.18 
   3  -4  -3    0.89    0.15 
  -3  -4   3    0.79    0.20 
   3  -4  -3    0.84    0.19 
   3  -4  -3    0.81    0.14 
  -3   4   3    0.92    0.16 
   3   4  -3    1.11    0.19 
  -3   4   3    0.86    0.15 
  -3   4   3    0.91    0.13 
   3   4  -3    1.05    0.22 
  -3   4   3    0.78    0.08 
  -3   4   3    0.48    0.16 
   3   4  -3    0.88    0.24 
  -3   4   3    0.88    0.13 
   3   4  -3    0.94    0.16 
  -3   4   3    0.67    0.22 
   3   4  -3    0.75    0.16 
  -3   4   3    0.95    0.16 
   3   4  -3    1.10    0.19 
   2  -4  -3   38.89    1.43 
   2  -4  -3   39.42    1.42 
  -2  -4   3   38.58    1.51 
  -2  -4   3   36.74    1.42 
  -2  -4   3   38.66    1.79 
  -2  -4   3   39.66    1.42 
  -2  -4   3   37.07    1.45 
   2  -4  -3   38.96    1.83 
  -2  -4   3   38.19    1.51 
   2  -4  -3   37.55    1.51 
  -2  -4   3   37.26    1.45 
   2  -4  -3   37.27    1.46 
  -2  -4   3   36.83    1.42 
  -2  -4   3   37.39    1.45 
   2  -4  -3   35.70    1.50 
  -2  -4   3   37.11    1.49 
   2  -4  -3   38.01    1.50 
   2  -4  -3   37.02    1.45 
   2   4  -3   37.37    1.51 
   2   4  -3   38.44    1.35 
  -2   4   3   36.90    1.41 
   2   4  -3   35.63    1.40 
   2   4  -3   38.42    1.56 
  -2   4   3   36.88    1.46 
  -2   4   3   39.60    1.43 
   2   4  -3   38.66    1.42 
  -2   4   3   38.56    1.61 
  -2   4   3   37.53    1.43 
  -2   4   3   35.81    1.43 
   2   4  -3   39.49    1.50 
   1  -4  -3   21.35    0.85 
   1  -4  -3   22.53    0.86 
  -1  -4   3   21.58    0.85 
  -1  -4   3   21.21    0.82 
   1  -4  -3   21.16    0.90 
   1  -4  -3   21.66    0.93 
   1  -4  -3   21.80    0.94 
  -1  -4   3   21.79    0.89 
   1  -4  -3   20.98    1.20 
   1  -4  -3   21.76    0.94 
   1  -4  -3   19.63    0.92 
   1   4  -3   21.27    1.08 
   1   4  -3   21.48    0.93 
  -1   4   3   21.11    0.85 
  -1   4   3   21.79    1.14 
   1   4  -3   22.44    0.94 
  -1   4   3   19.64    0.86 
   1   4  -3   20.22    0.80 
   1   4  -3   20.73    0.91 
  -1   4   3   23.53    1.05 
   0  -4  -3   28.11    1.13 
   0  -4   3   24.75    0.89 
   0  -4  -3   24.51    1.02 
   0  -4  -3   23.26    0.98 
   0  -4  -3   25.13    1.34 
   0  -4  -3   22.77    0.93 
   0  -4  -3   25.34    1.05 
   0  -4  -3   23.55    1.03 
   0  -4  -3   24.18    0.95 
   0  -4   3   22.65    0.93 
   0  -4  -3   22.70    1.02 
   0   4  -3   23.07    0.91 
   0   4   3   22.67    1.11 
   0   4  -3   25.24    0.98 
   0   4  -3   22.95    0.98 
   0   4   3   22.97    0.95 
   0   4   3   22.68    1.38 
   0   4  -3   23.85    0.99 
   0   4   3   23.62    0.98 
   0   4  -3   23.09    0.93 
  -1  -4  -3   22.65    1.03 
  -1  -4  -3   23.33    0.97 
  -1  -4  -3   22.68    0.92 
  -1  -4  -3   22.47    1.01 
  -1  -4  -3   22.88    0.93 
  -1  -4  -3   23.31    1.34 
  -1  -4  -3   22.45    1.00 
  -1  -4  -3   23.82    1.02 
  -1   4  -3   22.38    0.84 
  -1   4  -3   23.12    0.84 
   1   4   3   22.52    0.98 
   1   4   3   21.92    0.95 
  -1   4  -3   23.86    0.83 
   1   4   3   24.45    1.06 
  -1   4  -3   23.43    0.83 
   1   4   3   24.19    1.14 
   1   4   3   21.64    0.91 
  -2  -4  -3    1.93    0.26 
  -2  -4  -3    1.28    0.39 
  -2  -4  -3    1.43    0.20 
  -2  -4  -3    1.73    0.20 
  -2  -4  -3    1.68    0.19 
  -2  -4  -3    1.29    0.23 
  -2  -4  -3    1.80    0.27 
  -2  -4  -3    1.70    0.22 
  -2  -4  -3    1.44    0.24 
   2   4   3    1.43    0.23 
   2   4   3    1.67    0.25 
   2   4   3    1.67    0.20 
   2   4   3    1.51    0.22 
  -3  -4  -3  249.62    9.08 
  -3  -4  -3  259.21    9.20 
  -3  -4  -3  266.95    9.08 
  -3  -4  -3  256.39    9.09 
  -3  -4  -3  247.99    9.08 
  -3  -4  -3  287.65    9.21 
  -3  -4  -3  263.38    9.23 
  -3  -4  -3  250.17    9.13 
   3   4   3  268.45    9.21 
   3   4   3  253.20    9.23 
   3   4   3  266.36    9.15 
   3   4   3  247.61    9.08 
  -4  -4  -3   14.85    0.71 
  -4  -4  -3   14.98    0.66 
  -4  -4  -3   15.30    0.58 
  -4  -4  -3   15.53    0.71 
  -4  -4  -3   15.51    0.69 
  -4  -4  -3   14.85    0.70 
  -4  -4  -3   15.36    0.63 
  -4  -4  -3   14.00    0.73 
  -4  -4  -3   15.61    0.81 
   4   4   3   15.95    0.72 
   4   4   3   15.52    0.73 
   4   4   3   14.88    0.66 
   4   4   3   14.99    0.82 
   4   4   3   15.06    0.63 
   4   4   3   15.19    0.70 
  -4   4  -3   15.25    0.53 
  -4   4  -3   15.45    0.53 
   4   4   3   15.16    0.71 
   4   4   3   15.74    0.77 
   4   4   3   14.95    0.69 
   4   4   3   15.66    0.58 
   4   4   3   15.75    0.82 
  -5  -4  -3    5.40    0.37 
  -5  -4  -3    6.45    0.36 
  -5  -4  -3    5.54    0.36 
  -5  -4  -3    5.79    0.37 
  -5  -4  -3    5.69    0.36 
  -5  -4  -3    5.46    0.29 
  -5  -4  -3    5.79    0.22 
  -5  -4  -3    6.23    0.80 
  -5  -4  -3    5.30    0.54 
   5   4   3    5.30    0.38 
   5   4   3    5.46    0.35 
   5   4   3    5.34    0.30 
   5   4   3    5.56    0.39 
   5   4   3    5.58    0.37 
   5   4   3    5.61    0.24 
  -6  -4  -3    6.50    0.44 
  -6  -4  -3    7.34    0.38 
  -6  -4  -3    7.49    0.37 
  -6  -4  -3    7.42    0.45 
  -6  -4  -3    8.49    0.40 
  -6  -4  -3    7.00    0.41 
  -6  -4  -3    7.17    0.35 
  -6  -4  -3    7.64    0.36 
  -6  -4  -3    8.07    0.39 
   6   4   3    7.68    0.41 
   6   4   3    7.21    0.38 
   6   4   3    7.72    0.40 
   6   4   3    7.66    0.34 
   6   4   3    7.88    0.79 
   6   4   3    8.40    0.41 
  -6  -5   3    3.43    0.22 
  -6  -5   3    2.65    0.24 
  -6  -5   3    3.36    0.18 
  -6  -5   3    3.52    0.28 
  -6  -5   3    3.13    0.25 
   6   5  -3    3.30    0.25 
   6   5  -3    3.59    0.23 
   6   5  -3    3.21    0.25 
   6   5  -3    3.18    0.27 
  -6   5   3    3.46    0.19 
   6   5  -3    3.15    0.20 
  -6   5   3    3.39    0.19 
  -6   5   3    3.45    0.15 
  -6   5   3    3.30    0.18 
   6   5  -3    3.56    0.23 
   6   5  -3    3.38    0.32 
  -6   5   3    3.21    0.18 
  -6   5   3    3.31    0.17 
   6   5  -3    3.21    0.23 
   6   5  -3    3.15    0.22 
   6   5  -3    3.17    0.22 
  -5  -5   3    7.83    0.43 
  -5  -5   3    7.80    0.37 
  -5  -5   3    7.53    0.38 
  -5  -5   3    6.68    0.49 
  -5  -5   3    7.21    0.46 
  -5  -5   3    7.81    0.43 
  -5  -5   3    7.21    0.37 
  -5  -5   3    7.74    0.44 
  -5  -5   3    6.73    0.45 
  -5   5   3    7.65    0.36 
   5   5  -3    7.88    0.39 
  -5   5   3    7.40    0.36 
   5   5  -3    7.96    0.32 
   5   5  -3    7.42    0.42 
  -5   5   3    7.38    0.40 
  -5   5   3    7.73    0.31 
   5   5  -3    7.78    0.38 
   5   5  -3    7.51    0.30 
   5   5  -3    7.33    0.49 
   5   5  -3    7.75    0.44 
   5   5  -3    7.07    0.35 
   5   5  -3    7.48    0.39 
  -5   5   3    7.81    0.33 
  -5   5   3    8.09    0.34 
  -5   5   3    8.22    0.35 
   5   5  -3    7.63    0.41 
   5   5  -3    7.94    0.38 
  -5   5   3    7.99    0.37 
   5   5  -3    7.72    0.39 
  -4  -5   3   64.33    2.29 
  -4  -5   3   59.91    2.17 
  -4  -5   3   61.85    2.26 
  -4  -5   3   59.94    2.17 
  -4  -5   3   60.80    2.35 
  -4  -5   3   57.34    2.27 
   4  -5  -3   57.06    2.20 
  -4  -5   3   59.91    2.27 
  -4  -5   3   58.38    2.24 
  -4  -5   3   63.16    2.28 
  -4  -5   3   59.61    2.23 
   4   5  -3   58.76    2.13 
   4   5  -3   59.45    2.17 
   4   5  -3   60.59    2.20 
  -4   5   3   59.28    2.16 
   4   5  -3   62.20    2.22 
  -4   5   3   61.34    2.14 
   4   5  -3   58.44    2.31 
   4   5  -3   57.22    2.23 
   4   5  -3   60.80    2.21 
   4   5  -3   59.78    2.16 
  -4   5   3   61.62    2.22 
  -4   5   3   58.58    2.20 
   4   5  -3   61.28    2.15 
  -4   5   3   60.63    2.14 
  -4   5   3   61.63    2.17 
   4   5  -3   60.06    2.23 
   4   5  -3   59.22    2.23 
   4   5  -3   59.82    2.15 
   4   5  -3   58.37    2.19 
   4   5  -3   59.47    2.13 
   4   5  -3   59.11    2.14 
  -4   5   3   59.43    2.52 
  -4   5   3   61.51    2.14 
   4   5  -3   59.12    2.16 
   4   5  -3   58.58    2.11 
   4   5  -3   60.00    2.18 
  -4   5   3   57.25    2.16 
  -4   5   3   59.16    2.10 
  -4   5   3   58.35    2.12 
  -3  -5   3  104.84    3.85 
  -3  -5   3  110.80    3.82 
  -3  -5   3  103.10    3.81 
  -3  -5   3  106.23    3.87 
  -3  -5   3  108.85    3.85 
  -3  -5   3  100.68    3.90 
  -3  -5   3  100.98    3.82 
   3  -5  -3  107.79    3.79 
   3  -5  -3  104.49    3.83 
  -3  -5   3  104.50    3.80 
   3   5  -3  107.41    3.67 
   3   5  -3  104.84    3.74 
  -3   5   3   99.86    4.72 
  -3   5   3  105.81    3.73 
  -3   5   3  109.93    3.76 
  -3   5   3  106.89    3.72 
  -3   5   3  110.54    3.82 
   3   5  -3  110.38    3.81 
  -3   5   3  102.87    3.75 
   3   5  -3  105.68    3.78 
  -3   5   3  111.17    3.75 
   3   5  -3  102.53    3.78 
   3   5  -3  106.50    3.78 
  -3   5   3  109.72    3.81 
  -2  -5   3    5.33    0.37 
   2  -5  -3    5.52    0.37 
   2  -5  -3    5.81    0.41 
   2  -5  -3    5.50    0.36 
   2  -5  -3    5.88    0.34 
   2  -5  -3    4.83    0.38 
   2  -5  -3    5.53    0.32 
  -2  -5   3    5.46    0.40 
  -2  -5   3    5.50    0.35 
  -2  -5   3    5.63    0.39 
  -2  -5   3    5.85    0.32 
  -2   5   3    5.62    0.35 
   2   5  -3    5.50    0.29 
  -2   5   3    5.46    0.28 
   2   5  -3    5.64    0.31 
   2   5  -3    5.75    0.30 
  -2   5   3    5.80    0.35 
   2   5  -3    5.27    0.42 
  -2   5   3    4.88    0.45 
  -2   5   3    5.47    0.31 
  -2   5   3    5.09    0.30 
   2   5  -3    5.36    0.32 
  -2   5   3    5.46    0.31 
   1  -5  -3    8.21    0.77 
   1  -5  -3    9.49    0.58 
   1  -5  -3   10.46    0.50 
   1  -5  -3    9.71    0.57 
  -1  -5   3   10.55    0.48 
  -1  -5   3   10.21    0.46 
   1  -5  -3    9.98    0.56 
   1  -5  -3    9.63    0.52 
   1  -5  -3   10.16    0.49 
  -1   5   3    9.80    0.47 
   1   5  -3    9.58    0.43 
   1   5  -3   10.29    0.64 
   1   5  -3   10.74    0.56 
  -1   5   3   10.77    0.49 
   1   5  -3    9.67    0.45 
  -1   5   3    9.54    0.65 
  -1   5   3   10.21    0.51 
  -1   5   3   10.05    0.47 
   0  -5  -3   69.93    2.63 
   0  -5  -3   70.04    2.61 
   0  -5  -3   72.14    2.75 
   0  -5  -3   75.74    3.18 
   0  -5   3   74.01    2.57 
   0  -5  -3   74.35    2.63 
   0  -5  -3   73.54    2.67 
   0  -5  -3   74.00    2.73 
   0  -5  -3   72.45    2.73 
   0   5   3   71.02    2.62 
   0   5   3   64.87    2.83 
   0   5  -3   74.27    2.58 
   0   5   3   72.23    2.60 
   0   5   3   73.17    2.64 
   0   5   3   70.44    2.61 
   0   5  -3   66.27    2.57 
  -1  -5  -3    7.72    0.52 
  -1  -5  -3    7.44    0.41 
  -1  -5  -3    8.21    0.47 
  -1  -5  -3    7.43    0.43 
  -1  -5  -3    8.47    0.52 
  -1  -5  -3    7.87    0.43 
  -1  -5  -3    5.64    0.69 
  -1  -5  -3    7.41    0.50 
   1  -5   3    7.91    0.33 
   1   5   3    6.49    0.56 
   1   5   3    7.62    0.44 
   1   5   3    8.12    0.42 
   1   5   3    7.83    0.45 
  -2  -5  -3   46.22    2.02 
  -2  -5  -3   47.87    1.93 
  -2  -5  -3   51.08    1.89 
  -2  -5  -3   46.47    1.88 
  -2  -5  -3   49.96    1.90 
  -2  -5  -3   50.55    1.98 
  -2  -5  -3   50.23    2.01 
   2   5   3   52.14    1.95 
   2   5   3   53.63    2.06 
   2   5   3   47.34    1.87 
  -3  -5  -3   64.07    2.33 
  -3  -5  -3   66.87    2.42 
  -3  -5  -3   62.76    2.46 
  -3  -5  -3   64.64    2.39 
  -3  -5  -3   63.26    2.42 
  -3  -5  -3   61.22    2.42 
  -3  -5  -3   67.55    2.33 
  -3  -5  -3   62.49    2.54 
  -3  -5  -3   66.89    2.43 
  -3  -5  -3   63.40    2.42 
  -3  -5  -3   66.26    2.35 
   3   5   3   63.46    2.36 
   3   5   3   67.17    2.33 
   3   5   3   67.03    2.50 
   3   5   3   67.26    2.46 
   3   5   3   63.04    2.57 
   3   5   3   69.54    2.37 
   3   5   3   65.92    2.41 
   3   5   3   70.41    2.52 
   3   5   3   67.99    2.41 
   3   5   3   61.56    2.37 
   3   5   3   61.47    2.27 
   3   5   3   61.34    2.38 
  -4  -5  -3   57.28    2.04 
  -4  -5  -3   53.95    1.98 
  -4  -5  -3   55.27    2.08 
  -4  -5  -3   57.26    2.10 
  -4  -5  -3   55.92    2.12 
   4   5   3   50.53    2.04 
   4   5   3   59.72    2.04 
   4   5   3   56.61    2.15 
   4   5   3   55.08    2.09 
   4   5   3   61.08    2.12 
   4   5   3   55.80    2.07 
   4   5   3   55.79    2.18 
   4   5   3   58.25    2.11 
  -5  -5  -3    2.22    0.17 
  -5  -5  -3    2.30    0.22 
  -5  -5  -3    2.16    0.48 
  -5  -5  -3    2.16    0.23 
  -5  -5  -3    2.24    0.11 
  -5  -5  -3    2.33    0.23 
  -5  -5  -3    2.30    0.23 
   5   5   3    2.28    0.22 
   5   5   3    2.23    0.21 
   5   5   3    2.56    0.24 
   5   5   3    2.09    0.25 
   5   5   3    1.97    0.19 
   5   5   3    2.34    0.30 
   5   5   3    2.87    0.28 
  -6  -5  -3    9.81    0.45 
  -6  -5  -3   10.16    0.43 
  -6  -5  -3   10.58    0.44 
  -6  -5  -3   10.04    0.51 
   6   5   3   11.16    0.43 
   6   5   3   10.55    0.45 
   6   5   3   12.71    0.47 
   6   5   3   10.82    0.51 
  -6  -6   3   21.86    0.86 
  -6  -6   3   22.89    0.79 
  -6  -6   3   21.54    0.80 
  -6  -6   3   22.95    0.85 
  -6   6   3   21.40    0.76 
  -6   6   3   21.99    0.76 
   6   6  -3   20.77    0.78 
   6   6  -3   23.07    0.83 
  -6   6   3   22.75    0.79 
   6   6  -3   22.40    0.81 
   6   6  -3   19.65    0.87 
  -5  -6   3    2.12    0.18 
  -5  -6   3    2.33    0.17 
  -5  -6   3    2.26    0.21 
  -5  -6   3    2.49    0.17 
  -5  -6   3    2.30    0.22 
  -5   6   3    2.25    0.17 
   5   6  -3    2.42    0.21 
   5   6  -3    2.54    0.26 
   5   6  -3    2.37    0.18 
   5   6  -3    2.74    0.14 
  -5   6   3    2.48    0.14 
   5   6  -3    2.31    0.20 
   5   6  -3    2.71    0.20 
  -5   6   3    2.49    0.14 
  -5   6   3    2.42    0.15 
   5   6  -3    2.52    0.15 
   5   6  -3    2.35    0.15 
   5   6  -3    3.25    0.20 
   5   6  -3    2.38    0.16 
   5   6  -3    2.20    0.19 
   5   6  -3    2.67    0.19 
   5   6  -3    2.42    0.15 
  -5   6   3    2.40    0.15 
  -4  -6   3    2.30    0.30 
  -4  -6   3    1.89    0.18 
  -4  -6   3    2.69    0.20 
  -4  -6   3    2.16    0.23 
  -4  -6   3    2.22    0.24 
   4   6  -3    2.26    0.15 
   4   6  -3    2.24    0.19 
   4   6  -3    2.05    0.24 
   4   6  -3    2.04    0.21 
   4   6  -3    2.27    0.19 
  -4   6   3    1.86    0.16 
  -4   6   3    2.26    0.15 
   4   6  -3    2.21    0.18 
   4   6  -3    1.94    0.15 
   4   6  -3    1.98    0.14 
  -4   6   3    1.84    0.19 
  -4   6   3    2.15    0.16 
  -4   6   3    2.00    0.17 
  -4   6   3    2.14    0.17 
   4   6  -3    2.29    0.21 
   4   6  -3    2.43    0.21 
   4   6  -3    2.04    0.17 
  -4   6   3    2.17    0.13 
   4   6  -3    1.99    0.23 
   4   6  -3    1.85    0.25 
   4   6  -3    2.42    0.19 
   4   6  -3    1.99    0.21 
  -4   6   3    2.22    0.15 
  -3  -6   3    5.00    0.33 
  -3  -6   3    4.00    0.33 
  -3  -6   3    4.00    0.33 
  -3  -6   3    4.33    0.32 
  -3  -6   3    3.62    0.36 
  -3  -6   3    4.53    0.27 
   3   6  -3    5.26    0.28 
  -3   6   3    4.98    0.25 
   3   6  -3    4.59    0.27 
   3   6  -3    5.32    0.31 
   3   6  -3    5.08    0.31 
  -3   6   3    4.92    0.25 
   3   6  -3    4.85    0.24 
   3   6  -3    5.05    0.26 
   3   6  -3    4.64    0.31 
  -3   6   3    4.67    0.28 
  -3   6   3    4.92    0.26 
   3   6  -3    4.82    0.30 
   3   6  -3    4.64    0.28 
  -3   6   3    4.67    0.22 
  -3   6   3    4.72    0.28 
  -3   6   3    5.07    0.33 
   3   6  -3    4.72    0.28 
  -3   6   3    5.11    0.28 
   3   6  -3    4.92    0.35 
   2  -6  -3   31.41    1.23 
   2  -6  -3   31.93    1.25 
  -2  -6   3   30.32    1.22 
  -2   6   3   31.29    1.20 
  -2   6   3   30.61    1.13 
  -2   6   3   31.57    1.12 
  -2   6   3   31.45    1.25 
   2   6  -3   31.39    1.13 
  -2   6   3   33.06    1.21 
   2   6  -3   31.09    1.19 
   2   6  -3   28.93    1.23 
  -2   6   3   28.48    1.82 
   2   6  -3   31.90    1.17 
   2   6  -3   32.30    1.20 
   2   6  -3   34.07    1.23 
   2   6  -3   30.53    1.19 
  -2   6   3   31.05    1.17 
   2   6  -3   30.65    1.17 
  -2   6   3   30.21    1.17 
  -2   6   3   32.46    1.17 
  -2   6   3   32.14    1.16 
   2   6  -3   29.28    1.56 
  -2   6   3   33.03    1.20 
  -2   6   3   30.98    1.18 
   2   6  -3   30.72    1.16 
  -2   6   3   32.49    1.26 
  -1  -6   3  110.90    3.82 
   1  -6  -3  112.61    3.91 
   1  -6  -3  103.67    3.97 
   1  -6  -3  102.22    3.84 
   1  -6  -3  110.09    3.85 
   1   6  -3  103.16    3.76 
  -1   6   3  105.87    3.82 
  -1   6   3  108.47    3.80 
   1   6  -3  111.91    3.79 
  -1   6   3  107.79    3.87 
   1   6  -3  110.58    3.76 
  -1   6   3  101.56    3.88 
  -1   6   3  105.40    3.78 
   1   6  -3  105.40    3.72 
   1   6  -3  105.63    3.78 
   1   6  -3  106.90    3.78 
  -1   6   3  107.44    3.80 
   1   6  -3  110.58    3.81 
  -1   6   3  106.86    3.83 
  -1   6   3  111.64    3.75 
  -1   6   3  111.17    3.83 
  -1   6   3  110.85    3.79 
  -1   6   3  105.98    3.75 
  -1   6   3  105.10    3.79 
   1   6  -3  105.57    3.75 
   0  -6  -3    0.30    0.15 
   0  -6  -3    0.17    0.10 
   0  -6  -3    0.16    0.09 
   0  -6  -3    0.21    0.14 
   0  -6  -3   -0.01    0.16 
   0  -6  -3    0.01    0.15 
   0  -6  -3    0.16    0.15 
   0   6  -3    0.22    0.07 
   0   6   3    0.20    0.12 
   0   6   3    0.24    0.14 
   0   6   3    0.14    0.12 
   0   6   3    0.19    0.12 
   0   6   3    0.17    0.10 
   0   6   3    0.53    0.17 
   0   6   3    0.27    0.09 
   0   6   3    0.18    0.16 
   0   6  -3    0.28    0.09 
   0   6   3    0.28    0.14 
   0   6   3    0.09    0.10 
   0   6   3    0.15    0.14 
   0   6   3    0.21    0.08 
   0   6  -3    0.16    0.05 
   0   6   3    0.11    0.07 
   0   6  -3    0.19    0.06 
   0   6   3    0.15    0.08 
   0   6   3    0.17    0.08 
   0   6   3    0.30    0.11 
   0   6   3    0.25    0.10 
   0   6   3    0.38    0.12 
   0   6   3    0.24    0.10 
  -1  -6  -3  104.54    3.80 
  -1  -6  -3  106.41    3.70 
  -1  -6  -3   87.01    3.76 
  -1  -6  -3  103.40    3.68 
  -1  -6  -3  107.93    3.74 
  -1  -6  -3  100.30    3.61 
  -1  -6  -3  103.18    3.61 
  -1  -6  -3  104.62    3.68 
   1   6   3   97.59    3.65 
   1   6   3  101.05    3.61 
   1   6   3  104.14    3.67 
   1   6   3  101.30    3.60 
   1   6   3  102.41    3.55 
   1   6   3  104.70    3.59 
   1   6   3  101.72    3.64 
   1   6   3  101.82    3.65 
   1   6   3  104.29    3.62 
   1   6   3   98.32    3.57 
   1   6   3  102.47    3.70 
   1   6   3  100.95    3.64 
   1   6   3  104.53    3.68 
   1   6   3  106.02    3.59 
   1   6   3   98.34    3.65 
   1   6   3   99.89    3.58 
   1   6   3  102.50    3.62 
   1   6   3  101.89    3.76 
  -2  -6  -3    4.88    0.37 
  -2  -6  -3    4.60    0.34 
  -2  -6  -3    5.14    0.35 
  -2  -6  -3    4.14    0.40 
  -2  -6  -3    4.38    0.27 
  -2  -6  -3    4.56    0.28 
   2   6   3    4.67    0.31 
   2   6   3    4.61    0.34 
   2   6   3    4.51    0.27 
   2   6   3    4.55    0.31 
   2   6   3    4.56    0.22 
   2   6   3    4.83    0.26 
   2   6   3    4.58    0.21 
   2   6   3    4.41    0.30 
   2   6   3    4.65    0.39 
   2   6   3    4.51    0.35 
   2   6   3    5.21    0.31 
   2   6   3    4.48    0.32 
   2   6   3    4.36    0.27 
  -3  -6  -3   19.54    0.84 
  -3  -6  -3   17.80    0.82 
  -3  -6  -3   19.41    0.74 
  -3  -6  -3   19.74    0.91 
  -3  -6  -3   18.12    0.76 
  -3  -6  -3   19.45    0.87 
  -3  -6  -3   18.80    0.75 
  -3  -6  -3   18.33    0.80 
   3   6   3   18.44    0.77 
   3   6   3   19.14    0.85 
   3   6   3   19.20    0.75 
   3   6   3   19.19    0.81 
   3   6   3   19.12    0.79 
   3   6   3   20.12    0.92 
   3   6   3   18.62    0.80 
   3   6   3   18.83    0.72 
   3   6   3   19.53    0.78 
   3   6   3   19.38    0.70 
   3   6   3   19.35    0.84 
   3   6   3   19.58    0.77 
   3   6   3   18.78    0.76 
  -4  -6  -3   11.66    0.56 
  -4  -6  -3   12.48    0.55 
  -4  -6  -3   12.16    0.51 
  -4  -6  -3   11.87    0.47 
  -4  -6  -3   13.39    0.59 
   4   6   3   12.15    0.47 
   4   6   3   12.07    0.54 
   4   6   3   13.21    0.56 
   4   6   3   11.95    0.58 
   4   6   3   12.81    0.52 
   4   6   3   11.15    0.55 
   4   6   3   12.66    0.51 
   4   6   3   12.31    0.54 
   4   6   3   12.80    0.52 
   4   6   3   12.59    0.60 
   4   6   3   13.47    0.53 
  -5  -6  -3    8.30    0.37 
  -5  -6  -3    7.88    0.36 
  -5  -6  -3    8.56    0.34 
  -5  -6  -3    8.20    0.36 
   5   6   3    8.64    0.41 
   5   6   3    8.23    0.36 
   5   6   3    8.35    0.37 
   5   6   3    8.25    0.35 
   5   6   3    8.38    0.40 
   5   6   3    8.22    0.34 
   5   6   3    8.74    0.36 
  -4  -7   3    3.59    0.20 
  -4  -7   3    3.34    0.19 
   4   7  -3    3.45    0.16 
  -4   7   3    3.84    0.15 
   4   7  -3    3.17    0.21 
   4   7  -3    3.34    0.18 
   4   7  -3    3.81    0.21 
   4   7  -3    2.79    0.22 
  -4   7   3    3.52    0.19 
  -4   7   3    3.75    0.17 
   4   7  -3    3.68    0.16 
   4   7  -3    3.67    0.22 
   4   7  -3    3.46    0.25 
   4   7  -3    3.42    0.19 
  -3  -7   3    3.19    0.21 
  -3   7   3    3.20    0.15 
   3   7  -3    3.44    0.26 
   3   7  -3    3.45    0.21 
   3   7  -3    3.38    0.17 
   3   7  -3    3.37    0.20 
  -3   7   3    3.42    0.18 
   3   7  -3    3.64    0.22 
   3   7  -3    3.46    0.17 
  -3   7   3    3.39    0.19 
  -3   7   3    3.33    0.17 
  -3   7   3    3.30    0.19 
  -3   7   3    3.46    0.19 
   3   7  -3    3.61    0.20 
   3   7  -3    3.36    0.19 
   2   7  -3   14.49    0.64 
   2   7  -3   16.08    0.62 
   2   7  -3   15.48    0.60 
   2   7  -3   14.91    0.61 
   2   7  -3   15.71    0.59 
  -2   7   3   14.87    0.66 
  -2   7   3   15.35    0.63 
  -2   7   3   15.13    0.60 
  -2   7   3   15.16    0.60 
   2   7  -3   15.59    0.62 
  -2   7   3   16.46    0.58 
   2   7  -3   15.73    0.57 
  -2   7   3   15.53    0.61 
  -2   7   3   14.67    0.62 
   2   7  -3   16.03    0.61 
  -2   7   3   15.44    0.63 
   1  -7  -3    2.26    0.19 
  -1   7   3    2.62    0.24 
  -1   7   3    2.42    0.19 
   1   7  -3    2.54    0.16 
  -1   7   3    2.65    0.21 
  -1   7   3    2.46    0.15 
   1   7  -3    2.65    0.16 
  -1   7   3    2.41    0.22 
  -1   7   3    2.75    0.19 
  -1   7   3    2.63    0.21 
  -1   7   3    2.69    0.18 
  -1   7   3    2.53    0.20 
   1   7  -3    2.54    0.16 
   1   7  -3    2.32    0.14 
   0  -7  -3    9.58    0.44 
   0  -7  -3    8.05    0.54 
   0  -7  -3    9.21    0.49 
   0   7   3   10.30    0.47 
   0   7   3   10.07    0.51 
   0   7   3    9.88    0.44 
   0   7   3    9.59    0.46 
   0   7   3    9.56    0.44 
   0   7   3   10.36    0.40 
   0   7   3    9.48    0.43 
   0   7   3   10.45    0.47 
   0   7   3    9.49    0.39 
   0   7   3   10.01    0.43 
   0   7  -3   10.06    0.35 
   0   7  -3    9.43    0.35 
   0   7   3   10.79    0.51 
   0   7  -3    9.97    0.38 
   0   7   3    9.59    0.38 
  -1  -7  -3    8.72    0.45 
  -1  -7  -3    7.89    0.51 
  -1  -7  -3    8.18    0.38 
  -1  -7  -3    8.45    0.39 
   1   7   3    8.76    0.42 
   1   7   3    8.37    0.33 
   1   7   3    8.07    0.37 
   1   7   3    7.93    0.38 
   1   7   3    7.81    0.35 
   1   7   3    8.09    0.41 
   1   7   3    8.15    0.40 
   1   7   3    8.26    0.41 
   1   7   3    8.54    0.40 
   1   7   3    7.68    0.45 
   1   7   3    7.86    0.46 
   1   7   3    8.31    0.34 
   1   7   3    8.67    0.39 
  -2  -7  -3   12.81    0.53 
  -2  -7  -3   11.61    0.59 
  -2  -7  -3   13.59    0.54 
   2   7   3   11.40    0.51 
   2   7   3   13.69    0.57 
   2   7   3   13.53    0.57 
   2   7   3   13.97    0.58 
   2   7   3   13.26    0.51 
   2   7   3   13.47    0.50 
   2   7   3   13.72    0.51 
   2   7   3   13.14    0.55 
   2   7   3   13.85    0.49 
   2   7   3   13.42    0.51 
   2   7   3   13.16    0.53 
   2   7   3   12.69    0.63 
   2   7   3   12.77    0.54 
  -3  -7  -3    9.53    0.43 
  -3  -7  -3    8.67    0.36 
  -3  -7  -3    9.08    0.39 
  -3  -7  -3    9.38    0.38 
  -3  -7  -3    8.48    0.43 
   3   7   3    8.99    0.39 
   3   7   3    9.12    0.36 
   3   7   3    9.72    0.42 
   3   7   3    9.33    0.42 
   3   7   3    9.13    0.37 
   3   7   3    8.69    0.36 
   3   7   3    8.82    0.36 
   3   7   3    8.87    0.40 
   3   7   3    8.53    0.46 
   2   8  -3    9.47    0.34 
   2   8  -3    9.35    0.38 
   2   8  -3    9.59    0.35 
  -2   8   3    9.73    0.37 
   1  -8  -3    0.32    0.09 
  -1   8   3    0.25    0.06 
  -1   8   3    0.20    0.07 
  -1   8   3    0.35    0.06 
  -1   8   3    0.24    0.08 
  -1   8   3    0.25    0.05 
  -1   8   3    0.38    0.07 
   0  -8  -3    2.74    0.16 
   0  -8  -3    2.92    0.16 
   0   8   3    2.61    0.15 
   0   8   3    2.73    0.17 
   0   8   3    2.27    0.18 
   0   8   3    2.87    0.16 
   0   8   3    2.92    0.13 
   0   8   3    2.68    0.13 
  -1  -8  -3    4.92    0.23 
  -1  -8  -3    4.37    0.22 
   1   8   3    4.75    0.19 
   1   8   3    4.99    0.24 
   1   8   3    4.38    0.21 
   1   8   3    4.82    0.20 
   8   0  -4    0.37    0.10 
  -8   0   4    0.41    0.12 
   8   0  -4    0.20    0.10 
  -8   0   4    0.31    0.08 
  -8   0   4    0.38    0.15 
   8   0  -4    0.28    0.06 
  -8   0   4    0.15    0.08 
  -8   0   4    0.23    0.07 
  -8   0   4    0.43    0.14 
   8   0  -4    0.17    0.08 
  -8   0   4    0.28    0.10 
  -8   0   4    0.29    0.10 
  -8   0   4    0.51    0.11 
  -8   0   4    0.40    0.11 
  -7   0   4    7.60    0.36 
   7   0  -4    7.38    0.35 
   7   0  -4    8.06    0.39 
  -7   0   4    7.62    0.39 
   7   0  -4    7.37    0.42 
  -7   0   4    8.16    0.45 
  -7   0   4    7.59    0.38 
  -7   0   4    7.54    0.40 
   7   0  -4    6.66    0.48 
  -7   0   4    7.53    0.38 
  -7   0   4    7.44    0.38 
  -7   0   4    7.75    0.46 
   7   0  -4    7.96    0.44 
   7   0  -4    7.46    0.46 
   7   0  -4    7.10    0.36 
  -6   0   4    0.30    0.10 
   6   0  -4    0.12    0.16 
   6   0  -4    0.27    0.14 
   6   0  -4    0.16    0.14 
  -6   0   4    0.37    0.13 
  -6   0   4    0.41    0.14 
  -6   0   4    0.27    0.13 
   6   0  -4    0.52    0.19 
   6   0  -4    0.24    0.18 
   6   0  -4    0.24    0.15 
  -6   0   4    0.61    0.20 
  -6   0   4    0.63    0.15 
   5   0  -4    2.91    0.27 
   5   0  -4    2.79    0.32 
   5   0  -4    3.18    0.32 
   5   0  -4    3.30    0.28 
   5   0  -4    3.24    0.27 
   5   0  -4    2.98    0.29 
  -5   0   4    3.12    0.25 
  -5   0   4    2.98    0.29 
   5   0  -4    2.57    0.32 
  -5   0   4    2.76    0.25 
   5   0  -4    2.95    0.53 
  -5   0   4    3.22    0.30 
  -5   0   4    3.28    0.26 
   5   0  -4    3.19    0.26 
   4   0  -4   25.82    1.11 
   4   0  -4   26.34    1.03 
   4   0  -4   24.96    1.40 
  -4   0   4   26.60    1.09 
   4   0  -4   25.73    1.06 
   4   0  -4   25.05    1.11 
  -4   0   4   26.41    0.99 
  -4   0   4   25.53    1.01 
   4   0  -4   25.26    1.10 
   4   0  -4   25.79    1.03 
   4   0  -4   26.19    1.02 
  -4   0   4   21.93    1.04 
   4   0  -4   25.96    1.11 
   4   0  -4   26.50    1.08 
  -4   0   4   25.00    1.03 
  -4   0   4   26.11    1.03 
  -4   0   4   26.94    1.08 
   4   0  -4   25.43    1.06 
   3   0  -4   11.52    0.51 
  -3   0   4   11.26    0.56 
   3   0  -4   11.66    0.53 
  -3   0   4   11.25    0.82 
   3   0  -4   11.32    0.51 
  -3   0   4   11.53    0.55 
  -3   0   4   11.31    0.51 
   3   0  -4   10.95    0.50 
  -3   0   4   11.09    0.59 
   3   0  -4   11.41    0.57 
  -3   0   4   11.48    0.52 
  -3   0   4   11.88    0.55 
  -3   0   4   11.08    0.51 
   3   0  -4   11.08    0.56 
  -3   0   4   11.77    0.50 
  -3   0   4   11.93    0.57 
   3   0  -4   12.07    0.56 
   3   0  -4   11.12    0.51 
   3   0  -4   11.84    0.79 
   3   0  -4   11.48    0.57 
   3   0  -4   11.64    0.58 
   2   0  -4   12.06    0.54 
  -2   0   4   11.17    0.54 
   2   0  -4   11.67    0.51 
  -2   0   4   12.30    0.54 
   2   0  -4   11.13    0.58 
  -2   0   4   12.21    0.79 
   2   0  -4   11.61    0.52 
   2   0  -4   10.88    0.73 
  -2   0   4   11.76    0.58 
   2   0  -4   11.67    0.49 
  -2   0   4   11.15    0.49 
  -2   0   4   12.12    0.54 
   1   0  -4    3.27    0.22 
   1   0  -4    3.50    0.23 
  -1   0   4    4.32    0.25 
  -1   0   4    3.47    0.42 
  -1   0   4    4.04    0.25 
  -1   0   4    3.51    0.27 
  -1   0   4    3.31    0.28 
   1   0  -4    4.18    0.29 
   1   0  -4    3.62    0.22 
  -1   0   4    3.51    0.24 
  -1   0   4    3.22    0.25 
   0   0   4    0.02    0.13 
   0   0   4    0.10    0.08 
   0   0   4    0.04    0.07 
   0   0   4    0.05    0.09 
   0   0  -4    0.13    0.11 
   0   0   4    0.11    0.09 
   0   0   4    0.06    0.07 
   0   0  -4   -0.02    0.06 
   0   0   4   -0.04    0.05 
   1   0   4    7.29    0.38 
   1   0   4    7.69    0.42 
  -1   0  -4    7.04    0.41 
  -1   0  -4    7.55    0.34 
   1   0   4    7.39    0.44 
   1   0   4    7.46    0.34 
   1   0   4    7.65    0.59 
   1   0   4    7.86    0.36 
   1   0   4    7.64    0.39 
   1   0   4    7.35    0.38 
   1   0   4    7.84    0.42 
   2   0   4  132.99    4.72 
  -2   0  -4  125.88    4.63 
   2   0   4  127.14    4.64 
  -2   0  -4  137.16    4.75 
   2   0   4  138.06    4.71 
   2   0   4  131.97    4.72 
   2   0   4  131.00    4.61 
   2   0   4  138.33    4.64 
  -2   0  -4  136.29    4.60 
   2   0   4  140.26    5.08 
   2   0   4  110.50    4.69 
  -3   0  -4    4.28    0.27 
   3   0   4    4.33    0.30 
   3   0   4    4.41    0.29 
   3   0   4    4.44    0.33 
   3   0   4    4.03    0.51 
   3   0   4    4.35    0.28 
   3   0   4    3.82    0.33 
  -3   0  -4    4.53    0.26 
   3   0   4    4.36    0.33 
  -3   0  -4    4.03    0.43 
  -3   0  -4    4.54    0.36 
   3   0   4    4.49    0.26 
  -3   0  -4    4.09    0.26 
  -4   0  -4   24.32    1.15 
  -4   0  -4   25.70    1.01 
   4   0   4   25.72    1.12 
   4   0   4   21.29    1.40 
   4   0   4   25.48    1.13 
   4   0   4   24.37    1.24 
  -4   0  -4   25.65    0.94 
   4   0   4   25.59    1.07 
  -4   0  -4   24.99    1.00 
   4   0   4   25.10    1.01 
   4   0   4   25.40    1.03 
  -4   0  -4   26.74    1.01 
  -5   0  -4    1.84    0.18 
  -5   0  -4    1.71    0.21 
  -5   0  -4    1.68    0.19 
  -5   0  -4    1.29    0.22 
  -5   0  -4    1.75    0.19 
   5   0   4    1.60    0.18 
  -5   0  -4    1.52    0.17 
   5   0   4    1.63    0.22 
   5   0   4    1.89    0.21 
  -5   0  -4    1.67    0.20 
  -5   0  -4    1.60    0.16 
  -5   0  -4    1.58    0.15 
  -5   0  -4    1.84    0.17 
  -5   0  -4    1.36    0.19 
   5   0   4    1.56    0.28 
  -5   0  -4    1.62    0.19 
   5   0   4    1.89    0.27 
  -5   0  -4    1.86    0.18 
   5   0   4    1.66    0.23 
  -5   0  -4    1.77    0.18 
   6   0   4    4.70    0.28 
   6   0   4    4.18    0.34 
  -6   0  -4    4.41    0.21 
  -6   0  -4    4.34    0.25 
  -6   0  -4    4.87    0.22 
  -6   0  -4    4.19    0.29 
  -6   0  -4    4.60    0.26 
  -6   0  -4    4.25    0.24 
  -6   0  -4    4.51    0.22 
  -6   0  -4    4.24    0.29 
   6   0   4    4.66    0.34 
  -6   0  -4    4.64    0.28 
  -7   0  -4    1.92    0.14 
  -7   0  -4    2.02    0.12 
  -7   0  -4    2.12    0.16 
   7   0   4    1.98    0.15 
  -7   0  -4    1.79    0.11 
   7   0   4    1.74    0.15 
  -7   0  -4    1.76    0.16 
  -8  -1   4    2.26    0.12 
  -8  -1   4    2.16    0.17 
   8  -1  -4    2.22    0.20 
  -8  -1   4    2.13    0.21 
  -8  -1   4    2.48    0.16 
   8  -1  -4    2.20    0.18 
   8  -1  -4    2.19    0.15 
   8  -1  -4    2.21    0.15 
  -8  -1   4    2.09    0.17 
  -8  -1   4    1.75    0.19 
   8  -1  -4    2.22    0.21 
  -8  -1   4    2.11    0.17 
  -8  -1   4    2.32    0.17 
  -8  -1   4    2.11    0.21 
  -8   1   4    2.28    0.16 
   8   1  -4    2.32    0.12 
  -8   1   4    2.07    0.17 
   8   1  -4    2.14    0.18 
  -8   1   4    2.25    0.13 
  -8   1   4    2.26    0.17 
   8   1  -4    2.27    0.20 
  -8   1   4    2.22    0.13 
  -8   1   4    2.15    0.14 
   8   1  -4    2.20    0.17 
   8   1  -4    2.22    0.22 
  -8   1   4    2.13    0.15 
  -8   1   4    2.34    0.18 
  -8   1   4    1.72    0.17 
  -8   1   4    2.03    0.21 
   8   1  -4    2.01    0.21 
   8   1  -4    2.41    0.21 
  -7  -1   4    3.25    0.25 
  -7  -1   4    3.07    0.22 
   7  -1  -4    3.38    0.30 
  -7  -1   4    3.19    0.33 
   7  -1  -4    3.12    0.28 
   7  -1  -4    3.27    0.22 
   7  -1  -4    3.09    0.25 
  -7  -1   4    3.63    0.25 
  -7  -1   4    3.11    0.24 
   7  -1  -4    2.76    0.30 
  -7  -1   4    3.48    0.36 
   7  -1  -4    3.40    0.22 
  -7  -1   4    3.40    0.31 
  -7  -1   4    3.52    0.27 
   7  -1  -4    3.10    0.27 
  -7  -1   4    3.08    0.27 
   7   1  -4    2.90    0.18 
  -7   1   4    2.80    0.22 
  -7   1   4    3.01    0.30 
   7   1  -4    3.14    0.29 
  -7   1   4    2.94    0.27 
  -7   1   4    3.31    0.23 
  -7   1   4    2.84    0.27 
  -7   1   4    3.03    0.21 
   7   1  -4    3.20    0.27 
   7   1  -4    2.79    0.29 
  -7   1   4    3.09    0.22 
   7   1  -4    2.84    0.29 
  -7   1   4    2.89    0.22 
  -7   1   4    2.58    0.24 
  -7   1   4    3.40    0.23 
   7   1  -4    3.27    0.24 
  -6  -1   4   37.92    1.39 
   6  -1  -4   40.01    1.57 
   6  -1  -4   40.76    1.49 
  -6  -1   4   37.29    1.52 
  -6  -1   4   36.39    1.52 
  -6  -1   4   39.74    1.54 
  -6  -1   4   40.48    1.53 
  -6  -1   4   44.83    1.52 
   6  -1  -4   46.31    1.66 
  -6  -1   4   41.28    1.57 
  -6  -1   4   40.05    1.63 
   6  -1  -4   39.01    1.56 
   6  -1  -4   42.53    1.62 
  -6  -1   4   37.77    1.45 
  -6  -1   4   41.84    1.56 
  -6  -1   4   38.83    1.58 
   6  -1  -4   39.93    1.58 
  -6  -1   4   40.29    1.49 
   6  -1  -4   39.66    1.48 
   6   1  -4   37.10    1.66 
   6   1  -4   41.35    1.57 
  -6   1   4   37.72    1.49 
   6   1  -4   41.15    1.62 
  -6   1   4   36.89    1.55 
  -6   1   4   41.34    1.59 
  -6   1   4   39.09    1.47 
  -6   1   4   40.51    1.56 
   6   1  -4   37.66    1.68 
   6   1  -4   39.51    1.60 
   6   1  -4   39.08    1.48 
  -6   1   4   35.25    1.59 
  -6   1   4   39.43    1.49 
   6   1  -4   42.63    1.57 
  -6   1   4   38.42    1.61 
   6   1  -4   39.79    1.53 
  -6   1   4   38.84    1.54 
  -6   1   4   39.00    1.49 
  -6   1   4   39.69    1.49 
  -6   1   4   39.18    1.46 
  -6   1   4   38.87    1.57 
   5  -1  -4   14.74    0.71 
   5  -1  -4   13.88    0.64 
  -5  -1   4   14.13    0.66 
   5  -1  -4   14.22    0.68 
   5  -1  -4   13.25    0.66 
   5  -1  -4   14.15    0.66 
  -5  -1   4   14.37    0.63 
  -5  -1   4   14.17    0.63 
   5  -1  -4   13.40    1.04 
   5  -1  -4   14.61    0.76 
  -5  -1   4   14.67    0.74 
  -5  -1   4   15.03    0.67 
   5  -1  -4   14.25    0.76 
  -5  -1   4   14.81    0.72 
   5   1  -4   14.14    0.70 
  -5   1   4   13.96    0.84 
  -5   1   4   14.68    0.69 
  -5   1   4   13.83    0.62 
   5   1  -4   14.93    0.67 
  -5   1   4   13.50    0.63 
   5   1  -4   13.33    0.76 
   5   1  -4   14.23    0.75 
  -5   1   4   13.65    0.66 
  -5   1   4   13.40    0.65 
   5   1  -4   14.58    0.64 
   5   1  -4   13.13    0.77 
  -4  -1   4   71.05    2.64 
  -4  -1   4   69.06    2.63 
   4  -1  -4   71.22    2.67 
   4  -1  -4   67.43    2.57 
  -4  -1   4   67.86    2.55 
   4  -1  -4   70.58    2.61 
  -4  -1   4   71.72    2.64 
   4  -1  -4   70.89    2.57 
   4  -1  -4   71.73    2.59 
  -4  -1   4   72.66    2.56 
  -4  -1   4   69.54    2.58 
   4  -1  -4   74.72    2.68 
   4  -1  -4   71.20    2.56 
   4  -1  -4   74.01    3.06 
  -4  -1   4   72.07    2.70 
  -4  -1   4   66.34    2.61 
   4  -1  -4   71.63    2.68 
  -4  -1   4   67.49    2.57 
  -4  -1   4   71.51    2.59 
   4  -1  -4   69.05    2.63 
  -4  -1   4   63.92    3.03 
  -4  -1   4   69.19    2.65 
   4   1  -4   75.42    2.61 
  -4   1   4   69.71    2.58 
   4   1  -4   72.62    2.56 
   4   1  -4   72.53    2.63 
  -4   1   4   72.10    2.57 
  -4   1   4   72.00    2.61 
  -4   1   4   76.82    2.63 
  -4   1   4   69.51    2.77 
  -4   1   4   68.03    2.55 
   4   1  -4   66.35    2.63 
   4   1  -4   71.50    2.57 
   4   1  -4   69.41    2.66 
   3  -1  -4   24.29    1.04 
   3  -1  -4   24.45    0.96 
  -3  -1   4   24.81    1.34 
  -3  -1   4   24.54    0.96 
  -3  -1   4   24.85    0.98 
   3  -1  -4   26.92    1.05 
   3  -1  -4   25.39    1.04 
   3  -1  -4   24.14    0.96 
  -3  -1   4   23.91    0.96 
   3  -1  -4   22.71    0.98 
   3  -1  -4   24.31    1.30 
   3  -1  -4   24.66    0.97 
   3  -1  -4   24.21    0.98 
  -3  -1   4   23.84    1.05 
  -3  -1   4   25.56    1.02 
  -3  -1   4   23.39    1.00 
  -3  -1   4   23.78    1.02 
  -3  -1   4   24.80    0.97 
  -3   1   4   23.39    0.96 
  -3   1   4   25.57    1.14 
   3   1  -4   25.60    1.02 
   3   1  -4   24.80    0.98 
   3   1  -4   24.09    0.95 
  -3   1   4   24.02    0.96 
   3   1  -4   23.52    1.09 
   3   1  -4   24.85    1.02 
  -3   1   4   23.52    0.99 
   3   1  -4   24.06    0.93 
   3   1  -4   24.00    0.98 
  -3   1   4   24.37    1.00 
   3   1  -4   24.66    1.00 
  -3   1   4   23.98    0.98 
  -3   1   4   25.03    0.93 
   2  -1  -4  101.47    3.65 
  -2  -1   4  103.67    3.62 
  -2  -1   4  103.97    3.56 
   2  -1  -4   99.21    3.64 
   2  -1  -4  102.28    3.60 
  -2  -1   4  101.98    3.97 
   2  -1  -4  100.90    3.58 
  -2  -1   4  104.91    3.63 
  -2  -1   4  100.50    3.72 
  -2  -1   4  100.31    3.65 
  -2  -1   4  107.46    3.64 
  -2  -1   4  103.75    3.59 
  -2  -1   4  102.62    3.66 
   2  -1  -4  101.18    3.93 
   2  -1  -4  100.55    3.64 
  -2   1   4   98.90    3.98 
   2   1  -4   92.29    3.60 
  -2   1   4  103.51    3.62 
   2   1  -4   98.93    3.53 
  -2   1   4  101.39    3.56 
   2   1  -4   99.42    3.58 
  -2   1   4   96.23    3.58 
   2   1  -4  106.18    3.64 
   2   1  -4  106.07    3.71 
  -2   1   4  100.08    3.62 
   2   1  -4  106.30    3.61 
  -2   1   4   99.98    3.67 
  -2   1   4   94.75    3.61 
   2   1  -4  101.55    3.69 
  -2   1   4   99.87    3.63 
  -1  -1   4   14.06    0.66 
   1  -1  -4   12.74    0.80 
  -1  -1   4   13.63    0.62 
  -1  -1   4   14.88    0.85 
  -1  -1   4   13.90    0.61 
   1  -1  -4   13.93    0.61 
   1  -1  -4   13.26    0.57 
   1  -1  -4   14.43    0.62 
   1  -1  -4   14.78    0.61 
  -1  -1   4   13.98    0.57 
  -1  -1   4   13.37    0.59 
  -1  -1   4   13.90    0.60 
  -1  -1   4   13.41    0.63 
   1   1  -4   13.47    0.83 
  -1   1   4   13.89    0.61 
  -1   1   4   14.67    0.61 
  -1   1   4   13.74    0.57 
  -1   1   4   13.66    0.61 
  -1   1   4   13.74    0.65 
  -1   1   4   14.22    0.88 
   1   1  -4   14.84    0.60 
   1   1  -4   13.62    0.64 
   1   1  -4   13.67    0.56 
   0  -1   4  174.99    6.13 
   0  -1  -4  171.83    6.22 
   0  -1  -4  171.77    6.14 
   0  -1   4  177.50    6.35 
   0  -1   4  175.93    6.16 
   0  -1   4  174.77    6.41 
   0  -1   4  173.73    6.15 
   0  -1  -4  176.98    6.42 
   0  -1  -4  184.82    6.13 
   0  -1  -4  172.98    6.09 
   0  -1   4  177.10    6.12 
   0  -1   4  169.61    6.09 
   0   1   4  153.24    6.17 
   0   1   4  175.69    6.16 
   0   1   4  179.09    6.15 
   0   1   4  172.96    6.19 
   0   1  -4  176.64    6.12 
   0   1  -4  181.61    6.33 
   0   1  -4  177.04    6.16 
   0   1   4  173.38    6.15 
   0   1   4  182.47    6.53 
   0   1  -4  182.74    6.18 
  -1  -1  -4   17.22    0.69 
   1  -1   4   18.11    0.71 
   1  -1   4   16.48    0.72 
   1  -1   4   17.05    0.73 
   1  -1   4   16.98    0.67 
   1  -1   4   16.88    0.88 
  -1  -1  -4   16.99    0.73 
  -1  -1  -4   17.29    0.79 
   1  -1   4   15.32    0.64 
  -1  -1  -4   16.71    0.65 
   1  -1   4   17.47    0.70 
  -1  -1  -4   16.70    0.67 
   1  -1   4   17.34    0.93 
   1   1   4   15.60    0.83 
  -1   1  -4   16.56    0.74 
   1   1   4   16.96    0.70 
   1   1   4   16.09    0.76 
   1   1   4   17.06    0.73 
   1   1   4   16.22    0.67 
   1   1   4   18.03    0.74 
   1   1   4   17.69    0.75 
   1   1   4   17.87    1.03 
   2  -1   4   40.50    1.51 
  -2  -1  -4   38.03    1.48 
   2  -1   4   39.23    1.44 
   2  -1   4   36.90    1.49 
   2  -1   4   38.26    1.43 
   2  -1   4   40.40    1.49 
   2  -1   4   40.37    1.76 
  -2  -1  -4   37.83    1.44 
   2  -1   4   38.99    1.41 
   2  -1   4   38.02    1.70 
  -2  -1  -4   39.66    1.43 
  -2  -1  -4   39.23    1.58 
  -2   1  -4   37.82    1.36 
   2   1   4   38.16    1.53 
  -2   1  -4   38.64    1.36 
   2   1   4   37.00    1.46 
  -2   1  -4   39.09    1.72 
  -2   1  -4   39.42    1.52 
   2   1   4   38.50    1.43 
   2   1   4   40.29    1.56 
   2   1   4   37.53    1.86 
  -3  -1  -4   56.67    2.25 
  -3  -1  -4   58.95    2.27 
   3  -1   4   60.18    2.34 
  -3  -1  -4   63.97    2.33 
   3  -1   4   63.51    2.25 
   3  -1   4   63.55    2.36 
  -3  -1  -4   64.61    2.46 
   3  -1   4   64.40    2.29 
  -3   1  -4   63.56    2.24 
   3   1   4   59.26    2.27 
   3   1   4   62.66    2.40 
  -3   1  -4   60.52    2.23 
  -3   1  -4   64.12    2.38 
   3   1   4   59.23    2.34 
  -3   1  -4   63.88    2.80 
  -3   1  -4   62.58    2.25 
   3   1   4   63.37    2.84 
   3   1   4   68.07    2.43 
   3   1   4   64.57    2.31 
  -4  -1  -4   13.23    0.60 
   4  -1   4   12.51    0.67 
   4  -1   4   13.20    0.62 
   4  -1   4   13.47    0.58 
  -4  -1  -4   11.42    0.73 
  -4   1  -4   12.67    0.68 
  -4   1  -4   12.94    0.57 
   4   1   4   12.40    0.71 
   4   1   4   12.98    0.62 
   4   1   4   12.37    0.59 
   4   1   4   11.04    0.99 
   4   1   4   13.94    0.73 
  -4   1  -4   11.85    1.10 
  -4   1  -4   13.57    0.55 
   4   1   4   12.48    0.62 
   4   1   4   13.94    0.68 
  -4   1  -4   13.01    0.54 
  -5  -1  -4   40.37    1.41 
  -5  -1  -4   42.01    1.64 
  -5  -1  -4   39.76    1.47 
  -5  -1  -4   40.05    1.53 
  -5  -1  -4   38.89    1.54 
  -5  -1  -4   38.36    1.44 
  -5  -1  -4   39.14    1.48 
   5  -1   4   40.98    1.53 
  -5  -1  -4   37.56    1.50 
  -5  -1  -4   39.06    1.46 
  -5  -1  -4   39.19    1.49 
  -5  -1  -4   39.33    1.55 
  -5  -1  -4   39.89    1.51 
  -5  -1  -4   38.53    1.42 
  -5  -1  -4   39.63    1.48 
  -5  -1  -4   39.03    1.54 
  -5  -1  -4   39.48    1.49 
  -5  -1  -4   40.28    1.55 
  -5  -1  -4   37.88    1.56 
  -5  -1  -4   38.94    1.47 
   5   1   4   40.69    1.58 
  -5   1  -4   42.54    1.44 
  -5   1  -4   42.67    2.02 
  -5   1  -4   40.16    1.49 
  -5   1  -4   39.89    1.86 
  -5   1  -4   40.07    1.47 
  -5   1  -4   39.45    1.45 
   5   1   4   39.59    1.49 
  -5   1  -4   41.50    1.52 
   5   1   4   36.47    1.67 
   5   1   4   39.91    1.49 
   5   1   4   38.34    1.57 
  -5   1  -4   41.22    1.50 
  -5   1  -4   41.81    1.48 
  -5   1  -4   41.39    1.46 
  -5   1  -4   40.57    1.43 
   5   1   4   43.18    1.65 
  -6  -1  -4   40.03    1.48 
  -6  -1  -4   40.74    1.55 
  -6  -1  -4   42.22    1.56 
  -6  -1  -4   41.22    1.49 
  -6  -1  -4   42.41    1.56 
  -6  -1  -4   42.73    1.46 
  -6  -1  -4   40.03    1.50 
  -6  -1  -4   37.11    1.47 
  -6  -1  -4   42.46    1.54 
  -6  -1  -4   41.83    1.52 
  -6  -1  -4   42.73    1.49 
  -6  -1  -4   40.83    1.53 
  -6  -1  -4   39.75    1.50 
   6   1   4   39.85    1.64 
  -6   1  -4   40.85    1.52 
  -6   1  -4   41.61    1.52 
   6   1   4   40.47    1.52 
   6   1   4   42.33    1.61 
  -6   1  -4   40.95    1.49 
  -6   1  -4   41.11    1.54 
   6   1   4   42.65    1.53 
  -6   1  -4   42.21    1.46 
  -7  -1  -4    7.19    0.27 
  -7  -1  -4    6.70    0.28 
  -7  -1  -4    7.05    0.30 
  -7  -1  -4    6.98    0.33 
   7  -1   4    7.11    0.31 
  -7  -1  -4    7.32    0.32 
  -7   1  -4    6.78    0.27 
  -7   1  -4    6.76    0.30 
   7   1   4    6.24    0.31 
   7   1   4    6.59    0.31 
  -7   1  -4    6.44    0.30 
  -7   1  -4    6.99    0.27 
  -7   1  -4    7.19    0.29 
  -8  -2   4    4.08    0.28 
  -8  -2   4    4.33    0.85 
  -8  -2   4    4.35    0.23 
   8  -2  -4    4.02    0.21 
  -8  -2   4    4.34    0.27 
   8  -2  -4    4.21    0.22 
  -8  -2   4    4.15    0.22 
  -8  -2   4    4.35    0.25 
  -8  -2   4    4.03    0.24 
  -8  -2   4    3.82    0.20 
  -8  -2   4    4.51    0.24 
  -8   2   4    4.39    0.21 
   8   2  -4    3.89    0.24 
  -8   2   4    4.15    0.23 
   8   2  -4    4.24    0.17 
   8   2  -4    4.39    0.25 
  -8   2   4    4.02    0.21 
   8   2  -4    4.42    0.22 
   8   2  -4    4.89    0.26 
   8   2  -4    4.52    0.26 
  -8   2   4    4.23    0.21 
  -8   2   4    4.10    0.19 
  -8   2   4    3.94    0.25 
   8   2  -4    3.96    0.26 
   8   2  -4    4.97    0.26 
   7  -2  -4   27.19    1.08 
  -7  -2   4   24.87    1.01 
  -7  -2   4   25.73    1.35 
  -7  -2   4   25.49    1.00 
  -7  -2   4   27.58    1.03 
   7  -2  -4   28.07    1.14 
   7  -2  -4   27.23    1.00 
  -7  -2   4   26.07    1.12 
   7  -2  -4   26.42    1.00 
  -7  -2   4   25.76    1.04 
  -7  -2   4   25.16    1.03 
   7   2  -4   26.40    0.98 
  -7   2   4   26.27    1.02 
   7   2  -4   25.66    1.05 
   7   2  -4   25.44    1.89 
   7   2  -4   26.00    0.92 
   7   2  -4   23.80    0.94 
  -7   2   4   26.01    1.02 
  -7   2   4   24.72    0.95 
  -7   2   4   26.98    1.10 
  -7   2   4   25.32    1.00 
  -7   2   4   24.49    0.96 
  -7   2   4   25.68    0.99 
   7   2  -4   27.21    1.07 
   7   2  -4   24.65    0.99 
  -7   2   4   26.50    1.02 
  -7   2   4   26.12    0.99 
  -7   2   4   25.15    0.97 
  -7   2   4   24.96    0.98 
   7   2  -4   25.37    1.04 
  -7   2   4   26.28    0.98 
   7   2  -4   25.85    1.03 
   7   2  -4   26.76    1.05 
  -7   2   4   26.44    0.96 
  -7   2   4   24.84    0.95 
  -7   2   4   27.29    1.02 
  -6  -2   4   71.23    2.54 
  -6  -2   4   69.38    2.61 
   6  -2  -4   70.20    2.53 
  -6  -2   4   73.18    2.59 
   6  -2  -4   73.62    2.63 
  -6  -2   4   72.47    2.71 
  -6  -2   4   67.68    2.51 
  -6  -2   4   65.26    2.54 
  -6  -2   4   71.53    2.58 
  -6  -2   4   67.23    2.66 
   6  -2  -4   75.06    2.67 
   6  -2  -4   66.91    2.60 
  -6  -2   4   69.37    2.58 
  -6  -2   4   72.02    2.57 
  -6  -2   4   70.21    2.59 
  -6  -2   4   74.52    2.64 
   6  -2  -4   70.59    2.53 
   6   2  -4   74.09    2.67 
  -6   2   4   71.33    2.50 
  -6   2   4   71.84    2.51 
   6   2  -4   73.02    2.62 
   6   2  -4   71.17    2.46 
   6   2  -4   70.55    2.59 
   6   2  -4   68.54    2.53 
   6   2  -4   63.62    2.70 
  -6   2   4   69.65    2.56 
  -6   2   4   68.37    2.57 
  -6   2   4   69.24    2.54 
   6   2  -4   74.05    2.61 
  -6   2   4   71.61    2.52 
   6   2  -4   70.42    2.57 
  -6   2   4   71.31    2.52 
  -6   2   4   71.68    2.58 
  -6   2   4   66.31    2.53 
  -6   2   4   72.20    2.66 
  -6   2   4   70.81    2.56 
  -6   2   4   69.53    2.44 
   6   2  -4   68.65    2.51 
  -6   2   4   68.43    2.51 
  -6   2   4   72.96    2.52 
  -6   2   4   69.89    2.62 
  -6   2   4   68.54    2.50 
  -6   2   4   70.06    2.48 
   6   2  -4   69.15    2.60 
   6   2  -4   67.63    2.59 
  -6   2   4   71.37    2.59 
   5  -2  -4   10.12    0.56 
  -5  -2   4   10.41    0.53 
  -5  -2   4   10.14    0.46 
  -5  -2   4    8.32    0.86 
   5  -2  -4   10.01    0.52 
  -5  -2   4    9.69    0.50 
   5  -2  -4    9.45    0.52 
  -5  -2   4    9.60    0.50 
  -5  -2   4    9.67    0.57 
  -5  -2   4   10.49    0.61 
  -5  -2   4   10.06    0.62 
   5  -2  -4   10.09    0.61 
  -5  -2   4    9.51    0.55 
   5  -2  -4   10.41    0.61 
   5  -2  -4    9.34    0.49 
  -5  -2   4   10.06    0.53 
   5  -2  -4    9.80    0.50 
  -5  -2   4   10.80    0.51 
  -5  -2   4   11.01    0.54 
  -5   2   4   10.06    0.69 
   5   2  -4    9.71    0.59 
  -5   2   4   10.53    0.53 
  -5   2   4    9.94    0.52 
   5   2  -4   10.00    0.54 
  -5   2   4    9.78    0.48 
   5   2  -4   10.03    0.51 
  -5   2   4   10.67    0.50 
  -4  -2   4    1.66    0.18 
  -4  -2   4    1.37    0.24 
   4  -2  -4    1.73    0.18 
  -4  -2   4    1.31    0.21 
  -4  -2   4    1.33    0.41 
   4  -2  -4    1.76    0.39 
  -4  -2   4    1.23    0.18 
  -4  -2   4    1.40    0.19 
   4  -2  -4    1.25    0.20 
   4  -2  -4    1.27    0.23 
  -4  -2   4    1.43    0.19 
  -4  -2   4    1.35    0.21 
   4  -2  -4    1.48    0.22 
   4  -2  -4    1.40    0.19 
   4  -2  -4    1.25    0.19 
   4  -2  -4    1.51    0.24 
  -4  -2   4    1.62    0.19 
  -4  -2   4    1.32    0.22 
   4   2  -4    1.56    0.24 
  -4   2   4    1.87    0.21 
  -4   2   4    1.36    0.46 
  -4   2   4    1.41    0.17 
   4   2  -4    1.42    0.20 
  -4   2   4    1.33    0.18 
  -4   2   4    1.51    0.19 
  -4   2   4    1.30    0.17 
   4   2  -4    1.86    0.23 
  -4   2   4    1.67    0.31 
   4   2  -4    1.61    0.18 
  -3  -2   4   53.10    1.97 
  -3  -2   4   50.79    1.93 
   3  -2  -4   49.07    1.91 
  -3  -2   4   51.19    1.99 
   3  -2  -4   51.74    2.31 
  -3  -2   4   52.12    1.95 
   3  -2  -4   48.58    1.86 
   3  -2  -4   51.20    1.97 
   3  -2  -4   51.44    1.97 
   3  -2  -4   52.41    1.89 
  -3  -2   4   49.58    1.89 
   3  -2  -4   51.47    1.97 
  -3  -2   4   47.48    1.85 
  -3  -2   4   52.14    1.89 
  -3  -2   4   52.96    2.34 
   3   2  -4   50.09    1.93 
  -3   2   4   48.70    1.87 
   3   2  -4   49.69    2.03 
   3   2  -4   52.56    1.89 
  -3   2   4   50.31    1.89 
  -3   2   4   51.17    1.91 
   3   2  -4   51.60    1.93 
   3   2  -4   52.22    1.86 
  -3   2   4   50.09    1.90 
   3   2  -4   53.72    1.92 
  -3   2   4   51.00    2.08 
  -2  -2   4   11.23    0.48 
  -2  -2   4   12.29    0.57 
  -2  -2   4   11.28    0.57 
  -2  -2   4   11.38    0.51 
  -2  -2   4   11.69    0.51 
   2  -2  -4   10.99    0.51 
   2  -2  -4   11.52    0.51 
  -2  -2   4   11.87    0.56 
  -2  -2   4   11.87    0.55 
   2  -2  -4   11.23    0.53 
   2  -2  -4   10.78    0.49 
   2  -2  -4   11.86    0.58 
   2  -2  -4   10.78    0.53 
   2  -2  -4   12.09    0.57 
   2  -2  -4   11.97    0.58 
  -2  -2   4   10.97    0.53 
  -2  -2   4   11.23    0.77 
   2  -2  -4   11.38    0.79 
   2   2  -4   11.77    0.54 
  -2   2   4   11.43    0.64 
  -2   2   4   11.53    0.51 
   2   2  -4   11.52    0.88 
   2   2  -4   11.65    0.49 
   2   2  -4   11.98    0.61 
  -2   2   4   11.05    0.54 
   2   2  -4   11.48    0.78 
  -2   2   4   11.25    0.51 
   2   2  -4   11.05    0.54 
  -2   2   4   11.36    0.46 
  -2   2   4   10.96    0.53 
   2   2  -4   11.13    0.52 
  -1  -2   4   16.45    0.91 
   1  -2  -4   15.20    0.65 
   1  -2  -4   15.46    0.66 
  -1  -2   4   15.59    0.61 
  -1  -2   4   16.47    0.69 
   1  -2  -4   17.49    0.66 
   1  -2  -4   16.82    0.71 
   1  -2  -4   15.17    0.70 
  -1  -2   4   15.63    0.85 
  -1  -2   4   15.99    0.69 
   1  -2  -4   14.83    0.67 
  -1  -2   4   15.17    0.64 
  -1  -2   4   15.61    0.67 
   1  -2  -4   15.41    0.71 
   1  -2  -4   15.16    0.93 
  -1  -2   4   15.98    0.64 
  -1  -2   4   15.40    0.66 
  -1   2   4   15.08    0.68 
   1   2  -4   16.64    0.68 
  -1   2   4   15.04    0.68 
  -1   2   4   15.96    0.66 
   1   2  -4   16.46    0.76 
   1   2  -4   15.64    0.72 
   1   2  -4   15.32    0.99 
  -1   2   4   15.40    0.62 
   1   2  -4   16.49    0.77 
  -1   2   4   15.26    0.78 
  -1   2   4   14.75    0.67 
   1   2  -4   15.02    0.68 
   0  -2   4  448.34   15.51 
   0  -2   4  458.91   15.54 
   0  -2  -4  486.50   15.95 
   0  -2   4  454.71   15.73 
   0  -2  -4  447.37   15.58 
   0  -2   4  442.55   15.47 
   0  -2  -4  437.99   15.51 
   0  -2   4  436.36   15.78 
   0  -2   4  456.27   15.53 
   0  -2  -4  433.27   15.51 
   0  -2  -4  460.31   15.58 
   0  -2   4  465.19   15.49 
   0  -2  -4  447.21   15.54 
   0  -2  -4  472.39   15.52 
   0  -2  -4  438.44   15.57 
   0  -2  -4  436.39   15.58 
   0   2  -4  458.38   15.43 
   0   2  -4  454.73   15.53 
   0   2   4  456.88   16.00 
   0   2   4  472.95   15.51 
   0   2  -4  471.89   15.43 
   0   2  -4  406.88   15.96 
   0   2  -4  447.20   15.75 
   0   2   4  416.82   15.56 
   0   2   4  447.14   15.58 
   0   2   4  424.97   15.61 
   0   2   4  459.28   15.57 
   0   2   4  420.47   15.58 
   0   2   4  467.42   15.54 
   0   2  -4  453.54   15.57 
   1  -2   4  136.66    4.65 
  -1  -2  -4  131.23    4.65 
   1  -2   4  127.59    4.58 
  -1  -2  -4  131.86    4.62 
   1  -2   4  127.78    4.61 
  -1  -2  -4  135.11    4.71 
  -1  -2  -4  129.49    4.61 
  -1  -2  -4  128.38    4.67 
  -1  -2  -4  132.76    4.69 
   1  -2   4  131.18    4.82 
  -1  -2  -4  133.36    5.04 
  -1   2  -4  126.13    4.80 
   1   2   4  128.33    4.64 
  -1   2  -4  133.40    4.63 
   1   2   4  131.72    4.71 
   1   2   4  130.88    4.62 
  -1   2  -4  130.62    4.66 
   1   2   4  140.54    5.15 
   1   2   4  129.87    4.74 
   1   2   4  129.40    4.69 
   1   2   4  130.61    4.68 
  -1   2  -4  129.91    5.15 
   1   2   4  132.27    4.72 
   1   2   4  136.21    4.65 
   2  -2   4    4.58    0.29 
  -2  -2  -4    4.52    0.29 
   2  -2   4    4.55    0.23 
  -2  -2  -4    4.59    0.29 
  -2  -2  -4    4.30    0.27 
  -2  -2  -4    4.33    0.26 
  -2  -2  -4    5.46    0.34 
  -2   2  -4    4.40    0.29 
   2   2   4    4.19    0.33 
   2   2   4    4.33    0.36 
   2   2   4    4.34    0.33 
  -2   2  -4    4.40    0.36 
   2   2   4    4.41    0.44 
  -2   2  -4    4.47    0.27 
   2   2   4    4.65    0.29 
   2   2   4    4.66    0.35 
   2   2   4    4.72    0.30 
   2   2   4    4.74    0.30 
   3  -2   4    4.77    0.26 
  -3  -2  -4    4.17    0.27 
  -3  -2  -4    4.29    0.30 
  -3  -2  -4    4.23    0.33 
   3  -2   4    4.85    0.32 
   3   2   4    4.23    0.60 
  -3   2  -4    4.41    0.24 
   3   2   4    4.68    0.38 
   3   2   4    4.47    0.31 
  -3   2  -4    4.07    0.20 
  -3   2  -4    4.36    0.31 
   3   2   4    4.20    0.35 
  -3   2  -4    4.07    0.36 
   3   2   4    4.24    0.31 
   3   2   4    4.18    0.35 
   3   2   4    4.08    0.30 
   3   2   4    4.20    0.38 
  -4  -2  -4    6.12    0.43 
  -4  -2  -4    6.53    0.37 
   4  -2   4    5.89    0.33 
   4  -2   4    5.92    0.35 
   4   2   4    6.76    0.51 
   4   2   4    6.41    0.40 
   4   2   4    6.00    0.44 
   4   2   4    5.74    0.45 
  -4   2  -4    6.76    0.45 
   4   2   4    6.30    0.40 
  -4   2  -4    6.46    0.33 
  -4   2  -4    6.21    0.27 
  -4   2  -4    5.99    0.29 
   4   2   4    6.43    0.40 
   4   2   4    6.22    0.49 
   4   2   4    6.51    0.41 
  -5  -2  -4    3.17    0.25 
  -5  -2  -4    3.12    0.30 
  -5  -2  -4    3.36    0.25 
  -5  -2  -4    3.39    0.26 
  -5  -2  -4    3.49    0.29 
  -5  -2  -4    3.33    0.34 
  -5  -2  -4    3.23    0.17 
   5  -2   4    3.37    0.24 
  -5  -2  -4    2.71    0.28 
  -5  -2  -4    3.28    0.33 
  -5  -2  -4    2.89    0.26 
  -5  -2  -4    3.43    0.26 
  -5  -2  -4    3.15    0.23 
  -5  -2  -4    3.34    0.27 
   5   2   4    3.44    0.31 
   5   2   4    3.04    0.29 
  -5   2  -4    3.25    0.21 
   5   2   4    3.15    0.33 
   5   2   4    3.23    0.24 
   5   2   4    3.95    0.36 
  -5   2  -4    3.34    0.22 
  -5   2  -4    3.34    0.23 
   5   2   4    3.15    0.26 
   5   2   4    3.18    0.24 
  -5   2  -4    3.05    0.16 
  -5   2  -4    3.33    0.19 
   5   2   4    3.29    0.29 
  -6  -2  -4    2.35    0.21 
  -6  -2  -4    2.00    0.18 
  -6  -2  -4    2.03    0.12 
  -6  -2  -4    2.19    0.23 
  -6  -2  -4    2.16    0.22 
  -6  -2  -4    1.87    0.23 
  -6  -2  -4    1.73    0.17 
  -6  -2  -4    2.00    0.22 
  -6  -2  -4    1.84    0.19 
  -6  -2  -4    1.77    0.19 
  -6  -2  -4    1.81    0.23 
  -6   2  -4    2.07    0.16 
   6   2   4    1.92    0.23 
   6   2   4    1.79    0.23 
   6   2   4    2.08    0.17 
  -6   2  -4    1.95    0.11 
  -6   2  -4    1.88    0.15 
  -6   2  -4    1.96    0.17 
   6   2   4    1.87    0.19 
   6   2   4    1.73    0.17 
  -6   2  -4    2.01    0.13 
   6   2   4    1.93    0.26 
  -7  -2  -4   10.16    0.42 
  -7  -2  -4   10.15    0.39 
  -7  -2  -4   10.57    0.42 
  -7  -2  -4    9.89    0.42 
  -7  -2  -4   10.41    0.42 
  -7  -2  -4   10.38    0.40 
   7   2   4   10.35    0.42 
   7   2   4   10.00    0.44 
   7   2   4   10.44    0.46 
   7   2   4   10.02    0.39 
  -7   2  -4   10.07    0.38 
   7  -3  -4    3.63    0.23 
  -7  -3   4    3.89    0.27 
  -7  -3   4    3.47    0.15 
  -7  -3   4    3.64    0.25 
  -7  -3   4    3.54    0.21 
  -7  -3   4    3.08    0.58 
  -7  -3   4    3.44    0.25 
   7  -3  -4    3.67    0.22 
  -7  -3   4    3.40    0.27 
   7  -3  -4    3.84    0.27 
  -7   3   4    3.67    0.27 
   7   3  -4    3.57    0.26 
   7   3  -4    3.55    0.25 
  -7   3   4    3.32    0.46 
  -7   3   4    3.41    0.17 
   7   3  -4    3.83    0.20 
   7   3  -4    3.90    0.23 
   7   3  -4    3.84    0.15 
  -7   3   4    3.24    0.22 
  -7   3   4    3.70    0.22 
  -7   3   4    3.75    0.18 
  -7   3   4    3.98    0.21 
  -7   3   4    3.52    0.21 
   7   3  -4    4.05    0.28 
  -7   3   4    3.38    0.22 
   7   3  -4    4.21    0.45 
  -7   3   4    4.11    0.24 
  -7   3   4    3.83    0.23 
   7   3  -4    3.43    0.24 
  -6  -3   4   32.61    1.28 
  -6  -3   4   29.52    1.23 
   6  -3  -4   31.00    1.26 
   6  -3  -4   35.64    1.49 
  -6  -3   4   32.49    1.24 
  -6  -3   4   30.49    1.13 
  -6  -3   4   31.16    1.25 
   6  -3  -4   31.28    1.29 
   6  -3  -4   31.04    1.19 
  -6  -3   4   32.05    1.18 
  -6  -3   4   31.55    1.41 
  -6  -3   4   31.63    1.25 
  -6   3   4   30.76    1.18 
  -6   3   4   31.72    1.31 
  -6   3   4   31.19    1.21 
  -6   3   4   30.49    1.15 
   6   3  -4   30.94    1.11 
  -6   3   4   31.29    1.20 
   6   3  -4   30.62    1.27 
   6   3  -4   32.88    1.17 
  -6   3   4   32.94    1.29 
  -6   3   4   29.67    1.13 
  -6   3   4   30.91    1.13 
   6   3  -4   32.46    1.22 
   6   3  -4   31.70    1.23 
   6   3  -4   31.92    1.20 
  -6   3   4   31.69    1.14 
   6   3  -4   31.82    1.25 
  -6   3   4   31.22    1.17 
   6   3  -4   30.13    1.23 
  -6   3   4   30.87    1.26 
   6   3  -4   31.38    1.17 
  -6   3   4   29.62    1.20 
  -6   3   4   31.39    1.14 
  -6   3   4   31.44    1.20 
  -6   3   4   30.30    1.19 
  -6   3   4   29.40    1.16 
  -6   3   4   29.92    1.16 
   5  -3  -4   32.41    1.25 
  -5  -3   4   31.89    1.28 
  -5  -3   4   32.46    1.27 
  -5  -3   4   31.84    1.29 
   5  -3  -4   31.39    1.36 
   5  -3  -4   33.34    1.32 
  -5  -3   4   33.65    1.30 
   5  -3  -4   30.49    1.27 
  -5  -3   4   30.10    1.28 
  -5  -3   4   28.68    1.38 
   5  -3  -4   31.41    1.27 
  -5  -3   4   31.47    1.33 
  -5   3   4   31.54    1.19 
   5   3  -4   34.53    1.38 
  -5   3   4   32.27    1.17 
  -5   3   4   31.51    1.28 
   5   3  -4   31.68    1.28 
  -5   3   4   30.15    1.22 
  -5   3   4   32.06    1.24 
  -5   3   4   32.03    1.24 
  -5   3   4   31.32    1.24 
  -5   3   4   31.66    1.28 
  -5   3   4   30.68    1.22 
   5   3  -4   32.05    1.24 
   4  -3  -4   86.50    3.27 
  -4  -3   4   94.77    3.29 
  -4  -3   4   89.03    3.35 
   4  -3  -4   91.12    3.27 
  -4  -3   4   93.76    3.42 
  -4  -3   4   91.60    3.30 
  -4  -3   4   86.93    3.29 
  -4  -3   4   92.70    3.43 
  -4  -3   4   93.50    3.32 
   4  -3  -4   85.54    3.29 
   4  -3  -4   94.52    3.34 
   4  -3  -4   95.97    3.41 
   4  -3  -4   92.44    3.29 
   4  -3  -4   97.83    3.43 
  -4  -3   4   88.49    3.86 
   4   3  -4   89.45    3.36 
  -4   3   4   95.18    3.56 
  -4   3   4   91.43    3.27 
  -4   3   4   93.95    3.32 
  -4   3   4   91.02    3.28 
   4   3  -4   87.19    3.50 
  -4   3   4   92.45    3.25 
   4   3  -4   89.81    3.35 
   4   3  -4   83.91    3.28 
  -4   3   4   88.52    3.27 
  -4   3   4   90.76    3.31 
   3  -3  -4    8.72    0.51 
   3  -3  -4    8.86    0.47 
  -3  -3   4    7.49    0.41 
   3  -3  -4    8.85    0.76 
  -3  -3   4    8.20    0.41 
  -3  -3   4    8.23    0.50 
   3  -3  -4    8.78    0.42 
  -3  -3   4    8.73    0.52 
   3  -3  -4    8.29    0.44 
   3  -3  -4    8.66    0.44 
  -3  -3   4    9.47    0.79 
   3  -3  -4    8.60    0.51 
   3  -3  -4    8.68    0.51 
  -3  -3   4    7.90    0.43 
  -3  -3   4    8.58    0.49 
  -3  -3   4    8.73    0.48 
  -3  -3   4    8.88    0.44 
  -3   3   4    9.30    0.76 
   3   3  -4    8.61    0.49 
   3   3  -4    8.10    0.49 
   3   3  -4    7.42    0.68 
   3   3  -4    9.21    0.57 
   3   3  -4    7.57    0.40 
   3   3  -4    8.30    0.45 
  -3   3   4    9.51    0.61 
  -3   3   4    8.22    0.42 
  -3   3   4    8.91    0.46 
   3   3  -4    8.11    0.42 
   3   3  -4    8.88    0.47 
  -3   3   4    8.08    0.43 
  -3   3   4    7.86    0.42 
  -3   3   4    8.61    0.45 
   2  -3  -4  214.46    7.35 
  -2  -3   4  200.96    7.35 
   2  -3  -4  207.26    7.46 
  -2  -3   4  215.92    7.80 
  -2  -3   4  217.12    7.44 
  -2  -3   4  218.57    7.45 
   2  -3  -4  214.87    7.86 
   2  -3  -4  209.70    7.37 
  -2  -3   4  201.60    7.39 
  -2  -3   4  212.95    7.38 
   2  -3  -4  207.49    7.40 
   2  -3  -4  222.05    7.48 
  -2  -3   4  206.85    7.34 
  -2  -3   4  220.26    7.45 
   2  -3  -4  219.36    7.46 
  -2   3   4  205.88    7.35 
  -2   3   4  209.17    7.40 
  -2   3   4  209.88    7.38 
   2   3  -4  214.28    7.42 
   2   3  -4  212.62    7.31 
   2   3  -4  219.18    7.51 
   2   3  -4  214.97    7.38 
   2   3  -4  178.50    7.35 
   2   3  -4  212.34    7.43 
  -2   3   4  206.23    7.38 
  -2   3   4  212.58    7.59 
   1  -3  -4    7.12    0.41 
  -1  -3   4    7.49    0.40 
  -1  -3   4    7.86    0.34 
   1  -3  -4    7.83    0.45 
  -1  -3   4    7.43    0.41 
   1  -3  -4    7.67    0.44 
   1  -3  -4    7.49    0.37 
   1  -3  -4    7.44    0.39 
  -1  -3   4    7.80    0.56 
   1  -3  -4    8.01    0.66 
  -1  -3   4    7.88    0.37 
   1  -3  -4    7.36    0.44 
   1   3  -4    7.82    0.41 
   1   3  -4    7.66    0.28 
   1   3  -4    7.90    0.42 
   1   3  -4    7.98    0.45 
  -1   3   4    7.25    0.51 
   1   3  -4    7.56    0.57 
   1   3  -4    6.55    0.71 
  -1   3   4    7.64    0.38 
  -1   3   4    7.29    0.38 
  -1   3   4    7.31    0.41 
   1   3  -4    7.56    0.28 
   0  -3  -4    9.74    0.76 
   0  -3  -4   10.31    0.48 
   0  -3   4    9.73    0.61 
   0  -3  -4   10.73    0.55 
   0  -3   4   11.03    0.44 
   0  -3  -4   10.53    0.56 
   0  -3   4   10.50    0.49 
   0  -3  -4    9.94    0.49 
   0  -3  -4   10.26    0.52 
   0  -3  -4   10.15    0.48 
   0  -3  -4   11.20    0.56 
   0   3  -4    9.66    0.53 
   0   3   4    9.72    0.44 
   0   3  -4   10.33    0.60 
   0   3   4   10.19    0.48 
   0   3  -4   10.69    0.48 
   0   3   4    9.51    0.51 
   0   3   4   10.55    0.64 
   0   3   4   10.61    0.53 
   0   3  -4   10.38    0.51 
   0   3  -4    9.26    0.85 
   1  -3   4   17.53    0.74 
  -1  -3  -4   18.22    0.79 
  -1  -3  -4   19.09    0.77 
  -1  -3  -4   18.52    0.84 
  -1  -3  -4   18.21    0.76 
  -1  -3  -4   18.33    1.15 
  -1  -3  -4   17.67    0.80 
  -1  -3  -4   17.70    0.83 
  -1  -3  -4   17.18    0.82 
  -1  -3  -4   18.43    0.85 
  -1  -3  -4   17.31    0.79 
  -1  -3  -4   18.35    0.76 
   1  -3   4   18.41    0.69 
  -1   3  -4   18.34    0.73 
   1   3   4   17.94    0.86 
   1   3   4   17.94    0.77 
   1   3   4   18.50    0.74 
   1   3   4   17.65    0.82 
  -1   3  -4   17.69    0.71 
  -1   3  -4   18.27    0.76 
  -1   3  -4   18.47    0.73 
  -1   3  -4   19.12    0.76 
   1   3   4   18.18    0.81 
  -2  -3  -4   53.66    1.92 
  -2  -3  -4   50.56    2.02 
  -2  -3  -4   43.92    2.39 
  -2  -3  -4   53.77    1.94 
   2  -3   4   53.78    1.86 
  -2  -3  -4   53.85    1.98 
  -2  -3  -4   51.29    2.03 
   2  -3   4   51.20    1.91 
  -2  -3  -4   55.00    2.08 
  -2  -3  -4   51.14    2.01 
  -2   3  -4   52.57    1.88 
   2   3   4   56.60    2.08 
  -2   3  -4   48.94    1.87 
   2   3   4   53.44    1.96 
  -2   3  -4   51.95    1.87 
   2   3   4   52.25    1.93 
  -2   3  -4   52.04    1.88 
   2   3   4   53.34    2.04 
   2   3   4   50.40    2.10 
   2   3   4   50.16    2.00 
  -3  -3  -4   58.26    2.09 
  -3  -3  -4   57.37    2.04 
  -3  -3  -4   55.73    2.14 
   3  -3   4   54.77    1.97 
  -3  -3  -4   51.88    1.98 
   3   3   4   56.42    2.17 
   3   3   4   56.63    2.19 
   3   3   4   54.07    2.05 
   3   3   4   53.23    2.12 
   3   3   4   55.44    2.22 
   3   3   4   45.00    2.26 
   3   3   4   53.61    2.03 
   3   3   4   54.97    2.07 
  -3   3  -4   54.43    1.96 
  -3   3  -4   54.07    1.97 
  -4  -3  -4   15.85    1.32 
  -4  -3  -4   16.75    0.86 
  -4  -3  -4   16.19    0.72 
  -4  -3  -4   14.65    0.77 
  -4  -3  -4   14.13    0.70 
  -4  -3  -4   13.17    0.67 
  -4  -3  -4   16.05    0.72 
  -4  -3  -4   13.10    0.77 
  -4  -3  -4   14.77    0.55 
  -4  -3  -4   16.16    0.69 
   4  -3   4   16.05    0.66 
  -4  -3  -4   15.26    0.71 
  -4  -3  -4   16.59    0.68 
   4   3   4   15.01    0.69 
  -4   3  -4   14.08    0.61 
   4   3   4   15.08    0.73 
   4   3   4   15.19    0.73 
   4   3   4   16.86    0.68 
   4   3   4   15.40    0.78 
   4   3   4   14.23    0.62 
   4   3   4   15.63    0.83 
  -4   3  -4   14.55    0.56 
  -4   3  -4   14.32    0.65 
   4   3   4   15.11    0.71 
   4   3   4   14.73    0.76 
   4   3   4   13.25    0.77 
   4   3   4   14.91    0.69 
   4   3   4   15.01    0.82 
   4   3   4   15.10    0.87 
  -4   3  -4   15.35    0.62 
  -5  -3  -4    7.16    0.39 
  -5  -3  -4    7.17    0.37 
  -5  -3  -4    6.33    0.36 
  -5  -3  -4    6.44    0.35 
  -5  -3  -4    6.59    0.37 
  -5  -3  -4    6.69    0.46 
  -5  -3  -4    6.72    0.39 
  -5  -3  -4    6.99    0.40 
  -5  -3  -4    6.66    0.43 
  -5  -3  -4    6.49    0.35 
  -5   3  -4    6.80    0.36 
  -5   3  -4    6.21    0.27 
  -5   3  -4    6.39    0.30 
   5   3   4    6.93    0.36 
  -5   3  -4    6.80    0.30 
   5   3   4    6.94    0.43 
   5   3   4    5.88    0.45 
   5   3   4    6.92    0.41 
   5   3   4    5.62    0.38 
   5   3   4    6.46    0.40 
   5   3   4    6.94    0.41 
  -6  -3  -4    5.18    0.29 
  -6  -3  -4    5.34    0.27 
  -6  -3  -4    5.38    0.22 
  -6  -3  -4    5.43    0.31 
  -6  -3  -4    5.15    0.29 
  -6  -3  -4    4.81    0.28 
  -6  -3  -4    5.22    0.28 
  -6  -3  -4    5.71    0.35 
  -6  -3  -4    5.74    0.30 
  -6  -3  -4    5.39    0.31 
  -6  -3  -4    5.35    0.33 
   6   3   4    5.45    0.23 
   6   3   4    5.34    0.32 
  -6   3  -4    5.11    0.21 
   6   3   4    5.04    0.34 
  -6   3  -4    5.49    0.21 
   6   3   4    5.35    0.28 
  -7  -4   4    6.29    0.32 
  -7  -4   4    5.84    0.30 
   7  -4  -4    6.40    0.29 
   7  -4  -4    6.37    0.29 
  -7  -4   4    6.08    0.69 
  -7  -4   4    6.18    0.28 
  -7  -4   4    6.22    0.23 
  -7  -4   4    6.00    0.32 
   7   4  -4    6.25    0.29 
   7   4  -4    6.26    0.30 
   7   4  -4    5.49    0.30 
   7   4  -4    6.15    0.32 
  -7   4   4    5.93    0.25 
  -7   4   4    6.56    0.30 
  -7   4   4    6.17    0.28 
  -7   4   4    6.13    0.29 
   7   4  -4    5.57    0.33 
  -7   4   4    6.24    0.27 
   7   4  -4    6.23    0.26 
   7   4  -4    6.17    0.29 
  -7   4   4    6.16    0.27 
   7   4  -4    6.19    0.31 
  -6  -4   4    5.93    0.36 
  -6  -4   4    7.34    0.36 
  -6  -4   4    6.56    0.37 
  -6  -4   4    6.12    0.36 
   6  -4  -4    6.01    0.37 
   6  -4  -4    6.70    0.33 
  -6  -4   4    6.74    0.33 
  -6  -4   4    6.26    0.39 
  -6   4   4    6.44    0.36 
   6   4  -4    6.03    0.31 
   6   4  -4    6.41    0.34 
  -6   4   4    6.40    0.33 
  -6   4   4    6.09    0.30 
   6   4  -4    6.34    0.40 
   6   4  -4    6.42    0.36 
   6   4  -4    6.27    0.38 
  -6   4   4    6.32    0.33 
  -6   4   4    6.48    0.33 
   6   4  -4    6.15    0.32 
  -6   4   4    6.12    0.31 
   6   4  -4    6.30    0.37 
  -6   4   4    6.07    0.27 
  -6   4   4    6.22    0.37 
  -6   4   4    6.27    0.30 
  -6   4   4    5.87    0.29 
   6   4  -4    6.32    0.34 
   6   4  -4    6.52    0.36 
  -5  -4   4    3.07    0.28 
  -5  -4   4    3.20    0.25 
  -5  -4   4    3.10    0.28 
  -5  -4   4    3.56    0.29 
  -5  -4   4    3.23    0.22 
  -5  -4   4    3.12    0.22 
  -5  -4   4    3.02    0.31 
  -5  -4   4    3.45    0.27 
   5  -4  -4    3.59    0.27 
  -5  -4   4    3.01    0.30 
   5  -4  -4    3.00    0.28 
  -5  -4   4    3.08    0.31 
   5  -4  -4    3.00    0.26 
   5  -4  -4    3.07    0.22 
   5  -4  -4    2.55    0.30 
  -5  -4   4    3.07    0.29 
   5   4  -4    2.92    0.27 
   5   4  -4    3.01    0.23 
  -5   4   4    2.93    0.21 
  -5   4   4    3.34    0.28 
  -5   4   4    2.80    0.23 
  -5   4   4    2.60    0.20 
  -5   4   4    3.00    0.22 
  -5   4   4    3.28    0.23 
   5   4  -4    3.31    0.26 
  -5   4   4    3.08    0.26 
  -5   4   4    2.95    0.18 
   5   4  -4    2.79    0.24 
   5   4  -4    3.15    0.26 
  -5   4   4    3.26    0.23 
  -5   4   4    3.26    0.22 
   5   4  -4    3.42    0.31 
   5   4  -4    3.00    0.25 
   5   4  -4    2.79    0.33 
  -5   4   4    3.19    0.21 
   5   4  -4    3.12    0.23 
   5   4  -4    2.86    0.26 
   5   4  -4    3.23    0.18 
  -5   4   4    2.96    0.23 
  -5   4   4    2.98    0.18 
   5   4  -4    2.91    0.28 
  -5   4   4    3.04    0.27 
  -4  -4   4   16.07    0.73 
   4  -4  -4   15.03    0.68 
  -4  -4   4   14.70    0.69 
  -4  -4   4   14.37    0.68 
   4  -4  -4   14.45    0.76 
  -4  -4   4   15.14    0.70 
   4  -4  -4   15.76    0.68 
  -4  -4   4   16.15    0.75 
   4  -4  -4   15.05    0.69 
   4  -4  -4   15.57    0.73 
   4  -4  -4   14.61    0.69 
  -4  -4   4   15.26    0.80 
  -4  -4   4   15.04    0.70 
   4   4  -4   14.82    0.69 
  -4   4   4   14.49    0.61 
  -4   4   4   15.50    0.64 
  -4   4   4   14.23    0.54 
  -4   4   4   15.04    0.70 
  -4   4   4   15.04    0.65 
  -4   4   4   14.61    0.64 
   4   4  -4   14.37    0.67 
  -4   4   4   14.60    0.67 
  -4   4   4   14.93    0.70 
   4   4  -4   15.14    0.77 
  -4   4   4   15.41    0.65 
  -3  -4   4  271.46    9.51 
   3  -4  -4  269.37    9.64 
   3  -4  -4  276.10    9.58 
  -3  -4   4  268.15    9.51 
   3  -4  -4  255.22   10.05 
  -3  -4   4  288.92    9.58 
  -3  -4   4  275.68    9.53 
   3  -4  -4  267.43    9.62 
   3  -4  -4  276.14    9.52 
   3  -4  -4  275.22    9.53 
   3  -4  -4  280.31    9.53 
  -3  -4   4  273.03    9.63 
  -3  -4   4  284.40    9.56 
   3  -4  -4  268.81    9.53 
  -3  -4   4  259.80    9.63 
  -3  -4   4  272.83    9.54 
   3   4  -4  265.95    9.72 
   3   4  -4  268.85    9.44 
   3   4  -4  278.26    9.63 
   3   4  -4  258.20    9.49 
  -3   4   4  281.89    9.57 
  -3   4   4  269.53    9.55 
  -3   4   4  269.26    9.50 
  -3   4   4  283.77    9.80 
   3   4  -4  261.53    9.50 
   3   4  -4  280.04    9.53 
  -3   4   4  282.76    9.53 
  -3   4   4  282.41    9.49 
  -3   4   4  272.51    9.50 
  -2  -4   4   66.06    2.45 
  -2  -4   4   64.13    2.36 
   2  -4  -4   70.14    2.38 
   2  -4  -4   67.79    2.48 
   2  -4  -4   67.80    2.50 
  -2  -4   4   70.24    2.36 
  -2  -4   4   62.41    2.94 
  -2  -4   4   65.52    2.44 
   2  -4  -4   63.26    2.48 
  -2  -4   4   62.77    2.39 
   2  -4  -4   67.73    2.39 
   2  -4  -4   70.44    2.44 
  -2  -4   4   65.17    2.40 
   2  -4  -4   66.92    2.89 
   2  -4  -4   64.68    2.38 
   2  -4  -4   53.36    2.64 
   2   4  -4   67.67    2.47 
   2   4  -4   59.04    2.43 
  -2   4   4   55.61    2.63 
   2   4  -4   66.24    2.36 
  -2   4   4   64.84    2.35 
  -2   4   4   65.74    2.62 
  -2   4   4   64.37    2.38 
   2   4  -4   64.01    2.34 
  -2   4   4   68.17    2.42 
   2   4  -4   66.11    2.34 
   2   4  -4   66.29    2.52 
  -2   4   4   64.06    2.40 
  -2   4   4   64.91    2.38 
  -2   4   4   58.44    2.39 
   1  -4  -4    4.43    0.36 
   1  -4  -4    3.69    0.34 
   1  -4  -4    4.51    0.29 
   1  -4  -4    4.35    0.34 
   1  -4  -4    4.49    0.35 
   1  -4  -4    4.29    0.32 
   1  -4  -4    4.30    0.27 
  -1  -4   4    4.54    0.27 
  -1  -4   4    4.12    0.24 
   1  -4  -4    4.49    0.56 
  -1  -4   4    4.17    0.31 
   1   4  -4    4.68    0.34 
  -1   4   4    4.35    0.43 
  -1   4   4    4.19    0.31 
   1   4  -4    4.08    0.34 
   1   4  -4    3.92    0.24 
  -1   4   4    3.83    0.28 
  -1   4   4    4.00    0.28 
   1   4  -4    3.74    0.30 
   1   4  -4    4.12    0.35 
   1   4  -4    4.02    0.41 
  -1   4   4    4.44    0.27 
  -1   4   4    4.03    0.29 
  -1   4   4    3.58    0.54 
   1   4  -4    3.92    0.23 
   0  -4  -4    2.32    0.26 
   0  -4  -4    2.01    0.24 
   0  -4  -4    2.35    0.45 
   0  -4  -4    2.57    0.23 
   0  -4  -4    2.09    0.28 
   0  -4   4    2.00    0.20 
   0  -4  -4    2.28    0.28 
   0  -4  -4    2.19    0.26 
   0  -4  -4    1.98    0.20 
   0  -4   4    2.33    0.17 
   0   4   4    2.43    0.25 
   0   4  -4    2.25    0.19 
   0   4  -4    2.26    0.20 
   0   4   4    2.45    0.24 
   0   4   4    2.34    0.35 
   0   4  -4    2.31    0.18 
   0   4  -4    2.42    0.20 
   0   4   4    2.50    0.22 
   0   4  -4    2.18    0.16 
  -1  -4  -4   56.05    2.10 
  -1  -4  -4   54.67    2.06 
  -1  -4  -4   55.63    2.13 
  -1  -4  -4   52.77    2.04 
   1  -4   4   55.00    1.95 
  -1  -4  -4   54.40    2.04 
  -1  -4  -4   55.76    2.15 
  -1  -4  -4   54.88    2.17 
  -1  -4  -4   56.03    2.16 
  -1  -4  -4   54.54    2.05 
  -1  -4  -4   48.99    2.51 
   1   4   4   56.85    2.19 
  -1   4  -4   53.80    1.95 
   1   4   4   55.99    2.05 
  -1   4  -4   52.23    1.94 
  -1   4  -4   54.95    1.96 
  -1   4  -4   56.00    1.95 
   1   4   4   54.44    2.12 
   1   4   4   56.82    2.10 
  -2  -4  -4    3.00    0.26 
   2  -4   4    2.89    0.16 
  -2  -4  -4    2.58    0.32 
  -2  -4  -4    2.49    0.33 
  -2  -4  -4    2.79    0.27 
  -2  -4  -4    2.67    0.27 
  -2  -4  -4    2.63    0.25 
  -2  -4  -4    2.65    0.30 
  -2  -4  -4    2.90    0.57 
  -2  -4  -4    2.82    0.31 
   2   4   4    2.94    0.27 
   2   4   4    2.77    0.30 
   2   4   4    2.81    0.32 
   2   4   4    2.84    0.34 
  -3  -4  -4   25.37    1.04 
   3  -4   4   26.04    0.96 
  -3  -4  -4   26.25    1.07 
  -3  -4  -4   24.50    1.10 
  -3  -4  -4   27.55    1.20 
   3   4   4   25.35    1.08 
   3   4   4   24.45    1.13 
   3   4   4   25.28    1.20 
   3   4   4   26.84    1.19 
  -4  -4  -4   98.39    3.47 
  -4  -4  -4   98.34    3.61 
  -4  -4  -4  111.88    5.43 
  -4  -4  -4   96.68    3.35 
  -4  -4  -4   95.06    3.48 
  -4  -4  -4   96.06    3.48 
  -4  -4  -4   91.48    3.39 
  -4  -4  -4   89.81    3.49 
  -4  -4  -4   93.34    3.45 
   4   4   4   97.74    3.48 
   4   4   4   98.57    3.36 
   4   4   4   97.53    3.41 
   4   4   4   89.96    3.48 
   4   4   4   97.66    3.47 
   4   4   4   97.63    3.65 
   4   4   4   98.40    3.51 
   4   4   4   93.74    3.51 
  -5  -4  -4    6.07    0.35 
  -5  -4  -4    6.50    0.45 
  -5  -4  -4    6.49    0.41 
  -5  -4  -4    6.42    0.37 
  -5  -4  -4    6.69    0.37 
   5   4   4    6.44    0.26 
   5   4   4    5.95    0.38 
   5   4   4    6.62    0.92 
   5   4   4    6.52    0.32 
   5   4   4    7.00    0.39 
   5   4   4    6.51    0.38 
   5   4   4    6.24    0.36 
  -6  -4  -4   11.86    0.46 
  -6  -4  -4   11.03    0.50 
  -6  -4  -4   10.85    0.46 
  -6  -4  -4   10.75    0.45 
  -6  -4  -4   10.99    0.47 
  -6  -4  -4    9.66    0.45 
  -6  -4  -4   11.16    0.41 
  -6  -4  -4   11.27    0.50 
   6   4   4   10.96    0.43 
   6   4   4   11.51    0.50 
   6   4   4   10.57    0.47 
   6   4   4   10.84    0.47 
   6   4   4   11.21    0.48 
  -6  -5   4   42.83    1.55 
  -6  -5   4   40.52    1.50 
   6  -5  -4   43.40    1.52 
  -6  -5   4   40.55    1.57 
  -6  -5   4   42.69    1.52 
  -6  -5   4   48.87    1.73 
   6   5  -4   42.30    1.51 
   6   5  -4   42.53    1.53 
  -6   5   4   39.87    1.52 
   6   5  -4   43.04    1.64 
   6   5  -4   40.88    1.55 
   6   5  -4   43.26    1.51 
  -6   5   4   40.95    1.52 
   6   5  -4   42.90    1.57 
   6   5  -4   43.45    1.52 
   6   5  -4   40.97    1.54 
   6   5  -4   41.45    1.54 
   6   5  -4   45.33    1.51 
  -6   5   4   41.36    1.51 
  -6   5   4   38.57    1.50 
  -6   5   4   41.63    1.48 
  -6   5   4   40.98    1.50 
  -5  -5   4   12.83    0.53 
  -5  -5   4   13.71    0.71 
  -5  -5   4   12.64    0.58 
  -5  -5   4   12.41    0.53 
   5  -5  -4   11.81    0.53 
  -5  -5   4   11.88    0.60 
  -5  -5   4   11.75    0.58 
  -5  -5   4   10.19    0.54 
  -5   5   4   13.02    0.52 
   5   5  -4   12.27    0.51 
   5   5  -4   13.04    0.52 
  -5   5   4   12.21    0.50 
  -5   5   4   11.88    0.58 
   5   5  -4   12.65    0.55 
  -5   5   4   13.68    0.55 
  -5   5   4   13.38    0.54 
   5   5  -4   13.09    0.52 
   5   5  -4   12.56    0.57 
  -5   5   4   12.79    0.48 
   5   5  -4   12.48    0.53 
   5   5  -4   13.87    0.68 
  -5   5   4   11.89    0.55 
   5   5  -4   12.49    0.59 
   5   5  -4   13.00    0.57 
   5   5  -4   12.74    0.48 
   5   5  -4   13.31    0.60 
   5   5  -4   11.75    0.57 
  -5   5   4   12.68    0.54 
  -4  -5   4   22.21    0.98 
   4  -5  -4   21.96    0.95 
  -4  -5   4   21.93    0.97 
   4  -5  -4   21.44    0.91 
  -4  -5   4   22.52    0.94 
  -4  -5   4   22.52    0.87 
  -4  -5   4   21.78    0.95 
  -4  -5   4   20.11    0.92 
  -4  -5   4   22.21    0.92 
   4  -5  -4   22.63    0.96 
  -4  -5   4   22.61    0.87 
   4   5  -4   21.22    0.82 
  -4   5   4   23.71    0.85 
   4   5  -4   21.31    0.90 
  -4   5   4   21.38    0.92 
  -4   5   4   21.60    0.85 
  -4   5   4   20.20    0.92 
   4   5  -4   22.52    0.93 
   4   5  -4   22.33    0.91 
   4   5  -4   21.16    0.84 
   4   5  -4   22.04    0.86 
   4   5  -4   21.84    0.81 
  -4   5   4   21.38    0.87 
   4   5  -4   22.22    0.87 
  -4   5   4   21.48    0.93 
  -4   5   4   20.74    0.85 
   4   5  -4   21.01    0.82 
  -4   5   4   22.15    0.88 
  -4   5   4   22.87    0.84 
   4   5  -4   21.99    0.89 
   4   5  -4   21.64    0.86 
   4   5  -4   23.91    0.92 
   4   5  -4   22.50    0.90 
  -4   5   4   22.10    0.81 
   4   5  -4   21.42    0.83 
   4   5  -4   22.25    0.99 
   4   5  -4   21.29    0.88 
  -4   5   4   22.44    0.84 
  -4   5   4   21.28    0.87 
  -4   5   4   21.88    0.86 
  -4   5   4   22.22    0.80 
   4   5  -4   21.24    0.90 
   3  -5  -4   18.87    0.99 
  -3  -5   4   23.58    1.06 
  -3  -5   4   23.55    1.01 
  -3  -5   4   21.32    0.95 
   3  -5  -4   24.04    0.99 
   3  -5  -4   23.01    1.00 
   3  -5  -4   23.02    0.97 
   3  -5  -4   23.79    0.99 
   3  -5  -4   22.45    1.04 
  -3  -5   4   21.84    0.99 
  -3  -5   4   22.88    0.95 
  -3  -5   4   24.14    0.99 
   3  -5  -4   24.55    0.96 
  -3  -5   4   23.65    1.00 
  -3  -5   4   24.23    1.03 
   3   5  -4   22.67    0.90 
   3   5  -4   21.92    0.93 
  -3   5   4   21.43    0.86 
  -3   5   4   24.80    1.01 
  -3   5   4   22.18    0.92 
   3   5  -4   24.05    0.86 
  -3   5   4   23.16    0.86 
  -3   5   4   23.96    0.89 
   3   5  -4   23.02    1.01 
  -3   5   4   23.05    0.91 
   3   5  -4   22.87    0.93 
  -3   5   4   23.39    0.87 
  -3   5   4   22.53    0.88 
   3   5  -4   22.88    1.06 
  -3   5   4   24.10    0.90 
  -3   5   4   23.29    0.97 
   3   5  -4   22.95    0.86 
   3   5  -4   20.49    0.89 
   3   5  -4   22.62    0.86 
  -3   5   4   25.18    0.94 
  -3   5   4   23.80    0.90 
  -3   5   4   23.55    0.93 
  -3   5   4   23.86    0.99 
  -3   5   4   24.35    0.93 
   3   5  -4   23.94    0.90 
  -3   5   4   23.11    0.93 
   3   5  -4   23.92    0.97 
   3   5  -4   23.74    0.94 
   3   5  -4   21.71    0.91 
   3   5  -4   23.87    0.92 
   2  -5  -4   36.58    1.44 
   2  -5  -4   35.84    1.45 
  -2  -5   4   39.10    1.42 
   2  -5  -4   36.34    1.53 
   2  -5  -4   37.97    1.49 
   2  -5  -4   37.90    1.46 
   2  -5  -4   37.38    1.43 
  -2  -5   4   34.96    1.45 
  -2   5   4   38.51    1.41 
   2   5  -4   36.82    1.41 
  -2   5   4   36.62    1.41 
  -2   5   4   38.68    1.42 
   2   5  -4   36.57    1.39 
  -2   5   4   37.12    1.46 
  -2   5   4   36.43    1.37 
  -2   5   4   34.59    1.40 
   2   5  -4   37.68    1.36 
   2   5  -4   36.62    1.75 
  -2   5   4   37.83    1.45 
   2   5  -4   36.77    1.39 
  -2   5   4   35.23    1.32 
   1  -5  -4   12.61    0.58 
   1  -5  -4   13.07    0.68 
   1  -5  -4   10.95    0.67 
   1  -5  -4   11.63    0.66 
  -1  -5   4   11.95    0.56 
  -1  -5   4   12.46    0.53 
   1  -5  -4   11.87    0.58 
   1  -5  -4   12.09    0.60 
   1  -5  -4   11.82    0.62 
  -1   5   4   13.08    0.80 
   1   5  -4   12.41    0.53 
  -1   5   4   11.82    0.58 
  -1   5   4   11.77    0.56 
   1   5  -4   11.52    0.48 
  -1   5   4   11.84    0.60 
   1   5  -4   12.82    0.66 
  -1   5   4   11.62    0.52 
   1   5  -4   12.06    0.51 
  -1   5   4   11.13    0.58 
   0  -5  -4   22.96    1.05 
   0  -5  -4   21.90    1.06 
   0  -5   4   22.36    0.88 
   0  -5  -4   23.12    1.04 
   0  -5  -4   22.29    0.93 
   0  -5  -4   22.63    0.94 
   0  -5  -4   23.10    1.00 
   0  -5  -4   22.18    0.95 
   0   5  -4   22.19    0.87 
   0   5   4   22.12    0.91 
   0   5   4   19.68    1.14 
  -1  -5  -4   10.80    0.58 
  -1  -5  -4   12.36    0.63 
  -1  -5  -4   12.04    0.68 
  -1  -5  -4   11.34    0.60 
  -1  -5  -4   12.22    0.60 
   1  -5   4   12.02    0.49 
  -1  -5  -4   11.30    0.66 
   1   5   4   12.17    0.58 
   1   5   4   11.77    0.63 
  -2  -5  -4    2.47    0.26 
  -2  -5  -4    2.58    0.24 
  -2  -5  -4    2.46    0.21 
  -2  -5  -4    2.99    0.28 
  -2  -5  -4    2.59    0.30 
  -2  -5  -4    2.75    0.35 
  -2  -5  -4    3.11    0.29 
  -2  -5  -4    2.35    0.26 
  -2  -5  -4    2.78    0.30 
  -2  -5  -4    3.07    0.35 
  -2  -5  -4    2.59    0.27 
  -2  -5  -4    2.59    0.21 
   2   5   4    2.70    0.32 
   2   5   4    2.83    0.27 
   2   5   4    2.92    0.27 
   2   5   4    2.73    0.34 
   2   5   4    2.44    0.28 
   2   5   4    2.69    0.26 
   2   5   4    2.86    0.23 
   2   5   4    2.81    0.29 
   2   5   4    2.43    0.23 
   2   5   4    2.67    0.24 
   2   5   4    2.92    0.29 
   2   5   4    2.48    0.16 
   2   5   4    2.91    0.33 
   2   5   4    2.71    0.29 
   2   5   4    2.64    0.29 
  -3  -5  -4   61.59    2.25 
  -3  -5  -4   62.74    2.30 
  -3  -5  -4   60.15    2.32 
  -3  -5  -4   59.78    2.30 
   3   5   4   65.84    2.31 
   3   5   4   64.82    2.40 
   3   5   4   60.04    2.34 
   3   5   4   62.12    2.31 
   3   5   4   62.33    2.30 
   3   5   4   63.14    2.24 
   3   5   4   63.88    2.29 
  -4  -5  -4    4.97    0.21 
  -4  -5  -4    4.89    0.31 
  -4  -5  -4    5.33    1.00 
  -4  -5  -4    4.76    0.34 
  -4  -5  -4    5.28    0.27 
  -4  -5  -4    4.40    0.42 
  -4  -5  -4    5.23    0.35 
   4   5   4    4.85    0.34 
   4   5   4    4.62    0.36 
   4   5   4    4.87    0.39 
   4   5   4    4.86    0.33 
   4   5   4    4.83    0.34 
   4   5   4    4.96    0.32 
   4   5   4    5.06    0.29 
  -5  -5  -4    5.83    0.30 
  -5  -5  -4    5.44    0.36 
  -5  -5  -4    6.53    0.33 
  -5  -5  -4    5.34    0.37 
   5   5   4    5.75    0.30 
   5   5   4    5.30    0.29 
   5   5   4    5.98    0.38 
   5   5   4    6.06    0.32 
   5   5   4    5.49    0.31 
  -5  -6   4   52.04    1.85 
   5  -6  -4   52.56    1.86 
  -5  -6   4   51.32    1.85 
  -5   6   4   54.06    1.85 
   5   6  -4   53.82    1.82 
   5   6  -4   47.86    1.83 
  -5   6   4   52.21    1.86 
   5   6  -4   52.87    1.82 
  -5   6   4   54.03    1.84 
  -5   6   4   52.50    1.85 
   5   6  -4   53.36    1.87 
   5   6  -4   50.69    1.92 
  -5   6   4   52.57    1.81 
  -5   6   4   53.14    1.84 
   5   6  -4   51.15    1.86 
   5   6  -4   45.75    1.85 
   5   6  -4   56.26    1.90 
  -4  -6   4   10.14    0.43 
  -4  -6   4   10.12    0.43 
   4  -6  -4    8.37    0.41 
  -4  -6   4    9.68    0.48 
  -4   6   4    9.36    0.41 
  -4   6   4    9.77    0.38 
   4   6  -4    9.65    0.38 
   4   6  -4    9.33    0.50 
  -4   6   4    9.64    0.40 
   4   6  -4    9.72    0.45 
  -4   6   4    9.73    0.43 
   4   6  -4    9.73    0.45 
   4   6  -4    7.48    0.54 
   4   6  -4    9.92    0.42 
  -4   6   4    9.65    0.43 
  -4   6   4    9.87    0.49 
   4   6  -4    9.56    0.43 
  -4   6   4    9.63    0.41 
   4   6  -4    9.12    0.42 
  -4   6   4    9.77    0.43 
   4   6  -4    9.79    0.42 
   4   6  -4    9.78    0.37 
   4   6  -4    9.86    0.39 
   3  -6  -4   43.82    1.61 
   3  -6  -4   41.75    1.66 
  -3  -6   4   43.63    1.61 
   3   6  -4   46.12    1.64 
  -3   6   4   42.11    1.60 
  -3   6   4   45.42    1.64 
   3   6  -4   44.08    1.57 
  -3   6   4   44.16    1.60 
  -3   6   4   42.82    1.67 
  -3   6   4   44.93    1.60 
  -3   6   4   42.01    1.63 
   3   6  -4   46.04    1.61 
   3   6  -4   44.98    1.64 
   3   6  -4   44.31    1.61 
  -3   6   4   45.93    1.61 
  -3   6   4   42.28    1.68 
  -3   6   4   45.34    1.64 
   3   6  -4   44.94    1.68 
   3   6  -4   44.22    1.66 
   3   6  -4   43.70    1.60 
   3   6  -4   43.91    1.60 
  -3   6   4   43.92    1.57 
   2  -6  -4    6.45    0.44 
   2  -6  -4    7.88    0.44 
   2  -6  -4    6.93    0.44 
   2  -6  -4    7.50    0.37 
  -2   6   4    7.13    0.43 
   2   6  -4    7.40    0.37 
  -2   6   4    7.24    0.32 
   2   6  -4    7.72    0.34 
   2   6  -4    7.85    0.39 
   2   6  -4    7.69    0.35 
  -2   6   4    7.67    0.37 
  -2   6   4    8.07    0.40 
  -2   6   4    7.46    0.36 
  -2   6   4    7.99    0.46 
  -2   6   4    7.59    0.33 
   2   6  -4    7.48    0.31 
  -2   6   4    7.53    0.36 
   2   6  -4    8.04    0.36 
  -2   6   4    7.34    0.36 
  -2   6   4    8.15    0.40 
  -2   6   4    7.38    0.39 
   2   6  -4    7.77    0.37 
  -2   6   4    7.96    0.38 
   1  -6  -4   29.38    1.20 
   1  -6  -4   28.44    1.08 
   1  -6  -4   28.19    1.23 
   1  -6  -4   25.74    1.14 
   1  -6  -4   29.06    1.14 
  -1  -6   4   26.26    1.09 
   1  -6  -4   29.44    1.17 
  -1   6   4   28.91    1.17 
   1   6  -4   28.69    1.05 
  -1   6   4   27.64    1.05 
   1   6  -4   26.90    1.04 
  -1   6   4   27.37    1.06 
   1   6  -4   29.91    1.04 
  -1   6   4   28.61    1.05 
  -1   6   4   29.30    1.13 
  -1   6   4   26.93    1.11 
  -1   6   4   27.47    1.10 
  -1   6   4   28.41    1.09 
  -1   6   4   28.67    1.13 
  -1   6   4   30.03    1.06 
  -1   6   4   28.83    1.12 
   1   6  -4   29.28    1.06 
  -1   6   4   28.82    1.09 
  -1   6   4   26.96    1.03 
  -1   6   4   28.39    1.12 
   1   6  -4   30.13    1.13 
   1   6  -4   28.93    1.08 
  -1   6   4   28.75    1.04 
  -1   6   4   27.45    1.04 
  -1   6   4   28.09    1.11 
   1   6  -4   29.60    1.01 
  -1   6   4   28.76    1.20 
  -1   6   4   27.75    1.07 
   0  -6  -4   16.94    0.70 
   0  -6  -4   17.68    0.78 
   0  -6  -4   15.25    0.75 
   0  -6  -4   16.99    0.81 
   0  -6  -4   16.99    0.85 
   0  -6  -4   16.14    0.70 
   0   6   4   16.90    0.70 
   0   6  -4   17.54    0.62 
   0   6   4   16.61    0.66 
   0   6   4   18.06    0.70 
   0   6   4   16.79    0.70 
   0   6   4   16.07    0.72 
   0   6  -4   16.85    0.64 
   0   6   4   16.83    0.64 
   0   6   4   17.56    0.75 
   0   6   4   17.18    0.68 
   0   6   4   15.77    0.68 
   0   6   4   17.67    0.78 
   0   6   4   17.52    0.68 
   0   6   4   18.21    0.84 
   0   6   4   17.45    0.74 
   0   6   4   16.89    0.72 
   0   6   4   17.34    0.75 
   0   6   4   16.46    0.69 
   0   6   4   17.09    0.66 
  -1  -6  -4    4.51    0.33 
  -1  -6  -4    4.04    0.37 
  -1  -6  -4    4.06    0.25 
  -1  -6  -4    3.41    0.33 
  -1  -6  -4    3.78    0.31 
  -1  -6  -4    4.17    0.25 
   1   6   4    4.04    0.32 
   1   6   4    3.23    0.31 
   1   6   4    4.21    0.30 
   1   6   4    4.27    0.30 
   1   6   4    3.88    0.31 
   1   6   4    3.98    0.20 
   1   6   4    3.98    0.28 
   1   6   4    3.94    0.25 
   1   6   4    4.16    0.26 
   1   6   4    4.20    0.24 
   1   6   4    4.13    0.30 
   1   6   4    3.84    0.26 
   1   6   4    3.98    0.36 
   1   6   4    3.73    0.28 
  -2  -6  -4    6.71    0.47 
  -2  -6  -4    7.85    0.37 
  -2  -6  -4    7.96    0.43 
  -2  -6  -4    8.33    0.38 
  -2  -6  -4    7.22    0.49 
  -2  -6  -4    7.86    0.45 
  -2  -6  -4    8.36    0.46 
  -2  -6  -4    8.04    0.40 
   2   6   4    8.03    0.40 
   2   6   4    8.20    0.38 
   2   6   4    8.00    0.39 
   2   6   4    7.64    0.42 
   2   6   4    8.04    0.41 
   2   6   4    8.18    0.41 
   2   6   4    7.98    0.46 
   2   6   4    8.30    0.34 
   2   6   4    8.55    0.43 
   2   6   4    8.25    0.39 
   2   6   4    8.49    0.53 
   2   6   4    8.25    0.33 
   2   6   4    8.27    0.46 
  -3  -6  -4    3.96    0.28 
  -3  -6  -4    3.70    0.19 
  -3  -6  -4    4.23    0.24 
  -3  -6  -4    3.59    0.30 
   3   6   4    4.12    0.24 
   3   6   4    3.70    0.19 
   3   6   4    3.90    0.30 
   3   6   4    4.06    0.27 
   3   6   4    3.88    0.25 
   3   6   4    3.90    0.28 
   3   6   4    3.73    0.26 
   3   6   4    3.95    0.38 
   3   6   4    3.88    0.25 
   3   6   4    3.79    0.28 
   3   6   4    3.81    0.32 
   3   6   4    4.35    0.25 
  -4  -6  -4    2.86    0.23 
  -4  -6  -4    3.13    0.19 
  -4  -6  -4    2.85    0.20 
  -4  -6  -4    3.02    0.23 
  -4  -6  -4    3.14    0.13 
  -4  -6  -4    2.83    0.49 
   4   6   4    2.99    0.20 
   4   6   4    3.07    0.24 
   4   6   4    3.33    0.25 
   4   6   4    3.12    0.21 
   4   6   4    3.21    0.19 
   4   6   4    3.03    0.19 
   4   6   4    3.13    0.21 
   4   6   4    3.15    0.22 
  -4  -7   4   15.00    0.60 
  -4  -7   4   15.89    0.60 
   4  -7  -4   16.14    0.66 
  -4   7   4   17.38    0.62 
   4   7  -4   13.61    0.64 
  -4   7   4   16.77    0.61 
   4   7  -4   16.84    0.61 
   4   7  -4   16.44    0.60 
   4   7  -4   15.51    0.57 
  -4   7   4   16.39    0.59 
   4   7  -4   15.22    0.57 
   3  -7  -4    2.39    0.16 
  -3  -7   4    2.66    0.16 
  -3   7   4    2.16    0.14 
  -3   7   4    2.06    0.15 
   3   7  -4    2.27    0.13 
   3   7  -4    2.14    0.14 
   3   7  -4    1.86    0.14 
  -3   7   4    2.06    0.15 
   3   7  -4    2.01    0.11 
  -3   7   4    2.06    0.16 
   3   7  -4    2.37    0.15 
  -3   7   4    2.05    0.12 
   3   7  -4    2.07    0.15 
  -3   7   4    2.11    0.12 
  -3   7   4    2.04    0.14 
   2  -7  -4    2.37    0.17 
   2  -7  -4    2.38    0.22 
  -2   7   4    2.41    0.18 
  -2   7   4    2.36    0.14 
   2   7  -4    2.53    0.14 
  -2   7   4    2.29    0.14 
   2   7  -4    2.57    0.16 
  -2   7   4    2.60    0.17 
   2   7  -4    2.50    0.15 
  -2   7   4    2.50    0.16 
  -2   7   4    2.48    0.17 
   2   7  -4    2.41    0.13 
  -2   7   4    2.39    0.19 
   2   7  -4    2.52    0.16 
   1  -7  -4    3.37    0.26 
   1  -7  -4    3.55    0.21 
   1  -7  -4    3.41    0.22 
  -1   7   4    3.73    0.26 
  -1   7   4    3.44    0.23 
   1   7  -4    3.41    0.16 
   1   7  -4    3.60    0.18 
   1   7  -4    3.56    0.15 
  -1   7   4    3.32    0.21 
  -1   7   4    3.41    0.23 
  -1   7   4    3.41    0.18 
  -1   7   4    3.57    0.21 
  -1   7   4    3.21    0.22 
  -1   7   4    3.60    0.17 
  -1   7   4    3.47    0.23 
  -1   7   4    3.14    0.21 
   0  -7  -4   10.27    0.44 
   0  -7  -4    9.84    0.49 
   0  -7  -4   10.46    0.44 
   0   7   4   10.05    0.38 
   0   7   4   10.04    0.44 
   0   7   4    9.15    0.45 
   0   7   4    9.78    0.51 
   0   7   4   10.37    0.39 
   0   7   4    9.43    0.44 
   0   7   4    9.18    0.46 
   0   7   4    9.95    0.43 
   0   7   4   11.14    0.43 
   0   7   4    9.43    0.40 
   0   7   4   10.90    0.47 
  -1  -7  -4    2.87    0.19 
  -1  -7  -4    2.75    0.24 
  -1  -7  -4    2.98    0.19 
   1   7   4    3.43    0.24 
   1   7   4    2.81    0.16 
   1   7   4    2.51    0.25 
   1   7   4    2.44    0.16 
   1   7   4    2.59    0.18 
   1   7   4    2.84    0.20 
   1   7   4    2.91    0.15 
   1   7   4    2.72    0.21 
   1   7   4    2.64    0.20 
   1   7   4    3.00    0.21 
   1   7   4    2.87    0.21 
   1   7   4    2.89    0.17 
  -2  -7  -4    3.77    0.25 
  -2  -7  -4    3.81    0.21 
  -2  -7  -4    3.95    0.19 
  -2  -7  -4    3.88    0.27 
  -2  -7  -4    3.95    0.22 
   2   7   4    3.89    0.20 
   2   7   4    3.82    0.18 
   2   7   4    4.49    0.24 
   2   7   4    3.64    0.19 
   2   7   4    3.55    0.22 
   2   7   4    3.84    0.20 
   2   7   4    3.80    0.29 
   2   7   4    4.23    0.24 
   2   7   4    3.70    0.24 
   2   7   4    3.71    0.24 
  -3  -7  -4   14.60    0.53 
  -3  -7  -4   13.63    0.56 
  -3  -7  -4   14.17    0.50 
  -3  -7  -4   13.85    0.58 
   3   7   4   14.53    0.60 
   3   7   4   13.45    0.51 
   3   7   4   14.19    0.54 
   3   7   4   13.43    0.55 
   3   7   4   14.09    0.57 
   3   7   4   11.62    0.52 
   3   7   4   13.05    0.64 
  -8   0   5    3.64    0.20 
  -8   0   5    3.53    0.23 
   8   0  -5    3.64    0.16 
  -8   0   5    2.86    0.25 
  -8   0   5    3.40    0.19 
  -8   0   5    3.78    0.20 
  -8   0   5    3.68    0.21 
  -8   0   5    3.49    0.22 
   8   0  -5    3.38    0.24 
   8   0  -5    3.76    0.20 
   8   0  -5    3.38    0.23 
   8   0  -5    3.65    0.21 
  -8   0   5    3.22    0.19 
   8   0  -5    3.48    0.23 
  -8   0   5    3.16    0.18 
  -8   0   5    3.58    0.22 
   8   0  -5    3.57    0.24 
  -8   0   5    3.58    0.19 
  -7   0   5    8.22    0.46 
   7   0  -5    7.89    0.45 
   7   0  -5    8.61    0.35 
  -7   0   5    8.54    0.42 
  -7   0   5    7.82    0.39 
  -7   0   5    8.85    0.41 
   7   0  -5    8.70    0.47 
  -7   0   5    8.67    0.49 
  -7   0   5    8.35    0.38 
   7   0  -5    8.62    0.44 
  -7   0   5    8.24    0.43 
   7   0  -5    8.76    0.50 
  -7   0   5    8.67    0.39 
   7   0  -5    8.88    0.41 
  -7   0   5    8.82    0.42 
  -7   0   5    7.78    0.40 
  -6   0   5    2.24    0.27 
   6   0  -5    2.59    0.36 
  -6   0   5    2.51    0.24 
  -6   0   5    2.40    0.32 
  -6   0   5    2.49    0.46 
   6   0  -5    2.61    0.30 
  -6   0   5    2.79    0.26 
  -6   0   5    2.43    0.23 
  -6   0   5    2.27    0.25 
  -6   0   5    2.31    0.21 
   6   0  -5    2.49    0.27 
  -6   0   5    2.30    0.29 
  -6   0   5    2.67    0.22 
  -6   0   5    2.18    0.27 
  -6   0   5    2.39    0.25 
   6   0  -5    2.40    0.26 
   6   0  -5    2.24    0.18 
   6   0  -5    2.43    0.27 
  -6   0   5    2.37    0.25 
   6   0  -5    2.68    0.31 
   6   0  -5    2.54    0.26 
   6   0  -5    2.47    0.28 
   6   0  -5    2.79    0.46 
   6   0  -5    2.58    0.23 
   5   0  -5   12.39    0.61 
   5   0  -5   13.00    0.62 
  -5   0   5   13.14    0.68 
   5   0  -5   12.80    0.67 
   5   0  -5   11.83    0.71 
   5   0  -5   12.63    0.66 
   5   0  -5   11.34    0.59 
   5   0  -5   13.03    0.70 
  -5   0   5   12.24    0.61 
   5   0  -5   11.92    0.65 
  -5   0   5   13.91    0.64 
   5   0  -5   12.52    1.52 
  -5   0   5   12.54    0.59 
  -5   0   5   13.44    0.66 
   5   0  -5   12.03    0.60 
   4   0  -5  100.55    3.50 
  -4   0   5  100.01    3.48 
  -4   0   5   97.19    3.58 
  -4   0   5  102.51    3.54 
  -4   0   5   96.55    3.56 
  -4   0   5   98.50    3.52 
   4   0  -5  101.85    3.51 
   4   0  -5   98.73    3.61 
  -4   0   5   89.21    3.48 
   4   0  -5   90.75    3.61 
   4   0  -5   98.42    3.52 
   4   0  -5   83.79    3.56 
  -4   0   5  104.00    3.60 
   4   0  -5   98.62    3.58 
   4   0  -5  101.22    4.07 
   4   0  -5   98.55    3.55 
  -3   0   5   19.36    0.83 
  -3   0   5   20.17    1.24 
  -3   0   5   20.59    0.83 
  -3   0   5   18.61    0.85 
  -3   0   5   19.29    0.87 
  -3   0   5   18.41    0.80 
   3   0  -5   21.10    0.82 
  -3   0   5   18.51    0.86 
   3   0  -5   20.16    0.84 
  -3   0   5   18.91    0.86 
   3   0  -5   18.95    0.86 
   3   0  -5   18.81    0.82 
   3   0  -5   19.71    0.79 
   3   0  -5   18.74    0.86 
   3   0  -5   19.92    0.88 
  -3   0   5   19.06    0.87 
  -3   0   5   20.13    0.80 
  -3   0   5   18.96    0.91 
   2   0  -5  157.38    5.78 
  -2   0   5  164.84    5.81 
   2   0  -5  154.78    5.95 
   2   0  -5  166.28    5.87 
  -2   0   5  159.93    5.83 
  -2   0   5  173.58    5.90 
   2   0  -5  166.80    5.81 
  -2   0   5  164.28    5.84 
   2   0  -5  170.76    5.88 
   2   0  -5  173.43    5.83 
  -2   0   5  176.29    5.95 
   2   0  -5  172.06    5.86 
  -2   0   5  165.88    5.88 
  -2   0   5  156.08    6.31 
   1   0  -5   82.50    2.96 
  -1   0   5   79.53    3.00 
   1   0  -5   77.45    2.91 
   1   0  -5   80.69    2.99 
  -1   0   5   81.84    3.06 
   1   0  -5   82.47    2.99 
  -1   0   5   83.60    3.03 
  -1   0   5   85.00    2.98 
  -1   0   5   87.32    3.02 
   1   0  -5   83.92    3.10 
  -1   0   5   83.89    3.03 
  -1   0   5   86.78    3.45 
  -1   0   5   80.40    2.93 
   1   0  -5   83.37    2.94 
   0   0   5    0.61    0.15 
   0   0   5    0.78    0.29 
   0   0   5    0.51    0.16 
   0   0   5    0.60    0.13 
   0   0   5    0.80    0.16 
   0   0   5    0.87    0.17 
   0   0  -5    0.64    0.13 
   0   0  -5    0.84    0.14 
   0   0  -5    0.63    0.13 
   0   0   5    0.53    0.14 
   0   0   5    0.57    0.10 
   0   0  -5    0.67    0.12 
   0   0  -5    0.62    0.16 
   1   0   5   10.86    0.50 
  -1   0  -5   11.03    0.50 
   1   0   5   11.05    0.54 
   1   0   5   11.70    0.59 
  -1   0  -5   10.54    0.59 
   1   0   5   10.37    0.47 
   1   0   5   10.10    0.52 
   1   0   5   11.25    0.83 
   1   0   5   10.19    0.53 
   1   0   5   10.77    0.57 
  -1   0  -5    9.54    0.46 
   2   0   5   26.92    1.09 
  -2   0  -5   26.03    1.06 
   2   0   5   27.89    1.19 
   2   0   5   26.63    1.13 
  -2   0  -5   29.22    1.22 
   2   0   5   27.80    1.06 
   2   0   5   27.80    1.16 
   2   0   5   26.89    1.19 
  -2   0  -5   26.23    1.07 
   2   0   5   28.70    1.53 
   3   0   5    1.63    0.27 
   3   0   5    1.76    0.21 
  -3   0  -5    1.89    0.20 
   3   0   5    2.04    0.20 
   3   0   5    2.02    0.27 
   3   0   5    1.71    0.26 
   3   0   5    1.95    0.25 
  -3   0  -5    2.50    0.20 
   3   0   5    1.56    0.21 
  -3   0  -5    1.63    0.14 
  -3   0  -5    1.86    0.20 
  -3   0  -5    2.11    0.28 
   3   0   5    1.16    0.39 
  -4   0  -5    0.02    0.09 
  -4   0  -5    0.07    0.04 
  -4   0  -5    0.07    0.03 
   4   0   5   -0.01    0.13 
  -4   0  -5    0.12    0.09 
   4   0   5    0.05    0.09 
  -4   0  -5    0.02    0.12 
   4   0   5    0.06    0.14 
  -4   0  -5    0.18    0.12 
  -4   0  -5    0.03    0.13 
   4   0   5    0.18    0.14 
   4   0   5    0.17    0.14 
   5   0   5    1.31    0.16 
  -5   0  -5    1.39    0.16 
  -5   0  -5    1.62    0.25 
  -5   0  -5    1.32    0.17 
  -5   0  -5    1.37    0.13 
  -5   0  -5    1.37    0.16 
  -5   0  -5    1.34    0.17 
   5   0   5    1.18    0.25 
   5   0   5    1.39    0.21 
  -5   0  -5    1.38    0.17 
  -5   0  -5    1.05    0.13 
  -5   0  -5    1.34    0.12 
  -5   0  -5    1.27    0.19 
  -5   0  -5    1.47    0.16 
  -6   0  -5   64.25    2.49 
  -6   0  -5   60.71    2.35 
   6   0   5   67.99    2.35 
  -6   0  -5   61.32    2.32 
  -6   0  -5   69.08    2.36 
   6   0   5   65.44    2.41 
  -6   0  -5   65.78    2.48 
  -6   0  -5   64.46    2.30 
   6   0   5   67.97    2.35 
  -6   0  -5   66.76    2.32 
  -6   0  -5   68.84    2.29 
  -8  -1   5    2.47    0.20 
  -8  -1   5    2.57    0.17 
  -8  -1   5    2.26    0.17 
  -8  -1   5    2.23    0.16 
   8  -1  -5    2.45    0.20 
   8  -1  -5    2.21    0.12 
  -8  -1   5    2.35    0.11 
   8  -1  -5    2.26    0.16 
   8  -1  -5    2.46    0.18 
  -8  -1   5    2.64    0.22 
  -8  -1   5    2.66    0.18 
  -8  -1   5    2.18    0.16 
  -8   1   5    2.60    0.18 
   8   1  -5    2.64    0.20 
   8   1  -5    2.61    0.19 
  -8   1   5    2.16    0.13 
   8   1  -5    2.23    0.14 
  -8   1   5    2.36    0.16 
   8   1  -5    2.30    0.16 
   8   1  -5    2.72    0.20 
   8   1  -5    2.35    0.18 
   8   1  -5    2.34    0.11 
  -8   1   5    1.99    0.20 
  -8   1   5    2.31    0.15 
  -8   1   5    2.38    0.13 
  -8   1   5    2.23    0.17 
  -8   1   5    2.42    0.15 
   8   1  -5    1.89    0.25 
  -8   1   5    2.09    0.13 
   8   1  -5    2.47    0.30 
  -7  -1   5    1.19    0.18 
  -7  -1   5    0.99    0.23 
   7  -1  -5    1.01    0.19 
  -7  -1   5    1.13    0.22 
   7  -1  -5    0.84    0.16 
   7  -1  -5    0.98    0.13 
   7  -1  -5    1.12    0.18 
  -7  -1   5    0.98    0.18 
   7  -1  -5    0.91    0.14 
  -7  -1   5    1.14    0.17 
   7  -1  -5    0.97    0.21 
  -7  -1   5    1.02    0.15 
  -7  -1   5    1.14    0.19 
   7   1  -5    1.00    0.15 
   7   1  -5    0.92    0.10 
  -7   1   5    0.98    0.09 
  -7   1   5    0.98    0.18 
  -7   1   5    1.01    0.16 
  -7   1   5    0.72    0.15 
  -7   1   5    1.07    0.15 
  -7   1   5    0.88    0.21 
   7   1  -5    0.70    0.19 
   7   1  -5    1.06    0.18 
  -7   1   5    1.21    0.18 
  -7   1   5    0.98    0.16 
  -7   1   5    1.05    0.15 
   7   1  -5    1.08    0.19 
  -7   1   5    1.11    0.19 
   7   1  -5    1.10    0.20 
  -7   1   5    1.01    0.15 
  -7   1   5    0.95    0.18 
   7   1  -5    0.85    0.19 
  -6  -1   5   51.44    1.85 
  -6  -1   5   48.91    1.86 
  -6  -1   5   50.98    1.79 
   6  -1  -5   50.06    1.91 
  -6  -1   5   50.94    1.85 
   6  -1  -5   53.17    1.88 
   6  -1  -5   47.23    1.90 
   6  -1  -5   51.54    1.92 
   6  -1  -5   50.34    1.83 
  -6  -1   5   49.56    1.89 
   6  -1  -5   50.81    1.82 
  -6  -1   5   51.38    1.89 
  -6  -1   5   47.82    1.87 
   6  -1  -5   50.83    1.96 
  -6  -1   5   49.20    1.74 
   6  -1  -5   49.40    1.91 
  -6  -1   5   49.88    1.86 
   6  -1  -5   48.70    1.82 
  -6  -1   5   51.76    1.92 
  -6  -1   5   47.82    1.97 
  -6   1   5   51.24    1.85 
   6   1  -5   48.10    1.89 
   6   1  -5   45.77    2.10 
  -6   1   5   50.09    1.87 
  -6   1   5   49.48    1.82 
  -6   1   5   50.15    1.89 
  -6   1   5   49.35    1.91 
   6   1  -5   49.61    2.01 
  -6   1   5   48.00    1.83 
  -6   1   5   49.67    1.92 
  -6   1   5   51.41    1.86 
  -6   1   5   47.84    1.85 
   6   1  -5   49.74    1.88 
   6   1  -5   51.99    2.02 
  -6   1   5   49.89    1.82 
   6   1  -5   48.35    1.81 
   6   1  -5   51.09    1.91 
  -6   1   5   50.39    1.82 
   6   1  -5   48.35    1.86 
   6   1  -5   50.32    1.76 
  -6   1   5   47.86    1.81 
   6   1  -5   50.11    1.91 
   6   1  -5   47.75    1.83 
   5  -1  -5    0.20    0.14 
   5  -1  -5    0.21    0.13 
  -5  -1   5    0.29    0.12 
  -5  -1   5    0.21    0.11 
   5  -1  -5    0.05    0.13 
   5  -1  -5    0.39    0.17 
  -5  -1   5    0.23    0.15 
  -5  -1   5    0.31    0.14 
   5  -1  -5    0.09    0.12 
  -5  -1   5    0.16    0.13 
   5  -1  -5    0.56    0.20 
   5  -1  -5    0.26    0.15 
   5  -1  -5    0.31    0.15 
   5  -1  -5    0.12    0.16 
  -5  -1   5    0.49    0.16 
   5   1  -5    0.50    0.15 
  -5   1   5    0.15    0.12 
  -5   1   5    0.15    0.12 
   5   1  -5    0.16    0.13 
   5   1  -5    0.31    0.15 
  -5   1   5    0.47    0.16 
  -5   1   5    0.15    0.11 
  -5   1   5    0.12    0.10 
   5   1  -5    0.28    0.17 
   5   1  -5    0.19    0.15 
   4  -1  -5    4.20    0.57 
  -4  -1   5    3.34    0.32 
  -4  -1   5    4.33    0.31 
  -4  -1   5    4.10    0.28 
   4  -1  -5    3.77    0.33 
   4  -1  -5    3.68    0.32 
  -4  -1   5    3.72    0.34 
   4  -1  -5    4.14    0.30 
   4  -1  -5    4.02    0.29 
  -4  -1   5    4.35    0.30 
   4  -1  -5    4.55    0.37 
   4  -1  -5    4.02    0.36 
   4  -1  -5    4.62    0.38 
   4  -1  -5    4.11    0.31 
  -4  -1   5    3.94    0.34 
  -4  -1   5    3.74    0.59 
  -4  -1   5    4.36    0.38 
  -4  -1   5    4.33    0.51 
  -4  -1   5    4.18    0.35 
  -4  -1   5    4.08    0.29 
   4  -1  -5    4.38    0.30 
  -4  -1   5    4.33    0.31 
   4   1  -5    3.98    0.33 
  -4   1   5    3.77    0.27 
  -4   1   5    4.54    0.31 
  -4   1   5    4.25    0.30 
  -4   1   5    4.65    0.29 
  -4   1   5    4.67    0.34 
   4   1  -5    4.51    0.30 
   4   1  -5    4.06    0.26 
  -4   1   5    4.26    0.35 
   4   1  -5    4.08    0.32 
   4   1  -5    4.15    0.35 
   3  -1  -5   19.20    0.90 
  -3  -1   5   19.41    0.87 
  -3  -1   5   19.31    0.83 
  -3  -1   5   18.82    0.84 
   3  -1  -5   19.40    0.89 
   3  -1  -5   19.86    0.86 
   3  -1  -5   18.70    0.83 
   3  -1  -5   19.23    0.85 
  -3  -1   5   19.24    0.81 
  -3  -1   5   20.48    0.89 
   3  -1  -5   18.56    0.81 
  -3  -1   5   19.99    1.24 
   3  -1  -5   19.01    0.89 
  -3  -1   5   19.85    0.93 
   3  -1  -5   20.58    0.83 
  -3  -1   5   19.42    0.82 
   3  -1  -5   18.76    0.89 
   3  -1  -5   22.19    1.26 
   3  -1  -5   18.85    0.81 
  -3  -1   5   21.05    0.85 
   3  -1  -5   19.35    0.82 
  -3  -1   5   20.49    0.91 
  -3   1   5   18.73    0.79 
   3   1  -5   20.35    0.85 
  -3   1   5   18.90    0.83 
   3   1  -5   20.18    0.87 
  -3   1   5   19.79    0.79 
   3   1  -5   20.12    0.83 
  -3   1   5   18.96    0.81 
   3   1  -5   19.25    0.80 
  -3   1   5   19.53    0.88 
   3   1  -5   20.53    0.88 
   3   1  -5   19.70    0.97 
  -3   1   5   19.10    0.85 
  -3   1   5   20.21    0.88 
   2  -1  -5   68.85    2.58 
   2  -1  -5   67.35    2.55 
  -2  -1   5   70.12    2.55 
   2  -1  -5   68.05    2.91 
  -2  -1   5   67.75    2.55 
   2  -1  -5   66.07    2.51 
  -2  -1   5   70.18    2.59 
  -2  -1   5   69.04    2.46 
  -2  -1   5   70.11    2.97 
  -2  -1   5   67.44    2.50 
  -2  -1   5   69.22    2.57 
   2  -1  -5   69.46    2.55 
   2  -1  -5   68.58    2.49 
   2  -1  -5   70.33    2.49 
   2  -1  -5   66.28    2.48 
  -2   1   5   69.60    2.55 
  -2   1   5   68.37    3.00 
  -2   1   5   69.05    2.51 
  -2   1   5   69.00    2.54 
  -2   1   5   67.13    2.48 
  -2   1   5   70.77    2.57 
  -2   1   5   67.97    2.54 
  -2   1   5   67.52    2.47 
  -2   1   5   68.81    2.50 
   2   1  -5   68.36    2.46 
   2   1  -5   69.04    2.63 
  -2   1   5   68.40    2.61 
   2   1  -5   66.10    2.52 
   2   1  -5   69.76    2.54 
   2   1  -5   67.71    2.52 
   2   1  -5   73.03    2.49 
   1  -1  -5   91.51    3.27 
   1  -1  -5   94.59    3.30 
  -1  -1   5   93.15    3.33 
  -1  -1   5   87.49    3.70 
  -1  -1   5   93.23    3.34 
   1  -1  -5   90.51    3.25 
  -1  -1   5   91.47    3.37 
   1  -1  -5   86.62    3.31 
   1  -1  -5   85.72    3.32 
  -1  -1   5   91.17    3.28 
  -1  -1   5   91.82    3.24 
  -1  -1   5   91.46    3.36 
  -1   1   5   92.49    3.39 
  -1   1   5   90.02    3.29 
  -1   1   5   90.68    3.33 
  -1   1   5   87.34    3.29 
   1   1  -5   91.91    3.25 
  -1   1   5   98.08    3.36 
  -1   1   5   94.35    3.80 
  -1   1   5   96.01    3.33 
   1   1  -5   94.48    3.29 
   1   1  -5   94.19    3.40 
  -1   1   5   91.89    3.27 
   1   1  -5   92.24    3.69 
  -1   1   5   92.85    3.35 
   1   1  -5   92.05    3.31 
   0  -1  -5   76.35    2.83 
   0  -1  -5   75.23    2.78 
   0  -1   5   78.63    2.79 
   0  -1   5   80.40    2.91 
   0  -1  -5   75.07    2.87 
   0  -1   5   80.16    2.90 
   0  -1  -5   78.23    2.97 
   0  -1   5   81.35    2.88 
   0  -1   5   77.36    2.82 
   0  -1  -5   78.06    2.81 
   0  -1   5   77.93    2.82 
   0  -1   5   81.72    3.25 
   0   1  -5   80.93    3.05 
   0   1  -5   80.25    2.93 
   0   1   5   77.00    2.84 
   0   1   5   77.71    2.85 
   0   1   5   79.09    2.82 
   0   1   5   79.08    2.88 
   0   1   5   80.38    3.35 
   0   1   5   79.25    2.95 
   0   1   5   80.94    2.90 
   0   1   5   73.52    2.88 
   0   1  -5   81.76    2.85 
  -1  -1  -5  131.49    4.51 
  -1  -1  -5  121.33    4.43 
   1  -1   5  124.35    4.86 
   1  -1   5  126.75    4.54 
  -1  -1  -5  127.57    4.46 
   1  -1   5  137.15    4.53 
  -1  -1  -5  123.26    4.61 
   1  -1   5  129.73    4.45 
   1  -1   5  126.79    4.53 
   1  -1   5  125.64    4.41 
   1  -1   5  127.94    4.50 
   1  -1   5  124.97    4.44 
  -1   1  -5  127.80    4.56 
   1   1   5  122.10    4.43 
   1   1   5  129.15    4.48 
   1   1   5  123.35    4.52 
   1   1   5  120.81    4.54 
   1   1   5  115.70    4.95 
  -1   1  -5  122.77    4.37 
   1   1   5  131.47    4.59 
   2  -1   5   29.92    1.58 
   2  -1   5   30.90    1.27 
   2  -1   5   32.84    1.18 
   2  -1   5   31.92    1.21 
  -2  -1  -5   31.90    1.25 
  -2  -1  -5   32.07    1.38 
   2  -1   5   31.46    1.20 
   2  -1   5   29.35    1.25 
   2  -1   5   28.88    1.28 
   2  -1   5   29.73    1.23 
  -2  -1  -5   31.92    1.18 
  -2  -1  -5   31.72    1.21 
   2   1   5   31.47    1.20 
   2   1   5   31.86    1.33 
  -2   1  -5   30.70    1.18 
  -2   1  -5   31.44    1.31 
   2   1   5   29.23    1.27 
  -2   1  -5   31.09    1.09 
   2   1   5   30.46    1.33 
   2   1   5   33.56    1.75 
  -2   1  -5   29.47    1.16 
  -2   1  -5   31.55    1.09 
   2   1   5   30.59    1.23 
  -3  -1  -5    1.20    0.19 
  -3  -1  -5    1.50    0.26 
   3  -1   5    1.17    0.18 
  -3  -1  -5    1.30    0.19 
   3  -1   5    1.02    0.20 
  -3  -1  -5    1.34    0.27 
   3  -1   5    1.13    0.15 
  -3   1  -5    1.35    0.15 
  -3   1  -5    1.33    0.14 
   3   1   5    1.11    0.17 
   3   1   5    1.10    0.23 
   3   1   5    0.97    0.22 
  -3   1  -5    1.53    0.24 
   3   1   5    0.81    0.19 
   3   1   5    1.33    0.43 
   3   1   5    1.15    0.19 
  -3   1  -5    1.23    0.16 
   3   1   5    1.27    0.26 
  -4  -1  -5   18.03    0.86 
   4  -1   5   18.69    0.85 
  -4  -1  -5   20.15    0.97 
  -4  -1  -5   15.04    0.84 
  -4  -1  -5   19.31    0.83 
   4  -1   5   19.72    0.81 
  -4  -1  -5   19.00    0.77 
  -4   1  -5   19.24    0.75 
  -4   1  -5   19.76    0.74 
   4   1   5   19.61    0.98 
  -4   1  -5   19.37    1.26 
  -4   1  -5   21.05    0.81 
   4   1   5   20.96    0.91 
  -4   1  -5   18.82    0.77 
   4   1   5   19.48    0.87 
   4   1   5   20.44    0.92 
   4   1   5   19.34    0.86 
  -4   1  -5   16.94    1.10 
   4   1   5   17.93    0.82 
  -4   1  -5   20.21    0.77 
  -5  -1  -5    5.90    0.31 
  -5  -1  -5    5.74    0.26 
  -5  -1  -5    6.12    0.32 
  -5  -1  -5    6.32    0.33 
  -5  -1  -5    5.81    0.28 
  -5  -1  -5    6.24    0.37 
  -5  -1  -5    5.90    0.34 
  -5  -1  -5    6.32    0.32 
  -5  -1  -5    5.96    0.30 
  -5  -1  -5    6.32    0.37 
  -5  -1  -5    5.62    0.37 
  -5  -1  -5    6.13    0.31 
  -5  -1  -5    6.28    0.35 
  -5  -1  -5    6.01    0.35 
   5   1   5    5.99    0.44 
  -5   1  -5    5.66    0.35 
   5   1   5    6.27    0.40 
  -5   1  -5    5.33    0.34 
  -5   1  -5    6.15    0.30 
   5   1   5    6.32    0.32 
  -5   1  -5    6.20    0.32 
   5   1   5    6.36    0.33 
  -5   1  -5    6.49    0.27 
  -5   1  -5    5.78    0.34 
  -5   1  -5    6.20    0.30 
  -5   1  -5    6.32    0.33 
  -6  -1  -5   19.56    0.78 
  -6  -1  -5   17.38    0.70 
  -6  -1  -5   16.58    0.72 
  -6  -1  -5   17.70    0.70 
  -6  -1  -5   16.84    0.65 
  -6  -1  -5   18.15    0.66 
  -6  -1  -5   17.66    0.67 
  -6  -1  -5   17.68    0.69 
   6  -1   5   16.45    0.69 
  -6  -1  -5   18.80    0.67 
   6   1   5   19.81    0.71 
  -6   1  -5   18.20    0.70 
  -6   1  -5   18.04    0.65 
   6   1   5   18.48    0.71 
  -6   1  -5   18.36    0.67 
  -6   1  -5   18.24    0.70 
   6   1   5   16.05    0.75 
  -8  -2   5   16.19    0.63 
  -8  -2   5   15.40    1.37 
  -8  -2   5   14.98    0.54 
  -8  -2   5   14.82    0.57 
   8  -2  -5   13.11    0.61 
  -8   2   5   15.69    0.57 
  -8   2   5   13.14    0.59 
  -8   2   5   13.78    0.55 
   8   2  -5   13.52    0.59 
  -8   2   5   14.02    0.60 
   8   2  -5   15.16    0.58 
  -7  -2   5    1.42    0.18 
  -7  -2   5    1.37    0.17 
  -7  -2   5    1.62    0.25 
   7  -2  -5    1.37    0.19 
   7  -2  -5    1.32    0.14 
   7  -2  -5    1.34    0.15 
   7  -2  -5    1.40    0.19 
   7  -2  -5    1.51    0.18 
  -7  -2   5    0.95    0.27 
  -7  -2   5    1.47    0.19 
  -7  -2   5    1.34    0.19 
   7  -2  -5    1.31    0.23 
   7   2  -5    1.31    0.09 
  -7   2   5    1.17    0.15 
  -7   2   5    0.95    0.20 
   7   2  -5    1.33    0.17 
   7   2  -5    1.32    0.19 
  -7   2   5    1.12    0.16 
   7   2  -5    1.11    0.19 
  -7   2   5    1.10    0.15 
   7   2  -5    1.15    0.15 
  -7   2   5    1.34    0.13 
  -7   2   5    1.44    0.14 
  -7   2   5    1.25    0.16 
   7   2  -5    1.19    0.27 
   7   2  -5    1.01    0.17 
  -7   2   5    1.27    0.14 
  -7   2   5    1.64    0.17 
   7   2  -5    1.16    0.21 
  -7   2   5    1.01    0.17 
  -6  -2   5   65.47    2.40 
   6  -2  -5   63.59    2.49 
  -6  -2   5   57.00    2.72 
   6  -2  -5   65.46    2.37 
  -6  -2   5   65.89    2.43 
   6  -2  -5   68.96    2.46 
   6  -2  -5   65.92    2.42 
  -6  -2   5   67.99    2.44 
   6  -2  -5   66.28    2.46 
  -6  -2   5   68.21    2.36 
  -6  -2   5   65.13    2.41 
   6  -2  -5   67.56    2.37 
  -6  -2   5   72.28    2.53 
  -6  -2   5   65.63    2.46 
  -6  -2   5   68.14    2.31 
  -6   2   5   64.11    2.41 
  -6   2   5   61.37    2.44 
  -6   2   5   63.66    2.37 
  -6   2   5   67.94    2.43 
   6   2  -5   66.89    2.42 
   6   2  -5   63.39    2.43 
  -6   2   5   66.54    2.39 
   6   2  -5   60.87    2.39 
   6   2  -5   66.08    2.41 
  -6   2   5   66.43    2.36 
  -6   2   5   64.08    2.34 
   6   2  -5   62.09    2.34 
   6   2  -5   66.72    2.36 
   6   2  -5   63.55    2.36 
   6   2  -5   62.64    2.41 
  -6   2   5   66.06    2.35 
   6   2  -5   66.64    2.30 
  -6   2   5   70.00    2.40 
  -6   2   5   67.90    2.37 
  -6   2   5   68.04    2.51 
  -6   2   5   67.05    2.31 
   6   2  -5   65.82    2.28 
  -6   2   5   66.19    2.43 
   6   2  -5   65.69    2.42 
  -6   2   5   68.16    2.37 
   5  -2  -5   36.90    1.53 
  -5  -2   5   38.57    1.45 
  -5  -2   5   35.87    1.47 
   5  -2  -5   39.73    1.48 
  -5  -2   5   34.90    1.39 
   5  -2  -5   39.53    1.60 
   5  -2  -5   38.62    1.52 
   5  -2  -5   34.27    1.48 
   5  -2  -5   37.78    1.47 
  -5  -2   5   35.93    1.59 
  -5  -2   5   39.19    1.46 
   5  -2  -5   38.13    1.45 
  -5  -2   5   36.18    1.51 
  -5  -2   5   36.81    1.46 
  -5  -2   5   37.12    1.48 
  -5  -2   5   36.42    1.44 
  -5  -2   5   34.39    1.70 
   5   2  -5   38.51    1.45 
   5   2  -5   35.24    1.51 
   5   2  -5   36.70    1.54 
   5   2  -5   37.65    1.48 
  -5   2   5   36.75    1.43 
  -5   2   5   38.73    1.48 
  -5   2   5   32.54    1.45 
   4  -2  -5   25.11    1.16 
  -4  -2   5   24.86    1.03 
  -4  -2   5   25.66    1.04 
   4  -2  -5   24.55    1.09 
  -4  -2   5   24.22    1.55 
   4  -2  -5   25.87    1.06 
   4  -2  -5   25.55    1.15 
  -4  -2   5   25.80    1.05 
   4  -2  -5   24.85    1.04 
   4  -2  -5   25.62    1.03 
  -4  -2   5   24.45    1.16 
   4  -2  -5   24.42    1.04 
  -4  -2   5   26.56    1.03 
   4  -2  -5   26.98    1.55 
  -4  -2   5   25.55    1.10 
  -4  -2   5   25.63    1.05 
  -4  -2   5   24.95    1.06 
  -4  -2   5   25.39    1.14 
   4   2  -5   26.10    1.02 
  -4   2   5   24.44    1.07 
  -4   2   5   24.46    1.27 
  -4   2   5   25.93    1.05 
   4   2  -5   25.96    1.10 
   4   2  -5   25.18    1.11 
  -4   2   5   25.06    1.02 
  -4   2   5   24.10    1.02 
   4   2  -5   26.14    1.05 
  -4   2   5   23.11    1.04 
  -3  -2   5   18.48    0.85 
   3  -2  -5   20.90    1.31 
   3  -2  -5   21.25    0.89 
  -3  -2   5   21.72    0.86 
   3  -2  -5   21.67    0.88 
  -3  -2   5   21.88    0.88 
  -3  -2   5   21.18    1.32 
   3  -2  -5   21.49    0.93 
  -3  -2   5   20.45    0.93 
  -3  -2   5   21.44    1.00 
   3  -2  -5   21.21    0.90 
   3  -2  -5   21.41    0.98 
  -3  -2   5   21.38    0.97 
   3  -2  -5   21.14    0.89 
   3  -2  -5   21.10    0.98 
   3  -2  -5   20.88    0.98 
  -3  -2   5   21.64    0.90 
  -3  -2   5   20.61    0.95 
  -3   2   5   23.25    0.95 
   3   2  -5   20.90    0.91 
  -3   2   5   22.05    0.89 
  -3   2   5   19.96    0.86 
   3   2  -5   20.35    0.93 
  -3   2   5   22.27    0.93 
   3   2  -5   21.76    1.05 
   3   2  -5   21.23    0.92 
  -3   2   5   21.41    0.89 
   3   2  -5   22.34    0.95 
   3   2  -5   21.25    0.87 
  -2  -2   5   41.10    1.63 
  -2  -2   5   40.35    1.64 
  -2  -2   5   40.63    1.52 
   2  -2  -5   45.85    1.70 
   2  -2  -5   40.35    1.65 
   2  -2  -5   42.35    1.57 
   2  -2  -5   42.68    1.65 
  -2  -2   5   41.48    1.56 
   2  -2  -5   40.58    1.56 
  -2  -2   5   41.82    1.65 
  -2  -2   5   39.90    1.61 
   2  -2  -5   43.30    2.03 
   2  -2  -5   39.93    1.59 
   2  -2  -5   42.49    1.57 
  -2  -2   5   39.60    1.59 
  -2  -2   5   38.52    1.96 
   2  -2  -5   41.79    1.66 
  -2   2   5   39.58    1.57 
   2   2  -5   39.40    1.55 
   2   2  -5   42.00    1.71 
  -2   2   5   42.84    1.62 
  -2   2   5   40.33    1.56 
   2   2  -5   44.18    1.92 
  -2   2   5   41.92    1.52 
  -2   2   5   40.27    1.61 
   2   2  -5   41.18    1.60 
   2   2  -5   39.32    1.51 
   2   2  -5   41.25    1.61 
   1  -2  -5   12.47    0.56 
   1  -2  -5   12.41    0.56 
  -1  -2   5   12.32    0.62 
   1  -2  -5   11.90    0.62 
  -1  -2   5   13.18    0.52 
   1  -2  -5   12.43    0.58 
  -1  -2   5   11.82    0.84 
  -1  -2   5   12.74    0.55 
  -1  -2   5   12.56    0.60 
   1  -2  -5   12.18    0.61 
   1  -2  -5   13.19    0.91 
   1  -2  -5   12.23    0.62 
   1  -2  -5   13.20    0.56 
  -1  -2   5   12.23    0.55 
   1  -2  -5   11.97    0.60 
   1  -2  -5   12.52    0.62 
  -1  -2   5   12.46    0.62 
  -1  -2   5   12.53    0.59 
  -1   2   5   12.85    0.58 
  -1   2   5   12.24    0.61 
  -1   2   5   12.49    0.61 
   1   2  -5   10.28    0.60 
  -1   2   5   12.35    0.54 
   1   2  -5   11.86    0.49 
   1   2  -5   12.64    0.65 
   1   2  -5   12.96    0.59 
  -1   2   5   10.94    1.00 
   0  -2  -5    6.69    0.43 
   0  -2   5    6.50    0.31 
   0  -2   5    6.57    0.40 
   0  -2   5    6.64    0.60 
   0  -2   5    5.96    0.52 
   0  -2   5    6.56    0.40 
   0  -2   5    6.63    0.34 
   0  -2  -5    6.33    0.40 
   0  -2  -5    6.08    0.61 
   0  -2  -5    6.68    0.35 
   0  -2  -5    6.25    0.37 
   0  -2   5    7.07    0.38 
   0  -2   5    6.73    0.34 
   0  -2  -5    6.17    0.40 
   0  -2  -5    6.95    0.35 
   0   2   5    6.14    0.40 
   0   2  -5    6.43    0.25 
   0   2   5    6.57    0.41 
   0   2  -5    6.79    0.42 
   0   2   5    6.11    0.41 
   0   2  -5    6.08    0.36 
   0   2   5    6.66    0.38 
   0   2   5    6.21    0.40 
   0   2  -5    6.82    0.26 
   0   2   5    7.30    0.36 
   0   2   5    6.66    0.70 
   0   2   5    6.94    0.38 
   0   2   5    6.29    0.44 
  -1  -2  -5    5.65    0.39 
   1  -2   5    5.18    0.27 
   1  -2   5    5.26    0.35 
  -1  -2  -5    5.64    0.32 
  -1  -2  -5    5.36    0.37 
   1  -2   5    5.52    0.30 
  -1  -2  -5    5.89    0.35 
  -1  -2  -5    5.52    0.30 
  -1   2  -5    5.27    0.26 
  -1   2  -5    5.85    0.49 
   1   2   5    5.51    0.66 
   1   2   5    5.30    0.38 
   1   2   5    5.33    0.33 
  -1   2  -5    5.56    0.29 
   1   2   5    5.59    0.38 
   1   2   5    5.22    0.33 
  -1   2  -5    6.36    0.39 
   1   2   5    5.96    0.35 
   1   2   5    5.80    0.42 
   1   2   5    5.09    0.39 
  -2  -2  -5   35.27    1.45 
   2  -2   5   32.40    1.42 
  -2  -2  -5   37.15    1.40 
   2  -2   5   36.55    1.32 
  -2  -2  -5   37.25    1.37 
  -2   2  -5   35.14    1.44 
  -2   2  -5   35.74    1.33 
   2   2   5   36.44    1.40 
   2   2   5   36.21    1.41 
   2   2   5   36.74    1.47 
   2   2   5   32.53    1.49 
  -2   2  -5   36.08    1.27 
  -2   2  -5   36.68    1.60 
   2   2   5   35.35    1.53 
   2   2   5   35.39    1.41 
   3  -2   5   85.98    3.05 
  -3  -2  -5   82.16    3.03 
  -3  -2  -5   85.56    3.13 
  -3  -2  -5   72.49    3.04 
   3  -2   5   84.88    3.00 
  -3   2  -5   82.12    2.95 
  -3   2  -5   85.78    3.00 
   3   2   5   83.03    3.08 
   3   2   5   85.68    3.23 
   3   2   5   88.50    3.17 
  -3   2  -5   80.16    3.12 
   3   2   5   85.14    3.08 
   3   2   5   86.36    3.11 
   3   2   5   85.71    3.10 
  -3   2  -5   83.91    2.95 
   3   2   5   87.48    3.26 
  -3   2  -5   86.96    3.23 
  -4  -2  -5    0.36    0.15 
  -4  -2  -5    0.33    0.11 
  -4  -2  -5    0.39    0.17 
  -4  -2  -5    0.27    0.12 
  -4  -2  -5    0.22    0.12 
  -4  -2  -5    0.31    0.20 
   4  -2   5    0.25    0.09 
  -4  -2  -5    0.33    0.12 
  -4  -2  -5    0.34    0.13 
  -4  -2  -5    0.24    0.11 
  -4  -2  -5    0.22    0.06 
  -4  -2  -5    0.32    0.15 
  -4  -2  -5    0.54    0.17 
  -4  -2  -5    0.34    0.14 
  -4  -2  -5    0.60    0.24 
   4   2   5    0.40    0.11 
   4   2   5    0.07    0.15 
   4   2   5    0.36    0.21 
   4   2   5    0.62    0.21 
  -4   2  -5    0.31    0.11 
   4   2   5    0.48    0.19 
  -4   2  -5    0.38    0.10 
  -4   2  -5    0.36    0.08 
   4   2   5    0.39    0.14 
   4   2   5    0.51    0.13 
  -4   2  -5    0.22    0.08 
   4   2   5    1.00    0.21 
  -4   2  -5    0.39    0.13 
   4   2   5    0.42    0.18 
   4   2   5    0.15    0.11 
  -4   2  -5    0.33    0.09 
  -5  -2  -5   12.29    0.54 
  -5  -2  -5   12.25    0.56 
  -5  -2  -5   11.69    0.53 
  -5  -2  -5   12.14    0.56 
  -5  -2  -5   12.49    0.53 
  -5  -2  -5   12.42    0.53 
  -5  -2  -5   11.90    0.52 
  -5  -2  -5   12.23    0.46 
  -5  -2  -5   12.03    0.46 
  -5  -2  -5   12.73    0.60 
  -5  -2  -5   12.14    0.54 
  -5  -2  -5   12.90    0.60 
   5   2   5   12.13    0.61 
  -5   2  -5   11.90    0.50 
  -5   2  -5   12.76    0.51 
   5   2   5   12.54    0.61 
  -5   2  -5   12.31    0.48 
  -5   2  -5   12.12    0.53 
   5   2   5   10.98    0.65 
   5   2   5   11.92    0.54 
   5   2   5   11.74    0.52 
   5   2   5   11.47    0.57 
  -5   2  -5   12.11    0.46 
   5   2   5   12.63    0.53 
  -6  -2  -5   10.22    0.41 
  -6  -2  -5   10.19    0.43 
  -6  -2  -5   10.18    0.45 
  -6  -2  -5   10.52    0.42 
  -6  -2  -5   10.25    0.41 
  -6  -2  -5   10.40    0.44 
  -6  -2  -5   10.19    0.47 
  -6  -2  -5    9.71    0.44 
   6   2   5   10.26    0.42 
  -6   2  -5   10.38    0.41 
   6   2   5   10.45    0.50 
  -6   2  -5   10.70    0.44 
  -6   2  -5   10.21    0.39 
   6   2   5   10.52    0.48 
   6   2   5   10.79    0.45 
   6   2   5   10.40    0.43 
  -7  -3   5    0.07    0.07 
  -7  -3   5    0.29    0.06 
  -7  -3   5    0.26    0.24 
  -7  -3   5    0.19    0.09 
   7  -3  -5    0.32    0.10 
   7  -3  -5    0.21    0.11 
   7  -3  -5    0.12    0.07 
  -7  -3   5    0.22    0.09 
  -7  -3   5    0.26    0.08 
  -7  -3   5    0.30    0.12 
  -7   3   5    0.21    0.06 
   7   3  -5    0.18    0.08 
   7   3  -5    0.37    0.11 
   7   3  -5    0.18    0.08 
  -7   3   5    0.15    0.04 
  -7   3   5    0.20    0.08 
   7   3  -5    0.15    0.10 
   7   3  -5    0.21    0.08 
  -7   3   5    0.30    0.10 
   7   3  -5    0.30    0.13 
  -7   3   5    0.16    0.07 
  -7   3   5    0.15    0.08 
   7   3  -5    0.19    0.11 
  -7   3   5    0.14    0.08 
   7   3  -5    0.21    0.12 
  -7   3   5    0.17    0.06 
  -7   3   5    0.23    0.12 
  -7   3   5    0.30    0.08 
   7   3  -5    0.11    0.08 
   6  -3  -5   14.46    0.75 
  -6  -3   5   16.48    0.61 
  -6  -3   5   15.74    0.72 
  -6  -3   5   16.12    0.71 
  -6  -3   5   15.72    0.65 
   6  -3  -5   15.42    0.66 
  -6  -3   5   16.47    0.70 
   6  -3  -5   16.10    0.73 
   6  -3  -5   16.77    0.67 
  -6  -3   5   16.63    0.71 
   6   3  -5   15.94    0.56 
  -6   3   5   16.69    0.70 
  -6   3   5   16.42    0.69 
  -6   3   5   16.10    0.63 
   6   3  -5   16.89    0.68 
  -6   3   5   16.60    0.69 
  -6   3   5   16.02    0.66 
   6   3  -5   16.50    0.68 
  -6   3   5   15.99    0.75 
   6   3  -5   16.31    0.72 
   6   3  -5   16.40    0.65 
   6   3  -5   15.72    0.74 
  -6   3   5   16.03    0.66 
  -6   3   5   16.21    0.64 
  -6   3   5   16.07    0.67 
   6   3  -5   16.25    0.68 
  -6   3   5   15.02    0.67 
   6   3  -5   15.46    0.69 
  -6   3   5   16.38    0.62 
  -6   3   5   16.39    0.64 
  -6   3   5   17.06    0.64 
  -6   3   5   16.67    0.76 
   6   3  -5   15.95    0.71 
  -6   3   5   16.74    0.63 
  -6   3   5   16.48    0.65 
   6   3  -5   16.42    0.67 
   6   3  -5   13.29    0.61 
   6   3  -5   15.68    0.66 
   5  -3  -5    4.13    0.27 
  -5  -3   5    3.83    0.34 
  -5  -3   5    3.72    0.25 
  -5  -3   5    4.38    0.32 
  -5  -3   5    4.26    0.33 
  -5  -3   5    4.04    0.27 
  -5  -3   5    4.02    0.32 
   5  -3  -5    4.01    0.32 
   5  -3  -5    3.98    0.40 
   5  -3  -5    4.43    0.37 
  -5  -3   5    4.19    0.42 
   5  -3  -5    4.15    0.32 
  -5  -3   5    3.93    0.25 
   5  -3  -5    3.68    0.36 
   5  -3  -5    3.91    0.26 
  -5  -3   5    3.77    0.34 
  -5  -3   5    4.40    0.32 
   5  -3  -5    4.42    0.33 
  -5  -3   5    3.57    0.31 
  -5  -3   5    4.11    0.33 
  -5  -3   5    3.70    0.34 
   5   3  -5    4.15    0.30 
  -5   3   5    4.11    0.25 
  -5   3   5    5.52    0.42 
   5   3  -5    3.78    0.28 
   5   3  -5    4.18    0.33 
  -5   3   5    4.07    0.28 
   5   3  -5    4.32    0.30 
  -5   3   5    4.06    0.31 
   5   3  -5    4.49    0.29 
  -5   3   5    4.02    0.31 
  -5   3   5    4.04    0.26 
  -5   3   5    4.14    0.32 
  -5   3   5    4.08    0.34 
  -5   3   5    4.39    0.30 
  -5   3   5    4.21    0.22 
  -5   3   5    4.01    0.26 
  -5   3   5    5.36    0.38 
   5   3  -5    4.58    0.32 
   5   3  -5    3.85    0.30 
  -5   3   5    3.80    0.33 
  -5   3   5    4.11    0.18 
   5   3  -5    3.97    0.28 
  -5   3   5    4.23    0.25 
  -5   3   5    3.90    0.29 
   5   3  -5    4.51    0.31 
  -5   3   5    3.91    0.26 
  -5   3   5    4.29    0.30 
  -5   3   5    3.72    0.27 
   5   3  -5    4.43    0.38 
  -5   3   5    3.90    0.25 
   5   3  -5    4.17    0.21 
   5   3  -5    3.83    0.33 
   5   3  -5    4.35    0.25 
   5   3  -5    3.81    0.27 
   5   3  -5    3.75    0.35 
  -5   3   5    3.97    0.27 
   5   3  -5    4.23    0.17 
  -4  -3   5   12.48    0.63 
   4  -3  -5   10.44    0.56 
   4  -3  -5   11.00    0.57 
   4  -3  -5   11.44    0.67 
  -4  -3   5   11.27    0.54 
   4  -3  -5   13.02    0.64 
  -4  -3   5   11.65    0.57 
   4  -3  -5    9.62    0.60 
  -4  -3   5   11.90    0.57 
   4  -3  -5   11.34    0.56 
  -4  -3   5   11.25    0.66 
  -4  -3   5   11.03    0.57 
  -4  -3   5   11.80    0.67 
   4  -3  -5   11.69    0.67 
   4   3  -5   12.05    0.65 
   4   3  -5   11.11    0.58 
  -4   3   5   11.34    0.58 
  -4   3   5   11.23    0.55 
  -4   3   5    9.90    0.74 
  -4   3   5   10.34    0.51 
   4   3  -5   11.55    0.74 
   4   3  -5   10.90    0.62 
   3  -3  -5  105.84    4.46 
  -3  -3   5  109.89    4.00 
  -3  -3   5  110.02    3.88 
   3  -3  -5  108.15    4.00 
   3  -3  -5  105.32    3.87 
  -3  -3   5  104.33    4.43 
  -3  -3   5  109.92    4.21 
   3  -3  -5  107.61    3.86 
   3  -3  -5  106.64    3.88 
  -3  -3   5  108.54    3.97 
  -3  -3   5  116.10    3.94 
  -3  -3   5  108.91    3.84 
   3  -3  -5  110.78    4.00 
  -3  -3   5  104.21    3.86 
   3  -3  -5  107.25    3.92 
   3   3  -5  107.12    3.86 
  -3   3   5  103.34    4.13 
  -3   3   5  104.10    3.82 
  -3   3   5  107.70    3.87 
   3   3  -5  103.01    3.94 
  -3   3   5  115.85    3.90 
  -3   3   5  107.96    3.85 
   3   3  -5  110.56    4.07 
   3   3  -5  107.64    3.95 
  -3   3   5  109.29    3.90 
   3   3  -5  102.30    4.13 
   2  -3  -5   35.57    1.52 
   2  -3  -5   40.71    1.59 
   2  -3  -5   37.80    1.57 
  -2  -3   5   37.32    1.50 
  -2  -3   5   36.54    1.48 
  -2  -3   5   38.73    1.47 
  -2  -3   5   40.71    1.55 
   2  -3  -5   38.94    1.53 
  -2  -3   5   38.60    1.56 
   2  -3  -5   38.72    1.58 
  -2  -3   5   40.24    1.92 
   2  -3  -5   37.24    1.95 
   2  -3  -5   37.59    1.48 
   2  -3  -5   36.16    1.48 
  -2  -3   5   35.58    1.54 
   2  -3  -5   38.21    1.47 
   2  -3  -5   38.77    1.48 
  -2  -3   5   40.24    1.44 
  -2   3   5   36.61    1.69 
  -2   3   5   38.26    1.50 
  -2   3   5   38.03    1.48 
  -2   3   5   36.23    1.45 
   2   3  -5   38.19    1.38 
  -2   3   5   39.67    1.47 
   2   3  -5   39.37    1.55 
   2   3  -5   41.34    1.63 
   2   3  -5   38.28    1.55 
  -2   3   5   36.97    1.51 
   2   3  -5   39.07    1.53 
   2   3  -5   37.86    1.45 
   1  -3  -5   14.26    0.71 
   1  -3  -5   14.41    1.04 
  -1  -3   5   14.67    0.60 
  -1  -3   5   14.17    0.63 
   1  -3  -5   14.35    0.73 
  -1  -3   5   14.64    0.70 
   1  -3  -5   15.19    0.66 
   1  -3  -5   14.20    0.64 
   1  -3  -5   13.11    0.71 
   1  -3  -5   15.26    0.66 
   1  -3  -5   14.42    0.64 
  -1  -3   5   14.33    0.68 
   1  -3  -5   14.47    0.68 
   1  -3  -5   14.01    0.72 
   1   3  -5   14.47    0.68 
   1   3  -5   13.76    0.71 
   1   3  -5   14.09    0.61 
  -1   3   5   14.75    0.70 
   1   3  -5   15.22    0.74 
  -1   3   5   14.09    0.69 
  -1   3   5   13.79    0.65 
  -1   3   5   14.31    0.64 
   1   3  -5   14.48    0.69 
  -1   3   5   13.48    0.62 
   0  -3  -5   26.54    1.18 
   0  -3  -5   22.27    1.15 
   0  -3   5   27.09    1.12 
   0  -3  -5   26.75    1.17 
   0  -3  -5   29.38    1.09 
   0  -3  -5   28.60    1.09 
   0  -3   5   26.37    1.05 
   0  -3  -5   24.95    1.16 
   0  -3  -5   27.34    1.13 
   0  -3  -5   28.28    1.09 
   0  -3   5   26.56    1.01 
   0  -3  -5   27.07    1.16 
   0  -3  -5   27.45    1.16 
   0  -3  -5   28.93    1.57 
   0   3   5   27.70    1.16 
   0   3  -5   27.84    1.15 
   0   3   5   28.17    1.11 
   0   3  -5   25.54    1.26 
   0   3  -5   25.57    1.13 
   0   3  -5   26.97    0.98 
   0   3   5   27.31    1.15 
   0   3   5   27.63    1.05 
   0   3  -5   26.60    1.03 
  -1  -3  -5    8.60    0.43 
  -1  -3  -5    7.89    0.50 
  -1  -3  -5    7.86    0.84 
   1  -3   5    8.03    0.45 
  -1  -3  -5    7.94    0.51 
  -1  -3  -5    8.07    0.46 
  -1  -3  -5    8.35    0.44 
  -1  -3  -5    8.37    0.51 
   1  -3   5    8.55    0.39 
  -1  -3  -5    7.96    0.51 
   1   3   5    8.56    0.43 
  -1   3  -5    8.19    0.38 
  -1   3  -5    7.77    0.42 
   1   3   5    8.62    0.51 
  -1   3  -5    7.99    0.47 
  -1   3  -5    8.58    0.48 
   1   3   5    8.99    0.48 
   1   3   5    7.91    0.50 
  -1   3  -5    8.02    0.41 
  -2  -3  -5   61.49    2.29 
  -2  -3  -5   61.73    2.39 
  -2  -3  -5   60.44    2.25 
   2  -3   5   63.84    2.24 
  -2  -3  -5   61.72    2.33 
   2   3   5   63.71    2.33 
   2   3   5   58.99    2.42 
  -2   3  -5   62.07    2.21 
   2   3   5   60.57    2.41 
   2   3   5   65.31    2.49 
   2   3   5   63.21    2.29 
   2   3   5   60.17    2.38 
  -2   3  -5   61.39    2.24 
  -3  -3  -5   76.06    2.96 
   3  -3   5   79.78    2.82 
  -3  -3  -5   81.01    2.86 
  -3  -3  -5   80.17    2.89 
  -3   3  -5   77.02    2.75 
   3   3   5   76.93    3.00 
   3   3   5   80.67    3.03 
   3   3   5   76.79    3.00 
   3   3   5   78.91    2.88 
   3   3   5   74.51    3.05 
   3   3   5   78.41    3.01 
   3   3   5   79.94    2.86 
   3   3   5   75.24    2.90 
  -3   3  -5   81.10    2.80 
  -4  -3  -5    0.17    0.10 
  -4  -3  -5    0.28    0.14 
  -4  -3  -5    0.15    0.11 
  -4  -3  -5    0.43    0.16 
  -4  -3  -5    0.38    0.18 
  -4  -3  -5    0.32    0.14 
  -4  -3  -5    0.42    0.14 
  -4  -3  -5    0.22    0.11 
  -4  -3  -5    0.19    0.17 
  -4  -3  -5    0.23    0.12 
   4   3   5    0.39    0.19 
   4   3   5    0.19    0.14 
  -4   3  -5    0.11    0.06 
   4   3   5    0.45    0.13 
  -4   3  -5    0.26    0.08 
   4   3   5    0.14    0.09 
  -4   3  -5    0.25    0.09 
  -4   3  -5    0.35    0.06 
   4   3   5    0.11    0.10 
   4   3   5    0.11    0.14 
   4   3   5    0.21    0.15 
   4   3   5    0.60    0.21 
  -5  -3  -5   10.19    0.52 
  -5  -3  -5    9.09    0.40 
  -5  -3  -5    9.46    0.44 
  -5  -3  -5    9.80    0.46 
  -5  -3  -5    9.68    0.44 
  -5  -3  -5    9.43    0.46 
  -5  -3  -5    9.50    0.43 
  -5  -3  -5    9.65    0.49 
  -5  -3  -5    9.81    0.45 
  -5  -3  -5    9.65    0.46 
   5   3   5   10.06    0.49 
   5   3   5    8.99    0.47 
  -5   3  -5    9.58    0.36 
   5   3   5    9.45    0.50 
   5   3   5    8.88    0.38 
  -5   3  -5    9.36    0.36 
   5   3   5    9.51    0.43 
  -6  -3  -5    8.75    0.37 
  -6  -3  -5    8.38    0.35 
  -6  -3  -5    7.33    0.38 
  -6  -3  -5    8.02    0.36 
  -6  -3  -5    8.82    0.36 
  -6  -3  -5    8.12    0.34 
  -6  -3  -5    7.28    0.33 
  -6  -3  -5    7.97    0.33 
  -6  -3  -5    8.27    0.37 
   6   3   5    8.81    0.35 
   6   3   5    8.09    0.39 
   6   3   5    8.32    0.31 
   6   3   5    8.74    0.39 
   6   3   5    7.62    0.38 
   7  -4  -5    0.72    0.09 
  -7  -4   5    0.89    0.13 
  -7  -4   5    1.04    0.14 
  -7  -4   5    0.87    0.10 
  -7  -4   5    0.79    0.13 
   7  -4  -5    0.91    0.09 
  -7  -4   5    0.83    0.28 
   7   4  -5    0.63    0.13 
   7   4  -5    1.19    0.18 
  -7   4   5    0.91    0.11 
  -7   4   5    0.95    0.11 
  -7   4   5    0.69    0.11 
   7   4  -5    1.04    0.13 
  -7   4   5    0.86    0.09 
   7   4  -5    0.69    0.10 
  -7   4   5    0.69    0.07 
   7   4  -5    0.78    0.12 
   7   4  -5    0.86    0.11 
   7   4  -5    0.79    0.12 
   7   4  -5    0.67    0.12 
  -7   4   5    0.90    0.11 
   7   4  -5    0.68    0.09 
   7   4  -5    0.74    0.14 
  -6  -4   5    3.08    0.25 
  -6  -4   5    3.56    0.22 
   6  -4  -5    3.43    0.21 
   6  -4  -5    3.14    0.25 
  -6  -4   5    3.63    0.25 
   6  -4  -5    3.26    0.21 
  -6  -4   5    3.68    0.21 
  -6  -4   5    3.67    0.28 
   6   4  -5    3.64    0.23 
  -6   4   5    3.51    0.21 
  -6   4   5    3.39    0.21 
  -6   4   5    3.14    0.20 
   6   4  -5    3.29    0.22 
  -6   4   5    3.58    0.16 
  -6   4   5    3.80    0.20 
   6   4  -5    3.38    0.25 
  -6   4   5    3.63    0.18 
   6   4  -5    3.79    0.29 
  -6   4   5    3.34    0.23 
  -6   4   5    3.20    0.22 
  -6   4   5    3.32    0.26 
   6   4  -5    3.21    0.23 
   6   4  -5    3.29    0.26 
   6   4  -5    3.49    0.23 
   6   4  -5    3.65    0.15 
   6   4  -5    3.24    0.31 
   6   4  -5    3.00    0.27 
  -6   4   5    3.91    0.23 
   6   4  -5    3.64    0.21 
   6   4  -5    3.42    0.24 
   5  -4  -5   32.64    1.21 
   5  -4  -5   33.11    1.29 
  -5  -4   5   32.07    1.32 
  -5  -4   5   31.71    1.27 
  -5  -4   5   30.36    1.27 
  -5  -4   5   31.30    1.29 
  -5  -4   5   30.72    1.20 
  -5  -4   5   31.20    1.26 
   5  -4  -5   30.97    1.31 
   5  -4  -5   31.13    1.21 
  -5  -4   5   31.04    1.19 
  -5  -4   5   33.41    1.19 
  -5  -4   5   31.77    1.24 
   5   4  -5   32.71    1.15 
  -5   4   5   31.28    1.28 
   5   4  -5   31.72    1.26 
  -5   4   5   30.40    1.22 
  -5   4   5   31.50    1.25 
   5   4  -5   31.99    1.21 
   5   4  -5   32.49    1.15 
   5   4  -5   32.83    1.20 
  -5   4   5   31.67    1.22 
  -5   4   5   30.68    1.22 
  -5   4   5   32.13    1.20 
  -5   4   5   30.62    1.28 
  -5   4   5   31.47    1.20 
   5   4  -5   31.63    1.19 
  -5   4   5   32.29    1.23 
  -5   4   5   33.24    1.19 
   5   4  -5   31.08    1.22 
  -5   4   5   31.74    1.16 
  -5   4   5   33.43    1.23 
   5   4  -5   31.97    1.35 
  -5   4   5   32.47    1.16 
   5   4  -5   33.36    1.24 
  -5   4   5   31.21    1.16 
  -5   4   5   31.83    1.21 
  -5   4   5   31.79    1.18 
  -5   4   5   31.55    1.16 
   5   4  -5   31.85    1.27 
   5   4  -5   33.41    1.24 
  -5   4   5   31.71    1.19 
   5   4  -5   31.43    1.18 
   5   4  -5   32.90    1.22 
  -5   4   5   33.88    1.31 
   4  -4  -5   16.19    0.73 
  -4  -4   5   15.74    0.65 
  -4  -4   5   15.62    0.65 
   4  -4  -5   14.67    0.70 
   4  -4  -5   15.26    0.70 
  -4  -4   5   15.46    0.69 
   4  -4  -5   15.87    0.72 
  -4  -4   5   17.05    0.85 
   4  -4  -5   16.02    0.66 
   4  -4  -5   15.61    0.77 
   4  -4  -5   14.27    0.79 
  -4  -4   5   15.64    0.72 
  -4  -4   5   16.46    0.78 
  -4  -4   5   16.82    0.73 
  -4  -4   5   16.41    0.72 
  -4   4   5   15.57    0.67 
  -4   4   5   15.74    0.62 
  -4   4   5   15.15    0.68 
   4   4  -5   14.89    0.77 
   4   4  -5   14.38    0.59 
  -4   4   5   16.97    0.74 
   4   4  -5   14.27    0.68 
  -4   4   5   14.17    0.63 
  -4   4   5   17.12    0.76 
   4   4  -5   14.64    0.67 
   4   4  -5   16.01    0.69 
   4   4  -5   14.67    0.65 
   4   4  -5   15.42    0.70 
  -4   4   5   17.32    0.70 
  -4   4   5   17.16    0.70 
   4   4  -5   15.10    0.69 
  -4   4   5   14.50    0.68 
  -4   4   5   16.46    0.63 
   4   4  -5   15.41    0.65 
  -4   4   5   14.95    0.63 
   4   4  -5   13.42    0.63 
   4   4  -5   14.90    0.61 
   4   4  -5   15.97    0.72 
  -4   4   5   15.29    0.60 
  -4   4   5   15.33    0.63 
  -4   4   5   15.56    0.67 
  -4   4   5   14.98    0.74 
  -4   4   5   16.07    0.74 
  -4   4   5   14.99    0.64 
   4   4  -5   15.21    0.64 
  -4   4   5   16.11    0.64 
  -4   4   5   15.21    0.66 
  -4   4   5   14.74    0.68 
  -4   4   5   16.89    0.72 
   4   4  -5   16.16    0.80 
   4   4  -5   14.84    0.63 
   4   4  -5   14.23    0.64 
   4   4  -5   16.18    0.62 
  -3  -4   5    6.89    0.44 
   3  -4  -5    6.22    0.37 
   3  -4  -5    6.45    0.48 
   3  -4  -5    7.02    0.42 
  -3  -4   5    6.64    0.47 
  -3  -4   5    6.29    0.39 
   3  -4  -5    7.75    0.42 
   3  -4  -5    6.50    0.41 
   3  -4  -5    6.80    0.45 
  -3  -4   5    7.17    0.41 
  -3  -4   5    7.19    0.39 
   3   4  -5    6.94    0.28 
   3   4  -5    5.96    0.37 
  -3   4   5    6.20    0.38 
   3   4  -5    6.61    0.47 
   3   4  -5    6.83    0.28 
  -3   4   5    7.30    0.42 
   3   4  -5    6.53    0.34 
  -3   4   5    6.25    0.33 
   3   4  -5    6.23    0.38 
  -3   4   5    6.29    0.36 
  -3   4   5    6.01    0.42 
   2  -4  -5   98.37    3.48 
  -2  -4   5   92.68    3.40 
   2  -4  -5   89.89    3.38 
   2  -4  -5  101.65    3.42 
  -2  -4   5   92.59    3.35 
   2  -4  -5   92.29    3.46 
  -2  -4   5   83.74    3.33 
  -2  -4   5   90.30    3.29 
  -2  -4   5   92.09    3.30 
   2  -4  -5   91.41    3.34 
   2  -4  -5   95.70    3.46 
   2  -4  -5   93.89    3.34 
   2  -4  -5   95.95    3.34 
  -2   4   5   96.84    3.44 
   2   4  -5   86.35    3.45 
   2   4  -5   93.43    3.44 
   2   4  -5   93.19    3.41 
  -2   4   5   88.23    3.29 
   2   4  -5   87.76    3.24 
  -2   4   5   90.30    3.32 
  -2   4   5   95.08    3.63 
  -2   4   5   93.11    3.35 
   2   4  -5   93.24    3.30 
  -2   4   5   78.90    3.32 
   1  -4  -5   29.80    1.72 
  -1  -4   5   31.16    1.14 
   1  -4  -5   29.16    1.19 
   1  -4  -5   30.13    1.25 
   1  -4  -5   31.27    1.29 
   1  -4  -5   29.55    1.22 
   1  -4  -5   29.54    1.20 
  -1  -4   5   30.82    1.18 
   1  -4  -5   29.76    1.20 
   1  -4  -5   29.32    1.30 
   1  -4  -5   30.07    1.32 
   1   4  -5   30.70    1.28 
  -1   4   5   31.53    1.26 
   1   4  -5   30.51    1.15 
   1   4  -5   29.42    1.28 
  -1   4   5   28.44    1.20 
   1   4  -5   29.88    1.07 
   1   4  -5   30.89    1.43 
   1   4  -5   28.53    1.12 
  -1   4   5   28.47    1.44 
  -1   4   5   27.29    1.17 
   1   4  -5   28.76    1.31 
   0  -4  -5   39.11    1.80 
   0  -4  -5   44.12    2.26 
   0  -4  -5   45.73    1.82 
   0  -4  -5   43.35    1.78 
   0  -4  -5   46.47    1.71 
   0  -4  -5   45.35    1.75 
   0  -4  -5   45.10    1.71 
   0  -4   5   45.86    1.66 
   0  -4  -5   43.57    1.70 
   0  -4  -5   43.65    1.70 
   0   4  -5   44.11    1.62 
   0   4   5   46.62    1.74 
   0   4  -5   42.78    1.67 
   0   4   5   46.18    1.77 
   0   4   5   44.66    1.70 
   0   4  -5   40.78    1.59 
   0   4  -5   45.43    1.61 
   1  -4   5   16.11    0.66 
  -1  -4  -5   14.99    0.72 
  -1  -4  -5   15.70    0.72 
  -1  -4  -5   17.10    0.91 
  -1  -4  -5   15.25    0.73 
  -1  -4  -5   14.94    0.79 
  -1  -4  -5   16.35    0.78 
  -1  -4  -5   17.53    0.86 
  -1  -4  -5   16.02    0.72 
   1   4   5   14.99    0.73 
  -1   4  -5   16.17    0.65 
  -1   4  -5   16.30    0.66 
   1   4   5   16.77    0.82 
   1   4   5   16.15    0.78 
  -2  -4  -5   42.64    1.53 
  -2  -4  -5   40.76    1.64 
  -2  -4  -5   44.27    1.58 
  -2  -4  -5   42.67    1.67 
   2  -4   5   43.72    1.54 
  -2  -4  -5   44.10    1.74 
  -2  -4  -5   43.35    1.63 
  -2  -4  -5   43.66    1.71 
  -2  -4  -5   40.46    1.59 
   2   4   5   34.29    1.54 
  -2   4  -5   40.15    1.48 
  -2   4  -5   42.22    1.46 
   2   4   5   42.15    1.70 
  -2   4  -5   42.05    1.46 
  -2   4  -5   45.13    1.47 
   2   4   5   38.67    1.65 
   2   4   5   36.89    1.77 
   2   4   5   42.89    1.48 
   2   4   5   42.80    1.63 
   2   4   5   42.15    1.64 
   2   4   5   44.44    1.75 
   2   4   5   40.03    1.68 
  -3  -4  -5   22.05    0.92 
  -3  -4  -5   19.68    0.89 
  -3  -4  -5   22.43    0.90 
  -3  -4  -5   21.34    0.83 
  -3  -4  -5   21.63    0.88 
  -3  -4  -5   22.04    0.85 
  -3  -4  -5   21.34    0.77 
  -3  -4  -5   20.28    1.00 
  -3  -4  -5   21.69    0.90 
   3   4   5   20.94    0.89 
   3   4   5   21.03    0.90 
   3   4   5   21.86    0.93 
   3   4   5   21.58    0.83 
   3   4   5   21.36    0.78 
  -3   4  -5   21.75    0.74 
   3   4   5   19.84    0.92 
   3   4   5   20.07    1.02 
   3   4   5   21.67    0.92 
  -4  -4  -5   13.48    0.59 
  -4  -4  -5   13.85    0.62 
  -4  -4  -5   12.63    0.68 
  -4  -4  -5   13.10    0.69 
  -4  -4  -5   13.27    0.60 
   4   4   5   13.07    0.63 
   4   4   5   13.21    0.60 
   4   4   5   13.08    0.49 
   4   4   5   12.91    0.55 
   4   4   5   12.40    0.61 
   4   4   5   13.59    0.62 
  -5  -4  -5    2.81    0.21 
  -5  -4  -5    2.77    0.20 
  -5  -4  -5    2.86    0.18 
  -5  -4  -5    2.63    0.20 
  -5  -4  -5    2.86    0.22 
  -5  -4  -5    2.79    0.26 
  -5  -4  -5    2.70    0.21 
  -5  -4  -5    2.67    0.24 
  -5  -4  -5    2.69    0.18 
   5   4   5    2.93    0.22 
   5   4   5    2.68    0.23 
   5   4   5    3.07    0.51 
   5   4   5    3.15    0.24 
   5   4   5    3.03    0.26 
   5   4   5    3.18    0.18 
   5   4   5    2.72    0.12 
  -6  -5   5   12.50    0.49 
  -6  -5   5   11.41    0.53 
  -6  -5   5   13.50    0.57 
  -6  -5   5   12.54    0.52 
   6  -5  -5   14.33    0.53 
   6  -5  -5   13.79    0.52 
   6   5  -5   13.55    0.60 
  -6   5   5   12.90    0.52 
   6   5  -5   13.70    0.50 
  -6   5   5   13.16    0.53 
  -6   5   5   13.32    0.49 
   6   5  -5   13.60    0.53 
   6   5  -5   14.05    0.53 
   6   5  -5   13.60    0.54 
   6   5  -5   12.88    0.50 
  -6   5   5   13.46    0.53 
  -6   5   5   12.75    0.50 
   6   5  -5   13.16    0.49 
   6   5  -5   13.41    0.54 
   6   5  -5   12.93    0.49 
  -5  -5   5    8.09    0.36 
  -5  -5   5    7.67    0.40 
   5  -5  -5    7.69    0.37 
   5  -5  -5    7.22    0.41 
  -5  -5   5    7.47    0.41 
  -5  -5   5    8.23    0.36 
   5  -5  -5    7.78    0.36 
   5   5  -5    8.29    0.38 
   5   5  -5    7.86    0.39 
  -5   5   5    8.21    0.38 
  -5   5   5    7.79    0.35 
  -5   5   5    7.47    0.40 
   5   5  -5    7.89    0.34 
  -5   5   5    8.07    0.33 
   5   5  -5    8.10    0.34 
   5   5  -5    7.99    0.35 
   5   5  -5    7.98    0.34 
   5   5  -5    7.99    0.37 
   5   5  -5    7.78    0.36 
  -5   5   5    8.14    0.38 
  -5   5   5    7.68    0.35 
   5   5  -5    7.57    0.32 
   5   5  -5    7.96    0.34 
  -5   5   5    8.11    0.38 
  -5   5   5    7.52    0.36 
   5   5  -5    7.87    0.46 
   5   5  -5    8.25    0.39 
  -5   5   5    8.24    0.35 
  -4  -5   5    7.48    0.47 
  -4  -5   5    8.34    0.39 
   4  -5  -5    7.28    0.47 
  -4  -5   5    8.35    0.39 
   4  -5  -5    8.03    0.44 
   4  -5  -5    8.18    0.39 
   4  -5  -5    8.76    0.46 
  -4  -5   5    8.21    0.45 
  -4   5   5    8.12    0.41 
  -4   5   5    7.55    0.43 
  -4   5   5    8.27    0.39 
  -4   5   5    8.03    0.38 
  -4   5   5    8.63    0.38 
   4   5  -5    8.30    0.48 
  -4   5   5    7.63    0.39 
  -4   5   5    8.57    0.42 
   4   5  -5    8.62    0.39 
  -4   5   5    7.95    0.37 
   4   5  -5    7.77    0.34 
  -4   5   5    8.16    0.41 
   4   5  -5    8.13    0.38 
  -4   5   5    8.29    0.39 
  -4   5   5    7.92    0.45 
   4   5  -5    7.51    0.34 
   4   5  -5    8.06    0.35 
   4   5  -5    8.19    0.36 
   4   5  -5    8.40    0.39 
   4   5  -5    8.07    0.40 
  -4   5   5    8.10    0.34 
   4   5  -5    8.33    0.46 
   4   5  -5    7.63    0.43 
  -4   5   5    8.38    0.35 
   4   5  -5    8.06    0.35 
   4   5  -5    8.37    0.41 
   4   5  -5    8.47    0.42 
  -4   5   5    8.65    0.47 
   4   5  -5    8.19    0.42 
   3  -5  -5  148.10    5.04 
  -3  -5   5  136.84    5.00 
  -3  -5   5  143.45    4.96 
  -3  -5   5  137.94    4.97 
   3  -5  -5  135.99    4.95 
   3  -5  -5  142.52    4.91 
  -3  -5   5  143.12    4.95 
  -3  -5   5  136.74    4.89 
   3  -5  -5  138.92    4.98 
   3  -5  -5  120.80    4.96 
   3  -5  -5  135.06    4.97 
  -3   5   5  135.89    4.94 
  -3   5   5  131.87    4.93 
   3   5  -5  146.63    4.93 
   3   5  -5  151.45    4.89 
  -3   5   5  138.23    4.87 
   3   5  -5  145.57    4.85 
  -3   5   5  134.82    4.87 
   3   5  -5  139.36    4.89 
   3   5  -5  146.07    5.10 
  -3   5   5  145.01    4.94 
   3   5  -5  134.88    4.92 
  -3   5   5  139.96    4.97 
  -3   5   5  146.12    4.87 
  -3   5   5  133.85    4.89 
  -3   5   5  135.94    4.88 
  -3   5   5  143.52    5.03 
   3   5  -5  145.11    4.99 
  -3   5   5  135.93    4.91 
   3   5  -5  137.49    4.89 
  -3   5   5  144.53    4.94 
  -3   5   5  144.60    4.89 
  -3   5   5  126.22    4.92 
   3   5  -5  146.54    4.90 
  -3   5   5  141.58    4.90 
  -3   5   5  138.78    4.93 
   3   5  -5  138.10    4.84 
   3   5  -5  147.48    4.97 
  -3   5   5  142.10    4.86 
  -3   5   5  141.21    4.91 
  -3   5   5  136.24    5.00 
  -3   5   5  136.40    4.86 
   2  -5  -5   63.35    2.22 
   2  -5  -5   58.45    2.20 
   2  -5  -5   59.76    2.14 
   2  -5  -5   58.44    2.13 
  -2  -5   5   57.58    2.15 
   2  -5  -5   51.65    2.16 
   2  -5  -5   61.05    2.21 
   2  -5  -5   57.72    2.25 
  -2   5   5   62.62    2.17 
  -2   5   5   58.82    2.12 
  -2   5   5   57.05    2.08 
  -2   5   5   61.03    2.23 
  -2   5   5   58.43    2.12 
  -2   5   5   60.77    2.19 
   2   5  -5   56.86    2.09 
  -2   5   5   59.09    2.12 
   2   5  -5   58.01    2.10 
  -2   5   5   59.25    2.11 
  -2   5   5   56.94    2.09 
  -2   5   5   58.73    2.15 
   2   5  -5   58.01    2.13 
   2   5  -5   59.36    2.06 
  -2   5   5   57.16    2.25 
  -2   5   5   59.19    2.15 
  -2   5   5   61.48    2.20 
  -2   5   5   55.88    2.11 
   2   5  -5   56.98    2.16 
   2   5  -5   57.08    2.44 
  -2   5   5   58.99    2.17 
   2   5  -5   61.99    2.17 
  -2   5   5   59.64    2.18 
  -2   5   5   58.07    2.12 
  -2   5   5   56.37    2.16 
  -2   5   5   57.84    2.10 
   2   5  -5   59.57    2.10 
   1  -5  -5   16.90    0.68 
  -1  -5   5   17.37    0.69 
   1  -5  -5   16.84    0.83 
   1  -5  -5   14.82    0.73 
   1  -5  -5   17.21    0.69 
   1  -5  -5   17.18    0.76 
   1  -5  -5   16.27    0.84 
   1  -5  -5   17.14    0.76 
   1  -5  -5   17.50    0.80 
   1   5  -5   16.27    0.60 
  -1   5   5   15.86    0.70 
  -1   5   5   15.54    0.65 
   1   5  -5   16.93    0.68 
  -1   5   5   16.12    0.71 
   1   5  -5   16.40    0.63 
  -1   5   5   17.04    0.70 
  -1   5   5   15.37    0.80 
  -1   5   5   15.51    0.61 
  -1   5   5   16.67    0.68 
   1   5  -5   15.77    0.62 
  -1   5   5   15.81    0.70 
   1   5  -5   15.36    0.63 
  -1   5   5   14.84    0.70 
  -1   5   5   16.21    0.71 
  -1   5   5   14.50    0.66 
  -1   5   5   16.57    0.68 
  -1   5   5   17.02    0.74 
  -1   5   5   16.64    0.66 
  -1   5   5   16.38    0.64 
  -1   5   5   15.97    0.67 
  -1   5   5   16.14    0.76 
   1   5  -5   17.20    0.66 
   0  -5  -5    2.35    0.25 
   0  -5  -5    2.11    0.20 
   0  -5  -5    2.12    0.19 
   0  -5  -5    2.46    0.26 
   0  -5  -5    2.18    0.24 
   0  -5  -5    2.40    0.34 
   0  -5  -5    2.20    0.26 
   0  -5  -5    1.95    0.30 
   0  -5  -5    1.94    0.26 
   0  -5  -5    1.88    0.26 
   0   5   5    1.94    0.22 
   0   5   5    2.13    0.25 
   0   5   5    1.72    0.18 
   0   5   5    1.83    0.27 
   0   5   5    2.06    0.21 
   0   5  -5    2.10    0.14 
   0   5   5    2.38    0.29 
   0   5  -5    2.13    0.17 
   0   5   5    1.87    0.29 
   0   5   5    1.82    0.21 
   0   5  -5    2.16    0.12 
   0   5   5    1.52    0.22 
   0   5   5    1.93    0.31 
   0   5   5    1.97    0.25 
   0   5  -5    2.38    0.26 
   0   5   5    1.92    0.24 
   0   5   5    2.23    0.21 
   0   5   5    2.08    0.14 
   0   5   5    2.01    0.20 
   0   5  -5    1.99    0.14 
  -1  -5  -5   11.44    0.59 
  -1  -5  -5   11.68    0.66 
  -1  -5  -5   11.27    0.50 
  -1  -5  -5   12.09    0.59 
  -1  -5  -5   10.85    0.58 
  -1  -5  -5   10.89    0.52 
  -1  -5  -5   11.47    0.62 
  -1  -5  -5   11.62    0.51 
  -1  -5  -5   11.28    0.60 
  -1  -5  -5   12.18    0.57 
   1   5   5   11.88    0.62 
   1   5   5   10.04    0.61 
   1   5   5   10.95    0.50 
   1   5   5   11.73    0.57 
  -1   5  -5   11.59    0.42 
  -1   5  -5   12.20    0.42 
   1   5   5   11.82    0.53 
   1   5   5   11.88    0.57 
   1   5   5   11.37    0.53 
   1   5   5   11.75    0.45 
   1   5   5   11.62    0.54 
   1   5   5   11.73    0.54 
   1   5   5   12.24    0.54 
   1   5   5   12.02    0.56 
   1   5   5   11.24    0.56 
   1   5   5   12.46    0.65 
  -2  -5  -5    1.73    0.24 
  -2  -5  -5    2.53    0.40 
  -2  -5  -5    2.10    0.20 
  -2  -5  -5    1.74    0.30 
  -2  -5  -5    1.98    0.26 
  -2  -5  -5    1.83    0.23 
  -2  -5  -5    1.71    0.26 
   2   5   5    1.88    0.25 
   2   5   5    2.11    0.27 
   2   5   5    1.96    0.31 
   2   5   5    1.61    0.20 
   2   5   5    1.88    0.23 
   2   5   5    1.90    0.23 
   2   5   5    1.65    0.25 
   2   5   5    1.78    0.24 
   2   5   5    1.80    0.20 
   2   5   5    1.90    0.21 
   2   5   5    1.57    0.29 
  -3  -5  -5   12.40    0.58 
  -3  -5  -5   12.24    0.58 
  -3  -5  -5   11.88    0.51 
  -3  -5  -5   12.02    0.53 
  -3  -5  -5   12.10    0.57 
  -3  -5  -5   13.19    0.47 
   3   5   5   12.19    0.54 
   3   5   5   12.60    0.56 
   3   5   5   12.21    0.65 
   3   5   5   12.77    0.58 
   3   5   5   12.64    0.59 
   3   5   5   11.83    0.52 
   3   5   5   12.62    0.62 
  -4  -5  -5   39.81    1.41 
  -4  -5  -5   38.82    1.40 
  -4  -5  -5   38.53    1.42 
  -4  -5  -5   34.15    1.38 
   4   5   5   37.11    1.42 
   4   5   5   37.74    1.41 
   4   5   5   36.45    1.41 
   4   5   5   38.57    1.48 
   4   5   5   37.88    1.39 
  -5  -6   5   19.90    0.71 
   5  -6  -5   18.60    0.72 
   5  -6  -5   16.92    0.71 
  -5  -6   5   19.79    0.71 
  -5   6   5   19.23    0.70 
  -5   6   5   19.44    0.71 
   5   6  -5   18.69    0.71 
  -5   6   5   18.42    0.74 
   5   6  -5   20.73    0.70 
  -5   6   5   19.91    0.72 
   5   6  -5   19.11    0.71 
   5   6  -5   19.42    0.71 
  -5   6   5   20.03    0.68 
   5   6  -5   18.67    0.75 
   5   6  -5   18.21    0.68 
  -4  -6   5    6.34    0.34 
   4  -6  -5    6.08    0.30 
  -4  -6   5    6.32    0.30 
   4  -6  -5    6.13    0.30 
   4  -6  -5    5.64    0.34 
  -4  -6   5    6.43    0.29 
  -4   6   5    5.94    0.28 
  -4   6   5    5.79    0.30 
   4   6  -5    6.53    0.28 
  -4   6   5    6.14    0.29 
   4   6  -5    5.97    0.31 
  -4   6   5    6.39    0.28 
  -4   6   5    6.13    0.32 
  -4   6   5    6.47    0.26 
   4   6  -5    6.38    0.26 
  -4   6   5    6.35    0.31 
   4   6  -5    6.20    0.26 
   4   6  -5    6.25    0.29 
   4   6  -5    6.32    0.29 
   4   6  -5    6.12    0.29 
   4   6  -5    5.80    0.32 
   3  -6  -5    3.77    0.28 
   3  -6  -5    3.45    0.23 
  -3  -6   5    3.60    0.21 
   3  -6  -5    3.72    0.23 
  -3   6   5    3.48    0.24 
  -3   6   5    3.66    0.24 
  -3   6   5    3.34    0.18 
  -3   6   5    3.70    0.21 
  -3   6   5    3.56    0.19 
   3   6  -5    3.39    0.18 
  -3   6   5    3.47    0.28 
   3   6  -5    3.56    0.25 
  -3   6   5    3.88    0.22 
  -3   6   5    3.47    0.27 
   3   6  -5    3.38    0.20 
   3   6  -5    3.48    0.20 
  -3   6   5    3.85    0.23 
  -3   6   5    3.63    0.23 
  -3   6   5    3.75    0.25 
   3   6  -5    3.70    0.22 
   3   6  -5    3.46    0.22 
   2  -6  -5    3.90    0.25 
   2  -6  -5    4.52    0.32 
   2  -6  -5    3.83    0.24 
   2  -6  -5    3.40    0.30 
   2  -6  -5    4.10    0.32 
  -2   6   5    4.00    0.24 
   2   6  -5    4.18    0.21 
  -2   6   5    3.81    0.24 
  -2   6   5    3.78    0.23 
   2   6  -5    3.94    0.21 
  -2   6   5    4.06    0.21 
  -2   6   5    3.35    0.26 
  -2   6   5    4.01    0.21 
  -2   6   5    3.83    0.27 
  -2   6   5    4.15    0.26 
  -2   6   5    3.87    0.24 
   2   6  -5    4.18    0.23 
  -2   6   5    3.46    0.30 
  -2   6   5    3.99    0.32 
  -2   6   5    3.87    0.21 
   2   6  -5    3.95    0.18 
  -2   6   5    4.22    0.27 
   2   6  -5    3.99    0.25 
  -2   6   5    3.74    0.23 
  -2   6   5    3.71    0.21 
  -2   6   5    3.10    0.30 
  -2   6   5    4.11    0.19 
   2   6  -5    4.20    0.22 
   1  -6  -5    0.45    0.14 
   1  -6  -5    0.38    0.18 
   1  -6  -5    0.22    0.15 
   1  -6  -5    0.37    0.16 
   1  -6  -5    0.35    0.11 
   1  -6  -5    0.34    0.16 
  -1   6   5    0.16    0.10 
  -1   6   5    0.25    0.12 
  -1   6   5    0.17    0.08 
   1   6  -5    0.37    0.12 
  -1   6   5    0.30    0.08 
  -1   6   5    0.38    0.10 
   1   6  -5    0.30    0.10 
  -1   6   5    0.36    0.09 
  -1   6   5    0.46    0.11 
  -1   6   5    0.45    0.15 
   1   6  -5    0.43    0.08 
  -1   6   5    0.61    0.21 
   1   6  -5    0.47    0.09 
  -1   6   5    0.50    0.12 
  -1   6   5    0.56    0.13 
  -1   6   5    0.40    0.09 
  -1   6   5    0.54    0.20 
  -1   6   5    0.52    0.15 
  -1   6   5    0.39    0.15 
  -1   6   5    0.54    0.18 
  -1   6   5    0.51    0.11 
   1   6  -5    0.37    0.09 
  -1   6   5    0.71    0.14 
   0  -6  -5   10.67    0.61 
   0  -6  -5   11.08    0.52 
   0  -6  -5   10.81    0.47 
   0  -6  -5   10.39    0.54 
   0  -6  -5   11.15    0.47 
   0  -6  -5    9.99    0.52 
   0  -6  -5   10.37    0.57 
   0   6   5    9.43    0.52 
   0   6   5   10.37    0.51 
   0   6   5   10.46    0.59 
   0   6   5   11.37    0.49 
   0   6   5   10.23    0.51 
   0   6   5   10.48    0.54 
   0   6   5   11.14    0.51 
   0   6  -5   10.75    0.41 
   0   6   5   10.98    0.45 
   0   6   5   10.44    0.48 
   0   6   5   11.44    0.47 
   0   6   5   10.55    0.50 
   0   6   5   10.26    0.47 
   0   6   5   10.92    0.42 
   0   6  -5   11.32    0.39 
   0   6   5   11.15    0.47 
   0   6  -5   10.58    0.39 
  -1  -6  -5    0.87    0.22 
  -1  -6  -5    0.60    0.17 
  -1  -6  -5    0.47    0.13 
  -1  -6  -5    0.55    0.22 
  -1  -6  -5    0.59    0.12 
  -1  -6  -5    0.34    0.21 
  -1  -6  -5    0.63    0.13 
  -1  -6  -5    0.63    0.19 
   1   6   5    0.36    0.14 
   1   6   5    0.52    0.18 
   1   6   5    0.51    0.14 
   1   6   5    0.54    0.20 
   1   6   5    0.54    0.17 
   1   6   5    0.57    0.17 
   1   6   5    0.75    0.22 
   1   6   5    0.42    0.09 
   1   6   5    0.64    0.15 
   1   6   5    0.56    0.16 
   1   6   5    0.55    0.13 
  -2  -6  -5    0.75    0.19 
  -2  -6  -5    0.54    0.14 
  -2  -6  -5    0.81    0.18 
  -2  -6  -5    0.69    0.14 
  -2  -6  -5    0.65    0.09 
   2   6   5    0.72    0.15 
   2   6   5    0.58    0.13 
   2   6   5    0.54    0.21 
   2   6   5    0.57    0.14 
   2   6   5    0.80    0.18 
   2   6   5    0.69    0.16 
   2   6   5    0.73    0.19 
   2   6   5    0.69    0.08 
   2   6   5    0.47    0.15 
   2   6   5    0.64    0.14 
   2   6   5    0.53    0.16 
   2   6   5    0.64    0.18 
  -3  -6  -5   25.66    0.98 
  -3  -6  -5   29.68    1.04 
  -3  -6  -5   27.39    0.95 
  -3  -6  -5   27.24    1.04 
  -3  -6  -5   29.03    1.74 
  -3  -6  -5   26.27    1.03 
   3   6   5   26.10    1.00 
   3   6   5   24.84    1.11 
   3   6   5   27.21    1.06 
   3   6   5   28.59    1.01 
   3   6   5   27.19    1.03 
   3   6   5   27.54    1.06 
   3   6   5   26.52    1.01 
   3   6   5   25.40    0.99 
   3   6   5   26.19    0.98 
   3   6   5   25.74    1.01 
   3  -7  -5   21.27    0.80 
  -3  -7   5   21.60    0.80 
   3  -7  -5   22.07    0.81 
   3   7  -5   20.51    0.79 
   3   7  -5   22.78    0.78 
   3   7  -5   21.31    0.78 
  -3   7   5   22.75    0.80 
  -3   7   5   20.65    0.78 
  -3   7   5   22.44    0.78 
  -3   7   5   24.42    0.86 
  -3   7   5   21.77    0.81 
  -3   7   5   20.70    0.80 
   2  -7  -5   12.33    0.47 
   2  -7  -5   11.40    0.47 
  -2   7   5   11.10    0.46 
   2   7  -5   11.78    0.42 
   2   7  -5   10.66    0.45 
  -2   7   5   11.77    0.49 
   2   7  -5   12.14    0.44 
  -2   7   5   12.02    0.49 
  -2   7   5   10.47    0.48 
  -2   7   5   11.12    0.47 
  -2   7   5   11.65    0.48 
  -2   7   5   11.71    0.43 
  -2   7   5   12.20    0.44 
   1  -7  -5    2.10    0.16 
   1  -7  -5    2.10    0.16 
  -1   7   5    2.21    0.20 
  -1   7   5    2.07    0.13 
  -1   7   5    2.14    0.16 
  -1   7   5    2.08    0.16 
   1   7  -5    2.14    0.11 
  -1   7   5    2.16    0.17 
  -1   7   5    2.05    0.16 
  -1   7   5    2.07    0.17 
  -1   7   5    1.95    0.11 
  -1   7   5    1.92    0.14 
   0  -7  -5   15.03    0.57 
   0  -7  -5   15.58    0.58 
   0   7   5   14.35    0.64 
   0   7   5   15.44    0.60 
   0   7   5   14.64    0.59 
   0   7   5   14.24    0.58 
   0   7   5   15.25    0.54 
   0   7   5   14.96    0.54 
   0   7   5   14.62    0.61 
   0   7   5   15.23    0.56 
   0   7   5   13.59    0.58 
  -1  -7  -5   16.55    0.65 
  -1  -7  -5   18.34    0.69 
  -1  -7  -5   16.41    0.64 
  -1  -7  -5   17.54    0.70 
  -1  -7  -5   16.88    0.63 
   1   7   5   16.76    0.66 
   1   7   5   16.82    0.62 
   1   7   5   16.88    0.65 
   1   7   5   16.78    0.66 
   1   7   5   17.69    0.67 
   1   7   5   16.98    0.62 
   1   7   5   15.28    0.67 
   1   7   5   18.53    0.75 
  -7   0   6   20.09    0.83 
  -7   0   6   21.34    0.82 
   7   0  -6   19.51    0.87 
  -7   0   6   21.79    0.89 
  -7   0   6   21.57    0.82 
  -7   0   6   21.93    0.82 
   7   0  -6   20.59    0.85 
   7   0  -6   22.02    0.84 
   7   0  -6   22.33    0.87 
   7   0  -6   21.02    0.82 
  -7   0   6   22.39    0.86 
  -7   0   6   21.35    0.83 
   7   0  -6   21.81    0.88 
   7   0  -6   21.26    0.77 
  -7   0   6   21.11    0.85 
  -7   0   6   22.07    0.91 
  -7   0   6   21.72    0.83 
  -6   0   6    1.33    0.29 
   6   0  -6    1.53    0.23 
   6   0  -6    1.33    0.21 
  -6   0   6    1.48    0.22 
  -6   0   6    1.40    0.23 
   6   0  -6    1.54    0.24 
  -6   0   6    1.34    0.36 
  -6   0   6    1.60    0.24 
  -6   0   6    1.32    0.21 
  -6   0   6    1.34    0.31 
  -6   0   6    1.47    0.17 
   6   0  -6    1.51    0.22 
   6   0  -6    1.59    0.19 
   6   0  -6    1.42    0.22 
   6   0  -6    1.66    0.13 
  -6   0   6    1.67    0.21 
  -6   0   6    1.40    0.21 
  -5   0   6   15.22    0.57 
   5   0  -6   16.39    0.80 
   5   0  -6   15.00    0.58 
  -5   0   6   14.66    0.64 
   5   0  -6   15.21    0.69 
   5   0  -6   16.03    0.68 
   5   0  -6   15.17    0.71 
   5   0  -6   15.61    0.69 
  -5   0   6   14.43    0.68 
  -5   0   6   16.49    0.70 
   5   0  -6   15.55    0.71 
  -5   0   6   15.30    0.67 
  -5   0   6   14.79    0.77 
  -5   0   6   15.61    0.73 
  -5   0   6   14.36    0.68 
  -5   0   6   14.95    0.76 
   5   0  -6   15.75    0.76 
   5   0  -6   15.50    0.71 
   5   0  -6   15.55    0.80 
   5   0  -6   12.61    0.78 
   5   0  -6   15.39    0.63 
  -5   0   6   14.74    0.66 
  -5   0   6   15.27    0.72 
  -5   0   6   14.13    0.61 
  -4   0   6    5.35    0.38 
   4   0  -6    5.07    0.32 
  -4   0   6    5.91    0.44 
  -4   0   6    5.25    0.33 
   4   0  -6    5.74    0.39 
  -4   0   6    5.28    0.41 
   4   0  -6    5.07    0.42 
  -4   0   6    5.19    0.34 
  -4   0   6    5.46    0.35 
   4   0  -6    5.65    0.43 
   4   0  -6    5.18    0.36 
   3   0  -6    0.03    0.11 
  -3   0   6    0.00    0.12 
  -3   0   6   -0.04    0.09 
  -3   0   6    0.21    0.13 
  -3   0   6    0.04    0.09 
  -3   0   6    0.17    0.16 
  -3   0   6    0.22    0.18 
   3   0  -6    0.16    0.11 
  -3   0   6    0.17    0.12 
   3   0  -6    0.06    0.13 
   3   0  -6    0.14    0.08 
  -3   0   6    0.19    0.14 
  -3   0   6    0.03    0.13 
   3   0  -6    0.31    0.11 
   3   0  -6    0.10    0.12 
  -3   0   6    0.18    0.11 
   3   0  -6    0.06    0.12 
   3   0  -6    0.12    0.14 
  -3   0   6    0.22    0.27 
  -2   0   6    5.60    0.41 
  -2   0   6    5.58    0.35 
  -2   0   6    5.86    0.40 
   2   0  -6    5.98    0.39 
   2   0  -6    6.20    0.35 
  -2   0   6    5.87    0.45 
  -2   0   6    6.23    0.41 
   2   0  -6    6.30    0.40 
  -2   0   6    6.89    0.39 
  -2   0   6    5.71    0.69 
   2   0  -6    5.77    0.41 
   2   0  -6    6.41    0.40 
  -2   0   6    6.14    0.38 
   2   0  -6    6.42    0.37 
  -1   0   6   38.53    1.60 
   1   0  -6   40.33    1.50 
   1   0  -6   42.98    1.59 
  -1   0   6   40.55    1.60 
  -1   0   6   37.58    1.49 
   1   0  -6   39.55    1.52 
   1   0  -6   41.06    1.61 
   1   0  -6   37.00    1.67 
  -1   0   6   40.78    2.08 
  -1   0   6   40.27    1.66 
   1   0  -6   40.65    1.56 
  -1   0   6   40.27    1.55 
  -1   0   6   40.76    1.60 
   0   0   6  204.57    7.22 
   0   0   6  196.30    7.17 
   0   0   6  192.96    7.21 
   0   0  -6  201.69    7.14 
   0   0  -6  195.73    7.17 
   0   0  -6  209.16    7.34 
   0   0   6  201.49    7.28 
   0   0   6  200.41    7.12 
   0   0  -6  204.72    7.12 
   0   0   6  212.40    7.26 
   0   0  -6  208.53    7.72 
   0   0   6  212.48    7.81 
   0   0  -6  206.36    7.23 
   0   0  -6  201.58    7.19 
   0   0   6  213.55    7.25 
   1   0   6    0.23    0.12 
  -1   0  -6    0.21    0.11 
   1   0   6    0.09    0.14 
   1   0   6    0.08    0.17 
   1   0   6    0.05    0.12 
   1   0   6    0.20    0.13 
   1   0   6    0.21    0.15 
  -1   0  -6    0.32    0.19 
  -1   0  -6    0.08    0.14 
   1   0   6   -0.08    0.23 
   1   0   6    0.07    0.08 
  -2   0  -6   50.33    1.84 
   2   0   6   52.56    1.98 
  -2   0  -6   49.78    2.03 
   2   0   6   48.20    1.85 
   2   0   6   49.74    1.92 
   2   0   6   49.68    1.98 
   2   0   6   51.35    1.84 
   2   0   6   48.75    1.87 
  -2   0  -6   48.53    1.84 
   2   0   6   40.64    2.32 
  -3   0  -6    1.00    0.15 
   3   0   6    0.87    0.19 
  -3   0  -6    0.67    0.17 
  -3   0  -6    0.66    0.13 
  -3   0  -6    0.76    0.09 
   3   0   6    0.84    0.19 
   3   0   6    0.85    0.22 
   3   0   6    0.86    0.17 
   3   0   6    0.58    0.21 
  -3   0  -6    0.72    0.15 
  -3   0  -6    0.78    0.18 
  -3   0  -6    0.71    0.09 
  -4   0  -6   33.81    1.22 
   4   0   6   31.11    1.33 
  -4   0  -6   32.02    1.26 
  -4   0  -6   34.16    1.37 
  -4   0  -6   32.64    1.23 
  -4   0  -6   33.41    1.21 
  -4   0  -6   34.89    1.22 
  -4   0  -6   33.43    1.28 
   4   0   6   32.17    1.26 
  -4   0  -6   35.66    1.26 
  -4   0  -6   35.22    1.28 
  -4   0  -6   34.42    1.25 
   4   0   6   31.83    1.38 
   4   0   6   34.25    1.32 
  -4   0  -6   34.41    1.29 
  -4   0  -6   32.02    1.29 
   4   0   6   34.13    1.35 
  -4   0  -6   35.70    1.32 
  -5   0  -6    0.13    0.07 
   5   0   6    0.07    0.07 
  -5   0  -6    0.10    0.06 
  -5   0  -6    0.11    0.05 
   5   0   6    0.03    0.09 
  -5   0  -6    0.06    0.12 
  -5   0  -6    0.05    0.09 
  -5   0  -6    0.11    0.09 
  -5   0  -6    0.11    0.17 
  -5   0  -6    0.15    0.07 
  -5   0  -6    0.17    0.09 
   5   0   6    0.13    0.11 
  -6   0  -6   21.35    0.72 
  -6   0  -6   20.37    0.72 
   6   0   6   18.01    0.75 
   6   0   6   20.39    0.75 
  -6   0  -6   19.18    0.80 
  -6   0  -6   19.81    0.73 
  -6   0  -6   21.05    0.76 
   7  -1  -6    1.88    0.24 
   7  -1  -6    1.53    0.21 
   7  -1  -6    1.88    0.22 
   7  -1  -6    1.72    0.12 
   7  -1  -6    1.92    0.20 
  -7  -1   6    1.81    0.24 
   7  -1  -6    1.78    0.17 
  -7  -1   6    1.84    0.19 
  -7  -1   6    1.68    0.20 
  -7  -1   6    1.85    0.19 
  -7   1   6    2.04    0.10 
  -7   1   6    1.84    0.16 
  -7   1   6    2.24    0.19 
  -7   1   6    2.02    0.17 
   7   1  -6    2.02    0.38 
   7   1  -6    1.99    0.11 
  -7   1   6    2.01    0.17 
  -7   1   6    2.00    0.18 
   7   1  -6    2.06    0.20 
   7   1  -6    1.82    0.18 
   7   1  -6    2.20    0.17 
  -7   1   6    1.95    0.25 
   7   1  -6    1.84    0.20 
  -7   1   6    1.55    0.19 
   7   1  -6    2.15    0.20 
  -7   1   6    2.17    0.17 
  -7   1   6    1.93    0.20 
  -7   1   6    1.89    0.21 
  -7   1   6    2.05    0.16 
   7   1  -6    1.94    0.15 
   7   1  -6    2.11    0.21 
  -6  -1   6    8.36    0.45 
  -6  -1   6    8.25    0.43 
  -6  -1   6    8.25    0.43 
   6  -1  -6    7.35    0.44 
  -6  -1   6    8.07    0.47 
   6  -1  -6    8.16    0.47 
   6  -1  -6    7.24    0.49 
  -6  -1   6    8.74    0.32 
   6  -1  -6    8.77    0.45 
  -6  -1   6    7.67    0.41 
  -6  -1   6    8.40    0.45 
   6  -1  -6    7.68    0.36 
  -6  -1   6    7.91    0.37 
   6  -1  -6    8.10    0.40 
   6   1  -6    7.81    0.33 
  -6   1   6    8.15    0.43 
   6   1  -6    7.90    0.44 
   6   1  -6    8.05    0.43 
  -6   1   6    8.93    0.41 
   6   1  -6    7.86    0.38 
   6   1  -6    7.97    0.46 
  -6   1   6    8.80    0.45 
  -6   1   6    8.37    0.46 
   6   1  -6    7.87    0.44 
   6   1  -6    7.86    0.40 
  -6   1   6    8.38    0.42 
   6   1  -6    8.28    0.45 
  -6   1   6    8.43    0.41 
   6   1  -6    8.36    0.32 
  -6   1   6    8.04    0.40 
  -6   1   6    7.55    0.45 
  -6   1   6    8.56    0.43 
  -6   1   6    8.83    0.40 
  -6   1   6    7.97    0.40 
  -6   1   6    8.74    0.49 
   5  -1  -6   47.14    1.73 
   5  -1  -6   43.71    1.79 
  -5  -1   6   46.45    1.77 
   5  -1  -6   45.36    1.78 
   5  -1  -6   48.61    1.83 
  -5  -1   6   49.43    1.83 
  -5  -1   6   48.19    1.80 
  -5  -1   6   49.32    1.78 
  -5  -1   6   50.98    1.70 
  -5  -1   6   46.89    1.91 
   5  -1  -6   43.64    1.88 
  -5  -1   6   46.91    1.72 
   5  -1  -6   50.05    1.72 
  -5  -1   6   52.34    1.81 
   5  -1  -6   44.21    1.81 
   5  -1  -6   45.89    1.80 
   5  -1  -6   41.20    1.91 
   5  -1  -6   49.23    1.84 
  -5  -1   6   50.46    1.85 
   5  -1  -6   46.00    2.08 
   5  -1  -6   47.29    1.87 
  -5  -1   6   48.69    1.90 
  -5  -1   6   44.55    1.77 
  -5   1   6   48.15    1.84 
  -5   1   6   44.98    1.74 
   5   1  -6   46.48    1.80 
   5   1  -6   45.39    1.79 
   5   1  -6   46.69    1.77 
   5   1  -6   46.82    1.79 
  -5   1   6   48.77    1.73 
   5   1  -6   47.29    1.74 
   5   1  -6   49.70    2.18 
  -5   1   6   46.83    1.80 
  -5   1   6   48.01    1.83 
  -5   1   6   46.43    1.78 
  -5   1   6   44.27    1.80 
   5   1  -6   45.17    1.84 
   5   1  -6   45.85    1.78 
  -5   1   6   45.29    1.76 
   5   1  -6   44.66    1.71 
   5   1  -6   47.06    1.78 
   5   1  -6   46.95    1.66 
  -5   1   6   48.43    1.88 
  -5   1   6   47.67    1.86 
   5   1  -6   46.09    1.73 
  -5   1   6   54.35    2.57 
   5   1  -6   47.85    1.91 
  -5   1   6   50.35    1.80 
   5   1  -6   47.41    1.89 
   5   1  -6   47.28    1.81 
  -5   1   6   47.16    1.76 
  -4  -1   6    4.17    0.31 
   4  -1  -6    4.45    0.38 
   4  -1  -6    3.90    0.30 
   4  -1  -6    4.07    0.41 
   4  -1  -6    3.08    0.45 
  -4  -1   6    4.31    0.31 
  -4  -1   6    3.87    0.30 
  -4  -1   6    3.99    0.41 
  -4  -1   6    4.05    0.28 
   4  -1  -6    4.18    0.39 
   4  -1  -6    4.02    0.31 
   4  -1  -6    3.84    0.31 
  -4  -1   6    4.02    0.32 
  -4  -1   6    4.12    0.40 
  -4  -1   6    3.94    0.32 
   4  -1  -6    4.42    0.32 
   4  -1  -6    3.99    0.34 
  -4  -1   6    4.03    0.36 
   4  -1  -6    5.24    0.43 
   4   1  -6    3.80    0.36 
  -4   1   6    4.14    0.36 
   4   1  -6    4.15    0.37 
  -4   1   6    3.88    0.31 
  -4   1   6    4.17    0.37 
   4   1  -6    4.00    0.32 
   4   1  -6    3.80    0.29 
  -4   1   6    4.07    0.29 
  -4   1   6    3.56    0.31 
  -3  -1   6   10.62    0.61 
   3  -1  -6   11.01    0.60 
  -3  -1   6   11.12    0.62 
  -3  -1   6    9.51    0.51 
   3  -1  -6   10.39    0.51 
   3  -1  -6   10.36    0.59 
   3  -1  -6    9.32    0.54 
  -3  -1   6   10.47    0.53 
  -3  -1   6   10.39    0.59 
   3  -1  -6   10.61    0.52 
   3  -1  -6   10.45    0.79 
  -3  -1   6   11.21    0.56 
   3  -1  -6   10.77    0.60 
   3  -1  -6   11.04    0.54 
   3  -1  -6   10.44    0.59 
  -3  -1   6   10.10    0.93 
   3  -1  -6   10.33    0.56 
  -3  -1   6   11.09    0.65 
  -3  -1   6   10.51    0.55 
   3   1  -6    9.95    0.94 
  -3   1   6   10.83    0.50 
   3   1  -6   10.62    0.57 
   3   1  -6    9.80    0.58 
  -3   1   6   11.06    0.60 
  -3   1   6   11.13    0.56 
   3   1  -6   11.48    0.61 
  -3   1   6   10.41    0.67 
   3   1  -6   10.63    0.53 
   3   1  -6    9.37    0.55 
   3   1  -6   10.74    0.51 
  -3   1   6   11.36    0.61 
  -3   1   6   11.52    0.54 
  -3   1   6   11.12    0.51 
   2  -1  -6    0.69    0.23 
  -2  -1   6    0.93    0.14 
   2  -1  -6    0.83    0.18 
  -2  -1   6    0.72    0.33 
   2  -1  -6    0.86    0.19 
   2  -1  -6    1.26    0.21 
  -2  -1   6    1.04    0.21 
  -2  -1   6    1.07    0.22 
   2  -1  -6    0.84    0.16 
  -2  -1   6    0.89    0.17 
   2  -1  -6    0.97    0.15 
  -2  -1   6    0.71    0.21 
   2  -1  -6    0.86    0.19 
   2  -1  -6    0.74    0.18 
  -2  -1   6    0.70    0.18 
   2  -1  -6    0.96    0.21 
  -2   1   6    1.42    0.23 
  -2   1   6    0.91    0.18 
   2   1  -6    0.93    0.20 
   2   1  -6    0.73    0.22 
   2   1  -6    0.82    0.15 
   2   1  -6    0.87    0.16 
  -2   1   6    0.81    0.19 
  -2   1   6    1.04    0.20 
  -2   1   6    1.04    0.17 
  -2   1   6    0.31    0.27 
   2   1  -6    0.88    0.17 
   2   1  -6    0.54    0.22 
  -2   1   6    1.82    0.30 
  -2   1   6    1.32    0.20 
  -2   1   6    0.69    0.20 
   2   1  -6    0.77    0.20 
  -1  -1   6   32.30    1.33 
   1  -1  -6   30.50    1.20 
  -1  -1   6   31.61    1.23 
  -1  -1   6   34.62    1.35 
  -1  -1   6   35.81    1.80 
  -1  -1   6   31.53    1.36 
  -1  -1   6   32.19    1.37 
  -1  -1   6   29.64    1.30 
  -1  -1   6   32.66    1.28 
   1  -1  -6   33.73    1.33 
   1  -1  -6   31.82    1.28 
   1  -1  -6   31.83    1.25 
   1  -1  -6   31.99    1.33 
   1   1  -6   34.21    1.27 
  -1   1   6   32.92    1.33 
   1   1  -6   31.28    1.33 
   1   1  -6   32.33    1.24 
  -1   1   6   31.59    1.28 
   1   1  -6   30.30    1.60 
  -1   1   6   32.36    1.81 
  -1   1   6   31.17    1.25 
  -1   1   6   31.75    1.34 
  -1   1   6   32.81    1.30 
  -1   1   6   33.39    1.42 
   1   1  -6   31.71    1.41 
   1   1  -6   31.89    1.25 
   1   1  -6   32.96    1.31 
  -1   1   6   33.08    1.36 
   0  -1   6   99.53    3.76 
   0  -1   6  102.65    4.20 
   0  -1   6  105.69    3.71 
   0  -1  -6  103.99    3.66 
   0  -1  -6  101.32    3.84 
   0  -1  -6  107.00    3.72 
   0  -1   6  101.26    3.76 
   0  -1  -6  101.22    3.73 
   0  -1   6  105.24    3.73 
   0  -1  -6  100.08    3.63 
   0  -1   6  102.52    3.66 
   0  -1   6  102.66    3.61 
   0   1   6   98.77    3.64 
   0   1   6   98.04    3.67 
   0   1   6   96.37    3.72 
   0   1   6   98.83    3.72 
   0   1  -6  102.59    3.81 
   0   1  -6   95.63    3.61 
   0   1   6  106.01    3.82 
   0   1  -6  105.43    3.64 
   0   1   6  102.47    3.75 
   0   1   6   99.73    4.30 
   0   1   6  104.78    3.69 
   0   1  -6  102.30    3.72 
   1  -1   6   23.08    1.08 
  -1  -1  -6   24.05    0.97 
  -1  -1  -6   23.84    1.07 
   1  -1   6   25.29    1.02 
   1  -1   6   24.85    1.05 
   1  -1   6   23.24    1.01 
  -1  -1  -6   25.41    1.20 
  -1  -1  -6   24.12    1.04 
   1  -1   6   23.95    1.11 
   1  -1   6   25.05    1.07 
  -1  -1  -6   24.95    1.01 
   1  -1   6   24.17    0.97 
   1  -1   6   24.30    1.44 
  -1   1  -6   24.70    0.98 
  -1   1  -6   24.17    0.97 
   1   1   6   25.90    1.16 
   1   1   6   25.43    1.09 
   1   1   6   25.78    1.57 
   1   1   6   25.27    1.04 
   1   1   6   25.45    1.12 
  -1   1  -6   24.75    0.91 
  -1   1  -6   24.99    0.91 
  -1   1  -6   26.18    1.15 
   2  -1   6    8.82    0.48 
   2  -1   6    7.16    0.61 
  -2  -1  -6    7.47    0.42 
  -2  -1  -6    8.76    0.62 
   2  -1   6    9.63    0.44 
   2  -1   6    8.62    0.50 
   2  -1   6    8.88    0.47 
  -2  -1  -6    9.08    0.50 
   2  -1   6    8.38    0.52 
  -2   1  -6    8.65    0.44 
  -2   1  -6    9.02    0.39 
   2   1   6    8.84    0.90 
   2   1   6   10.01    0.51 
   2   1   6    9.00    0.59 
   2   1   6    9.34    0.48 
   2   1   6    9.69    0.55 
  -2   1  -6    8.57    0.56 
   2   1   6    9.91    0.59 
  -2   1  -6    9.03    0.42 
   2   1   6    8.50    0.46 
  -3  -1  -6   68.65    2.53 
  -3  -1  -6   63.39    2.58 
  -3  -1  -6   70.85    2.68 
  -3  -1  -6   78.00    2.73 
  -3  -1  -6   62.84    2.48 
   3  -1   6   70.92    2.67 
   3  -1   6   70.67    2.56 
  -3  -1  -6   60.14    2.70 
   3   1   6   71.40    2.61 
  -3   1  -6   68.41    2.52 
  -3   1  -6   75.03    2.57 
  -3   1  -6   70.64    2.50 
  -3   1  -6   71.74    2.50 
   3   1   6   70.31    2.68 
  -3   1  -6   80.30    2.56 
   3   1   6   69.99    2.75 
   3   1   6   71.76    2.63 
  -3   1  -6   69.17    2.52 
  -4  -1  -6   25.70    0.97 
  -4  -1  -6   25.24    0.99 
  -4  -1  -6   25.28    1.04 
  -4  -1  -6   26.45    0.94 
  -4  -1  -6   21.85    1.07 
  -4  -1  -6   25.76    1.01 
  -4  -1  -6   25.91    1.03 
  -4  -1  -6   26.27    1.05 
  -4  -1  -6   26.48    1.13 
  -4  -1  -6   25.62    0.99 
  -4  -1  -6   26.35    0.99 
  -4  -1  -6   25.81    1.00 
  -4  -1  -6   25.22    1.01 
  -4  -1  -6   24.84    1.02 
  -4  -1  -6   26.05    0.98 
   4  -1   6   28.54    1.20 
  -4  -1  -6   26.03    0.97 
  -4  -1  -6   23.55    0.95 
  -4   1  -6   28.05    1.10 
  -4   1  -6   27.59    1.31 
   4   1   6   27.31    1.09 
   4   1   6   25.99    0.99 
   4   1   6   25.60    0.99 
  -4   1  -6   25.98    1.05 
  -4   1  -6   23.16    0.99 
  -4   1  -6   25.34    0.94 
  -4   1  -6   26.77    0.97 
  -4   1  -6   26.03    1.03 
  -4   1  -6   26.20    1.00 
   4   1   6   20.88    1.25 
  -4   1  -6   26.74    0.97 
  -4   1  -6   27.57    1.32 
   4   1   6   24.11    1.13 
  -5  -1  -6   20.92    0.79 
  -5  -1  -6   20.24    0.80 
  -5  -1  -6   21.74    0.76 
  -5  -1  -6   20.44    0.80 
  -5  -1  -6   20.90    0.84 
  -5  -1  -6   21.01    0.77 
  -5  -1  -6   20.61    0.82 
  -5  -1  -6   21.58    0.83 
  -5  -1  -6   20.69    0.76 
  -5  -1  -6   21.38    0.81 
   5  -1   6   20.77    0.81 
  -5  -1  -6   21.34    0.78 
  -5  -1  -6   20.72    0.81 
  -5  -1  -6   20.87    0.82 
   5   1   6   21.43    0.89 
   5   1   6   21.54    0.81 
  -5   1  -6   20.64    0.81 
  -5   1  -6   21.65    0.79 
  -5   1  -6   21.13    0.79 
  -5   1  -6   20.55    0.76 
  -5   1  -6   16.88    0.93 
  -5   1  -6   22.13    0.81 
  -6  -1  -6   12.79    0.46 
  -6  -1  -6   13.36    0.50 
  -6  -1  -6   13.64    0.51 
  -6  -1  -6   13.24    0.48 
   6  -1   6   12.35    0.50 
  -6  -1  -6   12.23    0.51 
  -6  -1  -6   13.18    0.51 
  -6   1  -6   15.11    0.57 
   6   1   6   13.32    0.50 
   6   1   6   12.12    0.49 
  -6   1  -6   12.43    0.48 
  -6   1  -6   11.71    0.47 
  -6   1  -6   13.03    0.51 
  -6   1  -6   12.04    0.47 
   7  -2  -6    4.58    0.28 
  -7  -2   6    5.28    0.29 
  -7  -2   6    5.32    0.29 
   7  -2  -6    4.93    0.26 
   7  -2  -6    4.84    0.23 
   7  -2  -6    5.36    0.35 
  -7  -2   6    4.52    0.26 
  -7  -2   6    4.24    0.25 
   7  -2  -6    4.93    0.31 
   7   2  -6    4.96    0.25 
   7   2  -6    4.05    0.27 
  -7   2   6    5.60    0.26 
  -7   2   6    4.93    0.24 
   7   2  -6    5.29    0.29 
   7   2  -6    4.76    0.27 
  -7   2   6    5.15    0.26 
   7   2  -6    4.94    0.35 
   7   2  -6    4.72    0.26 
  -7   2   6    4.58    0.23 
  -7   2   6    4.21    0.27 
  -7   2   6    4.94    0.24 
  -7   2   6    4.69    0.26 
  -7   2   6    5.01    0.27 
   7   2  -6    3.94    0.41 
  -7   2   6    4.83    0.32 
   7   2  -6    4.72    0.26 
   6  -2  -6   21.58    0.86 
   6  -2  -6   22.10    0.90 
   6  -2  -6   21.26    0.97 
  -6  -2   6   22.37    0.90 
  -6  -2   6   21.79    0.89 
   6  -2  -6   20.83    0.93 
   6  -2  -6   20.58    0.84 
  -6  -2   6   21.99    0.91 
  -6  -2   6   22.60    0.80 
  -6  -2   6   22.31    0.85 
  -6  -2   6   21.11    0.91 
   6  -2  -6   22.21    0.85 
   6  -2  -6   23.26    0.94 
  -6   2   6   22.10    0.88 
  -6   2   6   22.36    1.84 
   6   2  -6   22.97    0.92 
  -6   2   6   22.80    0.81 
  -6   2   6   22.22    0.86 
  -6   2   6   22.01    0.85 
  -6   2   6   21.05    0.84 
   6   2  -6   21.32    0.88 
   6   2  -6   21.70    0.78 
   6   2  -6   21.12    0.93 
   6   2  -6   22.97    0.85 
   6   2  -6   22.70    0.88 
   6   2  -6   22.45    0.86 
  -6   2   6   21.84    0.92 
  -6   2   6   21.73    0.87 
  -6   2   6   20.37    0.90 
  -6   2   6   20.88    0.85 
  -6   2   6   21.62    0.98 
  -6   2   6   22.44    0.89 
  -6   2   6   22.05    0.91 
   6   2  -6   21.61    0.82 
   6   2  -6   22.30    0.90 
   6   2  -6   22.12    0.99 
  -6   2   6   23.14    0.87 
   5  -2  -6   10.46    0.54 
  -5  -2   6   10.10    0.46 
  -5  -2   6    9.69    0.54 
  -5  -2   6   10.06    0.51 
   5  -2  -6    9.73    0.46 
   5  -2  -6    9.01    0.49 
  -5  -2   6    9.84    0.53 
   5  -2  -6    8.75    0.52 
   5  -2  -6    9.81    0.52 
  -5  -2   6   10.00    0.53 
  -5  -2   6    9.77    0.51 
   5  -2  -6   10.31    0.59 
   5  -2  -6    8.94    0.53 
   5  -2  -6   10.25    0.45 
  -5  -2   6    9.99    0.43 
  -5  -2   6   10.59    0.59 
   5  -2  -6   11.38    0.67 
  -5  -2   6   10.10    0.50 
   5  -2  -6    9.10    0.58 
   5  -2  -6    8.47    0.52 
  -5  -2   6   10.02    0.53 
   5  -2  -6    9.18    0.44 
  -5  -2   6    9.16    0.67 
   5   2  -6   10.05    0.49 
   5   2  -6   10.09    0.52 
  -5   2   6    8.74    0.45 
  -5   2   6   10.33    0.56 
  -5   2   6    9.71    0.49 
   5   2  -6    9.67    0.50 
   5   2  -6    9.73    0.43 
  -5   2   6    9.72    0.46 
  -5   2   6    9.54    0.45 
  -5   2   6    9.73    0.48 
   5   2  -6   10.47    0.49 
  -5   2   6   10.06    0.46 
  -5   2   6    9.96    0.48 
   5   2  -6    8.91    0.56 
   5   2  -6    9.73    0.49 
  -5   2   6    9.91    0.52 
   5   2  -6   10.16    0.46 
  -5   2   6    9.99    0.50 
   5   2  -6    9.76    0.59 
   5   2  -6   10.45    0.55 
   5   2  -6    9.66    0.58 
  -5   2   6    9.98    0.46 
  -5   2   6   10.29    0.51 
  -5   2   6    9.89    0.53 
   5   2  -6    9.85    0.48 
  -5   2   6   10.61    0.55 
   5   2  -6   10.33    0.45 
   5   2  -6    9.83    0.37 
  -4  -2   6   29.72    1.21 
   4  -2  -6   30.01    1.21 
  -4  -2   6   28.31    1.17 
  -4  -2   6   31.59    1.29 
  -4  -2   6   31.24    1.27 
   4  -2  -6   29.09    1.22 
  -4  -2   6   30.38    1.22 
   4  -2  -6   29.76    1.27 
   4  -2  -6   30.97    1.23 
  -4  -2   6   31.94    1.24 
   4  -2  -6   31.02    1.23 
   4  -2  -6   31.52    1.21 
  -4  -2   6   30.14    1.37 
   4  -2  -6   28.67    1.34 
  -4  -2   6   29.28    1.21 
   4  -2  -6   29.79    1.30 
  -4   2   6   27.13    1.19 
   4   2  -6   30.99    1.27 
   4   2  -6   30.04    1.29 
  -4   2   6   30.52    1.26 
  -4   2   6   30.60    1.23 
   4   2  -6   26.54    1.17 
  -4   2   6   30.89    1.20 
  -4   2   6   26.43    1.23 
   3  -2  -6   27.86    1.14 
   3  -2  -6   27.95    1.26 
   3  -2  -6   29.45    1.16 
  -3  -2   6   28.67    1.17 
  -3  -2   6   29.63    1.22 
  -3  -2   6   26.39    1.13 
   3  -2  -6   28.53    1.28 
   3  -2  -6   27.49    1.16 
  -3  -2   6   27.22    1.24 
  -3  -2   6   29.28    1.30 
   3  -2  -6   27.67    1.14 
   3  -2  -6   28.18    1.27 
   3  -2  -6   29.37    1.16 
  -3  -2   6   28.04    1.67 
  -3  -2   6   29.58    1.12 
   3  -2  -6   24.86    1.60 
   3  -2  -6   27.62    1.20 
  -3   2   6   28.66    1.21 
  -3   2   6   28.27    1.21 
   3   2  -6   28.72    1.16 
  -3   2   6   28.01    1.13 
   3   2  -6   29.69    1.12 
   3   2  -6   27.72    1.21 
  -3   2   6   28.83    1.16 
   3   2  -6   30.74    1.24 
  -3   2   6   27.30    1.15 
   3   2  -6   27.98    1.34 
   2  -2  -6   19.90    0.92 
   2  -2  -6   21.82    0.90 
  -2  -2   6   22.27    1.01 
   2  -2  -6   20.82    0.93 
   2  -2  -6   20.99    1.00 
  -2  -2   6   21.57    0.90 
   2  -2  -6   20.65    0.89 
   2  -2  -6   21.46    0.88 
   2  -2  -6   20.70    0.95 
  -2  -2   6   21.43    0.94 
  -2  -2   6   19.08    0.95 
  -2  -2   6   20.87    1.34 
   2  -2  -6   19.98    0.96 
   2  -2  -6   19.79    1.32 
  -2  -2   6   20.79    0.85 
  -2  -2   6   22.70    0.99 
   2  -2  -6   20.29    0.87 
  -2  -2   6   18.69    1.15 
   2  -2  -6   20.57    0.96 
  -2   2   6   21.43    0.92 
  -2   2   6   20.21    0.94 
   2   2  -6   21.11    0.87 
   2   2  -6   22.02    0.95 
  -2   2   6   21.19    0.86 
   2   2  -6   20.52    0.93 
   2   2  -6   21.40    1.05 
  -2   2   6   22.02    0.96 
  -2   2   6   21.59    0.96 
   2   2  -6   21.37    1.05 
   2   2  -6   20.70    0.96 
  -2   2   6   21.82    0.84 
  -1  -2   6    8.05    0.43 
   1  -2  -6    8.16    0.42 
  -1  -2   6    7.56    0.46 
  -1  -2   6    7.55    0.49 
   1  -2  -6    8.68    0.44 
  -1  -2   6    7.91    0.49 
   1  -2  -6    7.83    0.49 
  -1  -2   6    7.81    0.39 
   1  -2  -6    8.36    0.51 
   1  -2  -6    8.20    0.47 
  -1  -2   6    7.23    0.72 
  -1  -2   6    7.22    0.52 
  -1  -2   6    8.27    0.48 
   1  -2  -6    7.76    0.49 
   1   2  -6    8.11    0.41 
  -1   2   6    8.51    0.46 
   1   2  -6    8.00    0.47 
  -1   2   6    7.89    0.49 
   1   2  -6    8.38    0.50 
   1   2  -6    8.31    0.54 
  -1   2   6    8.14    0.42 
   1   2  -6    8.26    0.35 
  -1   2   6    8.14    0.50 
   1   2  -6    7.73    0.40 
  -1   2   6    7.42    0.53 
   0  -2   6   49.48    1.76 
   0  -2   6   46.24    1.83 
   0  -2  -6   48.07    1.83 
   0  -2  -6   47.77    1.80 
   0  -2  -6   48.09    1.88 
   0  -2   6   47.33    1.88 
   0  -2   6   47.57    1.90 
   0  -2  -6   49.27    1.89 
   0  -2   6   48.87    1.80 
   0  -2  -6   47.75    1.75 
   0  -2   6   46.31    1.79 
   0  -2   6   48.43    1.86 
   0   2  -6   48.86    1.93 
   0   2   6   46.90    1.96 
   0   2  -6   45.85    1.86 
   0   2   6   48.38    1.84 
   0   2   6   49.02    1.90 
   0   2   6   47.13    1.79 
   0   2  -6   48.29    1.77 
   0   2   6   46.52    2.43 
   0   2   6   47.25    1.89 
   0   2  -6   46.85    1.74 
   0   2   6   47.13    1.89 
   0   2   6   45.75    1.83 
   1  -2   6   58.51    2.17 
  -1  -2  -6   57.57    2.19 
  -1  -2  -6   57.73    2.16 
  -1  -2  -6   59.17    2.26 
   1  -2   6   59.38    2.13 
  -1  -2  -6   60.14    2.27 
  -1   2  -6   55.07    2.28 
   1   2   6   60.16    2.89 
  -1   2  -6   60.87    2.09 
   1   2   6   56.63    2.18 
   1   2   6   56.63    2.30 
   1   2   6   57.07    2.21 
   1   2   6   57.96    2.22 
  -1   2  -6   58.29    2.14 
   1   2   6   55.77    2.26 
  -1   2  -6   61.96    2.54 
   1   2   6   62.46    2.20 
   1   2   6   58.28    2.35 
  -2  -2  -6  100.80    3.47 
  -2  -2  -6   88.43    3.37 
   2  -2   6   98.78    3.33 
   2  -2   6   94.55    3.37 
  -2   2  -6   94.88    3.33 
   2   2   6   92.54    3.39 
  -2   2  -6   90.53    3.47 
   2   2   6   87.50    3.52 
  -2   2  -6   89.38    3.32 
  -2   2  -6   96.48    3.66 
  -2   2  -6   96.60    3.69 
   2   2   6   93.63    3.42 
   2   2   6   95.84    3.48 
   2   2   6   94.74    3.42 
  -2   2  -6   89.47    3.27 
   2   2   6   98.64    3.59 
  -2   2  -6   88.75    3.62 
   2   2   6   88.03    3.38 
  -3  -2  -6   21.18    0.87 
  -3  -2  -6   21.44    0.99 
  -3  -2  -6   20.78    0.84 
  -3  -2  -6   22.32    0.95 
  -3  -2  -6   22.26    0.89 
  -3  -2  -6   20.90    0.85 
  -3  -2  -6   21.84    0.78 
   3  -2   6   20.99    0.86 
  -3  -2  -6   21.93    0.92 
  -3  -2  -6   19.91    0.87 
  -3  -2  -6   21.59    0.85 
  -3  -2  -6   21.62    0.85 
  -3  -2  -6   21.61    0.88 
  -3  -2  -6   21.65    0.85 
  -3  -2  -6   22.07    0.96 
   3   2   6   22.70    0.93 
  -3   2  -6   21.36    0.96 
  -3   2  -6   21.66    0.82 
   3   2   6   19.69    1.04 
  -3   2  -6   20.25    0.79 
   3   2   6   22.45    1.01 
   3   2   6   20.67    0.94 
   3   2   6   19.76    0.93 
  -3   2  -6   17.68    1.12 
   3   2   6   22.18    0.93 
   3   2   6   20.94    0.85 
   3   2   6   21.13    0.90 
   3   2   6   19.50    0.83 
  -3   2  -6   20.37    0.77 
  -3   2  -6   20.11    0.80 
  -3   2  -6   22.01    0.85 
  -3   2  -6   21.36    0.80 
  -3   2  -6   21.52    0.77 
  -3   2  -6   20.75    0.82 
   3   2   6   20.92    0.94 
   3   2   6   21.30    0.83 
  -4  -2  -6   54.63    2.02 
  -4  -2  -6   56.18    2.00 
  -4  -2  -6   55.31    2.08 
  -4  -2  -6   55.76    2.02 
  -4  -2  -6   55.73    1.97 
  -4  -2  -6   55.88    2.16 
  -4  -2  -6   54.39    1.95 
  -4  -2  -6   56.93    2.02 
  -4  -2  -6   54.76    2.08 
  -4  -2  -6   58.64    2.02 
  -4  -2  -6   56.29    2.00 
  -4  -2  -6   54.60    2.04 
  -4  -2  -6   53.85    2.04 
   4   2   6   55.64    2.09 
  -4   2  -6   57.23    2.00 
  -4   2  -6   54.22    1.99 
   4   2   6   54.29    2.01 
  -4   2  -6   56.15    1.94 
   4   2   6   52.36    1.99 
   4   2   6   52.52    2.15 
   4   2   6   55.86    2.02 
  -4   2  -6   56.75    1.97 
  -4   2  -6   55.96    2.02 
   4   2   6   53.30    2.10 
   4   2   6   59.87    2.08 
  -4   2  -6   57.00    1.97 
  -5  -2  -6    3.47    0.24 
  -5  -2  -6    3.08    0.21 
  -5  -2  -6    2.65    0.21 
  -5  -2  -6    2.97    0.19 
  -5  -2  -6    3.16    0.15 
  -5  -2  -6    3.14    0.21 
  -5  -2  -6    3.81    0.27 
  -5  -2  -6    3.28    0.20 
  -5  -2  -6    3.17    0.23 
  -5  -2  -6    3.32    0.19 
   5   2   6    3.22    0.27 
   5   2   6    3.12    0.19 
  -5   2  -6    2.67    0.15 
  -5   2  -6    3.15    0.17 
   5   2   6    2.83    0.22 
   5   2   6    2.84    0.23 
  -5   2  -6    3.01    0.16 
   5   2   6    2.98    0.19 
   7  -3  -6    1.41    0.14 
  -7  -3   6    1.55    0.14 
   7  -3  -6    1.39    0.16 
  -7  -3   6    1.78    0.15 
   7  -3  -6    1.36    0.12 
   7  -3  -6    1.26    0.15 
   7  -3  -6    1.57    0.11 
  -7  -3   6    1.96    0.18 
  -7  -3   6    1.54    0.11 
  -7   3   6    1.31    0.13 
   7   3  -6    1.67    0.18 
   7   3  -6    1.25    0.14 
   7   3  -6    1.72    0.13 
   7   3  -6    1.69    0.18 
   7   3  -6    1.33    0.14 
  -7   3   6    2.02    0.15 
  -7   3   6    1.43    0.10 
  -7   3   6    1.47    0.09 
   7   3  -6    1.43    0.14 
   7   3  -6    1.64    0.08 
  -7   3   6    1.58    0.17 
  -7   3   6    1.51    0.11 
  -7   3   6    1.46    0.10 
   7   3  -6    1.44    0.14 
  -7   3   6    1.60    0.13 
   7   3  -6    1.56    0.15 
  -7   3   6    1.42    0.14 
   6  -3  -6   12.98    0.60 
   6  -3  -6   12.78    0.61 
  -6  -3   6   12.65    0.48 
   6  -3  -6   13.00    0.54 
  -6  -3   6   12.46    0.56 
  -6  -3   6   12.40    0.53 
  -6  -3   6   12.43    0.58 
  -6  -3   6   12.30    0.57 
   6  -3  -6   11.72    0.52 
   6  -3  -6   12.69    0.53 
   6  -3  -6   12.81    0.56 
  -6   3   6   12.45    0.56 
   6   3  -6   12.34    0.53 
  -6   3   6   13.22    0.54 
  -6   3   6   13.67    0.51 
   6   3  -6   12.82    0.57 
  -6   3   6   12.99    0.56 
  -6   3   6   12.30    0.51 
  -6   3   6   13.10    0.52 
   6   3  -6   12.61    0.56 
   6   3  -6   11.82    0.61 
   6   3  -6   12.60    0.54 
   6   3  -6   13.73    0.52 
   6   3  -6   12.45    0.55 
  -6   3   6   12.74    0.55 
   6   3  -6   12.30    0.56 
  -6   3   6   13.14    0.53 
   6   3  -6   12.62    0.51 
   6   3  -6   12.68    0.60 
  -6   3   6   12.74    0.62 
  -6   3   6   12.67    0.50 
   5  -3  -6    9.49    0.58 
  -5  -3   6   10.90    0.54 
  -5  -3   6   10.23    0.46 
  -5  -3   6   10.85    0.52 
   5  -3  -6   10.35    0.51 
  -5  -3   6   10.97    0.48 
   5  -3  -6   11.14    0.48 
  -5  -3   6   10.51    0.51 
  -5  -3   6   10.98    0.56 
   5  -3  -6   11.13    0.48 
   5  -3  -6    9.91    0.53 
   5  -3  -6   10.65    0.49 
  -5  -3   6   10.44    0.59 
  -5  -3   6   10.30    0.45 
   5  -3  -6   11.36    0.55 
  -5  -3   6   10.07    0.54 
  -5   3   6   10.05    0.49 
  -5   3   6   10.50    0.41 
  -5   3   6   10.76    0.53 
  -5   3   6    9.36    0.47 
   5   3  -6   10.81    0.46 
   5   3  -6   10.43    0.54 
   5   3  -6   10.50    0.50 
  -5   3   6   11.05    0.48 
  -5   3   6   11.08    0.60 
  -5   3   6   10.62    0.50 
   5   3  -6   10.50    0.51 
   5   3  -6   10.26    0.41 
  -5   3   6   10.64    0.48 
   5   3  -6   10.50    0.50 
  -5   3   6   10.59    0.47 
   5   3  -6   10.31    0.48 
   5   3  -6   10.68    0.46 
   5   3  -6   10.37    0.47 
  -5   3   6   10.74    0.48 
  -5   3   6    9.92    0.55 
  -5   3   6    9.92    0.53 
  -5   3   6   10.77    0.46 
   5   3  -6   10.14    0.51 
  -5   3   6   10.73    0.53 
   5   3  -6   11.28    0.63 
   5   3  -6   10.11    0.56 
   5   3  -6   10.53    0.48 
   4  -3  -6   19.02    1.04 
   4  -3  -6   22.83    0.96 
  -4  -3   6   22.03    0.91 
  -4  -3   6   22.32    1.07 
  -4  -3   6   22.71    0.95 
  -4  -3   6   22.92    0.95 
   4  -3  -6   20.96    0.88 
  -4  -3   6   21.50    0.86 
   4  -3  -6   22.52    0.87 
   4  -3  -6   23.57    0.98 
  -4  -3   6   23.58    1.02 
   4  -3  -6   23.03    0.97 
   4  -3  -6   23.07    1.01 
   4  -3  -6   23.60    1.01 
   4  -3  -6   22.32    0.94 
   4  -3  -6   21.57    0.91 
   4  -3  -6   22.51    0.88 
  -4  -3   6   21.86    0.86 
  -4   3   6   21.57    0.87 
   4   3  -6   21.67    1.02 
   4   3  -6   21.84    0.86 
   4   3  -6   21.90    0.88 
   4   3  -6   22.29    0.88 
  -4   3   6   21.48    0.87 
   4   3  -6   21.54    0.84 
   4   3  -6   21.81    0.95 
  -4   3   6   20.83    0.99 
   4   3  -6   22.53    0.84 
   4   3  -6   21.14    0.89 
  -4   3   6   21.60    0.89 
  -4   3   6   21.92    0.94 
  -4   3   6   21.61    0.89 
  -4   3   6   22.28    0.87 
   4   3  -6   21.71    0.90 
  -4   3   6   21.20    0.89 
  -4   3   6   21.74    0.86 
  -4   3   6   22.61    0.90 
   4   3  -6   22.00    1.01 
  -4   3   6   21.32    0.90 
  -4   3   6   22.17    0.93 
   4   3  -6   22.37    0.89 
   4   3  -6   22.08    0.87 
   4   3  -6   22.17    0.93 
  -4   3   6   22.73    0.97 
   4   3  -6   21.63    0.81 
  -4   3   6   21.67    0.98 
  -4   3   6   22.02    0.97 
   4   3  -6   21.16    1.01 
   3  -3  -6   59.08    2.28 
   3  -3  -6   58.67    2.22 
   3  -3  -6   59.89    2.23 
  -3  -3   6   55.43    2.18 
  -3  -3   6   61.62    2.28 
   3  -3  -6   59.99    2.21 
   3  -3  -6   57.30    2.34 
   3  -3  -6   57.00    2.22 
   3  -3  -6   66.11    2.77 
  -3  -3   6   58.37    2.20 
  -3  -3   6   58.04    2.22 
  -3  -3   6   57.27    2.33 
   3  -3  -6   58.86    2.23 
  -3   3   6   60.63    2.20 
  -3   3   6   62.29    2.24 
   3   3  -6   56.78    2.18 
   3   3  -6   54.32    2.12 
   3   3  -6   61.51    2.32 
   3   3  -6   61.41    2.31 
   3   3  -6   59.95    2.21 
  -3   3   6   61.27    2.37 
  -3   3   6   56.83    2.25 
  -2  -3   6    4.05    0.33 
  -2  -3   6    4.19    0.27 
   2  -3  -6    3.71    0.30 
   2  -3  -6    3.94    0.34 
   2  -3  -6    4.08    0.32 
  -2  -3   6    4.05    0.31 
   2  -3  -6    4.00    0.31 
  -2  -3   6    3.63    0.82 
  -2  -3   6    3.68    0.36 
   2  -3  -6    4.09    0.33 
   2  -3  -6    4.09    0.32 
   2  -3  -6    3.55    0.37 
  -2  -3   6    3.61    0.34 
   2  -3  -6    4.29    0.39 
   2  -3  -6    4.21    0.88 
   2  -3  -6    3.52    0.35 
   2   3  -6    4.03    0.19 
  -2   3   6    4.60    0.35 
  -2   3   6    4.69    0.33 
   2   3  -6    4.46    0.19 
  -2   3   6    4.02    0.28 
   2   3  -6    4.13    0.28 
   2   3  -6    4.28    0.39 
  -2   3   6    4.81    0.37 
   2   3  -6    3.75    0.23 
   2   3  -6    3.91    0.37 
  -2   3   6    4.21    0.30 
   2   3  -6    3.96    0.40 
   1  -3  -6   19.64    0.87 
   1  -3  -6   20.12    1.16 
  -1  -3   6   17.52    0.89 
   1  -3  -6   20.85    0.87 
  -1  -3   6   22.05    0.94 
  -1  -3   6   20.71    0.87 
  -1  -3   6   19.69    0.89 
   1  -3  -6   19.79    0.96 
   1  -3  -6   19.45    1.33 
   1  -3  -6   20.97    0.95 
   1  -3  -6   19.88    0.97 
   1  -3  -6   18.83    0.91 
   1  -3  -6   19.21    0.85 
  -1  -3   6   20.35    0.82 
   1  -3  -6   19.94    0.86 
   1  -3  -6   21.27    0.88 
   1   3  -6   20.54    0.79 
  -1   3   6   20.86    0.89 
  -1   3   6   20.30    0.94 
  -1   3   6   20.11    0.93 
   1   3  -6   20.30    0.83 
   1   3  -6   18.79    0.77 
   1   3  -6   21.15    0.96 
   1   3  -6   18.39    0.96 
   0  -3  -6   35.38    1.37 
   0  -3  -6   35.93    1.40 
   0  -3  -6   36.80    1.49 
   0  -3  -6   34.77    1.43 
   0  -3   6   37.05    1.34 
   0  -3   6   34.83    1.38 
   0  -3  -6   34.59    1.49 
   0   3  -6   36.92    1.35 
   0   3  -6   32.84    1.47 
   0   3  -6   36.73    1.66 
   0   3   6   32.87    1.34 
   0   3   6   37.99    1.44 
   0   3  -6   34.88    1.29 
   0   3   6   34.06    1.46 
   0   3  -6   35.36    1.26 
   0   3   6   36.86    1.50 
  -1  -3  -6    4.73    0.34 
  -1  -3  -6    5.55    0.39 
  -1  -3  -6    5.59    0.43 
   1  -3   6    4.80    0.31 
   1  -3   6    5.26    0.29 
  -1  -3  -6    5.65    0.42 
  -1  -3  -6    5.60    0.32 
  -1   3  -6    5.20    0.39 
   1   3   6    4.89    0.41 
  -1   3  -6    5.21    0.25 
   1   3   6    5.68    0.34 
  -1   3  -6    5.28    0.28 
   1   3   6    5.25    0.37 
  -1   3  -6    5.38    0.30 
  -1   3  -6    5.72    0.38 
   1   3   6    4.56    0.41 
  -2  -3  -6    7.09    0.42 
  -2  -3  -6    7.29    1.06 
  -2  -3  -6    7.44    0.50 
  -2  -3  -6    7.24    0.30 
  -2  -3  -6    8.04    0.43 
  -2  -3  -6    7.14    0.44 
  -2  -3  -6    7.95    0.46 
  -2  -3  -6    6.65    0.51 
  -2  -3  -6    7.42    0.38 
   2  -3   6    7.70    0.38 
  -2  -3  -6    7.46    0.44 
  -2  -3  -6    7.61    0.43 
  -2  -3  -6    7.12    0.39 
  -2  -3  -6    7.26    0.41 
  -2  -3  -6    7.64    0.38 
  -2  -3  -6    7.53    0.36 
  -2   3  -6    7.50    0.34 
  -2   3  -6    7.47    0.33 
  -2   3  -6    7.79    0.32 
  -2   3  -6    7.48    0.30 
   2   3   6    8.02    0.53 
   2   3   6    7.47    0.43 
   2   3   6    6.57    0.54 
   2   3   6    7.92    0.49 
   2   3   6    7.45    0.42 
   2   3   6    8.35    0.40 
   2   3   6    8.20    0.55 
  -2   3  -6    7.74    0.37 
   2   3   6    7.72    0.45 
   2   3   6    8.03    0.48 
  -2   3  -6    8.16    0.40 
  -3  -3  -6   54.71    1.97 
  -3  -3  -6   51.04    2.01 
  -3  -3  -6   53.05    2.06 
  -3  -3  -6   54.60    1.98 
  -3  -3  -6   53.27    1.94 
  -3  -3  -6   51.99    1.95 
  -3  -3  -6   51.69    1.97 
  -3  -3  -6   53.94    1.95 
   3   3   6   44.64    2.01 
   3   3   6   44.79    1.94 
   3   3   6   55.95    1.94 
  -3   3  -6   54.79    1.94 
   3   3   6   57.81    2.00 
  -3   3  -6   50.06    1.99 
   3   3   6   59.02    2.12 
  -3   3  -6   54.05    1.89 
  -3   3  -6   54.15    1.88 
   3   3   6   52.20    1.99 
   3   3   6   56.41    2.03 
  -3   3  -6   53.75    1.87 
  -4  -3  -6    3.64    0.26 
  -4  -3  -6    3.61    0.31 
  -4  -3  -6    3.82    0.23 
  -4  -3  -6    3.80    0.33 
  -4  -3  -6    4.01    0.28 
  -4  -3  -6    3.74    0.26 
  -4  -3  -6    3.89    0.25 
  -4  -3  -6    4.15    0.26 
  -4  -3  -6    3.46    0.26 
  -4  -3  -6    3.84    0.29 
   4   3   6    4.25    0.30 
   4   3   6    3.50    0.19 
   4   3   6    3.94    0.30 
   4   3   6    3.68    0.31 
   4   3   6    3.72    0.25 
  -4   3  -6    3.81    0.17 
  -5  -3  -6   19.73    0.78 
  -5  -3  -6   21.26    0.79 
  -5  -3  -6   21.42    0.82 
  -5  -3  -6   21.26    0.79 
  -5  -3  -6   21.00    0.78 
  -5  -3  -6   20.68    0.83 
  -5  -3  -6   20.86    0.79 
  -5  -3  -6   21.02    0.78 
  -5  -3  -6   21.30    0.81 
   5   3   6   21.21    0.75 
   5   3   6   19.91    0.82 
   5   3   6   20.37    0.82 
   5   3   6   21.03    0.84 
   5   3   6   20.86    0.79 
   6  -4  -6    2.73    0.18 
  -6  -4   6    2.73    0.20 
  -6  -4   6    2.84    0.22 
  -6  -4   6    2.63    0.19 
  -6  -4   6    2.92    0.15 
   6  -4  -6    2.91    0.18 
  -6   4   6    2.69    0.23 
   6   4  -6    2.86    0.19 
   6   4  -6    2.71    0.20 
  -6   4   6    2.79    0.13 
  -6   4   6    2.86    0.15 
  -6   4   6    2.75    0.17 
   6   4  -6    2.71    0.21 
   6   4  -6    2.95    0.17 
   6   4  -6    2.87    0.18 
   6   4  -6    2.97    0.21 
  -6   4   6    2.86    0.20 
  -6   4   6    2.93    0.17 
   6   4  -6    2.78    0.26 
  -6   4   6    3.08    0.19 
  -6   4   6    2.73    0.18 
   6   4  -6    2.47    0.16 
   6   4  -6    2.85    0.18 
   6   4  -6    3.06    0.22 
  -5  -4   6   12.86    0.62 
   5  -4  -6   13.69    0.56 
   5  -4  -6   13.48    0.57 
  -5  -4   6   13.97    0.55 
  -5  -4   6   12.92    0.60 
  -5  -4   6   13.20    0.62 
  -5  -4   6   13.66    0.56 
   5  -4  -6   13.53    0.62 
  -5  -4   6   13.87    0.60 
  -5  -4   6   13.81    0.55 
   5  -4  -6   13.46    0.63 
  -5   4   6   13.91    0.59 
  -5   4   6   14.09    0.66 
  -5   4   6   12.04    0.58 
  -5   4   6   13.81    0.54 
   5   4  -6   13.42    0.55 
  -5   4   6   13.95    0.53 
  -5   4   6   13.43    0.57 
   5   4  -6   13.25    0.54 
  -5   4   6   13.63    0.55 
  -5   4   6   12.23    0.57 
   5   4  -6   13.40    0.55 
  -5   4   6   13.39    0.61 
  -5   4   6   13.16    0.53 
   5   4  -6   13.63    0.51 
   5   4  -6   13.69    0.68 
   5   4  -6   13.52    0.59 
   5   4  -6   13.64    0.58 
   5   4  -6   14.31    0.54 
   5   4  -6   13.39    0.60 
  -5   4   6   13.56    0.59 
  -5   4   6   12.40    0.58 
   5   4  -6   13.23    0.59 
  -5   4   6   14.14    0.55 
  -5   4   6   14.33    0.56 
   5   4  -6   13.37    0.57 
  -5   4   6   13.83    0.53 
  -4  -4   6   31.60    1.21 
  -4  -4   6   30.23    1.32 
   4  -4  -6   31.32    1.21 
  -4  -4   6   33.71    1.29 
   4  -4  -6   31.72    1.27 
   4  -4  -6   30.44    1.33 
   4  -4  -6   32.82    1.30 
   4  -4  -6   31.56    1.29 
   4  -4  -6   32.01    1.21 
  -4  -4   6   31.98    1.20 
   4   4  -6   31.69    1.21 
   4   4  -6   31.99    1.25 
  -4   4   6   31.65    1.25 
   4   4  -6   32.81    1.18 
  -4   4   6   32.11    1.26 
  -4   4   6   32.13    1.20 
  -4   4   6   32.00    1.19 
  -4   4   6   31.25    1.20 
   4   4  -6   32.50    1.23 
   4   4  -6   32.29    1.20 
  -4   4   6   38.14    1.35 
  -4   4   6   31.00    1.23 
  -4   4   6   29.01    1.31 
  -4   4   6   31.91    1.30 
  -4   4   6   32.99    1.19 
   4   4  -6   31.48    1.17 
   4   4  -6   33.36    1.23 
  -4   4   6   34.02    1.24 
  -4   4   6   31.76    1.24 
  -4   4   6   32.08    1.20 
   4   4  -6   30.19    1.27 
   4   4  -6   32.66    1.19 
  -4   4   6   32.56    1.27 
  -4   4   6   33.41    1.34 
   4   4  -6   31.51    1.16 
   4   4  -6   30.43    1.17 
  -4   4   6   32.27    1.26 
   4   4  -6   31.65    1.21 
  -4   4   6   32.96    1.21 
   4   4  -6   32.81    1.19 
   4   4  -6   32.18    1.33 
  -3  -4   6   44.92    1.64 
   3  -4  -6   42.87    1.71 
   3  -4  -6   40.48    1.61 
  -3  -4   6   41.26    1.68 
   3  -4  -6   42.52    1.66 
   3  -4  -6   40.48    1.56 
   3  -4  -6   44.30    1.66 
   3  -4  -6   44.68    1.58 
  -3  -4   6   40.12    1.61 
  -3  -4   6   41.76    1.56 
  -3  -4   6   42.80    1.63 
   3  -4  -6   44.03    1.65 
  -3   4   6   41.77    1.66 
   3   4  -6   40.95    1.58 
   3   4  -6   42.65    1.53 
  -3   4   6   43.86    1.72 
   3   4  -6   42.94    1.73 
   3   4  -6   42.24    1.52 
   3   4  -6   40.67    1.56 
   3   4  -6   42.63    1.67 
  -3   4   6   43.22    1.56 
   3   4  -6   41.15    1.57 
   3   4  -6   42.68    1.52 
  -3   4   6   41.03    1.55 
  -3   4   6   41.57    1.59 
  -3   4   6   43.45    1.66 
  -3   4   6   43.72    1.58 
   3   4  -6   41.70    1.63 
   3   4  -6   42.19    1.56 
  -3   4   6   43.31    1.60 
  -3   4   6   41.14    1.54 
   3   4  -6   42.63    1.55 
  -3   4   6   41.97    1.63 
   3   4  -6   40.45    1.59 
   3   4  -6   42.11    1.52 
  -3   4   6   45.69    1.65 
  -3   4   6   42.01    1.59 
  -3   4   6   44.22    1.57 
   3   4  -6   43.39    1.53 
  -3   4   6   43.51    1.57 
   2  -4  -6   58.31    2.23 
   2  -4  -6   54.42    2.33 
   2  -4  -6   62.27    2.23 
  -2  -4   6   58.44    2.23 
   2  -4  -6   59.02    2.30 
   2  -4  -6   57.48    2.23 
   2  -4  -6   62.14    2.25 
   2  -4  -6   59.35    2.15 
  -2  -4   6   57.13    2.17 
   2  -4  -6   61.16    2.15 
   2  -4  -6   59.25    2.19 
   2  -4  -6   60.86    2.29 
   2  -4  -6   61.00    2.22 
   2  -4  -6   59.36    2.14 
  -2   4   6   59.77    2.18 
  -2   4   6   56.71    2.21 
   2   4  -6   64.85    2.13 
  -2   4   6   57.98    2.14 
   2   4  -6   59.99    2.21 
  -2   4   6   56.69    2.28 
  -2   4   6   58.72    2.08 
   2   4  -6   59.11    2.11 
   2   4  -6   59.74    2.13 
   2   4  -6   57.25    2.08 
   2   4  -6   62.12    2.12 
   2   4  -6   61.38    2.19 
  -2   4   6   57.89    2.14 
  -2   4   6   58.79    2.18 
   2   4  -6   61.32    2.34 
  -2   4   6   58.17    2.25 
  -2   4   6   60.03    2.18 
   2   4  -6   59.10    2.08 
  -2   4   6   49.24    2.20 
   2   4  -6   61.47    2.16 
  -2   4   6   56.56    2.14 
  -2   4   6   59.07    2.16 
   2   4  -6   59.61    2.30 
   2   4  -6   57.29    2.12 
  -2   4   6   58.54    2.11 
  -2   4   6   64.08    2.22 
  -2   4   6   58.25    2.14 
  -2   4   6   58.59    2.15 
  -2   4   6   61.36    2.26 
   1  -4  -6    4.24    0.39 
   1  -4  -6    4.17    0.40 
  -1  -4   6    3.96    0.26 
   1  -4  -6    3.61    0.36 
   1  -4  -6    3.83    0.32 
   1  -4  -6    4.05    0.29 
   1  -4  -6    4.39    0.27 
   1  -4  -6    3.57    0.31 
   1  -4  -6    3.05    0.35 
   1  -4  -6    4.19    0.27 
   1  -4  -6    3.83    0.36 
   1  -4  -6    3.60    0.30 
   1  -4  -6    3.53    0.31 
  -1  -4   6    4.03    0.29 
   1  -4  -6    3.69    0.30 
  -1   4   6    3.99    0.29 
  -1   4   6    3.54    0.30 
   1   4  -6    3.61    0.22 
  -1   4   6    3.86    0.33 
  -1   4   6    4.37    0.32 
   1   4  -6    3.86    0.26 
   1   4  -6    3.72    0.21 
  -1   4   6    3.10    0.39 
  -1   4   6    3.59    0.28 
   1   4  -6    4.03    0.24 
  -1   4   6    3.26    0.34 
   1   4  -6    3.19    0.22 
  -1   4   6    2.73    0.28 
  -1   4   6    3.48    0.30 
   1   4  -6    4.21    0.38 
  -1   4   6    3.70    0.34 
  -1   4   6    3.65    0.25 
  -1   4   6    2.86    0.38 
  -1   4   6    3.90    0.19 
  -1   4   6    3.77    0.28 
   1   4  -6    4.16    0.42 
   0  -4   6    1.80    0.27 
   0  -4  -6    1.83    0.23 
   0  -4  -6    1.53    0.23 
   0  -4  -6    1.70    0.20 
   0  -4  -6    1.49    0.17 
   0  -4  -6    1.81    0.27 
   0  -4  -6    1.82    0.24 
   0  -4  -6    1.71    0.31 
   0  -4  -6    1.54    0.27 
   0  -4  -6    1.82    0.31 
   0  -4  -6    1.92    0.24 
   0  -4  -6    1.78    0.25 
   0  -4   6    1.62    0.16 
   0   4  -6    1.78    0.13 
   0   4   6    1.87    0.32 
   0   4   6    1.64    0.19 
   0   4  -6    1.72    0.14 
   0   4   6    1.62    0.27 
   0   4   6    1.54    0.22 
   0   4  -6    1.64    0.14 
   0   4  -6    1.68    0.15 
   0   4   6    1.65    0.25 
   0   4   6    1.53    0.21 
   0   4   6    1.75    0.28 
   0   4   6    1.70    0.22 
   0   4   6    1.63    0.23 
   0   4   6    1.59    0.19 
   0   4  -6    1.68    0.11 
   0   4  -6    1.95    0.17 
   0   4   6    1.99    0.11 
   0   4   6    1.70    0.24 
   0   4   6    2.00    0.52 
  -1  -4  -6   29.35    1.25 
  -1  -4  -6   28.79    1.13 
  -1  -4  -6   28.80    1.08 
  -1  -4  -6   27.78    1.03 
  -1  -4  -6   28.30    1.14 
  -1  -4  -6   27.48    1.20 
  -1  -4  -6   29.70    1.17 
  -1  -4  -6   29.76    1.13 
  -1  -4  -6   27.36    1.15 
  -1  -4  -6   26.68    1.25 
  -1   4  -6   27.33    1.03 
  -1   4  -6   28.92    1.04 
   1   4   6   27.99    1.14 
   1   4   6   27.18    1.14 
   1   4   6   26.57    1.16 
  -1   4  -6   29.53    1.09 
   1   4   6   28.39    1.09 
   1   4   6   27.39    1.00 
   1   4   6   27.74    1.24 
   1   4   6   26.26    1.11 
   1   4   6   27.64    1.15 
   1   4   6   29.32    1.23 
   1   4   6   28.00    1.06 
  -1   4  -6   28.52    1.02 
   1   4   6   32.92    2.11 
   1   4   6   27.04    1.24 
   1   4   6   28.45    1.13 
  -2  -4  -6    1.08    0.23 
  -2  -4  -6    1.21    0.17 
  -2  -4  -6    0.85    0.21 
  -2  -4  -6    0.97    0.27 
  -2  -4  -6    1.15    0.19 
  -2  -4  -6    1.00    0.22 
  -2  -4  -6    1.02    0.11 
  -2  -4  -6    0.93    0.20 
   2   4   6    1.10    0.16 
  -2   4  -6    1.12    0.07 
   2   4   6    1.01    0.23 
   2   4   6    1.17    0.22 
   2   4   6    1.00    0.09 
  -2   4  -6    1.01    0.10 
   2   4   6    1.03    0.24 
   2   4   6    0.80    0.24 
  -2   4  -6    0.95    0.11 
   2   4   6    1.12    0.20 
   2   4   6    1.40    0.63 
  -3  -4  -6    8.46    0.45 
  -3  -4  -6    8.16    0.43 
  -3  -4  -6    8.28    0.52 
  -3  -4  -6    8.26    0.42 
  -3  -4  -6    9.59    0.45 
  -3  -4  -6    8.37    0.44 
  -3  -4  -6    8.39    0.52 
   3   4   6    8.32    0.44 
   3   4   6    9.23    0.47 
   3   4   6    8.38    0.39 
   3   4   6    8.73    0.46 
   3   4   6    8.30    0.46 
   3   4   6    9.20    0.33 
  -4  -4  -6    9.98    0.47 
  -4  -4  -6   11.12    0.46 
  -4  -4  -6   10.77    0.47 
  -4  -4  -6   11.32    0.49 
  -4  -4  -6   10.82    0.54 
  -4  -4  -6   11.91    0.50 
  -4  -4  -6   10.79    0.52 
  -4  -4  -6   10.92    0.47 
  -4  -4  -6   10.93    0.45 
   4   4   6   10.01    0.50 
   4   4   6   10.85    0.49 
   4   4   6   10.24    0.47 
   4   4   6   10.50    0.38 
   4   4   6    9.76    0.90 
   4   4   6   10.66    0.44 
   4   4   6   11.07    0.49 
   5  -5  -6   13.07    0.52 
  -5  -5   6   12.70    0.51 
   5  -5  -6   12.65    0.51 
  -5  -5   6   11.96    0.55 
  -5  -5   6   12.35    0.50 
  -5  -5   6   13.73    0.67 
   5   5  -6   13.28    0.58 
   5   5  -6   13.76    0.53 
   5   5  -6   13.44    0.53 
  -5   5   6   13.59    0.54 
   5   5  -6   13.06    0.48 
  -5   5   6   12.03    0.51 
   5   5  -6   12.89    0.47 
  -5   5   6   13.53    0.52 
  -5   5   6   13.32    0.49 
   5   5  -6   12.92    0.51 
  -5   5   6   12.96    0.51 
   5   5  -6   12.34    0.48 
  -5   5   6   14.00    0.58 
  -5   5   6   12.14    0.51 
   5   5  -6   11.66    0.55 
   5   5  -6   11.74    0.48 
   5   5  -6   12.85    0.58 
  -5   5   6   13.02    0.54 
   5   5  -6   11.71    0.49 
  -4  -5   6   10.34    0.51 
   4  -5  -6   10.56    0.47 
   4  -5  -6   10.09    0.51 
  -4  -5   6   10.93    0.46 
  -4  -5   6   10.22    0.45 
   4  -5  -6   11.05    0.46 
  -4   5   6   10.50    0.45 
   4   5  -6   11.42    0.43 
   4   5  -6   11.25    0.45 
  -4   5   6   11.03    0.43 
  -4   5   6   10.52    0.46 
   4   5  -6   11.72    0.54 
  -4   5   6    9.62    0.48 
   4   5  -6   11.36    0.49 
  -4   5   6   10.65    0.49 
   4   5  -6   10.26    0.46 
   4   5  -6   10.47    0.41 
  -4   5   6   10.61    0.43 
   4   5  -6   10.32    0.46 
  -4   5   6   10.77    0.47 
  -4   5   6   10.45    0.45 
  -4   5   6   10.98    0.55 
  -4   5   6   10.79    0.47 
  -4   5   6   10.45    0.42 
  -4   5   6   10.89    0.44 
  -4   5   6   11.55    0.63 
  -4   5   6   10.19    0.54 
   4   5  -6   11.29    0.46 
   4   5  -6   10.57    0.41 
  -4   5   6    9.04    0.45 
   3  -5  -6    7.72    0.36 
   3  -5  -6    7.40    0.42 
   3  -5  -6    7.18    0.42 
  -3  -5   6    7.04    0.40 
   3  -5  -6    6.70    0.44 
  -3  -5   6    6.97    0.35 
   3  -5  -6    7.53    0.36 
  -3  -5   6    6.45    0.41 
  -3   5   6    7.59    0.39 
  -3   5   6    7.40    0.40 
   3   5  -6    7.50    0.34 
  -3   5   6    7.00    0.32 
  -3   5   6    8.17    0.31 
   3   5  -6    7.27    0.34 
  -3   5   6    7.41    0.42 
   3   5  -6    7.12    0.39 
  -3   5   6    7.11    0.35 
   3   5  -6    7.51    0.40 
  -3   5   6    7.58    0.36 
  -3   5   6    6.74    0.39 
  -3   5   6    7.98    0.36 
  -3   5   6    7.32    0.34 
  -3   5   6    5.73    0.39 
  -3   5   6    7.62    0.40 
  -3   5   6    7.26    0.35 
  -3   5   6    7.54    0.38 
   3   5  -6    7.83    0.31 
  -3   5   6    7.04    0.33 
   3   5  -6    7.27    0.37 
  -3   5   6    7.27    0.37 
  -3   5   6    7.11    0.33 
  -3   5   6    7.65    0.46 
   3   5  -6    7.06    0.34 
   3   5  -6    7.71    0.34 
   2  -5  -6   54.59    2.03 
   2  -5  -6   55.97    1.99 
   2  -5  -6   54.62    2.11 
   2  -5  -6   55.63    2.06 
   2  -5  -6   56.30    1.99 
   2  -5  -6   55.50    2.07 
  -2   5   6   51.55    2.04 
  -2   5   6   56.64    2.06 
   2   5  -6   54.82    1.97 
   2   5  -6   54.63    1.93 
  -2   5   6   54.86    2.13 
  -2   5   6   54.65    1.99 
  -2   5   6   53.45    1.99 
   2   5  -6   53.99    1.99 
  -2   5   6   56.33    1.93 
   2   5  -6   51.15    2.01 
  -2   5   6   54.82    1.98 
  -2   5   6   57.10    2.00 
  -2   5   6   55.76    1.96 
   2   5  -6   57.74    1.97 
  -2   5   6   56.05    1.98 
   2   5  -6   54.80    1.96 
  -2   5   6   54.64    2.02 
  -2   5   6   53.46    2.01 
  -2   5   6   53.24    1.98 
   1  -5  -6    8.23    0.40 
   1  -5  -6    7.16    0.48 
   1  -5  -6    8.10    0.38 
   1  -5  -6    7.96    0.43 
   1  -5  -6    7.59    0.52 
   1  -5  -6    6.32    0.42 
   1  -5  -6    7.60    0.37 
   1  -5  -6    7.89    0.45 
   1  -5  -6    7.47    0.46 
  -1   5   6    8.19    0.39 
  -1   5   6    7.42    0.49 
  -1   5   6    7.82    0.42 
   1   5  -6    7.50    0.35 
  -1   5   6    8.02    0.36 
  -1   5   6    7.91    0.39 
  -1   5   6    7.53    0.40 
   1   5  -6    7.25    0.30 
  -1   5   6    8.08    0.47 
   1   5  -6    7.63    0.38 
  -1   5   6    7.74    0.38 
  -1   5   6    8.09    0.43 
   1   5  -6    7.96    0.34 
   1   5  -6    8.04    0.33 
  -1   5   6    7.75    0.41 
   1   5  -6    7.72    0.33 
  -1   5   6    8.54    0.40 
  -1   5   6    7.96    0.32 
  -1   5   6    7.71    0.35 
  -1   5   6    7.86    0.45 
   0  -5  -6   11.18    0.61 
   0  -5  -6   11.07    0.48 
   0  -5  -6   11.27    0.58 
   0  -5  -6   11.10    0.50 
   0  -5  -6   11.16    0.64 
   0  -5  -6   11.08    0.56 
   0  -5  -6   10.56    0.48 
   0  -5  -6   10.14    0.54 
   0  -5  -6   10.79    0.54 
   0   5   6    9.97    0.55 
   0   5  -6   11.39    0.45 
   0   5  -6   11.30    0.43 
   0   5   6   12.08    0.60 
   0   5  -6   11.45    0.44 
   0   5   6   12.11    0.63 
   0   5   6   11.35    0.55 
   0   5   6   11.70    0.55 
   0   5  -6   10.62    0.47 
   0   5   6   11.20    0.53 
   0   5  -6   11.30    0.47 
   0   5   6   11.48    0.52 
   0   5   6   11.44    0.52 
   0   5   6   11.06    0.43 
   0   5   6   10.43    0.49 
   0   5   6   11.57    0.51 
   0   5   6   11.42    0.48 
   0   5   6   12.10    0.55 
  -1  -5  -6    7.92    0.46 
  -1  -5  -6    8.16    0.44 
  -1  -5  -6    7.28    0.50 
  -1  -5  -6    8.17    0.34 
  -1  -5  -6    8.14    0.45 
  -1  -5  -6    8.28    0.39 
   1   5   6    8.15    0.48 
  -1   5  -6    7.63    0.33 
   1   5   6    7.84    0.40 
   1   5   6    7.83    0.41 
   1   5   6    7.99    0.38 
   1   5   6    7.93    0.43 
   1   5   6    8.62    0.40 
  -1   5  -6    7.97    0.29 
   1   5   6    8.19    0.43 
   1   5   6    8.06    0.41 
   1   5   6    7.69    0.41 
   1   5   6    8.13    0.50 
   1   5   6    8.31    0.44 
  -1   5  -6    8.21    0.29 
  -2  -5  -6   14.42    0.63 
  -2  -5  -6   14.16    0.57 
  -2  -5  -6   12.90    0.62 
  -2  -5  -6   14.02    0.52 
  -2  -5  -6   14.14    0.61 
  -2  -5  -6   13.31    0.58 
   2   5   6   13.79    0.69 
   2   5   6   13.44    0.61 
   2   5   6   13.14    0.68 
   2   5   6   13.48    0.59 
   2   5   6   14.63    0.63 
   2   5   6   13.37    0.56 
   2   5   6   14.75    0.64 
   2   5   6   14.13    0.67 
   2   5   6   13.43    0.60 
   2   5   6   13.77    0.58 
  -3  -5  -6   14.99    0.66 
  -3  -5  -6   16.44    0.66 
  -3  -5  -6   16.10    0.64 
  -3  -5  -6   16.58    0.68 
  -3  -5  -6   16.19    0.65 
   3   5   6   17.26    0.73 
   3   5   6   14.51    0.61 
   3   5   6   16.40    0.64 
   3   5   6   14.98    0.64 
   3   5   6   14.60    0.66 
   3   5   6   15.56    0.72 
   3   5   6   15.57    0.67 
  -4  -5  -6    0.42    0.16 
  -4  -5  -6    0.21    0.06 
  -4  -5  -6    0.37    0.09 
  -4  -5  -6    0.42    0.13 
   4   5   6    0.43    0.09 
   4   5   6    0.33    0.12 
   4   5   6    0.20    0.11 
   4  -6  -6    0.79    0.10 
   4  -6  -6    0.92    0.10 
  -4  -6   6    0.76    0.10 
  -4  -6   6    0.85    0.10 
  -4   6   6    0.91    0.11 
  -4   6   6    0.73    0.06 
   4   6  -6    0.90    0.07 
  -4   6   6    0.62    0.07 
   4   6  -6    0.83    0.07 
  -4   6   6    0.84    0.10 
   4   6  -6    0.82    0.10 
   4   6  -6    0.66    0.09 
  -4   6   6    0.70    0.13 
  -4   6   6    1.01    0.13 
   4   6  -6    0.83    0.09 
  -4   6   6    0.76    0.12 
  -4   6   6    0.89    0.10 
   3  -6  -6   18.48    0.78 
  -3  -6   6   18.35    0.69 
   3  -6  -6   18.25    0.70 
   3  -6  -6   18.60    0.70 
  -3   6   6   17.66    0.72 
   3   6  -6   18.80    0.65 
  -3   6   6   17.17    0.69 
  -3   6   6   18.32    0.77 
   3   6  -6   18.22    0.68 
  -3   6   6   17.09    0.65 
   3   6  -6   17.99    0.66 
  -3   6   6   18.70    0.70 
  -3   6   6   19.19    0.70 
  -3   6   6   17.54    0.72 
   3   6  -6   17.81    0.70 
  -3   6   6   17.35    0.67 
  -3   6   6   17.45    0.70 
  -3   6   6   18.35    0.66 
   3   6  -6   18.60    0.69 
   3   6  -6   18.01    0.68 
   2  -6  -6    3.17    0.20 
   2  -6  -6    3.39    0.20 
   2  -6  -6    3.18    0.26 
  -2   6   6    3.21    0.18 
  -2   6   6    2.86    0.27 
  -2   6   6    2.98    0.19 
   2   6  -6    3.03    0.14 
   2   6  -6    3.07    0.16 
   2   6  -6    3.00    0.18 
  -2   6   6    3.28    0.21 
  -2   6   6    3.16    0.20 
   2   6  -6    3.45    0.18 
  -2   6   6    2.97    0.15 
   2   6  -6    3.08    0.16 
  -2   6   6    3.27    0.18 
  -2   6   6    3.25    0.18 
  -2   6   6    3.38    0.22 
  -2   6   6    3.30    0.23 
  -2   6   6    3.14    0.21 
  -2   6   6    2.88    0.17 
  -2   6   6    3.30    0.23 
   1  -6  -6    5.00    0.30 
   1  -6  -6    5.18    0.27 
   1  -6  -6    5.07    0.26 
   1  -6  -6    5.20    0.34 
   1  -6  -6    5.64    0.33 
   1  -6  -6    5.16    0.28 
  -1   6   6    4.72    0.21 
   1   6  -6    5.12    0.21 
  -1   6   6    4.71    0.24 
  -1   6   6    4.74    0.24 
  -1   6   6    5.19    0.28 
   1   6  -6    5.09    0.23 
  -1   6   6    4.34    0.34 
  -1   6   6    4.94    0.26 
  -1   6   6    4.70    0.30 
  -1   6   6    4.76    0.27 
  -1   6   6    5.25    0.29 
  -1   6   6    5.21    0.31 
  -1   6   6    5.20    0.25 
  -1   6   6    5.24    0.30 
   0  -6  -6   16.62    0.65 
   0  -6  -6   16.47    0.66 
   0  -6  -6   15.85    0.67 
   0  -6  -6   18.07    0.74 
   0  -6  -6   15.86    0.70 
   0  -6  -6   17.12    0.73 
   0   6   6   16.50    0.70 
   0   6   6   16.89    0.66 
   0   6   6   17.39    0.68 
   0   6   6   18.08    0.67 
   0   6   6   16.85    0.70 
   0   6   6   16.75    0.67 
   0   6   6   18.32    0.69 
   0   6   6   16.26    0.65 
   0   6   6   17.19    0.79 
   0   6   6   17.88    0.73 
   0   6   6   17.03    0.70 
  -1  -6  -6    2.43    0.14 
  -1  -6  -6    2.87    0.22 
  -1  -6  -6    2.59    0.24 
  -1  -6  -6    2.15    0.18 
   1   6   6    2.30    0.18 
   1   6   6    2.45    0.26 
   1   6   6    2.27    0.18 
   1   6   6    2.95    0.22 
   1   6   6    2.64    0.21 
   1   6   6    2.51    0.19 
   1   6   6    2.52    0.21 
   1   6   6    2.17    0.23 
   1   6   6    2.43    0.17 
   1   6   6    2.18    0.18 
   1   6   6    2.39    0.22 
  -2  -6  -6    4.76    0.28 
  -2  -6  -6    4.99    0.27 
  -2  -6  -6    4.69    0.23 
  -2  -6  -6    4.57    0.18 
  -2  -6  -6    4.55    0.60 
  -2  -6  -6    3.86    0.25 
  -2  -6  -6    4.30    0.23 
   2   6   6    4.13    0.23 
   2   6   6    4.61    0.24 
   2   6   6    4.47    0.28 
   2   6   6    4.51    0.24 
   2   6   6    4.62    0.28 
   2   6   6    4.32    0.25 
   2   6   6    4.40    0.22 
   2   6   6    4.63    0.26 
  -7   0   7    2.12    0.16 
  -7   0   7    2.20    0.14 
  -7   0   7    1.77    0.20 
  -7   0   7    1.83    0.18 
   7   0  -7    2.11    0.18 
   7   0  -7    2.11    0.17 
   7   0  -7    1.77    0.13 
  -7   0   7    2.05    0.18 
   7   0  -7    1.69    0.17 
   7   0  -7    2.20    0.19 
  -7   0   7    2.12    0.67 
  -7   0   7    2.31    0.15 
   7   0  -7    2.05    0.14 
  -7   0   7    1.92    0.16 
   7   0  -7    2.05    0.19 
  -7   0   7    2.10    0.17 
  -7   0   7    2.37    0.19 
   6   0  -7   31.85    1.19 
   6   0  -7   28.93    1.11 
  -6   0   7   28.45    1.21 
   6   0  -7   32.08    1.18 
   6   0  -7   31.22    1.13 
   6   0  -7   30.56    1.08 
   6   0  -7   30.87    1.19 
   6   0  -7   33.39    1.17 
   6   0  -7   26.11    1.90 
  -6   0   7   30.78    1.18 
  -6   0   7   30.52    1.18 
  -6   0   7   29.93    1.16 
  -6   0   7   30.83    1.17 
   6   0  -7   31.94    1.19 
  -6   0   7   25.91    1.22 
   6   0  -7   29.93    1.06 
   5   0  -7    0.09    0.09 
   5   0  -7   -0.01    0.11 
  -5   0   7    0.16    0.12 
   5   0  -7    0.22    0.21 
  -5   0   7    0.12    0.09 
   5   0  -7    0.04    0.10 
   5   0  -7    0.05    0.13 
   5   0  -7    0.05    0.05 
  -5   0   7    0.18    0.14 
  -5   0   7    0.15    0.05 
  -5   0   7    0.02    0.08 
  -5   0   7    0.01    0.11 
   5   0  -7    0.15    0.40 
   5   0  -7    0.03    0.12 
  -5   0   7   -0.06    0.16 
   5   0  -7    0.05    0.20 
   5   0  -7   -0.02    0.14 
  -5   0   7    0.06    0.09 
  -5   0   7    0.16    0.15 
   5   0  -7    0.35    0.13 
  -5   0   7    0.02    0.11 
   4   0  -7   53.58    1.97 
   4   0  -7   52.96    2.03 
  -4   0   7   58.19    2.03 
   4   0  -7   53.92    2.14 
  -4   0   7   53.40    2.04 
  -4   0   7   52.26    2.02 
   4   0  -7   55.71    2.22 
  -4   0   7   56.77    1.97 
  -4   0   7   55.36    2.03 
   4   0  -7   53.06    2.01 
   4   0  -7   54.22    2.03 
   4   0  -7   57.53    2.06 
  -4   0   7   54.67    2.01 
   4   0  -7   54.40    2.02 
  -4   0   7   52.75    1.96 
  -4   0   7   55.83    2.17 
  -4   0   7   44.42    2.34 
   4   0  -7   53.90    2.00 
   4   0  -7   54.04    1.95 
  -4   0   7   54.45    2.15 
   4   0  -7   54.75    2.04 
   4   0  -7   54.54    1.97 
   4   0  -7   56.00    2.09 
  -4   0   7   57.23    2.11 
   4   0  -7   54.49    1.90 
  -4   0   7   54.02    2.05 
   4   0  -7   52.47    2.13 
   3   0  -7    3.88    0.30 
   3   0  -7    3.82    0.35 
  -3   0   7    3.53    0.28 
  -3   0   7    3.81    0.30 
  -3   0   7    3.34    0.40 
  -3   0   7    3.61    0.37 
  -3   0   7    3.97    0.35 
   3   0  -7    3.53    0.31 
   3   0  -7    4.05    0.36 
  -3   0   7    3.76    0.31 
   3   0  -7    3.79    0.35 
  -2   0   7   64.50    2.52 
   2   0  -7   67.84    2.58 
  -2   0   7   67.78    2.66 
   2   0  -7   69.19    2.49 
   2   0  -7   65.12    2.46 
  -2   0   7   76.85    3.86 
  -2   0   7   67.73    2.48 
  -2   0   7   61.86    2.58 
  -2   0   7   65.24    2.51 
  -2   0   7   63.68    2.46 
  -2   0   7   69.01    2.58 
   2   0  -7   68.48    2.54 
  -1   0   7    0.52    0.16 
  -1   0   7    0.58    0.21 
  -1   0   7    0.66    0.20 
  -1   0   7    0.39    0.20 
   1   0  -7    0.37    0.13 
   1   0  -7    0.60    0.17 
   1   0  -7    0.60    0.24 
   1   0  -7    0.59    0.26 
  -1   0   7    0.53    0.36 
  -1   0   7    0.79    0.21 
   0   0   7  136.08    4.88 
   0   0  -7  128.31    4.97 
   0   0   7  128.98    4.73 
   0   0   7  141.92    4.80 
   0   0   7  137.96    4.86 
   0   0   7  136.67    4.93 
   0   0  -7  134.24    4.85 
   0   0  -7  131.56    4.76 
   0   0   7  135.95    4.75 
   0   0   7  121.99    5.73 
   1   0   7    4.35    0.34 
   1   0   7    4.55    0.33 
  -1   0  -7    4.43    0.26 
  -1   0  -7    4.45    0.31 
   1   0   7    4.92    0.31 
   1   0   7    4.76    0.40 
   1   0   7    3.92    0.39 
   1   0   7    5.15    0.44 
  -1   0  -7    4.33    0.32 
  -1   0  -7    4.48    0.45 
  -2   0  -7    9.05    0.39 
   2   0   7    9.40    0.55 
   2   0   7    8.63    0.58 
  -2   0  -7    8.53    0.45 
  -2   0  -7    8.77    0.40 
   2   0   7    8.76    0.50 
  -2   0  -7    8.68    0.51 
  -2   0  -7    8.89    0.44 
  -2   0  -7    8.91    0.45 
   2   0   7    9.06    0.46 
  -2   0  -7    9.04    0.43 
  -2   0  -7    8.57    0.36 
  -2   0  -7    8.66    0.44 
  -2   0  -7    9.23    0.37 
  -2   0  -7    9.10    0.40 
   2   0   7    8.66    0.48 
  -2   0  -7    8.52    0.42 
  -2   0  -7    9.17    0.41 
  -2   0  -7    9.20    0.38 
  -2   0  -7    8.59    0.40 
  -2   0  -7    9.09    0.39 
  -2   0  -7    9.08    0.47 
  -2   0  -7    8.55    0.44 
  -2   0  -7    8.75    0.40 
  -2   0  -7    8.86    0.41 
   2   0   7    8.60    0.41 
  -3   0  -7    7.43    0.38 
  -3   0  -7    7.14    0.35 
  -3   0  -7    7.75    0.42 
  -3   0  -7    7.09    0.38 
   3   0   7    7.64    0.38 
   3   0   7    7.49    0.43 
   3   0   7    7.97    0.49 
  -3   0  -7    7.44    0.33 
  -3   0  -7    7.51    0.42 
  -3   0  -7    7.93    0.33 
  -3   0  -7    6.90    0.38 
  -3   0  -7    7.62    0.32 
  -3   0  -7    7.67    0.38 
  -3   0  -7    7.00    0.39 
  -3   0  -7    7.48    0.45 
  -3   0  -7    7.43    0.37 
   3   0   7    8.53    0.60 
  -3   0  -7    7.44    0.33 
  -3   0  -7    6.92    0.35 
  -3   0  -7    7.06    0.34 
  -4   0  -7    2.38    0.19 
  -4   0  -7    2.68    0.15 
  -4   0  -7    2.58    0.20 
  -4   0  -7    2.41    0.15 
  -4   0  -7    2.75    0.18 
  -4   0  -7    2.61    0.21 
  -4   0  -7    2.63    0.44 
   4   0   7    2.53    0.24 
  -4   0  -7    2.47    0.14 
  -4   0  -7    2.73    0.18 
  -4   0  -7    2.59    0.20 
  -4   0  -7    2.71    0.25 
   4   0   7    2.56    0.19 
  -4   0  -7    2.61    0.15 
   4   0   7    2.43    0.19 
  -4   0  -7    2.39    0.21 
  -5   0  -7    2.98    0.17 
  -5   0  -7    3.45    0.21 
  -5   0  -7    3.16    0.15 
   5   0   7    3.39    0.19 
  -5   0  -7    3.07    0.18 
  -5   0  -7    2.74    0.18 
  -5   0  -7    3.28    0.15 
   7  -1  -7   19.54    0.79 
   7  -1  -7   19.42    0.71 
   7  -1  -7   19.09    0.79 
   7  -1  -7   19.63    0.75 
   7  -1  -7   21.83    0.80 
  -7  -1   7   18.86    0.83 
   7  -1  -7   20.90    0.77 
   7  -1  -7   21.29    1.39 
  -7  -1   7   19.79    0.77 
  -7  -1   7   21.12    0.78 
   7  -1  -7   20.12    0.80 
  -7  -1   7   19.73    0.79 
   7   1  -7   21.03    0.76 
   7   1  -7   21.06    0.80 
   7   1  -7   21.73    0.79 
  -7   1   7   21.42    0.81 
  -7   1   7   19.57    0.75 
   7   1  -7   19.64    0.77 
  -7   1   7   19.00    0.76 
  -7   1   7   21.80    0.78 
  -7   1   7   19.73    0.76 
  -7   1   7   19.61    0.78 
  -7   1   7   20.05    0.76 
  -7   1   7   21.21    0.80 
   7   1  -7   18.60    0.83 
  -7   1   7   21.40    0.76 
  -7   1   7   19.81    0.78 
   6  -1  -7   27.10    1.08 
  -6  -1   7   28.71    1.80 
   6  -1  -7   25.71    0.97 
   6  -1  -7   27.19    1.02 
   6  -1  -7   27.05    1.04 
   6  -1  -7   26.79    1.08 
   6  -1  -7   27.21    1.06 
  -6  -1   7   28.42    1.07 
  -6  -1   7   25.61    1.00 
  -6  -1   7   27.08    1.07 
   6  -1  -7   27.27    1.07 
  -6  -1   7   27.25    1.04 
  -6  -1   7   27.94    1.07 
  -6  -1   7   28.08    1.08 
  -6  -1   7   26.54    0.95 
  -6   1   7   25.44    1.02 
   6   1  -7   27.63    1.00 
  -6   1   7   27.89    1.08 
  -6   1   7   28.27    1.13 
  -6   1   7   26.09    1.03 
   6   1  -7   26.25    1.06 
  -6   1   7   25.44    1.05 
   6   1  -7   25.96    1.13 
   6   1  -7   27.06    1.05 
   6   1  -7   27.94    1.08 
  -6   1   7   29.40    1.04 
   6   1  -7   27.80    1.06 
  -6   1   7   26.35    1.05 
  -6   1   7   27.58    1.03 
  -6   1   7   26.45    1.02 
  -6   1   7   28.46    1.06 
   5  -1  -7    5.61    0.38 
  -5  -1   7    5.66    0.34 
  -5  -1   7    5.60    0.30 
   5  -1  -7    5.90    0.35 
  -5  -1   7    5.43    0.36 
  -5  -1   7    5.56    0.26 
  -5  -1   7    6.11    0.36 
  -5  -1   7    5.74    0.35 
   5  -1  -7    5.69    0.31 
   5  -1  -7    5.67    0.36 
  -5  -1   7    5.89    0.37 
   5  -1  -7    5.76    0.34 
   5  -1  -7    5.96    0.26 
   5  -1  -7    5.90    0.38 
  -5   1   7    5.68    0.35 
   5   1  -7    5.68    0.43 
  -5   1   7    5.72    0.38 
   5   1  -7    5.31    0.34 
  -5   1   7    5.35    0.41 
   5   1  -7    5.35    0.29 
   5   1  -7    5.62    0.32 
   5   1  -7    5.53    0.29 
  -5   1   7    5.35    0.34 
   5   1  -7    5.90    0.35 
   5   1  -7    5.56    0.34 
  -5   1   7    5.51    0.35 
   5   1  -7    5.62    0.36 
  -5   1   7    5.94    0.38 
   5   1  -7    5.71    0.39 
   5   1  -7    5.49    0.34 
  -5   1   7    5.20    0.62 
  -5   1   7    5.47    0.34 
  -5   1   7    5.46    0.31 
  -5   1   7    5.33    0.35 
  -4  -1   7    0.46    0.18 
   4  -1  -7    0.31    0.11 
  -4  -1   7    0.42    0.20 
  -4  -1   7    0.23    0.09 
   4  -1  -7    0.57    0.25 
   4  -1  -7    0.29    0.13 
   4  -1  -7    0.32    0.15 
   4  -1  -7    0.57    0.19 
  -4  -1   7    0.22    0.09 
  -4  -1   7    0.51    0.15 
  -4  -1   7    0.34    0.19 
  -4  -1   7    0.32    0.14 
   4  -1  -7    0.45    0.15 
  -4  -1   7    0.38    0.18 
   4  -1  -7    0.19    0.15 
  -4  -1   7    0.13    0.15 
   4  -1  -7    0.21    0.10 
   4  -1  -7    0.45    0.15 
   4  -1  -7    0.29    0.08 
   4  -1  -7    0.39    0.18 
   4  -1  -7    0.25    0.15 
   4  -1  -7    0.54    0.16 
  -4  -1   7    0.36    0.12 
  -4  -1   7    0.85    0.20 
  -4  -1   7    0.38    0.12 
   4   1  -7    0.08    0.12 
   4   1  -7    0.53    0.16 
   4   1  -7    0.50    0.13 
  -4   1   7    0.12    0.13 
   4   1  -7    0.31    0.15 
  -4   1   7    0.33    0.13 
   4   1  -7    0.36    0.12 
  -4   1   7    0.25    0.11 
   4   1  -7    0.25    0.11 
  -4   1   7    0.37    0.16 
   4   1  -7    0.25    0.12 
  -4   1   7    0.22    0.14 
  -4   1   7    0.30    0.10 
   4   1  -7    0.17    0.12 
  -4   1   7    0.22    0.12 
  -4   1   7    0.28    0.15 
  -4   1   7    0.38    0.14 
   4   1  -7    0.67    0.22 
   4   1  -7    0.29    0.14 
   4   1  -7    0.33    0.06 
  -4   1   7    0.42    0.09 
   4   1  -7    0.36    0.18 
   4   1  -7    0.35    0.13 
   4   1  -7    0.26    0.11 
  -4   1   7    0.14    0.16 
  -4   1   7    0.21    0.14 
   4   1  -7    0.26    0.09 
   4   1  -7    0.21    0.15 
   4   1  -7    0.48    0.11 
   3  -1  -7   64.91    2.51 
  -3  -1   7   65.23    2.72 
   3  -1  -7   70.15    2.61 
  -3  -1   7   68.65    2.56 
  -3  -1   7   67.88    2.57 
   3  -1  -7   69.08    2.58 
   3  -1  -7   71.75    2.67 
   3  -1  -7   68.91    2.55 
   3  -1  -7   69.57    2.66 
   3  -1  -7   68.92    2.65 
  -3  -1   7   67.21    2.60 
  -3  -1   7   72.86    2.67 
  -3   1   7   71.34    2.53 
  -3   1   7   68.88    2.53 
   3   1  -7   68.93    2.60 
  -3   1   7   73.50    2.68 
   3   1  -7   70.95    2.66 
   3   1  -7   70.32    2.66 
   3   1  -7   65.04    2.54 
  -3   1   7   72.60    2.69 
  -3   1   7   71.02    2.61 
   2  -1  -7   62.57    2.41 
  -2  -1   7   60.94    2.30 
   2  -1  -7   59.66    2.30 
   2  -1  -7   61.43    2.33 
   2  -1  -7   64.31    2.39 
  -2  -1   7   55.64    2.40 
  -2  -1   7   62.72    2.34 
  -2  -1   7   63.29    2.40 
  -2  -1   7   63.01    2.47 
   2   1  -7   64.58    2.32 
  -2   1   7   61.82    2.34 
  -2   1   7   59.37    2.28 
   2   1  -7   61.41    2.40 
   2   1  -7   63.02    2.55 
  -2   1   7   62.25    2.29 
  -2   1   7   73.47    2.61 
  -2   1   7   61.28    2.49 
  -2   1   7   58.25    2.39 
  -2   1   7   59.83    2.39 
  -2   1   7   65.10    2.36 
   2   1  -7   58.65    2.37 
  -1  -1   7   22.14    1.01 
  -1  -1   7   23.39    0.98 
  -1  -1   7   22.77    0.92 
   1  -1  -7   22.06    1.01 
   1  -1  -7   22.09    0.93 
  -1  -1   7   20.61    0.92 
  -1  -1   7   23.88    1.10 
  -1  -1   7   19.66    1.76 
   1  -1  -7   22.23    0.95 
   1  -1  -7   23.12    1.04 
  -1  -1   7   24.24    1.05 
   1   1  -7   22.44    0.87 
   1   1  -7   21.04    1.10 
  -1   1   7   23.18    0.94 
   1   1  -7   21.50    0.98 
  -1   1   7   22.67    0.99 
  -1   1   7   22.32    1.03 
   1   1  -7   23.37    1.04 
  -1   1   7   23.21    1.12 
   1   1  -7   22.80    0.94 
  -1   1   7   22.77    0.99 
  -1   1   7   22.10    0.93 
  -1   1   7   17.65    1.45 
  -1   1   7   22.81    1.05 
   0  -1  -7   22.57    1.00 
   0  -1   7   21.77    0.93 
   0  -1   7   21.21    0.91 
   0  -1  -7   23.18    1.05 
   0  -1   7   23.21    0.97 
   0  -1   7   22.46    1.01 
   0  -1   7   21.79    1.07 
   0  -1  -7   22.84    0.92 
   0  -1  -7   23.44    0.95 
   0   1  -7   21.45    0.86 
   0   1   7   22.41    1.07 
   0   1  -7   21.67    0.85 
   0   1  -7   23.07    0.94 
   0   1   7   23.12    0.95 
   0   1   7   21.93    0.98 
   0   1   7   20.96    0.94 
   0   1   7   21.94    1.04 
   0   1  -7   23.05    1.13 
   0   1   7   22.25    0.98 
   0   1   7   23.79    1.12 
   0   1  -7   22.33    0.91 
   0   1  -7   22.57    1.03 
   1  -1   7   97.13    3.42 
   1  -1   7   97.93    3.43 
   1  -1   7   94.00    3.47 
   1  -1   7   87.19    3.50 
  -1  -1  -7   91.39    3.42 
   1  -1   7   95.52    3.38 
  -1  -1  -7  104.18    3.45 
   1   1   7   86.05    3.43 
   1   1   7   95.18    3.60 
   1   1   7   96.04    3.45 
  -1   1  -7   98.58    3.40 
  -1   1  -7   96.39    3.36 
   1   1   7   89.75    3.40 
  -1   1  -7   88.53    3.34 
   1   1   7   94.02    3.51 
  -1   1  -7   90.92    3.31 
  -2  -1  -7   16.41    0.73 
  -2  -1  -7   15.56    0.67 
  -2  -1  -7   16.69    0.61 
  -2  -1  -7   16.30    0.68 
  -2  -1  -7   15.94    0.67 
   2  -1   7   16.69    0.79 
  -2  -1  -7   16.07    0.75 
   2  -1   7   15.17    0.73 
  -2  -1  -7   16.56    0.70 
  -2  -1  -7   16.88    0.65 
  -2  -1  -7   15.74    0.69 
  -2  -1  -7   16.16    0.66 
  -2  -1  -7   16.18    0.79 
   2  -1   7   16.20    0.71 
  -2  -1  -7   15.21    0.66 
  -2  -1  -7   16.32    0.70 
  -2  -1  -7   16.21    0.64 
  -2   1  -7   16.19    0.67 
  -2   1  -7   14.83    0.63 
   2   1   7   17.63    0.79 
  -2   1  -7   15.97    0.66 
   2   1   7   15.79    0.87 
  -2   1  -7   15.87    0.66 
  -2   1  -7   16.73    0.74 
  -2   1  -7   16.15    0.65 
   2   1   7   16.06    0.81 
   2   1   7   16.63    0.75 
   2   1   7   14.73    0.90 
  -2   1  -7   16.18    0.61 
  -2   1  -7   15.90    0.71 
   2   1   7   16.95    0.67 
  -2   1  -7   17.13    0.65 
  -2   1  -7   15.75    0.68 
   2   1   7   15.82    0.66 
  -2   1  -7   15.72    0.61 
  -3  -1  -7    2.47    0.23 
  -3  -1  -7    2.68    0.22 
  -3  -1  -7    2.17    0.23 
  -3  -1  -7    2.55    0.20 
  -3  -1  -7    2.56    0.29 
  -3  -1  -7    2.55    0.18 
  -3  -1  -7    2.61    0.20 
  -3  -1  -7    2.58    0.24 
  -3  -1  -7    2.93    0.21 
  -3  -1  -7    2.48    0.26 
  -3  -1  -7    2.91    0.16 
  -3  -1  -7    2.64    0.21 
  -3  -1  -7    2.52    0.24 
  -3  -1  -7    2.39    0.23 
  -3  -1  -7    2.45    0.21 
  -3   1  -7    2.65    0.23 
  -3   1  -7    2.60    0.20 
  -3   1  -7    2.62    0.20 
   3   1   7    2.29    0.20 
  -3   1  -7    2.54    0.17 
   3   1   7    2.37    0.20 
  -3   1  -7    2.75    0.21 
   3   1   7    2.76    0.26 
  -3   1  -7    2.55    0.24 
  -3   1  -7    2.60    0.16 
  -3   1  -7    2.59    0.50 
   3   1   7    2.41    0.30 
  -3   1  -7    2.61    0.42 
  -3   1  -7    2.39    0.18 
  -3   1  -7    2.56    0.18 
  -4  -1  -7    8.50    0.35 
  -4  -1  -7    8.59    0.38 
  -4  -1  -7    8.70    0.40 
  -4  -1  -7    8.48    0.36 
  -4  -1  -7    8.68    0.36 
  -4  -1  -7    8.32    0.48 
   4  -1   7    7.96    0.38 
  -4  -1  -7    7.79    0.39 
  -4  -1  -7    8.60    0.38 
  -4  -1  -7    9.36    0.35 
  -4  -1  -7    8.99    0.42 
  -4  -1  -7    8.96    0.41 
  -4  -1  -7    7.77    0.50 
  -4  -1  -7    8.61    0.41 
  -4  -1  -7    8.82    0.36 
  -4  -1  -7    8.84    0.40 
  -4   1  -7    9.10    0.34 
  -4   1  -7    8.16    0.45 
   4   1   7    9.09    0.40 
  -4   1  -7    9.21    0.40 
  -4   1  -7    8.91    0.39 
   4   1   7    8.68    0.39 
  -4   1  -7    8.35    0.37 
   4   1   7    8.42    0.45 
  -4   1  -7    8.76    0.37 
  -5  -1  -7    0.42    0.07 
  -5  -1  -7    0.56    0.11 
  -5  -1  -7    0.53    0.09 
  -5  -1  -7    0.55    0.12 
  -5  -1  -7    0.33    0.10 
   5  -1   7    0.44    0.09 
  -5  -1  -7    0.49    0.06 
  -5   1  -7    0.40    0.08 
  -5   1  -7    0.44    0.08 
  -5   1  -7    0.42    0.06 
   5   1   7    0.40    0.09 
  -5   1  -7    0.43    0.06 
   5   1   7    0.40    0.10 
  -5   1  -7    0.44    0.08 
   7  -2  -7    0.85    0.16 
  -7  -2   7    1.35    0.14 
   7  -2  -7    1.11    0.12 
   7  -2  -7    1.36    0.15 
   7  -2  -7    1.74    0.16 
   7  -2  -7    1.41    0.08 
   7  -2  -7    1.43    0.12 
   7  -2  -7    1.35    0.19 
  -7  -2   7    1.35    0.16 
  -7  -2   7    1.50    0.14 
  -7   2   7    1.47    0.13 
  -7   2   7    1.59    0.13 
  -7   2   7    1.54    0.19 
  -7   2   7    1.52    0.11 
   7   2  -7    1.87    0.18 
   7   2  -7    1.61    0.15 
  -7   2   7    1.66    0.11 
   7   2  -7    1.55    0.14 
  -7   2   7    1.41    0.11 
  -7   2   7    1.57    0.12 
   7   2  -7    1.42    0.17 
  -7   2   7    1.48    0.11 
   7   2  -7    1.34    0.12 
   7   2  -7    1.55    0.10 
   7   2  -7    1.12    0.15 
   7   2  -7    1.63    0.15 
  -7   2   7    1.70    0.14 
  -6  -2   7   24.73    0.87 
   6  -2  -7   26.00    0.99 
   6  -2  -7   25.14    0.89 
  -6  -2   7   25.94    0.96 
  -6  -2   7   25.25    0.92 
   6  -2  -7   25.47    0.96 
  -6  -2   7   25.34    0.97 
   6  -2  -7   20.69    0.97 
  -6  -2   7   25.66    0.97 
   6  -2  -7   24.64    0.93 
   6   2  -7   24.75    0.91 
   6   2  -7   23.17    0.93 
   6   2  -7   25.91    1.00 
  -6   2   7   23.83    0.92 
   6   2  -7   22.98    0.94 
   6   2  -7   24.56    1.01 
  -6   2   7   25.00    0.94 
  -6   2   7   23.66    0.95 
   6   2  -7   25.49    0.96 
   6   2  -7   23.84    0.95 
  -6   2   7   25.36    1.07 
  -6   2   7   22.48    0.92 
  -6   2   7   24.42    0.92 
   6   2  -7   25.11    0.94 
   6   2  -7   24.39    0.92 
   6   2  -7   23.42    0.92 
   6   2  -7   23.83    0.92 
  -6   2   7   24.63    0.98 
  -6   2   7   24.32    0.99 
  -6   2   7   23.71    0.95 
  -6   2   7   23.92    0.93 
  -6   2   7   24.57    0.93 
  -6   2   7   24.71    0.88 
  -5  -2   7   30.04    1.25 
   5  -2  -7   33.27    1.29 
  -5  -2   7   31.08    1.24 
   5  -2  -7   27.49    1.20 
  -5  -2   7   32.17    1.27 
   5  -2  -7   29.83    1.26 
   5  -2  -7   33.89    1.22 
   5  -2  -7   32.43    1.34 
  -5  -2   7   33.48    1.21 
  -5  -2   7   30.83    1.34 
   5  -2  -7   33.60    1.28 
   5  -2  -7   30.99    1.25 
  -5  -2   7   31.43    1.18 
  -5  -2   7   33.52    1.28 
   5   2  -7   31.15    1.19 
  -5   2   7   32.64    1.22 
  -5   2   7   33.86    1.25 
   5   2  -7   33.18    1.22 
  -5   2   7   32.91    1.29 
  -5   2   7   32.78    1.27 
   5   2  -7   31.79    1.21 
  -5   2   7   31.54    1.24 
  -5   2   7   31.92    1.31 
   5   2  -7   32.72    1.29 
  -5   2   7   29.51    1.22 
   5   2  -7   31.96    1.25 
   5   2  -7   32.05    1.31 
  -5   2   7   31.62    1.21 
   5   2  -7   33.50    1.26 
  -5   2   7   32.16    1.22 
   5   2  -7   33.66    1.24 
  -5   2   7   33.69    1.22 
   5   2  -7   32.73    1.21 
  -5   2   7   33.58    1.22 
   5   2  -7   32.50    1.22 
   5   2  -7   34.61    1.23 
   5   2  -7   33.76    1.25 
  -4  -2   7   31.93    1.35 
   4  -2  -7   34.05    1.33 
   4  -2  -7   33.61    1.31 
  -4  -2   7   31.66    1.32 
   4  -2  -7   33.03    1.31 
  -4  -2   7   34.12    1.24 
   4  -2  -7   34.99    1.26 
  -4  -2   7   33.69    1.30 
  -4  -2   7   35.69    1.34 
   4  -2  -7   32.68    1.43 
   4  -2  -7   33.74    1.34 
  -4  -2   7   33.19    1.24 
   4  -2  -7   33.85    1.43 
   4  -2  -7   33.09    1.35 
  -4  -2   7   32.99    1.40 
   4  -2  -7   31.46    1.33 
  -4  -2   7   33.66    1.25 
  -4   2   7   32.19    1.34 
   4   2  -7   33.73    1.25 
   4   2  -7   34.21    1.41 
   4   2  -7   32.64    1.28 
   4   2  -7   34.61    1.33 
  -4   2   7   33.53    1.34 
  -4   2   7   34.65    1.31 
  -4   2   7   33.27    1.26 
  -4   2   7   33.69    1.29 
  -4   2   7   32.10    1.26 
  -4   2   7   35.49    1.32 
   4   2  -7   34.63    1.36 
   4   2  -7   33.68    1.40 
   4   2  -7   33.59    1.28 
   4   2  -7   34.49    1.25 
  -4   2   7   31.68    1.32 
   4   2  -7   33.00    1.26 
   4   2  -7   33.93    1.23 
   4   2  -7   34.62    1.28 
   4   2  -7   33.72    1.26 
  -4   2   7   32.48    1.38 
  -4   2   7   31.55    1.29 
  -4   2   7   31.14    1.66 
   4   2  -7   31.87    1.19 
   4   2  -7   32.96    1.42 
   4   2  -7   32.84    1.25 
  -4   2   7   35.14    1.41 
   4   2  -7   32.78    1.29 
   3  -2  -7   52.39    2.09 
   3  -2  -7   51.36    2.06 
  -3  -2   7   55.84    1.99 
   3  -2  -7   52.40    1.99 
   3  -2  -7   47.64    1.98 
   3  -2  -7   54.48    1.98 
   3  -2  -7   49.91    1.95 
   3  -2  -7   53.24    1.98 
  -3  -2   7   52.77    2.01 
   3  -2  -7   54.27    2.02 
   3  -2  -7   52.82    2.05 
   3  -2  -7   50.76    1.95 
  -3  -2   7   54.72    2.08 
  -3  -2   7   51.13    2.13 
  -3  -2   7   50.55    1.90 
   3  -2  -7   52.23    1.91 
   3  -2  -7   53.12    2.08 
  -3  -2   7   50.11    1.90 
  -3   2   7   50.08    1.95 
   3   2  -7   54.27    1.89 
   3   2  -7   54.21    1.91 
   3   2  -7   53.69    1.99 
   3   2  -7   56.22    2.10 
  -3   2   7   51.00    1.95 
  -3   2   7   54.83    1.95 
  -3   2   7   48.46    2.05 
   3   2  -7   55.64    1.95 
  -3   2   7   51.82    1.84 
   3   2  -7   49.98    1.90 
   3   2  -7   51.89    1.90 
   3   2  -7   52.32    1.91 
   3   2  -7   52.21    2.04 
   3   2  -7   54.48    2.09 
   3   2  -7   53.16    1.88 
   3   2  -7   51.31    1.85 
   3   2  -7   52.98    1.92 
   3   2  -7   51.85    1.90 
  -3   2   7   52.28    2.01 
   3   2  -7   51.38    1.97 
  -3   2   7   50.82    1.96 
  -3   2   7   51.84    1.96 
   3   2  -7   51.28    1.93 
  -3   2   7   52.21    2.06 
   3   2  -7   53.34    1.93 
  -3   2   7   50.31    1.90 
  -3   2   7   50.13    1.89 
  -3   2   7   56.45    2.05 
  -3   2   7   56.28    1.97 
   2  -2  -7   62.55    2.42 
  -2  -2   7   64.57    2.35 
  -2  -2   7   63.85    2.51 
   2  -2  -7   64.39    2.33 
   2  -2  -7   66.48    2.51 
   2  -2  -7   65.80    2.39 
   2  -2  -7   66.07    2.49 
  -2  -2   7   64.19    2.37 
   2  -2  -7   65.46    2.48 
  -2  -2   7   62.07    2.39 
  -2  -2   7   65.98    2.46 
   2   2  -7   62.40    2.34 
   2   2  -7   63.85    2.37 
  -2   2   7   56.52    2.31 
  -2   2   7   66.85    2.48 
  -2   2   7   64.57    2.41 
   2   2  -7   59.85    2.32 
   2   2  -7   63.20    2.29 
  -2   2   7   60.44    2.45 
   2   2  -7   68.97    2.50 
   1  -2  -7   18.06    0.79 
   1  -2  -7   20.05    0.82 
   1  -2  -7   18.08    0.83 
  -1  -2   7   16.97    0.78 
  -1  -2   7   17.32    0.75 
  -1  -2   7   16.75    0.86 
  -1  -2   7   17.26    0.77 
  -1  -2   7   17.06    0.87 
  -1  -2   7   17.22    0.83 
   1  -2  -7   17.78    0.87 
   1  -2  -7   17.40    0.87 
   1   2  -7   17.36    0.70 
   1   2  -7   18.25    0.75 
   1   2  -7   16.55    0.93 
  -1   2   7   17.30    0.83 
  -1   2   7   16.76    0.87 
   1   2  -7   17.15    0.64 
   1   2  -7   18.17    0.65 
   1   2  -7   18.00    0.77 
  -1   2   7   16.90    0.86 
   1   2  -7   17.90    0.74 
  -1   2   7   17.53    0.76 
   1   2  -7   18.09    0.88 
   0  -2  -7   41.60    1.65 
   0  -2  -7   41.98    1.72 
   0  -2   7   41.03    1.62 
   0  -2   7   44.18    1.60 
   0  -2   7   41.50    1.67 
   0  -2  -7   40.78    1.61 
   0  -2  -7   40.80    1.70 
   0   2   7   42.19    1.74 
   0   2   7   39.13    1.61 
   0   2   7   43.72    1.63 
   0   2   7   43.41    1.83 
   0   2   7   41.77    1.72 
   0   2  -7   41.43    1.56 
   0   2  -7   42.49    1.71 
   0   2  -7   42.34    1.53 
   0   2   7   43.52    1.68 
   0   2  -7   41.85    1.61 
   0   2  -7   43.77    1.55 
   0   2   7   42.03    1.67 
  -1  -2  -7   31.23    1.20 
   1  -2   7   33.35    1.27 
  -1  -2  -7   32.14    1.27 
  -1  -2  -7   32.90    1.28 
  -1  -2  -7   32.09    1.31 
  -1  -2  -7   33.31    1.26 
  -1  -2  -7   31.90    1.27 
   1  -2   7   33.28    1.50 
  -1  -2  -7   32.67    1.17 
  -1  -2  -7   32.11    1.27 
  -1  -2  -7   32.52    1.30 
  -1  -2  -7   32.35    1.24 
  -1  -2  -7   34.16    1.40 
  -1  -2  -7   33.94    1.38 
  -1  -2  -7   33.40    1.37 
  -1  -2  -7   32.55    1.22 
  -1  -2  -7   32.24    1.45 
  -1  -2  -7   30.99    1.23 
  -1  -2  -7   32.92    1.27 
  -1   2  -7   32.58    1.21 
   1   2   7   29.53    1.22 
   1   2   7   35.05    1.37 
   1   2   7   33.65    1.22 
   1   2   7   34.24    1.50 
   1   2   7   30.54    1.33 
  -1   2  -7   32.61    1.21 
  -1   2  -7   32.14    1.19 
   1   2   7   33.42    1.29 
   1   2   7   32.74    1.41 
  -1   2  -7   31.86    1.17 
   1   2   7   32.15    1.32 
  -1   2  -7   33.25    1.23 
  -1   2  -7   31.56    1.23 
  -1   2  -7   33.42    1.28 
  -1   2  -7   31.21    1.27 
   1   2   7   31.30    1.22 
  -1   2  -7   32.51    1.63 
  -1   2  -7   32.91    1.20 
  -1   2  -7   34.49    1.19 
   1   2   7   34.53    1.32 
  -2  -2  -7    4.30    0.30 
  -2  -2  -7    4.35    0.31 
  -2  -2  -7    4.25    0.32 
  -2  -2  -7    4.50    0.30 
  -2  -2  -7    4.21    0.29 
  -2  -2  -7    4.35    0.28 
  -2  -2  -7    4.17    0.32 
  -2  -2  -7    4.04    0.20 
  -2  -2  -7    4.35    0.34 
  -2  -2  -7    4.61    0.38 
  -2  -2  -7    3.48    0.33 
  -2  -2  -7    4.42    0.28 
  -2  -2  -7    4.15    0.26 
  -2  -2  -7    4.20    0.30 
   2   2   7    4.37    0.36 
  -2   2  -7    4.50    0.26 
   2   2   7    4.56    0.26 
   2   2   7    4.28    0.25 
  -2   2  -7    4.50    0.29 
   2   2   7    3.98    0.34 
   2   2   7    4.78    0.34 
   2   2   7    4.46    0.30 
  -2   2  -7    4.61    0.24 
  -2   2  -7    4.23    0.23 
   2   2   7    4.57    0.33 
  -2   2  -7    4.45    0.26 
  -2   2  -7    4.36    0.24 
   2   2   7    4.66    0.39 
  -2   2  -7    4.41    0.20 
   2   2   7    4.37    0.37 
  -2   2  -7    4.39    0.22 
  -3  -2  -7   41.30    1.53 
  -3  -2  -7   39.27    1.45 
  -3  -2  -7   40.93    1.51 
  -3  -2  -7   41.62    1.49 
  -3  -2  -7   40.37    1.53 
  -3  -2  -7   40.75    1.43 
  -3  -2  -7   40.38    1.50 
  -3  -2  -7   40.76    1.63 
  -3  -2  -7   40.89    1.56 
  -3  -2  -7   40.08    1.56 
  -3  -2  -7   40.21    1.49 
  -3  -2  -7   39.05    1.48 
  -3  -2  -7   40.88    1.50 
   3   2   7   39.91    1.57 
  -3   2  -7   40.66    1.46 
   3   2   7   39.92    1.54 
   3   2   7   39.72    1.58 
  -3   2  -7   42.20    1.46 
  -3   2  -7   42.09    1.48 
   3   2   7   39.53    1.64 
  -3   2  -7   39.78    1.43 
   3   2   7   40.02    1.50 
  -3   2  -7   40.88    1.48 
   3   2   7   39.96    1.48 
  -3   2  -7   39.77    1.51 
   3   2   7   38.90    1.48 
  -3   2  -7   41.67    1.45 
  -4  -2  -7   14.29    0.58 
  -4  -2  -7   13.97    0.56 
  -4  -2  -7   14.51    0.60 
  -4  -2  -7   14.41    0.56 
  -4  -2  -7   14.22    0.59 
  -4  -2  -7   14.40    0.58 
  -4  -2  -7   14.53    0.58 
  -4  -2  -7   14.13    0.68 
  -4  -2  -7   14.81    0.63 
  -4  -2  -7   13.24    0.54 
  -4  -2  -7   14.75    0.60 
   4   2   7   15.31    0.57 
   4   2   7   13.57    0.57 
   4   2   7   13.88    0.58 
   4   2   7   14.73    0.65 
  -4   2  -7   14.71    0.54 
   4   2   7   15.16    0.63 
  -4   2  -7   14.39    0.52 
  -4   2  -7   14.22    0.55 
  -4   2  -7   14.29    0.56 
   4   2   7   14.13    0.64 
  -4   2  -7   14.32    0.54 
  -5  -2  -7   10.89    0.42 
  -5  -2  -7   10.28    0.42 
  -5  -2  -7    9.66    0.39 
   5   2   7   12.08    0.51 
   5   2   7    9.29    0.42 
   5   2   7   11.31    0.53 
  -5   2  -7   10.02    0.37 
   6  -3  -7    9.00    0.38 
   6  -3  -7    9.78    0.36 
   6  -3  -7    7.60    0.36 
  -6  -3   7    8.67    0.41 
  -6  -3   7    8.27    0.40 
   6  -3  -7    8.39    0.42 
  -6  -3   7    8.61    0.33 
  -6  -3   7    8.42    0.36 
  -6  -3   7    8.58    0.40 
   6  -3  -7    8.03    0.39 
  -6   3   7    8.36    0.36 
   6   3  -7    8.20    0.37 
  -6   3   7    9.20    0.40 
   6   3  -7    8.26    0.39 
   6   3  -7    8.00    0.36 
   6   3  -7    8.35    0.37 
  -6   3   7    8.70    0.35 
  -6   3   7    7.87    0.39 
  -6   3   7    8.47    0.37 
  -6   3   7    9.58    0.37 
  -6   3   7    8.62    0.38 
  -6   3   7    8.96    0.45 
   6   3  -7    8.69    0.37 
  -6   3   7    8.88    0.36 
   6   3  -7    9.35    0.38 
   6   3  -7    8.77    0.36 
   6   3  -7    8.53    0.46 
   6   3  -7    8.34    0.39 
   6   3  -7    8.99    0.42 
   6   3  -7    8.67    0.41 
   6   3  -7    8.16    0.38 
   5  -3  -7    1.54    0.20 
  -5  -3   7    1.59    0.17 
  -5  -3   7    1.37    0.14 
   5  -3  -7    1.34    0.17 
  -5  -3   7    1.30    0.19 
   5  -3  -7    1.71    0.23 
   5  -3  -7    1.43    0.14 
   5  -3  -7    1.33    0.21 
  -5  -3   7    1.44    0.19 
  -5  -3   7    1.42    0.22 
  -5  -3   7    1.27    0.13 
   5  -3  -7    1.52    0.22 
   5  -3  -7    1.32    0.20 
  -5   3   7    1.68    0.21 
   5   3  -7    1.47    0.16 
  -5   3   7    1.31    0.15 
   5   3  -7    1.34    0.17 
   5   3  -7    1.51    0.20 
  -5   3   7    1.26    0.10 
   5   3  -7    1.45    0.19 
  -5   3   7    1.46    0.23 
  -5   3   7    1.39    0.16 
  -5   3   7    1.27    0.22 
  -5   3   7    1.49    0.17 
   5   3  -7    1.27    0.15 
   5   3  -7    1.43    0.10 
  -5   3   7    1.49    0.18 
   5   3  -7    1.05    0.19 
   5   3  -7    1.49    0.18 
   5   3  -7    1.29    0.14 
  -5   3   7    1.14    0.18 
   5   3  -7    1.31    0.17 
   5   3  -7    1.31    0.16 
   5   3  -7    1.44    0.24 
  -5   3   7    1.74    0.17 
  -5   3   7    1.06    0.16 
  -5   3   7    1.43    0.19 
   5   3  -7    1.25    0.20 
  -5   3   7    1.52    0.18 
  -4  -3   7   30.21    1.17 
   4  -3  -7   30.49    1.21 
   4  -3  -7   29.72    1.11 
  -4  -3   7   28.03    1.24 
   4  -3  -7   29.48    1.19 
  -4  -3   7   29.82    1.20 
   4  -3  -7   29.81    1.13 
  -4  -3   7   29.93    1.12 
  -4  -3   7   29.51    1.12 
   4  -3  -7   30.28    1.20 
   4  -3  -7   30.73    1.18 
   4  -3  -7   29.55    1.27 
   4   3  -7   28.59    1.11 
  -4   3   7   30.73    1.17 
  -4   3   7   29.57    1.18 
   4   3  -7   28.38    1.11 
   4   3  -7   28.79    1.17 
  -4   3   7   29.85    1.16 
   4   3  -7   30.34    1.11 
  -4   3   7   30.13    1.13 
  -4   3   7   30.08    1.16 
   4   3  -7   30.14    1.07 
   4   3  -7   29.24    1.17 
   4   3  -7   29.92    1.14 
   4   3  -7   30.24    1.10 
  -4   3   7   30.44    1.15 
  -4   3   7   25.94    1.19 
   4   3  -7   29.85    1.25 
  -4   3   7   27.12    1.13 
  -4   3   7   29.97    1.13 
   4   3  -7   30.32    1.15 
   4   3  -7   30.01    1.28 
   4   3  -7   28.12    1.10 
  -4   3   7   30.78    1.13 
  -4   3   7   30.12    1.12 
   4   3  -7   30.70    1.13 
   4   3  -7   30.08    1.12 
  -4   3   7   30.66    1.21 
  -4   3   7   29.58    1.23 
   3  -3  -7   88.56    3.07 
   3  -3  -7   78.09    3.08 
   3  -3  -7   82.71    3.17 
   3  -3  -7   82.25    3.06 
   3  -3  -7   77.23    3.11 
   3  -3  -7   82.97    3.03 
   3  -3  -7   85.35    2.99 
   3  -3  -7   83.97    2.97 
   3  -3  -7   81.63    3.07 
  -3  -3   7   82.61    2.98 
  -3  -3   7   83.87    3.04 
  -3  -3   7   84.50    3.06 
  -3  -3   7   81.53    3.12 
   3  -3  -7   83.16    3.06 
  -3  -3   7   81.19    2.98 
  -3   3   7   83.18    3.07 
   3   3  -7   84.24    2.97 
  -3   3   7   81.27    3.00 
  -3   3   7   89.15    3.14 
  -3   3   7   77.87    2.99 
  -3   3   7   84.64    3.04 
   3   3  -7   88.79    2.97 
   3   3  -7   82.37    3.06 
   3   3  -7   85.58    3.02 
   3   3  -7   86.27    3.18 
  -3   3   7   83.78    3.03 
   3   3  -7   82.25    2.94 
   3   3  -7   84.93    2.96 
   3   3  -7   85.07    2.99 
  -3   3   7   79.60    2.99 
   3   3  -7   79.69    2.97 
  -3   3   7   83.67    3.02 
   3   3  -7   84.65    3.00 
   3   3  -7   88.92    2.96 
  -3   3   7   88.08    3.06 
   3   3  -7   83.46    2.93 
  -3   3   7   81.76    3.07 
   3   3  -7   82.61    2.98 
   3   3  -7   81.58    2.98 
   3   3  -7   85.82    3.03 
   3   3  -7   87.35    3.11 
  -3   3   7   87.05    3.12 
   3   3  -7   86.42    3.17 
   3   3  -7   84.93    2.91 
   3   3  -7   84.98    2.94 
  -3   3   7   87.55    2.99 
   3   3  -7   83.66    2.91 
   3   3  -7   84.78    3.02 
   2  -3  -7   10.62    0.63 
  -2  -3   7   11.71    0.62 
   2  -3  -7   11.73    0.56 
   2  -3  -7   12.03    0.59 
   2  -3  -7   11.34    0.56 
  -2  -3   7   11.18    0.57 
  -2  -3   7   10.93    0.49 
  -2  -3   7   11.63    0.56 
   2  -3  -7   11.13    0.68 
  -2  -3   7   11.09    0.53 
   2  -3  -7   11.56    0.50 
   2  -3  -7   11.52    0.55 
  -2  -3   7   10.68    0.64 
   2  -3  -7   10.62    0.56 
   2  -3  -7   10.16    0.51 
   2  -3  -7   11.94    0.66 
   2  -3  -7   11.04    0.58 
   2  -3  -7   10.21    0.65 
   2  -3  -7   10.44    0.56 
  -2   3   7   10.90    0.53 
  -2   3   7   10.63    0.62 
  -2   3   7   11.46    0.55 
   2   3  -7   10.21    0.46 
   2   3  -7   11.03    0.45 
   2   3  -7   11.02    0.45 
   2   3  -7   11.69    0.47 
   2   3  -7   11.17    0.48 
   2   3  -7   11.01    0.58 
   2   3  -7    9.94    0.54 
  -2   3   7   12.91    1.16 
   2   3  -7   11.85    0.49 
  -2   3   7   11.39    0.59 
   2   3  -7   10.17    0.49 
  -2   3   7   11.07    0.54 
  -2   3   7   11.01    0.56 
   2   3  -7   11.88    0.51 
   2   3  -7   10.93    0.65 
   2   3  -7   11.13    0.45 
  -2   3   7   11.17    0.60 
   2   3  -7   11.05    0.50 
   2   3  -7   11.79    0.52 
  -2   3   7   11.26    0.54 
  -2   3   7   10.27    0.57 
  -2   3   7   11.15    0.50 
  -2   3   7   10.99    0.63 
  -2   3   7   11.20    0.41 
   2   3  -7   11.38    0.49 
  -2   3   7   10.95    0.62 
   2   3  -7   11.85    0.56 
   1  -3  -7   12.27    0.49 
   1  -3  -7   12.20    0.53 
  -1  -3   7   13.36    0.58 
   1  -3  -7   12.70    0.67 
  -1  -3   7   11.97    0.64 
   1  -3  -7   12.44    0.62 
   1  -3  -7   12.06    0.59 
   1  -3  -7   12.24    0.58 
   1  -3  -7   11.41    0.68 
   1  -3  -7   12.66    0.63 
   1  -3  -7   12.79    0.70 
   1  -3  -7   12.70    0.60 
   1  -3  -7   11.83    0.62 
   1   3  -7   12.32    0.52 
   1   3  -7   11.94    0.52 
  -1   3   7   12.37    0.61 
   1   3  -7   12.70    0.55 
   1   3  -7   13.56    0.59 
   1   3  -7   13.83    0.52 
  -1   3   7   11.37    0.57 
   1   3  -7   12.36    0.48 
  -1   3   7   12.68    0.68 
   1   3  -7   11.83    0.59 
  -1   3   7   12.70    0.63 
  -1   3   7   12.76    0.55 
  -1   3   7   11.88    0.59 
  -1   3   7   12.16    0.60 
   1   3  -7   12.30    0.48 
  -1   3   7   12.00    0.59 
  -1   3   7   12.17    0.68 
   1   3  -7   13.73    0.71 
  -1   3   7   12.12    0.47 
   1   3  -7   12.95    0.51 
  -1   3   7   12.26    0.53 
   1   3  -7   12.88    0.52 
   0  -3  -7   31.04    1.27 
   0  -3  -7   30.64    1.19 
   0  -3   7   33.55    1.24 
   0  -3  -7   31.99    1.27 
   0  -3  -7   30.42    1.36 
   0  -3  -7   32.32    1.25 
   0  -3  -7   28.93    1.30 
   0  -3  -7   32.64    1.38 
   0  -3  -7   30.78    1.26 
   0  -3  -7   32.25    1.21 
   0  -3  -7   31.57    1.28 
   0  -3  -7   32.47    1.14 
   0  -3  -7   32.02    1.24 
   0   3  -7   31.23    1.14 
   0   3  -7   33.51    1.50 
   0   3  -7   32.58    1.17 
   0   3   7   31.89    1.14 
   0   3  -7   33.13    1.42 
   0   3   7   34.91    1.41 
   0   3   7   31.79    1.37 
   0   3  -7   31.54    1.16 
   0   3  -7   31.91    1.20 
   0   3   7   31.38    1.19 
   0   3  -7   31.29    1.17 
   0   3   7   32.46    1.28 
   0   3   7   30.71    1.27 
   0   3   7   31.29    1.26 
   0   3   7   31.39    1.31 
   0   3   7   31.46    1.25 
   0   3   7   32.86    1.36 
   0   3  -7   30.60    1.19 
  -1  -3  -7    0.34    0.12 
  -1  -3  -7    0.24    0.15 
  -1  -3  -7    0.04    0.09 
  -1  -3  -7    0.07    0.13 
   1  -3   7    0.18    0.08 
  -1  -3  -7    0.05    0.10 
  -1  -3  -7    0.13    0.05 
  -1  -3  -7    0.37    0.14 
  -1  -3  -7    0.26    0.18 
  -1  -3  -7    0.03    0.10 
  -1  -3  -7    0.17    0.35 
  -1  -3  -7    0.50    0.16 
  -1  -3  -7    0.22    0.13 
  -1  -3  -7   -0.01    0.10 
  -1  -3  -7    0.29    0.14 
  -1  -3  -7    0.18    0.17 
   1   3   7    0.18    0.14 
  -1   3  -7    0.13    0.07 
   1   3   7    0.31    0.17 
   1   3   7    0.04    0.14 
  -1   3  -7    0.18    0.10 
  -1   3  -7    0.13    0.06 
   1   3   7    0.13    0.12 
  -1   3  -7    0.12    0.04 
  -1   3  -7    0.12    0.07 
   1   3   7    0.10    0.06 
   1   3   7    0.04    0.13 
  -1   3  -7    0.11    0.10 
  -1   3  -7    0.14    0.06 
   1   3   7    0.03    0.09 
  -2  -3  -7    5.81    0.35 
  -2  -3  -7    6.04    0.37 
  -2  -3  -7    6.35    0.38 
  -2  -3  -7    5.88    0.29 
  -2  -3  -7    5.89    0.45 
  -2  -3  -7    6.27    0.35 
  -2  -3  -7    5.67    0.33 
  -2  -3  -7    5.36    0.40 
  -2  -3  -7    5.99    0.36 
   2   3   7    6.24    0.27 
  -2   3  -7    6.14    0.28 
   2   3   7    6.14    0.38 
  -2   3  -7    6.53    0.32 
  -2   3  -7    6.08    0.27 
   2   3   7    6.50    0.34 
  -2   3  -7    5.90    0.24 
   2   3   7    6.42    0.41 
  -2   3  -7    6.02    0.27 
   2   3   7    6.50    0.38 
  -2   3  -7    6.24    0.29 
  -2   3  -7    5.77    0.34 
  -3  -3  -7    7.27    0.35 
  -3  -3  -7    6.84    0.35 
  -3  -3  -7    7.03    0.36 
  -3  -3  -7    6.60    0.42 
  -3  -3  -7    7.40    0.34 
  -3  -3  -7    7.16    0.42 
  -3  -3  -7    7.07    0.37 
  -3  -3  -7    7.33    0.37 
  -3  -3  -7    6.47    0.35 
  -3  -3  -7    6.98    0.38 
   3   3   7    6.80    0.39 
  -3   3  -7    6.88    0.30 
   3   3   7    6.98    0.29 
   3   3   7    6.80    0.39 
  -3   3  -7    6.98    0.28 
   3   3   7    7.49    0.42 
   3   3   7    7.84    0.35 
  -4  -3  -7    0.22    0.07 
  -4  -3  -7    0.16    0.10 
  -4  -3  -7    0.20    0.08 
  -4  -3  -7    0.16    0.08 
  -4  -3  -7    0.26    0.10 
  -4  -3  -7    0.08    0.05 
  -4  -3  -7    0.05    0.09 
  -4  -3  -7    0.26    0.10 
  -4  -3  -7    0.06    0.07 
  -4  -3  -7    0.41    0.13 
  -4  -3  -7    0.27    0.08 
   4   3   7    0.13    0.08 
  -4   3  -7    0.20    0.03 
   4   3   7    0.12    0.07 
   4   3   7    0.28    0.07 
   4   3   7    0.18    0.10 
  -4   3  -7    0.20    0.02 
   4   3   7    0.21    0.10 
  -6  -4   7   10.80    0.45 
  -6  -4   7   11.25    0.42 
  -6  -4   7   12.11    0.49 
   6   4  -7   11.74    0.43 
   6   4  -7   10.12    0.55 
   6   4  -7   12.22    0.47 
   5  -4  -7    7.38    0.39 
  -5  -4   7    6.37    0.29 
   5  -4  -7    6.29    0.30 
   5  -4  -7    6.44    0.37 
  -5  -4   7    7.08    0.37 
  -5  -4   7    6.65    0.30 
  -5  -4   7    6.78    0.34 
   5  -4  -7    7.02    0.35 
  -5  -4   7    7.06    0.32 
   5  -4  -7    6.69    0.30 
  -5  -4   7    6.32    0.35 
   5  -4  -7    6.75    0.32 
   5   4  -7    6.69    0.28 
  -5   4   7    6.81    0.34 
   5   4  -7    7.02    0.32 
  -5   4   7    6.69    0.31 
   5   4  -7    6.26    0.31 
  -5   4   7    6.15    0.38 
   5   4  -7    6.46    0.26 
  -5   4   7    6.50    0.29 
   5   4  -7    6.72    0.28 
   5   4  -7    6.44    0.29 
  -5   4   7    7.16    0.34 
  -5   4   7    6.77    0.29 
   5   4  -7    6.83    0.33 
  -5   4   7    7.11    0.33 
   5   4  -7    6.84    0.30 
   5   4  -7    6.84    0.39 
  -5   4   7    7.03    0.31 
  -5   4   7    6.92    0.29 
  -5   4   7    6.11    0.26 
   5   4  -7    6.56    0.33 
   5   4  -7    6.66    0.28 
   4  -4  -7   14.42    0.60 
  -4  -4   7   15.29    0.60 
   4  -4  -7   14.91    0.61 
   4  -4  -7   15.89    0.60 
   4  -4  -7   15.04    0.67 
  -4  -4   7   14.89    0.66 
  -4  -4   7   14.61    0.60 
   4  -4  -7   15.24    0.68 
   4  -4  -7   14.24    0.66 
   4  -4  -7   14.81    0.64 
  -4   4   7   15.21    0.64 
   4   4  -7   15.61    0.61 
   4   4  -7   14.82    0.69 
  -4   4   7   15.01    0.60 
  -4   4   7   13.51    0.60 
   4   4  -7   14.33    0.56 
   4   4  -7   14.22    0.56 
  -4   4   7   14.84    0.65 
   4   4  -7   14.56    0.57 
   4   4  -7   14.70    0.58 
   4   4  -7   14.29    0.61 
   4   4  -7   14.81    0.60 
   4   4  -7   15.18    0.63 
   4   4  -7   14.71    0.56 
  -4   4   7   15.67    0.61 
  -4   4   7   13.64    0.65 
   4   4  -7   14.56    0.61 
  -4   4   7   14.63    0.63 
  -4   4   7   15.44    0.60 
   4   4  -7   15.01    0.60 
   4   4  -7   15.02    0.61 
  -4   4   7   14.55    0.71 
   4   4  -7   14.96    0.62 
  -4   4   7   14.96    0.55 
  -4   4   7   16.16    0.62 
   4   4  -7   14.76    0.57 
  -4   4   7   15.16    0.61 
  -4   4   7   15.82    0.67 
  -3  -4   7    7.82    0.43 
  -3  -4   7    7.58    0.45 
   3  -4  -7    7.45    0.36 
   3  -4  -7    7.78    0.46 
  -3  -4   7    7.46    0.36 
   3  -4  -7    7.44    0.38 
   3  -4  -7    7.40    0.44 
   3  -4  -7    7.32    0.48 
   3  -4  -7    7.87    0.44 
   3  -4  -7    7.25    0.36 
   3  -4  -7    7.43    0.41 
  -3   4   7    8.47    0.37 
   3   4  -7    8.18    0.33 
   3   4  -7    7.51    0.42 
  -3   4   7    7.63    0.38 
  -3   4   7    8.13    0.46 
   3   4  -7    7.72    0.37 
   3   4  -7    7.90    0.36 
  -3   4   7    7.80    0.39 
   3   4  -7    7.40    0.35 
  -3   4   7    8.37    0.40 
  -3   4   7    7.93    0.35 
   3   4  -7    8.25    0.36 
   3   4  -7    8.39    0.32 
  -3   4   7    7.71    0.38 
  -3   4   7    7.72    0.42 
  -3   4   7    7.49    0.41 
  -3   4   7    7.36    0.31 
  -3   4   7    8.30    0.45 
   3   4  -7    7.54    0.36 
   3   4  -7    8.22    0.39 
  -3   4   7    8.08    0.38 
   3   4  -7    7.39    0.43 
  -3   4   7    7.97    0.40 
  -3   4   7    7.68    0.42 
   3   4  -7    7.68    0.33 
  -3   4   7    7.64    0.49 
   2  -4  -7   19.74    0.96 
   2  -4  -7   21.15    0.96 
   2  -4  -7   21.23    0.88 
   2  -4  -7   21.12    0.90 
   2  -4  -7   20.91    0.91 
   2  -4  -7   21.21    0.83 
   2  -4  -7   20.86    0.81 
   2  -4  -7   20.86    0.90 
  -2   4   7   21.11    0.85 
  -2   4   7   20.32    0.84 
   2   4  -7   21.40    0.80 
   2   4  -7   22.44    0.82 
   2   4  -7   21.21    0.87 
   2   4  -7   20.97    0.87 
  -2   4   7   20.47    0.91 
  -2   4   7   21.19    0.84 
  -2   4   7   21.68    0.88 
  -2   4   7   21.91    0.88 
  -2   4   7   20.80    0.86 
   2   4  -7   20.58    0.81 
   2   4  -7   20.78    0.82 
   2   4  -7   20.92    0.77 
  -2   4   7   21.67    0.94 
   2   4  -7   21.93    0.84 
  -2   4   7   20.21    0.88 
  -2   4   7   20.58    0.84 
  -2   4   7   22.02    0.88 
  -2   4   7   20.88    0.82 
  -2   4   7   20.62    0.84 
   1  -4  -7   19.87    0.78 
   1  -4  -7   19.96    0.82 
   1  -4  -7   18.45    0.76 
   1  -4  -7   18.14    0.83 
   1  -4  -7   19.91    0.94 
   1  -4  -7   16.48    0.98 
   1  -4  -7   20.28    0.86 
  -1   4   7   19.61    0.82 
  -1   4   7   20.31    0.84 
  -1   4   7   18.28    0.80 
  -1   4   7   20.60    0.83 
   1   4  -7   19.76    0.74 
   1   4  -7   18.68    0.80 
  -1   4   7   18.56    0.89 
   1   4  -7   19.33    0.71 
  -1   4   7   20.22    0.79 
  -1   4   7   19.62    0.87 
   1   4  -7   21.07    0.78 
  -1   4   7   18.38    0.79 
  -1   4   7   19.33    0.81 
  -1   4   7   19.12    0.76 
   1   4  -7   19.24    0.75 
   1   4  -7   19.32    0.74 
   0  -4  -7    4.28    0.38 
   0  -4  -7    3.92    0.33 
   0  -4  -7    3.89    0.30 
   0  -4  -7    4.06    0.26 
   0  -4  -7    4.40    0.21 
   0  -4  -7    4.62    0.30 
   0  -4  -7    4.27    0.34 
   0  -4  -7    4.33    0.33 
   0   4  -7    3.96    0.21 
   0   4   7    3.99    0.26 
   0   4  -7    4.03    0.21 
   0   4  -7    4.48    0.26 
   0   4   7    4.06    0.32 
   0   4  -7    4.47    0.23 
   0   4   7    4.29    0.31 
   0   4  -7    4.12    0.23 
   0   4   7    4.51    0.32 
   0   4  -7    3.87    0.22 
   0   4  -7    4.24    0.19 
   0   4   7    3.83    0.49 
   0   4   7    4.54    0.27 
   0   4   7    3.96    0.38 
   0   4   7    4.26    0.35 
  -1  -4  -7    1.92    0.12 
  -1  -4  -7    1.79    0.24 
  -1  -4  -7    1.68    0.23 
  -1  -4  -7    2.57    0.73 
  -1  -4  -7    1.99    0.18 
  -1  -4  -7    1.52    0.26 
  -1  -4  -7    2.16    0.24 
  -1  -4  -7    1.86    0.22 
  -1  -4  -7    2.03    0.21 
   1   4   7    1.61    0.31 
   1   4   7    1.84    0.24 
   1   4   7    1.77    0.25 
   1   4   7    1.71    0.46 
  -1   4  -7    1.65    0.16 
  -1   4  -7    1.78    0.11 
  -1   4  -7    2.06    0.13 
   1   4   7    1.93    0.24 
   1   4   7    1.79    0.16 
  -1   4  -7    1.69    0.14 
   1   4   7    2.01    0.24 
  -1   4  -7    2.21    0.16 
   1   4   7    1.93    0.11 
   1   4   7    1.73    0.21 
  -1   4  -7    1.74    0.13 
  -2  -4  -7    4.41    0.23 
  -2  -4  -7    3.97    0.28 
  -2  -4  -7    4.41    0.28 
  -2  -4  -7    4.18    0.37 
  -2  -4  -7    4.26    0.30 
  -2  -4  -7    4.03    0.29 
  -2  -4  -7    4.77    0.31 
   2   4   7    3.90    0.28 
   2   4   7    3.87    0.29 
   2   4   7    3.69    0.30 
  -2   4  -7    4.30    0.17 
   2   4   7    4.13    0.16 
   2   4   7    4.01    0.27 
  -2   4  -7    4.15    0.17 
   2   4   7    4.26    0.63 
   2   4   7    3.91    0.23 
  -2   4  -7    4.08    0.19 
  -3  -4  -7    5.97    0.33 
  -3  -4  -7    5.95    0.36 
  -3  -4  -7    6.51    0.33 
  -3  -4  -7    6.14    0.31 
  -3  -4  -7    5.80    0.32 
  -3  -4  -7    6.74    0.31 
  -3  -4  -7    6.81    0.39 
  -3  -4  -7    6.30    0.32 
  -3  -4  -7    6.32    0.30 
   3   4   7    6.44    0.34 
   3   4   7    6.44    0.34 
   3   4   7    6.36    0.55 
   3   4   7    6.52    0.35 
   3   4   7    6.17    0.33 
   4  -5  -7   12.23    0.52 
   4  -5  -7   11.28    0.48 
   4  -5  -7   11.99    0.49 
  -4  -5   7   12.51    0.48 
   4  -5  -7   12.46    0.48 
  -4  -5   7   12.56    0.48 
   4  -5  -7   12.53    0.54 
   4   5  -7   11.26    0.48 
  -4   5   7   12.30    0.46 
  -4   5   7   12.36    0.47 
  -4   5   7   12.32    0.44 
  -4   5   7   12.08    0.49 
   4   5  -7   12.87    0.52 
  -4   5   7   12.27    0.57 
   4   5  -7   11.75    0.48 
  -4   5   7   12.05    0.49 
  -4   5   7   11.19    0.51 
   4   5  -7   12.18    0.46 
  -4   5   7   12.83    0.50 
  -4   5   7   10.19    0.51 
   4   5  -7   12.64    0.48 
  -4   5   7   11.39    0.49 
  -4   5   7   11.70    0.46 
   4   5  -7   12.51    0.45 
  -4   5   7   12.98    0.46 
   4   5  -7   12.09    0.47 
  -3  -5   7   17.81    0.75 
   3  -5  -7   18.37    0.78 
   3  -5  -7   18.41    0.71 
   3  -5  -7   17.18    0.70 
  -3  -5   7   19.27    0.71 
   3  -5  -7   18.75    0.70 
   3  -5  -7   17.67    0.74 
   3  -5  -7   16.72    0.76 
  -3   5   7   19.34    0.83 
  -3   5   7   19.16    0.72 
  -3   5   7   17.86    0.71 
  -3   5   7   15.35    0.76 
   3   5  -7   18.90    0.72 
   3   5  -7   18.70    0.67 
   3   5  -7   18.47    0.67 
  -3   5   7   19.68    0.76 
  -3   5   7   18.07    0.70 
  -3   5   7   19.56    0.70 
   3   5  -7   18.06    0.69 
   3   5  -7   16.80    0.80 
   3   5  -7   18.86    0.69 
  -3   5   7   18.81    0.70 
  -3   5   7   17.33    0.68 
  -3   5   7   19.39    0.74 
  -3   5   7   18.55    0.66 
   3   5  -7   17.15    0.70 
  -3   5   7   18.00    0.74 
   2  -5  -7    5.53    0.32 
   2  -5  -7    5.12    0.34 
   2  -5  -7    5.33    0.26 
   2  -5  -7    5.47    0.27 
   2  -5  -7    5.38    0.34 
   2  -5  -7    5.56    0.44 
   2  -5  -7    5.33    0.29 
  -2   5   7    5.37    0.34 
  -2   5   7    4.75    0.28 
  -2   5   7    5.06    0.33 
  -2   5   7    5.26    0.29 
   2   5  -7    5.11    0.26 
   2   5  -7    5.42    0.25 
   2   5  -7    5.39    0.22 
  -2   5   7    5.47    0.31 
  -2   5   7    5.28    0.26 
   2   5  -7    5.53    0.25 
  -2   5   7    4.99    0.32 
  -2   5   7    5.67    0.28 
  -2   5   7    5.70    0.28 
  -2   5   7    4.61    0.28 
  -2   5   7    5.22    0.38 
   2   5  -7    5.33    0.27 
  -2   5   7    4.88    0.28 
   1  -5  -7    6.06    0.44 
   1  -5  -7    6.79    0.33 
   1  -5  -7    6.21    0.39 
   1  -5  -7    7.54    0.53 
   1  -5  -7    5.97    0.36 
   1  -5  -7    6.71    0.36 
  -1   5   7    6.20    0.34 
  -1   5   7    5.99    0.35 
  -1   5   7    6.97    0.46 
  -1   5   7    6.17    0.35 
  -1   5   7    6.11    0.38 
   1   5  -7    7.40    0.33 
   1   5  -7    6.25    0.25 
  -1   5   7    5.56    0.30 
  -1   5   7    6.32    0.40 
  -1   5   7    6.30    0.33 
   1   5  -7    6.12    0.27 
  -1   5   7    6.66    0.34 
   1   5  -7    6.37    0.29 
   1   5  -7    6.65    0.28 
   1   5  -7    6.27    0.28 
  -1   5   7    6.01    0.28 
  -1   5   7    6.41    0.33 
  -1   5   7    6.52    0.37 
  -1   5   7    6.02    0.32 
   0  -5  -7    0.66    0.18 
   0  -5  -7    0.25    0.12 
   0  -5  -7    0.30    0.16 
   0  -5  -7    0.39    0.09 
   0  -5  -7    0.22    0.10 
   0  -5  -7    0.22    0.09 
   0   5   7    0.12    0.08 
   0   5  -7    0.35    0.07 
   0   5   7    0.19    0.10 
   0   5   7    0.44    0.09 
   0   5   7    0.33    0.11 
   0   5   7    0.35    0.11 
   0   5   7    0.61    0.21 
   0   5   7    0.21    0.10 
   0   5   7    0.25    0.11 
   0   5   7    0.53    0.21 
   0   5   7    0.61    0.18 
   0   5  -7    0.31    0.05 
   0   5   7    0.04    0.14 
  -1  -5  -7    5.65    0.23 
  -1  -5  -7    6.02    0.34 
  -1  -5  -7    5.89    0.30 
  -1  -5  -7    5.59    0.34 
  -1  -5  -7    4.88    0.77 
  -1  -5  -7    5.32    0.27 
  -1  -5  -7    5.32    0.31 
   1   5   7    6.29    0.33 
   1   5   7    5.68    0.32 
   1   5   7    5.21    0.32 
   1   5   7    5.25    0.29 
   1   5   7    6.14    0.28 
   1   5   7    6.07    0.39 
   1   5   7    5.67    0.29 
   1   5   7    5.66    0.31 
   1   5   7    5.73    0.29 
   1   5   7    5.48    0.35 
   1   5   7    5.81    0.30 
  -2  -5  -7    1.35    0.17 
  -2  -5  -7    1.50    0.16 
  -2  -5  -7    1.48    0.16 
  -2  -5  -7    1.77    0.18 
   2   5   7    1.58    0.17 
   2   5   7    1.48    0.14 
   2   5   7    1.85    0.22 
   2   5   7    1.40    0.15 
   2   5   7    1.42    0.18 
   2   5   7    1.36    0.16 
   2   5   7    1.62    0.14 
   2   5   7    1.15    0.20 
   2   5   7    1.53    0.22 
  -3  -6   7    7.45    0.32 
  -3   6   7    5.93    0.30 
   3   6  -7    7.88    0.29 
  -3   6   7    6.58    0.36 
   3   6  -7    6.67    0.28 
  -3   6   7    6.17    0.29 
   3   6  -7    7.24    0.30 
   2  -6  -7   17.62    0.68 
   2  -6  -7   17.63    0.68 
   2  -6  -7   18.85    0.71 
   2  -6  -7   18.44    0.72 
  -2   6   7   19.09    0.68 
  -2   6   7   17.42    0.72 
  -2   6   7   18.04    0.66 
  -2   6   7   17.82    0.65 
  -2   6   7   17.73    0.65 
  -2   6   7   16.79    0.68 
  -2   6   7   18.64    0.76 
   2   6  -7   18.60    0.66 
   2   6  -7   17.52    0.64 
  -2   6   7   16.74    0.69 
  -2   6   7   17.77    0.69 
   1  -6  -7    0.24    0.07 
   1  -6  -7    0.40    0.07 
   1  -6  -7    0.51    0.14 
   1  -6  -7    0.16    0.07 
  -1   6   7    0.26    0.06 
  -1   6   7    0.17    0.07 
   1   6  -7    0.26    0.05 
  -1   6   7    0.36    0.09 
  -1   6   7    0.26    0.10 
  -1   6   7    0.15    0.06 
  -1   6   7    0.17    0.08 
  -1   6   7    0.19    0.07 
  -1   6   7    0.17    0.06 
  -1   6   7    0.10    0.07 
  -1   6   7    0.19    0.08 
   0  -6  -7    1.02    0.15 
   0  -6  -7    1.14    0.14 
   0  -6  -7    1.22    0.12 
   0  -6  -7    1.24    0.08 
   0  -6  -7    1.39    0.14 
   0  -6  -7    1.50    0.17 
   0   6   7    1.20    0.12 
   0   6   7    1.27    0.13 
   0   6   7    0.90    0.17 
   0   6   7    1.13    0.10 
   0   6   7    1.18    0.12 
   0   6   7    1.15    0.16 
   0   6   7    1.30    0.12 
   0   6   7    1.02    0.16 
   0   6   7    1.25    0.13 
   0   6   7    1.13    0.13 
  -1  -6  -7    1.34    0.16 
  -1  -6  -7    1.65    0.13 
  -1  -6  -7    1.70    0.13 
  -1  -6  -7    1.50    0.26 
   1   6   7    1.67    0.13 
   6   0  -8  119.89    4.36 
  -6   0   8  128.01    4.31 
   6   0  -8  121.69    4.31 
   6   0  -8  123.90    4.29 
   6   0  -8  120.67    4.29 
   6   0  -8  123.48    4.24 
  -6   0   8  116.40    4.28 
  -6   0   8  126.29    4.37 
   5   0  -8    0.56    0.17 
   5   0  -8    0.46    0.17 
   5   0  -8    0.34    0.11 
   5   0  -8    0.37    0.15 
   5   0  -8    0.27    0.11 
  -5   0   8    0.46    0.12 
  -5   0   8    0.58    0.17 
  -5   0   8    0.87    0.45 
  -5   0   8    0.32    0.13 
  -5   0   8    0.55    0.16 
  -5   0   8    0.56    0.16 
   5   0  -8    0.66    0.16 
   5   0  -8    0.42    0.15 
  -5   0   8    0.60    0.07 
  -5   0   8    0.66    0.19 
  -4   0   8    0.11    0.13 
  -4   0   8    0.10    0.09 
   4   0  -8    0.11    0.12 
   4   0  -8    0.15    0.12 
   4   0  -8    0.23    0.09 
   4   0  -8    0.21    0.12 
  -4   0   8    0.13    0.08 
   4   0  -8    0.13    0.09 
  -4   0   8   -0.01    0.13 
   4   0  -8    0.10    0.12 
   4   0  -8    0.30    0.10 
   4   0  -8    0.05    0.18 
  -4   0   8    0.23    0.07 
   4   0  -8    0.32    0.10 
   4   0  -8    0.12    0.15 
  -3   0   8   19.02    0.87 
   3   0  -8   19.02    0.79 
   3   0  -8   18.07    0.77 
   3   0  -8   17.17    0.85 
   3   0  -8   19.25    0.70 
   3   0  -8   15.74    0.87 
  -3   0   8   16.53    0.83 
  -3   0   8   18.15    0.89 
  -3   0   8   18.40    0.73 
  -3   0   8   18.73    0.82 
  -3   0   8   18.05    0.71 
   3   0  -8   17.93    0.81 
   3   0  -8   18.79    0.75 
   3   0  -8   17.53    0.77 
   3   0  -8   18.38    0.75 
  -3   0   8   19.68    0.79 
   3   0  -8   17.81    0.74 
   3   0  -8   19.60    0.91 
   3   0  -8   19.77    0.90 
   3   0  -8   18.70    0.76 
   3   0  -8   18.18    0.76 
  -3   0   8   17.93    0.80 
   3   0  -8   18.52    0.72 
   3   0  -8   18.92    0.86 
  -2   0   8   12.66    0.54 
   2   0  -8   13.54    0.72 
   2   0  -8   12.47    0.59 
  -2   0   8   13.50    0.60 
  -2   0   8   12.94    0.78 
   2   0  -8   12.89    0.56 
  -2   0   8   12.28    0.55 
   2   0  -8   13.11    0.57 
  -2   0   8   13.38    0.55 
   2   0  -8   12.63    0.62 
   2   0  -8   12.62    0.58 
  -2   0   8   13.13    0.66 
   2   0  -8   11.98    0.57 
  -2   0   8   12.29    0.62 
  -2   0   8   13.70    0.72 
  -2   0   8   12.68    0.67 
   2   0  -8   12.81    0.56 
   2   0  -8   13.38    0.67 
   2   0  -8   12.92    0.65 
  -2   0   8   12.86    0.64 
  -2   0   8   13.44    0.62 
   2   0  -8   13.22    0.59 
   2   0  -8   14.00    0.58 
   2   0  -8   12.90    0.53 
   2   0  -8   10.75    0.60 
   2   0  -8   13.17    0.59 
   2   0  -8   12.82    0.49 
   1   0  -8    1.55    0.19 
   1   0  -8    1.43    0.19 
  -1   0   8    1.08    0.31 
   1   0  -8    1.38    0.24 
   1   0  -8    1.55    0.16 
  -1   0   8    1.44    0.16 
   1   0  -8    1.46    0.19 
   1   0  -8    1.19    0.19 
   1   0  -8    1.69    0.26 
  -1   0   8    1.46    0.17 
  -1   0   8    1.53    0.24 
   1   0  -8    1.52    0.18 
   1   0  -8    1.35    0.20 
  -1   0   8    1.58    0.24 
   1   0  -8    1.62    0.26 
  -1   0   8    1.39    0.21 
  -1   0   8    1.52    0.20 
   1   0  -8    1.44    0.20 
  -1   0   8    1.70    0.28 
   1   0  -8    1.42    0.12 
   1   0  -8    1.48    0.21 
   1   0  -8    1.45    0.16 
   1   0  -8    1.46    0.27 
   0   0  -8   49.85    1.78 
   0   0  -8   50.19    1.80 
   0   0  -8   49.13    1.78 
   0   0  -8   46.83    1.82 
   0   0  -8   49.25    1.81 
   0   0  -8   49.63    1.80 
   0   0  -8   49.49    1.91 
   0   0  -8   50.92    1.74 
   0   0  -8   50.43    1.73 
   0   0  -8   49.97    1.79 
   0   0   8   48.29    1.78 
   0   0   8   49.12    1.79 
   0   0  -8   47.95    1.84 
   0   0  -8   49.27    1.81 
   0   0   8   41.55    2.00 
   0   0   8   46.12    1.90 
   0   0  -8   47.12    1.77 
   0   0  -8   47.94    1.85 
   0   0  -8   49.04    1.77 
   0   0   8   50.33    1.97 
   0   0   8   52.27    1.88 
   0   0  -8   51.67    1.76 
  -1   0  -8   73.53    2.58 
  -1   0  -8   72.38    2.53 
  -1   0  -8   69.52    2.55 
  -1   0  -8   71.80    2.53 
  -1   0  -8   74.69    2.58 
  -1   0  -8   63.44    2.51 
  -1   0  -8   73.51    2.61 
  -1   0  -8   69.51    2.53 
   1   0   8   73.82    2.64 
  -1   0  -8   71.41    2.54 
  -1   0  -8   74.06    2.60 
   1   0   8   71.94    2.72 
  -1   0  -8   72.87    2.51 
   1   0   8   69.08    2.66 
  -1   0  -8   69.11    2.52 
  -1   0  -8   70.12    2.63 
  -1   0  -8   71.14    2.54 
   1   0   8   72.89    2.55 
  -1   0  -8   68.92    2.66 
  -1   0  -8   71.65    2.54 
  -1   0  -8   74.52    2.56 
  -1   0  -8   72.12    2.59 
  -1   0  -8   71.86    2.59 
  -1   0  -8   69.44    2.50 
   1   0   8   72.52    2.55 
  -2   0  -8   15.40    0.62 
  -2   0  -8   15.62    0.65 
  -2   0  -8   15.68    0.59 
  -2   0  -8   15.07    0.60 
  -2   0  -8   15.13    0.57 
  -2   0  -8   14.77    0.60 
   2   0   8   14.39    0.61 
   2   0   8   15.30    0.62 
   2   0   8   14.44    0.74 
  -2   0  -8   14.46    0.62 
  -2   0  -8   14.47    0.62 
  -2   0  -8   15.13    0.63 
  -2   0  -8   14.91    0.58 
  -2   0  -8   14.41    0.68 
  -2   0  -8   15.21    0.64 
  -2   0  -8   15.21    0.58 
  -2   0  -8   14.70    0.64 
  -2   0  -8   15.64    0.64 
   2   0   8   15.11    0.69 
  -2   0  -8   15.37    0.72 
  -2   0  -8   14.68    0.58 
  -3   0  -8    2.88    0.19 
  -3   0  -8    3.46    0.26 
  -3   0  -8    3.00    0.20 
  -3   0  -8    3.00    0.15 
   3   0   8    2.91    0.20 
  -3   0  -8    2.99    0.45 
  -3   0  -8    3.17    0.21 
  -3   0  -8    3.03    0.22 
   3   0   8    2.93    0.25 
  -3   0  -8    2.90    0.19 
  -3   0  -8    2.86    0.21 
  -3   0  -8    2.96    0.16 
  -3   0  -8    2.90    0.16 
   3   0   8    3.02    0.20 
  -4   0  -8    0.12    0.04 
   4   0   8    0.21    0.06 
  -4   0  -8    0.07    0.04 
   4   0   8    0.04    0.06 
  -4   0  -8    0.10    0.08 
  -4   0  -8    0.11    0.06 
  -4   0  -8    0.11    0.05 
  -4   0  -8    0.13    0.07 
   6  -1  -8    0.32    0.14 
   6  -1  -8    0.41    0.10 
  -6  -1   8    0.33    0.10 
   6  -1  -8    0.53    0.14 
  -6  -1   8    0.37    0.13 
   6  -1  -8    0.38    0.09 
  -6  -1   8    0.26    0.10 
   6  -1  -8    0.34    0.13 
  -6  -1   8    0.20    0.09 
  -6  -1   8    0.48    0.09 
   6  -1  -8    0.35    0.10 
   6  -1  -8    0.41    0.12 
   6   1  -8    0.16    0.06 
  -6   1   8    0.53    0.10 
  -6   1   8    0.54    0.12 
  -6   1   8    0.50    0.15 
   6   1  -8    0.46    0.11 
   6   1  -8    0.42    0.10 
   6   1  -8    0.09    0.10 
  -6   1   8    0.39    0.15 
  -6   1   8    0.45    0.12 
   6   1  -8    0.10    0.07 
  -6   1   8    0.45    0.12 
   6   1  -8    0.38    0.13 
   6   1  -8    0.33    0.10 
  -6   1   8    0.54    0.13 
  -6   1   8    0.46    0.12 
   6   1  -8    0.29    0.08 
  -6   1   8    0.37    0.12 
   6   1  -8    0.43    0.13 
   6   1  -8    0.42    0.12 
   5  -1  -8   50.65    1.91 
   5  -1  -8   51.86    1.85 
   5  -1  -8   56.08    2.74 
  -5  -1   8   50.56    1.91 
  -5  -1   8   51.48    1.89 
  -5  -1   8   52.46    1.82 
   5  -1  -8   50.01    1.92 
   5  -1  -8   53.58    1.87 
   5  -1  -8   52.34    1.90 
  -5  -1   8   51.47    1.92 
   5  -1  -8   52.98    1.92 
   5  -1  -8   54.09    1.91 
  -5  -1   8   54.22    1.86 
   5  -1  -8   51.45    1.80 
   5   1  -8   52.04    1.87 
   5   1  -8   53.64    1.97 
  -5   1   8   51.69    1.91 
   5   1  -8   48.03    1.89 
   5   1  -8   50.92    1.87 
   5   1  -8   47.49    1.92 
   5   1  -8   50.81    1.87 
   5   1  -8   52.85    1.90 
   5   1  -8   50.34    1.87 
  -5   1   8   51.69    1.98 
   5   1  -8   49.38    1.84 
  -5   1   8   53.35    1.89 
   5   1  -8   51.73    1.89 
  -5   1   8   51.25    1.98 
  -5   1   8   53.36    1.91 
   5   1  -8   52.71    1.87 
  -4  -1   8   30.36    1.18 
  -4  -1   8   30.43    1.15 
   4  -1  -8   30.01    1.16 
   4  -1  -8   30.10    1.16 
   4  -1  -8   29.75    1.17 
  -4  -1   8   28.59    1.10 
   4  -1  -8   28.44    1.09 
  -4  -1   8   28.82    1.16 
   4  -1  -8   30.33    1.16 
   4  -1  -8   29.32    1.10 
   4  -1  -8   30.67    1.14 
  -4  -1   8   29.47    1.08 
   4  -1  -8   29.01    1.03 
  -4  -1   8   28.42    1.25 
  -4   1   8   29.58    1.04 
   4   1  -8   30.00    1.12 
   4   1  -8   30.90    1.19 
   4   1  -8   28.74    1.11 
  -4   1   8   29.71    1.17 
   4   1  -8   29.59    1.12 
   4   1  -8   29.70    1.09 
   4   1  -8   30.30    1.12 
  -4   1   8   28.48    2.21 
   4   1  -8   27.05    1.24 
  -4   1   8   30.44    1.10 
   4   1  -8   27.85    1.20 
  -4   1   8   29.23    1.13 
   4   1  -8   30.11    1.15 
   4   1  -8   29.03    1.15 
  -4   1   8   29.01    1.15 
  -4   1   8   29.32    1.15 
   4   1  -8   29.21    1.11 
  -4   1   8   26.03    1.14 
   4   1  -8   28.91    1.14 
   4   1  -8   29.85    1.14 
  -3  -1   8   10.48    0.62 
   3  -1  -8   11.10    0.54 
   3  -1  -8   11.08    0.62 
   3  -1  -8   10.72    0.63 
   3  -1  -8   10.40    0.51 
  -3  -1   8   11.06    0.53 
   3  -1  -8   10.81    0.54 
  -3  -1   8   11.21    0.48 
   3  -1  -8   11.02    0.54 
  -3  -1   8   11.22    0.55 
   3  -1  -8    9.77    0.48 
  -3  -1   8   10.78    0.48 
   3  -1  -8   11.38    0.53 
   3  -1  -8   11.08    0.40 
   3  -1  -8   11.19    0.55 
   3  -1  -8   10.24    0.46 
   3  -1  -8   10.97    0.62 
   3  -1  -8    9.49    0.61 
   3  -1  -8   11.00    0.54 
  -3  -1   8   11.44    0.60 
  -3  -1   8   10.70    0.47 
  -3  -1   8   10.92    0.56 
   3  -1  -8   11.32    0.48 
   3   1  -8   11.33    0.48 
   3   1  -8   11.47    0.58 
  -3   1   8   11.55    0.55 
   3   1  -8   11.24    0.61 
  -3   1   8   10.47    0.54 
   3   1  -8   10.76    0.49 
   3   1  -8   10.90    0.63 
  -3   1   8   11.10    0.60 
   3   1  -8   11.19    0.48 
   3   1  -8   10.81    0.43 
  -3   1   8   10.08    0.47 
   3   1  -8   11.64    0.50 
   3   1  -8   10.88    0.51 
   3   1  -8   11.58    0.52 
   3   1  -8   11.14    0.52 
   3   1  -8   11.06    0.55 
   3   1  -8   11.20    0.47 
  -3   1   8   11.23    0.43 
   3   1  -8   11.28    0.52 
   3   1  -8   10.62    0.49 
  -3   1   8   10.88    0.64 
   3   1  -8   10.18    0.83 
  -3   1   8   10.96    0.53 
   2  -1  -8   35.62    1.61 
  -2  -1   8   38.59    1.64 
  -2  -1   8   45.16    1.89 
   2  -1  -8   41.09    1.55 
   2  -1  -8   40.10    1.51 
  -2  -1   8   37.92    1.53 
   2  -1  -8   38.62    1.52 
   2  -1  -8   43.31    1.94 
   2  -1  -8   39.76    1.57 
   2  -1  -8   39.75    1.46 
  -2  -1   8   41.47    1.60 
  -2  -1   8   39.67    1.48 
   2  -1  -8   40.91    1.67 
   2  -1  -8   40.86    1.62 
   2  -1  -8   40.39    1.50 
   2  -1  -8   41.20    1.54 
   2  -1  -8   39.14    1.51 
   2  -1  -8   33.37    1.62 
  -2  -1   8   42.13    1.57 
  -2  -1   8   40.43    1.48 
   2  -1  -8   39.90    1.49 
   2  -1  -8   39.32    1.46 
  -2   1   8   40.81    1.61 
   2   1  -8   39.07    1.51 
  -2   1   8   35.96    1.70 
   2   1  -8   39.67    1.48 
  -2   1   8   40.34    1.55 
  -2   1   8   40.21    1.48 
   2   1  -8   42.03    1.68 
  -2   1   8   41.54    1.56 
   2   1  -8   38.21    1.49 
   2   1  -8   41.84    1.43 
   2   1  -8   41.33    1.48 
   2   1  -8   40.51    1.56 
   2   1  -8   39.98    1.49 
   2   1  -8   39.52    1.47 
   2   1  -8   38.93    1.46 
   2   1  -8   40.85    1.44 
   2   1  -8   41.64    1.63 
  -2   1   8   38.59    1.65 
  -2   1   8   39.91    1.45 
   2   1  -8   40.46    1.54 
  -2   1   8   39.86    1.54 
  -2   1   8   42.95    1.54 
   2   1  -8   39.90    1.45 
   2   1  -8   40.77    1.51 
  -1  -1   8    7.60    0.46 
   1  -1  -8    7.46    0.35 
   1  -1  -8    7.07    0.41 
  -1  -1   8    7.06    0.36 
  -1  -1   8    7.34    0.36 
  -1  -1   8    7.93    0.56 
   1  -1  -8    7.37    0.50 
  -1  -1   8    8.18    0.52 
   1  -1  -8    7.46    0.38 
   1  -1  -8    7.25    0.32 
   1  -1  -8    7.20    0.37 
  -1  -1   8    7.54    0.43 
   1  -1  -8    7.27    0.30 
   1  -1  -8    7.35    0.40 
   1  -1  -8    7.28    0.39 
   1  -1  -8    7.54    0.48 
   1  -1  -8    6.85    0.36 
   1  -1  -8    7.51    0.40 
   1  -1  -8    7.90    0.45 
   1  -1  -8    6.89    0.38 
   1  -1  -8    7.33    0.41 
   1  -1  -8    7.12    0.46 
   1  -1  -8    7.41    0.43 
  -1  -1   8    6.26    0.45 
   1   1  -8    6.99    0.35 
   1   1  -8    7.30    0.39 
   1   1  -8    6.90    0.40 
  -1   1   8    7.58    0.42 
   1   1  -8    7.10    0.34 
   1   1  -8    7.02    0.41 
   1   1  -8    6.85    0.42 
   1   1  -8    7.25    0.41 
   1   1  -8    6.88    0.35 
   1   1  -8    7.36    0.33 
   1   1  -8    6.95    0.38 
   1   1  -8    7.61    0.52 
  -1   1   8    8.11    0.48 
  -1   1   8    6.99    0.37 
   1   1  -8    6.93    0.34 
   1   1  -8    7.11    0.31 
   1   1  -8    7.24    0.36 
  -1   1   8    7.02    0.35 
   1   1  -8    7.39    0.35 
  -1   1   8    7.85    0.43 
   1   1  -8    7.47    0.37 
   1   1  -8    6.43    0.32 
  -1   1   8    6.82    0.57 
  -1   1   8    7.54    0.43 
  -1   1   8    7.38    0.35 
  -1   1   8    7.10    0.51 
  -1   1   8    7.17    0.43 
  -1   1   8    6.68    0.45 
   1   1  -8    7.40    0.46 
   1   1  -8    6.90    0.36 
   1   1  -8    7.27    0.38 
   0  -1   8   33.57    1.37 
   0  -1  -8   36.02    1.31 
   0  -1  -8   36.07    1.47 
   0  -1  -8   34.85    1.36 
   0  -1  -8   35.61    1.33 
   0  -1  -8   34.71    1.35 
   0  -1  -8   32.22    1.42 
   0  -1   8   36.36    1.33 
   0  -1  -8   36.13    1.37 
   0  -1   8   34.76    1.39 
   0  -1   8   36.40    1.43 
   0  -1   8   37.08    1.49 
   0  -1  -8   35.44    1.33 
   0  -1  -8   37.31    1.52 
   0  -1  -8   35.34    1.33 
   0  -1  -8   30.46    1.40 
   0  -1  -8   36.35    1.37 
   0  -1  -8   36.21    1.40 
   0  -1  -8   35.33    1.27 
   0  -1  -8   36.23    1.44 
   0  -1  -8   35.68    1.34 
   0   1  -8   35.98    1.27 
   0   1  -8   32.51    1.39 
   0   1  -8   34.44    1.31 
   0   1  -8   34.92    1.28 
   0   1  -8   37.20    1.36 
   0   1  -8   36.02    1.36 
   0   1  -8   34.93    1.32 
   0   1   8   36.36    1.38 
   0   1   8   36.89    1.41 
   0   1  -8   36.42    1.30 
   0   1   8   35.35    1.32 
   0   1  -8   36.62    1.29 
   0   1   8   35.98    1.33 
   0   1  -8   36.33    1.31 
   0   1  -8   36.49    1.43 
   0   1  -8   37.59    1.37 
   0   1  -8   35.24    1.48 
   0   1  -8   35.36    1.29 
   0   1   8   36.22    1.51 
   0   1  -8   36.59    1.34 
   0   1  -8   36.36    1.32 
   0   1  -8   36.20    1.34 
   0   1   8   33.99    1.44 
   0   1  -8   34.57    1.35 
   0   1   8   34.53    1.32 
   0   1  -8   37.12    1.31 
   0   1   8   34.00    1.41 
  -1  -1  -8    8.58    0.39 
  -1  -1  -8    8.18    0.37 
  -1  -1  -8    7.78    0.35 
  -1  -1  -8    8.19    0.39 
  -1  -1  -8    8.69    0.46 
  -1  -1  -8    8.30    0.40 
  -1  -1  -8    7.81    0.33 
   1  -1   8    8.07    0.45 
  -1  -1  -8    8.23    0.41 
   1  -1   8    8.15    0.39 
  -1  -1  -8    8.24    0.51 
  -1  -1  -8    7.83    0.47 
   1  -1   8   10.33    0.63 
  -1  -1  -8    8.18    0.43 
  -1  -1  -8    8.25    0.40 
  -1  -1  -8    8.18    0.41 
   1  -1   8    7.91    0.51 
  -1  -1  -8    8.30    0.43 
   1   1   8    9.29    0.55 
  -1   1  -8    7.81    0.37 
   1   1   8    8.49    0.39 
  -1   1  -8    8.09    0.41 
  -1   1  -8    8.11    0.39 
   1   1   8    8.01    0.39 
  -1   1  -8    8.60    0.38 
  -1   1  -8    8.01    0.34 
  -1   1  -8    8.14    0.34 
  -1   1  -8    7.92    0.38 
  -1   1  -8    8.11    0.41 
  -1   1  -8    8.16    0.39 
   1   1   8    8.04    0.40 
   1   1   8    7.99    0.44 
   1   1   8    9.40    0.53 
  -1   1  -8    8.09    0.44 
   1   1   8    8.60    0.47 
  -1   1  -8    8.31    0.37 
  -1   1  -8    7.97    0.35 
  -1   1  -8    7.74    0.46 
  -2  -1  -8    4.64    0.25 
  -2  -1  -8    4.51    0.25 
   2  -1   8    4.14    0.25 
  -2  -1  -8    4.67    0.21 
  -2  -1  -8    4.25    0.29 
  -2  -1  -8    4.53    0.31 
  -2  -1  -8    4.86    0.31 
  -2  -1  -8    3.83    0.28 
   2  -1   8    4.41    0.31 
  -2  -1  -8    4.43    0.27 
  -2  -1  -8    4.24    0.29 
   2  -1   8    4.09    0.35 
  -2  -1  -8    4.26    0.26 
  -2  -1  -8    4.42    0.35 
  -2  -1  -8    4.27    0.28 
  -2  -1  -8    4.68    0.26 
  -2   1  -8    4.88    0.21 
   2   1   8    4.76    0.33 
  -2   1  -8    4.39    0.21 
  -2   1  -8    4.24    0.26 
   2   1   8    3.65    0.38 
  -2   1  -8    4.41    0.26 
  -2   1  -8    4.24    0.20 
  -2   1  -8    4.07    0.23 
  -2   1  -8    4.29    0.50 
  -2   1  -8    4.12    0.24 
   2   1   8    4.26    0.25 
   2   1   8    4.51    0.26 
  -2   1  -8    4.35    0.30 
  -2   1  -8    4.19    0.30 
  -2   1  -8    4.21    0.23 
   2   1   8    4.11    0.30 
   2   1   8    3.97    0.36 
  -2   1  -8    4.62    0.27 
  -3  -1  -8   11.16    0.46 
  -3  -1  -8    9.77    0.42 
  -3  -1  -8    9.87    0.42 
   3  -1   8   10.31    0.43 
  -3  -1  -8    9.91    0.44 
   3  -1   8   10.04    0.48 
  -3  -1  -8    9.64    0.46 
  -3  -1  -8   10.09    0.40 
  -3  -1  -8   10.16    0.38 
  -3  -1  -8   10.08    0.44 
  -3  -1  -8    9.64    0.40 
  -3  -1  -8    9.86    0.40 
  -3  -1  -8    9.91    0.45 
  -3  -1  -8    9.61    0.51 
  -3  -1  -8    9.63    0.40 
   3   1   8   10.42    0.47 
  -3   1  -8   10.42    0.39 
  -3   1  -8    8.57    0.40 
  -3   1  -8    9.13    0.49 
  -3   1  -8    8.74    0.42 
  -3   1  -8   10.64    0.44 
   3   1   8   10.72    0.43 
   3   1   8   10.69    0.43 
  -3   1  -8    9.01    0.40 
   3   1   8   10.65    0.50 
  -3   1  -8   10.40    0.39 
   4  -1   8    1.15    0.11 
   4  -1   8    1.18    0.11 
  -4  -1  -8    1.04    0.10 
  -4  -1  -8    0.87    0.08 
  -4  -1  -8    1.00    0.11 
  -4  -1  -8    0.74    0.11 
  -4  -1  -8    0.87    0.06 
  -4  -1  -8    1.09    0.12 
   4   1   8    0.90    0.11 
  -4   1  -8    1.10    0.08 
  -4   1  -8    1.09    0.07 
   4   1   8    1.06    0.11 
  -4   1  -8    0.86    0.09 
  -4   1  -8    0.97    0.10 
  -4   1  -8    0.98    0.08 
   4   1   8    1.19    0.11 
   6  -2  -8   10.59    0.45 
  -6  -2   8    9.95    0.43 
  -6  -2   8    9.89    0.35 
  -6  -2   8   10.90    0.40 
   6  -2  -8    9.85    0.40 
  -6  -2   8    9.64    0.43 
   6  -2  -8   10.56    0.87 
   6  -2  -8   10.27    0.45 
   6  -2  -8   10.03    0.36 
  -6  -2   8    9.81    0.43 
   6  -2  -8   10.60    0.45 
   6  -2  -8   10.14    0.41 
   6  -2  -8    9.31    0.42 
  -6  -2   8    8.82    0.78 
   6   2  -8   10.05    0.45 
  -6   2   8    9.45    0.41 
  -6   2   8    9.15    0.39 
  -6   2   8    9.90    0.45 
   6   2  -8   10.73    0.46 
  -6   2   8   10.59    0.43 
  -6   2   8    8.61    0.44 
  -6   2   8   11.14    0.42 
   6   2  -8   11.28    0.40 
  -6   2   8    9.92    0.40 
   6   2  -8    9.08    0.39 
  -6   2   8   10.14    0.44 
   6   2  -8   10.02    0.43 
  -6   2   8    9.08    0.41 
   6   2  -8    8.83    0.40 
   6   2  -8    9.87    0.41 
   6   2  -8   10.27    0.41 
  -6   2   8   10.86    0.42 
   6   2  -8   11.02    0.43 
   6   2  -8   10.55    0.46 
   6   2  -8    9.18    0.40 
   5  -2  -8   34.07    1.29 
  -5  -2   8   34.63    1.37 
   5  -2  -8   32.77    1.28 
   5  -2  -8   33.72    1.23 
  -5  -2   8   33.44    1.20 
  -5  -2   8   33.75    1.24 
   5  -2  -8   34.19    1.29 
   5  -2  -8   32.67    1.25 
  -5  -2   8   33.82    1.29 
   5  -2  -8   35.35    2.93 
   5  -2  -8   33.43    1.19 
   5  -2  -8   36.26    1.28 
  -5  -2   8   34.01    1.27 
  -5   2   8   35.02    1.34 
  -5   2   8   34.17    1.27 
   5   2  -8   34.79    1.23 
  -5   2   8   34.62    1.26 
  -5   2   8   32.98    1.25 
   5   2  -8   33.36    1.30 
   5   2  -8   32.67    1.25 
   5   2  -8   33.60    1.24 
  -5   2   8   33.31    1.31 
  -5   2   8   34.19    1.24 
   5   2  -8   32.15    1.25 
   5   2  -8   32.29    1.26 
   5   2  -8   34.10    1.27 
   5   2  -8   34.04    1.24 
  -5   2   8   32.70    1.27 
  -5   2   8   33.26    1.24 
   5   2  -8   31.97    1.35 
  -5   2   8   35.12    1.28 
   5   2  -8   35.02    1.30 
   5   2  -8   35.01    1.24 
  -5   2   8   32.02    1.23 
   5   2  -8   34.05    1.24 
   4  -2  -8    7.01    0.41 
   4  -2  -8    7.35    0.29 
  -4  -2   8    7.16    0.35 
  -4  -2   8    7.19    0.33 
   4  -2  -8    6.39    0.35 
   4  -2  -8    7.08    0.40 
  -4  -2   8    7.27    0.38 
  -4  -2   8    6.70    0.41 
   4  -2  -8    7.30    0.41 
   4  -2  -8    7.58    0.39 
   4  -2  -8    6.96    0.33 
  -4  -2   8    6.42    0.46 
   4  -2  -8    7.36    0.41 
  -4  -2   8    6.90    0.39 
  -4  -2   8    7.18    0.33 
   4   2  -8    6.85    0.39 
   4   2  -8    7.25    0.40 
  -4   2   8    6.28    0.33 
   4   2  -8    7.46    0.35 
  -4   2   8    6.26    0.44 
   4   2  -8    6.84    0.35 
   4   2  -8    7.16    0.36 
  -4   2   8    6.22    0.37 
   4   2  -8    6.80    0.32 
   4   2  -8    6.97    0.45 
  -4   2   8    7.16    0.43 
  -4   2   8    7.53    0.39 
  -4   2   8    7.11    0.38 
   4   2  -8    7.04    0.35 
   4   2  -8    6.78    0.29 
   4   2  -8    7.48    0.39 
   4   2  -8    7.45    0.35 
   4   2  -8    5.73    0.44 
   4   2  -8    6.89    0.33 
  -4   2   8    7.48    0.40 
   4   2  -8    7.34    0.35 
  -3  -2   8   34.02    1.30 
  -3  -2   8   30.60    1.35 
   3  -2  -8   33.18    1.23 
  -3  -2   8   31.74    1.21 
   3  -2  -8   30.75    1.28 
  -3  -2   8   31.88    1.21 
   3  -2  -8   32.40    1.37 
   3  -2  -8   30.58    1.27 
  -3  -2   8   32.25    1.36 
   3  -2  -8   32.64    1.28 
   3  -2  -8   33.33    1.27 
   3  -2  -8   32.41    1.28 
   3  -2  -8   30.87    1.20 
   3  -2  -8   32.33    1.16 
   3  -2  -8   32.01    1.25 
  -3   2   8   32.88    1.15 
   3   2  -8   32.86    1.20 
   3   2  -8   32.70    1.22 
   3   2  -8   32.17    1.24 
   3   2  -8   33.50    1.35 
   3   2  -8   32.39    1.16 
   3   2  -8   31.91    1.19 
  -3   2   8   33.55    1.27 
   3   2  -8   32.43    1.28 
  -3   2   8   32.61    1.25 
   3   2  -8   32.81    1.25 
   3   2  -8   33.52    1.27 
   3   2  -8   33.18    1.22 
   3   2  -8   31.49    1.25 
   3   2  -8   33.83    1.21 
   3   2  -8   33.54    1.40 
  -3   2   8   32.47    1.20 
   3   2  -8   31.87    1.21 
  -3   2   8   33.31    1.29 
   3   2  -8   34.46    1.28 
  -3   2   8   31.97    1.26 
   3   2  -8   32.22    1.20 
   2  -2  -8   50.20    1.80 
   2  -2  -8   48.58    1.85 
   2  -2  -8   49.58    1.86 
   2  -2  -8   50.33    1.73 
  -2  -2   8   51.97    1.88 
   2  -2  -8   53.33    2.01 
  -2  -2   8   49.53    1.79 
   2  -2  -8   47.08    2.86 
   2  -2  -8   48.51    1.83 
  -2  -2   8   51.49    1.96 
   2  -2  -8   48.29    1.78 
  -2  -2   8   47.67    1.79 
   2  -2  -8   51.84    1.86 
  -2  -2   8   44.01    1.88 
   2  -2  -8   51.37    1.85 
   2  -2  -8   48.14    1.85 
   2  -2  -8   44.24    1.88 
   2  -2  -8   49.22    1.98 
   2   2  -8   50.63    1.91 
  -2   2   8   48.82    1.86 
  -2   2   8   50.32    1.84 
   2   2  -8   49.58    1.75 
   2   2  -8   51.87    1.84 
  -2   2   8   52.66    2.01 
   2   2  -8   48.39    1.81 
   2   2  -8   50.17    1.84 
   2   2  -8   48.81    1.76 
   2   2  -8   47.96    1.78 
   2   2  -8   53.66    2.00 
   2   2  -8   48.96    1.77 
  -2   2   8   46.68    1.86 
  -2   2   8   50.80    1.86 
   2   2  -8   50.52    1.80 
   2   2  -8   49.46    1.81 
   2   2  -8   48.23    1.82 
  -2   2   8   50.25    1.74 
   2   2  -8   48.14    1.75 
  -2   2   8   49.67    1.79 
   2   2  -8   48.30    1.78 
   2   2  -8   50.17    1.80 
  -2   2   8   48.35    1.92 
   2   2  -8   48.06    1.87 
   2   2  -8   48.39    1.77 
   2   2  -8   47.23    1.82 
   2   2  -8   50.40    1.78 
  -1  -2   8   16.78    0.68 
   1  -2  -8   14.50    0.81 
   1  -2  -8   17.81    0.83 
  -1  -2   8   16.70    0.73 
   1  -2  -8   16.30    0.77 
   1  -2  -8   16.11    0.84 
  -1  -2   8   17.88    0.82 
   1  -2  -8   17.44    0.68 
   1  -2  -8   17.09    0.76 
   1  -2  -8   17.37    0.73 
   1  -2  -8   16.89    1.27 
   1  -2  -8   16.47    0.67 
  -1  -2   8   17.79    0.75 
   1  -2  -8   15.64    0.68 
  -1  -2   8   15.82    0.76 
   1  -2  -8   17.43    0.73 
   1  -2  -8   17.33    0.73 
   1  -2  -8   16.91    0.73 
   1  -2  -8   17.46    0.75 
   1   2  -8   15.29    0.70 
   1   2  -8   17.38    0.64 
   1   2  -8   16.90    0.70 
   1   2  -8   17.35    0.68 
   1   2  -8   17.69    0.67 
   1   2  -8   17.66    0.71 
  -1   2   8   15.90    0.68 
   1   2  -8   16.39    0.63 
   1   2  -8   16.51    0.64 
  -1   2   8   16.54    0.85 
  -1   2   8   16.32    0.79 
  -1   2   8   15.71    0.63 
  -1   2   8   16.57    0.73 
   1   2  -8   16.94    0.66 
   1   2  -8   17.88    0.69 
   1   2  -8   16.98    0.75 
   1   2  -8   16.76    0.84 
   1   2  -8   16.94    0.64 
   1   2  -8   16.68    0.71 
   1   2  -8   16.55    0.69 
   1   2  -8   16.87    0.64 
  -1   2   8   16.54    0.76 
  -1   2   8   17.82    0.75 
   1   2  -8   17.23    0.77 
   0  -2   8    3.63    0.34 
   0  -2  -8    3.77    0.29 
   0  -2  -8    3.76    0.22 
   0  -2  -8    3.75    0.25 
   0  -2   8    3.82    0.24 
   0  -2  -8    3.97    0.27 
   0  -2  -8    4.00    0.33 
   0  -2  -8    4.04    0.30 
   0  -2  -8    4.30    0.31 
   0  -2  -8    3.69    0.27 
   0  -2  -8    4.10    0.38 
   0  -2  -8    4.02    0.37 
   0  -2  -8    3.63    0.24 
   0  -2  -8    5.94    0.58 
   0  -2  -8    4.05    0.30 
   0  -2   8    4.05    0.31 
   0   2   8    4.01    0.25 
   0   2  -8    3.39    0.23 
   0   2  -8    3.89    0.24 
   0   2   8    4.13    0.32 
   0   2  -8    4.19    0.23 
   0   2  -8    3.97    0.30 
   0   2  -8    4.22    0.20 
   0   2  -8    4.07    0.26 
   0   2   8    4.17    0.28 
   0   2   8    4.11    0.33 
   0   2  -8    4.12    0.19 
   0   2  -8    3.82    0.26 
   0   2  -8    4.02    0.22 
   0   2   8    2.54    0.35 
   0   2   8    4.08    0.38 
   0   2   8    4.00    0.30 
   0   2  -8    4.07    0.23 
   0   2   8    4.17    0.30 
   0   2  -8    4.15    0.29 
  -1  -2  -8   12.35    0.57 
  -1  -2  -8   11.81    0.52 
  -1  -2  -8   12.40    0.50 
  -1  -2  -8   11.74    0.59 
  -1  -2  -8   12.32    0.63 
  -1  -2  -8   12.24    0.55 
  -1  -2  -8   11.37    0.55 
  -1  -2  -8   12.22    0.52 
  -1  -2  -8   11.51    0.54 
  -1  -2  -8   11.73    0.53 
  -1  -2  -8   11.85    0.53 
  -1  -2  -8   12.62    0.53 
   1   2   8   11.68    0.60 
  -1   2  -8   11.60    0.58 
  -1   2  -8   11.67    0.46 
  -1   2  -8   12.30    0.56 
  -1   2  -8   12.25    0.52 
  -1   2  -8   11.29    0.58 
   1   2   8   12.77    0.53 
  -1   2  -8   12.40    0.53 
  -1   2  -8   12.11    0.55 
  -1   2  -8   11.82    0.49 
   1   2   8   12.62    0.59 
   1   2   8   12.58    0.57 
   1   2   8   11.80    0.49 
  -1   2  -8   12.24    0.50 
  -1   2  -8   11.88    0.50 
   1   2   8   10.88    0.65 
  -2  -2  -8    3.53    0.30 
  -2  -2  -8    3.31    0.28 
  -2  -2  -8    3.31    0.32 
  -2  -2  -8    3.64    0.23 
  -2  -2  -8    3.50    0.24 
  -2  -2  -8    3.92    0.28 
  -2  -2  -8    3.94    0.30 
  -2  -2  -8    3.81    0.24 
  -2  -2  -8    3.57    0.25 
  -2  -2  -8    3.30    0.24 
  -2  -2  -8    3.61    0.18 
  -2  -2  -8    3.78    0.25 
  -2   2  -8    3.62    0.22 
  -2   2  -8    3.90    0.20 
  -2   2  -8    3.70    0.21 
   2   2   8    3.45    0.21 
   2   2   8    3.83    0.28 
   2   2   8    3.27    0.30 
  -2   2  -8    3.68    0.17 
  -2   2  -8    3.46    0.24 
   2   2   8    4.05    0.25 
   2   2   8    3.35    0.27 
  -2   2  -8    3.73    0.22 
  -2   2  -8    3.96    0.21 
   2   2   8    4.48    0.31 
  -3  -2  -8    7.48    0.35 
  -3  -2  -8    8.24    0.45 
  -3  -2  -8    8.17    0.35 
  -3  -2  -8    7.83    0.38 
  -3  -2  -8    8.21    0.34 
  -3  -2  -8    7.38    0.36 
  -3  -2  -8    8.57    0.37 
  -3  -2  -8    8.08    0.40 
  -3  -2  -8    8.31    0.38 
  -3  -2  -8    7.95    0.34 
   3   2   8    7.77    0.39 
  -3   2  -8    7.82    0.32 
  -3   2  -8    7.85    0.32 
  -3   2  -8    7.95    0.30 
   3   2   8    8.16    0.43 
   3   2   8    7.86    0.36 
  -3   2  -8    8.11    0.34 
  -3   2  -8    7.79    0.34 
   4   2   8    7.36    0.39 
  -5  -3   8    2.32    0.15 
   5  -3  -8    2.56    0.17 
   5  -3  -8    2.57    0.21 
   5  -3  -8    2.19    0.21 
   5  -3  -8    2.58    0.20 
  -5  -3   8    2.27    0.21 
   5  -3  -8    2.52    0.18 
   5  -3  -8    2.35    0.21 
  -5  -3   8    2.55    0.19 
   5  -3  -8    2.36    0.13 
  -5  -3   8    2.59    0.17 
   5   3  -8    2.30    0.23 
  -5   3   8    2.50    0.17 
  -5   3   8    2.73    0.20 
   5   3  -8    2.41    0.14 
   5   3  -8    2.28    0.19 
   5   3  -8    2.16    0.16 
   5   3  -8    2.28    0.15 
  -5   3   8    2.44    0.17 
   5   3  -8    2.57    0.19 
   5   3  -8    2.43    0.15 
  -5   3   8    1.91    0.23 
  -5   3   8    2.44    0.18 
   5   3  -8    2.48    0.16 
  -5   3   8    2.17    0.18 
  -5   3   8    2.25    0.17 
  -5   3   8    2.42    0.21 
  -5   3   8    2.43    0.17 
  -5   3   8    2.42    0.21 
   5   3  -8    2.50    0.16 
  -5   3   8    2.28    0.17 
   5   3  -8    2.41    0.15 
   4  -3  -8    0.74    0.19 
   4  -3  -8    0.97    0.10 
  -4  -3   8    0.95    0.15 
  -4  -3   8    1.14    0.13 
   4  -3  -8    1.17    0.16 
   4  -3  -8    1.14    0.19 
  -4  -3   8    1.09    0.16 
  -4  -3   8    0.92    0.13 
  -4  -3   8    0.94    0.16 
   4  -3  -8    0.87    0.20 
   4  -3  -8    0.96    0.15 
   4  -3  -8    0.81    0.19 
   4   3  -8    0.91    0.12 
   4   3  -8    0.84    0.12 
   4   3  -8    1.10    0.15 
  -4   3   8    0.93    0.22 
   4   3  -8    0.99    0.09 
  -4   3   8    1.12    0.25 
  -4   3   8    0.94    0.15 
  -4   3   8    0.82    0.17 
   4   3  -8    1.22    0.12 
  -4   3   8    1.03    0.16 
   4   3  -8    1.01    0.20 
  -4   3   8    1.10    0.15 
   4   3  -8    1.01    0.11 
   4   3  -8    0.89    0.14 
  -4   3   8    1.13    0.20 
  -4   3   8    1.12    0.14 
  -4   3   8    1.02    0.13 
  -4   3   8    0.81    0.16 
   4   3  -8    0.99    0.16 
   4   3  -8    0.92    0.12 
   4   3  -8    0.84    0.15 
   4   3  -8    1.27    0.15 
   4   3  -8    0.89    0.12 
   3  -3  -8    6.43    0.35 
   3  -3  -8    6.66    0.40 
   3  -3  -8    7.20    0.38 
   3  -3  -8    6.99    0.29 
  -3  -3   8    7.14    0.33 
   3  -3  -8    6.96    0.40 
   3  -3  -8    6.70    0.40 
  -3  -3   8    6.56    0.38 
   3  -3  -8    5.73    0.38 
   3  -3  -8    6.86    0.33 
  -3  -3   8    6.89    0.33 
  -3   3   8    6.24    0.43 
   3   3  -8    6.60    0.31 
   3   3  -8    6.21    0.33 
   3   3  -8    6.24    0.32 
  -3   3   8    7.12    0.34 
  -3   3   8    6.70    0.36 
   3   3  -8    6.26    0.46 
  -3   3   8    6.78    0.41 
   3   3  -8    6.60    0.29 
  -3   3   8    6.56    0.37 
   3   3  -8    6.71    0.29 
  -3   3   8    6.94    0.36 
   3   3  -8    6.19    0.35 
  -3   3   8    6.74    0.38 
   3   3  -8    6.75    0.28 
  -3   3   8    7.38    0.39 
  -3   3   8    7.71    0.40 
   3   3  -8    6.83    0.33 
   3   3  -8    6.64    0.29 
   3   3  -8    6.65    0.35 
   3   3  -8    6.24    0.38 
  -3   3   8    6.70    0.41 
   3   3  -8    6.65    0.29 
   3   3  -8    6.72    0.33 
  -3   3   8    6.89    0.38 
   3   3  -8    6.57    0.41 
   3   3  -8    6.59    0.31 
   3   3  -8    6.45    0.34 
   3   3  -8    6.14    0.33 
   2  -3  -8    1.03    0.23 
  -2  -3   8    1.48    0.25 
   2  -3  -8    1.42    0.18 
   2  -3  -8    1.36    0.11 
   2  -3  -8    1.37    0.20 
   2  -3  -8    1.44    0.16 
   2  -3  -8    1.12    0.27 
   2  -3  -8    1.47    0.22 
   2  -3  -8    1.45    0.24 
  -2  -3   8    1.25    0.16 
  -2  -3   8    1.29    0.19 
   2  -3  -8    1.17    0.25 
   2   3  -8    1.48    0.14 
   2   3  -8    1.45    0.12 
  -2   3   8    1.52    0.24 
   2   3  -8    1.57    0.14 
  -2   3   8    1.14    0.27 
  -2   3   8    1.09    0.21 
   2   3  -8    1.28    0.17 
   2   3  -8    1.34    0.15 
   2   3  -8    1.27    0.14 
   2   3  -8    1.37    0.20 
   2   3  -8    1.18    0.25 
  -2   3   8    1.46    0.21 
  -2   3   8    1.33    0.33 
   2   3  -8    1.37    0.16 
   2   3  -8    1.33    0.12 
   2   3  -8    1.29    0.11 
   2   3  -8    1.06    0.18 
  -2   3   8    1.39    0.20 
   2   3  -8    1.35    0.17 
  -2   3   8    1.24    0.25 
  -2   3   8    1.62    0.22 
   1  -3  -8    2.72    0.27 
  -1  -3   8    2.93    0.20 
   1  -3  -8    2.74    0.19 
   1  -3  -8    2.46    0.30 
   1  -3  -8    3.01    0.28 
   1  -3  -8    3.00    0.28 
   1  -3  -8    2.85    0.27 
   1  -3  -8    2.87    0.24 
   1  -3  -8    3.18    0.72 
   1  -3  -8    3.01    0.23 
   1  -3  -8    2.95    0.14 
  -1   3   8    2.77    0.26 
   1   3  -8    2.77    0.23 
   1   3  -8    2.98    0.24 
   1   3  -8    2.57    0.18 
  -1   3   8    2.82    0.27 
   1   3  -8    2.79    0.16 
   1   3  -8    2.71    0.18 
  -1   3   8    3.18    0.65 
  -1   3   8    2.40    0.23 
   1   3  -8    2.91    0.37 
   1   3  -8    3.00    0.33 
  -1   3   8    2.82    0.20 
  -1   3   8    2.78    0.14 
   1   3  -8    2.66    0.19 
  -1   3   8    2.88    0.27 
   1   3  -8    2.63    0.21 
   1   3  -8    3.19    0.22 
   1   3  -8    2.76    0.19 
   0  -3  -8   17.41    0.74 
   0  -3  -8   16.95    0.66 
   0  -3  -8   16.74    0.72 
   0  -3  -8   16.13    0.70 
   0  -3  -8   16.07    0.70 
   0  -3  -8   16.62    1.02 
   0  -3  -8   16.66    0.72 
   0  -3  -8   15.78    0.80 
   0  -3  -8   17.00    0.83 
   0   3  -8   17.55    0.68 
   0   3   8   16.53    0.73 
   0   3  -8   18.54    0.65 
   0   3  -8   16.90    0.62 
   0   3   8   15.39    0.73 
   0   3  -8   15.40    0.70 
   0   3  -8   16.81    0.65 
   0   3  -8   16.97    0.67 
   0   3   8   16.67    0.71 
   0   3   8   16.22    0.74 
   0   3   8   16.16    0.67 
   0   3  -8   17.91    0.65 
   0   3   8   16.83    0.61 
  -1  -3  -8   12.36    0.53 
  -1  -3  -8   12.13    0.53 
  -1  -3  -8   11.78    0.52 
  -1  -3  -8   11.76    0.58 
  -1  -3  -8   12.19    0.55 
  -1  -3  -8   11.84    0.62 
  -1  -3  -8   10.86    0.50 
  -1  -3  -8   10.97    0.49 
  -1  -3  -8   12.57    0.56 
  -1  -3  -8   10.28    0.61 
  -1  -3  -8   11.64    0.45 
  -1  -3  -8   11.16    0.53 
  -1   3  -8   12.03    0.49 
  -1   3  -8   11.92    0.48 
  -1   3  -8   11.54    0.47 
  -1   3  -8   11.85    0.52 
   1   3   8   11.06    0.54 
   1   3   8   12.40    0.56 
  -1   3  -8   12.09    0.46 
  -1   3  -8   12.35    0.49 
   1   3   8   11.96    0.45 
   1   3   8   12.57    0.59 
   1   3   8   11.82    0.50 
  -1   3  -8   12.02    0.44 
  -2  -3  -8    0.18    0.10 
  -2  -3  -8    0.17    0.09 
  -2  -3  -8    0.29    0.10 
  -2  -3  -8    0.29    0.10 
  -2  -3  -8    0.34    0.11 
  -2  -3  -8    0.26    0.10 
  -2  -3  -8    0.37    0.13 
  -2  -3  -8    0.19    0.10 
  -2  -3  -8    0.37    0.10 
   2   3   8    0.40    0.12 
   2   3   8    0.26    0.12 
   2   3   8    0.22    0.09 
   2   3   8    0.18    0.10 
   2   3   8    0.20    0.05 
  -2   3  -8    0.24    0.06 
  -2   3  -8    0.37    0.07 
  -2   3  -8    0.32    0.08 
  -2   3  -8    0.30    0.07 
  -3  -3  -8   12.48    0.52 
  -3  -3  -8   11.53    0.48 
  -3  -3  -8   12.71    0.48 
  -3  -3  -8   12.42    0.51 
  -3  -3  -8   12.84    0.50 
  -3  -3  -8   12.40    0.49 
  -3  -3  -8   10.74    0.71 
  -3  -3  -8   11.34    0.48 
  -3  -3  -8   11.30    0.50 
  -3  -3  -8   12.42    0.52 
  -3  -3  -8   12.15    0.48 
   3   3   8   12.71    0.48 
   3   3   8   11.57    0.51 
   3   3   8   13.00    0.53 
   3   3   8   12.56    0.44 
   3   3   8   10.59    1.01 
   3   3   8   12.38    0.53 
  -3   3  -8   12.93    0.43 
  -3   3  -8   12.61    0.43 
   4  -4  -8    9.96    0.41 
   4  -4  -8    9.53    0.37 
   4  -4  -8    9.65    0.46 
  -4  -4   8   10.18    0.41 
   4  -4  -8    9.86    0.46 
   4  -4  -8    9.21    0.49 
  -4  -4   8    9.81    0.40 
   4  -4  -8   10.74    0.45 
   4   4  -8    9.38    0.40 
   4   4  -8   10.20    0.46 
  -4   4   8    9.48    0.40 
  -4   4   8    9.97    0.40 
  -4   4   8    9.63    0.50 
  -4   4   8    9.47    0.41 
  -4   4   8    9.48    0.43 
  -4   4   8   10.17    0.41 
  -4   4   8   10.38    0.42 
  -4   4   8   10.17    0.44 
   4   4  -8    8.04    0.41 
   4   4  -8    9.99    0.38 
  -4   4   8    9.97    0.42 
   4   4  -8   10.04    0.37 
  -4   4   8    9.65    0.43 
   4   4  -8    9.92    0.41 
   4   4  -8   10.10    0.41 
  -4   4   8    9.74    0.45 
   3  -4  -8    2.94    0.25 
  -3  -4   8    2.86    0.18 
   3  -4  -8    3.03    0.22 
  -3  -4   8    2.78    0.18 
   3  -4  -8    3.06    0.15 
   3  -4  -8    2.94    0.25 
   3  -4  -8    2.92    0.25 
  -3  -4   8    2.74    0.23 
   3  -4  -8    2.80    0.19 
  -3   4   8    2.65    0.20 
   3   4  -8    3.10    0.18 
   3   4  -8    3.03    0.18 
   3   4  -8    2.83    0.22 
  -3   4   8    3.07    0.19 
  -3   4   8    3.03    0.25 
   3   4  -8    2.93    0.18 
  -3   4   8    2.68    0.22 
  -3   4   8    2.90    0.23 
  -3   4   8    2.81    0.19 
  -3   4   8    2.96    0.15 
  -3   4   8    2.69    0.21 
   3   4  -8    3.36    0.16 
   3   4  -8    2.90    0.15 
  -3   4   8    2.86    0.25 
   3   4  -8    2.92    0.20 
  -3   4   8    2.86    0.21 
  -3   4   8    2.97    0.21 
  -3   4   8    3.01    0.21 
   3   4  -8    3.17    0.19 
  -2  -4   8    4.22    0.39 
   2  -4  -8    4.14    0.27 
   2  -4  -8    4.55    0.25 
   2  -4  -8    4.64    0.31 
   2  -4  -8    5.09    0.33 
   2  -4  -8    4.65    0.32 
  -2  -4   8    4.66    0.24 
   2  -4  -8    4.71    0.21 
   2  -4  -8    4.42    0.28 
  -2   4   8    4.35    0.26 
   2   4  -8    4.99    0.26 
  -2   4   8    5.30    0.36 
   2   4  -8    4.67    0.24 
  -2   4   8    4.81    0.30 
   2   4  -8    5.16    0.26 
  -2   4   8    4.62    0.29 
  -2   4   8    4.54    0.27 
  -2   4   8    4.72    0.25 
  -2   4   8    5.00    0.29 
  -2   4   8    4.32    0.25 
  -2   4   8    4.73    0.28 
   2   4  -8    4.65    0.23 
   2   4  -8    4.63    0.23 
   2   4  -8    4.98    0.21 
   2   4  -8    4.42    0.21 
  -2   4   8    4.10    0.25 
  -2   4   8    4.32    0.32 
   1  -4  -8   12.08    0.56 
   1  -4  -8   11.79    0.51 
   1  -4  -8   11.96    0.49 
   1  -4  -8   11.77    0.55 
   1  -4  -8   11.55    0.44 
   1  -4  -8   10.89    1.23 
   1  -4  -8   11.65    0.53 
   1  -4  -8   11.99    0.56 
  -1   4   8   11.79    0.51 
  -1   4   8   11.23    0.54 
   1   4  -8   12.18    0.49 
  -1   4   8   11.89    0.52 
   1   4  -8   12.28    0.44 
   1   4  -8   12.68    0.48 
  -1   4   8   11.40    0.49 
   1   4  -8   11.85    0.47 
  -1   4   8   10.92    0.50 
  -1   4   8   11.73    0.52 
   1   4  -8   11.85    0.47 
  -1   4   8   12.43    0.56 
   1   4  -8   11.65    0.49 
  -1   4   8   12.04    0.55 
  -1   4   8   12.76    0.62 
  -1   4   8   12.23    0.58 
   0  -4  -8    2.66    0.20 
   0  -4  -8    2.84    0.24 
   0  -4  -8    2.82    0.24 
   0  -4  -8    2.69    0.18 
   0  -4  -8    2.62    0.48 
   0  -4  -8    2.67    0.22 
   0  -4  -8    2.60    0.24 
   0   4  -8    2.69    0.16 
   0   4  -8    2.75    0.16 
   0   4  -8    2.67    0.15 
   0   4   8    2.54    0.24 
   0   4   8    2.80    0.29 
   0   4  -8    2.64    0.12 
   0   4  -8    2.63    0.15 
   0   4  -8    2.61    0.16 
   0   4   8    2.60    0.24 
   0   4   8    2.62    0.22 
  -1  -4  -8    9.00    0.36 
  -1  -4  -8    9.19    0.43 
  -1  -4  -8    8.65    0.49 
  -1  -4  -8    8.95    0.42 
   1   4   8    9.38    0.45 
   1   4   8    7.84    0.42 
  -1   4  -8    8.68    0.33 
   1   4   8    8.38    0.40 
   1   4   8    8.94    0.50 
  -1   4  -8    8.63    0.35 
   1   4   8    8.92    0.42 
  -2  -4  -8   14.61    0.60 
  -2  -4  -8   13.34    0.54 
  -2  -4  -8   13.99    0.57 
  -2  -4  -8   13.76    0.53 
  -2  -4  -8   13.72    0.54 
  -2  -4  -8   14.02    0.56 
  -2  -4  -8   14.56    0.62 
  -2  -4  -8   14.03    0.55 
  -2  -4  -8   13.07    0.56 
   2   4   8   14.07    0.56 
   2   4   8   11.85    0.57 
   2   4   8   13.14    0.56 
  -3  -5   8    5.35    0.24 
   3  -5  -8    5.27    0.29 
   3  -5  -8    5.52    0.21 
   3  -5  -8    5.06    0.24 
   3  -5  -8    5.69    0.33 
   3  -5  -8    5.65    0.28 
  -3  -5   8    5.48    0.24 
  -3   5   8    4.69    0.23 
  -3   5   8    5.12    0.25 
  -3   5   8    5.33    0.23 
  -3   5   8    5.30    0.26 
  -3   5   8    4.95    0.25 
  -3   5   8    5.47    0.32 
   3   5  -8    5.75    0.26 
   3   5  -8    5.61    0.22 
   3   5  -8    5.31    0.21 
  -3   5   8    5.48    0.23 
  -3   5   8    5.41    0.25 
   3   5  -8    5.47    0.24 
   3   5  -8    5.84    0.23 
  -3   5   8    5.44    0.23 
  -3   5   8    5.37    0.28 
   3   5  -8    5.20    0.24 
   2  -5  -8   20.78    0.72 
   2  -5  -8   19.79    0.77 
   2  -5  -8   19.97    0.80 
   2  -5  -8   19.87    0.78 
   2  -5  -8   19.86    0.79 
   2  -5  -8   19.28    0.80 
  -2  -5   8   20.32    0.75 
   2  -5  -8   20.39    0.76 
  -2   5   8   20.86    0.77 
  -2   5   8   19.36    0.74 
   2   5  -8   20.35    0.71 
   2   5  -8   20.52    0.75 
   2   5  -8   20.12    0.72 
  -2   5   8   20.67    0.77 
  -2   5   8   19.17    0.80 
   2   5  -8   20.22    0.73 
   2   5  -8   20.99    0.75 
  -2   5   8   19.03    0.85 
   2   5  -8   19.69    0.74 
  -2   5   8   19.28    0.75 
  -2   5   8   18.76    0.78 
  -2   5   8   23.26    0.81 
  -2   5   8   21.49    0.79 
  -2   5   8   20.66    0.77 
  -2   5   8   21.62    0.79 
  -2   5   8   19.71    0.76 
   1  -5  -8    6.92    0.80 
   1  -5  -8    7.07    0.27 
   1  -5  -8    7.35    0.33 
   1  -5  -8    7.92    0.37 
   1  -5  -8    7.63    0.35 
   1  -5  -8    7.10    0.32 
   1  -5  -8    7.43    0.36 
  -1   5   8    7.09    0.33 
  -1   5   8    7.24    0.34 
  -1   5   8    7.04    0.32 
  -1   5   8    7.65    0.38 
  -1   5   8    7.98    0.37 
  -1   5   8    7.40    0.34 
   1   5  -8    7.18    0.29 
   1   5  -8    7.43    0.28 
  -1   5   8    7.43    0.38 
  -1   5   8    7.42    0.35 
   1   5  -8    7.23    0.30 
  -1   5   8    6.89    0.33 
  -1   5   8    7.73    0.34 
  -1   5   8    7.64    0.32 
   0  -5  -8   14.98    0.60 
   0  -5  -8   14.57    0.55 
   0  -5  -8   15.12    0.60 
   0  -5  -8   14.37    0.65 
   0  -5  -8   15.05    0.56 
   0  -5  -8   14.79    0.59 
   0   5   8   13.86    0.58 
   0   5   8   13.80    0.58 
   0   5   8   14.18    0.62 
   0   5   8   14.05    0.59 
   0   5  -8   15.16    0.53 
   0   5   8   14.87    0.62 
   0   5   8   14.22    0.58 
   0   5   8   15.53    0.56 
   0   5   8   15.00    0.58 
   0   5   8   14.60    0.53 
  -1  -5  -8    1.96    0.16 
   1   5   8    1.77    0.10 
   1   5   8    2.26    0.20 
   1   5   8    1.82    0.19 
   1   5   8    1.86    0.16 
   1   5   8    1.62    0.18 
  -5   0   9   56.86    1.95 
   5   0  -9   51.33    1.92 
   5   0  -9   54.80    1.91 
  -5   0   9   55.36    1.94 
   5   0  -9   56.08    2.00 
   5   0  -9   48.88    1.92 
   5   0  -9   56.66    1.91 
   5   0  -9   52.75    1.97 
  -5   0   9   56.00    1.96 
   5   0  -9   56.87    1.94 
  -5   0   9   52.30    1.93 
   5   0  -9   53.56    1.94 
   5   0  -9   53.87    1.91 
   5   0  -9   52.58    1.94 
  -5   0   9   51.96    1.89 
  -4   0   9    3.23    0.24 
   4   0  -9    3.25    0.20 
   4   0  -9    3.65    0.20 
   4   0  -9    3.56    0.27 
   4   0  -9    3.37    0.23 
  -4   0   9    3.40    0.25 
  -4   0   9    3.30    0.16 
   4   0  -9    3.08    0.26 
   4   0  -9    3.24    0.20 
   4   0  -9    3.18    0.22 
  -4   0   9    3.57    0.21 
   4   0  -9    3.47    0.22 
   4   0  -9    3.56    0.24 
   4   0  -9    3.51    0.23 
  -4   0   9    3.46    0.27 
   4   0  -9    3.10    0.21 
   3   0  -9    3.13    0.23 
   3   0  -9    3.43    0.20 
   3   0  -9    3.47    0.30 
  -3   0   9    3.03    0.24 
   3   0  -9    3.07    0.23 
   3   0  -9    3.21    0.28 
   3   0  -9    2.94    0.22 
   3   0  -9    3.40    0.25 
   3   0  -9    3.54    0.20 
   3   0  -9    3.25    0.22 
   3   0  -9    2.60    0.24 
  -3   0   9    3.29    0.27 
  -3   0   9    3.25    0.21 
   3   0  -9    3.39    0.22 
  -3   0   9    3.22    0.17 
   3   0  -9    2.60    0.31 
  -3   0   9    3.11    0.29 
  -3   0   9    3.38    0.26 
   2   0  -9    0.03    0.09 
  -2   0   9   -0.01    0.11 
  -2   0   9    0.06    0.09 
   2   0  -9   -0.08    0.08 
   2   0  -9    0.03    0.07 
   2   0  -9   -0.02    0.10 
  -2   0   9    0.12    0.12 
   2   0  -9    0.04    0.05 
   2   0  -9   -0.02    0.07 
   2   0  -9    0.07    0.07 
   2   0  -9   -0.04    0.11 
   2   0  -9    0.05    0.10 
   2   0  -9    0.23    0.12 
   2   0  -9    0.09    0.14 
   2   0  -9   -0.02    0.08 
   2   0  -9    0.09    0.11 
  -2   0   9    0.11    0.08 
  -2   0   9    0.06    0.10 
   2   0  -9    0.08    0.06 
  -2   0   9    0.01    0.06 
   2   0  -9    0.08    0.10 
  -2   0   9    0.11    0.19 
   1   0  -9    1.12    0.15 
   1   0  -9    1.36    0.16 
   1   0  -9    1.24    0.14 
  -1   0   9    1.13    0.19 
   1   0  -9    1.33    0.19 
   1   0  -9    1.50    0.25 
  -1   0   9    1.13    0.26 
  -1   0   9    1.50    0.15 
   1   0  -9    1.40    0.16 
  -1   0   9    1.31    0.17 
  -1   0   9    1.38    0.15 
   1   0  -9    1.46    0.23 
  -1   0   9    1.34    0.21 
   1   0  -9    1.32    0.16 
   1   0  -9    1.18    0.11 
   1   0  -9    1.37    0.20 
   1   0  -9    1.52    0.17 
   1   0  -9    1.25    0.18 
   1   0  -9    1.10    0.20 
   1   0  -9    1.47    0.19 
  -1   0   9    1.28    0.20 
   0   0  -9   14.19    0.56 
   0   0   9   14.32    0.61 
   0   0   9   13.71    0.56 
   0   0  -9   13.82    0.59 
   0   0  -9   14.03    0.56 
   0   0  -9   13.81    0.59 
   0   0  -9   12.40    0.60 
   0   0  -9   13.90    0.56 
   0   0  -9   12.93    0.60 
   0   0  -9   13.61    0.60 
   0   0   9   16.66    0.86 
   0   0  -9   14.09    0.52 
   0   0  -9   13.02    0.55 
   0   0   9   14.79    0.65 
   0   0  -9   14.31    0.55 
   0   0  -9   13.13    0.57 
   0   0   9   14.28    0.57 
   0   0  -9   12.73    0.72 
   0   0  -9   14.44    0.68 
   0   0  -9   13.48    0.55 
  -1   0  -9   10.17    0.45 
  -1   0  -9   10.65    0.44 
  -1   0  -9    9.69    0.40 
   1   0   9   10.68    0.44 
  -1   0  -9    9.82    0.46 
  -1   0  -9   11.14    0.53 
   1   0   9    9.75    0.49 
  -1   0  -9   10.09    0.45 
  -1   0  -9    9.74    0.42 
  -1   0  -9   10.46    0.46 
  -1   0  -9    9.78    0.40 
  -1   0  -9   10.03    0.42 
  -1   0  -9    9.87    0.41 
   1   0   9   10.45    0.44 
  -1   0  -9   10.34    0.41 
  -1   0  -9   10.70    0.39 
  -1   0  -9    9.47    0.43 
  -1   0  -9   10.20    0.45 
  -2   0  -9    0.14    0.05 
   2   0   9    0.18    0.07 
  -2   0  -9    0.11    0.08 
  -2   0  -9    0.15    0.08 
  -2   0  -9    0.28    0.08 
  -2   0  -9    0.20    0.06 
  -2   0  -9    0.13    0.05 
  -2   0  -9    0.22    0.05 
   2   0   9    0.13    0.07 
  -2   0  -9    0.11    0.07 
  -2   0  -9    0.10    0.06 
   2   0   9    0.15    0.17 
  -2   0  -9    0.23    0.10 
  -3   0  -9    0.07    0.03 
  -3   0  -9   -0.01    0.03 
   3   0   9    0.05    0.05 
   3   0   9   -0.05    0.05 
  -3   0  -9    0.08    0.04 
  -3   0  -9    0.03    0.05 
   5  -1  -9   28.14    1.04 
  -5  -1   9   27.33    1.63 
  -5  -1   9   28.51    0.98 
  -5  -1   9   30.95    1.07 
   5  -1  -9   30.37    1.05 
   5  -1  -9   28.06    1.03 
  -5  -1   9   29.30    1.02 
  -5  -1   9   28.39    1.05 
  -5  -1   9   29.36    1.07 
   5  -1  -9   23.92    1.09 
   5  -1  -9   30.69    1.07 
   5   1  -9   26.67    1.01 
   5   1  -9   27.42    1.05 
   5   1  -9   26.58    1.07 
   5   1  -9   29.30    1.05 
   5   1  -9   29.78    1.04 
  -5   1   9   26.03    1.04 
  -5   1   9   31.65    1.08 
  -5   1   9   28.13    1.04 
   5   1  -9   25.85    1.03 
   5   1  -9   27.60    1.02 
   5   1  -9   30.23    1.03 
   5   1  -9   25.02    1.06 
  -5   1   9   26.14    1.10 
   4  -1  -9    1.73    0.16 
   4  -1  -9    1.80    0.13 
   4  -1  -9    1.49    0.16 
   4  -1  -9    1.72    0.14 
   4  -1  -9    1.45    0.18 
  -4  -1   9    1.50    0.19 
   4  -1  -9    1.92    0.19 
   4  -1  -9    1.67    0.21 
   4  -1  -9    1.57    0.17 
  -4  -1   9    1.74    0.15 
  -4  -1   9    1.71    0.18 
  -4  -1   9    1.86    0.12 
   4  -1  -9    1.78    0.24 
  -4   1   9    1.65    0.14 
   4   1  -9    1.68    0.15 
   4   1  -9    1.94    0.14 
   4   1  -9    1.73    0.15 
  -4   1   9    1.43    0.18 
  -4   1   9    2.07    0.18 
   4   1  -9    1.61    0.15 
   4   1  -9    1.62    0.16 
   4   1  -9    1.75    0.16 
   4   1  -9    1.65    0.20 
  -4   1   9    1.62    0.19 
   4   1  -9    2.03    0.18 
   4   1  -9    1.74    0.22 
   4   1  -9    1.73    0.15 
  -4   1   9    1.46    0.16 
  -4   1   9    1.64    0.36 
   4   1  -9    1.79    0.18 
   4   1  -9    1.84    0.20 
  -3  -1   9    5.03    0.28 
   3  -1  -9    5.08    0.30 
  -3  -1   9    5.03    0.26 
   3  -1  -9    4.62    0.29 
   3  -1  -9    4.89    0.29 
   3  -1  -9    5.46    0.38 
  -3  -1   9    4.80    0.25 
   3  -1  -9    5.36    0.35 
   3  -1  -9    5.26    0.27 
  -3  -1   9    5.14    0.30 
   3  -1  -9    4.83    0.25 
   3  -1  -9    5.41    0.28 
  -3  -1   9    4.94    0.32 
   3  -1  -9    5.29    0.31 
   3  -1  -9    4.97    0.27 
   3  -1  -9    5.30    0.31 
   3  -1  -9    5.07    0.31 
   3  -1  -9    5.22    0.29 
  -3  -1   9    5.20    0.33 
  -3   1   9    5.10    0.32 
  -3   1   9    5.10    0.31 
   3   1  -9    5.08    0.27 
   3   1  -9    5.94    0.29 
   3   1  -9    5.50    0.28 
  -3   1   9    5.08    0.33 
   3   1  -9    5.60    0.34 
   3   1  -9    5.13    0.36 
   3   1  -9    5.39    0.28 
   3   1  -9    5.62    0.27 
  -3   1   9    5.11    0.27 
   3   1  -9    5.45    0.30 
   3   1  -9    5.05    0.30 
   3   1  -9    4.96    0.40 
  -3   1   9    5.46    0.22 
   3   1  -9    5.61    0.32 
   3   1  -9    5.19    0.22 
   3   1  -9    4.98    0.27 
   3   1  -9    5.24    0.25 
   2  -1  -9    5.04    0.29 
   2  -1  -9    5.26    0.29 
   2  -1  -9    5.65    0.33 
   2  -1  -9    5.31    0.41 
  -2  -1   9    5.22    0.28 
   2  -1  -9    5.14    0.37 
  -2  -1   9    3.49    0.49 
   2  -1  -9    5.62    0.32 
   2  -1  -9    5.34    0.36 
  -2  -1   9    5.23    0.32 
  -2  -1   9    5.33    0.27 
   2  -1  -9    5.35    0.32 
   2  -1  -9    4.63    0.28 
   2  -1  -9    5.42    0.30 
  -2  -1   9    5.26    0.29 
   2  -1  -9    5.13    0.27 
   2  -1  -9    5.38    0.29 
  -2  -1   9    5.59    0.34 
  -2   1   9    5.29    0.32 
   2   1  -9    5.23    0.36 
   2   1  -9    5.42    0.26 
  -2   1   9    5.41    0.35 
   2   1  -9    5.59    0.28 
  -2   1   9    5.39    0.34 
   2   1  -9    4.91    0.31 
   2   1  -9    5.40    0.31 
   2   1  -9    5.34    0.27 
  -2   1   9    5.17    0.24 
   2   1  -9    5.13    0.40 
  -2   1   9    5.25    0.29 
   2   1  -9    5.00    0.30 
   2   1  -9    5.36    0.28 
   2   1  -9    5.22    0.32 
   2   1  -9    5.80    0.31 
   2   1  -9    5.44    0.27 
   2   1  -9    5.48    0.29 
   2   1  -9    5.17    0.31 
   2   1  -9    5.21    0.23 
   1  -1  -9    0.09    0.07 
   1  -1  -9    0.12    0.14 
   1  -1  -9    0.06    0.10 
   1  -1  -9   -0.02    0.12 
   1  -1  -9    0.09    0.09 
   1  -1  -9    0.11    0.11 
  -1  -1   9    0.01    0.08 
   1  -1  -9    0.17    0.09 
   1  -1  -9    0.12    0.10 
   1  -1  -9    0.12    0.11 
   1  -1  -9    0.21    0.08 
  -1  -1   9    0.21    0.12 
   1  -1  -9    0.09    0.09 
  -1  -1   9    0.05    0.08 
  -1  -1   9    0.22    0.24 
   1  -1  -9    0.06    0.10 
   1  -1  -9    0.09    0.12 
  -1   1   9    0.04    0.21 
  -1   1   9   -0.01    0.10 
   1   1  -9    0.10    0.14 
   1   1  -9    0.04    0.07 
   1   1  -9    0.07    0.06 
  -1   1   9    0.10    0.09 
   1   1  -9    0.00    0.10 
   1   1  -9    0.07    0.08 
   1   1  -9    0.06    0.06 
   1   1  -9    0.08    0.05 
   1   1  -9    0.13    0.09 
   1   1  -9    0.10    0.07 
  -1   1   9    0.05    0.10 
   1   1  -9    0.07    0.09 
   1   1  -9    0.00    0.07 
  -1   1   9    0.13    0.13 
   1   1  -9    0.13    0.06 
   1   1  -9    0.11    0.07 
   1   1  -9    0.08    0.09 
  -1   1   9    0.11    0.07 
   1   1  -9    0.16    0.07 
   1   1  -9   -0.02    0.09 
   1   1  -9   -0.04    0.11 
   0  -1   9   48.79    1.78 
   0  -1  -9   45.74    1.72 
   0  -1  -9   46.95    1.74 
   0  -1  -9   45.50    1.65 
   0  -1  -9   48.03    1.72 
   0  -1  -9   46.51    1.71 
   0  -1  -9   47.29    1.70 
   0  -1  -9   48.11    1.69 
   0  -1   9   48.69    1.71 
   0  -1  -9   47.70    1.70 
   0  -1  -9   47.62    1.74 
   0  -1  -9   47.80    1.77 
   0  -1  -9   47.67    1.72 
   0  -1  -9   47.40    1.76 
   0  -1  -9   48.07    1.83 
   0  -1   9   46.11    1.71 
   0  -1  -9   45.67    1.85 
   0   1  -9   48.01    1.70 
   0   1  -9   49.32    1.80 
   0   1  -9   47.74    1.67 
   0   1  -9   47.47    1.68 
   0   1  -9   46.84    1.67 
   0   1   9   48.18    1.69 
   0   1   9   45.80    1.70 
   0   1   9   49.73    1.71 
   0   1   9   49.29    1.76 
   0   1  -9   43.64    1.68 
   0   1  -9   44.62    1.73 
   0   1  -9   46.62    1.66 
   0   1  -9   46.61    1.71 
   0   1   9   44.22    1.77 
   0   1   9   47.95    1.79 
   0   1  -9   47.18    1.71 
   0   1  -9   45.65    1.77 
   0   1  -9   50.36    1.72 
   0   1  -9   46.81    1.70 
   0   1  -9   46.33    1.73 
  -1  -1  -9   41.60    1.59 
   1  -1   9   39.74    1.54 
  -1  -1  -9   39.62    1.46 
  -1  -1  -9   41.77    1.47 
   1  -1   9   41.43    1.48 
  -1  -1  -9   41.38    1.48 
   1  -1   9   41.00    1.48 
  -1  -1  -9   39.38    1.50 
  -1  -1  -9   42.81    1.48 
  -1  -1  -9   40.42    1.43 
  -1  -1  -9   43.78    1.50 
  -1  -1  -9   42.61    1.51 
  -1  -1  -9   41.21    1.47 
  -1  -1  -9   39.78    1.50 
  -1  -1  -9   41.04    1.52 
   1   1   9   37.24    1.54 
  -1   1  -9   40.32    1.53 
  -1   1  -9   41.90    1.45 
   1   1   9   41.80    1.49 
  -1   1  -9   40.03    2.04 
  -1   1  -9   38.71    1.47 
  -1   1  -9   41.60    1.47 
  -1   1  -9   41.48    1.47 
   1   1   9   39.80    1.52 
   1   1   9   40.87    1.47 
  -1   1  -9   40.59    1.47 
  -1   1  -9   36.79    1.47 
   1   1   9   40.82    1.48 
  -1   1  -9   40.94    1.50 
   1   1   9   40.00    1.55 
  -1   1  -9   41.79    1.44 
  -1   1  -9   40.70    1.79 
  -1   1  -9   42.11    1.50 
  -2  -1  -9    3.11    0.16 
  -2  -1  -9    3.11    0.21 
  -2  -1  -9    2.84    0.20 
  -2  -1  -9    3.36    0.17 
  -2  -1  -9    3.24    0.20 
   2  -1   9    3.30    0.20 
  -2  -1  -9    3.16    0.14 
  -2  -1  -9    3.25    0.26 
  -2  -1  -9    2.74    0.21 
   2  -1   9    3.18    0.19 
  -2  -1  -9    3.16    0.21 
  -2  -1  -9    3.20    0.20 
  -2  -1  -9    2.91    0.19 
  -2  -1  -9    3.30    0.19 
  -2   1  -9    3.40    0.18 
   2   1   9    3.12    0.20 
  -2   1  -9    2.77    0.21 
   2   1   9    3.51    0.18 
  -2   1  -9    3.25    0.15 
   2   1   9    3.45    0.23 
  -2   1  -9    3.58    0.19 
  -2   1  -9    3.24    0.20 
   2   1   9    3.34    0.25 
  -2   1  -9    3.20    0.15 
  -2   1  -9    3.35    0.17 
   2   1   9    3.20    0.18 
  -5  -2   9    4.48    0.25 
  -5  -2   9    4.43    0.18 
  -5  -2   9    4.72    0.24 
   5  -2  -9    4.40    0.25 
  -5  -2   9    4.54    0.21 
   5  -2  -9    4.37    0.23 
   5  -2  -9    5.34    0.27 
   5  -2  -9    4.17    0.19 
   5  -2  -9    4.53    0.24 
   5   2  -9    4.66    0.21 
  -5   2   9    4.18    0.22 
   5   2  -9    4.62    0.21 
   5   2  -9    4.64    0.24 
   5   2  -9    4.05    0.22 
  -5   2   9    4.21    0.27 
  -5   2   9    4.53    0.19 
  -5   2   9    4.49    0.23 
  -5   2   9    5.46    0.30 
   5   2  -9    4.49    0.22 
  -5   2   9    4.04    0.24 
   5   2  -9    4.94    0.24 
  -5   2   9    4.62    0.23 
   5   2  -9    4.64    0.28 
   5   2  -9    4.50    0.21 
   5   2  -9    4.57    0.20 
   5   2  -9    4.49    0.20 
  -4  -2   9   15.06    0.58 
   4  -2  -9   16.13    0.66 
   4  -2  -9   14.63    0.61 
   4  -2  -9   16.07    0.64 
   4  -2  -9   15.05    0.59 
   4  -2  -9   15.21    0.63 
   4  -2  -9   15.87    0.64 
  -4  -2   9   15.96    0.61 
  -4  -2   9   14.97    0.63 
  -4  -2   9   16.31    0.67 
  -4   2   9   14.86    0.64 
   4   2  -9   16.56    0.62 
   4   2  -9   15.85    0.60 
   4   2  -9   15.40    0.59 
  -4   2   9   15.23    0.64 
  -4   2   9   15.62    0.62 
   4   2  -9   15.07    0.69 
   4   2  -9   15.95    0.64 
   4   2  -9   15.88    0.59 
   4   2  -9   15.96    0.60 
   4   2  -9   15.71    0.62 
  -4   2   9   14.97    0.62 
   4   2  -9   15.67    0.59 
   4   2  -9   16.86    0.63 
  -4   2   9   15.58    0.70 
   3  -2  -9    7.92    0.34 
   3  -2  -9    9.16    0.46 
   3  -2  -9    7.71    0.46 
   3  -2  -9    7.94    0.41 
  -3  -2   9    7.70    0.35 
  -3  -2   9    8.52    0.36 
   3  -2  -9    8.35    0.40 
  -3  -2   9    8.08    0.41 
   3  -2  -9    8.02    0.39 
  -3  -2   9    8.02    0.39 
   3  -2  -9    6.11    0.47 
  -3  -2   9    7.76    0.36 
   3   2  -9    7.94    0.33 
   3   2  -9    8.16    0.33 
   3   2  -9    8.20    0.34 
   3   2  -9    8.02    0.36 
  -3   2   9   10.30    0.74 
   3   2  -9    7.95    0.44 
   3   2  -9    8.32    0.37 
   3   2  -9    8.18    0.35 
   3   2  -9    8.28    0.39 
  -3   2   9    7.16    0.43 
  -3   2   9    8.31    0.40 
   3   2  -9    7.94    0.37 
   3   2  -9    8.34    0.33 
  -3   2   9    7.93    0.38 
   3   2  -9    7.71    0.33 
  -3   2   9    8.10    0.41 
   3   2  -9    7.92    0.38 
  -3   2   9    7.56    0.39 
   3   2  -9    7.95    0.36 
   3   2  -9    8.55    0.32 
   2  -2  -9    3.62    0.22 
   2  -2  -9    3.92    0.26 
   2  -2  -9    4.22    0.20 
  -2  -2   9    4.17    0.23 
   2  -2  -9    3.92    0.31 
  -2  -2   9    3.93    0.28 
   2  -2  -9    3.72    0.25 
  -2  -2   9    4.07    0.23 
   2  -2  -9    3.89    0.27 
   2  -2  -9    4.39    0.34 
   2  -2  -9    3.88    0.28 
   2   2  -9    4.15    0.23 
   2   2  -9    3.95    0.27 
  -2   2   9    3.96    0.17 
   2   2  -9    3.49    0.41 
  -2   2   9    4.72    0.30 
  -2   2   9    4.11    0.28 
  -2   2   9    3.12    0.63 
   2   2  -9    3.77    0.25 
   2   2  -9    3.94    0.22 
   2   2  -9    3.76    0.29 
   2   2  -9    3.92    0.20 
   2   2  -9    3.88    0.25 
   2   2  -9    4.10    0.24 
   2   2  -9    3.91    0.20 
   2   2  -9    4.18    0.22 
   2   2  -9    4.17    0.24 
  -2   2   9    4.44    0.27 
  -2   2   9    4.02    0.29 
   2   2  -9    4.34    0.28 
  -2   2   9    4.36    0.23 
   2   2  -9    4.03    0.23 
   2   2  -9    4.01    0.19 
   2   2  -9    3.96    0.20 
   1  -2  -9    3.41    0.23 
   1  -2  -9    4.06    0.27 
   1  -2  -9    3.56    0.24 
  -1  -2   9    3.71    0.27 
   1  -2  -9    3.45    0.22 
  -1  -2   9    3.81    0.22 
   1  -2  -9    3.53    0.28 
   1  -2  -9    2.33    0.30 
   1  -2  -9    3.15    0.21 
  -1  -2   9    3.71    0.22 
   1  -2  -9    3.72    0.25 
   1  -2  -9    3.88    0.33 
   1  -2  -9    2.98    0.22 
   1  -2  -9    3.51    0.26 
   1  -2  -9    3.40    0.24 
   1   2  -9    3.67    0.18 
  -1   2   9    3.83    0.28 
   1   2  -9    3.08    0.23 
   1   2  -9    3.61    0.16 
   1   2  -9    3.75    0.24 
  -1   2   9    3.37    0.22 
   1   2  -9    3.69    0.27 
  -1   2   9    3.67    0.26 
   1   2  -9    2.69    0.27 
   1   2  -9    3.69    0.22 
   1   2  -9    3.25    0.21 
   1   2  -9    3.47    0.20 
  -1   2   9    3.75    0.17 
  -1   2   9    3.60    0.27 
   1   2  -9    3.56    0.23 
   1   2  -9    3.67    0.21 
   1   2  -9    3.44    0.18 
   0  -2  -9   12.80    0.62 
   0  -2  -9   13.58    0.53 
   0  -2  -9   12.96    0.54 
   0  -2  -9   13.97    0.53 
   0  -2  -9   13.03    0.58 
   0  -2  -9   13.40    0.57 
   0  -2  -9   12.92    0.54 
   0  -2  -9   13.56    0.56 
   0  -2  -9   12.97    0.60 
   0  -2   9   12.00    0.58 
   0  -2   9   13.19    0.53 
   0  -2  -9   12.84    0.56 
   0   2  -9   12.85    0.52 
   0   2  -9   13.08    0.57 
   0   2  -9   13.67    0.50 
   0   2   9   13.15    0.60 
   0   2  -9   13.13    0.52 
   0   2   9   12.90    0.49 
   0   2   9   13.60    0.54 
   0   2  -9   13.65    0.55 
   0   2  -9   13.41    0.55 
   0   2  -9   12.88    0.49 
   0   2  -9   12.54    0.53 
   0   2   9   12.59    0.57 
   0   2  -9   13.19    0.53 
   0   2   9   13.46    0.60 
  -1  -2  -9    2.03    0.20 
  -1  -2  -9    1.82    0.20 
  -1  -2  -9    1.86    0.17 
  -1  -2  -9    1.99    0.20 
  -1  -2  -9    1.76    0.15 
   1  -2   9    2.02    0.15 
  -1  -2  -9    1.96    0.16 
  -1  -2  -9    1.89    0.16 
  -1  -2  -9    1.93    0.24 
  -1  -2  -9    2.02    0.18 
  -1  -2  -9    1.99    0.17 
  -1  -2  -9    1.99    0.18 
  -1  -2  -9    2.11    0.21 
   1   2   9    1.89    0.12 
   1   2   9    1.66    0.18 
   1   2   9    2.07    0.23 
   1   2   9    1.75    0.21 
  -1   2  -9    1.97    0.13 
  -1   2  -9    1.93    0.15 
  -1   2  -9    1.75    0.11 
  -1   2  -9    1.97    0.15 
  -1   2  -9    1.69    0.14 
  -1   2  -9    1.93    0.11 
   1   2   9    1.87    0.17 
  -1   2  -9    1.88    0.14 
   2  -2   9    0.40    0.07 
  -2  -2  -9    0.39    0.10 
  -2  -2  -9    0.35    0.08 
  -2  -2  -9    0.45    0.15 
  -2  -2  -9    0.47    0.10 
  -2  -2  -9    0.43    0.14 
  -2  -2  -9    0.40    0.10 
  -2  -2  -9    0.38    0.10 
  -2  -2  -9    0.34    0.12 
  -2  -2  -9    0.34    0.11 
   2   2   9    0.40    0.12 
  -2   2  -9    0.46    0.08 
   2   2   9    0.42    0.10 
  -2   2  -9    0.36    0.07 
  -2   2  -9    0.39    0.05 
   2   2   9    0.43    0.13 
   2   2   9    0.45    0.07 
  -2   2  -9    0.42    0.08 
  -2   2  -9    0.34    0.07 
  -4  -3   9    1.30    0.14 
  -4  -3   9    1.37    0.11 
  -4  -3   9    1.44    0.10 
   4  -3  -9    1.16    0.10 
   4  -3  -9    1.22    0.14 
   4  -3  -9    1.26    0.14 
  -4  -3   9    1.07    0.11 
  -4  -3   9    1.14    0.14 
   4  -3  -9    1.47    0.15 
   4  -3  -9    1.43    0.12 
   4  -3  -9    1.38    0.15 
   4  -3  -9    1.32    0.15 
  -4   3   9    1.21    0.14 
  -4   3   9    1.33    0.14 
  -4   3   9    1.22    0.12 
  -4   3   9    1.29    0.14 
   4   3  -9    1.29    0.11 
  -4   3   9    1.31    0.13 
   4   3  -9    1.38    0.08 
   4   3  -9    1.17    0.12 
  -4   3   9    1.42    0.15 
   4   3  -9    1.37    0.16 
   4   3  -9    1.47    0.13 
  -4   3   9    1.32    0.16 
   4   3  -9    1.21    0.11 
   4   3  -9    1.35    0.10 
  -4   3   9    1.39    0.08 
   4   3  -9    1.33    0.08 
   4   3  -9    1.45    0.11 
  -4   3   9    1.45    0.14 
   3  -3  -9   16.91    0.66 
   3  -3  -9   16.61    0.67 
   3  -3  -9   18.84    0.68 
   3  -3  -9   16.68    0.69 
   3  -3  -9   17.28    0.68 
   3  -3  -9   17.68    0.68 
   3  -3  -9   16.35    0.63 
  -3  -3   9   16.39    0.64 
  -3  -3   9   17.18    0.64 
   3   3  -9   16.79    0.60 
  -3   3   9   16.43    0.66 
   3   3  -9   16.00    0.63 
  -3   3   9   16.01    0.66 
   3   3  -9   16.25    0.66 
   3   3  -9   16.69    0.64 
  -3   3   9   16.64    0.72 
   3   3  -9   14.54    0.63 
  -3   3   9   16.57    0.67 
  -3   3   9   17.38    0.65 
  -3   3   9   14.63    0.67 
   3   3  -9   16.94    0.61 
   3   3  -9   17.11    0.64 
  -3   3   9   15.61    0.67 
  -3   3   9   16.63    0.68 
   3   3  -9   16.22    0.66 
  -3   3   9   17.41    0.71 
   3   3  -9   17.76    0.69 
  -3   3   9   18.10    0.64 
   2  -3  -9    6.89    0.30 
   2  -3  -9    6.69    0.34 
   2  -3  -9    6.81    0.41 
  -2  -3   9    6.51    0.30 
  -2  -3   9    5.98    0.35 
   2  -3  -9    6.81    0.34 
   2  -3  -9    5.98    0.33 
   2  -3  -9    6.12    0.32 
   2  -3  -9    5.98    0.35 
  -2  -3   9    7.38    0.31 
   2   3  -9    6.86    0.27 
   2   3  -9    6.46    0.32 
  -2   3   9    6.88    0.34 
  -2   3   9    7.41    0.40 
   2   3  -9    6.49    0.29 
   2   3  -9    7.10    0.32 
   2   3  -9    6.40    0.27 
  -2   3   9    6.62    0.41 
  -2   3   9    6.99    0.36 
   2   3  -9    6.99    0.34 
   2   3  -9    7.00    0.30 
   2   3  -9    6.62    0.29 
   1  -3  -9   10.21    0.56 
   1  -3  -9   10.96    0.50 
   1  -3  -9   11.38    0.44 
   1  -3  -9   11.51    0.52 
   1  -3  -9   11.27    0.51 
  -1  -3   9   11.42    0.47 
   1  -3  -9   12.26    0.51 
   1   3  -9   12.60    0.49 
   1   3  -9   12.13    0.48 
   1   3  -9   11.72    0.46 
   1   3  -9   12.00    0.46 
  -1   3   9   11.35    0.51 
  -1   3   9   10.66    0.52 
   1   3  -9   11.78    0.43 
   1   3  -9   12.12    0.47 
  -1   3   9   12.30    0.51 
  -1   3   9   11.83    0.51 
  -1   3   9   10.04    0.47 
   1   3  -9   11.65    0.44 
   0  -3  -9    0.64    0.18 
   0  -3  -9    0.66    0.15 
   0  -3  -9    0.77    0.14 
   0  -3  -9    0.40    0.12 
   0  -3  -9    0.58    0.14 
   0  -3  -9    0.69    0.12 
   0  -3  -9    0.53    0.13 
   0  -3  -9    0.70    0.12 
   0  -3  -9    0.71    0.14 
   0  -3  -9    0.75    0.15 
   0  -3   9    0.74    0.10 
   0   3  -9    0.66    0.10 
   0   3  -9    0.72    0.10 
   0   3  -9    0.76    0.09 
   0   3   9    0.63    0.16 
   0   3   9    0.65    0.28 
   0   3   9    0.64    0.16 
   0   3   9    0.71    0.15 
   0   3   9    0.82    0.16 
   0   3  -9    0.68    0.08 
   0   3  -9    0.92    0.09 
   0   3  -9    0.69    0.07 
   0   3   9    0.75    0.11 
   0   3  -9    0.77    0.09 
  -1  -3  -9    2.39    0.21 
  -1  -3  -9    2.21    0.16 
  -1  -3  -9    2.15    0.17 
  -1  -3  -9    2.62    0.22 
  -1  -3  -9    2.58    0.19 
  -1  -3  -9    2.34    0.11 
  -1  -3  -9    2.58    0.20 
  -1  -3  -9    2.52    0.18 
  -1  -3  -9    1.99    0.16 
  -1   3  -9    2.49    0.13 
   1   3   9    2.19    0.15 
  -1   3  -9    2.40    0.13 
   1   3   9    2.29    0.19 
  -1   3  -9    2.45    0.12 
   1   3   9    2.57    0.39 
   1   3   9    2.52    0.21 
   3  -4  -9    9.02    0.37 
  -3  -4   9    8.55    0.36 
  -3  -4   9   10.12    0.38 
  -3   4   9   10.95    0.41 
  -3   4   9    8.63    0.39 
  -3   4   9    9.16    0.45 
   3   4  -9    8.73    0.34 
   3   4  -9    8.95    0.34 
  -2  -4   9   13.99    0.55 
   2  -4  -9   15.03    0.55 
  -2  -4   9   14.49    0.55 
   2  -4  -9   15.18    0.59 
   2  -4  -9   14.84    0.58 
   2  -4  -9   14.45    0.57 
   2  -4  -9   14.65    0.58 
   2   4  -9   14.80    0.55 
   2   4  -9   15.06    0.55 
  -2   4   9   12.88    0.58 
  -2   4   9   14.51    0.55 
   2   4  -9   14.98    0.53 
  -2   4   9   15.28    0.53 
  -2   4   9   14.83    0.57 
  -2   4   9   14.10    0.58 
  -2   4   9   15.44    0.59 
   2   4  -9   14.92    0.52 
  -2   4   9   13.29    0.60 
   2   4  -9   14.88    0.54 
  -2   4   9   15.42    0.63 
  -2   4   9   13.66    0.56 
   2   4  -9   12.47    0.58 
   1  -4  -9    1.89    0.11 
   1  -4  -9    1.89    0.22 
   1  -4  -9    1.72    0.16 
   1  -4  -9    1.88    0.20 
  -1  -4   9    1.86    0.13 
   1  -4  -9    2.21    0.17 
   1   4  -9    2.05    0.13 
  -1   4   9    1.81    0.14 
   1   4  -9    1.75    0.12 
   1   4  -9    1.97    0.11 
  -1   4   9    1.91    0.16 
  -1   4   9    1.90    0.21 
  -1   4   9    1.87    0.17 
  -1   4   9    1.78    0.14 
  -1   4   9    1.75    0.16 
  -1   4   9    1.85    0.20 
  -1   4   9    1.71    0.17 
  -1   4   9    1.97    0.13 
   1   4  -9    1.95    0.09 
   1   4  -9    1.87    0.10 
   1   4  -9    2.16    0.14 
   0  -4  -9    1.41    0.18 
   0  -4  -9    1.87    0.16 
   0  -4  -9    1.62    0.12 
   0  -4  -9    1.65    0.15 
   0   4  -9    1.67    0.10 
   0   4   9    1.69    0.15 
   0   4   9    1.63    0.13 
   0   4  -9    1.53    0.08 
   0   4   9    1.65    0.16 
   0   4   9    1.45    0.19 
  -3   0  10    0.02    0.06 
   3   0 -10    0.07    0.05 
   3   0 -10    0.07    0.06 
  -3   0  10    0.02    0.07 
   3   0 -10    0.03    0.05 
  -3   0  10    0.04    0.03 
   3   0 -10    0.02    0.04 
  -3   0  10    0.01    0.07 
   3   0 -10    0.00    0.07 
   3   0 -10    0.07    0.07 
   3   0 -10    0.02    0.05 
   3   0 -10    0.06    0.07 
  -3   0  10    0.10    0.06 
   3   0 -10   -0.11    0.06 
   3   0 -10    0.04    0.08 
   3   0 -10    0.01    0.04 
   2   0 -10    2.36    0.17 
   2   0 -10    2.24    0.18 
   2   0 -10    2.95    0.15 
   2   0 -10    2.89    0.16 
   2   0 -10    2.50    0.23 
   2   0 -10    2.75    0.20 
   2   0 -10    2.56    0.16 
  -2   0  10    2.76    0.19 
  -2   0  10    2.57    0.21 
  -2   0  10    2.94    0.18 
   2   0 -10    2.66    0.17 
  -2   0  10    2.62    0.14 
   2   0 -10    2.89    0.24 
   2   0 -10    2.76    0.19 
   2   0 -10    2.71    0.16 
   1   0 -10    2.27    0.16 
   1   0 -10    2.16    0.17 
  -1   0  10    1.95    0.20 
   1   0 -10    2.29    0.13 
   1   0 -10    2.27    0.13 
   1   0 -10    2.30    0.13 
  -1   0  10    2.03    0.16 
   1   0 -10    2.18    0.16 
  -1   0  10    2.02    0.13 
   1   0 -10    2.26    0.17 
  -1   0  10    1.72    0.17 
  -1   0  10    2.09    0.19 
   1   0 -10    2.11    0.15 
   1   0 -10    2.37    0.14 
   1   0 -10    1.93    0.20 
   0   0 -10    5.02    0.24 
   0   0 -10    5.55    0.23 
   0   0 -10    5.78    0.27 
   0   0 -10    5.79    0.24 
   0   0 -10    5.73    0.24 
   0   0  10    5.47    0.31 
   0   0 -10    6.06    0.30 
   0   0  10    5.93    0.26 
   0   0 -10    6.17    0.27 
   0   0  10    5.91    0.25 
   0   0  10    5.70    0.27 
   0   0  10    5.71    0.29 
   0   0 -10    5.19    0.23 
   0   0 -10    5.40    0.23 
   0   0 -10    5.80    0.32 
   0   0 -10    4.93    0.30 
   0   0 -10    5.55    0.28 
  -1   0 -10   12.22    0.52 
   1   0  10   14.53    0.54 
  -1   0 -10   13.61    0.49 
  -1   0 -10   12.12    0.52 
   1   0  10   12.73    0.52 
  -1   0 -10   14.41    0.60 
  -1   0 -10   11.11    0.56 
   3  -1 -10    2.70    0.19 
   3  -1 -10    2.52    0.17 
   3  -1 -10    2.66    0.20 
   3  -1 -10    2.05    0.17 
  -3  -1  10    2.96    0.17 
  -3  -1  10    2.47    0.18 
   3  -1 -10    2.50    0.17 
   3  -1 -10    2.59    0.19 
  -3  -1  10    2.27    0.17 
   3  -1 -10    2.41    0.14 
   3  -1 -10    2.67    0.17 
   3  -1 -10    2.23    0.16 
  -3  -1  10    2.58    0.13 
  -3   1  10    2.57    0.17 
   3   1 -10    2.57    0.16 
  -3   1  10    2.40    0.32 
  -3   1  10    2.78    0.19 
  -3   1  10    2.54    0.18 
  -3   1  10    2.59    0.14 
   3   1 -10    2.43    0.16 
  -3   1  10    2.31    0.27 
   3   1 -10    2.38    0.20 
   3   1 -10    2.49    0.15 
   3   1 -10    2.59    0.17 
   3   1 -10    2.61    0.14 
   3   1 -10    2.29    0.14 
   3   1 -10    2.61    0.14 
   3   1 -10    2.68    0.13 
   3   1 -10    2.50    0.14 
  -2  -1  10    2.22    0.14 
  -2  -1  10    2.17    0.16 
  -2  -1  10    2.21    0.18 
  -2  -1  10    2.18    0.13 
   2  -1 -10    2.11    0.17 
   2  -1 -10    2.17    0.16 
  -2  -1  10    1.92    0.18 
   2  -1 -10    2.24    0.19 
   2  -1 -10    2.08    0.15 
   2  -1 -10    2.05    0.15 
   2  -1 -10    2.40    0.15 
   2  -1 -10    2.17    0.15 
   2  -1 -10    2.22    0.19 
   2  -1 -10    2.12    0.17 
   2  -1 -10    2.27    0.15 
   2  -1 -10    2.36    0.16 
   2   1 -10    2.14    0.20 
   2   1 -10    2.22    0.14 
   2   1 -10    2.27    0.15 
   2   1 -10    2.15    0.12 
  -2   1  10    2.32    0.19 
  -2   1  10    2.48    0.15 
  -2   1  10    2.27    0.11 
  -2   1  10    2.17    0.18 
   2   1 -10    1.91    0.16 
   2   1 -10    2.13    0.16 
   2   1 -10    2.14    0.12 
   2   1 -10    2.34    0.13 
   2   1 -10    1.97    0.15 
  -2   1  10    2.08    0.19 
   2   1 -10    2.29    0.16 
  -1  -1  10    0.21    0.08 
   1  -1 -10    0.20    0.06 
   1  -1 -10    0.12    0.05 
   1  -1 -10    0.21    0.08 
   1  -1 -10    0.15    0.07 
   1  -1 -10    0.08    0.06 
   1  -1 -10    0.11    0.09 
   1  -1 -10    0.37    0.13 
   1  -1 -10    0.15    0.09 
   1  -1 -10    0.17    0.08 
   1  -1 -10    0.19    0.07 
  -1  -1  10    0.26    0.07 
  -1  -1  10    0.11    0.06 
   1  -1 -10    0.16    0.05 
  -1   1  10    0.20    0.07 
   1   1 -10    0.14    0.06 
   1   1 -10    0.07    0.06 
   1   1 -10    0.09    0.07 
   1   1 -10    0.18    0.04 
   1   1 -10    0.30    0.07 
  -1   1  10   -0.02    0.06 
   1   1 -10    0.44    0.11 
   1   1 -10    0.19    0.06 
   1   1 -10    0.18    0.05 
  -1   1  10    0.14    0.09 
  -1   1  10    0.18    0.10 
  -1   1  10    0.15    0.04 
   0  -1 -10   33.01    1.23 
   0  -1 -10   34.17    1.24 
   0  -1 -10   33.30    1.21 
   0  -1 -10   29.23    1.28 
   0  -1 -10   33.31    1.19 
   0  -1 -10   34.00    1.20 
   0  -1 -10   34.36    1.23 
   0  -1 -10   34.26    1.22 
   0  -1 -10   32.85    1.19 
   0  -1 -10   33.74    1.20 
   0  -1  10   34.16    1.21 
   0   1 -10   34.38    1.21 
   0   1 -10   31.22    1.24 
   0   1  10   32.00    1.21 
   0   1  10   36.08    1.25 
   0   1 -10   34.82    1.21 
   0   1 -10   35.40    1.24 
   0   1 -10   33.47    1.18 
   0   1 -10   33.79    1.21 
   0   1  10   34.07    1.19 
   0   1  10   36.43    1.28 
   2  -2 -10   10.09    0.40 
  -2  -2  10    9.94    0.37 
  -2  -2  10    9.26    0.37 
   2  -2 -10    8.32    0.39 
   2  -2 -10    8.84    0.34 
   2  -2 -10   10.03    0.40 
   2  -2 -10    9.49    0.42 
   2  -2 -10    9.05    0.40 
   2  -2 -10    9.55    0.37 
   2  -2 -10    9.47    0.38 
   2  -2 -10    9.12    0.43 
   2   2 -10    9.57    0.37 
  -2   2  10    9.20    0.39 
  -2   2  10    9.41    0.41 
   2   2 -10   10.31    0.39 
   2   2 -10    9.00    0.37 
   2   2 -10    8.60    0.40 
   2   2 -10    9.70    0.36 
   2   2 -10    9.78    0.35 
   2   2 -10    9.68    0.39 
  -2   2  10    8.18    0.49 
  -2   2  10    9.29    0.41 
   1  -2 -10    3.76    0.23 
  -1  -2  10    3.87    0.19 
   1  -2 -10    3.46    0.19 
   1  -2 -10    3.41    0.21 
  -1  -2  10    3.42    0.19 
   1  -2 -10    4.68    0.21 
   1  -2 -10    4.07    0.19 
   1  -2 -10    3.91    0.20 
   1  -2 -10    3.34    0.19 
   1  -2 -10    3.57    0.22 
   1  -2 -10    3.74    0.20 
   1   2 -10    3.82    0.18 
  -1   2  10    3.70    0.35 
  -1   2  10    3.17    0.32 
   1   2 -10    4.50    0.24 
   1   2 -10    3.70    0.19 
   1   2 -10    4.02    0.16 
   1   2 -10    4.04    0.16 
  -1   2  10    3.75    0.19 
  -1   2  10    3.64    0.21 
  -1   2  10    3.80    0.22 
  -1   2  10    3.69    0.23 
   1   2 -10    3.82    0.20 
   0  -2 -10    6.10    0.26 
   0  -2  10    6.44    0.29 
   0   2  10    5.13    0.30 
   0   0   0    0.00    0.00 
;
_shelx_hkl_checksum              85862
#END Tags that were not found in dictionaries
loop_
_space_group_symop_operation_xyz
'x, y, z'
'-x, y+1/2, -z'
loop_
_atom_site_label
_atom_site_type_symbol
_atom_site_fract_x
_atom_site_fract_y
_atom_site_fract_z
_atom_site_U_iso_or_equiv
_atom_site_adp_type
_atom_site_occupancy
_atom_site_site_symmetry_order
_atom_site_calc_flag
_atom_site_refinement_flags_posn
_atom_site_refinement_flags_adp
C1 C 0.2023(2) 0.3915(2) 0.27686(17) 0.0165(3) Uani 1 1 d . .
C2 C 0.2378(2) 0.5118(2) 0.42432(17) 0.0175(3) Uani 1 1 d . .
C3 C 0.2237(2) 0.6954(2) 0.39179(19) 0.0209(4) Uani 1 1 d . .
H3 H 0.2410 0.7913 0.4698 0.025 Uiso 1 1 calc R U
C4 C 0.1776(3) 0.7363(3) 0.21917(19) 0.0243(4) Uani 1 1 d . .
H4A H 0.2737 0.8183 0.1859 0.029 Uiso 1 1 calc R U
H4B H 0.0546 0.7992 0.1921 0.029 Uiso 1 1 calc R U
C5 C 0.1744(2) 0.5392(2) 0.14108(17) 0.0181(3) Uani 1 1 d . .
H5 H 0.0493 0.5188 0.0743 0.022 Uiso 1 1 calc R U
C6 C 0.3259(2) 0.5186(2) 0.03875(17) 0.0197(3) Uani 1 1 d . .
H6A H 0.2987 0.4057 -0.0290 0.024 Uiso 1 1 calc R U
H6B H 0.3227 0.6307 -0.0301 0.024 Uiso 1 1 calc R U
C7 C 0.5178(2) 0.4996(2) 0.13534(18) 0.0196(3) Uani 1 1 d . .
C8 C 0.3687(2) 0.2639(2) 0.26497(18) 0.0185(4) Uani 1 1 d . .
H8A H 0.3944 0.1814 0.3586 0.022 Uiso 1 1 calc R U
H8B H 0.3374 0.1817 0.1716 0.022 Uiso 1 1 calc R U
C9 C 0.0318(2) 0.2633(2) 0.2722(2) 0.0218(4) Uani 1 1 d . .
H9A H 0.0544 0.1746 0.3604 0.033 Uiso 1 1 calc R U
H9B H 0.0097 0.1924 0.1735 0.033 Uiso 1 1 calc R U
H9C H -0.0778 0.3409 0.2797 0.033 Uiso 1 1 calc R U
C10 C 0.2783(2) 0.4226(3) 0.58350(17) 0.0225(4) Uani 1 1 d . .
H10A H 0.2912 0.5215 0.6639 0.034 Uiso 1 1 calc R U
H10B H 0.3945 0.3501 0.5941 0.034 Uiso 1 1 calc R U
H10C H 0.1757 0.3378 0.5966 0.034 Uiso 1 1 calc R U
O1 O 0.53452(15) 0.37296(16) 0.25344(13) 0.0202(3) Uani 1 1 d . .
O2 O 0.65460(17) 0.58510(19) 0.11459(15) 0.0294(3) Uani 1 1 d . .
loop_
_atom_site_aniso_label
_atom_site_aniso_U_11
_atom_site_aniso_U_22
_atom_site_aniso_U_33
_atom_site_aniso_U_23
_atom_site_aniso_U_13
_atom_site_aniso_U_12
C1 0.0167(7) 0.0172(8) 0.0157(7) 0.0011(7) 0.0031(6) -0.0002(7)
C2 0.0136(7) 0.0226(9) 0.0167(7) -0.0025(7) 0.0035(6) -0.0008(6)
C3 0.0210(8) 0.0214(9) 0.0215(8) -0.0025(7) 0.0066(6) 0.0003(7)
C4 0.0325(9) 0.0186(9) 0.0233(8) 0.0017(7) 0.0090(7) 0.0065(8)
C5 0.0180(7) 0.0192(8) 0.0169(7) 0.0014(6) 0.0021(6) 0.0019(6)
C6 0.0258(8) 0.0187(8) 0.0154(7) 0.0017(6) 0.0057(6) 0.0021(7)
C7 0.0239(8) 0.0175(8) 0.0196(7) 0.0003(6) 0.0098(6) 0.0027(6)
C8 0.0207(8) 0.0166(8) 0.0196(8) 0.0021(6) 0.0070(6) 0.0002(6)
C9 0.0197(8) 0.0233(9) 0.0223(8) -0.0014(7) 0.0034(6) -0.0043(7)
C10 0.0234(8) 0.0276(9) 0.0164(7) 0.0003(7) 0.0030(6) 0.0003(7)
O1 0.0176(5) 0.0220(6) 0.0220(5) 0.0047(5) 0.0067(4) 0.0025(5)
O2 0.0248(6) 0.0290(7) 0.0366(7) 0.0088(5) 0.0116(5) 0.0000(5)
loop_
_atom_type_symbol
_atom_type_description
_atom_type_scat_dispersion_real
_atom_type_scat_dispersion_imag
_atom_type_scat_source
C C 0.0181 0.0091 'International Tables Vol C Tables 4.2.6.8 and 6.1.1.4'
H H 0.0000 0.0000 'International Tables Vol C Tables 4.2.6.8 and 6.1.1.4'
O O 0.0492 0.0322 'International Tables Vol C Tables 4.2.6.8 and 6.1.1.4'
loop_
_geom_angle_atom_site_label_1
_geom_angle_atom_site_label_2
_geom_angle_atom_site_label_3
_geom_angle
C2 C1 C8 111.57(12)
C2 C1 C9 111.72(13)
C8 C1 C9 107.33(14)
C2 C1 C5 103.94(13)
C8 C1 C5 110.11(12)
C9 C1 C5 112.22(12)
C3 C2 C10 127.01(16)
C3 C2 C1 111.89(14)
C10 C2 C1 121.08(14)
C2 C3 C4 113.24(15)
C2 C3 H3 123.4
C4 C3 H3 123.4
C3 C4 C5 104.25(14)
C3 C4 H4A 110.9
C5 C4 H4A 110.9
C3 C4 H4B 110.9
C5 C4 H4B 110.9
H4A C4 H4B 108.9
C6 C5 C4 112.33(14)
C6 C5 C1 111.09(13)
C4 C5 C1 106.40(13)
C6 C5 H5 109.0
C4 C5 H5 109.0
C1 C5 H5 109.0
C7 C6 C5 112.21(12)
C7 C6 H6A 109.2
C5 C6 H6A 109.2
C7 C6 H6B 109.2
C5 C6 H6B 109.2
H6A C6 H6B 107.9
O2 C7 O1 118.64(15)
O2 C7 C6 125.72(15)
O1 C7 C6 115.63(14)
O1 C8 C1 111.74(13)
O1 C8 H8A 109.3
C1 C8 H8A 109.3
O1 C8 H8B 109.3
C1 C8 H8B 109.3
H8A C8 H8B 107.9
C1 C9 H9A 109.5
C1 C9 H9B 109.5
H9A C9 H9B 109.5
C1 C9 H9C 109.5
H9A C9 H9C 109.5
H9B C9 H9C 109.5
C2 C10 H10A 109.5
C2 C10 H10B 109.5
H10A C10 H10B 109.5
C2 C10 H10C 109.5
H10A C10 H10C 109.5
H10B C10 H10C 109.5
C7 O1 C8 116.09(12)
loop_
_geom_bond_atom_site_label_1
_geom_bond_atom_site_label_2
_geom_bond_distance
C1 C2 1.519(2)
C1 C8 1.529(2)
C1 C9 1.532(2)
C1 C5 1.560(2)
C2 C3 1.328(2)
C2 C10 1.499(2)
C3 C4 1.503(2)
C3 H3 0.9500
C4 C5 1.547(2)
C4 H4A 0.9900
C4 H4B 0.9900
C5 C6 1.540(2)
C5 H5 1.0000
C6 C7 1.504(2)
C6 H6A 0.9900
C6 H6B 0.9900
C7 O2 1.205(2)
C7 O1 1.349(2)
C8 O1 1.451(2)
C8 H8A 0.9900
C8 H8B 0.9900
C9 H9A 0.9800
C9 H9B 0.9800
C9 H9C 0.9800
C10 H10A 0.9800
C10 H10B 0.9800
C10 H10C 0.9800
