#------------------------------------------------------------------------------
#$Date: 2016-03-22 22:13:18 +0200 (Tue, 22 Mar 2016) $
#$Revision: 179035 $
#$URL: svn://www.crystallography.net/cod/cif/4/12/33/4123370.cif $
#------------------------------------------------------------------------------
#
# This file is available in the Crystallography Open Database (COD),
# http://www.crystallography.net/
#
# All data on this site have been placed in the public domain by the
# contributors.
#
data_4123370
loop_
_publ_author_name
'Panda, Manas K.'
'Run\<cevski, Tom\<ce'
'Husain, Ahmad'
'Dinnebier, Robert E.'
'Naumov, Pan\<ce'
_publ_section_title
;
 Perpetually self-propelling chiral single crystals.
;
_journal_issue                   5
_journal_name_full               'Journal of the American Chemical Society'
_journal_page_first              1895
_journal_page_last               1902
_journal_paper_doi               10.1021/ja5111927
_journal_volume                  137
_journal_year                    2015
_chemical_formula_sum            'C5 H7 N O3'
_chemical_formula_weight         129.12
_chemical_name_common            'Rec-PGA 273K'
_chemical_name_systematic
;
 ?
;
_space_group_crystal_system      monoclinic
_space_group_IT_number           14
_space_group_name_Hall           '-P 2yn'
_space_group_name_H-M_alt        'P 1 21/n 1'
_symmetry_space_group_name_Hall  '-P 2yn'
_symmetry_space_group_name_H-M   'P 1 21/n 1'
_atom_sites_solution_hydrogens   mixed
_audit_creation_method           SHELXL-2013
_cell_angle_alpha                90
_cell_angle_beta                 115.482(3)
_cell_angle_gamma                90
_cell_formula_units_Z            4
_cell_length_a                   7.9568(17)
_cell_length_b                   8.7449(19)
_cell_length_c                   9.098(2)
_cell_measurement_reflns_used    2180
_cell_measurement_temperature    268(2)
_cell_measurement_theta_max      27.65
_cell_measurement_theta_min      3.40
_cell_volume                     571.5(2)
_computing_cell_refinement       'Bruker SAINT'
_computing_data_collection       'Bruker APEX2'
_computing_data_reduction        'Bruker SAINT'
_computing_molecular_graphics    'Bruker SHELXTL'
_computing_publication_material  'Bruker SHELXTL'
_computing_structure_refinement  'SHELXL-2013 (Sheldrick, 2013)'
_computing_structure_solution    'SHELXS-97 (Sheldrick 2008)'
_diffrn_ambient_temperature      268(2)
_diffrn_measured_fraction_theta_full 1.000
_diffrn_measured_fraction_theta_max 0.999
_diffrn_measurement_device_type  'Bruker APEX-II CCD'
_diffrn_measurement_method       '\f and \w scans'
_diffrn_radiation_type           MoK\a
_diffrn_radiation_wavelength     0.71073
_diffrn_reflns_av_R_equivalents  0.0320
_diffrn_reflns_av_unetI/netI     0.0255
_diffrn_reflns_Laue_measured_fraction_full 1.000
_diffrn_reflns_Laue_measured_fraction_max 0.999
_diffrn_reflns_limit_h_max       10
_diffrn_reflns_limit_h_min       -10
_diffrn_reflns_limit_k_max       11
_diffrn_reflns_limit_k_min       -11
_diffrn_reflns_limit_l_max       12
_diffrn_reflns_limit_l_min       -12
_diffrn_reflns_number            8287
_diffrn_reflns_point_group_measured_fraction_full 1.000
_diffrn_reflns_point_group_measured_fraction_max 0.999
_diffrn_reflns_theta_full        25.242
_diffrn_reflns_theta_max         28.243
_diffrn_reflns_theta_min         2.853
_exptl_absorpt_coefficient_mu    0.125
_exptl_absorpt_process_details   SADBAS
_exptl_crystal_colour            colorless
_exptl_crystal_density_diffrn    1.489
_exptl_crystal_description       block
_exptl_crystal_F_000             268
_exptl_crystal_size_max          0.30
_exptl_crystal_size_mid          0.22
_exptl_crystal_size_min          0.20
_refine_diff_density_max         0.313
_refine_diff_density_min         -0.183
_refine_diff_density_rms         0.043
_refine_ls_extinction_method     none
_refine_ls_goodness_of_fit_ref   1.013
_refine_ls_hydrogen_treatment    mixed
_refine_ls_matrix_type           full
_refine_ls_number_parameters     87
_refine_ls_number_reflns         1412
_refine_ls_number_restraints     0
_refine_ls_restrained_S_all      1.013
_refine_ls_R_factor_all          0.0625
_refine_ls_R_factor_gt           0.0414
_refine_ls_shift/su_max          0.003
_refine_ls_shift/su_mean         0.001
_refine_ls_structure_factor_coef Fsqd
_refine_ls_weighting_details
'w=1/[\s^2^(Fo^2^)+(0.0504P)^2^+0.2280P] where P=(Fo^2^+2Fc^2^)/3'
_refine_ls_weighting_scheme      calc
_refine_ls_wR_factor_gt          0.0978
_refine_ls_wR_factor_ref         0.1109
_reflns_Friedel_coverage         0.000
_reflns_number_gt                1051
_reflns_number_total             1412
_reflns_threshold_expression     'I > 2\s(I)'
_cod_data_source_file            ja5111927_si_019.cif
_cod_data_source_block           RacPGA270K
_cod_depositor_comments
'Adding full bibliography for 4123369--4123385.cif.'
_cod_database_code               4123370
#BEGIN Tags that were not found in dictionaries:
_shelx_space_group_comment
;
The symmetry employed for this shelxl refinement is uniquely defined
by the following loop, which should always be used as a source of
symmetry information in preference to the above space-group names.
They are only intended as comments.
;
_shelxl_version_number           2013-4
_shelx_res_file
;
TITL RecPGA270K in P2(1)/n
CELL  0.71073   7.9568   8.7449   9.0984   90.000  115.482   90.000
ZERR     4.00   0.0017   0.0019   0.0020    0.000    0.003    0.000
LATT   1
SYMM  1/2 - X, 1/2 + Y, 1/2 - Z
SFAC  C    H    N    O
UNIT  20   24   4    12
MERG   2
EQIV $1 -0.5+X,1.5-Y,0.5+Z
EQIV $2 -X,1-Y,1-Z
HTAB O1 O3_$1
HTAB N1 O2_$2
FMAP   2
PLAN   10
ACTA
HTAB    2.00000
BOND
CONF
L.S.   4
TEMP    -4.88
WGHT    0.050400    0.228000
FVAR       0.99095
O3    4    0.341601    0.552345    0.309548    11.00000    0.04429    0.03674 =
         0.03784   -0.00664    0.02703   -0.00693
O1    4    0.095813    0.888435    0.717262    11.00000    0.04501    0.03690 =
         0.05176   -0.01770    0.03190   -0.01135
AFIX 147
H1    2    0.006338    0.895455    0.739164    11.00000   -1.50000
AFIX   0
N1    3    0.232424    0.614044    0.495294    11.00000    0.03606    0.02189 =
         0.03600   -0.00396    0.02190   -0.00787
O2    4   -0.058611    0.688087    0.572326    11.00000    0.04718    0.04826 =
         0.08293   -0.03247    0.04145   -0.02253
C5    1    0.333330    0.639542    0.413394    11.00000    0.02825    0.02606 =
         0.02923    0.00304    0.01407   -0.00013
C2    1    0.258435    0.727778    0.619583    11.00000    0.03157    0.02314 =
         0.02597   -0.00102    0.01322   -0.00247
AFIX  13
H2A   2    0.349425    0.689175    0.724987    11.00000   -1.20000
AFIX   0
C1    1    0.079761    0.764479    0.631890    11.00000    0.03770    0.02531 =
         0.03097   -0.00303    0.01929   -0.00539
C3    1    0.344574    0.862922    0.568342    11.00000    0.03828    0.02550 =
         0.04275   -0.00305    0.02151   -0.00822
AFIX  23
H3B   2    0.249682    0.935784    0.503487    11.00000   -1.20000
H3A   2    0.436775    0.914907    0.662795    11.00000   -1.20000
AFIX   0
C4    1    0.434603    0.788916    0.468097    11.00000    0.03911    0.03121 =
         0.04728   -0.00110    0.02612   -0.00919
AFIX  23
H4B   2    0.418563    0.852256    0.375462    11.00000   -1.20000
H4A   2    0.566541    0.772217    0.533846    11.00000   -1.20000
AFIX   0
H2    2    0.179615    0.529377    0.491281    11.00000    0.04185
HKLF    4

REM  RecPGA270K in P2(1)/n
REM R1 =  0.0414 for    1051 Fo > 4sig(Fo)  and  0.0625 for all    1412 data
REM     87 parameters refined using      0 restraints

END

WGHT      0.0499      0.2297

REM Instructions for potential hydrogen bonds
HTAB O1 O3_$1
HTAB N1 O2_$2

REM Highest difference peak  0.313,  deepest hole -0.183,  1-sigma level  0.043
Q1    1   0.1641  0.7368  0.6161  11.00000  0.05    0.31
Q2    1   0.3898  0.7117  0.4358  11.00000  0.05    0.24
Q3    1   0.2272  0.6781  0.5435  11.00000  0.05    0.22
Q4    1   0.2982  0.8000  0.5953  11.00000  0.05    0.20
Q5    1   0.0364  0.6838  0.6632  11.00000  0.05    0.19
Q6    1   0.3931  0.8202  0.5116  11.00000  0.05    0.19
Q7    1   0.4072  0.5833  0.2656  11.00000  0.05    0.19
Q8    1  -0.0496  0.7551  0.5367  11.00000  0.05    0.18
Q9    1   0.3148  0.6107  0.4823  11.00000  0.05    0.17
Q10   1   0.5207  0.8221  0.4399  11.00000  0.05    0.15
;
_shelx_res_checksum              34113
_shelx_hkl_file
;
  -1   0   0   -0.20    0.60
   1   0   0    0.70    0.60
   1   0   0    0.10    0.30
  -1   0   0   -0.20    0.60
  -1   0   0   -0.90    0.80
  -2   0   0  150.38    4.30
  -2   0   0  151.08    4.00
  -2   0   0  147.69    4.70
   2   0   0  155.88    3.30
   3   0   0    0.20    0.70
   3   0   0    0.20    1.00
  -3   0   0   -0.10    1.50
   3   0   0   -0.70    1.50
  -3   0   0    1.00    1.20
  -3   0   0    1.10    1.30
   4   0   0  194.98    6.90
   4   0   0  189.88    4.60
  -4   0   0  196.58    6.10
  -4   0   0  188.18    6.80
   4   0   0  186.88    5.60
  -4   0   0  202.98    5.80
   5   0   0   -0.60    1.90
  -5   0   0    0.80    1.30
  -5   0   0   -0.50    1.70
   5   0   0   -0.60    1.20
   5   0   0   -0.40    0.80
  -5   0   0   -1.00    1.80
  -6   0   0  120.29    5.10
   6   0   0  125.39    3.90
   6   0   0  113.99    6.40
   6   0   0  126.19    5.10
  -6   0   0  123.89    6.60
   6   0   0  123.69    3.90
  -6   0   0  123.19    5.80
  -7   0   0   -0.50    2.40
  -7   0   0   -2.30    2.40
   7   0   0    1.80    2.90
   7   0   0   -0.70    1.10
   8   0   0   19.90    4.50
  -8   0   0   17.40    4.60
  -8   0   0   12.70    3.40
   8   0   0   15.10    1.90
   9   0   0    1.30    1.20
  -9   0   0   -3.90    3.00
   9   0   0    2.40    3.60
  -9   0   0   -2.90    2.80
   0  -1   0   -2.80    0.50
   0  -1   0   -1.30    0.40
   0  -1   0   -2.40    0.60
   0  -1   0   -0.80    0.60
   0   1   0   -1.70    0.40
   0   1   0   -3.00    0.60
   0   1   0   -0.40    0.60
   0   1   0   -2.30    0.60
   1  -1   0  214.48    4.70
   1  -1   0  201.78    4.50
  -1  -1   0  217.48    4.20
  -1  -1   0  215.98    4.90
  -1  -1   0  215.58    5.20
   1  -1   0  202.88    4.60
  -1  -1   0  210.88    4.80
   1   1   0  212.78    4.20
  -1   1   0  204.18    4.70
  -1   1   0  206.98    4.60
   1   1   0  213.08    4.90
  -1   1   0  208.58    5.30
   1   1   0  215.88    4.80
   1   1   0  213.18    4.20
   2  -1   0  866.21   17.00
   2  -1   0  894.41   16.30
  -2  -1   0  823.82   16.80
  -2  -1   0  841.92   17.80
   2  -1   0  854.21   16.20
  -2  -1   0  839.32   17.90
  -2   1   0  861.51   18.30
   2   1   0  881.31   15.40
  -2   1   0  856.11   16.70
   2   1   0  852.91   17.90
   3  -1   0  408.66    8.70
   3  -1   0  411.16    8.80
  -3  -1   0  432.76   10.00
   3  -1   0  403.46    9.00
  -3  -1   0  408.16    9.70
  -3  -1   0  420.16   10.40
  -3   1   0  413.26    9.60
   3   1   0  418.86    7.80
  -3   1   0  418.36   10.80
   3   1   0  414.56   10.30
   4  -1   0   30.40    2.10
   4  -1   0   29.40    2.10
  -4  -1   0   29.20    3.00
  -4  -1   0   29.70    2.60
   4  -1   0   27.70    3.30
  -4  -1   0   28.70    2.90
   4  -1   0   30.90    2.00
  -4   1   0   28.80    2.70
  -4   1   0   31.60    3.30
   4   1   0   30.80    3.00
   4   1   0   26.30    1.30
  -5  -1   0   25.30    2.70
   5  -1   0   24.50    2.10
   5  -1   0   24.60    2.20
  -5  -1   0   22.10    3.00
   5  -1   0   20.20    3.30
  -5  -1   0   18.80    2.70
   5  -1   0   19.10    1.90
   5   1   0   21.30    3.20
  -5   1   0   18.90    3.10
   5   1   0   18.10    1.30
  -5   1   0   19.60    2.60
  -6  -1   0   24.00    3.00
   6  -1   0   27.00    3.90
   6  -1   0   28.20    2.40
   6  -1   0   27.50    2.40
  -6  -1   0   24.30    3.60
  -6  -1   0   24.50    3.30
  -6   1   0   25.10    3.40
   6   1   0   28.80    3.10
   6   1   0   24.90    1.70
   6   1   0   24.20    3.70
  -6   1   0   25.20    4.10
  -7  -1   0   22.00    3.70
   7  -1   0   16.20    2.20
   7  -1   0   22.00    4.30
  -7  -1   0   20.10    4.10
   7   1   0   19.30    1.50
  -7   1   0   20.40    4.00
   7   1   0   20.60    1.70
  -7   1   0   23.70    3.60
   7   1   0   22.50    4.20
  -8  -1   0   82.09    6.00
   8  -1   0   75.29    4.00
  -8  -1   0   83.09    7.30
   8  -1   0   68.59    7.00
   8   1   0   74.99    7.20
   8   1   0   74.59    2.60
  -8   1   0   65.29    6.80
  -8   1   0   77.39    6.10
  -9  -1   0    4.60    3.20
   9  -1   0   -0.30    1.50
   9  -1   0   -2.00    3.20
  -9   1   0    3.40    3.30
  -9   1   0   -0.40    3.50
   9   1   0    7.40    4.30
   0  -2   0 2369.16   46.50
   0  -2   0 2398.56   43.10
   0  -2   0 2454.55   46.00
   0   2   0 2388.76   46.00
   0   2   0 2370.36   43.60
   0   2   0 2386.46   43.10
   0   2   0 2399.06   43.10
  -1  -2   0  179.48    4.00
   1  -2   0  161.68    4.60
   1  -2   0  168.18    4.40
  -1  -2   0  176.38    4.20
  -1  -2   0  171.28    5.10
   1  -2   0  171.08    4.70
   1   2   0  177.98    4.00
   1   2   0  172.98    4.20
  -1   2   0  166.38    4.60
   1   2   0  181.68    4.20
  -1   2   0  159.48    4.70
  -1   2   0  164.88    4.60
   1   2   0  177.08    4.80
   2  -2   0  452.85    9.60
   2  -2   0  460.85    9.80
  -2  -2   0  439.46   10.10
   2  -2   0  456.15    9.80
  -2  -2   0  447.66   10.80
   2   2   0  447.16   10.10
  -2   2   0  465.25   11.00
   2   2   0  449.16   10.10
   2   2   0  440.46    8.90
   2   2   0  446.56    8.90
  -2   2   0  476.65   10.10
  -3  -2   0 2420.56   45.70
   3  -2   0 2449.66   44.60
  -3  -2   0 2412.96   48.40
  -3  -2   0 2433.76   48.60
   3  -2   0 2472.65   44.60
   3  -2   0 2422.06   46.90
  -3   2   0 2404.56   49.30
   3   2   0 2434.26   43.20
  -3   2   0 2397.36   45.40
   3   2   0 2457.15   45.80
   3   2   0 2434.96   48.50
  -4  -2   0   47.40    3.30
   4  -2   0   45.80    2.70
   4  -2   0   45.30    2.70
  -4  -2   0   36.60    3.00
   4  -2   0   36.80    2.10
  -4  -2   0   45.40    3.20
  -4   2   0   47.30    3.70
   4   2   0   39.20    1.60
  -4   2   0   45.20    3.30
   4   2   0   40.00    2.90
   5  -2   0   63.69    4.80
  -5  -2   0   65.09    4.20
   5  -2   0   65.79    3.40
  -5  -2   0   61.19    4.00
   5  -2   0   57.99    3.30
   5  -2   0   58.49    2.90
  -5  -2   0   61.79    3.90
  -5   2   0   64.29    4.70
   5   2   0   63.09    2.00
   5   2   0   60.49    4.00
  -5   2   0   57.69    4.00
   6  -2   0  249.18    9.90
   6  -2   0  221.88    6.90
  -6  -2   0  233.08    8.90
  -6  -2   0  226.88    8.30
  -6  -2   0  227.08    8.20
  -6   2   0  237.88    9.60
   6   2   0  227.08    5.00
   6   2   0  213.98    8.80
  -6   2   0  240.38    8.40
   7  -2   0    3.50    1.80
   7  -2   0    2.50    3.10
  -7  -2   0    4.50    3.00
  -7  -2   0    1.00    2.40
  -7  -2   0    4.50    2.80
   7   2   0   -0.20    2.30
   7   2   0    2.00    0.60
  -7   2   0    4.30    3.20
  -7   2   0    2.90    2.60
   7   2   0    1.70    2.20
  -8  -2   0   12.40    3.70
   8  -2   0   10.60    4.00
   8  -2   0   11.10    2.40
  -8   2   0    7.60    3.70
   8   2   0   11.20    3.90
   8   2   0   14.50    3.90
  -8   2   0    9.70    3.10
   9  -2   0    8.00    2.30
  -9  -2   0   10.10    3.90
   9  -2   0   18.30    4.90
  -9   2   0    8.70    4.20
   9   2   0    5.50    3.80
   9   2   0   14.30    4.30
   0  -3   0   -2.00    1.30
   0  -3   0    0.70    1.20
   0   3   0    0.30    1.20
   0   3   0    2.40    0.80
   0   3   0   -1.40    1.20
  -1  -3   0  563.24   11.30
   1  -3   0  543.75   11.80
   1  -3   0  532.55   12.10
  -1  -3   0  562.94   11.10
  -1  -3   0  571.14   13.00
  -1   3   0  541.65   12.10
   1   3   0  539.05   11.40
   1   3   0  538.95   11.30
   1   3   0  541.15   12.00
  -1   3   0  534.95   11.80
  -1   3   0  538.95   11.80
   1   3   0  557.04   11.10
  -2  -3   0   33.70    2.90
   2  -3   0   22.10    2.20
  -2  -3   0   29.40    2.60
   2  -3   0   28.00    2.00
   2   3   0   30.10    2.60
   2   3   0   34.00    2.00
   2   3   0   31.60    2.00
  -2   3   0   25.50    2.50
  -2   3   0   30.40    2.50
  -2   3   0   31.20    2.60
   2   3   0   29.30    1.80
  -3  -3   0   10.40    2.10
  -3  -3   0   14.90    2.50
   3  -3   0   15.20    1.50
   3  -3   0   16.10    2.20
   3  -3   0    9.20    1.70
  -3   3   0   10.40    1.90
   3   3   0   14.10    1.80
   3   3   0   12.10    1.40
   3   3   0   11.00    2.10
  -3   3   0   17.50    2.60
   4  -3   0  246.78    6.20
  -4  -3   0  255.87    8.00
  -4  -3   0  249.48    8.30
   4  -3   0  243.98    7.30
   4  -3   0  243.98    7.10
   4   3   0  248.28    7.50
  -4   3   0  240.68    8.40
   4   3   0  241.58    5.70
  -4   3   0  240.38    7.40
   4   3   0  267.77    8.20
   5  -3   0    5.40    2.60
  -5  -3   0    4.50    2.30
  -5  -3   0   -0.10    2.10
   5  -3   0    1.50    1.60
   5   3   0    4.60    1.90
   5   3   0    3.70    0.90
   5   3   0    0.70    2.20
  -5   3   0    2.10    2.00
  -5   3   0    2.70    2.20
   6  -3   0   35.90    4.80
  -6  -3   0   36.80    4.10
   6  -3   0   39.60    3.60
  -6  -3   0   36.10    4.10
  -6   3   0   42.00    5.10
  -6   3   0   36.90    4.00
   6   3   0   36.00    1.70
   6   3   0   34.50    4.10
   6   3   0   39.30    4.20
   7  -3   0    5.40    2.10
  -7  -3   0    0.20    2.40
  -7  -3   0    1.00    2.60
   7  -3   0    1.90    3.20
  -7   3   0    1.10    3.00
  -7   3   0    5.70    2.50
   7   3   0    7.30    3.00
   7   3   0    2.20    2.60
   8  -3   0   67.39    7.30
   8  -3   0   71.39    4.90
  -8  -3   0   63.29    6.20
  -8   3   0   70.99    6.20
   8   3   0   76.89    6.40
   8   3   0   62.49    6.30
  -8   3   0   62.99    7.00
  -9  -3   0    8.60    3.60
   9  -3   0    4.90    4.10
   9  -3   0   10.10    2.80
   9   3   0    8.90    4.00
   9   3   0    1.40    3.00
  -9   3   0    5.10    4.00
   0  -4   0  477.05   11.80
   0  -4   0  490.05   11.00
   0   4   0  459.95   10.90
   0   4   0  473.85   11.20
   0   4   0  469.55   10.20
  -1  -4   0  267.57    8.30
   1  -4   0  292.07    7.80
   1  -4   0  291.77    7.80
  -1  -4   0  289.77    7.40
  -1   4   0  298.27    8.00
   1   4   0  280.67    7.90
  -1   4   0  303.87    7.50
   1   4   0  284.77    7.40
   1   4   0  281.47    7.50
  -1   4   0  296.07    7.80
   1   4   0  292.57    6.30
  -2  -4   0  151.18    5.90
   2  -4   0  134.69    4.60
   2  -4   0  135.89    5.20
  -2   4   0  134.69    5.10
   2   4   0  145.29    4.50
   2   4   0  133.59    5.20
  -2   4   0  136.79    5.10
  -2   4   0  139.19    5.10
   2   4   0  139.19    3.80
   2   4   0  130.49    4.40
   3  -4   0  371.46    9.80
   3  -4   0  380.86    9.00
  -3  -4   0  359.46   10.70
  -3  -4   0  375.16   10.10
   3   4   0  377.66    8.50
  -3   4   0  368.46    9.80
   3   4   0  359.06    8.50
   3   4   0  367.16   10.10
   3   4   0  364.36    8.90
  -3   4   0  360.36   10.40
   4  -4   0   27.10    3.00
  -4  -4   0   29.10    3.70
   4  -4   0   27.10    2.00
  -4  -4   0   22.60    3.00
  -4   4   0   21.90    3.30
   4   4   0   24.30    2.00
   4   4   0   25.00    3.20
   4   4   0   25.70    2.70
  -4   4   0   26.70    3.00
   5  -4   0   -1.00    2.30
  -5  -4   0    1.30    2.20
   5  -4   0    3.60    2.10
  -5  -4   0    7.70    2.60
  -5   4   0    6.10    2.70
   5   4   0    3.70    1.20
   5   4   0    4.00    1.90
   5   4   0    4.80    2.40
  -5   4   0    3.20    2.30
   6  -4   0   58.89    4.50
  -6  -4   0   70.79    5.30
   6  -4   0   47.70    5.50
  -6  -4   0   64.99    5.10
   6   4   0   61.49    2.60
   6   4   0   56.99    5.40
   6   4   0   69.29    4.80
  -6   4   0   51.79    5.50
  -6   4   0   61.49    4.70
   7  -4   0   21.90    4.30
   7  -4   0   15.60    3.00
  -7  -4   0   20.30    4.00
  -7  -4   0   16.20    3.60
   7   4   0   18.80    1.40
   7   4   0   19.20    4.10
  -7   4   0   21.90    3.90
  -7   4   0   16.10    4.20
   7   4   0   16.20    3.50
   8  -4   0    3.40    3.70
  -8  -4   0    1.70    2.90
   8  -4   0   -0.20    2.30
  -8   4   0    2.70    3.60
   8   4   0    2.50    3.00
  -8   4   0    0.40    2.90
   0  -5   0   -1.50    1.80
   0  -5   0    1.30    1.50
   0   5   0   -0.10    0.90
   0   5   0   -0.50    1.70
   0   5   0    1.00    1.50
  -1  -5   0  530.15   13.80
  -1  -5   0  538.25   12.30
   1  -5   0  510.95   12.60
   1  -5   0  528.75   13.20
   1   5   0  545.35   11.00
   1   5   0  526.15   12.90
   1   5   0  543.15   12.40
  -1   5   0  526.35   12.80
   1   5   0  524.35   12.40
  -1   5   0  522.85   12.80
  -1   5   0  528.15   12.30
  -2  -5   0   16.70    2.90
   2  -5   0   14.80    2.50
   2  -5   0   17.70    2.30
  -2   5   0   15.70    2.40
   2   5   0   16.50    2.70
  -2   5   0   20.10    2.70
   2   5   0   19.30    1.30
  -2   5   0   16.40    2.30
   2   5   0   15.00    2.10
   2   5   0   16.10    2.10
   3  -5   0   35.10    3.40
  -3  -5   0   38.00    4.00
   3  -5   0   34.40    2.50
   3   5   0   36.20    2.70
   3   5   0   30.00    3.40
  -3   5   0   39.80    3.30
   3   5   0   31.70    2.70
  -3   5   0   31.80    3.50
   3   5   0   27.80    2.20
   4  -5   0   14.80    1.90
  -4  -5   0    7.90    2.80
   4  -5   0   13.70    2.60
  -4   5   0    9.80    2.70
   4   5   0    8.60    1.70
   4   5   0   11.70    2.80
   4   5   0   12.30    2.00
  -4   5   0   15.50    2.80
   5  -5   0   81.59    5.00
   5  -5   0   84.79    5.90
  -5  -5   0   86.89    5.60
  -5  -5   0   82.79    5.80
   5   5   0   87.39    5.80
   5   5   0   91.29    3.80
  -5   5   0   85.79    5.10
  -5   5   0   88.69    5.90
  -6  -5   0    1.10    3.00
   6  -5   0    0.60    3.00
  -6  -5   0    1.30    2.60
   6  -5   0    0.10    2.40
   6   5   0    2.10    2.60
   6   5   0   -2.00    1.10
  -6   5   0    1.30    2.70
  -6   5   0   -0.70    2.50
   7  -5   0    6.80    3.60
  -7  -5   0    7.20    3.70
  -7  -5   0   11.40    3.90
   7  -5   0    6.50    2.80
   7   5   0    8.20    3.80
  -7   5   0    4.10    3.50
   7   5   0    7.70    1.40
  -7   5   0    3.80    2.90
  -8  -5   0   11.90    4.50
   8  -5   0   13.20    3.30
  -8  -5   0   12.60    4.10
   8  -5   0   14.50    4.60
  -8   5   0   15.10    3.80
  -8   5   0   15.10    4.40
   8   5   0   10.10    4.20
   0  -6   0  122.59    5.80
   0  -6   0  138.29    5.80
   0   6   0  133.39    6.00
   0   6   0  132.79    5.50
   0   6   0  137.49    4.20
   1  -6   0    9.30    2.40
  -1  -6   0   10.30    2.60
   1  -6   0   10.30    2.40
   1   6   0    9.90    2.40
  -1   6   0   10.00    2.90
  -1   6   0   11.90    1.90
   1   6   0   10.80    2.20
  -1   6   0   16.10    2.80
   1   6   0   11.90    1.00
   2  -6   0   27.90    3.10
  -2  -6   0   27.50    3.70
   2  -6   0   31.50    3.60
   2   6   0   21.10    2.60
  -2   6   0   28.90    2.90
   2   6   0   26.50    3.40
  -2   6   0   32.60    3.50
  -2   6   0   28.80    3.40
   3  -6   0    1.90    1.80
  -3  -6   0    1.40    2.40
   3  -6   0   -1.20    2.10
   3   6   0    3.70    1.70
  -3   6   0    1.80    2.00
  -3   6   0   -1.20    2.60
   3   6   0    0.50    2.20
  -4  -6   0    9.70    3.10
   4  -6   0    8.60    2.60
   4   6   0   12.70    3.20
  -4   6   0    8.30    2.70
   4   6   0    9.50    2.10
  -4   6   0    7.90    2.70
   5  -6   0  140.19    7.90
   5  -6   0  138.99    7.00
  -5  -6   0  137.89    8.00
   5   6   0  141.99    5.50
   5   6   0  156.08    7.70
  -5   6   0  137.99    7.00
  -5   6   0  138.79    7.70
  -6  -6   0   62.29    6.30
   6  -6   0   72.59    5.80
   6  -6   0   92.49    6.90
  -6   6   0   69.79    6.30
  -6   6   0   70.79    5.70
   6   6   0   85.19    6.60
   6   6   0   76.99    3.90
   7  -6   0    5.70    3.60
   7  -6   0    8.10    3.30
  -7  -6   0    5.90    3.80
  -7   6   0    3.90    3.20
   7   6   0    2.60    1.50
  -7   6   0    3.70    3.40
   7   6   0    4.20    3.40
   8  -6   0    7.70    4.40
   8  -6   0    2.40    2.90
  -8  -6   0   -1.90    3.00
  -8   6   0    2.30    3.90
   8   6   0   -3.20    3.00
   0  -7   0    2.50    2.30
   0   7   0    2.30    2.40
   0   7   0    1.80    2.00
  -1  -7   0    0.30    2.50
   1  -7   0    0.60    2.00
   1  -7   0   -0.10    2.00
   1   7   0   -0.30    1.80
   1   7   0   -2.40    2.20
  -1   7   0    2.20    1.40
  -1   7   0   -0.40    2.00
  -1   7   0    5.50    2.90
  -2  -7   0  326.77   11.50
   2  -7   0  316.97   10.30
   2  -7   0  311.97    9.90
  -2   7   0  320.37   10.70
  -2   7   0  301.97    9.20
   2   7   0  309.97    9.50
  -2   7   0  299.77   10.40
   2   7   0  306.07   10.40
   3  -7   0   30.60    3.40
  -3  -7   0   24.30    4.10
   3  -7   0   19.70    3.50
   3   7   0   26.00    3.10
  -3   7   0   27.80    4.10
  -3   7   0   31.80    3.70
   3   7   0   32.00    4.20
   4  -7   0   66.29    5.20
  -4  -7   0   67.19    5.90
   4  -7   0   71.89    5.90
   4   7   0   65.49    4.40
  -4   7   0   70.49    5.20
   4   7   0   75.59    5.90
  -4   7   0   70.99    5.90
  -5  -7   0    7.30    3.50
   5  -7   0   13.80    3.60
   5  -7   0   11.70    3.40
  -5   7   0   15.90    3.60
   5   7   0   19.90    4.40
  -5   7   0   15.90    3.70
   5   7   0   10.60    2.30
  -6  -7   0   -2.10    2.90
   6  -7   0    1.90    2.90
   6  -7   0    0.80    2.80
   6   7   0    2.60    3.50
  -6   7   0   -1.00    2.90
   6   7   0    0.10    1.70
  -6   7   0    5.00    3.00
  -7  -7   0   -1.30    3.50
   7  -7   0   -0.80    3.10
   7  -7   0    3.70    3.80
   7   7   0    6.80    3.70
  -7   7   0    1.80    3.60
  -7   7   0    6.90    3.40
   0  -8   0  115.59    6.60
   0   8   0  121.69    7.10
  -1  -8   0   -1.30    2.50
   1  -8   0    2.50    2.70
   1   8   0    2.20    2.70
  -1   8   0    0.00    2.40
   1   8   0    0.60    2.10
  -1   8   0    1.30    3.10
   2  -8   0   70.99    5.20
  -2  -8   0   61.59    6.10
   2   8   0   64.89    6.00
   2   8   0   69.69    5.00
  -2   8   0   67.29    5.80
  -3  -8   0  204.28    9.80
  -3   8   0  207.08    8.10
   3   8   0  203.88    8.00
  -3   8   0  195.68    8.80
   3   8   0  216.28    9.40
   4  -8   0   -2.70    2.90
   4  -8   0   -1.10    2.50
  -4  -8   0   -0.10    3.00
   4   8   0   -4.80    1.70
  -4   8   0    3.70    2.80
   4   8   0    1.50    3.10
  -4   8   0    2.50    2.60
   5  -8   0    4.10    3.20
  -5  -8   0    4.00    3.50
   5  -8   0    6.10    3.20
   5   8   0    4.20    2.30
  -5   8   0    1.70    3.10
   5   8   0    5.50    4.00
  -5   8   0    6.40    3.40
  -6  -8   0   -0.30    3.40
   6  -8   0    6.40    3.70
   6  -8   0    3.00    3.20
   6   8   0   -2.40    4.00
  -6   8   0    1.20    2.70
  -6   8   0    2.90    3.20
   6   8   0   -1.90    1.80
   0  -9   0    2.90    3.20
   0   9   0    3.90    2.60
   0   9   0   -3.00    2.80
   1  -9   0    5.70    3.20
  -1  -9   0    4.20    3.20
   1   9   0   10.60    3.00
  -1   9   0    3.20    3.80
   1   9   0    5.00    3.20
   2  -9   0    0.10    2.60
  -2  -9   0    0.70    3.20
   2   9   0   -0.90    2.50
  -2   9   0   -2.90    3.30
   2   9   0   -0.60    2.80
  -3  -9   0   17.60    4.50
   3   9   0   19.20    3.50
   3   9   0   21.20    4.70
  -3   9   0   12.20    4.20
  -4  -9   0   81.19    8.00
  -4   9   0   78.59    6.40
   4   9   0   86.89    7.90
   4   9   0   81.59    5.90
  -5  -9   0   23.60    5.30
   5   9   0   24.30    5.30
   5   9   0   24.90    3.90
  -5   9   0   16.40    4.50
  -6  -9   0    8.60    4.50
  -6   9   0    7.10    3.70
   6   9   0    7.40    4.20
   6   9   0    6.90    2.60
   0 -10   0    1.90    3.50
   0  10   0    1.30    2.90
   0  10   0   -3.00    3.50
   1 -10   0   12.40    3.60
  -1 -10   0   13.60    4.50
   1  10   0   12.10    4.40
  -1  10   0    9.90    4.50
   1  10   0    9.40    3.30
  -2 -10   0   10.10    3.90
   2  10   0   12.80    3.60
  -2  10   0   17.90    4.90
   2  10   0   16.50    4.50
  -3 -10   0   77.09    7.90
   3  10   0   78.29    6.40
   3  10   0   82.39    8.00
  -3  10   0   81.09    7.50
  -4 -10   0   19.20    5.40
  -4  10   0   12.80    4.10
   4  10   0   19.70    3.90
   4  10   0   19.90    4.90
   0 -11   0   -1.70    3.10
   0  11   0   -1.00    3.90
   1 -11   0   11.20    3.80
  -1 -11   0   11.20    4.30
   1  11   0   16.60    5.20
  -1  11   0   10.10    5.10
  -2 -11   0    4.40    3.80
   2  11   0   -1.60    2.70
   2  11   0   -2.00    3.70
  -2  11   0    1.70    4.20
  -3 -11   0    3.10    4.10
   3  11   0   -4.10    4.40
  -3  11   0   -1.20    4.20
   3  11   0    4.20    3.20
  -9   0   1   11.60    3.90
   9   0  -1   26.90    5.20
   9   0  -1   13.10    2.10
  -8   0   1   -0.70    2.90
   8   0  -1    0.70    1.40
   8   0  -1    1.70    3.00
  -8   0   1    3.40    2.80
   7   0  -1  546.05   12.00
  -7   0   1  542.25   16.20
  -7   0   1  528.35   14.70
   7   0  -1  541.55   16.30
  -6   0   1    2.40    2.20
   6   0  -1   -2.40    2.10
   6   0  -1   -0.40    1.10
  -6   0   1    1.10    1.30
   6   0  -1    2.40    1.30
  -6   0   1    0.40    2.20
  -5   0   1   57.79    2.80
  -5   0   1   53.49    4.30
  -5   0   1   54.79    3.70
   5   0  -1   54.79    2.60
   5   0  -1   60.79    4.30
  -4   0   1    0.30    1.50
   4   0  -1    0.00    1.80
  -4   0   1   -1.30    1.00
  -4   0   1    0.40    1.60
   4   0  -1   -0.20    0.90
   3   0  -1 1289.47   27.40
  -3   0   1 1362.56   25.90
   3   0  -1 1309.17   24.20
  -3   0   1 1293.07   25.50
  -3   0   1 1306.57   27.40
   2   0  -1   -1.30    0.80
  -2   0   1   -0.60    1.20
   2   0  -1   -1.10    1.20
  -2   0   1    0.30    0.80
  -2   0   1   -2.30    1.20
  -1   0   1    3.10    0.70
   1   0  -1    4.50    0.90
   1   0  -1    3.60    0.70
  -1   0   1    4.80    0.90
   1   0  -1    4.60    0.70
   0   0   1   -1.70    0.70
   0   0  -1   -1.30    0.50
   0   0  -1    1.60    0.70
   0   0   1   -1.40    0.50
  -1   0  -1  130.09    3.90
   1   0   1  127.29    2.90
  -1   0  -1  128.19    3.90
  -1   0  -1  130.69    3.10
   1   0   1  130.49    3.90
  -2   0  -1   -1.10    1.00
   2   0   1   -0.30    0.50
  -2   0  -1    1.20    1.40
  -2   0  -1   -0.60    1.30
   2   0   1   -1.00    1.10
   3   0   1  231.78    5.00
  -3   0  -1  240.08    7.30
  -3   0  -1  241.88    6.70
  -3   0  -1  234.18    6.30
   3   0   1  232.98    6.60
   3   0   1  230.08    5.00
   4   0   1   -1.50    0.60
   4   0   1    0.40    0.70
  -4   0  -1    0.10    1.70
  -4   0  -1    1.20    1.50
  -4   0  -1    0.30    1.40
   4   0   1    1.20    1.30
  -5   0  -1  198.18    6.80
   5   0   1  205.08    6.80
  -5   0  -1  202.08    8.00
   5   0   1  197.68    4.90
   5   0   1  207.98    8.20
  -5   0  -1  204.48    6.90
   5   0   1  198.68    4.90
   6   0   1   -0.90    0.90
   6   0   1   -0.30    2.40
   6   0   1    0.70    1.70
  -6   0  -1    1.10    2.40
  -6   0  -1   -3.40    1.80
   6   0   1    0.60    0.90
   7   0   1    0.80    1.10
  -7   0  -1   -1.30    2.70
   7   0   1    3.10    2.90
  -7   0  -1    0.80    2.40
   8   0   1    0.60    1.00
   8   0   1    3.40    3.20
  -8   0  -1    0.90    2.70
  -8   0  -1    4.60    3.30
   9   0   1   22.80    5.10
  -9   0  -1   22.20    5.20
   9  -1  -1   13.70    2.40
   9  -1  -1   18.60    5.10
  -9  -1   1   18.10    4.00
  -9   1   1   18.60    5.20
  -9   1   1   19.00    4.10
   9   1  -1   14.60    1.80
   9   1  -1   17.10    4.80
   8  -1  -1   64.09    3.90
   8  -1  -1   65.49    6.70
  -8  -1   1   58.49    5.50
   8   1  -1   58.89    3.10
  -8   1   1   61.59    5.90
  -8   1   1   63.99    6.60
   8   1  -1   50.49    5.80
  -7  -1   1    0.80    2.50
  -7  -1   1    3.20    2.70
   7  -1  -1    1.50    1.60
   7  -1  -1   -0.30    2.60
   7   1  -1    1.90    1.20
  -7   1   1    1.20    2.70
   7   1  -1    5.50    2.80
  -7   1   1    2.40    2.30
   6  -1  -1    3.70    2.50
  -6  -1   1    2.10    1.70
  -6  -1   1    3.00    2.20
  -6  -1   1   -1.50    1.90
   6  -1  -1   -0.70    1.30
  -6   1   1    1.10    1.90
  -6   1   1   -1.40    2.10
   6   1  -1    3.70    2.30
   6   1  -1    0.90    1.00
   5  -1  -1  123.39    5.80
   5  -1  -1  124.59    3.60
   5  -1  -1  122.19    4.20
  -5  -1   1  111.09    5.10
  -5  -1   1  120.19    4.60
  -5  -1   1  114.49    5.50
   5   1  -1  116.09    5.50
   5   1  -1  113.39    3.60
  -5   1   1  116.79    5.70
  -5   1   1  119.99    5.10
   4  -1  -1  205.38    7.10
   4  -1  -1  206.18    5.50
  -4  -1   1  211.18    6.00
  -4  -1   1  198.88    6.40
   4  -1  -1  211.38    4.80
  -4  -1   1  193.68    6.70
  -4   1   1  197.58    6.40
  -4   1   1  199.68    7.00
   4   1  -1  204.78    4.90
   4   1  -1  205.48    6.80
   3  -1  -1   83.29    3.90
  -3  -1   1   87.39    3.70
  -3  -1   1   85.69    3.30
   3  -1  -1   88.99    2.10
   3  -1  -1   87.79    3.10
   3  -1  -1   90.59    2.10
   3   1  -1   83.49    2.60
  -3   1   1   85.79    3.60
   3   1  -1   81.49    3.70
  -3   1   1   77.69    3.80
  -2  -1   1  160.98    4.70
   2  -1  -1  166.98    4.30
   2  -1  -1  174.78    5.10
  -2  -1   1  155.38    4.50
  -2   1   1  177.68    5.00
   2   1  -1  153.88    4.60
   2   1  -1  155.78    3.90
  -2   1   1  168.88    4.70
   1  -1  -1  384.96    7.80
   1  -1  -1  388.76    7.80
   1  -1  -1  379.66    8.30
  -1  -1   1  388.06    7.90
  -1  -1   1  375.46    8.40
   1   1  -1  372.96    7.60
  -1   1   1  399.46    7.80
   1   1  -1  383.76    8.40
  -1   1   1  386.46    7.90
   0  -1  -1  667.33   13.60
   0  -1   1  721.63   12.80
   0  -1   1  702.53   13.10
   0  -1  -1  672.33   14.10
   0  -1  -1  677.73   12.80
   0  -1   1  714.63   14.20
   0   1   1  674.83   13.60
   0   1   1  690.43   13.10
   0   1  -1  677.43   13.00
   0   1  -1  696.73   12.70
   0   1  -1  685.73   14.20
   0   1   1  668.03   12.80
  -1  -1  -1 9480.75  188.18
  -1  -1  -1 9422.56  189.58
  -1  -1  -1 9836.52  174.88
   1  -1   1 9594.44  174.58
   1  -1   1 9650.03  172.98
   1  -1   1 9735.83  188.78
  -1   1  -1 9833.32  175.38
  -1   1  -1 9728.93  191.78
  -1   1  -1 9893.01  173.38
   1   1   1 9659.63  171.78
   1   1   1 9999.00  175.98
  -2  -1  -1  516.75   11.80
   2  -1   1  513.25   10.30
   2  -1   1  523.05   10.40
  -2  -1  -1  505.35   11.90
  -2  -1  -1  517.55   11.00
   2  -1   1  525.15   11.40
   2   1   1  504.45    9.30
  -2   1  -1  528.05   10.70
   2   1   1  527.65   11.00
  -2   1  -1  524.65   12.30
   3  -1   1   91.39    3.60
   3  -1   1   95.29    3.10
  -3  -1  -1  101.59    4.40
  -3  -1  -1   99.79    4.10
  -3  -1  -1   98.69    3.80
   3  -1   1   90.29    3.10
   3   1   1   91.99    4.10
  -3   1  -1   96.09    3.70
  -3   1  -1   99.99    4.70
  -4  -1  -1  610.94   14.60
  -4  -1  -1  607.94   15.10
   4  -1   1  580.24   12.20
  -4  -1  -1  593.84   13.70
   4  -1   1  628.44   12.40
   4  -1   1  609.64   13.80
   4   1   1  594.64   14.50
   4   1   1  588.54   10.80
  -4   1  -1  585.84   15.40
  -4   1  -1  589.94   13.50
   5  -1   1   62.89    2.90
   5  -1   1   68.39    3.00
  -5  -1  -1   72.99    4.70
  -5  -1  -1   66.49    4.20
   5  -1   1   65.09    3.60
  -5  -1  -1   61.19    3.80
  -5   1  -1   62.59    4.70
   5   1   1   63.89    1.70
  -5   1  -1   69.49    4.10
   5   1   1   61.69    4.50
   5   1   1   67.79    4.10
   5   1   1   61.79    1.70
  -6  -1  -1    4.50    2.60
   6  -1   1    1.40    2.60
  -6  -1  -1    2.00    2.20
  -6  -1  -1    2.40    2.30
   6  -1   1    3.60    1.40
  -6   1  -1    3.70    2.80
  -6   1  -1    1.80    1.90
   6   1   1    2.50    2.40
   6   1   1    5.20    2.10
   6   1   1    3.00    0.60
   7  -1   1   26.60    5.00
  -7  -1  -1   28.80    4.40
  -7  -1  -1   22.40    3.60
   7  -1   1   25.10    2.40
  -7   1  -1   30.80    5.10
   7   1   1   24.90    4.30
  -7   1  -1   22.80    3.70
  -8  -1  -1   20.60    4.90
   8  -1   1   23.30    4.90
  -8  -1  -1   20.50    3.80
   8  -1   1   25.90    2.50
  -8   1  -1   25.30    4.90
   8   1   1   26.50    5.20
   8   1   1   14.00    3.50
  -9  -1  -1    1.00    3.80
   9  -1   1    1.40    1.50
   9  -1   1   -0.10    3.60
  -9   1  -1    1.50    3.60
   9   1   1    5.20    4.00
   9  -2  -1    2.50    2.10
  -9  -2   1   -1.90    2.80
   9  -2  -1    5.30    3.90
  -9   2   1    0.10    3.60
   9   2  -1    0.50    1.00
   9   2  -1    1.20    3.10
  -9   2   1   -0.70    2.70
   9   2  -1   -0.20    2.90
  -8  -2   1    9.90    3.50
   8  -2  -1   17.30    4.40
   8  -2  -1   14.00    2.60
  -8   2   1   14.80    4.00
  -8   2   1   15.00    3.50
   8   2  -1   13.70    1.60
   8   2  -1   17.80    3.90
   7  -2  -1    2.00    2.80
  -7  -2   1    5.20    3.00
  -7  -2   1    3.90    2.30
   7  -2  -1    3.30    1.80
  -7   2   1    2.10    2.80
   7   2  -1   11.70    3.30
  -7   2   1    1.70    2.40
   7   2  -1    3.80    1.20
  -6  -2   1   12.40    2.60
   6  -2  -1    5.20    2.60
   6  -2  -1   13.80    2.20
  -6  -2   1   10.60    2.70
   6   2  -1   13.70    1.50
   6   2  -1   10.90    2.70
  -6   2   1   12.60    3.10
  -6   2   1   14.90    2.80
  -5  -2   1   90.89    4.70
   5  -2  -1   79.99    2.20
   5  -2  -1   85.39    5.10
   5  -2  -1   84.29    3.90
   5  -2  -1   92.79    4.00
  -5  -2   1   83.79    4.20
  -5   2   1   82.49    5.10
   5   2  -1   83.49    2.90
   5   2  -1   88.39    4.60
  -5   2   1   83.39    4.70
  -4  -2   1  756.82   16.90
   4  -2  -1  778.82   18.30
   4  -2  -1  756.12   15.90
  -4  -2   1  776.22   17.40
   4   2  -1  761.12   17.60
  -4   2   1  753.62   16.70
  -4   2   1  763.52   18.30
   4   2  -1  767.72   14.80
  -3  -2   1   33.10    2.80
   3  -2  -1   30.30    2.80
   3  -2  -1   32.50    2.50
  -3  -2   1   28.70    2.60
   3   2  -1   28.80    1.80
  -3   2   1   28.20    2.70
  -3   2   1   27.50    2.50
   3   2  -1   29.60    2.60
   2  -2  -1  116.99    3.90
  -2  -2   1  112.79    4.00
   2  -2  -1  120.59    4.10
  -2  -2   1  113.39    3.20
  -2  -2   1  117.69    4.20
   2  -2  -1  114.19    2.90
   2   2  -1  111.59    3.40
   2   2  -1  106.89    3.70
  -2   2   1  117.89    4.00
   2   2  -1  114.99    4.00
  -2   2   1  115.29    2.90
  -2   2   1  114.89    4.20
   1  -2  -1 1197.98   22.90
  -1  -2   1 1212.08   22.60
   1  -2  -1 1205.08   24.10
  -1  -2   1 1203.28   24.70
  -1  -2   1 1226.98   23.00
   1  -2  -1 1243.68   24.10
   1   2  -1 1214.58   22.70
   1   2  -1 1218.58   23.00
  -1   2   1 1215.98   23.10
   1   2  -1 1215.38   24.20
  -1   2   1 1189.98   24.10
   0  -2  -1 2115.19   39.10
   0  -2   1 2206.38   42.50
   0  -2  -1 2147.69   42.50
   0  -2  -1 2214.78   41.30
   0  -2   1 2146.29   39.30
   0   2   1 2126.89   39.10
   0   2  -1 2158.18   39.30
   0   2   1 2182.58   39.80
   0   2   1 2175.58   41.40
   0   2  -1 2160.88   39.40
   0   2  -1 2198.38   42.50
   1  -2   1  347.77    8.00
   1  -2   1  370.06    8.50
  -1  -2  -1  349.77    8.90
  -1  -2  -1  356.16    7.70
   1  -2   1  362.86    8.00
  -1   2  -1  372.86    8.10
   1   2   1  357.96    7.40
  -1   2  -1  372.26    8.90
  -1   2  -1  369.66    7.80
   1   2   1  358.96    8.20
   1   2   1  355.46    7.40
   2  -2   1    1.40    1.20
   2  -2   1    0.00    1.20
  -2  -2  -1    2.60    1.50
  -2  -2  -1    1.70    1.20
  -2  -2  -1    0.90    1.60
   2  -2   1    2.20    1.20
   2   2   1    1.20    1.30
   2   2   1    1.40    0.70
   2   2   1    1.20    0.70
  -2   2  -1    4.80    1.30
  -2   2  -1    1.80    1.60
  -2   2  -1    3.30    1.20
  -3  -2  -1   47.10    3.00
  -3  -2  -1   45.80    3.50
   3  -2   1   55.29    2.90
  -3  -2  -1   45.10    2.90
   3  -2   1   56.19    2.80
   3  -2   1   48.80    2.70
  -3   2  -1   54.99    2.90
  -3   2  -1   57.19    3.80
   3   2   1   42.50    3.10
   3   2   1   46.90    1.50
   3   2   1   48.20    1.50
   3   2   1   46.80    2.90
   4  -2   1  117.39    4.20
  -4  -2  -1  109.79    5.10
  -4  -2  -1  110.19    4.70
   4  -2   1  115.29    4.30
  -4  -2  -1   99.49    5.10
   4  -2   1  120.39    4.20
  -4   2  -1  107.79    5.60
   4   2   1  102.49    4.90
   4   2   1  110.79    4.80
  -4   2  -1  115.69    4.60
   5  -2   1   -0.30    1.40
  -5  -2  -1    1.10    1.80
   5  -2   1    1.10    1.40
  -5  -2  -1    1.20    1.80
  -5  -2  -1    0.20    1.80
   5  -2   1    1.50    1.40
  -5   2  -1   -0.10    2.20
   5   2   1    0.80    1.70
   5   2   1   -0.70    1.70
   5   2   1    0.10    1.60
  -5   2  -1    0.50    1.70
   6  -2   1    9.70    2.00
  -6  -2  -1   12.10    2.80
   6  -2   1   11.90    3.40
  -6  -2  -1   11.50    2.90
  -6  -2  -1    9.20    3.00
  -6   2  -1    8.90    2.60
   6   2   1    8.60    2.90
   6   2   1    9.40    2.60
   6   2   1    5.30    2.50
  -6   2  -1   11.00    3.30
   7  -2   1    2.20    1.60
  -7  -2  -1   -0.30    2.30
  -7  -2  -1    3.10    2.70
  -7  -2  -1   -0.40    2.80
   7  -2   1    2.40    3.10
   7   2   1    1.80    2.40
  -7   2  -1   -1.30    2.30
   7   2   1    2.60    2.90
  -7   2  -1   -1.00    3.00
   7   2   1    6.40    2.60
  -8  -2  -1    5.00    3.10
  -8  -2  -1    3.50    3.10
   8  -2   1    8.30    4.00
   8  -2   1    1.50    1.80
  -8   2  -1    1.60    3.60
   8   2   1    4.90    3.20
   8   2   1    7.50    3.30
   9  -2   1    6.80    4.10
   9   2   1    7.00    4.00
   9  -3  -1   -2.10    3.20
  -9  -3   1   -5.60    3.10
   9  -3  -1   -0.60    2.20
   9   3  -1    3.20    3.60
  -9   3   1    4.10    3.10
   9   3  -1    5.50    3.80
  -9   3   1    2.30    3.60
   8  -3  -1    3.60    3.50
  -8  -3   1    4.50    3.50
   8  -3  -1    5.90    2.30
  -8   3   1    5.90    3.10
   8   3  -1    7.50    3.60
   8   3  -1   10.70    4.00
   8   3  -1    5.20    1.20
  -8   3   1    4.10    3.60
   7  -3  -1    1.90    3.00
   7  -3  -1   -0.40    1.90
  -7  -3   1    3.70    2.50
  -7  -3   1   -0.80    2.70
  -7   3   1    2.60    2.40
   7   3  -1   -0.60    1.00
  -7   3   1    2.00    2.80
   7   3  -1    1.50    3.00
   7   3  -1    4.80    2.70
  -6  -3   1   17.00    3.20
  -6  -3   1    6.90    2.70
   6  -3  -1   11.40    2.30
   6  -3  -1    5.50    3.10
  -6   3   1   12.60    2.80
   6   3  -1   15.60    3.10
   6   3  -1   12.10    1.50
  -6   3   1   13.30    3.20
   6   3  -1    7.50    2.90
  -5  -3   1   79.39    4.70
  -5  -3   1   76.09    4.70
   5  -3  -1   76.99    4.10
   5  -3  -1   75.69    5.00
  -5   3   1   77.59    4.70
   5   3  -1   76.79    3.00
   5   3  -1   86.29    4.60
  -5   3   1   77.29    5.00
   5   3  -1   71.79    4.70
   4  -3  -1   15.30    0.90
  -4  -3   1    9.90    2.20
   4  -3  -1   14.70    2.20
   4  -3  -1   14.40    0.90
  -4  -3   1   10.30    2.30
   4  -3  -1   15.50    2.30
   4  -3  -1   11.70    2.50
   4   3  -1   11.50    2.30
  -4   3   1   11.50    2.40
   4   3  -1   12.00    1.50
  -4   3   1   12.30    2.20
   4   3  -1   11.40    2.00
  -3  -3   1  110.69    4.60
   3  -3  -1  109.09    4.50
  -3  -3   1  104.09    4.70
   3  -3  -1  118.29    4.50
   3  -3  -1   99.49    4.80
   3  -3  -1  106.89    3.10
   3   3  -1  108.39    3.60
  -3   3   1  104.39    4.70
  -3   3   1  112.09    4.90
   3   3  -1  107.49    4.70
   3   3  -1  121.19    4.40
  -2  -3   1  817.82   16.40
   2  -3  -1  846.42   17.20
  -2  -3   1  832.02   18.70
   2  -3  -1  836.32   17.20
   2  -3  -1  863.91   18.30
  -2  -3   1  852.61   17.60
  -2   3   1  839.42   18.20
   2   3  -1  831.22   16.60
   2   3  -1  842.62   17.50
   2   3  -1  845.32   17.60
  -2   3   1  822.82   17.40
  -1  -3   1  127.29    4.60
   1  -3  -1  110.99    3.90
   1  -3  -1  110.59    4.00
   1  -3  -1  110.29    3.50
  -1  -3   1  118.89    3.80
   1   3  -1  121.09    4.10
  -1   3   1  107.69    4.10
   1   3  -1  116.29    3.90
   1   3  -1  121.59    3.60
   1   3  -1  114.89    3.80
  -1   3   1  110.79    3.50
   0  -3  -1   95.59    4.00
   0  -3   1  108.59    4.00
   0  -3  -1   97.09    3.70
   0  -3   1  110.79    3.80
   0   3  -1  112.69    3.70
   0   3   1  103.79    3.70
   0   3  -1  107.99    3.80
   0   3  -1  110.29    3.60
   0   3   1   96.79    3.60
   0   3   1   97.39    3.90
   1  -3   1 1069.39   22.60
  -1  -3  -1 1071.89   23.30
   1  -3   1 1080.39   21.40
   1   3   1 1116.49   21.00
   1   3   1 1086.49   20.70
   1   3   1 1053.59   20.70
  -1   3  -1 1075.49   21.20
  -1   3  -1 1070.29   22.90
   1   3   1 1099.39   21.00
  -1   3  -1 1092.09   21.40
   1   3   1 1128.79   21.80
  -2  -3  -1  104.99    3.40
  -2  -3  -1   99.19    4.70
   2  -3   1  103.39    4.00
   2  -3   1  103.69    4.00
   2  -3   1  107.39    4.00
  -2   3  -1  112.49    4.10
   2   3   1  103.39    3.30
   2   3   1   98.89    3.20
   2   3   1  102.59    4.20
   2   3   1  103.09    3.30
  -2   3  -1   96.79    4.40
   3  -3   1  320.17    8.30
  -3  -3  -1  310.27    9.40
   3  -3   1  326.47    8.40
  -3  -3  -1  317.27    8.80
  -3  -3  -1  315.87    8.20
   3  -3   1  312.77    8.20
   3   3   1  325.87    6.90
   3   3   1  319.07    8.80
   3   3   1  314.27    6.80
   3   3   1  314.87    8.30
  -3   3  -1  311.77    8.10
  -3   3  -1  325.27    9.70
  -4  -3  -1  353.16    9.90
   4  -3   1  373.26    9.40
   4  -3   1  342.97    9.20
  -4  -3  -1  354.26   10.80
   4  -3   1  346.37    9.10
  -4  -3  -1  373.56    9.90
  -4   3  -1  353.56   11.10
   4   3   1  355.46    9.80
  -4   3  -1  353.86    9.50
   4   3   1  362.86   10.00
   4   3   1  358.66    7.30
  -5  -3  -1   22.70    3.20
  -5  -3  -1   26.50    3.60
   5  -3   1   24.20    2.80
  -5  -3  -1   25.70    3.30
   5   3   1   19.40    3.10
   5   3   1   26.50    3.30
  -5   3  -1   24.40    3.10
  -5   3  -1   24.10    3.80
  -6  -3  -1   -1.20    2.30
  -6  -3  -1    4.60    2.60
  -6  -3  -1    0.00    2.50
   6  -3   1    0.90    1.80
   6  -3   1    1.60    2.70
   6   3   1    1.30    2.30
   6   3   1    2.40    2.40
  -6   3  -1    2.40    2.80
   6   3   1    1.70    2.40
  -6   3  -1   -0.10    2.10
  -7  -3  -1   19.70    3.90
  -7  -3  -1   29.30    4.20
   7  -3   1   27.30    5.10
   7  -3   1   24.60    3.10
  -7  -3  -1   16.00    3.90
  -7   3  -1   18.50    4.40
   7   3   1   20.50    4.10
  -7   3  -1   19.90    3.40
   7   3   1   22.10    3.90
   7   3   1   18.60    3.40
   8  -3   1   10.50    4.30
   8  -3   1    3.20    2.20
  -8  -3  -1   12.10    3.60
   8   3   1    7.00    3.50
   8   3   1    6.70    3.40
  -8   3  -1    5.50    4.10
   9  -4  -1   21.90    5.10
   9  -4  -1   16.70    3.40
  -9  -4   1   16.30    4.30
  -9   4   1   14.90    4.20
   9   4  -1   26.50    5.00
  -9   4   1   23.70    5.40
   8  -4  -1    7.50    3.80
   8  -4  -1   -0.30    2.20
  -8  -4   1    4.80    3.40
   8   4  -1   11.40    3.90
  -8   4   1    3.70    3.20
  -8   4   1    5.20    3.60
   8   4  -1    3.40    1.20
   8   4  -1    9.20    3.40
   7  -4  -1   48.60    4.30
  -7  -4   1   59.99    5.60
   7  -4  -1   49.30    5.90
  -7  -4   1   47.60    5.20
  -7   4   1   57.69    5.50
   7   4  -1   52.89    5.50
   7   4  -1   52.79    4.70
   7   4  -1   51.09    2.80
  -7   4   1   55.19    6.00
   6  -4  -1   25.70    4.10
  -6  -4   1   20.50    3.60
   6  -4  -1   18.10    3.00
  -6  -4   1   16.50    3.20
  -6   4   1   16.10    3.50
   6   4  -1   17.80    2.00
   6   4  -1   21.50    3.20
  -6   4   1   17.00    3.20
   6   4  -1   20.90    3.60
  -5  -4   1    7.50    2.50
   5  -4  -1    6.50    2.80
   5  -4  -1    3.70    2.00
  -5  -4   1    5.80    2.40
   5   4  -1    7.00    2.30
   5   4  -1    4.70    1.40
   5   4  -1    8.80    2.60
  -5   4   1    5.40    2.30
  -5   4   1    8.10    2.60
   4  -4  -1    3.20    1.90
   4  -4  -1    1.40    1.90
  -4  -4   1    4.90    2.10
  -4  -4   1    5.90    2.10
   4  -4  -1    5.60    1.00
  -4   4   1    1.00    1.80
   4   4  -1    3.50    1.60
  -4   4   1    2.20    1.90
   4   4  -1    3.40    1.30
   4   4  -1    2.20    2.00
  -3  -4   1  601.84   15.20
  -3  -4   1  620.14   14.50
   3  -4  -1  607.14   13.10
   3  -4  -1  611.44   14.00
   3  -4  -1  615.74   15.00
   3   4  -1  605.34   13.10
   3   4  -1  619.74   13.90
  -3   4   1  587.04   14.20
   3   4  -1  609.14   14.40
  -3   4   1  608.54   14.90
  -2  -4   1   -1.50    1.70
   2  -4  -1   -1.80    1.50
  -2  -4   1    1.00    1.20
   2  -4  -1   -0.60    1.20
   2  -4  -1   -2.10    1.30
  -2   4   1    2.30    1.30
   2   4  -1    0.90    1.30
   2   4  -1    2.30    1.60
  -2   4   1    0.50    1.90
   2   4  -1   -0.30    1.20
   1  -4  -1   16.20    2.10
  -1  -4   1   19.80    2.20
   1  -4  -1   12.40    1.60
  -1  -4   1   13.00    2.40
   1  -4  -1   19.30    2.40
  -1   4   1   17.60    2.40
   1   4  -1   18.50    1.70
  -1   4   1   19.20    1.70
   1   4  -1   17.90    2.10
   1   4  -1   17.70    2.20
   0  -4  -1  954.40   21.60
   0  -4   1  985.00   20.20
   0  -4  -1 1042.40   20.00
   0  -4  -1 1003.30   19.10
   0  -4   1  973.70   21.60
   0   4  -1 1000.90   20.20
   0   4  -1 1002.90   20.80
   0   4   1  958.10   20.40
   0   4  -1 1007.40   20.30
   0   4   1  988.10   20.00
   1  -4   1   14.90    2.70
   1  -4   1   24.20    2.60
  -1  -4  -1   27.90    3.00
  -1  -4  -1   27.40    2.30
   1   4   1   26.30    2.80
  -1   4  -1   24.10    2.50
  -1   4  -1   34.30    3.00
   1   4   1   21.30    2.20
   1   4   1   28.50    2.40
  -1   4  -1   25.40    2.60
   2  -4   1    0.30    1.40
   2  -4   1   -0.70    1.40
  -2  -4  -1   -1.50    1.60
   2   4   1   -0.60    1.00
  -2   4  -1   -2.00    1.50
  -2   4  -1   -1.00    1.30
   2   4   1    0.60    1.00
  -2   4  -1   -1.10    1.40
   2   4   1    0.90    0.80
   2   4   1    1.10    1.60
   3  -4   1   -0.10    1.50
  -3  -4  -1    0.80    1.90
   3  -4   1    0.40    1.50
   3  -4   1    1.90    1.40
  -3   4  -1    0.70    1.80
   3   4   1    3.30    2.00
   3   4   1    3.50    1.30
  -3   4  -1    1.70    1.40
   3   4   1    0.80    1.00
   3   4   1    1.60    1.00
  -3   4  -1    1.10    1.60
   4  -4   1   27.80    3.00
  -4  -4  -1   26.60    3.20
  -4  -4  -1   25.20    3.70
   4  -4   1   27.40    2.60
  -4   4  -1   25.90    3.60
   4   4   1   30.80    2.90
   4   4   1   25.10    1.90
   4   4   1   26.00    1.90
   4   4   1   25.10    3.20
  -4   4  -1   22.30    2.80
  -5  -4  -1   43.40    4.20
  -5  -4  -1   48.40    4.90
   5  -4   1   45.90    3.90
  -5   4  -1   53.19    5.20
   5   4   1   45.80    3.70
   5   4   1   36.80    4.10
  -5   4  -1   45.60    4.00
  -6  -4  -1   19.20    3.70
   6  -4   1   14.60    2.90
  -6  -4  -1   19.20    3.80
  -6   4  -1   18.90    3.20
   6   4   1   18.60    3.80
   6   4   1   18.60    3.30
  -6   4  -1   15.20    3.90
   7  -4   1   12.20    4.00
   7  -4   1   14.30    3.00
  -7  -4  -1   13.50    3.80
  -7  -4  -1   16.50    4.10
   7   4   1   23.30    4.30
   7   4   1   13.80    3.90
  -7   4  -1   13.50    3.60
  -7   4  -1   17.80    4.40
   8  -4   1    3.70    3.80
  -8  -4  -1   -2.80    2.70
   8  -4   1   -2.20    2.10
  -8   4  -1   -1.80    3.50
   8   4   1   -1.50    2.90
   8  -5  -1    3.50    3.50
  -8  -5   1   -1.50    3.20
   8  -5  -1   10.00    3.00
  -8  -5   1    5.30    3.50
  -8   5   1    2.30    3.50
   8   5  -1    9.00    4.10
   8   5  -1    4.10    1.40
  -8   5   1    9.60    3.40
   7  -5  -1   15.30    4.20
  -7  -5   1   19.30    3.90
  -7  -5   1   19.00    3.90
   7  -5  -1   11.70    3.00
   7   5  -1   11.50    3.60
  -7   5   1    8.80    3.20
   7   5  -1   14.60    2.00
  -7   5   1   10.40    3.80
  -6  -5   1    6.20    3.00
   6  -5  -1    4.60    2.60
  -6  -5   1    7.40    3.20
   6  -5  -1    4.70    2.90
  -6   5   1    3.40    2.50
   6   5  -1    2.90    2.30
   6   5  -1    9.10    1.80
  -6   5   1    4.40    2.90
   6   5  -1    6.90    3.10
  -5  -5   1  119.69    6.40
  -5  -5   1  123.29    6.60
   5  -5  -1  116.49    6.00
   5  -5  -1  130.09    7.00
  -5   5   1  116.79    6.00
  -5   5   1  117.29    6.70
   5   5  -1  118.69    4.60
   5   5  -1  123.49    5.60
   5   5  -1  123.49    6.60
   4  -5  -1    0.30    2.00
  -4  -5   1    1.80    2.10
   4  -5  -1    4.50    1.30
  -4  -5   1    3.40    2.20
   4  -5  -1    3.30    2.30
  -4   5   1    3.00    2.10
   4   5  -1   -2.40    1.30
   4   5  -1    0.30    2.00
  -4   5   1    2.50    2.20
   4   5  -1    0.40    1.30
   3  -5  -1  168.58    5.30
  -3  -5   1  160.88    6.90
   3  -5  -1  161.58    6.20
   3  -5  -1  167.78    6.50
  -3   5   1  168.38    6.50
  -3   5   1  163.28    6.10
   3   5  -1  167.58    5.60
   3   5  -1  172.38    6.70
   3   5  -1  163.28    5.20
  -2  -5   1   26.70    3.30
   2  -5  -1   25.00    2.90
   2  -5  -1   25.50    2.50
  -2  -5   1   30.40    2.70
   2  -5  -1   30.40    2.60
  -2   5   1   28.40    3.20
   2   5  -1   26.50    2.70
   2   5  -1   26.00    2.00
   2   5  -1   22.70    2.80
  -2   5   1   29.30    2.60
  -1  -5   1   61.29    3.60
   1  -5  -1   54.89    2.60
   1  -5  -1   54.09    3.60
  -1  -5   1   54.79    4.00
   1  -5  -1   50.79    3.50
   1   5  -1   55.59    3.40
  -1   5   1   53.89    2.60
  -1   5   1   54.29    3.70
   1   5  -1   57.99    2.70
   1   5  -1   54.39    3.50
   0  -5   1    1.00    1.50
   0  -5   1    1.20    1.90
   0  -5  -1    2.80    0.50
   0  -5  -1    3.30    1.70
   0  -5  -1    2.30    1.80
   0  -5  -1    2.20    0.50
   0   5  -1    4.20    1.40
   0   5   1    3.80    1.90
   0   5  -1    5.20    1.90
   0   5   1    6.30    1.80
   0   5  -1    0.10    1.50
   1  -5   1    4.10    1.60
   1  -5   1    0.10    1.50
  -1  -5  -1    2.60    2.00
  -1  -5  -1   -3.00    1.20
   1   5   1    2.40    1.50
  -1   5  -1    0.70    1.80
  -1   5  -1   -0.90    1.60
  -1   5  -1    2.70    1.50
   1   5   1    1.70    1.40
   1   5   1    3.20    1.80
   2  -5   1   37.00    3.50
   2  -5   1   36.40    3.00
  -2  -5  -1   39.80    4.00
  -2   5  -1   40.20    3.20
   2   5   1   38.70    2.80
   2   5   1   34.50    2.70
  -2   5  -1   35.10    3.30
   2   5   1   37.90    3.60
  -2   5  -1   38.70    3.20
  -3  -5  -1    4.20    2.40
   3  -5   1    9.90    1.90
   3  -5   1    6.70    2.10
   3   5   1    4.40    1.50
   3   5   1    9.20    2.40
   3   5   1    5.80    1.50
  -3   5  -1    9.30    2.30
   3   5   1    3.60    1.20
  -3   5  -1    4.20    2.10
  -4  -5  -1   16.90    3.50
   4  -5   1   25.90    2.70
   4  -5   1   23.20    3.10
   4   5   1   22.20    2.20
  -4   5  -1   21.30    3.20
  -4   5  -1   24.90    3.90
   4   5   1   22.10    3.40
   4   5   1   24.80    2.20
  -5  -5  -1   65.79    5.50
   5  -5   1   66.49    4.80
   5   5   1   65.49    5.70
  -5   5  -1   73.49    4.90
  -5   5  -1   69.29    5.70
  -6  -5  -1   21.70    4.10
   6  -5   1   27.30    3.80
   6  -5   1   25.20    4.60
  -6   5  -1   24.60    3.70
  -6   5  -1   22.30    4.50
   6   5   1   30.00    4.80
  -7  -5  -1   -1.20    3.10
   7  -5   1    1.20    2.60
   7  -5   1    0.60    3.20
  -7  -5  -1   -0.30    2.70
  -7   5  -1    0.70    3.30
   7   5   1   -0.90    2.70
   8  -5   1    8.10    4.30
   8  -5   1    0.90    2.50
   8   5   1    0.10    3.70
  -8   5  -1    7.90    4.40
   8   5   1    3.40    3.20
  -8  -6   1    4.50    3.60
  -8  -6   1    3.30    3.20
   8  -6  -1    9.00    4.30
   8  -6  -1    2.20    2.80
  -8   6   1    2.50    3.40
   8   6  -1    0.40    1.50
   8   6  -1    3.00    3.60
  -8   6   1   -3.00    3.40
   7  -6  -1    1.50    2.90
  -7  -6   1   -0.20    3.00
  -7  -6   1    2.60    3.30
   7  -6  -1   -3.70    2.20
  -7   6   1    5.90    3.00
   7   6  -1    2.00    3.30
   7   6  -1    2.30    1.70
  -7   6   1    9.40    3.50
   6  -6  -1    5.50    2.80
  -6  -6   1   11.40    3.30
   6  -6  -1    9.70    3.60
  -6  -6   1   12.40    3.70
  -6   6   1    2.70    2.80
   6   6  -1   10.20    2.10
  -6   6   1    9.60    3.50
   6   6  -1   13.40    3.70
   5  -6  -1   29.50    4.10
  -5  -6   1   25.10    4.10
   5  -6  -1   17.00    3.60
  -5   6   1   21.10    3.60
   5   6  -1   21.10    2.60
  -5   6   1   24.10    3.80
   5   6  -1   19.80    4.10
  -4  -6   1    5.80    2.90
   4  -6  -1    2.30    2.80
   4  -6  -1   10.10    2.80
   4   6  -1    9.60    3.00
  -4   6   1   10.80    2.90
  -4   6   1   -1.30    3.00
   4   6  -1    9.00    2.10
   3  -6  -1   -0.10    1.90
   3  -6  -1    2.70    1.50
  -3  -6   1   -1.70    2.10
   3  -6  -1    0.50    2.00
   3   6  -1    2.20    2.20
   3   6  -1   -1.80    1.40
  -3   6   1    2.60    2.50
   3   6  -1    2.70    1.20
  -3   6   1   -0.60    1.60
   2  -6  -1   41.20    3.00
   2  -6  -1   45.20    3.40
  -2  -6   1   50.79    4.30
   2  -6  -1   41.60    3.90
  -2   6   1   41.10    2.90
   2   6  -1   39.70    3.60
   2   6  -1   41.70    3.90
  -2   6   1   35.80    3.80
   2   6  -1   46.80    2.50
   1  -6  -1   53.59    3.90
  -1  -6   1   48.90    4.20
  -1  -6   1   49.10    3.80
   1  -6  -1   49.70    2.70
   1  -6  -1   47.50    3.80
   1   6  -1   52.69    2.80
  -1   6   1   58.49    4.70
   1   6  -1   52.99    3.70
  -1   6   1   55.19    2.70
   1   6  -1   52.49    3.90
   0  -6   1  126.49    5.50
   0  -6  -1  120.19    5.90
   0  -6  -1  127.59    5.40
   0  -6   1  116.89    5.70
   0   6  -1  118.89    4.60
   0   6   1  119.59    5.40
   0   6   1  114.29    5.60
   0   6  -1  124.89    5.50
   0   6  -1  112.49    5.40
   1  -6   1   14.10    2.60
   1  -6   1   19.50    2.80
  -1  -6  -1   19.70    3.20
   1   6   1   15.60    2.40
  -1   6  -1   19.40    2.40
   1   6   1   17.20    2.90
  -1   6  -1   19.60    3.10
  -1   6  -1   22.00    2.90
   2  -6   1   33.20    3.40
  -2  -6  -1   27.70    3.80
   2  -6   1   32.70    3.60
  -2   6  -1   23.50    3.20
   2   6   1   31.60    3.80
   2   6   1   37.30    3.30
  -2   6  -1   26.80    3.30
  -2   6  -1   28.80    3.40
   3  -6   1  134.59    5.60
   3  -6   1  129.69    6.40
  -3  -6  -1  134.49    7.00
   3   6   1  138.29    5.30
  -3   6  -1  132.79    6.10
  -3   6  -1  142.19    6.50
   3   6   1  132.69    6.90
  -4  -6  -1    6.50    3.00
   4  -6   1   11.10    2.90
   4   6   1    8.30    2.90
   4   6   1    8.10    1.90
  -4   6  -1    7.10    2.80
  -4   6  -1   -1.90    2.50
  -5  -6  -1   76.09    6.20
   5  -6   1   76.99    5.60
   5   6   1   73.49    5.90
  -5   6  -1   61.69    6.00
  -5   6  -1   71.59    5.20
   6  -6   1   30.50    4.20
   6  -6   1   23.80    5.10
  -6  -6  -1   23.70    4.60
  -6   6  -1   22.20    3.90
   6   6   1   23.40    4.20
  -6   6  -1   29.20    5.10
   7  -6   1    6.60    4.30
  -7  -6  -1    5.50    3.50
   7  -6   1   10.80    3.50
  -7   6  -1    9.70    4.40
   7   6   1   15.90    4.40
   7  -7  -1    6.20    3.30
   7  -7  -1    4.80    3.30
  -7  -7   1   -0.70    3.10
  -7   7   1    1.20    3.20
   7   7  -1   -0.70    1.80
   7   7  -1   -3.50    3.40
  -7   7   1    6.80    3.10
   6  -7  -1    3.40    3.30
  -6  -7   1    4.80    3.20
   6  -7  -1    3.60    2.80
  -6   7   1   -0.10    2.80
   6   7  -1    6.20    3.40
  -6   7   1    3.20    3.10
   6   7  -1    3.10    2.10
   5  -7  -1  217.38    9.10
  -5  -7   1  230.58   10.20
   5  -7  -1  222.18    9.50
   5   7  -1  225.98    7.90
  -5   7   1  221.28    9.40
  -5   7   1  207.98    9.00
   5   7  -1  209.58    9.50
  -4  -7   1    6.60    3.30
   4  -7  -1    9.30    3.20
   4  -7  -1    8.50    2.70
  -4   7   1    4.90    2.50
  -4   7   1    4.70    3.10
   4   7  -1    4.20    2.90
   4   7  -1   10.40    2.50
   3  -7  -1    7.00    2.80
   3  -7  -1    9.30    2.30
   3  -7  -1   12.60    2.60
  -3  -7   1   13.20    3.30
   3   7  -1    9.70    3.00
  -3   7   1   12.90    2.60
  -3   7   1   10.30    3.10
   3   7  -1   13.20    2.70
   2  -7  -1   44.10    4.30
   2  -7  -1   45.40    3.90
   2  -7  -1   38.50    3.30
  -2  -7   1   39.70    4.70
   2   7  -1   46.40    4.20
  -2   7   1   46.30    3.30
  -2   7   1   45.70    4.50
   2   7  -1   35.80    4.10
  -1  -7   1   75.29    5.20
   1  -7  -1   69.49    4.70
  -1   7   1   83.49    5.50
   1   7  -1   65.59    4.60
   1   7  -1   63.49    4.80
   0  -7  -1    4.90    2.40
   0  -7   1    4.80    2.70
   0   7  -1    9.60    2.70
   0   7  -1    3.70    1.60
   0   7   1    7.00    2.70
   0   7   1    3.90    2.10
   0   7  -1    5.90    2.50
  -1  -7  -1  190.88    8.40
   1  -7   1  204.68    8.00
   1  -7   1  210.78    8.10
  -1   7  -1  210.48    8.20
   1   7   1  201.38    8.20
  -1   7  -1  218.88    7.20
  -1   7  -1  213.28    8.00
   1   7   1  208.88    7.60
   2  -7   1    2.40    2.30
  -2  -7  -1    1.80    2.80
   2  -7   1    4.20    2.60
  -2   7  -1    2.30    2.90
   2   7   1    5.90    3.00
  -2   7  -1   10.80    2.60
   2   7   1    6.80    2.20
   3  -7   1    0.00    2.40
   3  -7   1   -0.90    1.80
  -3  -7  -1    2.80    2.80
  -3   7  -1   -0.50    2.30
   3   7   1   -1.00    1.70
  -3   7  -1   -7.70    2.30
   3   7   1    2.60    2.90
  -4  -7  -1   -0.60    2.80
   4  -7   1    1.20    2.60
   4   7   1    1.40    1.80
  -4   7  -1   -4.70    2.10
   4   7   1   -0.30    2.60
  -4   7  -1    0.20    2.40
   5  -7   1    2.10    2.80
  -5  -7  -1    2.20    3.30
   5   7   1   12.10    3.60
  -5   7  -1    5.90    3.30
  -5   7  -1    0.40    2.60
   6  -7   1    0.40    2.80
  -6  -7  -1    3.60    3.60
   6  -7   1    7.60    3.50
   6   7   1    2.80    3.20
  -6   7  -1   -0.90    2.90
   7  -7   1   13.70    4.90
  -7  -7  -1   14.10    4.60
   7  -7   1   10.50    3.70
  -7   7  -1   16.60    5.10
   7   7   1   13.30    4.30
  -7  -8   1   24.40    5.30
   7  -8  -1   23.60    5.20
   7  -8  -1   19.10    4.40
  -7   8   1   28.50    4.80
   7   8  -1   23.20    5.30
   7   8  -1   25.10    3.30
  -7   8   1   24.40    5.10
   6  -8  -1    2.80    3.20
  -6  -8   1    1.20    3.20
   6  -8  -1    0.00    3.00
  -6   8   1    0.80    3.10
   6   8  -1   -1.60    3.10
  -6   8   1   -4.20    2.80
   6   8  -1   -1.80    1.90
  -5  -8   1    3.50    3.30
   5  -8  -1   -0.30    2.70
   5  -8  -1    2.20    2.90
  -5   8   1    1.20    2.70
   5   8  -1   -1.60    2.00
  -5   8   1   -1.30    2.90
   5   8  -1   -0.70    3.10
   4  -8  -1    4.80    3.20
  -4  -8   1   -3.60    2.80
   4   8  -1    2.00    2.30
  -4   8   1    1.00    2.70
   4   8  -1    1.00    3.00
  -3  -8   1   62.69    6.30
   3   8  -1   59.59    4.90
  -3   8   1   66.79    6.20
   3   8  -1   53.39    5.40
   2  -8  -1   53.59    4.90
  -2  -8   1   61.79    6.20
   2   8  -1   54.69    5.50
   2   8  -1   56.49    5.00
  -2   8   1   57.99    5.70
  -1  -8   1   52.89    5.50
   1  -8  -1   53.89    5.10
  -1   8   1   55.49    5.50
   1   8  -1   58.69    5.40
   1   8  -1   59.29    4.80
   0  -8  -1    2.30    2.60
   0  -8   1    3.00    3.00
   0   8  -1    4.80    2.60
   0   8   1    1.80    2.80
   0   8  -1    8.10    3.10
  -1  -8  -1  100.39    6.70
   1  -8   1  108.29    6.60
  -1   8  -1  117.99    6.90
   1   8   1  110.49    6.70
   1   8   1  104.59    6.00
   2  -8   1   72.59    5.30
  -2  -8  -1   60.59    6.10
   2   8   1   64.09    4.80
   2   8   1   58.89    5.60
  -2   8  -1   59.59    4.50
  -2   8  -1   64.19    5.80
  -3  -8  -1   19.90    4.40
   3  -8   1   20.10    3.90
   3   8   1   24.40    3.50
   3   8   1   18.50    4.00
  -3   8  -1   23.80    3.90
  -3   8  -1   23.30    3.70
  -4  -8  -1    3.70    3.50
   4  -8   1   -4.90    2.50
  -4   8  -1    4.30    2.90
  -4   8  -1   -5.00    2.70
   4   8   1    0.80    3.00
  -5  -8  -1    4.30    3.70
   5  -8   1    9.40    3.60
   5  -8   1    3.10    3.30
   5   8   1    5.80    3.70
  -5   8  -1    2.30    3.00
  -5   8  -1    3.80    3.20
   6  -8   1   15.10    4.80
  -6  -8  -1   15.70    4.80
   6  -8   1   16.50    4.50
   6   8   1   15.40    4.60
  -6   8  -1   27.30    5.40
  -6  -9   1   13.20    4.80
  -6   9   1    4.20    3.50
   6   9  -1    0.90    2.40
   6   9  -1    8.90    4.20
  -5  -9   1    8.00    4.20
   5   9  -1   12.70    4.20
   5   9  -1   12.20    3.20
  -5   9   1    4.90    3.50
  -4  -9   1   16.80    4.70
   4   9  -1   23.80    3.80
   4   9  -1   23.90    4.60
  -4   9   1   25.60    4.80
  -3  -9   1   12.00    4.00
  -3   9   1   16.60    4.60
   3   9  -1   17.30    4.00
   3   9  -1   14.20    3.40
  -2  -9   1  318.07   12.80
   2  -9  -1  366.46   12.20
   2   9  -1  345.07   12.40
  -2   9   1  350.06   12.50
   2   9  -1  360.46   11.90
  -1  -9   1   55.59    6.00
   1  -9  -1   66.79    6.30
  -1   9   1   65.99    6.40
   1   9  -1   57.39    5.60
   1   9  -1   58.69    5.90
   0  -9  -1    4.30    3.10
   0  -9   1    4.60    2.90
   0   9  -1    1.90    2.70
   0   9   1    0.60    3.00
   0   9  -1    1.90    3.30
  -1  -9  -1   83.59    6.60
   1  -9   1   90.49    6.20
   1   9   1   73.69    6.60
  -1   9  -1   82.29    6.90
   2  -9   1    2.90    2.90
  -2  -9  -1    1.10    3.20
  -2   9  -1    5.30    3.40
   2   9   1   -1.10    3.00
  -3  -9  -1    1.40    3.40
   3   9   1   -1.80    3.10
  -3   9  -1   -1.40    3.30
  -4  -9  -1   42.80    6.50
   4   9   1   42.80    6.10
  -4   9  -1   44.40    5.60
  -5  -9  -1   11.50    4.70
   5   9   1   14.40    5.10
  -5 -10   1    4.70    4.80
   5  10  -1   -0.30    2.70
   5  10  -1    8.10    4.60
  -5  10   1   -3.50    3.70
  -4 -10   1   23.70    5.60
  -4  10   1   22.90    5.30
   4  10  -1   17.20    5.10
   4  10  -1   25.30    4.40
  -3 -10   1   17.30    4.90
   3  10  -1   23.80    5.00
  -3  10   1   18.90    4.80
   3  10  -1   22.40    4.20
  -2 -10   1   23.00    4.70
   2  10  -1   23.40    5.10
  -2  10   1   24.40    5.00
   2  10  -1   20.90    4.10
  -1 -10   1   17.80    4.40
   1 -10  -1   18.40    4.10
   1  10  -1   22.60    4.10
  -1  10   1   12.60    4.40
   1  10  -1   17.80    4.80
   0 -10  -1   19.20    4.30
   0 -10   1   17.30    4.10
   0  10   1   16.20    4.30
   0  10  -1   11.00    4.10
  -1 -10  -1    6.10    3.50
   1 -10   1    2.20    2.90
   1  10   1    1.20    3.40
  -1  10  -1   -4.70    3.20
  -2 -10  -1    5.90    4.10
   2  10   1    6.60    3.90
  -2  10  -1    7.30    3.90
  -3 -10  -1   25.00    5.30
  -3  10  -1   20.50    4.70
   3  10   1   24.10    5.20
  -4 -10  -1   18.60    5.10
  -4  10  -1   12.70    4.20
   4  10   1    9.30    4.70
  -3 -11   1   12.10    5.20
   3  11  -1    0.10    3.10
  -3  11   1    9.00    4.80
   3  11  -1   -3.10    3.80
  -2 -11   1    2.50    4.10
   2  11  -1    1.00    3.00
  -2  11   1    1.40    4.70
   2  11  -1   -2.50    3.50
   1 -11  -1    5.90    3.80
  -1 -11   1   -1.00    3.20
  -1  11   1    5.60    4.40
   1  11  -1    5.30    4.70
   0 -11  -1    4.80    4.10
   0 -11   1   -2.30    3.10
   0  11  -1   10.90    5.00
   0  11   1    6.00    4.70
  -1 -11  -1   14.40    4.60
   1 -11   1   14.90    4.00
  -1  11  -1   19.10    5.40
   1  11   1    2.30    4.00
  -2 -11  -1   62.59    7.40
  -2  11  -1   55.99    7.40
   2  11   1   47.20    7.00
 -10   0   2  115.89    8.00
  10   0  -2  104.19    5.00
   9   0  -2    0.90    3.30
  -9   0   2   -2.20    2.70
   9   0  -2    0.30    1.60
   8   0  -2   10.70    3.60
  -8   0   2   18.40    3.90
   8   0  -2   11.70    2.10
  -7   0   2    0.20    2.20
   7   0  -2    0.10    1.40
   7   0  -2   -0.70    2.60
  -6   0   2  153.48    6.60
  -6   0   2  168.78    5.10
   6   0  -2  169.98    5.40
   6   0  -2  175.28    7.60
   5   0  -2    0.30    1.10
  -5   0   2   -0.50    1.00
  -5   0   2   -1.40    1.50
   5   0  -2   -0.40    1.90
   4   0  -2  547.65   11.80
  -4   0   2  555.74   11.90
   4   0  -2  579.74   14.10
   3   0  -2    1.70    1.50
  -3   0   2   -0.30    0.90
   3   0  -2    0.90    1.10
  -3   0   2    2.30    1.40
   2   0  -2  270.17    6.30
   2   0  -2  275.77    7.10
  -2   0   2  277.77    6.40
  -2   0   2  272.87    6.50
  -1   0   2   -3.30    1.10
   1   0  -2   -2.40    1.20
  -1   0   2   -1.60    0.80
   1   0  -2   -1.60    1.10
   0   0  -2 1043.70   18.70
   0   0   2 1055.49   19.50
   0   0  -2 1002.00   19.40
   0   0  -2 1049.20   21.40
   0   0   2 1031.60   18.70
   0   0   2 1094.09   21.50
   1   0   2   -0.90    1.30
  -1   0  -2   -0.50    0.70
   1   0   2   -0.50    0.80
   1   0   2    1.00    0.70
  -1   0  -2    0.60    1.30
  -2   0  -2  951.90   18.10
   2   0   2  941.51   17.60
   2   0   2  930.61   20.30
  -2   0  -2  941.61   20.60
  -3   0  -2    1.30    1.20
   3   0   2   -0.70    1.40
  -3   0  -2    1.00    1.60
   3   0   2    0.00    0.70
   4   0   2  196.88    4.80
   4   0   2  200.78    4.80
  -4   0  -2  195.18    7.50
  -4   0  -2  204.18    6.20
   4   0   2  196.68    6.80
   5   0   2   -1.60    1.70
  -5   0  -2    1.20    1.70
   5   0   2   -0.20    0.80
   5   0   2   -0.10    0.80
  -5   0  -2   -0.20    2.10
   6   0   2    1.20    1.00
  -6   0  -2   -1.20    1.80
  -6   0  -2    3.40    2.70
   6   0   2    3.70    2.90
   6   0   2    0.40    0.90
   6   0   2   -0.70    1.80
   7   0   2   -0.90    0.90
  -7   0  -2    3.40    3.30
   7   0   2    0.30    2.90
   8   0   2    5.90    3.70
  -8   0  -2    6.10    3.90
  10  -1  -2   30.10    3.40
  10  -1  -2   29.90    5.60
 -10  -1   2   37.60    5.60
 -10   1   2   33.40    5.30
  10   1  -2   28.00    2.70
  10   1  -2   38.60    6.20
   9  -1  -2    0.30    1.80
  -9  -1   2   -2.70    2.70
   9  -1  -2    3.40    3.70
   9   1  -2    0.50    3.30
   9   1  -2   -0.10    1.50
  -9   1   2    0.90    2.80
  -8  -1   2    5.10    2.80
   8  -1  -2    1.40    3.00
   8  -1  -2    2.50    1.80
   8   1  -2    4.30    1.70
  -8   1   2    1.30    2.60
   8   1  -2    5.40    3.40
   7  -1  -2   67.39    5.60
   7  -1  -2   62.79    3.90
  -7  -1   2   69.49    5.20
   7   1  -2   59.89    3.40
  -7   1   2   65.79    5.00
  -7   1   2   71.39    5.70
   7   1  -2   57.49    5.20
  -6  -1   2  250.97    7.40
   6  -1  -2  240.18    7.10
   6  -1  -2  244.68    9.20
  -6  -1   2  251.37    8.50
  -6   1   2  231.48    8.30
   6   1  -2  250.17    9.00
   6   1  -2  248.98    6.60
  -6   1   2  235.38    9.10
   5  -1  -2   60.89    4.20
  -5  -1   2   64.19    4.00
  -5  -1   2   62.89    3.20
   5  -1  -2   61.89    3.20
   5  -1  -2   62.79    1.90
   5   1  -2   61.29    2.90
  -5   1   2   64.39    1.90
  -5   1   2   61.29    3.80
  -5   1   2   62.59    4.30
   5   1  -2   56.99    4.00
   4  -1  -2  878.61   20.30
  -4  -1   2  874.61   18.80
  -4  -1   2  848.62   18.80
   4  -1  -2  898.01   17.90
   4  -1  -2  931.41   17.10
   4   1  -2  876.01   17.40
  -4   1   2  875.81   18.80
   4   1  -2  893.31   20.20
  -4   1   2  896.11   17.10
   3  -1  -2 1354.96   28.80
  -3  -1   2 1365.56   26.90
   3  -1  -2 1382.36   26.20
   3  -1  -2 1438.96   26.50
  -3  -1   2 1381.36   27.90
  -3   1   2 1405.36   26.50
   3   1  -2 1380.16   25.90
   3   1  -2 1361.76   28.80
  -3   1   2 1359.76   26.80
  -2  -1   2 1855.81   36.30
  -2  -1   2 1840.32   34.20
   2  -1  -2 1803.92   36.70
   2  -1  -2 1765.12   33.80
   2   1  -2 1877.31   36.90
   2   1  -2 1814.52   33.70
  -2   1   2 1912.51   34.40
  -2   1   2 1834.42   35.40
  -1  -1   2   13.90    1.30
  -1  -1   2   14.10    1.80
   1  -1  -2   14.90    1.70
   1  -1  -2   15.70    1.80
   1  -1  -2   16.80    1.60
  -1   1   2   16.10    1.60
   1   1  -2   15.60    1.70
  -1   1   2   20.50    1.70
   1   1  -2   16.90    1.90
   0  -1  -2 1963.80   38.80
   0  -1   2 1932.81   35.70
   0  -1   2 2008.60   35.00
   0  -1  -2 1965.20   38.50
   0  -1   2 1925.31   38.70
   0   1   2 1919.41   38.80
   0   1  -2 2041.20   39.20
   0   1   2 1926.01   35.40
   0   1  -2 1982.10   35.00
   0   1  -2 1919.11   35.70
   0   1  -2 1985.30   35.00
   0   1   2 1979.60   35.60
  -1  -1  -2 3889.91   76.69
   1  -1   2 3943.31   70.49
   1  -1   2 3929.21   76.59
  -1  -1  -2 4012.30   76.99
  -1   1  -2 3922.31   77.39
  -1   1  -2 3934.41   70.29
   1   1   2 4050.99   77.09
   1   1   2 3958.90   70.99
   1   1   2 3920.81   69.99
  -1   1  -2 4033.00   70.39
  -2  -1  -2  324.27    7.50
  -2  -1  -2  311.17    8.40
  -2  -1  -2  303.87    8.70
   2  -1   2  325.97    7.30
   2  -1   2  322.17    8.40
   2   1   2  311.67    7.40
  -2   1  -2  329.77    7.10
   2   1   2  325.17    8.80
  -2   1  -2  331.57    9.10
   2   1   2  325.07    6.50
   3  -1   2    9.10    1.80
   3  -1   2    4.90    1.20
   3  -1   2    7.60    1.30
  -3  -1  -2    8.20    2.20
  -3  -1  -2    8.10    1.60
  -3  -1  -2    5.60    1.80
   3   1   2    7.20    1.60
  -3   1  -2    8.40    2.10
  -3   1  -2    9.10    1.50
   3   1   2    4.70    0.70
   3   1   2    7.00    2.10
  -4  -1  -2   88.89    4.10
   4  -1   2   84.99    3.30
   4  -1   2   81.09    3.30
   4  -1   2   87.89    4.30
  -4  -1  -2   89.89    4.80
  -4  -1  -2   91.59    4.90
   4   1   2   85.59    2.20
   4   1   2   95.49    4.30
   4   1   2   84.59    4.60
   4   1   2   87.59    2.20
  -4   1  -2   79.59    5.00
  -4   1  -2   85.29    3.90
   5  -1   2   65.89    3.10
  -5  -1  -2   64.99    4.90
   5  -1   2   67.69    4.10
   5  -1   2   63.39    3.00
  -5  -1  -2   64.99    4.70
  -5  -1  -2   67.29    4.20
  -5   1  -2   68.29    5.30
   5   1   2   61.49    1.70
  -5   1  -2   62.59    3.90
   5   1   2   69.19    4.30
   5   1   2   70.39    4.60
  -6  -1  -2   99.29    5.50
  -6  -1  -2   99.99    5.90
  -6  -1  -2   97.89    6.30
   6  -1   2   97.89    3.90
  -6   1  -2  104.99    6.90
   6   1   2   95.99    5.50
  -6   1  -2   91.39    5.20
   6   1   2  103.89    5.80
  -7  -1  -2   -4.60    2.40
  -7  -1  -2    1.90    2.70
   7  -1   2    1.30    1.40
   7  -1   2    7.80    3.60
   7   1   2    5.20    2.70
   7   1   2   -0.10    2.80
  -7   1  -2    5.60    3.30
   8  -1   2    1.30    1.40
  -8  -1  -2   -3.60    3.20
   8  -1   2    6.70    3.80
  -8   1  -2    5.70    3.90
   8   1   2    2.20    3.50
  10  -2  -2   18.10    3.20
  10  -2  -2   29.70    6.10
 -10  -2   2   21.60    5.00
  10   2  -2   29.00    5.60
  10   2  -2   25.40    2.30
 -10   2   2   30.80    5.50
   9  -2  -2   37.40    3.80
   9  -2  -2   35.80    5.80
  -9  -2   2   27.70    5.00
   9   2  -2   41.30    6.00
  -9   2   2   38.40    5.30
   9   2  -2   34.80    2.90
   8  -2  -2   58.99    4.30
   8  -2  -2   58.29    6.30
  -8  -2   2   57.49    5.90
   8   2  -2   47.60    5.70
  -8   2   2   56.69    5.60
   8   2  -2   53.89    3.30
  -8   2   2   55.39    6.20
   7  -2  -2  277.07    8.60
   7  -2  -2  275.77   10.90
  -7  -2   2  283.77    9.10
  -7  -2   2  289.07   10.30
  -7   2   2  295.77   10.10
   7   2  -2  279.27   10.50
  -7   2   2  275.67   10.90
   7   2  -2  282.37    7.40
   6  -2  -2    3.70    1.90
  -6  -2   2    4.80    1.90
   6  -2  -2    2.00    2.40
  -6  -2   2    1.10    2.10
   6   2  -2    5.10    1.40
  -6   2   2    2.70    2.20
   6   2  -2    4.20    2.50
  -6   2   2    4.80    2.50
   5  -2  -2    1.50    1.90
   5  -2  -2    2.80    1.50
  -5  -2   2    3.50    1.80
  -5  -2   2    1.20    1.40
  -5   2   2   -0.40    1.80
   5   2  -2   -0.40    1.60
   5   2  -2    1.10    1.10
  -5   2   2    3.40    1.80
   4  -2  -2    4.20    1.50
  -4  -2   2    2.10    1.70
   4  -2  -2    2.80    1.80
  -4  -2   2   -0.10    1.40
   4   2  -2    1.40    1.50
   4   2  -2    4.40    1.30
  -4   2   2    1.50    1.70
  -4   2   2    4.70    1.80
   3  -2  -2   70.89    3.60
  -3  -2   2   68.79    3.50
   3  -2  -2   64.49    3.40
  -3  -2   2   73.89    3.70
   3   2  -2   70.79    3.10
  -3   2   2   69.09    3.50
   3   2  -2   67.19    3.60
   2  -2  -2  132.69    3.70
  -2  -2   2  130.99    4.30
  -2  -2   2  131.79    4.60
   2  -2  -2  136.09    4.40
   2  -2  -2  135.39    4.40
   2   2  -2  130.59    4.40
  -2   2   2  138.19    3.70
   2   2  -2  131.49    4.30
   2   2  -2  131.89    4.20
  -2   2   2  134.69    4.60
   1  -2  -2   27.60    2.20
   1  -2  -2   24.30    2.10
  -1  -2   2   22.00    1.90
  -1  -2   2   22.50    2.30
   1  -2  -2   21.10    1.70
   1   2  -2   24.30    2.10
   1   2  -2   25.70    2.10
   1   2  -2   22.80    1.90
  -1   2   2   25.00    2.10
   0  -2   2 1395.46   28.40
   0  -2  -2 1421.36   27.40
   0  -2  -2 1386.26   25.80
   0  -2  -2 1397.86   28.40
   0   2   2 1386.76   25.90
   0   2   2 1372.36   26.20
   0   2  -2 1389.56   26.20
   0   2  -2 1382.16   25.60
   0   2  -2 1377.66   28.50
  -1  -2  -2  635.84   13.40
  -1  -2  -2  617.84   14.50
   1  -2   2  621.74   14.10
   1  -2   2  630.64   13.10
  -1   2  -2  635.34   13.00
  -1   2  -2  645.74   14.70
   1   2   2  622.84   13.00
  -1   2  -2  635.64   12.30
   1   2   2  614.24   12.30
   2  -2   2  210.08    6.50
  -2  -2  -2  205.58    6.00
  -2  -2  -2  208.08    6.80
   2  -2   2  209.58    5.80
   2  -2   2  201.08    5.70
   2   2   2  195.68    5.80
  -2   2  -2  207.28    7.00
   2   2   2  202.78    4.70
  -2   2  -2  206.98    5.30
  -3  -2  -2  347.57    9.50
   3  -2   2  340.77    9.30
  -3  -2  -2  351.86    8.90
  -3  -2  -2  347.37   10.20
   3  -2   2  340.07    8.40
   3  -2   2  361.36    8.50
   3   2   2  348.77   10.10
   3   2   2  343.17    6.90
   3   2   2  340.57    8.90
  -3   2  -2  356.06   10.50
  -3   2  -2  356.16    8.40
   4  -2   2  139.89    5.40
   4  -2   2  133.89    4.70
  -4  -2  -2  131.99    6.00
   4  -2   2  139.39    4.80
  -4  -2  -2  135.19    5.90
  -4  -2  -2  140.89    5.50
  -4   2  -2  124.99    4.80
   4   2   2  145.09    5.50
   4   2   2  136.09    6.00
  -4   2  -2  124.99    6.40
  -5  -2  -2  106.89    5.90
  -5  -2  -2  105.79    5.30
   5  -2   2  114.99    4.50
  -5  -2  -2  100.39    5.70
   5  -2   2  107.39    5.10
  -5   2  -2  103.59    4.90
   5   2   2   95.99    5.80
  -5   2  -2  109.69    6.60
   5   2   2  104.59    5.70
   5   2   2  105.39    5.30
  -6  -2  -2   -4.00    1.90
  -6  -2  -2    1.30    2.60
  -6  -2  -2    0.60    2.60
   6  -2   2   -0.70    1.50
   6   2   2   -2.50    2.20
  -6   2  -2    2.20    2.10
   6   2   2    1.40    2.30
  -6   2  -2    5.50    3.10
   6   2   2    0.70    2.40
  -7  -2  -2   -0.10    3.00
  -7  -2  -2    1.80    2.70
   7  -2   2    0.20    1.60
   7  -2   2   -3.90    2.70
   7   2   2    0.10    2.50
  -7   2  -2   -1.50    3.40
   7   2   2   -2.00    2.30
   7   2   2   -1.80    2.70
  -8  -2  -2    0.50    3.40
   8  -2   2   -2.80    3.50
   8  -2   2    2.70    1.80
  -8   2  -2   -0.20    3.50
   8   2   2    4.50    3.40
  -9  -3   2    5.10    3.70
   9  -3  -2    6.00    2.60
   9  -3  -2    4.60    3.80
   9   3  -2    3.40    1.50
  -9   3   2    3.80    3.20
   9   3  -2   -1.90    3.70
   9   3  -2    1.50    3.70
   8  -3  -2   -1.90    2.70
   8  -3  -2    2.00    2.20
  -8  -3   2    0.10    2.60
  -8   3   2   -5.00    2.20
  -8   3   2    1.10    3.10
   8   3  -2    1.60    1.40
   8   3  -2    1.10    2.70
   8   3  -2    2.60    3.00
  -7  -3   2  173.88    7.40
   7  -3  -2  169.98    6.90
  -7  -3   2  169.68    8.10
   7  -3  -2  174.48    8.70
  -7   3   2  174.08    7.80
   7   3  -2  165.58    5.40
   7   3  -2  169.78    8.00
  -7   3   2  167.78    8.50
  -6  -3   2   23.50    3.10
  -6  -3   2   18.60    3.20
   6  -3  -2   22.20    3.90
   6  -3  -2   17.90    2.80
  -6   3   2   19.40    3.20
   6   3  -2   19.70    2.10
   6   3  -2   21.40    3.50
  -6   3   2   16.40    3.30
  -5  -3   2   47.70    3.90
   5  -3  -2   38.80    4.00
   5  -3  -2   42.00    3.50
  -5  -3   2   40.00    3.70
  -5   3   2   40.00    4.00
   5   3  -2   41.00    3.50
   5   3  -2   38.00    3.70
   5   3  -2   36.10    2.60
  -5   3   2   34.40    3.70
   4  -3  -2    0.50    1.60
  -4  -3   2   -0.20    1.70
  -4  -3   2    0.90    1.60
   4  -3  -2    0.90    1.50
   4   3  -2    2.80    1.70
   4   3  -2    0.10    1.70
   4   3  -2    0.70    1.10
  -4   3   2    3.20    1.80
  -4   3   2    0.00    1.50
   3  -3  -2   86.19    2.60
   3  -3  -2   83.89    4.10
  -3  -3   2   79.29    4.10
   3  -3  -2   71.99    3.70
  -3  -3   2   82.29    4.00
  -3   3   2   83.99    4.10
   3   3  -2   79.89    3.50
   3   3  -2   77.29    4.10
  -3   3   2   84.19    4.10
   3   3  -2   77.09    4.00
  -2  -3   2   77.29    3.90
   2  -3  -2   84.59    3.10
  -2  -3   2   79.39    3.40
   2  -3  -2   78.29    3.80
   2  -3  -2   79.89    3.40
  -2  -3   2   78.89    3.50
   2   3  -2   73.79    3.50
   2   3  -2   80.49    3.50
   2   3  -2   77.59    3.50
  -2   3   2   82.19    3.80
  -1  -3   2  211.38    6.50
   1  -3  -2  204.98    6.00
   1  -3  -2  201.38    5.20
  -1  -3   2  221.58    6.00
   1  -3  -2  206.78    5.90
   1   3  -2  216.68    6.00
  -1   3   2  206.38    6.20
   1   3  -2  202.28    5.90
   1   3  -2  213.28    5.70
   0  -3  -2  852.11   17.00
   0  -3   2  855.31   18.80
   0  -3  -2  881.71   16.90
   0  -3   2  839.32   17.40
   0  -3  -2  828.62   18.80
   0   3   2  856.31   17.60
   0   3   2  854.31   17.20
   0   3  -2  859.11   17.00
   0   3  -2  827.32   18.60
   0   3  -2  879.41   17.60
   0   3   2  878.01   16.90
   1  -3   2  779.92   17.60
  -1  -3  -2  769.02   18.00
  -1  -3  -2  789.92   16.00
   1  -3   2  786.32   16.50
  -1   3  -2  789.42   16.40
  -1   3  -2  788.62   18.00
  -1   3  -2  804.52   16.00
   1   3   2  808.72   15.80
   1   3   2  777.52   16.50
  -2  -3  -2  193.48    6.90
  -2  -3  -2  196.18    5.40
   2  -3   2  191.78    6.00
   2  -3   2  192.28    6.00
   2  -3   2  197.78    6.30
   2   3   2  185.58    6.00
  -2   3  -2  196.68    6.00
  -2   3  -2  181.98    6.80
   2   3   2  193.38    5.00
  -2   3  -2  187.78    5.40
  -3  -3  -2  159.28    6.60
  -3  -3  -2  160.08    5.50
   3  -3   2  168.58    5.90
   3  -3   2  163.68    5.60
   3  -3   2  164.28    5.70
  -3   3  -2  171.68    6.90
   3   3   2  161.38    4.20
   3   3   2  170.08    6.00
  -3   3  -2  170.28    5.30
  -4  -3  -2    4.70    2.20
   4  -3   2    7.40    1.90
  -4  -3  -2    9.90    2.20
   4  -3   2    7.00    2.10
  -4  -3  -2    9.50    2.60
   4   3   2    9.50    2.20
  -4   3  -2    8.40    1.90
   4   3   2    7.60    2.20
  -4   3  -2    8.30    2.70
   4   3   2    9.20    0.90
   5  -3   2   34.70    3.50
  -5  -3  -2   36.80    4.00
  -5  -3  -2   30.50    3.70
   5  -3   2   34.20    3.20
  -5  -3  -2   29.70    4.00
   5   3   2   33.90    4.20
  -5   3  -2   41.30    3.60
   5   3   2   28.30    3.60
  -5   3  -2   43.60    5.20
   5   3   2   35.10    4.00
  -6  -3  -2   46.70    4.80
  -6  -3  -2   59.59    5.10
  -6  -3  -2   55.39    5.00
   6  -3   2   48.40    3.90
  -6   3  -2   52.19    5.90
   6   3   2   54.19    5.10
   6   3   2   55.09    5.10
   6   3   2   54.19    5.40
   7  -3   2    1.70    2.00
  -7  -3  -2   -1.60    3.00
  -7  -3  -2    2.90    3.10
  -7  -3  -2   -3.30    2.40
   7  -3   2    0.20    3.30
   7   3   2    1.30    2.70
  -7   3  -2   -5.10    2.90
   7   3   2   -1.70    2.40
   7   3   2    1.80    2.80
   8  -3   2   -1.10    2.00
   8  -3   2    3.90    4.40
  -8   3  -2   -0.20    3.70
   9  -4  -2    8.10    4.10
   9  -4  -2   13.30    3.20
  -9  -4   2    9.30    3.80
   9   4  -2    6.60    1.70
  -9   4   2   13.50    4.60
  -9   4   2    3.10    3.50
   9   4  -2    7.80    4.20
   9   4  -2    5.80    3.70
  -8  -4   2    1.70    3.00
   8  -4  -2    0.40    2.40
   8  -4  -2    2.40    3.30
   8   4  -2    1.10    1.50
   8   4  -2   -3.10    3.00
   8   4  -2    1.60    3.20
  -8   4   2    9.10    3.80
  -8   4   2    4.70    3.00
   7  -4  -2    5.10    2.50
  -7  -4   2    7.40    2.90
  -7  -4   2    6.70    3.00
   7  -4  -2    3.10    3.00
   7   4  -2    8.00    3.50
   7   4  -2    8.40    1.80
  -7   4   2    9.30    3.40
  -7   4   2    8.20    3.00
   7   4  -2    7.20    3.10
   6  -4  -2   56.39    5.40
   6  -4  -2   57.69    4.50
  -6  -4   2   58.29    4.60
  -6  -4   2   52.09    4.90
   6   4  -2   63.29    5.30
   6   4  -2   57.79    3.40
   6   4  -2   68.49    4.80
  -6   4   2   57.39    5.50
  -6   4   2   64.79    5.20
   5  -4  -2  172.38    6.50
   5  -4  -2  171.48    7.30
  -5  -4   2  163.88    7.00
  -5  -4   2  178.58    7.20
   5   4  -2  169.78    7.10
  -5   4   2  173.38    6.90
   5   4  -2  171.48    6.60
  -5   4   2  158.98    7.10
   5   4  -2  172.48    5.60
  -4  -4   2   10.30    2.30
   4  -4  -2    2.90    1.90
  -4  -4   2    5.90    2.10
   4  -4  -2    6.40    0.90
   4  -4  -2    5.00    2.00
  -4   4   2    4.80    2.10
   4   4  -2    3.00    1.40
   4   4  -2    7.10    2.20
  -4   4   2    4.90    2.00
   4   4  -2    5.20    1.80
   3  -4  -2  443.46   11.30
   3  -4  -2  436.16   11.40
  -3  -4   2  459.65   11.40
  -3  -4   2  467.45   10.50
   3  -4  -2  446.06   10.10
  -3  -4   2  448.46   12.20
   3   4  -2  449.36   10.60
  -3   4   2  445.46   11.50
   3   4  -2  439.16   11.30
   3   4  -2  444.36   11.10
  -3   4   2  437.16   11.40
   2  -4  -2  980.50   20.80
   2  -4  -2 1019.90   20.60
  -2  -4   2  960.80   22.10
   2  -4  -2  991.70   20.80
  -2  -4   2  961.70   19.90
  -2   4   2  977.50   20.70
   2   4  -2  985.80   20.10
   2   4  -2  962.30   21.00
   2   4  -2  997.20   20.60
  -1  -4   2   21.50    3.20
   1  -4  -2   35.10    1.90
   1  -4  -2   35.50    3.00
   1  -4  -2   32.70    2.90
  -1  -4   2   33.40    2.70
   1   4  -2   34.40    2.90
   1   4  -2   32.40    2.80
   1   4  -2   31.10    2.80
  -1   4   2   30.90    3.30
   0  -4   2    4.00    2.20
   0  -4   2    7.90    1.80
   0  -4  -2    6.70    2.20
   0  -4  -2   10.20    1.80
   0   4  -2    8.30    2.00
   0   4  -2   10.70    1.90
   0   4   2    7.50    1.70
   0   4  -2    7.80    1.60
   1  -4   2    0.70    1.80
  -1  -4  -2   -1.30    1.70
   1  -4   2   -0.70    1.40
   1   4   2    0.00    1.70
  -1   4  -2    0.20    1.50
   1   4   2    0.40    1.20
  -1   4  -2    1.60    1.80
  -1   4  -2    0.90    1.50
   2  -4   2  242.38    7.60
  -2  -4  -2  238.18    8.30
   2  -4   2  226.98    7.30
  -2  -4  -2  250.57    6.00
  -2   4  -2  231.78    6.70
   2   4   2  232.58    7.50
  -2   4  -2  248.08    8.20
   2   4   2  246.58    6.00
   2   4   2  251.47    6.50
  -2   4  -2  252.57    7.50
  -3  -4  -2   16.60    3.10
   3  -4   2   17.30    2.60
  -3  -4  -2   20.60    2.10
   3  -4   2   16.30    2.50
  -3   4  -2   15.90    2.90
  -3   4  -2   20.10    2.40
   3   4   2   20.80    2.20
   3   4   2   19.20    2.70
   3   4   2   16.70    1.70
   4  -4   2   89.89    4.60
   4  -4   2   91.49    4.90
  -4  -4  -2   91.79    6.00
  -4  -4  -2   89.09    4.30
   4   4   2   91.79    3.10
   4   4   2   85.29    5.20
  -4   4  -2   95.69    6.00
  -4   4  -2   87.69    4.60
   4   4   2   94.29    4.40
  -5  -4  -2   81.99    5.80
   5  -4   2   84.49    4.90
  -5   4  -2   91.29    6.90
   5   4   2   92.99    5.20
  -5   4  -2   77.79    4.60
   5   4   2   89.19    5.90
   6  -4   2   26.70    3.50
  -6  -4  -2   21.90    3.80
  -6  -4  -2   22.60    4.50
   6   4   2   22.60    4.20
  -6   4  -2   15.90    4.20
   6   4   2   22.70    3.90
   7  -4   2    3.60    4.20
  -7  -4  -2    7.50    3.00
   7  -4   2    3.90    2.40
  -7  -4  -2    5.40    3.40
   7   4   2    2.20    2.80
  -7   4  -2    0.50    4.10
   7   4   2    2.70    2.80
   8  -4   2    2.20    4.10
   8  -4   2    6.00    2.60
  -8   4  -2    0.70    4.20
   9  -5  -2    9.70    4.30
   9  -5  -2   12.70    3.60
  -9  -5   2   15.70    4.70
  -9   5   2    6.20    3.90
   9   5  -2   11.70    4.50
   9   5  -2    9.30    1.90
  -9   5   2    5.80    4.10
   8  -5  -2   29.20    5.20
  -8  -5   2   24.80    4.60
  -8  -5   2   24.80    4.60
   8  -5  -2   28.90    4.30
   8   5  -2   28.80    4.90
   8   5  -2   32.10    2.90
  -8   5   2   35.90    5.50
  -8   5   2   32.40    4.70
   7  -5  -2    8.10    3.10
  -7  -5   2   12.10    3.50
  -7  -5   2    5.90    3.00
   7  -5  -2    4.90    3.10
   7   5  -2    7.10    3.00
  -7   5   2   10.80    3.60
  -7   5   2    4.90    2.90
   7   5  -2    6.50    3.10
   7   5  -2    7.20    2.00
   6  -5  -2   13.80    3.60
  -6  -5   2    6.90    2.90
   6  -5  -2    8.40    2.70
  -6  -5   2    7.90    2.90
  -6   5   2    4.60    2.60
  -6   5   2   11.30    3.40
   6   5  -2    6.20    2.70
   6   5  -2    3.20    2.70
   6   5  -2    9.10    2.00
   5  -5  -2   19.10    3.60
   5  -5  -2   18.20    3.10
  -5  -5   2   14.00    3.30
  -5  -5   2   18.90    3.30
  -5   5   2   20.30    3.50
  -5   5   2   13.90    3.50
   5   5  -2   21.10    3.00
   5   5  -2   18.70    2.40
   5   5  -2   17.00    3.30
   4  -5  -2  140.89    6.10
  -4  -5   2  138.39    6.60
   4  -5  -2  151.18    4.50
   4  -5  -2  137.29    6.00
  -4  -5   2  135.99    6.50
  -4   5   2  147.69    6.30
   4   5  -2  149.39    6.70
  -4   5   2  145.59    6.40
   4   5  -2  140.79    5.60
   4   5  -2  139.39    5.40
   3  -5  -2    1.80    1.90
   3  -5  -2   -1.60    1.50
   3  -5  -2    0.90    1.30
  -3  -5   2    0.00    1.90
   3   5  -2   -1.30    1.40
  -3   5   2    0.40    1.90
  -3   5   2    1.20    1.60
   3   5  -2    0.10    1.30
   3   5  -2   -0.20    1.70
  -2  -5   2  477.85   13.00
   2  -5  -2  464.75   11.80
   2  -5  -2  439.96   11.50
  -2  -5   2  459.15   11.30
   2  -5  -2  464.95   11.00
   2   5  -2  462.05   11.20
   2   5  -2  467.65   11.80
  -2   5   2  461.75   12.10
   2   5  -2  452.55   11.40
   1  -5  -2  149.88    4.20
   1  -5  -2  151.18    5.70
  -1  -5   2  152.38    5.80
  -1  -5   2  159.38    6.40
   1  -5  -2  160.28    5.90
  -1   5   2  149.88    5.90
   1   5  -2  158.98    5.40
   1   5  -2  154.38    5.70
   1   5  -2  159.18    5.80
   0  -5   2   12.70    2.40
   0  -5  -2    9.90    2.30
   0  -5   2   11.10    2.40
   0  -5  -2    7.70    1.80
   0   5   2    9.00    2.30
   0   5   2    5.40    1.80
   0   5  -2    7.90    2.10
   0   5  -2    9.20    1.90
   0   5  -2    7.50    2.00
   1  -5   2   41.00    3.50
  -1  -5  -2   36.80    3.80
   1  -5   2   39.20    3.50
  -1   5  -2   38.10    3.60
   1   5   2   36.80    2.90
   1   5   2   36.80    3.40
  -1   5  -2   32.70    3.10
  -1   5  -2   36.90    3.50
   2  -5   2   80.69    4.50
   2  -5   2   80.09    4.40
  -2  -5  -2   73.89    5.00
  -2   5  -2   80.69    4.20
   2   5   2   78.99    3.80
   2   5   2   79.19    4.60
  -2   5  -2   82.09    4.90
  -3  -5  -2  119.19    6.50
   3  -5   2  125.29    5.60
   3  -5   2  122.49    5.70
  -3   5  -2  127.29    6.60
   3   5   2  121.19    5.90
  -3   5  -2  119.49    5.20
   3   5   2  129.69    4.60
  -4  -5  -2   -1.00    2.40
   4  -5   2    1.10    1.90
   4  -5   2   -0.60    1.90
  -4   5  -2    0.50    1.90
   4   5   2    3.00    2.50
  -4   5  -2   -0.30    2.40
  -5  -5  -2    0.00    2.60
   5  -5   2    2.40    2.40
   5   5   2    1.00    2.60
  -5   5  -2   -3.70    2.60
  -5   5  -2    0.60    2.10
  -6  -5  -2   76.19    6.30
   6  -5   2   75.69    5.50
   6   5   2   85.69    6.20
  -6   5  -2   85.79    7.30
   6   5   2   83.29    6.70
   7  -5   2   -1.30    2.40
   7  -5   2    3.00    3.20
  -7  -5  -2    3.50    3.40
   7   5   2    5.90    3.20
  -7   5  -2    1.40    3.50
   7   5   2    1.70    3.10
   8  -6  -2    7.70    4.00
  -8  -6   2    9.00    3.70
  -8  -6   2    1.70    3.70
   8  -6  -2    8.20    3.40
  -8   6   2    8.60    3.70
   8   6  -2    6.90    4.20
  -8   6   2   12.00    4.00
   8   6  -2    6.20    2.10
   7  -6  -2    5.00    2.90
  -7  -6   2    7.70    3.50
  -7  -6   2    0.80    3.20
   7  -6  -2    2.90    3.40
  -7   6   2   -1.00    3.10
   7   6  -2    8.00    3.50
   7   6  -2    5.30    2.00
  -7   6   2    4.50    3.30
   6  -6  -2    2.10    2.70
   6  -6  -2    2.80    2.70
  -6  -6   2   -3.20    2.40
  -6  -6   2    3.60    3.00
  -6   6   2   -0.90    2.40
   6   6  -2    1.60    2.80
   6   6  -2    3.50    2.00
  -6   6   2   -3.20    2.40
  -5  -6   2    6.20    3.40
   5  -6  -2   11.30    3.20
   5  -6  -2   10.50    2.90
   5   6  -2   14.30    3.50
  -5   6   2   12.00    3.10
   5   6  -2   14.30    2.50
  -5   6   2   12.30    3.40
   4  -6  -2  227.28    8.40
  -4  -6   2  237.48    9.40
   4  -6  -2  233.78    8.60
   4   6  -2  229.58    7.70
  -4   6   2  247.28    8.60
  -4   6   2  231.98    8.90
   4   6  -2  247.58    9.10
   4   6  -2  238.88    7.50
  -3  -6   2  119.69    6.40
   3  -6  -2  124.09    5.00
   3  -6  -2  124.39    5.30
   3  -6  -2  117.59    5.80
  -3   6   2  121.19    5.20
   3   6  -2  126.69    4.80
  -3   6   2  124.69    6.30
   3   6  -2  119.49    5.40
   3   6  -2  111.59    5.80
   2  -6  -2   29.00    2.50
   2  -6  -2   32.90    3.30
  -2  -6   2   33.50    4.00
   2  -6  -2   32.00    3.40
   2   6  -2   34.60    3.40
   2   6  -2   35.40    3.70
   2   6  -2   37.80    2.80
  -2   6   2   29.30    3.60
   1  -6  -2  386.56   10.50
  -1  -6   2  381.06   10.60
   1  -6  -2  363.06   10.90
  -1  -6   2  373.86   11.50
   1   6  -2  380.16    9.90
  -1   6   2  373.26   10.90
   1   6  -2  366.66   10.50
   1   6  -2  370.36   10.40
   0  -6   2   70.69    4.60
   0  -6   2   68.19    4.30
   0  -6  -2   66.59    4.70
   0   6   2   61.59    4.50
   0   6  -2   75.29    4.00
   0   6  -2   71.59    4.20
   0   6  -2   72.29    4.70
   1  -6   2  350.06   10.40
  -1  -6  -2  330.77   11.10
   1  -6   2  333.67   10.40
  -1   6  -2  354.06   10.40
  -1   6  -2  345.27    9.80
   1   6   2  339.57   10.50
  -1   6  -2  343.77   10.30
   2  -6   2  148.29    6.80
  -2  -6  -2  143.79    7.30
   2  -6   2  169.38    6.70
   2   6   2  142.39    6.90
  -2   6  -2  144.89    6.20
  -2   6  -2  158.68    6.80
  -3  -6  -2   11.40    3.40
   3  -6   2   11.10    3.00
   3  -6   2   14.40    2.60
   3   6   2   11.20    3.00
  -3   6  -2    9.80    2.50
  -3   6  -2   10.80    3.30
  -4  -6  -2    0.70    2.70
   4  -6   2    5.70    2.60
  -4   6  -2    0.40    2.70
  -4   6  -2   -1.70    2.20
   4   6   2    2.20    2.90
  -5  -6  -2   46.90    6.00
   5  -6   2   38.00    4.70
   5   6   2   40.90    5.00
  -5   6  -2   44.90    5.60
  -6  -6  -2    6.70    3.60
   6  -6   2    6.50    3.00
  -6   6  -2   10.10    4.10
   6   6   2    7.70    3.50
  -7  -6  -2    4.30    3.90
   7  -6   2   11.40    4.60
   7  -6   2    3.80    3.00
   7   6   2    7.50    4.20
   7   6   2    6.70    3.80
  -7   6  -2    5.40    4.00
  -8  -7   2    9.50    4.60
   8  -7  -2   13.20    3.80
   8  -7  -2   10.20    4.10
  -8   7   2    7.80    3.80
   8   7  -2   13.30    4.70
  -8   7   2    8.70    3.90
   8   7  -2    8.30    2.40
  -7  -7   2   -0.70    2.90
   7  -7  -2   -3.70    2.80
   7  -7  -2    2.70    3.40
  -7   7   2    8.10    3.30
   7   7  -2    3.60    4.10
  -7   7   2    3.00    3.50
   7   7  -2    6.30    2.30
   6  -7  -2   68.59    6.20
   6  -7  -2   51.69    5.60
  -6  -7   2   66.99    6.70
  -6   7   2   57.99    5.80
  -6   7   2   72.79    5.90
   6   7  -2   55.39    6.10
   6   7  -2   56.39    4.40
  -5  -7   2    9.50    3.50
   5  -7  -2   10.10    3.20
   5  -7  -2   11.10    3.20
  -5   7   2   12.80    3.40
   5   7  -2   11.70    2.60
   5   7  -2    9.10    3.30
  -5   7   2   15.10    3.90
   4  -7  -2   27.90    4.00
   4  -7  -2   24.30    3.40
  -4  -7   2   26.00    4.40
   4   7  -2   24.70    3.30
  -4   7   2   30.50    4.40
   4   7  -2   25.90    4.20
  -4   7   2   26.20    3.50
   3  -7  -2   27.10    3.80
  -3  -7   2   23.50    4.00
   3  -7  -2   32.40    3.40
   3  -7  -2   28.40    3.50
  -3   7   2   36.80    3.40
  -3   7   2   31.00    4.50
   3   7  -2   30.60    4.00
   3   7  -2   23.60    3.30
  -2  -7   2    7.30    3.20
   2  -7  -2   10.00    2.60
   2   7  -2   10.20    2.60
  -2   7   2    9.50    3.10
   2   7  -2    7.60    2.60
   1  -7  -2  201.88    8.00
  -1  -7   2  199.08    8.40
   1   7  -2  177.88    7.30
   1   7  -2  189.28    7.70
   1   7  -2  187.48    6.50
  -1   7   2  188.18    7.90
   0  -7  -2   99.19    5.80
   0  -7   2  102.59    5.90
   0   7  -2   98.89    4.90
   0   7   2   95.29    5.80
   0   7  -2   87.99    5.70
   0   7  -2   95.59    5.70
   1  -7   2   -1.10    2.50
  -1  -7  -2    3.30    3.00
   1  -7   2    2.80    2.40
   1   7   2    1.80    2.70
  -1   7  -2    8.40    3.50
  -1   7  -2    0.90    2.00
   2  -7   2   72.79    5.40
  -2  -7  -2   68.29    5.80
   2  -7   2   84.29    5.30
  -2   7  -2   72.39    5.10
   2   7   2   73.79    5.50
  -2   7  -2   72.39    5.20
   3  -7   2   47.30    4.90
   3  -7   2   59.69    4.50
  -3  -7  -2   44.30    5.40
  -3   7  -2   53.29    5.20
  -3   7  -2   55.59    5.00
   3   7   2   47.90    5.10
  -4  -7  -2    1.10    3.00
   4  -7   2    6.90    3.10
   4   7   2    4.60    3.30
  -4   7  -2    4.10    3.00
  -4   7  -2    1.40    2.40
   5  -7   2    0.30    2.70
  -5  -7  -2   -2.40    2.90
  -5   7  -2   -3.70    2.70
   5   7   2   -0.70    3.20
   6  -7   2    1.30    3.00
  -6  -7  -2    2.50    3.40
   6   7   2    8.60    4.00
  -6   7  -2   -2.90    3.30
  -7  -8   2   16.30    4.60
   7  -8  -2   14.00    4.00
   7  -8  -2   15.90    4.40
  -7   8   2   14.50    4.30
   7   8  -2   10.20    2.90
  -7   8   2   20.10    4.50
   7   8  -2   15.40    4.50
   6  -8  -2   70.89    6.70
  -6  -8   2   57.09    6.60
  -6   8   2   66.19    6.40
   6   8  -2   54.09    4.80
   6   8  -2   51.89    6.20
  -6   8   2   54.89    6.00
  -5  -8   2   -2.60    3.10
   5   8  -2   -0.70    2.80
   5   8  -2   -0.60    2.20
  -5   8   2    1.00    3.10
  -4  -8   2   84.79    6.80
  -4   8   2   89.79    6.60
   4   8  -2   78.99    5.50
   4   8  -2   93.19    6.60
  -3  -8   2   47.20    5.60
   3   8  -2   48.40    5.20
   3   8  -2   45.20    4.50
  -3   8   2   53.79    5.70
   2  -8  -2   68.79    5.20
  -2  -8   2   67.59    5.90
   2   8  -2   70.09    5.80
  -2   8   2   75.89    6.20
   2   8  -2   63.69    5.10
   1  -8  -2  187.98    8.30
  -1  -8   2  180.98    8.60
   1   8  -2  166.78    7.80
  -1   8   2  188.18    8.80
   1   8  -2  181.38    8.00
   0  -8   2   15.50    3.50
   0  -8  -2   11.90    3.40
   0   8  -2   22.10    3.70
   0   8   2   12.60    3.70
   0   8  -2   12.40    3.20
  -1  -8  -2   24.30    4.30
   1  -8   2   29.60    4.20
   1   8   2   28.60    4.50
  -1   8  -2   39.80    4.90
  -1   8  -2   32.50    3.70
  -2  -8  -2  162.48    8.70
   2  -8   2  153.28    7.30
  -2   8  -2  160.08    7.50
  -2   8  -2  155.88    7.80
   2   8   2  172.08    8.40
   3  -8   2   -0.30    2.70
  -3  -8  -2    1.80    3.10
   3   8   2    1.70    3.00
  -3   8  -2    1.10    2.60
  -3   8  -2    1.90    2.60
  -4  -8  -2    8.40    4.00
   4  -8   2    8.10    3.50
   4   8   2    8.70    3.70
  -4   8  -2   13.00    4.00
   5  -8   2    0.10    2.90
  -5  -8  -2    5.50    4.30
   5   8   2    8.40    3.60
  -5   8  -2   -1.20    3.00
   6  -8   2   11.00    4.50
  -6   8  -2    8.00    4.30
  -6  -9   2   24.00    5.10
  -6   9   2   27.40    5.10
   6   9  -2   32.00    4.40
   6   9  -2   22.60    5.10
  -5  -9   2    1.70    3.50
  -5   9   2   -4.30    2.60
   5   9  -2   -2.00    2.40
   5   9  -2    7.30    4.10
  -4  -9   2   37.30    5.90
   4   9  -2   26.50    4.80
   4   9  -2   21.30    4.00
  -4   9   2   29.00    5.10
  -3  -9   2   13.80    4.10
   3   9  -2   12.30    3.70
  -3   9   2   14.80    4.30
   3   9  -2   10.20    3.10
  -2  -9   2    0.20    2.80
   2  -9  -2    2.00    2.80
   2   9  -2    2.90    3.20
   2   9  -2    3.70    2.80
  -2   9   2    4.70    3.50
   1  -9  -2   70.39    6.40
  -1  -9   2   85.99    6.60
  -1   9   2   58.09    6.20
   1   9  -2   73.39    6.50
   1   9  -2   69.69    5.60
   0  -9  -2    4.10    3.10
   0  -9   2    2.20    3.20
   0   9   2   -1.40    2.90
   0   9  -2    0.60    3.20
  -1  -9  -2   -4.30    3.00
   1  -9   2    3.30    2.80
  -1   9  -2    1.10    3.10
   1   9   2   -6.50    3.10
   2  -9   2    5.80    3.20
  -2  -9  -2   -2.10    3.20
   2   9   2   -9.50    3.00
  -2   9  -2    0.00    3.60
  -3  -9  -2   28.10    5.40
  -3   9  -2   31.20    4.80
   3   9   2   23.40    4.90
  -4  -9  -2   14.30    4.70
  -4   9  -2   17.50    4.40
   4   9   2   15.10    4.60
   5  -9   2    9.40    4.00
  -5  -9  -2   10.60    4.70
   5   9   2    6.90    4.30
  -5   9  -2    2.00    4.00
  -5 -10   2    2.30    4.00
  -5  10   2    0.70    3.80
   5  10  -2    8.10    4.50
   5  10  -2   -1.20    2.70
  -4 -10   2   18.20    5.00
  -4  10   2   18.10    5.10
   4  10  -2   18.10    3.80
   4  10  -2   13.60    4.40
  -3 -10   2    5.20    3.70
  -3  10   2    4.80    4.40
   3  10  -2    3.70    3.10
   3  10  -2    8.50    3.70
  -2 -10   2   19.70    4.60
  -2  10   2   15.00    4.60
   2  10  -2   17.00    4.00
   2  10  -2   12.10    4.20
   1 -10  -2   53.09    5.90
  -1 -10   2   46.40    6.00
  -1  10   2   53.79    6.80
   1  10  -2   43.80    5.70
   0 -10  -2   14.80    4.20
   0 -10   2   16.90    4.40
   0  10  -2   12.90    4.00
   0  10   2   10.60    4.10
   1 -10   2    2.40    2.90
  -1 -10  -2   -0.60    3.20
   1  10   2   -5.60    3.60
  -1  10  -2    0.10    3.40
  -2 -10  -2    6.80    4.00
  -2  10  -2   -1.70    3.60
   2  10   2   -1.50    3.60
  -3 -10  -2   25.70    5.50
   3  10   2   24.00    5.20
  -3 -11   2   31.40    6.00
  -3  11   2   33.70    6.70
   3  11  -2   32.20    5.40
   3  11  -2   28.50    6.00
  -2 -11   2    6.70    3.90
  -2  11   2   14.00    5.50
   2  11  -2    8.30    3.80
   2  11  -2   10.80    4.70
  -1 -11   2    8.50    4.30
   1 -11  -2    6.10    3.70
  -1  11   2    4.20    4.70
   1  11  -2   -1.10    3.70
   0 -11   2   -0.90    3.50
   0 -11  -2   -2.40    3.50
   0  11   2   -6.70    3.60
   0  11  -2    0.80    4.50
  -1 -11  -2   13.90    4.80
   1 -11   2   13.20    4.30
  -1  11  -2    9.50    5.00
   1  11   2    4.50    4.20
 -10   0   3    2.90    3.90
  10   0  -3   -4.40    3.90
  10   0  -3   -0.30    1.90
  -9   0   3   67.09    6.60
   9   0  -3   57.09    6.80
   9   0  -3   59.69    4.30
  -8   0   3    2.50    2.70
   8   0  -3    0.10    1.70
   8   0  -3   -1.30    2.80
   7   0  -3    0.50    1.60
   7   0  -3    2.60    2.70
  -7   0   3    2.20    2.40
  -6   0   3   -1.30    1.00
   6   0  -3   -3.50    1.90
   6   0  -3   -0.20    1.40
  -6   0   3   -0.20    1.80
  -5   0   3   88.59    4.50
   5   0  -3   91.19    5.00
  -5   0   3   95.19    3.30
   5   0  -3   84.59    3.80
   4   0  -3    5.30    2.20
   4   0  -3    1.40    1.40
  -4   0   3   -0.40    1.50
  -4   0   3   -0.50    0.90
  -3   0   3 4011.30   75.39
  -3   0   3 3959.70   71.49
   3   0  -3 3873.31   70.49
   3   0  -3 3810.62   76.89
  -2   0   3    0.10    1.00
  -2   0   3    2.70    1.40
   2   0  -3   -0.10    1.40
   2   0  -3   -0.90    1.20
  -1   0   3  232.78    6.40
   1   0  -3  232.78    6.00
   1   0  -3  224.58    6.40
  -1   0   3  228.08    5.10
   0   0  -3    0.70    0.50
   0   0  -3    0.80    1.50
   0   0   3    0.90    1.50
   0   0   3   -0.50    1.10
   0   0  -3   -0.80    1.00
   1   0   3   60.89    3.50
   1   0   3   65.89    1.90
   1   0   3   65.69    2.80
  -1   0  -3   65.19    3.50
   2   0   3    0.60    0.80
   2   0   3    1.60    1.70
  -2   0  -3   -0.80    1.50
  -2   0  -3   -0.30    0.80
   2   0   3    0.10    0.90
   3   0   3   35.80    3.10
   3   0   3   34.40    2.30
  -3   0  -3   36.50    3.60
   3   0   3   37.40    2.10
  -3   0  -3   28.70    2.20
  -4   0  -3    1.70    1.40
  -4   0  -3   -0.20    2.00
   4   0   3    1.00    1.00
   4   0   3    1.00    1.90
   4   0   3    1.00    1.00
  -5   0  -3  156.08    7.70
   5   0   3  152.08    4.40
   5   0   3  156.58    7.00
   5   0   3  155.08    4.50
  -5   0  -3  154.88    6.00
  -6   0  -3    3.20    3.10
   6   0   3    0.90    2.30
   6   0   3    1.20    1.10
  -7   0  -3   19.00    4.50
   7   0   3   20.80    1.60
   7   0   3   16.70    4.20
   8   0   3    3.70    3.90
  -8   0  -3   -0.60    3.60
  10  -1  -3   -1.10    2.00
 -10  -1   3    5.40    3.80
  10  -1  -3    4.30    3.80
  10   1  -3    4.50    4.00
  10   1  -3    1.50    1.80
 -10   1   3    4.10    3.80
   9  -1  -3   76.49    5.00
   9  -1  -3   88.79    7.60
  -9  -1   3   89.79    6.80
   9   1  -3   85.69    4.80
  -9   1   3   79.39    6.60
   9   1  -3   77.09    7.60
  -8  -1   3    1.50    2.70
   8  -1  -3    2.50    3.00
   8  -1  -3    2.50    2.00
  -8   1   3    0.50    2.60
   8   1  -3    0.60    3.00
   8   1  -3    4.10    1.90
  -7  -1   3   98.19    5.90
   7  -1  -3   84.29    6.20
   7  -1  -3  102.59    4.90
   7   1  -3   86.79    6.50
  -7   1   3  100.69    5.90
   7   1  -3   96.99    4.50
   6  -1  -3  430.06   10.80
   6  -1  -3  424.86   13.00
  -6  -1   3  434.86   10.80
  -6  -1   3  422.86   12.10
   6   1  -3  428.76   10.50
   6   1  -3  435.86   13.00
  -5  -1   3   17.70    2.10
   5  -1  -3   19.70    3.00
   5  -1  -3   19.20    2.40
  -5  -1   3   14.70    2.50
  -5   1   3   18.00    2.60
  -5   1   3   16.70    1.10
   5   1  -3   15.50    2.80
   5   1  -3   18.90    2.10
   4  -1  -3   35.30    3.30
  -4  -1   3   39.60    2.70
   4  -1  -3   33.80    2.80
  -4  -1   3   42.00    3.10
   4   1  -3   39.80    2.70
  -4   1   3   36.60    1.70
   4   1  -3   39.60    3.30
  -4   1   3   33.80    3.00
  -3  -1   3  939.01   19.20
  -3  -1   3  960.20   20.10
   3  -1  -3  933.11   20.70
   3  -1  -3  926.61   18.90
  -3   1   3  965.50   19.10
   3   1  -3  943.81   18.90
  -3   1   3  942.31   19.30
   3   1  -3  938.81   20.80
  -2  -1   3  204.68    5.30
  -2  -1   3  204.78    5.90
   2  -1  -3  190.88    5.60
   2  -1  -3  203.08    6.10
  -2   1   3  207.88    5.50
  -2   1   3  204.68    5.50
   2   1  -3  198.88    5.60
   2   1  -3  200.68    6.20
  -1  -1   3  792.32   15.10
  -1  -1   3  792.92   17.40
   1  -1  -3  810.22   16.00
   1  -1  -3  800.22   17.20
  -1   1   3  823.92   15.60
   1   1  -3  803.72   17.60
   1   1  -3  777.42   16.00
  -1   1   3  796.92   17.10
   0  -1   3    0.70    1.60
   0  -1  -3    1.30    1.20
   0  -1   3   -0.30    1.30
   0  -1  -3    0.30    1.00
   0  -1  -3    1.30    1.60
   0   1   3    1.10    1.10
   0   1  -3    0.70    1.50
   0   1   3    1.20    0.90
   0   1   3    3.70    1.60
   0   1  -3    0.20    1.20
   1  -1   3   55.29    2.80
   1  -1   3   57.39    1.50
   1  -1   3   56.79    3.40
  -1  -1  -3   63.09    3.80
  -1  -1  -3   56.39    3.30
   1   1   3   59.79    2.60
  -1   1  -3   59.49    1.50
  -1   1  -3   55.29    2.70
   1   1   3   54.19    2.30
  -1   1  -3   57.49    3.60
   1   1   3   65.49    3.70
  -2  -1  -3   39.20    3.40
   2  -1   3   53.09    2.70
   2  -1   3   43.60    3.40
  -2  -1  -3   39.40    3.00
   2   1   3   44.50    3.40
   2   1   3   42.50    2.40
  -2   1  -3   42.90    2.00
  -2   1  -3   42.50    3.50
   2   1   3   44.80    2.20
   3  -1   3    4.90    1.80
  -3  -1  -3    2.40    1.30
  -3  -1  -3    2.80    1.70
   3  -1   3    4.20    1.30
  -3  -1  -3    4.10    2.00
  -3   1  -3    2.20    1.20
   3   1   3    4.70    1.90
  -3   1  -3    3.00    2.00
   3   1   3    4.10    1.30
   3   1   3    3.00    0.90
  -4  -1  -3   77.49    3.90
  -4  -1  -3   77.19    5.00
   4  -1   3   76.29    3.40
  -4  -1  -3   79.09    5.00
   4  -1   3   72.09    3.30
   4  -1   3   78.29    4.60
   4   1   3   77.19    3.90
  -4   1  -3   78.39    3.70
   4   1   3   68.39    4.60
  -4   1  -3   78.29    5.30
   4   1   3   81.69    2.60
   5  -1   3    0.20    1.90
  -5  -1  -3    0.50    2.20
   5  -1   3    2.40    1.40
  -5  -1  -3    4.40    2.00
   5   1   3    1.90    0.80
   5   1   3    2.00    0.80
   5   1   3    2.90    1.90
   5   1   3    2.00    2.20
  -5   1  -3    0.10    2.50
  -6  -1  -3   11.30    3.70
   6  -1   3   10.30    1.90
  -6   1  -3   16.30    4.00
   6   1   3   14.40    3.20
   7  -1   3    1.10    1.40
  -7  -1  -3    0.00    3.00
   7  -1   3    5.40    3.60
  -7   1  -3   -2.60    3.10
   7   1   3    2.80    3.00
   8  -1   3   -1.10    1.20
   8  -1   3    4.30    4.10
  -8  -1  -3   -1.40    3.50
   8   1   3    0.20    3.20
  -8   1  -3   -1.80    4.00
 -10  -2   3    5.50    3.70
  10  -2  -3    8.30    2.80
  10  -2  -3    2.50    4.00
  10   2  -3    3.50    1.80
  10   2  -3   -3.70    3.90
 -10   2   3    0.90    3.20
   9  -2  -3   26.10    3.60
   9  -2  -3   36.60    5.80
  -9  -2   3   34.30    5.10
   9   2  -3   27.20    2.90
  -9   2   3   35.20    5.20
   9   2  -3   32.60    5.60
   8  -2  -3    3.80    2.20
  -8  -2   3    9.60    3.20
   8  -2  -3    8.30    3.40
   8   2  -3    6.70    1.90
  -8   2   3    6.20    3.10
   8   2  -3    5.00    3.20
   7  -2  -3   62.29    5.50
   7  -2  -3   49.70    4.20
  -7  -2   3   66.89    5.20
  -7  -2   3   59.79    4.10
   7   2  -3   53.99    5.40
  -7   2   3   58.79    5.40
   7   2  -3   65.89    3.80
   6  -2  -3  371.96   11.90
  -6  -2   3  359.16   10.90
  -6  -2   3  348.97   10.10
   6  -2  -3  367.16   10.00
   6   2  -3  354.26   11.40
  -6   2   3  366.56   11.00
   6   2  -3  361.26    9.30
   5  -2  -3   30.50    3.60
  -5  -2   3   24.70    3.00
   5  -2  -3   27.70    2.90
  -5  -2   3   29.90    2.90
  -5   2   3   24.10    3.00
   5   2  -3   26.90    2.50
   5   2  -3   25.40    3.10
  -4  -2   3   94.49    4.40
   4  -2  -3   91.09    4.10
  -4  -2   3   98.39    4.30
   4  -2  -3   86.69    4.60
  -4   2   3   96.69    2.20
   4   2  -3   96.99    4.60
  -4   2   3   91.39    4.50
  -4   2   3   89.79    2.20
   4   2  -3  104.89    4.00
  -3  -2   3   43.90    3.60
   3  -2  -3   46.60    3.30
   3  -2  -3   49.10    3.10
  -3  -2   3   54.99    3.10
  -3   2   3   49.50    3.30
  -3   2   3   46.50    2.20
   3   2  -3   58.29    3.10
   3   2  -3   58.79    3.50
   2  -2  -3   14.30    2.10
   2  -2  -3   14.10    2.00
  -2  -2   3   19.40    2.50
  -2  -2   3   16.00    1.90
   2  -2  -3   11.00    1.70
   2   2  -3   13.20    1.90
  -2   2   3   15.60    2.00
  -2   2   3   14.00    1.70
   2   2  -3   13.90    2.20
  -1  -2   3  496.15   12.10
   1  -2  -3  493.05   11.30
   1  -2  -3  499.45   11.80
  -1  -2   3  507.35   10.30
   1  -2  -3  492.35   10.90
   1   2  -3  507.25   12.20
   1   2  -3  510.85   11.20
  -1   2   3  495.15   10.90
  -1   2   3  513.25   11.90
   1   2  -3  515.55   10.30
   0  -2  -3  161.68    4.80
   0  -2  -3  159.68    5.60
   0  -2   3  154.28    5.60
   0  -2  -3  167.88    4.70
   0   2   3  161.08    5.60
   0   2  -3  160.08    3.80
   0   2  -3  154.28    4.90
   0   2   3  160.48    4.80
   0   2   3  162.58    4.70
   0   2  -3  161.48    5.70
  -1  -2  -3  256.77    7.10
   1  -2   3  277.57    7.20
   1  -2   3  293.97    8.40
  -1  -2  -3  269.97    8.20
   1   2   3  258.77    6.40
  -1   2  -3  256.67    8.10
   1   2   3  255.47    8.20
   1   2   3  268.07    6.80
  -1   2  -3  282.37    7.10
  -1   2  -3  269.77    5.70
  -2  -2  -3 1177.18   24.90
  -2  -2  -3 1150.58   25.90
   2  -2   3 1139.59   25.30
   2  -2   3 1192.98   23.10
   2   2   3 1178.78   23.00
  -2   2  -3 1131.59   26.10
   2   2   3 1151.08   25.90
  -2   2  -3 1182.78   22.00
   2   2   3 1169.28   21.90
   3  -2   3  186.48    5.80
  -3  -2  -3  173.38    6.50
   3  -2   3  195.98    6.90
   3  -2   3  185.58    5.70
  -3  -2  -3  185.18    7.20
   3   2   3  177.78    4.50
   3   2   3  172.38    7.00
  -3   2  -3  199.98    7.70
   3   2   3  173.28    5.80
  -3   2  -3  188.38    5.20
   4  -2   3   -0.80    1.30
  -4  -2  -3    4.00    2.40
  -4  -2  -3   -0.30    1.70
  -4  -2  -3    1.10    2.10
   4  -2   3    0.00    2.00
  -4   2  -3   -2.00    2.20
   4   2   3    0.00    1.60
   4   2   3    0.80    0.70
  -4   2  -3    1.10    1.40
   4   2   3    2.10    2.20
   5  -2   3    0.00    1.50
  -5  -2  -3    0.80    1.90
  -5  -2  -3   -1.30    2.40
   5  -2   3    0.10    2.20
  -5  -2  -3    2.40    2.60
   5   2   3    2.00    2.30
  -5   2  -3   -0.40    2.70
   5   2   3   -0.90    1.80
   6  -2   3   51.39    3.60
  -6  -2  -3   47.70    5.40
  -6  -2  -3   44.90    5.30
   6   2   3   50.59    5.30
  -6   2  -3   50.49    6.00
   6   2   3   47.70    5.20
   7  -2   3   18.00    2.60
  -7  -2  -3   20.00    4.40
   7   2   3   23.60    4.40
  -7   2  -3   19.40    5.00
   7   2   3   16.60    3.90
  10  -3  -3   -0.50    4.20
 -10  -3   3   -5.90    2.90
  10  -3  -3    1.50    2.50
  10   3  -3   -4.30    3.50
  10   3  -3   -1.70    1.60
  10   3  -3    5.40    3.80
 -10   3   3   -0.30    3.50
   9  -3  -3    3.50    3.50
   9  -3  -3   -2.30    2.20
  -9  -3   3   -1.20    3.10
   9   3  -3   -0.30    1.50
  -9   3   3    1.20    3.10
   9   3  -3    3.20    3.30
   9   3  -3   -6.30    3.20
   8  -3  -3   32.40    3.90
  -8  -3   3   34.30    4.60
   8  -3  -3   40.50    5.40
   8   3  -3   28.30    4.90
  -8   3   3   37.60    5.10
   8   3  -3   34.70    3.10
  -7  -3   3  132.19    6.30
   7  -3  -3  128.69    6.20
  -7  -3   3  136.09    7.00
   7  -3  -3  113.99    7.50
  -7   3   3  121.99    6.80
   7   3  -3  135.19    7.10
   7   3  -3  140.09    5.30
   6  -3  -3  154.18    6.40
   6  -3  -3  139.89    7.20
  -6  -3   3  158.38    6.40
  -6  -3   3  159.38    7.00
   6   3  -3  166.68    7.30
  -6   3   3  139.79    6.70
   6   3  -3  162.78    5.60
  -5  -3   3    8.30    2.30
   5  -3  -3   12.80    2.90
  -5  -3   3    6.70    2.30
   5  -3  -3    8.10    2.20
   5   3  -3    8.60    1.80
  -5   3   3    7.60    2.30
   5   3  -3   10.30    2.70
   4  -3  -3  626.24   14.50
  -4  -3   3  610.54   14.70
   4  -3  -3  630.34   15.60
  -4  -3   3  621.14   15.30
  -4   3   3  617.14   14.80
  -4   3   3  623.74   12.40
   4   3  -3  607.64   14.70
  -4   3   3  670.53   12.60
   4   3  -3  611.04   15.30
   4   3  -3  624.84   13.90
  -3  -3   3  700.73   15.50
   3  -3  -3  696.23   15.50
   3  -3  -3  715.83   14.90
   3  -3  -3  703.33   16.30
  -3  -3   3  710.43   16.80
   3   3  -3  696.43   15.50
   3   3  -3  716.53   15.30
  -3   3   3  730.23   14.90
  -3   3   3  687.43   15.70
   3   3  -3  689.83   16.40
   2  -3  -3   46.90    2.80
   2  -3  -3   49.60    3.20
  -2  -3   3   55.89    3.10
   2  -3  -3   60.79    3.40
  -2  -3   3   61.89    4.70
   2   3  -3   57.69    3.70
  -2   3   3   57.89    3.70
   2   3  -3   55.89    3.20
   2   3  -3   54.99    3.20
   1  -3  -3 1416.36   27.60
   1  -3  -3 1395.36   26.60
  -1  -3   3 1350.26   29.00
   1  -3  -3 1332.47   28.40
   1   3  -3 1344.77   26.00
   1   3  -3 1340.87   28.80
  -1   3   3 1392.96   26.90
   1   3  -3 1349.27   26.70
  -1   3   3 1350.86   28.40
   0  -3   3  125.59    5.90
   0  -3  -3  117.59    5.00
   0  -3  -3  114.29    3.80
   0  -3  -3  118.89    4.20
   0   3  -3  105.29    4.90
   0   3  -3  122.69    4.60
   0   3  -3  147.99    4.10
   0   3   3  127.19    4.70
   0   3   3  123.19    4.40
  -1  -3  -3  228.48    5.90
  -1  -3  -3  225.38    7.60
   1  -3   3  217.08    7.10
   1  -3   3  209.48    6.60
   1   3   3  229.68    7.60
  -1   3  -3  221.48    6.60
   1   3   3  227.78    6.00
   1   3   3  217.58    6.40
  -1   3  -3  213.68    7.40
  -1   3  -3  214.48    5.50
   2  -3   3  175.98    5.90
   2  -3   3  171.98    6.30
  -2  -3  -3  161.18    5.40
  -2  -3  -3  173.68    6.90
   2  -3   3  170.38    5.90
  -2   3  -3  172.78    5.70
   2   3   3  163.48    6.70
  -2   3  -3  171.08    6.90
   2   3   3  163.28    5.70
  -2   3  -3  166.68    4.70
   2   3   3  170.38    4.80
   3  -3   3   87.79    4.30
  -3  -3  -3  102.99    5.70
   3  -3   3   96.79    5.00
  -3  -3  -3   88.29    4.50
   3   3   3   89.79    5.40
  -3   3  -3   90.89    5.50
  -3   3  -3  100.49    3.90
   3   3   3   99.99    3.30
   3   3   3   95.59    4.50
  -4  -3  -3  108.19    6.30
  -4  -3  -3  110.69    5.50
   4  -3   3  108.09    5.00
   4  -3   3  113.39    5.70
   4   3   3  105.09    5.10
  -4   3  -3  107.89    6.60
   4   3   3  117.79    6.40
  -4   3  -3  111.79    5.10
   4   3   3  110.59    3.20
  -5  -3  -3  185.78    8.70
   5  -3   3  181.78    6.80
   5  -3   3  175.78    7.50
  -5  -3  -3  184.98    7.80
  -5   3  -3  171.98    9.00
   5   3   3  177.58    7.30
   5   3   3  178.88    8.30
   5   3   3  186.98    7.90
  -6  -3  -3   19.20    3.80
  -6  -3  -3   21.10    4.40
   6  -3   3   22.20    3.00
  -6   3  -3   11.80    4.20
   6   3   3   23.30    3.50
   6   3   3   22.30    4.30
   6   3   3   24.50    3.80
   7  -3   3    0.80    2.00
  -7  -3  -3    2.90    3.60
  -7   3  -3    4.80    3.90
   7   3   3    4.20    3.20
   9  -4  -3    3.10    3.70
   9  -4  -3    1.80    2.60
  -9  -4   3   -0.40    3.20
   9   4  -3    3.00    1.90
   9   4  -3   -2.40    3.10
  -9   4   3    0.70    3.10
   9   4  -3   -1.10    3.30
   8  -4  -3   -2.20    3.10
  -8  -4   3   -0.30    2.80
   8  -4  -3    5.20    2.70
   8   4  -3    4.50    3.10
  -8   4   3   -1.90    2.70
   8   4  -3    2.00    1.70
   8   4  -3    0.50    2.60
   7  -4  -3    3.50    2.80
   7  -4  -3    1.40    2.20
  -7  -4   3    6.90    3.00
  -7  -4   3    9.20    2.80
   7   4  -3    5.10    1.90
   7   4  -3    4.60    2.70
   7   4  -3    6.70    3.00
  -7   4   3    4.80    3.10
   6  -4  -3  163.08    6.80
   6  -4  -3  162.98    8.00
  -6  -4   3  159.68    7.50
  -6  -4   3  170.48    7.50
  -6   4   3  165.78    7.70
   6   4  -3  172.08    7.60
   6   4  -3  186.58    8.00
   6   4  -3  168.18    6.10
   5  -4  -3    4.60    2.40
  -5  -4   3    5.60    2.60
  -5  -4   3    2.20    2.40
   5  -4  -3    3.10    2.00
   5   4  -3    5.80    2.10
   5   4  -3    6.30    2.60
   5   4  -3    2.20    1.60
  -5   4   3    5.40    2.30
   4  -4  -3    2.40    1.80
   4  -4  -3    5.30    2.00
  -4  -4   3    2.80    2.00
   4  -4  -3    6.60    1.10
  -4  -4   3    5.90    2.10
   4   4  -3    4.20    2.00
   4   4  -3    6.00    1.80
  -4   4   3    2.90    2.10
   4   4  -3    3.30    1.90
  -4   4   3    4.80    1.10
   3  -4  -3    1.20    1.70
  -3  -4   3    3.90    1.80
   3  -4  -3    2.40    1.60
   3  -4  -3    2.30    1.30
  -3  -4   3    3.80    1.60
  -3  -4   3    4.60    2.10
   3   4  -3    1.60    1.70
   3   4  -3    1.30    1.60
   3   4  -3    2.40    1.60
  -3   4   3    3.10    1.80
   2  -4  -3  364.36    9.40
   2  -4  -3  356.06    9.00
  -2  -4   3  377.36   10.60
   2  -4  -3  379.56    9.80
  -2  -4   3  360.56    9.40
   2   4  -3  378.16    9.70
   2   4  -3  353.46    9.70
   2   4  -3  352.26    9.20
  -2   4   3  348.67    9.70
   1  -4  -3  217.98    7.10
  -1  -4   3  215.38    7.60
   1  -4  -3  234.98    6.80
  -1  -4   3  222.68    7.00
   1  -4  -3  229.38    5.80
   1   4  -3  222.08    6.90
  -1   4   3  231.08    7.10
   1   4  -3  223.68    6.40
   1   4  -3  222.78    7.20
   0  -4  -3    2.60    1.90
   0  -4   3    2.50    1.60
   0  -4  -3    1.30    0.80
   0  -4   3   -1.00    1.90
   0  -4  -3    2.10    1.50
   0   4   3    2.00    1.60
   0   4  -3    4.20    1.70
   0   4  -3    3.30    1.70
   0   4  -3    0.80    1.30
   0   4   3    1.60    1.60
  -1  -4  -3  191.98    4.90
  -1  -4  -3  197.78    7.40
   1  -4   3  191.08    6.90
   1  -4   3  185.58    6.50
  -1   4  -3  186.68    6.50
   1   4   3  189.48    6.30
   1   4   3  193.68    5.90
  -1   4  -3  189.58    7.00
  -1   4  -3  188.18    5.60
  -2  -4  -3    1.40    1.10
   2  -4   3   -2.50    2.00
   2  -4   3    0.40    1.70
  -2  -4  -3    0.90    2.00
  -2   4  -3   -0.50    1.20
  -2   4  -3    1.00    2.00
   2   4   3   -0.30    1.50
   2   4   3    0.80    1.20
   3  -4   3   16.70    3.00
  -3  -4  -3   16.90    2.20
   3  -4   3   17.30    2.70
  -3  -4  -3   18.80    3.40
   3   4   3   20.50    3.00
   3   4   3   18.30    1.90
  -3   4  -3   17.50    2.20
  -3   4  -3   16.00    3.30
   4  -4   3  111.69    5.70
  -4  -4  -3  108.39    6.60
   4  -4   3  107.79    5.50
   4   4   3  100.59    3.50
   4   4   3  118.99    6.70
   4   4   3  104.99    5.20
  -4   4  -3   99.29    6.60
   4   4   3  104.29    5.40
  -5  -4  -3   12.90    3.60
   5  -4   3   15.40    3.00
  -5   4  -3    8.70    3.60
   5   4   3   13.90    3.10
   5   4   3   17.90    3.80
   5   4   3   14.30    1.20
   6  -4   3   10.00    2.80
  -6  -4  -3   10.50    3.60
  -6   4  -3   15.00    4.40
   6   4   3   16.00    3.50
   6   4   3   17.90    4.00
   7  -4   3   25.50    3.80
  -7  -4  -3   21.70    4.90
   7   4   3   29.70    5.10
  -7   4  -3   29.10    5.90
   9  -5  -3   12.50    4.40
   9  -5  -3   16.30    3.90
  -9  -5   3   18.40    4.40
   9   5  -3   10.30    2.40
   9   5  -3    8.40    3.90
  -9   5   3   12.30    3.90
   8  -5  -3   -0.20    2.80
  -8  -5   3    5.40    3.40
   8  -5  -3    0.70    3.30
  -8  -5   3    5.50    2.90
   8   5  -3    5.50    3.70
   8   5  -3    0.10    1.70
   8   5  -3   -1.50    3.10
  -8   5   3   -0.30    3.00
  -7  -5   3    6.70    2.90
   7  -5  -3    3.90    3.40
  -7  -5   3    9.30    3.40
   7  -5  -3    7.40    2.80
   7   5  -3    5.40    3.20
  -7   5   3    7.60    3.20
   7   5  -3    5.70    3.00
   7   5  -3    8.80    2.30
   6  -5  -3   34.30    4.10
  -6  -5   3   30.60    4.20
  -6  -5   3   35.60    4.60
   6  -5  -3   35.10    4.50
  -6   5   3   29.50    4.20
   6   5  -3   32.60    3.30
   6   5  -3   31.90    4.10
   6   5  -3   31.70    4.30
   5  -5  -3   93.19    5.40
  -5  -5   3  100.39    5.70
   5  -5  -3   92.29    5.50
  -5  -5   3   95.29    5.90
   5   5  -3   92.19    4.80
   5   5  -3   94.09    5.70
  -5   5   3   82.29    5.50
   5   5  -3   94.39    5.20
  -4  -5   3  320.67   10.10
   4  -5  -3  335.57   10.10
  -4  -5   3  328.87   10.90
   4  -5  -3  354.56   10.30
   4  -5  -3  338.47    8.20
   4   5  -3  347.77   10.00
   4   5  -3  325.97   10.10
   4   5  -3  317.27    9.30
  -4   5   3  325.87   10.30
  -3  -5   3   -1.50    2.10
   3  -5  -3    0.30    1.30
   3  -5  -3    0.30    1.60
   3  -5  -3   -0.80    1.80
   3   5  -3    1.60    1.70
  -3   5   3   -2.10    2.00
   3   5  -3   -0.50    1.90
   3   5  -3    5.60    1.90
  -2  -5   3  205.78    6.90
  -2  -5   3  204.28    7.70
   2  -5  -3  204.28    5.90
   2  -5  -3  195.88    6.90
   2  -5  -3  207.18    6.70
   2   5  -3  208.68    6.80
  -2   5   3  200.78    7.20
   2   5  -3  203.48    7.10
   2   5  -3  195.18    6.70
   1  -5  -3  338.27    7.80
  -1  -5   3  345.87    9.70
  -1  -5   3  330.47   10.40
   1  -5  -3  365.96    9.70
   1  -5  -3  356.46   10.10
  -1   5   3  326.07    9.80
   1   5  -3  345.07    9.30
   1   5  -3  359.86    9.90
   1   5  -3  343.07    9.70
   0  -5   3  258.37    8.20
   0  -5  -3  247.68    8.50
   0  -5   3  241.48    8.50
   0   5  -3  254.57    7.40
   0   5  -3  254.27    8.00
   0   5   3  254.87    8.10
   0   5  -3  252.47    8.20
   1  -5   3  192.28    7.10
   1  -5   3  200.78    7.50
  -1  -5  -3  208.08    8.10
  -1   5  -3  203.78    6.40
  -1   5  -3  196.08    7.40
   1   5   3  193.48    7.10
  -1   5  -3  195.78    7.10
   2  -5   3  344.67   10.80
  -2  -5  -3  374.96   11.90
   2  -5   3  362.56   10.50
  -2   5  -3  353.06    9.40
  -2   5  -3  356.46   11.50
   2   5   3  340.37   10.30
   3  -5   3    0.10    2.90
   3  -5   3    7.60    2.50
  -3  -5  -3    1.20    2.70
   3   5   3    3.90    2.60
  -3   5  -3    1.00    2.40
  -3   5  -3    0.10    1.80
  -4  -5  -3    5.60    3.10
   4  -5   3    3.30    2.50
   4  -5   3    4.30    2.30
   4   5   3    3.80    2.40
  -4   5  -3    7.10    3.20
   5  -5   3   19.20    3.30
  -5  -5  -3   19.70    4.20
   5   5   3   27.20    4.20
  -5   5  -3   25.60    4.80
   5   5   3   33.90    4.90
   6  -5   3   43.30    4.80
  -6  -5  -3   41.10    5.70
   6   5   3   37.70    5.00
   6   5   3   42.10    5.90
  -6   5  -3   45.70    6.20
  -7  -5  -3   -0.60    3.30
   7  -5   3    0.80    2.60
  -7   5  -3   -0.20    3.90
   7   5   3    0.80    3.20
   8  -6  -3   30.60    4.70
  -8  -6   3   25.40    5.30
  -8  -6   3   26.10    4.70
   8  -6  -3   40.50    5.70
   8   6  -3   35.50    3.70
  -8   6   3   39.50    5.70
   8   6  -3   41.70    6.10
   7  -6  -3   28.20    4.30
  -7  -6   3   26.00    4.60
   7  -6  -3   27.80    4.60
  -7  -6   3   23.80    4.40
   7   6  -3   20.30    4.30
  -7   6   3   24.00    4.40
   7   6  -3   21.60    3.10
  -6  -6   3   26.90    4.50
   6  -6  -3   32.20    4.50
   6  -6  -3   35.30    4.70
  -6  -6   3   32.10    4.60
   6   6  -3   31.70    4.60
  -6   6   3   38.00    4.90
   6   6  -3   26.70    3.30
  -5  -6   3   96.49    6.40
   5  -6  -3   88.69    5.70
  -5  -6   3   92.39    6.30
   5  -6  -3   96.89    6.10
   5   6  -3   97.69    5.30
   5   6  -3   88.69    5.00
  -5   6   3   83.79    6.00
   5   6  -3   95.89    6.20
   4  -6  -3   -1.60    2.30
   4  -6  -3    0.50    2.00
  -4  -6   3   -3.30    2.60
   4   6  -3    0.10    2.50
   4   6  -3    1.20    2.00
   4   6  -3   -1.20    1.90
  -4   6   3   -5.10    2.40
   3  -6  -3    9.30    2.10
   3  -6  -3    6.90    2.50
  -3  -6   3   11.80    3.20
   3  -6  -3   12.70    2.30
   3   6  -3   12.20    2.60
   3   6  -3   11.60    2.30
  -3   6   3    7.60    2.90
   3   6  -3    9.30    2.70
   2  -6  -3  135.59    6.10
   2  -6  -3  150.58    6.20
  -2  -6   3  153.48    7.20
   2  -6  -3  149.49    4.90
   2   6  -3  146.19    5.80
  -2   6   3  139.99    6.50
   2   6  -3  148.29    6.40
   2   6  -3  135.79    6.20
   1  -6  -3    5.70    2.50
  -1  -6   3    7.90    2.60
  -1  -6   3    7.00    2.30
   1   6  -3    7.60    2.20
  -1   6   3    8.10    2.70
   1   6  -3    8.30    2.10
   1   6  -3   11.00    2.50
   0  -6   3  227.38    8.50
   0  -6   3  214.28    8.00
   0  -6  -3  215.28    8.50
   0   6  -3  217.58    7.70
   0   6   3  215.68    8.00
   0   6  -3  217.68    7.90
   0   6  -3  225.68    7.50
   1  -6   3  102.79    5.70
   1  -6   3  118.29    6.20
  -1  -6  -3  117.39    6.50
  -1   6  -3  108.49    5.30
  -1   6  -3  114.89    5.80
   1   6   3  113.09    6.10
  -2  -6  -3   12.00    3.50
   2  -6   3   14.90    3.00
   2  -6   3    9.50    3.00
   2   6   3   17.50    3.40
  -2   6  -3   10.00    2.60
  -2   6  -3   13.00    3.10
   3  -6   3    2.50    2.50
  -3  -6  -3    8.50    3.30
   3  -6   3    5.80    2.70
  -3   6  -3    4.80    2.70
  -3   6  -3    1.30    2.10
   3   6   3    5.00    2.90
   4  -6   3   -0.30    2.60
  -4  -6  -3   -2.30    2.50
   4   6   3    0.90    2.90
  -4   6  -3    0.40    2.80
   5  -6   3    1.50    2.60
  -5  -6  -3    0.10    2.90
  -5   6  -3    1.50    3.00
   5   6   3    6.90    3.30
   5   6   3    1.90    2.80
   6  -6   3    9.70    3.40
  -6  -6  -3    7.40    3.90
   6   6   3    6.40    3.80
   6   6   3   13.40    4.10
  -6   6  -3   10.80    4.30
   8  -7  -3    7.50    3.70
  -8  -7   3    1.30    3.40
   8  -7  -3   10.60    4.30
  -8  -7   3    5.60    3.80
   8   7  -3    5.00    2.50
  -8   7   3   12.20    3.90
   8   7  -3    5.40    4.10
  -7  -7   3   -2.40    2.70
   7  -7  -3    6.10    3.50
   7  -7  -3   -1.50    2.90
   7   7  -3   -1.30    3.20
  -7   7   3    7.80    3.50
   7   7  -3   -0.70    2.00
  -6  -7   3    0.70    3.00
   6  -7  -3    0.70    2.80
   6  -7  -3   -1.90    2.70
   6   7  -3   -0.90    3.00
   6   7  -3    2.10    2.20
  -6   7   3   -0.80    2.80
   5  -7  -3   14.80    3.50
  -5  -7   3   16.30    4.00
   5  -7  -3   19.40    3.40
   5   7  -3   18.30    3.30
  -5   7   3   15.90    4.10
   5   7  -3   20.80    3.90
  -4  -7   3   -1.20    2.70
   4  -7  -3   -2.90    2.30
  -4   7   3    2.30    2.90
   4   7  -3    0.10    2.20
   4   7  -3    4.30    2.70
   3  -7  -3   55.29    4.30
  -3  -7   3   64.39    6.20
   3   7  -3   57.29    4.70
   3   7  -3   58.49    5.20
   3   7  -3   52.29    3.90
  -3   7   3   55.19    5.40
  -2  -7   3  109.09    6.70
   2  -7  -3  109.79    5.90
  -2   7   3  108.79    6.70
   2   7  -3  111.29    6.10
   2   7  -3  107.49    5.90
   2   7  -3  110.89    5.20
   1  -7  -3  106.29    6.00
  -1  -7   3   89.89    6.30
   1   7  -3  107.69    5.90
   1   7  -3  113.09    5.40
   1   7  -3  115.09    6.20
  -1   7   3  112.89    7.10
   0  -7  -3   35.20    4.50
   0  -7   3   42.20    4.60
   0   7  -3   39.30    4.20
   0   7  -3   40.10    4.00
   0   7  -3   36.10    4.40
   0   7   3   36.00    4.40
  -1  -7  -3    6.70    3.10
   1  -7   3   13.80    3.30
   1  -7   3   12.00    3.00
  -1   7  -3   15.30    3.30
  -1   7  -3    8.30    2.70
   1   7   3    4.00    2.70
   2  -7   3  316.17   11.10
   2  -7   3  336.57   11.20
  -2  -7  -3  327.27   12.30
  -2   7  -3  335.87   10.30
  -2   7  -3  334.27   11.50
   2   7   3  333.27   11.50
  -3  -7  -3   72.19    6.50
   3  -7   3   72.59    5.00
   3  -7   3   73.59    6.10
  -3   7  -3   73.29    6.00
   3   7   3   68.19    6.30
   4  -7   3   25.10    4.30
  -4  -7  -3   12.10    4.20
  -4   7  -3   21.10    4.70
   4   7   3   15.00    3.80
  -5  -7  -3   -1.50    3.10
   5  -7   3   -1.30    2.70
   5   7   3    2.40    3.50
  -5   7  -3    3.00    3.30
  -6  -7  -3   -0.40    4.00
   6  -7   3    2.40    3.00
   6   7   3   -0.90    3.40
  -6   7  -3    2.30    4.20
   6   7   3   -1.00    3.60
  -7  -8   3   11.50    4.20
   7  -8  -3    8.80    4.00
   7   8  -3    9.10    4.40
  -7   8   3    7.00    3.60
   7   8  -3    1.60    2.40
  -6  -8   3   25.30    5.00
  -6   8   3   31.70    5.20
   6   8  -3   20.50    3.60
   6   8  -3   31.30    5.30
  -5  -8   3   81.19    7.00
   5   8  -3   87.19    7.20
   5   8  -3   68.59    5.40
  -5   8   3   91.89    7.00
  -4  -8   3   56.79    6.20
   4   8  -3   45.00    4.90
  -4   8   3   42.70    5.60
   4   8  -3   51.99    5.70
  -3  -8   3   22.00    4.50
  -3   8   3   24.10    4.40
   3   8  -3   25.40    3.90
   3   8  -3   24.60    4.00
  -2  -8   3   45.40    5.50
   2  -8  -3   41.50    4.50
  -2   8   3   39.80    5.10
   2   8  -3   42.70    4.80
   2   8  -3   37.70    4.40
   1  -8  -3   24.90    4.10
  -1  -8   3   24.40    4.20
   1   8  -3   26.20    3.80
  -1   8   3   28.00    4.80
   1   8  -3   21.40    3.70
   0  -8   3   76.79    6.00
   0  -8  -3   68.29    5.80
   0   8  -3   79.29    5.20
   0   8  -3   72.69    5.80
   0   8   3   89.09    6.40
  -1  -8  -3   18.10    4.40
   1  -8   3   25.90    4.20
   1   8   3   17.60    3.90
  -1   8  -3   21.80    3.90
  -1   8  -3   28.70    4.00
   2  -8   3   -1.10    2.90
  -2  -8  -3    1.80    3.10
   2  -8   3   10.30    3.10
  -2   8  -3    4.30    2.90
  -2   8  -3   -2.50    2.50
   2   8   3    3.70    3.40
  -3  -8  -3    4.90    3.60
   3  -8   3    0.60    2.90
   3   8   3   -0.10    3.40
  -3   8  -3   -2.80    2.50
  -4  -8  -3    6.20    4.10
   4  -8   3    6.90    3.60
   4   8   3    8.10    3.70
  -4   8  -3    3.30    3.30
  -5  -8  -3   -3.40    3.30
   5  -8   3    3.30    3.50
  -5   8  -3   -5.80    2.90
   5   8   3    1.30    3.90
  -6  -9   3    6.60    4.10
   6   9  -3    7.50    3.20
  -6   9   3    9.70    3.90
   6   9  -3   11.70    4.20
  -5  -9   3   16.70    4.60
   5   9  -3    5.10    3.00
   5   9  -3    6.10    3.70
  -5   9   3    7.50    3.90
  -4  -9   3    5.60    4.10
   4   9  -3    9.00    3.60
  -4   9   3    7.30    3.70
   4   9  -3   13.70    3.40
  -3  -9   3    4.60    3.50
   3   9  -3    0.30    2.90
  -3   9   3    9.40    4.20
   3   9  -3    2.70    2.90
   2  -9  -3    1.90    2.90
  -2  -9   3    4.20    3.80
   2   9  -3    4.10    3.00
  -2   9   3   -0.30    3.10
   2   9  -3   -3.50    2.70
   1  -9  -3    0.10    3.00
  -1  -9   3    3.60    3.20
   1   9  -3    3.50    3.30
  -1   9   3   -0.90    3.20
   0  -9  -3   61.39    6.30
   0  -9   3   58.39    6.00
   0   9   3   48.70    5.80
   0   9  -3   59.29    5.70
  -1  -9  -3   11.00    4.30
   1  -9   3   10.90    3.50
   1   9   3    4.40    3.90
  -1   9  -3   18.40    4.40
   2  -9   3   14.40    3.70
  -2  -9  -3    7.90    4.00
   2   9   3    9.50    3.90
  -3  -9  -3    3.60    3.90
  -3   9  -3    4.00    3.50
   3   9   3    1.90    3.50
  -4  -9  -3    3.80    3.90
  -4   9  -3    1.20    3.10
   4   9   3    2.20    4.10
  -5 -10   3    1.60    4.30
   5  10  -3    0.90    3.60
  -5  10   3   -4.60    3.60
   5  10  -3    3.70    3.10
  -4 -10   3    0.00    3.50
   4  10  -3   -1.20    2.80
  -4  10   3    2.20    3.70
   4  10  -3   -4.70    3.50
  -3 -10   3   21.30    4.90
   3  10  -3   12.60    4.50
   3  10  -3   12.20    3.70
  -3  10   3   17.30    5.20
  -2 -10   3   25.10    5.10
   2  10  -3   26.00    4.90
  -2  10   3   31.00    5.80
  -1 -10   3   32.20    5.70
   1 -10  -3   33.50    5.30
   1  10  -3   22.90    4.50
  -1  10   3   31.00    5.80
   0 -10   3    6.60    3.60
   0 -10  -3    6.00    3.80
   0  10   3    0.10    3.60
   0  10  -3    7.90    4.30
  -1 -10  -3    3.70    3.70
   1 -10   3    4.70    3.60
   1  10   3    0.40    3.70
  -1  10  -3    2.40    4.10
  -2 -10  -3    4.90    4.00
   2  10   3    2.70    3.90
  -3 -10  -3   27.60    6.10
   3  10   3   25.20    5.30
  -3 -11   3    6.70    4.40
   3  11  -3    7.40    4.50
   3  11  -3    9.50    3.90
  -3  11   3    9.30    5.30
  -2 -11   3   27.50    5.50
  -2  11   3   25.70    5.80
   2  11  -3   30.90    5.60
  -1 -11   3   16.50    5.10
   1 -11  -3   25.80    5.40
   1  11  -3   18.70    5.30
  -1  11   3   15.40    5.00
   0 -11  -3   20.60    5.00
   0 -11   3   29.20    5.70
   0  11   3   22.70    5.80
   0  11  -3   22.60    6.00
  10   0  -4   10.20    4.70
 -10   0   4    8.80    4.00
  10   0  -4   10.60    2.80
   9   0  -4   -3.00    3.30
   9   0  -4   -0.50    2.00
  -9   0   4    4.00    3.40
   8   0  -4    1.80    1.90
   8   0  -4    1.90    3.10
  -8   0   4   -1.80    2.40
   7   0  -4   -1.40    1.60
   7   0  -4   -0.30    2.70
  -7   0   4    2.80    2.60
  -6   0   4    4.10    2.20
  -6   0   4    4.70    1.40
   6   0  -4    4.50    1.90
   6   0  -4   10.10    2.80
   5   0  -4    0.80    1.50
  -5   0   4   -0.50    1.10
   5   0  -4    0.20    2.00
  -5   0   4   -1.70    1.70
   4   0  -4   -0.70    1.70
   4   0  -4   -1.50    1.40
  -4   0   4    0.80    1.50
  -4   0   4   -3.10    1.60
   3   0  -4   -1.00    1.50
  -3   0   4   -1.00    1.20
   3   0  -4    5.20    2.40
  -2   0   4 1475.25   28.00
   2   0  -4 1507.15   28.70
  -2   0   4 1485.85   30.70
   2   0  -4 1473.25   31.20
   1   0  -4   -0.80    1.50
   1   0  -4    0.50    1.30
  -1   0   4    1.80    1.70
  -1   0   4    0.30    0.80
   0   0   4   17.30    0.90
   0   0  -4   21.00    2.10
   0   0  -4   11.40    2.50
   0   0   4   23.80    2.30
   0   0   4   16.90    0.90
   0   0  -4   14.30    0.90
   0   0   4   21.50    2.70
   1   0   4    0.80    0.50
   1   0   4   -0.40    1.10
  -1   0  -4   -0.20    1.60
   1   0   4    1.10    1.80
   2   0   4  346.77    7.40
   2   0   4  336.67   10.30
   2   0   4  358.46    8.50
  -2   0  -4  339.57   10.40
   3   0   4    1.30    1.10
   3   0   4    1.60    1.10
  -3   0  -4    0.20    1.10
   3   0   4    0.60    1.90
  -3   0  -4    0.10    1.90
   4   0   4    0.90    2.20
   4   0   4   -0.40    1.20
  -4   0  -4    0.00    2.40
   5   0   4    1.40    1.20
   5   0   4   -3.10    2.20
  -5   0  -4    0.90    2.80
   6   0   4    7.50    1.50
   6   0   4   11.30    3.40
  -6   0  -4   12.60    4.10
   7   0   4   -0.30    0.90
  -7   0  -4   -2.80    3.10
   7   0   4   -0.60    3.10
 -10  -1   4   73.19    7.60
  10  -1  -4   74.29    5.50
  10  -1  -4   66.59    8.10
 -10   1   4   73.19    7.20
  10   1  -4   61.39    7.50
  10   1  -4   73.69    5.00
  -9  -1   4    1.50    2.90
   9  -1  -4    5.90    4.00
   9  -1  -4   -0.20    2.10
  -9   1   4   -0.10    2.90
   9   1  -4    2.20    2.10
   9   1  -4    1.40    3.50
   8  -1  -4    0.50    1.90
  -8  -1   4   -4.60    2.60
   8  -1  -4   -1.80    2.90
  -8   1   4    1.40    2.70
   8   1  -4    2.70    3.60
   8   1  -4    1.90    2.00
   7  -1  -4   38.30    3.70
   7  -1  -4   40.10    4.90
  -7  -1   4   35.80    4.30
   7   1  -4   40.00    4.90
  -7   1   4   29.90    4.10
   7   1  -4   39.30    3.50
  -6  -1   4   11.70    2.60
  -6  -1   4   12.50    2.00
   6  -1  -4    7.00    2.10
   6  -1  -4   11.70    3.00
  -6   1   4    9.40    2.60
   6   1  -4   11.50    3.00
   6   1  -4    9.30    2.10
   5  -1  -4   30.60    3.60
  -5  -1   4   31.50    2.70
  -5  -1   4   40.10    3.50
   5  -1  -4   33.40    3.10
  -5   1   4   35.60    3.40
   5   1  -4   32.10    3.60
  -5   1   4   34.90    1.90
   5   1  -4   31.70    2.90
  -4  -1   4  266.47    7.80
   4  -1  -4  261.97    8.50
  -4  -1   4  267.97    7.70
   4  -1  -4  279.97    7.80
   4   1  -4  269.17    7.60
  -4   1   4  273.67    6.90
   4   1  -4  258.27    8.50
  -4   1   4  271.37    7.90
  -3  -1   4   18.00    2.10
   3  -1  -4   20.10    2.50
   3  -1  -4   25.00    3.40
   3   1  -4   26.10    3.60
   3   1  -4   20.70    2.50
  -3   1   4   19.00    2.20
  -2  -1   4   21.50    1.90
  -2  -1   4   23.60    2.60
   2  -1  -4   15.80    2.10
   2  -1  -4   17.60    2.50
  -2   1   4   17.20    1.90
   2   1  -4   20.70    2.30
  -2   1   4   15.30    2.00
   2   1  -4   21.70    2.70
   1  -1  -4    1.00    1.50
   1  -1  -4   -1.40    1.30
  -1  -1   4   -0.70    0.70
  -1  -1   4    0.50    1.80
   1   1  -4   -1.50    1.40
   1   1  -4   -0.20    1.60
  -1   1   4    1.10    1.00
  -1   1   4   -0.10    1.60
   0  -1   4    2.80    1.60
   0  -1  -4   -0.80    1.70
   0  -1  -4    7.80    1.60
   0   1  -4   -2.10    1.80
   0   1   4    7.40    1.50
   0   1  -4    7.20    1.60
   0   1   4    7.70    2.20
   0   1   4    9.50    1.40
  -1  -1  -4   84.19    4.10
   1  -1   4   79.89    4.50
   1  -1   4   84.99    3.70
   1   1   4   80.49    3.40
   1   1   4   77.69    4.40
  -1   1  -4   79.79    4.40
   1   1   4   77.79    2.80
  -2  -1  -4    0.70    1.90
   2  -1   4    1.40    0.60
   2  -1   4    2.20    1.80
   2  -1   4    0.20    1.20
   2   1   4   -0.50    1.00
   2   1   4    0.40    1.80
  -2   1  -4   -1.00    0.60
   2   1   4    1.90    1.10
  -2   1  -4   -1.80    1.60
   3  -1   4   46.30    3.00
  -3  -1  -4   45.80    3.90
   3  -1   4   50.79    4.50
  -3   1  -4   40.90    4.30
   3   1   4   48.80    2.80
   3   1   4   43.50    4.30
   3   1   4   47.90    2.50
   4  -1   4   43.30    4.50
  -4  -1  -4   44.70    4.80
   4  -1   4   46.70    3.10
  -4   1  -4   42.30    4.90
   4   1   4   38.20    4.30
   4   1   4   50.19    2.60
  -5  -1  -4   15.40    3.70
   5  -1   4   10.70    2.90
   5  -1   4   11.50    2.00
   5   1   4   10.50    1.40
   5   1   4   10.00    1.40
  -5   1  -4    9.60    3.80
   5   1   4   10.00    3.30
   6  -1   4    3.50    1.70
  -6  -1  -4    2.80    3.10
   6   1   4    2.50    0.80
   6   1   4    4.00    0.90
   6   1   4    1.30    3.00
  -6   1  -4    2.30    3.60
  -7  -1  -4    1.40    3.60
   7  -1   4   -0.50    1.40
  -7   1  -4    0.20    3.50
   7   1   4    6.90    3.80
  10  -2  -4    1.90    4.00
 -10  -2   4   -0.90    3.60
  10  -2  -4   -0.10    2.50
  10   2  -4   -1.10    3.70
  10   2  -4    3.30    2.00
 -10   2   4   -2.40    3.20
   9  -2  -4   34.30    5.60
   9  -2  -4   33.40    4.00
  -9  -2   4   38.70    5.30
   9   2  -4   34.20    5.60
  -9   2   4   36.40    5.20
   9   2  -4   30.50    3.40
   8  -2  -4    0.60    2.10
  -8  -2   4   -0.50    2.70
   8  -2  -4   -1.20    2.90
   8   2  -4    2.10    1.90
   8   2  -4    2.70    3.00
  -8   2   4   -3.80    2.40
   7  -2  -4   -2.00    1.80
  -7  -2   4    0.60    1.90
  -7  -2   4   -2.00    2.20
   7  -2  -4   -2.90    2.50
   7   2  -4   -0.70    1.60
   7   2  -4    0.40    2.60
  -7   2   4    3.30    2.50
   6  -2  -4   19.30    2.80
  -6  -2   4   16.90    2.60
  -6  -2   4   17.30    3.10
   6  -2  -4   18.90    3.50
  -6   2   4   21.00    3.20
   6   2  -4   17.30    3.20
   6   2  -4   16.20    2.40
  -5  -2   4  167.68    6.30
   5  -2  -4  175.58    7.20
   5  -2  -4  170.38    6.30
  -5  -2   4  172.68    6.50
   5   2  -4  161.38    5.90
   5   2  -4  162.38    6.90
  -5   2   4  179.88    6.70
   4  -2  -4  277.87    8.10
   4  -2  -4  268.77    8.60
  -4  -2   4  274.97    8.00
  -4  -2   4  286.27    8.40
  -4   2   4  268.77    8.10
   4   2  -4  277.67    8.80
   4   2  -4  281.37    7.90
  -4   2   4  278.67    6.80
  -3  -2   4   67.59    4.00
  -3  -2   4   73.19    3.50
   3  -2  -4   70.69    4.10
   3  -2  -4   70.29    3.70
  -3   2   4   67.69    3.10
  -3   2   4   69.69    3.80
   3   2  -4   60.79    3.90
   3   2  -4   69.09    3.80
  -2  -2   4  583.74   14.30
   2  -2  -4  602.24   13.70
  -2  -2   4  563.34   12.00
   2  -2  -4  577.64   12.90
   2   2  -4  565.84   12.90
  -2   2   4  563.14   12.60
  -2   2   4  547.65   13.20
   2   2  -4  541.45   14.20
  -1  -2   4  231.68    5.20
   1  -2  -4  209.98    6.70
  -1  -2   4  242.58    8.00
   1  -2  -4  213.58    6.30
   1  -2  -4  226.98    7.10
  -1   2   4  217.98    7.00
   1   2  -4  224.18    6.60
   1   2  -4  205.28    7.30
   1   2  -4  229.28    5.30
  -1   2   4  230.38    6.30
   0  -2   4  345.07   10.00
   0  -2  -4  354.06    9.10
   0  -2  -4  347.67    8.40
   0  -2  -4  347.67   10.00
   0   2   4  359.16    8.70
   0   2   4  361.86    8.30
   0   2  -4  338.77   10.00
   0   2   4  350.16   10.00
   0   2  -4  357.56    6.80
   0   2  -4  357.26    6.80
   0   2  -4  339.57    8.90
   1  -2   4  229.18    7.80
  -1  -2  -4  238.38    7.10
  -1  -2  -4  234.98    8.10
   1  -2   4  244.78    7.00
   1   2   4  234.28    6.30
   1   2   4  221.38    7.90
  -1   2  -4  231.48    6.70
  -1   2  -4  216.68    7.90
   1   2   4  242.98    6.20
   2  -2   4    0.10    1.40
  -2  -2  -4    2.60    2.10
  -2  -2  -4   -0.50    1.40
   2  -2   4   -1.50    1.80
   2   2   4    1.80    1.10
   2   2   4   -0.20    1.10
   2   2   4    1.80    2.00
  -2   2  -4    1.40    0.80
  -2   2  -4   -0.80    1.90
  -3  -2  -4  118.99    6.40
  -3  -2  -4  124.89    5.80
   3  -2   4  121.09    6.20
   3  -2   4  117.69    4.90
   3   2   4  114.89    6.20
   3   2   4  118.79    4.70
  -3   2  -4  129.29    6.70
   3   2   4  126.19    4.00
   4  -2   4    0.10    1.60
  -4  -2  -4    3.30    2.60
  -4  -2  -4   -1.90    2.20
   4  -2   4    1.50    2.50
   4   2   4    0.90    1.60
   4   2   4    1.40    1.00
   4   2   4   -0.80    2.20
  -4   2  -4    0.80    2.50
  -5  -2  -4    5.50    3.00
   5  -2   4    4.80    2.60
  -5  -2  -4    0.00    2.80
   5  -2   4    4.20    2.00
   5   2   4    4.80    2.80
   5   2   4    3.80    0.90
  -5   2  -4    7.30    3.50
  -6  -2  -4   20.10    4.30
   6  -2   4   22.30    2.90
   6   2   4   29.80    4.50
  -6   2  -4   28.60    5.50
   6   2   4   20.50    4.30
   7  -2   4    0.20    1.70
   7   2   4    1.70    3.20
  -7   2  -4    2.30    3.70
  10  -3  -4    1.80    2.60
  10  -3  -4   -4.00    3.60
 -10  -3   4   -2.70    3.10
  10   3  -4    4.30    3.80
  10   3  -4   -3.50    4.00
 -10   3   4    0.10    3.20
  10   3  -4   -0.40    1.80
  -9  -3   4   17.00    4.40
   9  -3  -4   22.50    3.80
   9  -3  -4   14.90    4.50
  -9   3   4   23.00    4.40
   9   3  -4   13.10    4.30
   9   3  -4   15.90    2.70
  -8  -3   4   20.90    4.00
   8  -3  -4   16.60    4.40
   8  -3  -4   10.00    2.90
   8   3  -4   10.90    2.40
  -8   3   4   10.00    3.40
   8   3  -4   19.00    4.40
  -7  -3   4  190.88    7.50
   7  -3  -4  182.48    7.50
   7  -3  -4  181.78    8.70
  -7  -3   4  175.18    8.10
   7   3  -4  179.78    8.40
  -7   3   4  182.28    8.20
   7   3  -4  182.38    6.70
   6  -3  -4   75.19    5.50
   6  -3  -4   80.69    5.00
  -6  -3   4   84.69    5.20
  -6  -3   4   67.99    4.50
  -6   3   4   70.99    5.10
   6   3  -4   75.49    4.30
   6   3  -4   77.39    5.60
   5  -3  -4  240.98    7.90
  -5  -3   4  217.18    7.80
  -5  -3   4  210.58    7.70
   5  -3  -4  228.38    8.40
   5   3  -4  229.18    8.30
   5   3  -4  226.88    7.20
  -5   3   4  239.28    8.10
   4  -3  -4  233.38    7.50
   4  -3  -4  214.58    7.50
  -4  -3   4  196.98    7.30
  -4  -3   4  218.38    7.20
   4   3  -4  217.48    6.90
  -4   3   4  204.88    7.20
   4   3  -4  202.98    7.60
  -4   3   4  212.68    5.60
   3  -3  -4   48.70    3.50
  -3  -3   4   57.59    3.90
   3  -3  -4   49.80    3.20
  -3  -3   4   49.90    3.10
   3   3  -4   51.19    3.40
   3   3  -4   46.60    3.00
   3   3  -4   51.49    3.90
  -3   3   4   50.99    2.90
  -3   3   4   48.10    3.40
   2  -3  -4  834.62   18.70
   2  -3  -4  855.81   18.70
  -2  -3   4  827.72   17.20
  -2  -3   4  849.91   19.80
   2  -3  -4  854.11   18.10
  -2   3   4  842.22   18.70
   2   3  -4  832.32   19.50
   2   3  -4  855.91   18.20
  -2   3   4  825.72   17.90
   2   3  -4  839.72   17.30
   1  -3  -4  406.46   10.00
   1  -3  -4  403.16   11.00
   1  -3  -4  412.46   10.10
  -1  -3   4  393.06   11.30
  -1   3   4  420.76   10.10
   1   3  -4  401.46   10.30
   1   3  -4  411.56   11.30
  -1   3   4  413.96   11.10
   1   3  -4  410.76    9.10
   0  -3  -4   -0.60    1.20
   0  -3  -4    2.20    1.90
   0  -3   4    1.30    2.00
   0  -3  -4    1.10    1.20
   0   3  -4    2.00    1.60
   0   3   4    0.40    1.30
   0   3   4    0.80    1.40
   0   3   4    0.20    1.70
   0   3  -4    1.80    1.00
   0   3  -4    1.30    1.80
  -1  -3  -4  198.48    7.60
  -1  -3  -4  195.28    6.00
   1  -3   4  182.98    7.20
   1  -3   4  205.98    7.20
   1   3   4  196.18    5.80
   1   3   4  193.58    6.00
  -1   3  -4  196.08    4.70
  -1   3  -4  187.98    7.40
  -1   3  -4  186.58    6.30
   1   3   4  195.48    7.50
  -2  -3  -4   97.49    5.60
  -2  -3  -4   94.59    4.30
   2  -3   4   89.29    4.50
   2  -3   4   85.79    5.00
  -2   3  -4   93.29    3.30
   2   3   4   91.79    3.70
   2   3   4   93.19    4.20
   2   3   4   92.19    5.40
  -2   3  -4   87.49    5.40
   3  -3   4    1.60    2.30
   3  -3   4    0.60    1.80
  -3  -3  -4    1.60    2.50
  -3  -3  -4   -1.20    1.60
   3   3   4    0.00    2.30
  -3   3  -4    2.20    2.60
   3   3   4    1.40    1.20
   3   3   4    0.00    1.60
   4  -3   4    9.50    2.40
   4  -3   4    8.90    3.10
  -4  -3  -4   10.80    3.40
  -4  -3  -4    7.70    2.60
  -4   3  -4    7.80    3.60
   4   3   4   15.00    1.60
   4   3   4    6.40    2.90
   4   3   4   10.70    2.40
  -5  -3  -4    6.80    3.50
   5  -3   4    7.70    3.20
   5  -3   4   12.00    2.60
  -5  -3  -4    7.70    3.10
  -5   3  -4   10.30    4.00
   5   3   4    8.40    3.30
   5   3   4    7.80    0.90
   6  -3   4   15.80    2.90
  -6  -3  -4   15.80    4.40
  -6   3  -4   19.80    4.80
   6   3   4   16.60    4.10
   7  -3   4    2.20    2.20
   7   3   4    4.90    3.40
  -7   3  -4   -3.60    4.10
   9  -4  -4    8.10    3.10
   9  -4  -4   11.60    4.20
  -9  -4   4    7.10    3.70
   9   4  -4    8.90    4.20
   9   4  -4   15.90    4.20
  -9   4   4    2.10    3.30
   9   4  -4   10.20    2.50
  -8  -4   4   58.29    6.00
   8  -4  -4   53.59    5.30
   8  -4  -4   54.39    6.10
   8   4  -4   49.80    5.80
  -8   4   4   49.10    5.50
   8   4  -4   64.39    6.30
   8   4  -4   51.49    4.20
   7  -4  -4    7.60    3.30
  -7  -4   4    6.10    2.50
  -7  -4   4    7.80    3.20
   7  -4  -4   13.00    3.10
  -7   4   4   14.00    3.50
   7   4  -4    4.70    3.10
   7   4  -4    7.00    2.20
   7   4  -4   10.40    3.60
  -6  -4   4  268.37    9.80
   6  -4  -4  266.17    9.20
   6  -4  -4  279.17   10.20
  -6  -4   4  272.97    9.60
   6   4  -4  264.07    9.70
   6   4  -4  258.37    9.90
   6   4  -4  258.57    8.30
  -6   4   4  253.17    9.70
  -5  -4   4   33.10    4.00
  -5  -4   4   45.20    4.30
   5  -4  -4   38.20    4.10
   5  -4  -4   36.50    3.90
   5   4  -4   46.40    3.90
   5   4  -4   35.10    3.90
  -5   4   4   35.70    3.90
   5   4  -4   41.30    4.20
   4  -4  -4    0.50    1.90
   4  -4  -4    2.90    1.90
  -4  -4   4    0.80    2.00
  -4  -4   4    0.30    2.00
   4   4  -4    0.10    2.00
  -4   4   4    0.20    1.10
   4   4  -4   -1.00    1.60
   4   4  -4    2.40    2.00
  -4   4   4   -0.60    1.90
   3  -4  -4  401.06   10.90
  -3  -4   4  376.66   10.20
  -3  -4   4  404.86   11.80
   3  -4  -4  408.16   10.20
   3  -4  -4  413.96   10.70
   3   4  -4  409.16   11.40
  -3   4   4  408.86   10.20
  -3   4   4  403.86   10.90
   3   4  -4  399.56   10.40
   3   4  -4  405.96   10.70
   2  -4  -4  303.47    8.10
   2  -4  -4  291.47    8.70
   2  -4  -4  313.97    8.80
  -2  -4   4  307.07    9.80
  -2   4   4  294.77    8.60
   2   4  -4  280.57    7.90
   2   4  -4  294.67    9.10
  -2   4   4  300.77    8.70
   2   4  -4  308.27    8.80
   1  -4  -4  301.87    9.40
   1  -4  -4  313.87    7.80
   1  -4  -4  301.27    8.50
  -1  -4   4  299.67    9.70
  -1   4   4  310.07    9.40
   1   4  -4  319.97    7.90
  -1   4   4  292.37    8.60
   1   4  -4  309.87    9.50
   1   4  -4  323.17    9.10
   0  -4   4  338.67    9.60
   0  -4  -4  313.67   10.10
   0  -4   4  330.77   10.20
   0  -4  -4  340.17    8.10
   0   4   4  339.37    9.00
   0   4   4  316.47    9.10
   0   4  -4  325.67   10.00
   0   4   4  323.37   10.10
   0   4  -4  328.27    9.40
   0   4  -4  335.87    8.00
   1  -4   4   10.60    2.90
  -1  -4  -4    8.80    1.50
  -1  -4  -4    9.70    2.70
   1  -4   4    9.10    2.40
   1   4   4    9.90    2.30
  -1   4  -4    9.90    2.60
   1   4   4   10.70    1.90
   1   4   4    8.00    2.70
  -1   4  -4   10.10    1.60
   2  -4   4   22.50    3.20
  -2  -4  -4   22.50    2.40
  -2  -4  -4   22.20    3.60
   2  -4   4   25.30    3.60
   2   4   4   22.50    2.70
   2   4   4   23.20    3.90
  -2   4  -4   13.50    3.20
  -3  -4  -4    5.20    2.80
   3  -4   4    1.30    2.30
   3  -4   4    3.60    2.20
   3   4   4    4.10    2.80
  -3   4  -4    1.60    2.70
   3   4   4    3.20    2.10
   4  -4   4   45.70    4.70
  -4  -4  -4   43.60    5.30
   4  -4   4   58.39    4.70
  -4   4  -4   47.60    5.60
   4   4   4   44.00    4.20
   4   4   4   49.40    5.50
   5  -4   4    0.10    2.20
  -5  -4  -4   -0.10    3.50
   5   4   4    0.70    3.20
  -5   4  -4   -2.40    3.20
   6  -4   4   66.69    5.20
  -6  -4  -4   55.59    6.60
  -6   4  -4   69.89    7.70
   6   4   4   65.89    6.90
   9  -5  -4    2.40    3.40
   9  -5  -4    1.40    2.90
  -9  -5   4   -3.50    3.60
   9   5  -4    2.80    2.10
   9   5  -4    3.00    3.40
  -9   5   4   -4.10    3.10
  -8  -5   4   -3.50    2.60
  -8  -5   4   -3.40    2.70
   8  -5  -4    4.10    3.60
   8  -5  -4   -1.00    2.60
   8   5  -4   -0.50    2.00
   8   5  -4    0.60    3.20
  -8   5   4    1.40    3.00
   8   5  -4   -3.00    2.70
  -7  -5   4    5.00    3.10
  -7  -5   4    1.20    2.70
   7  -5  -4    4.30    2.80
   7  -5  -4    2.10    3.20
   7   5  -4    5.00    3.00
   7   5  -4    2.90    2.20
   7   5  -4   -1.80    2.60
  -7   5   4    1.00    2.70
  -6  -5   4   45.70    4.80
   6  -5  -4   51.49    5.30
   6  -5  -4   49.99    5.00
  -6  -5   4   40.50    4.80
   6   5  -4   52.99    5.10
  -6   5   4   43.00    4.80
   6   5  -4   38.80    3.80
   6   5  -4   44.60    4.90
  -5  -5   4  163.18    7.40
  -5  -5   4  159.68    7.70
   5  -5  -4  157.28    7.30
   5  -5  -4  145.09    7.10
   5   5  -4  165.08    7.50
   5   5  -4  169.78    6.80
   5   5  -4  163.88    7.00
  -5   5   4  169.38    7.50
  -4  -5   4   -2.10    2.30
  -4  -5   4   -0.60    1.70
   4  -5  -4   -1.10    2.00
   4  -5  -4   -1.70    1.20
   4  -5  -4   -2.20    1.80
   4   5  -4    1.30    2.10
   4   5  -4   -1.50    1.80
   4   5  -4    1.80    1.90
  -4   5   4   -2.30    2.00
   3  -5  -4   52.69    4.00
  -3  -5   4   47.90    4.70
   3  -5  -4   50.39    3.60
   3  -5  -4   50.39    3.40
   3   5  -4   46.30    3.90
   3   5  -4   50.49    3.90
  -3   5   4   50.99    4.10
   3   5  -4   52.39    4.00
  -3   5   4   51.09    3.30
   2  -5  -4   38.10    3.50
   2  -5  -4   38.50    2.80
  -2  -5   4   39.40    3.70
   2  -5  -4   44.30    3.60
  -2  -5   4   40.20    4.30
  -2   5   4   40.00    3.20
   2   5  -4   40.90    3.30
   2   5  -4   39.20    3.40
  -2   5   4   38.70    3.80
   2   5  -4   36.50    3.60
  -1  -5   4   60.99    4.90
   1  -5  -4   64.79    2.80
  -1  -5   4   64.39    4.40
   1  -5  -4   60.79    4.50
   1   5  -4   69.39    4.50
   1   5  -4   70.79    4.60
   1   5  -4   60.09    3.50
  -1   5   4   60.59    4.50
   0  -5  -4   48.50    4.20
   0  -5   4   48.60    4.50
   0  -5   4   40.00    3.90
   0   5  -4   46.10    3.20
   0   5   4   46.50    4.10
   0   5  -4   49.70    4.20
   0   5  -4   42.90    3.80
   1  -5   4   75.79    4.90
  -1  -5  -4   66.49    5.10
   1  -5   4   63.79    5.20
   1   5   4   62.39    4.30
  -1   5  -4   68.59    4.90
  -1   5  -4   63.09    3.70
   2  -5   4  239.98    9.60
   2  -5   4  266.47    9.10
  -2  -5  -4  270.37   10.20
   2   5   4  259.47    8.70
  -2   5  -4  249.97    9.90
   2   5   4  256.07   10.10
   3  -5   4   32.10    4.40
  -3  -5  -4   35.00    4.80
   3  -5   4   39.90    4.40
  -3   5  -4   33.10    4.70
   3   5   4   47.80    4.60
   3   5   4   35.60    5.00
  -4  -5  -4   16.10    4.10
   4  -5   4   21.30    3.40
   4  -5   4   13.80    3.70
  -4   5  -4   15.50    4.10
   4   5   4   16.60    4.00
   4   5   4   19.00    3.50
   5  -5   4   -0.90    2.50
  -5  -5  -4    0.40    3.10
  -5   5  -4    4.10    3.70
   5   5   4    7.10    3.10
   5   5   4    4.50    3.30
   6  -5   4    3.70    2.80
  -6  -5  -4    4.70    3.80
  -6   5  -4    2.20    3.90
   6   5   4    3.40    3.50
  -9  -6   4   76.89    7.60
   9  -6  -4   58.49    6.30
   9  -6  -4   62.19    7.40
   9   6  -4   68.49    7.50
  -9   6   4   73.29    7.30
   9   6  -4   73.69    5.30
  -8  -6   4    1.40    3.40
   8  -6  -4   -1.70    2.80
  -8  -6   4   -0.10    3.30
   8  -6  -4    0.60    3.40
   8   6  -4    2.80    2.40
  -8   6   4    2.30    3.20
   8   6  -4    4.50    3.50
   7  -6  -4   67.39    6.00
  -7  -6   4   81.49    6.60
   7  -6  -4   77.49    6.30
  -7  -6   4   81.19    6.30
  -7   6   4   80.89    7.20
   7   6  -4   76.59    6.90
   7   6  -4   78.49    5.30
  -6  -6   4   34.60    4.70
  -6  -6   4   37.10    4.90
   6  -6  -4   35.10    4.50
   6  -6  -4   35.10    4.60
  -6   6   4   37.10    4.80
   6   6  -4   35.50    4.00
   6   6  -4   33.50    4.20
   6   6  -4   35.60    4.70
  -5  -6   4   86.99    6.30
   5  -6  -4   91.99    5.80
   5  -6  -4   86.09    6.00
  -5  -6   4   78.59    5.70
   5   6  -4   87.49    5.60
   5   6  -4   83.39    5.80
   5   6  -4   87.19    5.40
  -5   6   4   81.29    6.30
   4  -6  -4   27.00    3.30
  -4  -6   4   18.30    3.70
   4  -6  -4   25.40    3.60
   4   6  -4   25.60    3.90
   4   6  -4   21.30    3.40
   4   6  -4   29.40    3.60
  -4   6   4   18.10    3.60
   3  -6  -4    6.30    2.10
   3  -6  -4    4.60    2.10
  -3  -6   4    4.40    2.70
   3   6  -4    4.50    2.20
  -3   6   4    2.70    2.50
   3   6  -4    3.20    2.20
   3   6  -4    8.60    2.30
  -2  -6   4    7.80    3.00
   2  -6  -4   12.40    2.70
  -2   6   4    9.10    2.80
   2   6  -4    8.50    2.50
   2   6  -4    9.70    2.30
   2   6  -4   12.60    2.60
  -1  -6   4   15.30    3.10
   1  -6  -4   25.00    3.60
  -1  -6   4   19.90    3.60
   1   6  -4   18.80    2.80
   1   6  -4   28.60    3.50
  -1   6   4   18.80    3.30
   1   6  -4   17.60    3.10
   0  -6  -4    1.50    2.40
   0  -6   4    3.90    2.50
   0  -6   4    0.30    2.40
   0   6  -4    4.20    2.30
   0   6  -4   -0.10    2.10
   0   6   4    3.70    2.30
   1  -6   4  168.88    7.30
  -1  -6  -4  158.58    7.90
   1  -6   4  155.98    7.80
  -1   6  -4  155.78    6.10
  -1   6  -4  153.28    7.30
   1   6   4  152.38    7.00
   2  -6   4   13.30    3.50
  -2  -6  -4   10.90    3.50
   2  -6   4    8.40    3.40
  -2   6  -4    7.80    3.30
   2   6   4   10.00    3.00
   3  -6   4  319.07   10.90
   3  -6   4  298.77   10.70
  -3  -6  -4  288.67   11.80
  -3   6  -4  286.97   11.60
   3   6   4  295.87   11.90
   3   6   4  315.77   10.90
   4  -6   4    6.80    3.00
  -4  -6  -4    2.20    3.70
   4   6   4   -3.50    2.70
  -4   6  -4    0.80    3.20
   4   6   4    1.60    3.20
  -5  -6  -4   27.80    5.30
   5  -6   4   37.20    4.80
  -5   6  -4   37.50    6.00
   5   6   4   41.60    6.00
   5   6   4   34.70    4.70
  -6  -6  -4    5.30    3.70
   6  -6   4    3.30    3.20
  -6   6  -4    4.40    4.00
   6   6   4    6.80    3.90
   8  -7  -4   13.70    4.20
   8  -7  -4   14.50    4.50
  -8  -7   4   14.00    4.30
  -8  -7   4   18.80    4.50
   8   7  -4   17.20    3.40
  -8   7   4   19.20    4.80
   8   7  -4   16.60    4.50
  -7  -7   4    1.40    3.10
  -7  -7   4    1.70    3.50
   7  -7  -4    5.10    3.20
   7  -7  -4   -2.60    2.90
   7   7  -4    1.30    2.30
   7   7  -4   -0.30    3.20
  -7   7   4   -0.10    3.00
   6  -7  -4    2.00    2.80
  -6  -7   4   -0.90    2.90
   6  -7  -4    1.80    3.00
   6   7  -4    2.70    2.50
  -6   7   4   -1.80    3.00
   6   7  -4   -3.60    2.70
  -5  -7   4  123.49    7.80
   5   7  -4  131.39    6.80
  -5   7   4  144.19    7.80
   5   7  -4  150.88    7.90
  -4  -7   4   66.89    6.00
   4   7  -4   66.99    5.30
   4   7  -4   60.69    5.30
  -4   7   4   77.99    6.10
   4   7  -4   79.49    4.80
   3  -7  -4   38.10    4.00
  -3  -7   4   31.40    4.80
   3   7  -4   39.30    4.40
   3   7  -4   32.50    4.00
   3   7  -4   37.20    3.90
  -3   7   4   39.50    4.90
   2  -7  -4   21.90    3.40
  -2  -7   4   14.80    3.70
   2   7  -4   19.90    3.40
  -2   7   4   18.30    3.70
   2   7  -4   21.00    3.20
   2   7  -4   25.10    3.60
  -1  -7   4  273.17   10.80
   1  -7  -4  285.57   10.30
   1   7  -4  271.67    9.80
  -1   7   4  290.97   10.50
   1   7  -4  287.17    9.40
   1   7  -4  273.47    9.50
   0  -7   4  109.99    6.70
   0  -7  -4  115.49    7.10
   0   7  -4  127.79    6.40
   0   7  -4  114.29    6.40
   0   7   4  123.89    7.10
   1  -7   4   24.00    4.00
   1  -7   4   17.20    3.70
  -1  -7  -4    9.00    3.40
   1   7   4   18.20    3.70
  -1   7  -4   11.10    3.40
  -1   7  -4   21.80    3.90
   2  -7   4    5.60    3.00
   2  -7   4    4.50    3.00
  -2  -7  -4    2.40    3.40
  -2   7  -4    5.90    3.20
   2   7   4    0.90    2.70
   3  -7   4    4.10    2.90
   3  -7   4    5.30    2.80
  -3  -7  -4    4.90    3.50
  -3   7  -4    9.90    3.90
   3   7   4    4.50    3.40
   4  -7   4   -5.20    2.70
  -4  -7  -4   -0.70    3.30
   4   7   4    0.80    3.20
  -4   7  -4   -1.20    3.20
   4   7   4    4.60    3.40
   5  -7   4   -0.20    2.90
  -5  -7  -4   -5.40    3.30
  -5   7  -4   -2.10    3.70
   5   7   4    3.60    3.50
   5   7   4   -5.90    3.10
  -7  -8   4    0.10    3.20
  -7   8   4    1.30    3.30
   7   8  -4    0.40    2.40
   7   8  -4   -2.50    3.10
  -6  -8   4   -3.00    3.00
  -6   8   4    1.40    3.10
   6   8  -4   -4.40    2.10
   6   8  -4    3.60    3.20
  -5  -8   4   -4.50    2.90
   5   8  -4   -3.70    2.60
   5   8  -4    3.40    2.60
  -5   8   4   -5.60    3.20
  -4  -8   4    3.30    3.40
   4   8  -4    0.10    2.60
   4   8  -4    2.00    2.60
  -4   8   4    3.70    3.10
  -3  -8   4    6.00    3.40
   3   8  -4    5.10    3.00
  -3   8   4    3.30    3.10
   3   8  -4    5.40    2.90
  -2  -8   4    0.60    2.90
   2  -8  -4    0.10    2.50
  -2   8   4   -1.20    3.00
   2   8  -4    1.80    2.50
   2   8  -4   -3.80    2.30
   1  -8  -4    5.90    3.00
  -1  -8   4    5.50    3.10
   1   8  -4   -1.30    2.50
   1   8  -4    3.30    2.50
  -1   8   4   -3.30    2.80
   0  -8  -4    1.70    3.30
   0  -8   4    5.40    3.20
   0   8   4   -2.10    2.70
   0   8  -4    0.20    2.40
   0   8  -4    2.30    2.80
   1  -8   4    6.20    3.10
  -1  -8  -4   -1.90    2.80
  -1   8  -4   -1.00    2.60
   1   8   4    1.30    3.30
  -2  -8  -4    1.40    3.80
   2  -8   4    6.00    2.90
   2  -8   4    5.30    3.40
   2   8   4    2.50    3.10
  -2   8  -4    0.70    3.10
   3  -8   4   -1.90    2.90
  -3  -8  -4   -1.90    3.30
   3   8   4   -3.40    2.80
  -3   8  -4   -0.90    3.10
  -4  -8  -4    6.40    4.30
   4  -8   4   12.60    4.10
   4   8   4    5.90    4.10
   4   8   4    7.20    4.00
  -4   8  -4    8.50    4.50
  -6  -9   4   -2.00    3.60
  -6   9   4    1.40    3.40
   6   9  -4   -1.90    2.60
   6   9  -4   -0.40    3.70
  -5  -9   4   61.39    7.20
   5   9  -4   64.19    6.70
  -5   9   4   67.69    7.00
   5   9  -4   59.39    5.80
  -4  -9   4    0.30    3.50
  -4   9   4    0.00    3.20
   4   9  -4    3.50    3.00
   4   9  -4    1.40    2.60
  -3  -9   4   16.50    4.50
   3   9  -4   23.80    4.20
  -3   9   4   21.60    4.80
   3   9  -4   24.20    4.50
   2  -9  -4    5.70    3.20
  -2  -9   4    3.40    3.50
   2   9  -4    3.60    3.50
  -2   9   4   11.00    4.60
  -1  -9   4    6.90    3.60
   1  -9  -4   12.90    3.70
   1   9  -4   13.50    4.10
  -1   9   4   13.70    4.70
   0  -9  -4    2.30    3.20
   0  -9   4    1.30    2.90
   0   9  -4    0.10    3.20
   0   9   4    1.00    3.30
  -1  -9  -4   16.00    4.70
   1  -9   4   24.00    4.40
   1   9   4   20.90    4.50
  -2  -9  -4    5.90    4.00
   2  -9   4   13.60    3.60
   2   9   4    2.80    4.00
  -2   9  -4    7.60    3.60
  -3  -9  -4    6.00    4.20
  -3   9  -4    2.20    3.80
   3   9   4   -0.80    3.40
  -5 -10   4   -2.70    4.30
   5  10  -4   -1.90    2.80
  -5  10   4   -5.60    3.70
   5  10  -4   -1.50    3.30
  -4 -10   4   -1.40    3.40
  -4  10   4    7.90    4.00
   4  10  -4    6.80    3.50
   4  10  -4   -4.10    3.00
  -3 -10   4   12.60    4.70
   3  10  -4   21.20    4.60
  -3  10   4   17.70    4.90
   3  10  -4   19.10    4.70
  -2 -10   4   -1.30    3.30
   2  10  -4    6.80    4.00
  -2  10   4   -6.70    4.00
  -1 -10   4    9.80    4.30
   1 -10  -4   12.40    3.90
  -1  10   4    4.20    4.20
   1  10  -4   13.10    4.20
   0 -10  -4   82.79    8.00
   0 -10   4   65.99    6.90
   0  10   4   52.79    6.70
  -1 -10  -4    2.80    3.90
   1 -10   4    8.30    3.80
   1  10   4   -1.80    3.50
  -2 -10  -4    0.80    3.90
   2  10   4   -0.10    4.30
  10   0  -5    0.30    2.40
  10   0  -5   -3.00    3.50
 -10   0   5    3.20    3.90
  -9   0   5  162.18    8.70
   9   0  -5  151.48    7.10
   9   0  -5  149.59    9.40
  -8   0   5    2.20    2.80
   8   0  -5   -1.30    1.90
   8   0  -5    0.60    3.10
  -7   0   5    4.00    2.80
   7   0  -5    2.30    2.00
   7   0  -5    6.40    3.00
  -6   0   5   -1.80    1.30
   6   0  -5    3.00    2.60
   6   0  -5    0.60    1.80
  -6   0   5   -2.30    1.80
  -5   0   5  430.96   10.70
  -5   0   5  417.96   11.30
   5   0  -5  405.16   12.40
   5   0  -5  430.66   11.20
  -4   0   5    0.90    1.40
   4   0  -5   -0.30    1.80
  -4   0   5   -1.50    1.60
   4   0  -5    0.20    1.60
   3   0  -5  364.76    9.80
   3   0  -5  379.06   10.80
  -3   0   5  361.56    9.00
  -3   0   5  377.66   10.10
  -2   0   5   -1.30    1.60
  -2   0   5   -0.10    1.00
   2   0  -5   -1.60    1.50
   2   0  -5    5.70    2.40
   1   0  -5  116.49    5.40
   1   0  -5  130.09    4.80
  -1   0   5  124.99    3.30
  -1   0   5  123.09    5.50
   0   0  -5    0.20    1.30
   0   0   5   -0.20    1.80
   0   0   5   -0.10    1.30
   0   0  -5   -0.40    1.60
   1   0   5    3.70    2.20
  -1   0  -5    5.30    2.10
   1   0   5    5.30    1.60
  -2   0  -5   -0.60    2.10
   2   0   5   -0.40    2.10
  -3   0  -5    8.00    2.80
   3   0   5    9.80    3.00
  -4   0  -5    2.40    2.80
   4   0   5    2.70    2.70
   5   0   5  109.49    7.30
  -5   0  -5  111.29    8.00
   5   0   5  103.19    4.40
  -6   0  -5    6.70    3.70
   6   0   5    3.10    2.90
   6   0   5    1.00    1.40
 -10  -1   5   13.50    4.20
  10  -1  -5    5.50    2.80
  10  -1  -5   13.10    5.00
  10   1  -5    7.80    2.80
 -10   1   5   12.30    4.00
  10   1  -5    0.60    4.40
   9  -1  -5   -2.20    3.30
  -9  -1   5   -0.30    2.90
   9  -1  -5   -3.30    2.10
   9   1  -5   -1.20    3.20
   9   1  -5    2.10    2.30
  -9   1   5    5.20    3.10
  -8  -1   5   31.30    4.60
   8  -1  -5   38.10    5.40
   8  -1  -5   34.40    3.90
   8   1  -5   31.60    5.00
  -8   1   5   42.10    5.20
   8   1  -5   42.70    4.10
  -7  -1   5   30.10    4.00
   7  -1  -5   24.90    3.50
   7  -1  -5   40.20    5.00
   7   1  -5   32.60    3.50
   7   1  -5   29.30    4.50
  -7   1   5   31.40    4.00
  -6  -1   5   56.39    4.30
  -6  -1   5   50.29    3.60
   6  -1  -5   54.49    4.00
   6  -1  -5   61.89    5.00
  -6   1   5   52.29    4.30
   6   1  -5   53.99    5.10
   6   1  -5   53.49    4.10
   5  -1  -5  131.59    6.30
  -5  -1   5  130.79    5.50
  -5  -1   5  128.89    5.40
   5  -1  -5  135.29    5.80
   5   1  -5  123.59    5.50
   5   1  -5  137.79    6.50
  -5   1   5  131.49    4.80
  -5   1   5  130.99    5.90
  -4  -1   5   28.90    2.90
  -4  -1   5   26.50    3.10
   4  -1  -5   27.00    2.90
   4  -1  -5   24.00    3.10
   4   1  -5   27.80    3.00
  -4   1   5   22.90    2.80
   4   1  -5   20.70    3.10
  -4   1   5   29.30    2.60
   3  -1  -5   11.70    2.50
  -3  -1   5    8.80    2.20
  -3  -1   5   10.40    1.80
   3  -1  -5   10.40    2.20
   3   1  -5   10.40    2.50
   3   1  -5    7.60    2.00
  -3   1   5    8.70    1.90
  -3   1   5    7.80    2.00
   2  -1  -5  539.55   14.00
  -2  -1   5  563.74   11.60
  -2  -1   5  542.75   13.90
   2  -1  -5  552.54   12.90
  -2   1   5  555.54   13.70
  -2   1   5  561.94   12.00
   2   1  -5  577.54   14.60
   2   1  -5  543.65   12.90
   1  -1  -5   33.30    2.80
   1  -1  -5   39.00    3.50
  -1  -1   5   41.40    1.60
  -1  -1   5   45.50    3.80
  -1   1   5   43.20    3.50
   1   1  -5   40.30    3.10
  -1   1   5   40.00    2.20
   1   1  -5   41.70    3.80
   0  -1   5   30.50    2.80
   0  -1   5   29.20    3.40
   0  -1  -5   23.30    2.30
   0  -1  -5   22.10    2.80
   0   1   5   26.40    2.50
   0   1   5   23.90    3.10
   0   1   5   27.60    1.70
   0   1  -5   23.10    3.10
   0   1  -5   27.00    2.60
   1  -1   5   20.70    2.50
  -1  -1  -5   19.60    2.70
   1  -1   5   18.30    3.40
  -1   1  -5   21.20    3.10
   1   1   5   17.80    3.00
   1   1   5   19.50    1.60
   1   1   5   17.80    2.20
   2  -1   5   40.10    4.30
  -2  -1  -5   47.00    3.90
   2   1   5   39.80    4.20
   2   1   5   46.30    3.10
  -2   1  -5   39.70    4.30
  -3  -1  -5   44.10    4.50
   3  -1   5   43.40    4.70
   3   1   5   50.69    5.20
  -3   1  -5   39.30    4.60
   4  -1   5   16.70    2.40
   4  -1   5   14.60    3.80
  -4  -1  -5   22.00    4.00
  -4   1  -5   13.20    3.60
   4   1   5   14.50    3.50
   5  -1   5    3.80    1.80
  -5  -1  -5    3.30    3.40
   5  -1   5    6.90    3.30
   5   1   5    3.20    1.40
  -5   1  -5    4.30    3.40
   5   1   5    2.70    3.00
  -6  -1  -5    3.00    3.30
   6  -1   5    0.10    1.60
  -6   1  -5    3.90    3.60
   6   1   5    1.80    1.10
   6   1   5    4.30    3.40
 -10  -2   5   -0.60    3.30
  10  -2  -5    3.70    3.00
  10  -2  -5    3.30    4.20
  10   2  -5   -1.90    3.50
  10   2  -5    1.00    2.10
 -10   2   5    2.70    3.50
   9  -2  -5    9.40    4.40
   9  -2  -5   13.50    3.20
  -9  -2   5   16.80    4.10
   9   2  -5   10.30    2.70
   9   2  -5    6.70    3.90
  -9   2   5   13.70    4.30
   8  -2  -5   14.00    4.10
   8  -2  -5   12.40    3.10
  -8  -2   5    8.50    3.30
   8   2  -5   10.30    2.60
  -8   2   5   13.10    3.50
   8   2  -5    9.30    3.90
  -7  -2   5   84.19    4.90
  -7  -2   5   89.29    5.80
   7  -2  -5   98.29    6.80
   7  -2  -5  101.09    5.70
   7   2  -5   93.89    5.30
   7   2  -5   91.49    6.40
  -7   2   5   96.69    6.10
  -6  -2   5  295.37    9.20
  -6  -2   5  299.97    9.90
   6  -2  -5  297.67   10.50
   6  -2  -5  281.77    9.30
   6   2  -5  300.67    9.10
  -6   2   5  289.97    9.80
   6   2  -5  297.57   10.60
  -5  -2   5   16.80    2.90
   5  -2  -5   14.40    2.50
   5  -2  -5   17.70    3.10
  -5  -2   5   17.10    2.70
  -5   2   5   16.50    1.90
   5   2  -5   12.20    2.90
  -5   2   5   19.70    2.90
   5   2  -5   15.50    2.50
  -4  -2   5   49.70    3.30
   4  -2  -5   42.40    3.70
   4  -2  -5   50.59    4.00
  -4  -2   5   45.80    3.90
  -4   2   5   44.00    3.60
   4   2  -5   51.99    3.50
  -4   2   5   42.20    2.90
   4   2  -5   48.00    4.00
   3  -2  -5  785.12   17.20
  -3  -2   5  767.42   18.20
  -3  -2   5  746.83   16.10
   3  -2  -5  756.02   18.10
  -3   2   5  751.72   16.60
   3   2  -5  764.42   17.00
   3   2  -5  772.42   18.70
  -3   2   5  762.62   17.30
   2  -2  -5  255.77    7.90
   2  -2  -5  253.87    7.60
  -2  -2   5  248.08    8.30
  -2  -2   5  258.67    6.40
  -2   2   5  251.97    7.00
   2   2  -5  259.77    6.40
  -2   2   5  256.17    8.00
   2   2  -5  262.77    8.60
   2   2  -5  248.98    7.60
   1  -2  -5  458.25   10.90
  -1  -2   5  420.76   12.10
   1  -2  -5  441.06   11.40
  -1   2   5  450.05   10.10
   1   2  -5  445.96    8.90
   1   2  -5  440.36   11.10
  -1   2   5  445.06   12.00
   1   2  -5  434.56   12.30
   0  -2   5   59.59    4.40
   0  -2  -5   63.59    3.80
   0   2   5   60.09    4.30
   0   2   5   63.69    3.50
   0   2   5   66.79    3.00
   0   2  -5   57.79    4.20
   0   2  -5   62.19    3.70
  -1  -2  -5   41.20    3.40
   1  -2   5   36.90    4.10
  -1  -2  -5   38.30    4.20
  -1   2  -5   37.00    4.00
   1   2   5   36.60    4.00
   1   2   5   36.20    2.60
   1   2   5   39.60    2.80
   2  -2   5   10.70    3.10
  -2  -2  -5    8.60    2.50
  -2  -2  -5    9.10    2.90
   2   2   5   10.40    3.00
   2   2   5   10.40    1.80
  -2   2  -5    7.70    2.70
   3  -2   5    1.00    2.80
  -3  -2  -5   -1.60    2.00
  -3   2  -5    5.10    3.10
   3   2   5    2.30    2.70
   4  -2   5    0.80    1.80
  -4  -2  -5   -3.20    2.30
   4  -2   5    3.70    3.30
   4   2   5   -1.40    2.60
  -4   2  -5    0.70    2.90
   5  -2   5   58.59    4.40
   5  -2   5   59.09    6.10
  -5  -2  -5   57.59    5.90
  -5   2  -5   63.39    6.80
   5   2   5   62.09    6.20
   6  -2   5    1.70    1.90
   6   2   5    8.10    3.80
  -6   2  -5    3.70    3.80
  10  -3  -5    0.00    3.90
 -10  -3   5    4.10    3.90
  10  -3  -5    5.30    3.10
  10   3  -5    8.00    2.60
  10   3  -5   -0.20    4.10
 -10   3   5    9.60    4.00
   9  -3  -5    7.20    3.00
  -9  -3   5   -4.80    2.50
   9  -3  -5   -1.00    3.10
   9   3  -5    2.80    2.20
   9   3  -5    3.10    3.40
  -9   3   5    6.20    3.60
   8  -3  -5   90.49    7.10
  -8  -3   5   78.69    6.80
   8  -3  -5   81.89    5.70
  -8   3   5   81.79    6.40
   8   3  -5   81.49    5.10
   8   3  -5   73.09    6.40
  -7  -3   5   84.39    5.30
  -7  -3   5   82.79    5.80
   7  -3  -5   78.89    6.30
   7  -3  -5   87.59    5.40
   7   3  -5   74.09    6.40
  -7   3   5   79.69    5.90
   7   3  -5   84.29    5.10
   6  -3  -5   51.39    4.20
  -6  -3   5   37.50    4.10
   6  -3  -5   46.00    5.00
  -6  -3   5   39.00    4.20
  -6   3   5   44.40    4.50
   6   3  -5   42.50    4.90
   6   3  -5   40.30    3.90
   5  -3  -5  167.18    7.30
  -5  -3   5  168.08    6.80
  -5  -3   5  167.78    7.10
   5  -3  -5  174.58    6.90
  -5   3   5  180.88    7.00
   5   3  -5  160.48    7.20
   5   3  -5  176.78    6.70
  -4  -3   5   52.49    3.70
  -4  -3   5   45.50    4.30
   4  -3  -5   54.99    3.90
   4  -3  -5   49.90    4.30
   4   3  -5   49.10    3.80
  -4   3   5   52.29    3.00
   4   3  -5   51.49    4.30
  -4   3   5   49.70    3.70
   3  -3  -5   44.10    3.70
   3  -3  -5   46.90    3.90
  -3  -3   5   48.50    4.10
  -3  -3   5   57.09    3.30
   3   3  -5   53.89    4.10
   3   3  -5   49.99    3.00
  -3   3   5   42.20    3.50
  -3   3   5   46.50    3.20
   3   3  -5   51.49    3.90
  -2  -3   5   21.10    3.20
  -2  -3   5   24.10    2.10
   2  -3  -5   27.20    2.80
   2  -3  -5   29.90    3.10
   2   3  -5   25.80    3.20
   2   3  -5   24.10    2.20
  -2   3   5   23.80    2.50
  -2   3   5   26.60    3.00
   2   3  -5   26.60    3.00
  -1  -3   5  495.25   13.60
   1  -3  -5  500.65   12.20
   1  -3  -5  508.15   12.00
   1  -3  -5  479.05   13.20
   1   3  -5  482.25   12.30
  -1   3   5  503.95   11.70
  -1   3   5  487.45   13.20
   1   3  -5  471.85   13.40
   1   3  -5  513.35   10.40
   0  -3  -5  180.98    7.50
   0  -3   5  185.18    7.40
   0  -3  -5  183.28    6.30
   0   3   5  193.78    6.10
   0   3   5  178.48    7.40
   0   3  -5  194.88    4.40
   0   3  -5  200.78    6.80
   0   3  -5  187.58    7.50
  -1  -3  -5  271.27    9.80
  -1  -3  -5  269.97    8.30
   1  -3   5  259.37    9.40
   1   3   5  270.17    9.70
  -1   3  -5  296.07   10.20
   1   3   5  272.67    7.60
   2  -3   5   10.50    3.00
  -2  -3  -5   12.70    3.30
  -2  -3  -5    8.10    2.20
  -2   3  -5    8.40    2.90
   2   3   5    7.90    2.90
   2   3   5    6.70    2.00
  -3  -3  -5    3.70    3.10
   3  -3   5    4.30    2.30
  -3  -3  -5   -1.60    2.00
   3  -3   5    1.80    3.10
   3   3   5    1.80    2.70
  -3   3  -5    1.80    2.80
   4  -3   5   65.99    6.00
   4  -3   5   67.89    4.70
  -4  -3  -5   63.89    6.40
  -4   3  -5   58.29    6.30
   4   3   5   59.99    6.10
   5  -3   5    1.80    2.20
   5   3   5    2.70    3.60
  -5   3  -5   -1.80    3.00
   6  -3   5    1.20    2.30
  -6   3  -5   -0.40    3.20
   6   3   5    6.30    4.00
   9  -4  -5   13.40    3.70
  -9  -4   5    9.60    4.00
   9  -4  -5   18.60    5.00
  -9   4   5   15.90    4.30
   9   4  -5   11.40    2.90
   9   4  -5   12.00    4.50
   9   4  -5   14.70    4.30
   8  -4  -5   62.79    6.80
  -8  -4   5   68.09    6.40
   8  -4  -5   70.39    5.80
   8   4  -5   79.59    7.30
  -8   4   5   70.49    6.50
   8   4  -5   65.29    4.90
   8   4  -5   58.09    6.10
  -7  -4   5   39.10    4.60
  -7  -4   5   43.10    4.90
   7  -4  -5   36.70    5.20
   7  -4  -5   41.50    4.70
  -7   4   5   29.70    4.30
   7   4  -5   32.00    4.60
   7   4  -5   36.20    3.80
   7   4  -5   35.30    5.10
  -6  -4   5  119.39    6.60
  -6  -4   5  108.19    6.20
   6  -4  -5  112.69    6.40
   6  -4  -5  113.89    6.70
   6   4  -5  110.99    6.30
   6   4  -5  121.89    7.00
   6   4  -5  115.89    5.80
  -6   4   5  117.09    6.50
   5  -4  -5    5.90    2.70
   5  -4  -5    9.20    2.60
  -5  -4   5    5.40    2.80
  -5  -4   5    3.40    2.40
   5   4  -5    7.30    2.30
   5   4  -5    1.60    2.40
  -5   4   5    8.50    2.60
   5   4  -5    7.70    2.60
  -4  -4   5    4.50    2.10
  -4  -4   5    5.10    2.50
   4  -4  -5   10.70    2.60
   4  -4  -5    3.70    2.20
   4   4  -5    4.30    2.10
   4   4  -5    6.00    2.40
   4   4  -5    3.70    2.20
  -4   4   5    7.60    2.40
  -4   4   5    6.70    1.70
   3  -4  -5    0.60    1.80
   3  -4  -5    0.10    1.80
  -3  -4   5    0.30    2.30
  -3  -4   5    0.10    1.30
   3  -4  -5    1.40    1.70
  -3   4   5    0.70    1.60
   3   4  -5    2.30    2.00
  -3   4   5    1.10    2.00
   3   4  -5    1.20    1.90
   3   4  -5    1.00    1.40
  -2  -4   5   37.40    4.40
   2  -4  -5   31.50    3.30
   2  -4  -5   35.20    3.20
   2  -4  -5   37.50    3.60
  -2   4   5   36.20    3.60
   2   4  -5   33.60    3.90
  -2   4   5   33.60    3.40
   2   4  -5   33.20    2.70
   2   4  -5   41.70    3.90
   1  -4  -5  628.94   14.40
   1  -4  -5  592.54   15.90
  -1  -4   5  628.04   16.50
   1   4  -5  601.34   16.30
  -1   4   5  613.14   16.00
   1   4  -5  652.13   15.30
  -1   4   5  588.04   14.40
   1   4  -5  644.64   13.30
   0  -4  -5   11.80    1.90
   0  -4  -5   13.80    3.00
   0  -4   5   11.00    3.00
   0   4  -5    9.80    1.60
   0   4   5   12.80    2.40
   0   4  -5    7.30    2.50
   0   4   5   11.50    2.80
  -1  -4  -5   12.80    2.10
   1  -4   5    8.40    3.00
  -1  -4  -5   13.70    3.20
   1  -4   5   12.70    2.60
   1   4   5   18.50    3.50
  -1   4  -5   16.40    3.50
   1   4   5   14.30    2.60
   2  -4   5  277.57   10.10
   2  -4   5  287.57    9.40
  -2  -4  -5  286.57   10.80
   2   4   5  274.47    8.60
   2   4   5  276.77   10.70
  -2   4  -5  270.27   10.60
  -3  -4  -5  178.18    8.80
   3  -4   5  161.18    7.80
   3  -4   5  158.58    7.10
   3   4   5  175.18    8.70
   3   4   5  170.48    6.80
  -3   4  -5  163.28    8.60
   4  -4   5   -2.00    2.90
  -4  -4  -5   -1.50    2.90
   4  -4   5    1.20    2.30
   4   4   5    1.60    3.00
  -4   4  -5   -6.00    3.10
  -5  -4  -5   15.80    4.80
   5  -4   5   13.80    3.20
   5   4   5    7.70    4.30
  -5   4  -5   14.60    4.70
  -6  -4  -5    1.00    3.70
   6  -4   5    1.60    2.60
   6   4   5    0.00    3.70
  -6   4  -5   -1.50    3.50
   9  -5  -5   -0.30    3.50
  -9  -5   5    3.60    4.00
   9  -5  -5   -1.50    2.60
  -9   5   5   -0.30    3.20
   9   5  -5   -2.80    3.70
   9   5  -5   -4.80    3.00
   9   5  -5   -0.90    2.10
   8  -5  -5   20.50    4.00
  -8  -5   5   22.40    4.20
   8  -5  -5   20.60    4.60
  -8  -5   5   30.20    5.00
   8   5  -5   30.70    5.20
   8   5  -5   19.10    4.40
  -8   5   5   28.60    4.70
   8   5  -5   30.00    3.80
   7  -5  -5   68.29    6.00
  -7  -5   5   62.29    5.40
   7  -5  -5   57.99    5.50
  -7  -5   5   57.79    5.80
   7   5  -5   69.29    6.40
   7   5  -5   60.89    5.80
  -7   5   5   78.99    6.20
   7   5  -5   67.39    5.10
  -6  -5   5    1.10    2.70
   6  -5  -5   -2.20    2.20
  -6  -5   5    1.30    2.60
   6  -5  -5    3.40    3.00
   6   5  -5   -0.30    2.50
   6   5  -5    0.30    2.10
   6   5  -5   -1.10    2.70
  -6   5   5    2.00    2.70
   5  -5  -5  478.95   13.80
  -5  -5   5  455.25   13.30
  -5  -5   5  467.95   14.40
   5  -5  -5  470.25   13.60
  -5   5   5  464.25   13.70
   5   5  -5  472.15   14.00
   5   5  -5  485.05   13.60
   5   5  -5  479.65   13.20
  -4  -5   5  213.38    9.10
  -4  -5   5  216.18    8.00
   4  -5  -5  220.68    8.40
   4  -5  -5  234.78    7.30
   4  -5  -5  229.78    8.30
  -4   5   5  228.78    7.30
   4   5  -5  238.38    8.30
  -4   5   5  229.58    8.70
   4   5  -5  229.88    8.70
   4   5  -5  223.18    8.20
  -3  -5   5   -3.10    2.40
   3  -5  -5   -0.90    1.70
   3  -5  -5    2.20    2.20
   3   5  -5   -3.20    1.40
   3   5  -5   -0.70    2.00
  -3   5   5    2.60    1.90
   3   5  -5    0.20    2.20
  -3   5   5    2.30    2.20
   2  -5  -5   16.20    2.90
  -2  -5   5   22.10    3.10
   2  -5  -5   17.50    2.80
  -2  -5   5   20.10    3.90
  -2   5   5   18.30    3.20
  -2   5   5   14.30    2.80
   2   5  -5   21.90    3.40
   2   5  -5   22.60    3.20
   2   5  -5   13.30    2.30
   1  -5  -5   67.69    4.80
  -1  -5   5   66.69    4.90
  -1  -5   5   68.39    5.50
  -1   5   5   63.29    4.40
   1   5  -5   70.29    4.70
   1   5  -5   70.99    3.80
   1   5  -5   61.29    4.60
  -1   5   5   68.89    4.80
   0  -5   5   26.80    4.00
   0  -5  -5   27.80    4.00
   0  -5   5   30.00    3.60
   0   5   5   22.90    3.30
   0   5   5   25.50    3.90
   0   5  -5   26.70    3.70
   1  -5   5   -0.80    2.00
   1  -5   5    1.40    3.20
  -1  -5  -5    1.50    2.70
   1   5   5    0.30    2.50
   1   5   5    2.50    2.40
  -1   5  -5   -0.30    2.40
   2  -5   5   67.29    5.20
  -2  -5  -5   67.79    6.00
   2  -5   5   64.99    5.70
   2   5   5   61.59    6.00
   2   5   5   65.69    4.90
  -2   5  -5   62.39    5.60
   3  -5   5    2.10    3.20
  -3  -5  -5    6.70    3.60
   3  -5   5    5.20    2.90
   3   5   5    5.70    2.70
   3   5   5    8.40    3.50
  -3   5  -5    6.30    3.50
  -4  -5  -5   28.50    5.10
   4  -5   5   22.20    3.80
   4  -5   5   21.30    4.40
   4   5   5   22.50    4.80
  -4   5  -5   26.70    5.30
   5  -5   5   35.00    4.60
  -5  -5  -5   31.30    5.50
  -5   5  -5   37.20    6.40
   5   5   5   29.90    5.40
   9  -6  -5    3.80    4.10
  -9  -6   5    5.50    3.80
   9  -6  -5    3.60    3.70
  -9   6   5    6.70    4.00
   9   6  -5    5.70    3.70
   9   6  -5    3.70    2.60
  -8  -6   5    5.70    3.30
   8  -6  -5   -2.60    3.20
   8  -6  -5    3.70    3.00
  -8  -6   5    4.70    3.80
  -8   6   5    0.90    3.20
   8   6  -5    4.80    2.70
   8   6  -5    2.20    3.80
  -7  -6   5   -3.00    2.90
   7  -6  -5    4.30    3.00
  -7  -6   5    3.90    3.40
   7  -6  -5    4.20    3.60
  -7   6   5    0.60    2.90
   7   6  -5    0.80    3.30
   7   6  -5   -0.70    2.90
   7   6  -5    3.10    2.50
   6  -6  -5    5.00    3.10
  -6  -6   5   -2.30    2.80
   6  -6  -5    1.00    2.60
  -6  -6   5   -0.60    3.10
   6   6  -5    0.50    2.40
   6   6  -5   -0.90    2.80
   6   6  -5    4.50    2.50
  -6   6   5    3.10    3.20
  -5  -6   5   11.80    3.60
  -5  -6   5   20.30    3.50
   5  -6  -5   15.50    3.40
   5   6  -5   12.30    3.10
  -5   6   5   14.20    3.50
   5   6  -5   20.00    3.50
   5   6  -5   24.40    3.90
  -4  -6   5  507.45   16.10
   4  -6  -5  550.74   14.60
   4   6  -5  554.94   15.30
   4   6  -5  532.35   14.50
  -4   6   5  553.44   15.40
   4   6  -5  514.95   14.60
   3  -6  -5   25.80    3.40
  -3  -6   5   22.00    4.10
   3   6  -5   27.50    3.90
  -3   6   5   26.10    3.30
   3   6  -5   26.80    3.80
  -3   6   5   22.30    3.60
   3   6  -5   23.30    3.40
   2  -6  -5   27.00    3.60
  -2  -6   5   18.20    4.10
  -2   6   5   28.50    4.20
   2   6  -5   24.30    3.10
  -2   6   5   27.10    3.60
   2   6  -5   34.30    4.20
   2   6  -5   27.00    3.70
  -1  -6   5    7.10    3.00
   1  -6  -5   16.90    3.60
  -1  -6   5   14.30    3.60
   1   6  -5   10.70    2.40
  -1   6   5   10.10    3.20
   1   6  -5    5.50    2.60
  -1   6   5    4.30    2.60
   0  -6   5  264.37    9.70
   0  -6  -5  276.67   10.50
   0  -6   5  250.77   10.10
   0   6   5  252.97    9.10
   0   6  -5  255.87    9.80
   0   6   5  256.97   10.10
   1  -6   5    9.60    3.30
   1  -6   5   13.50    3.60
  -1  -6  -5   11.70    3.70
   1   6   5   11.50    3.20
  -1   6  -5    8.50    3.20
   1   6   5    9.30    3.50
  -2  -6  -5   16.10    4.10
   2  -6   5   13.50    3.50
   2  -6   5   15.40    3.90
   2   6   5   11.00    3.20
  -2   6  -5   16.20    3.90
   2   6   5   16.20    4.00
   3  -6   5   18.00    3.70
  -3  -6  -5   20.60    4.60
   3  -6   5    8.50    3.90
  -3   6  -5   14.80    4.10
   3   6   5   15.90    3.70
   3   6   5   15.50    4.30
  -4  -6  -5    7.50    3.90
   4  -6   5    8.60    3.20
   4   6   5    0.10    3.20
  -4   6  -5    7.70    4.00
  -5  -6  -5    3.30    4.30
   5  -6   5    0.70    2.90
  -5   6  -5    5.60    4.70
   5   6   5    8.80    4.30
   8  -7  -5   45.50    6.00
   8  -7  -5   40.70    5.90
  -8  -7   5   45.00    6.10
  -8  -7   5   39.50    5.70
  -8   7   5   48.60    6.60
   8   7  -5   46.40    5.10
   8   7  -5   42.00    6.10
   7  -7  -5   72.29    7.70
  -7  -7   5   87.39    7.50
  -7  -7   5   69.99    6.90
   7   7  -5   75.89    7.40
  -7   7   5   77.29    7.30
   7   7  -5   84.29    6.20
  -6  -7   5   42.20    5.80
   6   7  -5   42.80    4.90
   6   7  -5   46.50    5.40
  -6   7   5   37.00    5.30
  -5  -7   5    8.90    3.70
   5   7  -5    0.80    2.70
   5   7  -5   10.20    2.90
   5   7  -5    6.30    3.20
  -5   7   5   10.40    3.70
  -4  -7   5   25.30    4.50
   4   7  -5   29.60    4.30
  -4   7   5   31.20    4.60
   4   7  -5   35.80    4.50
   4   7  -5   39.90    4.40
   3  -7  -5    2.20    2.50
  -3  -7   5    2.20    3.00
   3   7  -5    2.40    2.50
  -3   7   5    3.00    2.30
   3   7  -5    1.60    2.40
   3   7  -5    2.70    2.60
  -3   7   5    1.00    2.80
   2  -7  -5   21.80    3.70
  -2  -7   5   19.80    4.40
  -2   7   5   22.40    4.00
   2   7  -5   25.80    3.90
  -2   7   5   17.90    3.40
   2   7  -5   20.80    3.40
   2   7  -5   25.50    4.00
  -1  -7   5    5.30    3.10
   1  -7  -5    2.70    2.80
   1   7  -5    6.90    2.70
  -1   7   5    3.40    2.70
  -1   7   5    2.60    2.90
   1   7  -5    2.40    2.30
   0  -7  -5   -2.90    2.60
   0  -7   5   -2.30    2.80
   0   7   5    2.90    2.80
   0   7  -5    3.50    2.80
   0   7   5   -0.60    2.90
   1  -7   5    5.70    3.00
   1  -7   5    7.90    3.40
  -1  -7  -5   11.90    3.90
   1   7   5   14.70    3.80
   1   7   5    3.80    3.10
  -1   7  -5    7.40    3.10
   2  -7   5   19.70    4.20
   2  -7   5   25.30    4.90
  -2  -7  -5   21.80    4.60
   2   7   5   25.30    4.30
   2   7   5   25.60    4.90
  -2   7  -5   22.80    4.40
  -3  -7  -5   11.50    4.30
   3  -7   5   10.50    3.90
   3  -7   5   10.10    3.60
  -3   7  -5    6.90    3.70
   3   7   5   11.90    4.10
   3   7   5   14.50    3.90
   4  -7   5    4.60    3.50
  -4  -7  -5   10.00    4.50
  -4   7  -5   17.80    4.70
   4   7   5   18.20    4.70
  -7  -8   5    0.90    3.80
  -7   8   5    5.60    3.90
   7   8  -5    0.70    2.80
   7   8  -5   -0.80    3.60
  -6  -8   5    1.10    3.20
   6   8  -5   -2.80    2.40
   6   8  -5   -2.00    2.80
  -6   8   5    2.30    3.30
  -5  -8   5   -0.30    3.10
   5   8  -5    5.20    2.80
  -5   8   5    6.10    3.40
   5   8  -5    8.40    3.60
  -4  -8   5    8.20    4.00
   4   8  -5   13.30    3.60
  -4   8   5   14.70    4.30
   4   8  -5   11.50    3.50
  -3  -8   5   18.60    4.30
   3   8  -5   18.90    3.70
  -3   8   5   15.20    4.00
   3   8  -5   15.00    3.50
  -2  -8   5   26.30    4.70
   2  -8  -5   21.00    4.00
  -2   8   5   11.00    3.60
  -2   8   5   21.00    3.90
   2   8  -5   19.70    3.70
   2   8  -5   16.30    3.40
  -1  -8   5   47.60    5.80
   1  -8  -5   61.09    6.20
  -1   8   5   46.50    5.60
   1   8  -5   52.39    5.30
   0  -8   5   16.00    3.90
   0  -8  -5   12.50    3.70
   0   8   5    7.50    3.50
   0   8  -5   15.10    3.60
   1  -8   5   32.80    4.90
  -1  -8  -5   25.30    5.20
  -1   8  -5   29.80    4.90
   1   8   5   31.30    5.30
   1   8   5   14.40    3.90
   2  -8   5   22.50    4.10
   2  -8   5   20.90    5.00
  -2  -8  -5   13.20    4.40
   2   8   5   13.30    4.30
   2   8   5   14.80    4.30
  -2   8  -5   24.80    4.90
   3  -8   5   56.99    6.40
  -3  -8  -5   55.59    7.30
  -3   8  -5   64.59    7.30
   3   8   5   56.59    6.20
   3   8   5   58.79    7.20
  -6  -9   5    1.90    4.30
  -6   9   5    3.40    3.70
   6   9  -5   -0.40    3.70
   6   9  -5    4.60    3.00
  -5  -9   5   10.40    4.30
   5   9  -5    4.50    3.40
   5   9  -5    4.40    3.00
  -5   9   5    2.90    3.50
  -4  -9   5    6.00    4.10
  -4   9   5    6.30    3.60
   4   9  -5    8.00    3.40
   4   9  -5    1.90    2.90
  -3  -9   5    8.50    4.00
  -3   9   5   11.80    4.10
   3   9  -5   17.00    4.00
   2  -9  -5   -2.20    2.80
  -2  -9   5    0.10    3.00
  -2   9   5   -1.90    3.30
   2   9  -5   -4.30    2.80
  -1  -9   5   -1.70    2.80
   1  -9  -5    0.60    3.00
  -1   9   5    3.80    3.90
   0  -9  -5    3.10    3.60
   0  -9   5   15.10    4.10
   0   9   5    0.80    4.00
  -1  -9  -5   76.19    7.80
   1  -9   5   89.19    7.40
   1   9   5   87.99    7.30
   1   9   5  102.09    7.80
  -1   9  -5   87.49    7.10
   2  -9   5    7.70    3.50
  -2  -9  -5    3.80    3.70
   2   9   5   -3.40    3.30
  -2   9  -5   -4.10    2.90
   2   9   5    4.10    3.50
  -4 -10   5    3.20    4.00
   4  10  -5    1.60    3.40
  -4  10   5    3.20    3.80
   4  10  -5    0.30    3.30
  -3 -10   5    4.90    3.80
  -3  10   5    1.80    3.70
   3  10  -5    6.90    4.00
  -2 -10   5    9.50    4.00
  -2  10   5    3.70    4.00
  -1 -10   5   -0.40    3.20
   1 -10  -5    3.60    3.90
  -1  10   5   -1.40    3.70
   0 -10   5   19.10    4.60
   0 -10  -5   14.90    4.50
   0  10   5   13.90    4.60
   1  10   5   -4.10    3.60
 -10   0   6    6.20    4.10
  10   0  -6   -3.20    3.80
  10   0  -6    9.10    3.30
   9   0  -6   -1.70    2.30
  -9   0   6    2.10    3.00
   9   0  -6   -0.20    3.60
  -8   0   6    9.40    3.20
   8   0  -6    1.20    3.30
   8   0  -6   10.50    3.00
   7   0  -6   -1.80    2.80
   7   0  -6    1.10    2.20
  -7   0   6   -1.30    2.30
  -6   0   6   68.19    4.70
  -6   0   6   72.29    4.40
   6   0  -6   70.89    4.60
   6   0  -6   59.19    5.30
   5   0  -6    3.50    2.10
  -5   0   6   -2.30    1.70
  -5   0   6    0.30    1.90
   5   0  -6   -1.10    2.30
  -4   0   6   92.99    5.00
  -4   0   6   82.19    4.20
   4   0  -6   89.99    5.50
   4   0  -6   86.69    4.90
   3   0  -6   -2.00    1.90
  -3   0   6    0.00    1.20
  -3   0   6    1.10    1.90
   3   0  -6    1.00    1.90
   2   0  -6    1.50    1.70
  -2   0   6    0.80    1.00
  -2   0   6   -1.00    1.90
   2   0  -6   -2.30    1.80
   1   0  -6   -0.10    1.90
  -1   0   6    0.90    2.10
  -1   0   6    0.30    0.70
   1   0  -6    1.50    1.60
   0   0   6    6.80    2.60
   0   0  -6   11.50    2.60
   1   0   6    0.50    2.30
  -1   0  -6   -0.60    2.10
   2   0   6   43.70    5.20
  -2   0  -6   39.40    4.60
   3   0   6   -1.50    2.90
  -3   0  -6   -2.50    2.60
  -4   0  -6   22.60    4.30
   4   0   6   23.40    4.60
   5   0   6    0.70    3.50
  -5   0  -6    1.50    3.70
   5   0   6    2.00    1.70
   6   0   6   12.60    2.10
  -6   0  -6   13.40    4.50
 -10  -1   6   16.20    4.60
  10  -1  -6   15.60    5.10
  10  -1  -6   19.50    3.80
 -10   1   6   13.40    4.60
  10   1  -6   13.30    3.50
  10   1  -6   10.00    4.70
   9  -1  -6   15.80    3.40
  -9  -1   6   23.60    4.60
   9  -1  -6   20.50    5.10
   9   1  -6   11.00    3.10
  -9   1   6   18.30    4.30
   9   1  -6    8.80    4.60
   8  -1  -6    9.00    3.90
  -8  -1   6   -0.10    2.90
   8  -1  -6    0.80    2.30
   8   1  -6    0.30    2.30
  -8   1   6    2.10    2.80
   8   1  -6    1.30    3.30
  -7  -1   6   18.70    3.60
   7  -1  -6   21.90    3.40
   7  -1  -6   16.40    4.20
  -7   1   6   16.60    3.40
   7   1  -6   18.40    4.20
   7   1  -6   18.00    3.20
  -6  -1   6   -6.40    2.30
  -6  -1   6    2.70    2.10
   6  -1  -6    3.80    3.00
   6  -1  -6    1.80    2.30
   6   1  -6    2.10    2.30
  -6   1   6    1.70    2.20
   6   1  -6   -1.60    2.50
  -5  -1   6   60.79    4.20
   5  -1  -6   50.39    4.60
  -5  -1   6   59.09    3.90
   5  -1  -6   54.89    4.30
   5   1  -6   59.09    4.20
  -5   1   6   63.39    3.90
   5   1  -6   53.39    4.80
  -5   1   6   54.49    4.00
   4  -1  -6   17.70    3.30
   4  -1  -6   23.00    3.00
  -4  -1   6   23.20    2.60
  -4  -1   6   31.50    3.80
  -4   1   6   21.30    2.80
  -4   1   6   19.20    2.60
   4   1  -6   18.80    3.40
   4   1  -6   24.30    3.10
  -3  -1   6   27.10    3.30
  -3  -1   6   22.60    2.20
   3  -1  -6   16.60    2.60
   3  -1  -6   24.10    3.30
   3   1  -6   22.30    3.00
  -3   1   6   20.30    3.00
  -3   1   6   24.30    2.40
   3   1  -6   20.00    3.20
   2  -1  -6   24.10    3.30
  -2  -1   6   24.70    1.90
  -2  -1   6   25.20    3.40
   2  -1  -6   28.30    3.10
   2   1  -6   23.40    3.30
   2   1  -6   27.40    3.10
  -2   1   6   25.00    3.20
  -2   1   6   29.10    2.30
  -1  -1   6  185.78    7.70
   1  -1  -6  201.08    7.40
   1   1  -6  186.58    7.60
  -1   1   6  205.68    7.70
  -1   1   6  201.88    5.20
   1   1  -6  200.38    6.70
   0  -1   6   80.79    5.30
   0  -1  -6   83.49    5.00
   0   1   6   85.59    2.80
   0   1  -6   83.99    5.30
   0   1   6   77.09    5.10
   1  -1   6   60.49    5.10
  -1  -1  -6   67.09    4.60
   1   1   6   64.39    5.10
  -1   1  -6   54.49    4.70
   2  -1   6   73.09    5.80
  -2  -1  -6   77.99    5.30
  -2   1  -6   78.09    5.70
   2   1   6   75.49    5.70
   3  -1   6    2.80    3.40
  -3  -1  -6    1.70    2.50
   3   1   6    0.70    2.80
  -3   1  -6    2.40    2.90
   4  -1   6   41.30    3.70
   4  -1   6   34.80    5.10
  -4  -1  -6   40.00    5.20
  -4   1  -6   44.60    5.80
   4   1   6   51.49    6.10
   5  -1   6    1.20    1.90
   5  -1   6   -7.70    3.20
  -5  -1  -6   -3.20    3.10
  -5   1  -6   -5.70    3.00
   5   1   6    0.10    1.40
   5   1   6    0.00    3.30
  -6  -1  -6   23.70    5.10
  -6   1  -6   17.30    5.10
  10  -2  -6   41.20    5.10
 -10  -2   6   42.30    6.00
  10  -2  -6   41.60    6.90
  10   2  -6   46.80    4.80
  10   2  -6   53.69    7.20
 -10   2   6   48.30    6.30
   9  -2  -6   46.30    5.00
  -9  -2   6   45.70    5.60
   9  -2  -6   54.79    6.70
  -9   2   6   48.10    5.80
   9   2  -6   47.80    6.30
   9   2  -6   51.49    4.80
   8  -2  -6   -0.50    3.10
   8  -2  -6   -0.20    2.30
  -8  -2   6    4.10    2.90
  -8   2   6    1.60    2.90
   8   2  -6    2.80    3.20
   8   2  -6    2.80    2.40
   7  -2  -6   74.79    6.60
  -7  -2   6   71.79    5.40
   7  -2  -6   75.99    5.30
  -7  -2   6   76.79    4.90
   7   2  -6   76.89    5.20
   7   2  -6   77.69    6.40
  -7   2   6   71.09    5.60
   6  -2  -6    1.60    3.10
  -6  -2   6    0.90    2.40
  -6  -2   6   -5.40    2.00
   6  -2  -6    2.40    2.30
  -6   2   6    0.50    2.30
   6   2  -6    1.30    2.10
   6   2  -6   -1.50    3.00
   5  -2  -6    1.50    2.70
  -5  -2   6   -4.80    2.30
   5  -2  -6    1.80    2.30
  -5  -2   6    4.30    2.00
   5   2  -6    1.70    2.00
  -5   2   6    2.80    2.10
   5   2  -6    5.50    2.70
  -5   2   6    7.40    2.20
   4  -2  -6    1.20    1.90
  -4  -2   6    2.50    2.60
  -4  -2   6    1.40    1.60
   4  -2  -6    0.10    2.10
  -4   2   6   -2.50    1.60
  -4   2   6    0.30    1.50
   4   2  -6   -1.60    1.60
   4   2  -6    3.30    2.40
  -3  -2   6   30.60    2.60
   3  -2  -6   33.70    3.80
  -3  -2   6   33.50    4.20
   3  -2  -6   23.70    3.00
  -3   2   6   30.30    2.90
  -3   2   6   36.20    3.50
   3   2  -6   40.10    4.30
   3   2  -6   30.50    3.40
   2  -2  -6   27.00    3.60
   2  -2  -6   34.50    3.40
  -2  -2   6   32.10    3.90
  -2  -2   6   27.80    2.00
  -2   2   6   29.80    3.50
   2   2  -6   25.10    3.50
  -2   2   6   31.70    2.70
   2   2  -6   33.60    3.50
   2   2  -6   26.70    2.00
   1  -2  -6  169.78    6.60
  -1  -2   6  186.98    7.70
  -1   2   6  177.68    5.40
  -1   2   6  171.28    7.10
   1   2  -6  171.48    7.40
   1   2  -6  174.68    6.80
   0  -2   6   89.59    5.60
   0  -2  -6   93.89    5.10
   0   2   6   95.49    3.60
   0   2  -6   88.69    5.50
   0   2   6   88.09    5.40
   1  -2   6   25.00    4.00
  -1  -2  -6   29.80    3.60
  -1   2  -6   28.50    4.00
   1   2   6   29.70    4.00
   2  -2   6   83.19    6.10
  -2  -2  -6   91.59    5.80
   2   2   6   91.19    6.20
  -2   2  -6   96.79    6.40
   3  -2   6   11.30    3.70
  -3  -2  -6   11.90    3.20
  -3   2  -6    3.80    3.30
   3   2   6    7.90    3.30
   4  -2   6    1.90    2.00
  -4  -2  -6    3.00    3.00
   4  -2   6    2.10    4.00
  -4   2  -6    0.50    3.60
   4   2   6    0.30    3.00
   5  -2   6   15.60    2.90
   5  -2   6    9.30    4.40
   5   2   6   10.80    4.10
  -5   2  -6   12.80    4.30
  10  -3  -6   -0.50    4.00
  10  -3  -6    1.50    3.00
 -10  -3   6   -3.60    3.60
 -10   3   6    2.20    3.50
  10   3  -6   -2.90    3.50
  10   3  -6   -0.30    2.30
   9  -3  -6   -0.60    2.60
  -9  -3   6   -1.90    2.80
   9  -3  -6   -0.30    3.20
   9   3  -6    1.90    2.30
  -9   3   6   -1.00    3.10
   9   3  -6   -2.80    3.80
  -8  -3   6   -0.20    2.60
   8  -3  -6   -3.50    2.30
   8  -3  -6    2.60    3.30
  -8   3   6   -0.10    2.80
   8   3  -6   -0.80    3.50
   8   3  -6    3.60    2.50
   7  -3  -6   39.50    5.10
  -7  -3   6   32.00    3.90
   7  -3  -6   38.10    4.60
  -7  -3   6   33.80    4.60
  -7   3   6   31.20    4.40
   7   3  -6   22.70    3.40
   7   3  -6   26.00    4.60
   6  -3  -6  346.07   11.00
   6  -3  -6  344.57   11.70
  -6  -3   6  338.37   11.10
  -6  -3   6  332.27   10.70
   6   3  -6  342.47   10.50
  -6   3   6  332.07   11.00
   6   3  -6  341.97   12.00
   5  -3  -6    0.00    2.70
  -5  -3   6   -1.50    1.60
   5  -3  -6    1.80    2.20
  -5  -3   6    1.80    2.40
   5   3  -6    1.10    2.00
  -5   3   6    0.40    1.90
   5   3  -6   -0.30    2.40
   4  -3  -6   36.20    4.00
  -4  -3   6   35.50    4.40
  -4  -3   6   35.30    3.30
   4  -3  -6   43.00    4.40
   4   3  -6   37.40    3.80
   4   3  -6   41.00    4.40
   4   3  -6   34.20    3.10
  -4   3   6   42.40    3.90
  -4   3   6   36.10    3.30
   3  -3  -6   41.30    3.70
  -3  -3   6   46.50    4.60
   3  -3  -6   50.69    4.20
  -3  -3   6   48.20    3.10
   3   3  -6   48.30    3.10
  -3   3   6   52.39    3.60
   3   3  -6   49.50    4.30
  -3   3   6   50.89    3.80
   3   3  -6   47.30    3.90
   2  -3  -6   29.40    3.30
  -2  -3   6   31.90    4.00
   2   3  -6   38.60    3.90
   2   3  -6   35.70    4.00
  -2   3   6   27.10    2.80
  -2   3   6   31.20    3.50
   2   3  -6   30.70    2.30
  -1  -3   6   -0.70    2.40
   1  -3  -6    1.50    1.90
  -1   3   6   -1.50    2.00
  -1   3   6    0.40    1.50
   1   3  -6    0.60    2.10
   0  -3  -6  144.69    6.00
   0  -3   6  141.19    7.10
   0   3   6  149.39    5.40
   0   3  -6  146.89    7.10
   0   3   6  141.19    7.20
   1  -3   6    8.70    4.10
  -1  -3  -6    9.10    3.30
  -1  -3  -6   10.40    2.50
   1   3   6    6.30    3.10
   1   3   6    8.10    2.20
  -1   3  -6    6.60    3.00
  -2  -3  -6   -1.10    2.10
   2  -3   6   -2.90    2.70
  -2  -3  -6   -1.80    2.60
  -2   3  -6    0.10    2.60
   2   3   6    1.20    2.70
   3  -3   6   34.50    3.90
   3  -3   6   36.80    5.10
   3   3   6   41.80    5.60
  -3   3  -6   38.20    5.30
   4  -3   6    0.80    3.20
   4  -3   6    5.40    2.50
   4   3   6    6.30    3.40
  -4   3  -6   -2.50    3.10
   5  -3   6    1.00    2.40
   5   3   6    7.00    3.80
  -5   3  -6    6.60    4.20
   9  -4  -6   21.60    4.30
   9  -4  -6   16.20    4.80
  -9  -4   6   17.30    4.40
  -9   4   6   22.50    4.70
   9   4  -6   11.30    4.90
   9   4  -6   17.20    3.40
   9   4  -6   12.70    4.20
   8  -4  -6    4.00    3.00
   8  -4  -6    2.40    3.40
  -8  -4   6    5.20    3.50
   8   4  -6   -0.40    2.20
  -8   4   6    6.50    3.30
   8   4  -6    7.20    3.60
   8   4  -6    2.00    3.40
   7  -4  -6   21.60    3.80
   7  -4  -6   19.90    4.10
  -7  -4   6   14.40    3.40
  -7  -4   6   21.50    3.80
   7   4  -6   15.50    3.60
  -7   4   6   20.70    3.90
   7   4  -6   15.20    3.10
   7   4  -6   19.70    4.30
  -6  -4   6  161.88    7.30
   6  -4  -6  171.98    7.90
   6  -4  -6  171.88    8.10
  -6  -4   6  156.68    7.60
   6   4  -6  158.28    7.60
  -6   4   6  149.69    7.70
   6   4  -6  159.88    8.10
   6   4  -6  166.98    7.40
  -5  -4   6   90.29    5.10
  -5  -4   6   90.29    5.90
   5  -4  -6   99.69    6.20
   5  -4  -6   90.69    5.60
   5   4  -6   93.99    6.20
   5   4  -6   92.09    5.20
   5   4  -6   87.09    5.60
  -5   4   6   95.69    5.60
   4  -4  -6  641.04   16.60
  -4  -4   6  663.83   17.70
  -4  -4   6  640.44   15.40
   4  -4  -6  645.94   16.40
  -4   4   6  648.94   16.20
  -4   4   6  634.04   15.50
   4   4  -6  628.84   16.20
   4   4  -6  643.94   15.40
   4   4  -6  630.54   17.50
  -3  -4   6   -2.60    2.70
  -3  -4   6    0.00    1.50
   3  -4  -6    2.80    2.40
   3   4  -6    2.20    1.60
   3   4  -6   -1.30    1.80
  -3   4   6    0.30    1.90
   3   4  -6   -0.70    2.10
  -3   4   6    0.80    1.80
   2  -4  -6   -4.40    2.00
  -2  -4   6    3.60    3.20
   2  -4  -6    1.80    2.40
  -2   4   6    4.70    2.10
   2   4  -6    2.90    2.40
  -2   4   6    1.30    2.20
   2   4  -6    1.00    1.40
   2   4  -6    1.80    2.10
   1  -4  -6   36.10    3.30
   1  -4  -6   33.90    4.10
  -1  -4   6   35.90    4.50
  -1   4   6   33.40    3.40
  -1   4   6   37.10    4.20
   1   4  -6   33.90    4.20
   0  -4  -6   63.19    3.90
   0  -4   6   64.19    6.30
   0  -4  -6   68.69    5.40
   0   4   6   61.59    5.20
   0   4   6   64.09    4.30
   0   4  -6   59.49    5.10
   1  -4   6   12.20    3.90
  -1  -4  -6   10.00    3.50
   1   4   6   15.40    2.60
  -1   4  -6   20.40    4.00
   1   4   6   14.10    3.50
   2  -4   6   28.70    5.00
   2  -4   6   33.50    4.00
  -2  -4  -6   24.90    4.60
  -2   4  -6   27.30    4.50
   2   4   6   28.90    4.70
  -3  -4  -6   21.20    4.50
   3  -4   6   15.90    3.30
   3  -4   6   11.30    4.10
  -3   4  -6    9.70    3.90
   3   4   6   24.90    4.60
   4  -4   6   -0.70    3.40
   4  -4   6    1.90    2.50
  -4  -4  -6    4.30    4.00
  -4   4  -6   -1.00    3.60
   4   4   6    3.10    3.50
   5  -4   6    2.80    2.70
  -5   4  -6    1.50    3.90
   5   4   6   -1.90    3.20
   9  -5  -6   38.20    6.10
   9  -5  -6   45.20    5.50
  -9  -5   6   35.90    5.50
  -9   5   6   33.80    5.80
   9   5  -6   37.80    4.60
   9   5  -6   35.20    5.60
   9   5  -6   30.90    5.80
   8  -5  -6   72.19    7.20
  -8  -5   6   83.89    6.70
   8  -5  -6   60.29    6.10
  -8  -5   6   68.09    6.60
  -8   5   6   63.49    6.50
   8   5  -6   56.69    5.20
   8   5  -6   68.79    6.60
   8   5  -6   56.89    6.30
  -7  -5   6   10.20    3.40
   7  -5  -6   12.30    3.70
  -7  -5   6   19.10    3.90
   7  -5  -6   13.10    3.50
  -7   5   6   14.10    3.70
   7   5  -6   13.80    3.60
   7   5  -6   16.00    3.20
   7   5  -6   11.10    3.60
   6  -5  -6    6.10    2.90
   6  -5  -6    4.90    3.20
  -6  -5   6   11.90    3.00
  -6  -5   6   14.80    3.80
   6   5  -6   10.50    3.50
   6   5  -6    7.10    3.00
  -6   5   6   11.20    3.20
   6   5  -6   12.00    3.20
  -5  -5   6   -0.60    2.60
  -5  -5   6    2.40    2.50
   5  -5  -6    4.30    3.00
   5   5  -6   -0.30    2.40
  -5   5   6   -1.30    2.30
   5   5  -6   -3.10    2.80
   5   5  -6   -1.70    2.10
  -4  -5   6   19.10    3.90
  -4  -5   6   17.60    2.80
   4  -5  -6   15.70    3.30
   4   5  -6   21.40    3.60
  -4   5   6   10.90    2.50
   4   5  -6   10.10    3.00
   4   5  -6   13.60    2.60
  -4   5   6   15.30    3.10
   3  -5  -6  128.89    6.30
  -3  -5   6  121.89    7.50
   3  -5  -6  129.19    6.00
  -3   5   6  130.49    6.40
   3   5  -6  126.29    6.60
   3   5  -6  130.69    5.60
   3   5  -6  125.59    7.00
  -3   5   6  133.39    6.20
  -2  -5   6  194.78    9.20
   2  -5  -6  180.28    7.90
   2   5  -6  173.58    8.20
   2   5  -6  177.48    7.70
   2   5  -6  182.68    6.20
  -2   5   6  171.78    7.50
  -2   5   6  188.38    7.60
   1  -5  -6    4.10    2.60
  -1  -5   6    0.50    2.90
  -1   5   6   -1.70    1.90
   1   5  -6   -0.10    2.40
  -1   5   6    1.40    2.40
   0  -5  -6  194.78    8.90
   0  -5   6  188.68    9.00
   0  -5   6  204.88    8.20
   0   5  -6  202.08    8.90
   0   5   6  200.98    8.90
   0   5   6  199.68    7.70
  -1  -5  -6   23.40    4.70
   1  -5   6   30.40    4.20
   1  -5   6   27.80    4.70
   1   5   6   25.00    3.50
  -1   5  -6   29.70    4.50
   1   5   6   34.00    4.70
   2  -5   6    6.60    3.60
   2  -5   6   16.20    3.40
  -2  -5  -6   15.80    4.20
   2   5   6   20.30    4.30
  -2   5  -6   16.00    4.30
   3  -5   6   24.80    4.10
  -3  -5  -6   23.00    5.00
   3  -5   6   18.50    4.70
   3   5   6   23.10    4.80
  -3   5  -6   23.90    4.80
   4  -5   6   33.70    4.70
  -4  -5  -6   37.80    6.20
   4   5   6   22.00    5.10
  -4   5  -6   28.20    5.50
   8  -6  -6   -3.80    2.90
   8  -6  -6    4.40    3.30
  -8  -6   6    2.00    3.10
  -8  -6   6   -1.70    2.90
  -8   6   6   -1.90    3.10
   8   6  -6    1.50    2.70
   8   6  -6    5.10    3.40
   8   6  -6   -1.60    3.20
  -7  -6   6   66.29    6.80
  -7  -6   6   76.09    6.80
   7  -6  -6   59.79    6.40
   7   6  -6   61.79    6.50
   7   6  -6   70.39    6.70
   7   6  -6   70.99    6.20
  -7   6   6   73.79    6.80
  -6  -6   6   -2.50    2.90
  -6  -6   6    3.20    2.70
   6  -6  -6   -3.20    2.70
  -6   6   6    1.20    2.80
   6   6  -6   -1.20    2.30
   6   6  -6    0.30    2.60
   6   6  -6   -1.30    2.20
  -5  -6   6   17.00    3.30
  -5  -6   6   21.50    4.30
   5  -6  -6   19.40    4.10
   5   6  -6   18.70    3.60
   5   6  -6   22.10    3.90
   5   6  -6   18.90    3.70
  -5   6   6   21.80    3.90
  -4  -6   6    9.30    3.80
   4   6  -6   17.80    3.70
   4   6  -6   13.50    3.10
  -4   6   6   18.00    3.50
   4   6  -6   17.00    3.40
   3  -6  -6   52.19    4.70
  -3  -6   6   47.10    5.40
   3   6  -6   60.49    5.40
   3   6  -6   58.79    4.40
   3   6  -6   50.59    5.00
  -3   6   6   59.89    4.70
  -3   6   6   57.09    5.30
   2  -6  -6    2.70    2.80
  -2  -6   6    1.10    3.10
   2   6  -6    5.40    2.70
  -2   6   6    1.20    2.50
  -2   6   6    3.20    3.00
  -1  -6   6   79.49    6.90
  -1  -6   6   54.39    5.90
   1  -6  -6   64.89    6.00
  -1   6   6   60.79    5.80
  -1   6   6   56.49    5.20
   1   6  -6   58.79    5.20
   0  -6   6   84.19    6.00
   0  -6  -6   81.59    6.30
   0  -6   6   87.59    7.00
   0   6  -6   75.89    6.00
   0   6   6   73.09    5.80
   0   6   6   78.99    6.20
   1  -6   6    5.80    3.60
   1  -6   6    8.80    3.20
  -1  -6  -6    4.80    3.70
   1   6   6    2.90    2.80
  -1   6  -6    5.60    3.40
   1   6   6    3.30    3.50
   2  -6   6    0.80    2.80
   2  -6   6    5.30    4.30
  -2  -6  -6    4.10    3.60
   2   6   6    1.00    2.90
  -2   6  -6    5.70    4.00
   2   6   6    3.20    3.30
   3  -6   6   -3.30    2.70
  -3  -6  -6    2.80    3.60
   3  -6   6   -3.40    3.50
  -3   6  -6   -1.60    3.20
   3   6   6   -0.20    3.30
   4  -6   6    4.10    3.00
  -4  -6  -6    3.70    4.40
  -4   6  -6   -1.80    3.50
   4   6   6    4.30    4.10
  -8  -7   6    5.70    4.20
  -8  -7   6   -1.30    3.20
   8   7  -6    0.30    3.30
  -8   7   6    0.50    3.40
   8   7  -6   -1.50    2.60
  -7  -7   6    0.90    3.40
  -7  -7   6    4.50    3.30
   7   7  -6    1.60    2.90
  -7   7   6    0.40    3.60
   7   7  -6   -0.60    3.00
  -6  -7   6   22.80    4.70
  -6   7   6   18.10    4.60
   6   7  -6   26.10    4.60
   6   7  -6   19.40    3.90
   6   7  -6   24.70    4.00
  -5  -7   6   -3.20    3.10
   5   7  -6    2.10    2.90
   5   7  -6   -4.60    2.40
   5   7  -6    0.20    2.50
  -5   7   6    6.00    3.10
  -4  -7   6    4.70    3.20
   4   7  -6   -0.80    2.30
   4   7  -6    1.80    2.80
   4   7  -6    1.70    2.50
  -4   7   6    0.90    2.50
  -3  -7   6  102.89    7.40
   3  -7  -6  108.59    6.40
  -3   7   6  106.79    6.30
  -3   7   6  108.59    6.70
   3   7  -6  116.89    6.20
   3   7  -6  108.29    6.50
   2  -7  -6    4.80    3.00
  -2  -7   6    4.10    3.20
   2   7  -6    0.20    2.70
  -2   7   6    3.50    2.80
  -2   7   6   -1.10    2.90
   1  -7  -6   16.20    3.90
  -1  -7   6   10.60    3.70
  -1   7   6   13.10    3.70
  -1   7   6    9.60    3.30
   1   7  -6   17.90    3.60
   0  -7   6    0.20    3.20
   0  -7  -6    0.50    2.90
   0   7   6   -2.90    2.60
   0   7  -6    3.60    3.20
   0   7   6    1.20    3.10
   1  -7   6    3.70    3.70
   1  -7   6    2.30    3.20
  -1  -7  -6   -1.50    3.00
   1   7   6   -5.40    2.70
  -1   7  -6    0.50    3.20
   1   7   6    4.30    3.20
   2  -7   6    9.50    3.50
  -2  -7  -6   11.00    4.30
   2  -7   6    8.50    4.30
   2   7   6    5.00    3.40
   2   7   6    8.00    4.20
  -2   7  -6    9.30    3.90
   3  -7   6    0.60    3.70
   3  -7   6   -0.50    3.10
  -3  -7  -6    3.70    3.90
   3   7   6    1.40    3.60
  -3   7  -6    0.90    3.70
  -7  -8   6   -3.20    3.70
  -7   8   6    2.00    3.70
   7   8  -6   -1.20    3.30
   7   8  -6    1.70    3.20
  -6  -8   6   46.30    6.60
   6   8  -6   54.99    6.00
   6   8  -6   57.79    6.30
  -6   8   6   55.69    6.40
  -5  -8   6    1.50    3.60
   5   8  -6    2.30    3.00
  -5   8   6    6.40    3.40
   5   8  -6   -0.80    2.90
  -4  -8   6  102.99    7.80
   4   8  -6  100.09    7.20
   4   8  -6  101.39    6.80
  -3  -8   6   28.30    5.10
  -3   8   6   31.70    4.80
   3   8  -6   41.30    5.10
  -2  -8   6    6.60    3.80
   2  -8  -6    6.40    3.30
   2   8  -6   13.30    3.60
  -2   8   6    7.80    3.30
  -2   8   6   10.80    3.80
   1  -8  -6    9.90    4.00
  -1  -8   6    6.40    3.50
   1   8  -6    5.20    3.30
  -1   8   6    3.00    3.60
  -1   8   6    5.50    3.40
   0  -8  -6    5.10    3.40
   0  -8   6    9.30    3.70
   0   8   6    5.10    3.30
   0   8  -6    6.60    3.50
   0   8   6   -1.00    3.50
  -1  -8  -6    2.30    3.50
   1  -8   6   12.20    4.10
  -1   8  -6    0.50    3.10
   1   8   6   -0.90    3.10
   1   8   6   -4.00    3.20
   2  -8   6   16.80    4.20
  -2  -8  -6   21.80    5.30
   2   8   6   21.40    5.00
   2   8   6   16.00    4.40
  -2   8  -6   22.20    4.80
  -6  -9   6    8.30    4.70
   6   9  -6   17.00    4.40
  -6   9   6   20.50    5.20
   6   9  -6   17.00    4.80
  -5  -9   6    8.40    4.30
  -5   9   6   12.90    4.10
   5   9  -6    6.50    3.70
   5   9  -6    1.10    3.00
  -4  -9   6   10.60    4.30
  -4   9   6    9.90    4.00
   4   9  -6   12.70    4.00
  -3  -9   6    6.90    4.10
  -3   9   6   14.10    4.70
  -2  -9   6   13.10    4.30
   2  -9  -6   12.20    4.20
  -2   9   6    8.50    4.10
  -2   9   6   14.80    4.10
   1  -9  -6    2.70    3.80
  -1  -9   6    1.10    3.70
  -1   9   6    3.80    3.40
  -1   9   6   -4.90    3.30
   0  -9  -6    1.80    3.90
   0  -9   6   10.60    4.00
   0   9  -6    0.20    3.30
   0   9   6    2.60    3.30
   0   9   6   -4.50    3.90
  -1  -9  -6   18.20    5.10
   1  -9   6   32.80    5.50
   1   9   6   16.50    5.00
  -1   9  -6   24.60    5.10
   1   9   6   23.20    5.10
  -3 -10   6   -2.10    3.50
  -3  10   6    6.10    4.10
  -2 -10   6   -2.10    3.50
  -2  10   6    1.20    4.00
  -1  10   6   -2.70    3.70
  10   0  -7    2.40    3.00
  10   0  -7   -3.70    4.30
 -10   0   7   -2.90    3.10
   9   0  -7   10.00    4.40
  -9   0   7   18.00    4.10
   9   0  -7   19.40    4.00
   8   0  -7    1.60    2.60
   8   0  -7    1.80    3.40
  -8   0   7   -1.40    2.50
   7   0  -7  127.39    8.10
  -7   0   7  131.29    7.20
   7   0  -7  141.79    7.20
  -6   0   7   -2.90    1.80
   6   0  -7    0.00    2.20
  -6   0   7   -0.80    2.50
   6   0  -7   -3.50    2.50
  -5   0   7   31.80    3.40
  -5   0   7   33.30    3.90
   5   0  -7   26.30    4.10
   5   0  -7   29.10    3.70
   4   0  -7   -4.40    1.70
   4   0  -7    6.70    3.40
  -4   0   7    2.50    2.70
  -4   0   7    1.10    1.60
  -3   0   7  404.26   12.20
  -3   0   7  423.66   10.00
   3   0  -7  410.16   11.60
   3   0  -7  414.96   12.70
  -2   0   7    2.10    1.10
   2   0  -7    1.30    2.50
  -2   0   7   -1.30    2.20
   1   0  -7  102.49    6.20
  -1   0   7  107.09    6.30
   0   0   7   -1.40    2.60
   0   0  -7   -5.90    2.20
  -1   0  -7  110.69    6.60
   1   0   7  121.09    7.50
  -2   0  -7    0.80    2.60
   2   0   7   -2.30    2.80
  -3   0  -7   33.00    5.10
   3   0   7   35.30    5.40
   4   0   7   -5.40    3.10
  -4   0  -7   -0.60    3.00
   5   0   7   32.80    3.40
   5   0   7   25.20    5.50
  -5   0  -7   31.40    5.70
  10  -1  -7    8.20    3.40
 -10  -1   7   11.10    4.20
  10  -1  -7    3.60    4.80
  10   1  -7    7.30    4.60
 -10   1   7    3.50    3.50
  10   1  -7    5.40    3.20
  -9  -1   7   -1.60    2.90
   9  -1  -7   -3.40    3.10
   9  -1  -7   -1.00    2.60
   9   1  -7    1.60    2.80
   9   1  -7    0.70    3.70
  -9   1   7    0.50    3.50
   8  -1  -7   53.69    5.20
   8  -1  -7   69.69    7.00
  -8  -1   7   70.99    6.30
   8   1  -7   55.89    5.40
   8   1  -7   56.29    6.50
  -8   1   7   54.79    5.70
   7  -1  -7    0.60    2.40
   7  -1  -7    5.80    3.70
  -7  -1   7    5.60    2.60
   7   1  -7    2.00    2.60
   7   1  -7   -0.70    3.20
  -7   1   7    0.30    2.80
  -6  -1   7  105.69    6.00
   6  -1  -7  113.39    6.40
  -6  -1   7  115.09    6.10
   6  -1  -7  114.29    7.40
   6   1  -7  118.09    6.40
  -6   1   7  110.69    5.90
   6   1  -7  106.79    7.00
  -5  -1   7  414.66   11.40
  -5  -1   7  412.96   12.60
   5  -1  -7  412.06   12.10
   5  -1  -7  406.76   13.10
  -5   1   7  417.36   11.70
  -5   1   7  426.16   11.80
   5   1  -7  405.86   12.10
   5   1  -7  414.16   13.30
   4  -1  -7   -2.30    1.80
  -4  -1   7    1.80    1.50
   4  -1  -7   11.30    3.70
  -4  -1   7   11.70    3.40
   4   1  -7    1.20    1.90
  -4   1   7    3.40    1.80
   4   1  -7    7.10    3.40
  -4   1   7    6.30    2.70
   3  -1  -7   15.40    2.90
   3  -1  -7   11.30    3.20
  -3  -1   7   16.20    2.00
  -3  -1   7   19.00    3.40
   3   1  -7   15.30    2.90
  -3   1   7   20.50    2.40
  -3   1   7   14.60    2.90
   3   1  -7   13.30    3.20
  -2  -1   7    6.40    2.80
   2  -1  -7   -1.50    2.20
  -2   1   7    3.10    1.40
   2   1  -7    6.20    2.70
  -2   1   7    2.60    2.50
   1  -1  -7   -3.70    1.80
  -1  -1   7    0.10    2.60
   1   1  -7    6.10    2.70
  -1   1   7   -2.80    2.20
   0  -1   7   17.10    3.90
   0  -1  -7   12.30    3.20
   0   1  -7    6.70    3.00
   0   1   7   13.70    3.70
  -1  -1  -7    2.30    2.70
   1  -1   7    5.10    3.20
   1   1   7    0.50    2.70
  -1   1  -7   -3.30    2.20
   2  -1   7   13.70    4.00
  -2  -1  -7   11.20    3.50
   2   1   7   15.90    4.00
  -2   1  -7   14.50    4.00
   3  -1   7   -4.20    2.90
  -3  -1  -7    1.80    2.80
   3   1   7   -1.70    2.70
  -3   1  -7   -7.30    3.00
   4  -1   7   -1.20    3.40
   4  -1   7    1.90    2.10
  -4  -1  -7    6.60    3.50
  -4   1  -7    0.80    3.60
   4   1   7    3.50    3.80
   5  -1   7   32.90    6.20
  -5  -1  -7   28.30    5.50
   5  -1   7   34.50    3.80
  -5   1  -7   31.10    5.80
   5   1   7   30.20    2.90
   5   1   7   32.30    6.00
  10  -2  -7    7.00    3.30
 -10  -2   7   -2.90    2.90
  10  -2  -7    1.30    4.10
 -10   2   7    3.70    4.20
  10   2  -7    5.00    4.20
  10   2  -7    5.90    3.10
   9  -2  -7   12.70    4.80
  -9  -2   7    8.70    3.50
   9  -2  -7   11.10    3.60
  -9   2   7   16.50    4.40
   9   2  -7   13.40    3.40
   9   2  -7    9.20    4.40
   8  -2  -7    5.10    3.70
   8  -2  -7    3.60    2.90
  -8  -2   7   11.30    3.60
   8   2  -7    6.00    2.70
  -8   2   7    2.30    3.10
   8   2  -7   11.10    4.00
   7  -2  -7   30.30    5.00
   7  -2  -7   29.40    4.10
  -7  -2   7   23.50    3.60
  -7  -2   7   30.30    4.30
   7   2  -7   16.50    4.30
  -7   2   7   23.00    3.90
   7   2  -7   24.20    3.70
  -6  -2   7   27.30    3.70
   6  -2  -7   25.20    3.70
   6  -2  -7   27.90    4.60
  -6  -2   7   17.10    4.00
   6   2  -7   30.60    4.00
   6   2  -7   33.70    4.80
  -6   2   7   29.30    3.80
   5  -2  -7  386.06   11.70
   5  -2  -7  368.56   12.50
  -5  -2   7  363.36   12.10
  -5  -2   7  370.86   10.70
  -5   2   7  369.86   11.10
   5   2  -7  375.36   12.90
  -5   2   7  394.26   11.00
   5   2  -7  361.96   11.40
   4  -2  -7   22.40    3.30
  -4  -2   7   22.60    2.70
  -4  -2   7   24.70    3.90
   4  -2  -7   25.40    4.00
  -4   2   7   31.00    3.40
   4   2  -7   31.70    3.90
  -4   2   7   24.20    3.30
   4   2  -7   26.10    4.10
   3  -2  -7    0.20    2.70
  -3  -2   7    4.90    1.50
  -3  -2   7   11.40    3.50
   3   2  -7    4.50    2.90
  -3   2   7    7.20    1.90
   3   2  -7    5.50    2.30
  -3   2   7    5.40    2.70
   2  -2  -7   53.99    4.90
  -2  -2   7   52.89    5.20
   2   2  -7   57.69    5.00
  -2   2   7   51.99    4.40
  -2   2   7   61.89    3.40
  -1  -2   7    3.30    2.90
   1  -2  -7    2.30    2.40
  -1   2   7    2.30    2.30
   1   2  -7    2.30    2.70
   0  -2   7    0.70    3.10
   0  -2  -7    0.40    2.20
   0   2  -7   -2.40    2.30
   0   2   7   -3.90    2.20
  -1  -2  -7   20.00    3.50
   1  -2   7   16.50    4.10
   1   2   7   16.10    3.80
  -1   2  -7   14.30    3.70
  -2  -2  -7   51.69    5.30
   2  -2   7   54.49    6.00
  -2   2  -7   64.09    6.60
   2   2   7   43.20    5.40
   3  -2   7   -4.00    3.30
  -3  -2  -7    1.40    3.00
   3   2   7    2.40    3.30
  -3   2  -7   -1.00    3.10
   4  -2   7   -0.90    4.10
   4  -2   7    5.20    2.60
   4   2   7    8.50    3.80
  -4   2  -7    2.30    4.00
  10  -3  -7    8.90    3.60
  10  -3  -7    4.20    4.60
 -10  -3   7    2.50    3.60
  10   3  -7   18.20    3.80
 -10   3   7   22.40    5.10
  10   3  -7   21.30    5.70
   9  -3  -7   21.80    5.30
  -9  -3   7   33.40    5.10
   9  -3  -7   27.60    4.50
  -9   3   7   30.90    5.20
   9   3  -7   30.10    4.40
   9   3  -7   16.90    5.00
  -8  -3   7   20.40    3.90
   8  -3  -7   12.50    3.80
   8  -3  -7   12.30    4.30
   8   3  -7   14.30    4.90
  -8   3   7   15.60    3.90
   8   3  -7   12.60    3.20
  -7  -3   7   35.80    4.40
   7  -3  -7   33.80    5.10
  -7  -3   7   41.40    4.80
   7  -3  -7   37.40    4.60
   7   3  -7   32.00    5.00
   7   3  -7   31.50    4.10
  -7   3   7   33.40    4.70
   6  -3  -7    1.40    3.30
  -6  -3   7   -0.10    2.10
  -6  -3   7   -2.50    2.20
   6  -3  -7    4.60    2.60
   6   3  -7   -2.60    2.70
   6   3  -7    1.30    2.20
  -6   3   7    2.90    2.70
  -5  -3   7   15.30    2.90
   5  -3  -7   10.20    3.00
  -5  -3   7   15.30    3.60
   5  -3  -7   21.60    3.80
   5   3  -7   23.50    4.30
  -5   3   7   16.40    3.30
   5   3  -7   16.00    3.20
  -4  -3   7   13.80    2.40
   4  -3  -7   20.00    4.30
  -4  -3   7   20.50    4.90
   4   3  -7   16.80    4.00
  -4   3   7   12.50    2.70
  -4   3   7   12.70    2.80
   4   3  -7   10.30    2.30
   4   3  -7   10.20    2.80
  -3  -3   7  146.49    5.10
  -3  -3   7  146.89    7.80
   3  -3  -7  138.19    7.20
  -3   3   7  129.79    6.50
  -3   3   7  149.19    6.00
   3   3  -7  140.99    5.10
   3   3  -7  145.49    6.90
   3   3  -7  149.29    7.50
  -2  -3   7  127.89    7.30
   2  -3  -7  120.49    6.30
  -2   3   7  120.29    5.10
  -2   3   7  124.79    6.60
   2   3  -7  130.09    7.30
   1  -3  -7   52.99    4.60
  -1  -3   7   59.59    6.00
  -1   3   7   58.29    5.50
  -1   3   7   60.99    3.80
   1   3  -7   54.39    5.40
   0  -3   7    6.20    3.40
   0  -3  -7    5.90    2.50
   0   3  -7    3.60    2.70
   0   3   7    3.50    2.70
  -1  -3  -7   57.79    4.70
   1  -3   7   59.69    6.30
   1   3   7   55.49    5.90
  -1   3  -7   54.59    5.80
   2  -3   7   -0.50    3.00
   2   3   7   -1.20    2.70
  -2   3  -7   -1.60    2.80
   3  -3   7   45.30    4.60
   3  -3   7   39.70    5.60
   3   3   7   41.60    5.70
  -3   3  -7   50.99    6.60
   4  -3   7    0.20    2.30
   4  -3   7   -2.70    3.30
   4   3   7    4.40    3.40
  -4   3  -7   -2.20    3.40
   9  -4  -7    0.50    4.00
  -9  -4   7   -5.00    2.90
   9  -4  -7   -1.40    2.70
   9   4  -7    1.80    3.20
  -9   4   7   -0.10    3.20
   9   4  -7    3.40    2.80
   9   4  -7   -0.90    3.60
   8  -4  -7   30.90    5.30
  -8  -4   7   36.60    5.00
   8  -4  -7   38.80    5.10
   8   4  -7   29.90    4.40
  -8   4   7   35.70    5.10
   8   4  -7   34.20    4.90
   8   4  -7   31.40    5.70
   7  -4  -7   44.10    5.30
   7  -4  -7   43.00    5.50
  -7  -4   7   44.00    5.10
  -7  -4   7   41.20    5.10
  -7   4   7   42.90    5.20
   7   4  -7   39.20    4.70
   7   4  -7   42.00    5.10
   7   4  -7   35.20    5.30
   6  -4  -7    2.70    3.00
  -6  -4   7    1.20    2.70
   6  -4  -7    1.80    2.80
  -6  -4   7   -0.80    2.40
  -6   4   7    4.20    3.00
   6   4  -7   -0.50    3.40
   6   4  -7    4.90    2.60
   6   4  -7    0.50    2.60
  -5  -4   7  224.98    9.50
  -5  -4   7  222.78    8.20
   5  -4  -7  239.78    9.70
   5   4  -7  216.58    8.90
  -5   4   7  212.88    8.40
   5   4  -7  219.28    9.80
   5   4  -7  226.68    8.30
  -4  -4   7  130.09    5.60
   4  -4  -7  137.49    7.30
  -4  -4   7  120.09    7.40
   4   4  -7  126.29    5.60
  -4   4   7  122.79    5.90
   4   4  -7  117.59    7.10
   4   4  -7  132.79    6.80
  -4   4   7  118.79    6.00
   3  -4  -7   16.60    3.40
  -3  -4   7   19.90    4.20
   3   4  -7   23.30    3.90
   3   4  -7   19.90    3.50
  -3   4   7   22.70    3.50
  -3   4   7   25.00    3.30
   2  -4  -7   26.50    3.40
  -2  -4   7   27.10    4.50
   2   4  -7   25.00    4.00
  -2   4   7   28.10    3.90
  -2   4   7   24.60    3.20
   1  -4  -7   23.10    3.50
  -1  -4   7   25.90    4.60
  -1   4   7   29.70    3.30
  -1   4   7   29.60    4.30
   1   4  -7   32.30    4.50
   0  -4   7   46.70    5.60
   0   4   7   49.10    5.50
   0   4  -7   52.19    5.60
   1  -4   7   49.10    5.90
   1   4   7   55.19    6.10
  -1   4  -7   63.49    6.20
   2  -4   7   -1.80    3.10
   2  -4   7   -1.20    2.20
   2   4   7   -0.90    3.40
  -2   4  -7    2.30    3.30
   3  -4   7   17.80    4.60
   3  -4   7   13.10    3.40
  -3   4  -7   26.70    5.30
   3   4   7   21.70    4.70
   4  -4   7    2.00    3.80
   4  -4   7    6.70    3.00
  -4   4  -7    0.90    3.70
   4   4   7   -1.00    3.70
  -9  -5   7    6.80    3.90
   9  -5  -7    3.70    4.20
   9  -5  -7    3.20    3.50
   9   5  -7    2.60    3.40
  -9   5   7    9.10    4.10
   9   5  -7    6.60    3.10
   9   5  -7    5.10    3.80
  -8  -5   7   -4.60    2.80
   8  -5  -7    4.40    3.20
  -8  -5   7    5.10    3.30
   8  -5  -7   -0.70    3.60
  -8   5   7   -0.90    3.00
   8   5  -7    2.80    3.60
   8   5  -7   -4.50    2.50
   8   5  -7    4.80    2.90
   7  -5  -7    7.10    3.70
  -7  -5   7   11.10    3.50
  -7  -5   7   13.60    3.70
   7   5  -7    8.80    3.00
   7   5  -7   10.50    3.50
   7   5  -7    9.30    3.90
  -7   5   7   11.00    3.60
  -6  -5   7   61.09    6.10
   6  -5  -7   78.59    6.50
  -6  -5   7   60.19    5.00
   6   5  -7   68.09    5.30
  -6   5   7   66.29    6.00
   6   5  -7   69.69    5.50
   6   5  -7   67.29    6.10
  -5  -5   7   23.40    4.40
   5  -5  -7   28.40    4.40
  -5  -5   7   26.90    3.50
  -5   5   7   33.80    4.50
   5   5  -7   27.30    3.70
   5   5  -7   29.30    4.20
   5   5  -7   25.80    4.60
   4  -5  -7   12.10    3.50
  -4  -5   7    6.90    4.00
  -4   5   7    6.20    2.90
   4   5  -7    4.00    2.80
  -4   5   7    5.20    2.30
   4   5  -7    3.80    2.30
   4   5  -7    6.70    3.30
  -3  -5   7  119.99    7.70
   3   5  -7  129.59    7.30
  -3   5   7  137.79    6.40
  -3   5   7  115.39    6.20
  -2  -5   7   16.60    4.40
  -2   5   7   15.30    3.50
  -2   5   7   15.60    3.10
   2   5  -7   14.60    3.60
  -1  -5   7    2.80    3.70
   1  -5  -7    6.10    3.00
  -1   5   7   -2.60    2.30
   1   5  -7   -2.10    2.60
  -1   5   7    1.00    2.20
   0  -5  -7   79.69    7.00
   0  -5   7   80.29    7.00
   0  -5   7   80.29    6.20
   0   5  -7   84.39    6.60
   0   5   7   89.69    5.30
   0   5   7   95.69    6.80
  -1  -5  -7   86.39    8.00
   1  -5   7   79.69    7.10
   1  -5   7   86.99    6.10
  -1   5  -7   80.39    6.80
   1   5   7   91.09    7.00
  -2  -5  -7   -4.10    3.10
   2  -5   7    1.50    3.50
   2  -5   7    0.70    2.90
   2   5   7    2.00    3.50
  -2   5  -7    3.20    3.70
   3  -5   7   -3.10    4.10
   3  -5   7    3.00    2.90
  -3  -5  -7   -3.70    3.20
   3   5   7   -0.60    3.60
  -3   5  -7    4.70    3.80
  -8  -6   7  130.29    8.60
   8  -6  -7  104.79    8.60
  -8  -6   7  136.19    8.80
  -8   6   7  130.19    8.60
   8   6  -7  126.19    7.80
   8   6  -7  141.69    8.80
  -7  -6   7   20.50    4.20
   7  -6  -7   15.40    4.60
  -7  -6   7   22.00    4.70
   7   6  -7   20.10    3.90
   7   6  -7   23.10    4.30
   7   6  -7   20.80    4.80
  -7   6   7   27.50    4.80
  -6  -6   7   19.60    4.70
  -6  -6   7   21.60    3.70
   6   6  -7   20.00    3.70
   6   6  -7   22.90    4.60
   6   6  -7   16.80    3.70
  -6   6   7   11.20    3.50
  -5  -6   7    7.70    3.60
   5   6  -7   13.70    3.60
  -5   6   7    9.30    3.10
   5   6  -7    8.90    3.40
   5   6  -7   11.00    3.20
  -4  -6   7    8.10    3.80
  -4   6   7    7.00    2.80
   4   6  -7    9.10    3.20
   4   6  -7    6.00    2.50
   4   6  -7   14.00    3.50
   3  -6  -7   10.70    3.30
  -3  -6   7    7.70    3.70
   3   6  -7   11.80    3.70
  -3   6   7    8.20    2.90
  -3   6   7   18.40    3.40
   2  -6  -7   58.79    5.90
  -2  -6   7   65.49    6.80
  -2   6   7   64.09    6.00
   2   6  -7   66.09    5.80
  -2   6   7   62.49    5.00
  -1  -6   7   13.20    4.20
   1  -6  -7   16.60    4.10
   1   6  -7   16.10    3.90
  -1   6   7   15.20    3.30
  -1   6   7   13.20    3.70
   0  -6   7    6.20    4.30
   0  -6   7    8.30    3.30
   0  -6  -7    2.00    3.30
   0   6  -7    4.40    3.30
   0   6   7    3.90    2.80
   0   6   7    4.60    3.20
   1  -6   7   19.70    4.30
  -1  -6  -7   27.40    5.10
   1  -6   7   13.40    4.80
  -1   6  -7   24.60    4.70
   1   6   7   16.40    4.60
  -2  -6  -7   12.00    4.90
   2  -6   7    3.30    4.10
   2  -6   7   15.50    4.00
  -2   6  -7   14.40    4.80
   2   6   7   12.30    4.70
   3  -6   7    0.50    3.20
  -3  -6  -7   -6.00    3.50
   3  -6   7   -2.70    4.40
   3   6   7   -0.70    3.60
  -3   6  -7   -5.90    3.20
  -7  -7   7    2.30    3.60
   7   7  -7    5.80    3.80
   7   7  -7    2.60    2.80
  -7   7   7   10.50    4.00
  -6  -7   7    0.90    3.40
   6   7  -7   -3.20    2.80
  -6   7   7    0.60    3.20
   6   7  -7    2.70    2.70
   6   7  -7    1.20    3.00
  -5  -7   7   -0.10    3.00
   5   7  -7    1.90    2.70
   5   7  -7    8.60    3.00
   5   7  -7    0.40    2.60
  -5   7   7    3.20    2.90
  -4  -7   7    9.90    4.20
  -4   7   7   14.60    3.60
   4   7  -7   16.90    4.10
  -3  -7   7  108.79    8.10
   3  -7  -7  122.09    7.40
  -3   7   7  119.19    7.50
   3   7  -7  129.69    7.60
  -3   7   7  114.09    7.00
   2  -7  -7    3.40    3.20
  -2  -7   7    4.50    3.90
  -2   7   7    2.00    2.70
  -2   7   7    2.50    3.20
   2   7  -7    3.10    3.00
  -1  -7   7   34.40    5.70
   1  -7  -7   31.80    5.10
   1   7  -7   19.50    4.10
  -1   7   7   34.20    5.30
  -1   7   7   27.20    4.40
   0  -7  -7    7.50    3.90
   0  -7   7   10.70    4.50
   0   7   7   12.30    3.50
   0   7  -7   12.30    3.90
   0   7   7   15.70    4.20
   1  -7   7   -5.50    2.50
   1  -7   7   -2.10    3.70
  -1  -7  -7    2.10    3.50
   1   7   7    4.20    3.50
  -1   7  -7   -1.60    3.50
   2  -7   7    8.90    4.70
  -2  -7  -7    3.10    4.40
   2  -7   7    4.60    3.80
  -2   7  -7    7.60    4.00
   2   7   7    3.60    3.60
  -6  -8   7    4.80    3.90
   6   8  -7   -2.10    2.90
  -6   8   7    6.80    3.70
   6   8  -7    2.90    3.20
  -5  -8   7    5.70    3.80
  -5   8   7   12.30    3.70
   5   8  -7   16.60    4.60
  -4  -8   7   22.20    5.00
   4   8  -7   18.60    4.30
  -4   8   7   20.50    4.30
  -3  -8   7   -0.90    3.30
  -3   8   7    1.80    3.10
   3   8  -7    4.00    2.90
   2  -8  -7   23.10    4.50
  -2  -8   7   23.70    4.90
  -2   8   7   16.20    4.00
  -2   8   7   22.50    4.30
   2   8  -7   23.30    4.50
  -1  -8   7   14.40    4.40
   1  -8  -7   13.60    4.50
  -1   8   7   13.40    4.30
   1   8  -7   18.20    4.20
  -1   8   7   15.90    4.10
   0  -8  -7    3.20    4.20
   0  -8   7    5.80    3.90
   0   8   7    5.00    3.50
   0   8  -7    0.90    3.60
   0   8   7   -5.10    3.10
   1  -8   7    9.50    4.40
  -1  -8  -7    3.90    4.20
   1   8   7    4.40    3.80
  -1   8  -7    2.40    4.20
  -5  -9   7    7.70    4.50
  -5   9   7   12.50    4.10
  -4  -9   7    8.80    4.40
  -4   9   7    0.90    3.10
  -3  -9   7    4.70    3.80
  -3   9   7    3.40    3.50
   2  -9  -7   49.80    6.30
  -2  -9   7   48.00    6.50
  -2   9   7   47.80    6.00
  -1  -9   7    0.90    4.10
   1  -9  -7   -1.00    3.70
  -1   9   7    0.60    3.80
  -1   9   7   -1.50    4.00
   1   9  -7    5.30    3.70
  10   0  -8    8.80    3.70
 -10   0   8   12.80    4.40
  10   0  -8    9.10    5.20
  -9   0   8    1.00    3.40
   9   0  -8    5.20    4.00
   9   0  -8   -2.70    2.70
   8   0  -8   50.79    5.60
   8   0  -8   57.29    6.90
  -8   0   8   54.29    5.60
  -7   0   8   -1.70    2.50
   7   0  -8   -0.10    3.40
   7   0  -8   -1.60    2.30
   6   0  -8  166.08    8.80
   6   0  -8  140.29    7.30
  -6   0   8  164.38    7.70
  -6   0   8  161.38    7.30
   5   0  -8    1.70    2.40
  -5   0   8    1.00    2.00
   5   0  -8    5.30    3.40
  -4   0   8  550.04   15.60
  -4   0   8  542.25   13.20
   4   0  -8  546.45   16.40
   3   0  -8   -0.70    2.60
  -3   0   8    3.40    3.00
   2   0  -8   76.29    5.70
  -2   0   8   73.49    5.90
   1   0  -8   -5.00    2.20
  -1   0   8   -2.60    2.70
   0   0  -8   -0.60    2.70
   0   0   8   -4.00    2.80
  -1   0  -8   -3.10    2.60
   1   0   8    2.90    3.70
   2   0   8   -6.70    3.20
  -2   0  -8   -1.10    2.80
  -3   0  -8    0.00    3.30
   3   0   8   -7.00    3.80
  -4   0  -8   15.70    4.90
   4   0   8   -3.60    4.40
  10  -1  -8   22.30    4.50
  10  -1  -8   24.20    6.20
 -10  -1   8   18.80    4.90
  10   1  -8   21.40    4.20
 -10   1   8   28.70    5.30
  10   1  -8   29.60    6.50
   9  -1  -8    0.00    3.00
   9  -1  -8   -3.40    3.50
  -9  -1   8    1.90    3.20
   9   1  -8   -2.60    4.00
  -9   1   8    0.40    3.00
   9   1  -8   -5.50    2.50
  -8  -1   8    3.80    3.10
   8  -1  -8    1.50    3.90
   8  -1  -8    2.30    2.70
  -8   1   8    1.90    3.00
   8   1  -8    3.30    2.90
   8   1  -8    0.70    4.10
  -7  -1   8    4.50    2.60
   7  -1  -8    5.70    2.80
   7  -1  -8    5.50    3.50
  -7   1   8    3.60    2.90
   7   1  -8    4.60    3.70
   7   1  -8   10.70    3.30
  -6  -1   8   54.49    4.80
   6  -1  -8   43.30    4.80
   6  -1  -8   50.09    5.90
  -6  -1   8   50.89    5.60
   6   1  -8   54.79    5.20
   6   1  -8   45.80    5.80
  -6   1   8   47.20    4.70
   5  -1  -8    6.20    4.00
  -5  -1   8   12.80    4.00
  -5  -1   8    0.30    1.80
   5   1  -8    8.50    4.00
  -5   1   8    2.50    2.10
   5   1  -8    1.00    2.40
  -5   1   8   10.40    3.60
  -4  -1   8    7.90    2.10
  -4  -1   8    9.60    3.30
   4  -1  -8    8.30    3.70
  -4   1   8    3.80    2.90
   4   1  -8   13.70    3.70
  -4   1   8    7.60    2.20
   3  -1  -8   -1.70    2.40
  -3  -1   8   -1.50    3.20
  -3   1   8   -0.90    2.50
   3   1  -8   -0.10    2.60
  -3   1   8    1.00    1.60
   2  -1  -8  194.78    8.50
  -2  -1   8  205.68    9.00
   2   1  -8  193.88    8.90
  -2   1   8  196.58    8.70
   1  -1  -8   40.20    5.00
  -1  -1   8   39.80    5.20
  -1   1   8   41.00    5.10
   1   1  -8   43.50    5.30
   0  -1   8   13.30    4.20
   0  -1  -8    8.50    3.20
   0   1   8   11.20    3.70
   0   1  -8   14.10    3.60
  -1  -1  -8    1.90    3.00
   1  -1   8   -0.10    3.70
  -1   1  -8    5.50    3.50
   1   1   8    4.50    3.40
   2  -1   8   20.60    4.90
  -2  -1  -8   22.80    4.60
   2   1   8   24.40    4.90
  -2   1  -8   26.80    5.20
  -3  -1  -8   22.50    4.80
   3  -1   8   24.70    5.40
  -3   1  -8   14.80    4.50
   3   1   8   18.30    4.70
   4  -1   8    1.60    2.30
   4  -1   8   -4.70    3.90
  -4  -1  -8   -3.20    3.60
   4   1   8   -0.20    4.10
  -4   1  -8   -3.30    3.70
 -10  -2   8   10.30    4.10
 -10   2   8   10.20    4.70
  -9  -2   8   19.50    4.20
   9  -2  -8   15.10    5.20
   9  -2  -8   18.80    4.30
   9   2  -8   25.00    4.40
  -9   2   8   23.00    4.60
   9   2  -8   17.80    5.40
  -8  -2   8   -0.50    2.70
   8  -2  -8    1.90    3.80
   8  -2  -8    3.10    3.10
  -8   2   8    2.00    2.90
   8   2  -8   -2.80    3.50
   8   2  -8    2.30    2.70
   7  -2  -8    3.30    3.90
  -7  -2   8    2.40    2.80
  -7  -2   8    4.80    2.90
   7  -2  -8    5.70    3.20
  -7   2   8    7.30    3.20
   7   2  -8    3.10    3.40
   7   2  -8    1.40    2.70
  -6  -2   8    1.30    2.10
   6  -2  -8    5.00    3.00
   6  -2  -8    1.30    3.90
  -6  -2   8   -2.30    3.30
   6   2  -8    1.60    2.60
  -6   2   8   -2.60    2.40
   6   2  -8    2.30    3.50
   5  -2  -8  199.18    9.30
  -5  -2   8  216.78    7.60
  -5  -2   8  221.28    9.80
   5   2  -8  201.18    9.90
   5   2  -8  200.78    8.40
  -5   2   8  206.18    8.00
  -5   2   8  198.28    8.10
  -4  -2   8   15.70    2.40
   4  -2  -8   22.90    4.60
  -4  -2   8   16.80    4.00
  -4   2   8   18.40    3.60
  -4   2   8   17.70    2.90
   4   2  -8   20.30    4.20
   3  -2  -8   66.39    5.40
  -3  -2   8   69.49    5.90
  -3   2   8   75.99    4.20
   3   2  -8   74.39    5.90
  -3   2   8   67.39    5.20
  -2  -2   8    1.50    3.20
   2  -2  -8   -8.50    2.00
   2   2  -8   -4.70    2.50
  -2   2   8    1.60    2.50
   1  -2  -8   36.40    4.30
  -1  -2   8   33.70    5.10
   1   2  -8   32.40    4.70
  -1   2   8   37.80    4.80
   0  -2   8   58.69    6.50
   0  -2  -8   73.19    5.50
   0   2   8   63.89    6.50
   0   2  -8   67.69    6.50
   1  -2   8   -2.70    3.20
  -1  -2  -8    1.80    2.50
   1   2   8    5.20    3.40
  -1   2  -8    1.40    3.10
  -2  -2  -8   18.00    4.10
   2  -2   8   17.00    4.70
   2   2   8   13.40    4.30
  -2   2  -8   20.80    4.70
   3  -2   8   -7.70    3.40
  -3   2  -8   -0.40    3.50
   3   2   8   -0.20    3.60
   9  -3  -8    5.50    3.50
  -9  -3   8    8.30    3.70
   9  -3  -8   13.60    5.10
   9   3  -8    8.30    3.20
  -9   3   8   15.30    4.30
   9   3  -8    6.70    4.60
   8  -3  -8   33.30    5.50
   8  -3  -8   37.80    5.00
  -8  -3   8   39.00    5.00
  -8   3   8   45.40    5.50
   8   3  -8   38.10    4.90
   8   3  -8   35.90    5.70
  -7  -3   8   -1.80    3.00
  -7  -3   8    2.30    2.50
   7  -3  -8    0.10    2.70
   7  -3  -8    0.70    3.90
   7   3  -8    0.50    2.50
  -7   3   8    2.30    2.80
   7   3  -8    4.30    3.60
   6  -3  -8   18.00    4.50
  -6  -3   8   15.80    3.80
  -6  -3   8   25.60    3.60
   6   3  -8   15.70    4.20
   6   3  -8   22.20    4.00
  -6   3   8   23.10    3.80
  -5  -3   8    1.90    3.60
  -5  -3   8   -1.90    2.00
   5  -3  -8    3.30    3.70
   5   3  -8    2.60    2.50
  -5   3   8    4.00    2.50
   5   3  -8    3.10    2.10
   5   3  -8    5.10    3.50
   4  -3  -8  275.07   10.40
  -4  -3   8  269.77   10.90
   4   3  -8  274.77   11.00
  -4   3   8  259.37    8.80
  -4   3   8  272.77    9.70
   3  -3  -8   99.69    6.30
  -3  -3   8  110.79    7.50
  -3   3   8  106.59    6.10
   3   3  -8  104.49    7.10
  -3   3   8  108.39    5.30
  -2  -3   8   25.20    4.70
   2  -3  -8   20.50    3.70
   2   3  -8   16.60    3.90
  -2   3   8   21.20    3.90
  -1  -3   8    2.00    3.50
   1  -3  -8   -2.10    2.30
  -1   3   8   -0.30    2.60
   1   3  -8   -0.30    2.70
   0  -3  -8    1.80    2.40
   0  -3   8    0.00    3.30
   0   3   8    1.10    2.90
   0   3  -8    1.00    2.80
   1  -3   8   49.99    6.30
   1   3   8   53.49    6.20
  -1   3  -8   56.39    6.30
   2  -3   8   -2.00    3.40
  -2   3  -8   -3.10    3.10
   2   3   8   -0.20    3.80
   3  -3   8    0.00    2.50
   3  -3   8    0.90    4.00
  -3   3  -8   -0.70    3.60
   3   3   8    7.90    4.40
   9  -4  -8  -10.90    3.80
   9  -4  -8    1.90    3.30
  -9  -4   8    0.50    3.40
   9   4  -8    2.30    2.80
  -9   4   8    0.10    3.20
   9   4  -8   -6.70    3.30
   9   4  -8   -2.20    3.30
   8  -4  -8   26.30    5.40
  -8  -4   8   29.20    4.80
   8   4  -8   22.20    4.30
   8   4  -8   24.40    5.20
   8   4  -8   20.80    4.50
  -8   4   8   23.10    4.90
  -7  -4   8   -0.60    2.50
  -7  -4   8    0.40    2.90
   7  -4  -8    7.60    3.90
  -7   4   8   -1.10    2.50
   7   4  -8    0.30    2.70
   7   4  -8   -7.80    3.00
   7   4  -8    2.10    2.60
   6  -4  -8    2.20    3.20
  -6  -4   8    1.50    3.00
  -6  -4   8   -0.30    2.10
  -6   4   8   -1.00    2.30
   6   4  -8   -1.80    3.10
   6   4  -8    0.70    2.10
   6   4  -8    2.20    2.80
  -5  -4   8   27.50    4.90
  -5  -4   8   34.00    3.80
   5  -4  -8   39.90    4.90
  -5   4   8   42.60    4.50
   5   4  -8   33.80    4.70
   5   4  -8   34.90    5.00
   5   4  -8   33.50    3.80
  -4  -4   8    5.70    4.00
   4  -4  -8    4.10    3.10
   4   4  -8    8.60    3.40
  -4   4   8    2.00    2.10
  -4   4   8   -0.20    2.30
  -3  -4   8   -3.00    3.50
   3  -4  -8   -5.20    2.60
  -3   4   8   -0.30    2.50
   3   4  -8   -0.40    2.90
  -3   4   8   -0.60    2.00
  -2  -4   8   67.29    6.90
   2   4  -8   68.89    6.10
  -2   4   8   61.29    4.30
  -2   4   8   56.59    5.60
  -1  -4   8   60.79    6.50
   1   4  -8   60.29    6.30
  -1   4   8   59.59    5.90
   0  -4   8   15.90    4.90
   0   4  -8   16.90    4.20
   0   4   8   16.60    4.40
   1  -4   8    1.30    3.80
   1   4   8   -1.00    2.90
  -1   4  -8   -0.10    3.10
   2  -4   8   17.80    5.00
   2  -4   8   20.20    3.90
  -2   4  -8   18.50    5.20
   2   4   8   21.10    4.70
   3  -4   8   -4.20    4.10
   3  -4   8    1.50    2.90
   3   4   8    1.80    3.50
  -3   4  -8    0.80    3.90
  -8  -5   8   -0.80    2.70
   8  -5  -8   -1.20    4.10
  -8  -5   8   -1.10    3.50
  -8   5   8    3.00    3.20
   8   5  -8   -2.90    2.70
   8   5  -8   -2.70    2.50
   8   5  -8   -2.20    3.70
  -7  -5   8   96.89    7.10
   7  -5  -8  105.49    7.70
  -7  -5   8  102.09    6.90
   7   5  -8  100.09    7.80
   7   5  -8   90.19    6.60
  -7   5   8  104.59    7.20
   7   5  -8   94.69    6.90
  -6  -5   8    3.20    3.50
  -6  -5   8    4.40    2.80
   6  -5  -8   13.30    4.50
   6   5  -8    8.90    3.80
   6   5  -8    2.50    2.80
   6   5  -8    2.80    2.60
  -6   5   8    4.30    2.90
   5  -5  -8   24.20    4.50
  -5  -5   8   19.10    4.40
   5   5  -8   23.70    4.40
  -5   5   8   27.20    4.10
   5   5  -8   15.60    3.70
  -4  -5   8   17.30    4.60
  -4   5   8   21.60    3.70
  -4   5   8   13.50    3.30
   4   5  -8   23.90    4.60
  -3  -5   8   -0.90    3.60
  -3   5   8    4.80    2.40
  -3   5   8    3.10    2.60
   3   5  -8   -0.20    2.70
  -2  -5   8    5.40    4.00
   2   5  -8    7.70    3.50
  -2   5   8   -0.10    2.50
  -2   5   8    3.40    2.20
  -1  -5   8   30.50    5.70
  -1   5   8   28.60    4.60
   1   5  -8   34.40    5.40
   0  -5   8    0.90    4.20
   0   5   8    2.10    3.30
   0   5  -8    1.40    3.10
   1  -5   8    1.80    3.10
   1  -5   8   -2.00    3.50
   1   5   8   -3.60    2.80
  -1   5  -8    0.70    3.30
   2  -5   8    5.80    4.20
   2  -5   8    7.60    3.50
  -2   5  -8    9.30    4.90
   2   5   8    1.70    4.10
  -8  -6   8    6.50    4.20
  -8  -6   8   -0.10    3.40
   8   6  -8    5.00    4.70
   8   6  -8    4.30    3.50
   8   6  -8    4.60    3.70
  -8   6   8   -0.80    3.30
  -7  -6   8   35.80    5.90
  -7  -6   8   43.80    5.40
  -7   6   8   45.90    5.70
   7   6  -8   45.50    5.90
   7   6  -8   39.40    5.20
   7   6  -8   38.50    5.40
  -6  -6   8   20.30    3.70
  -6  -6   8   24.00    4.70
   6   6  -8   13.80    4.10
  -6   6   8   29.00    4.80
   6   6  -8   19.30    3.60
   6   6  -8   27.90    5.10
  -5  -6   8   -0.10    3.10
  -5   6   8    4.00    3.30
   5   6  -8    8.20    3.50
  -4  -6   8   -2.60    3.70
   4   6  -8    0.30    3.00
  -4   6   8    1.60    2.50
  -3  -6   8   10.20    5.30
  -3   6   8   17.70    3.50
  -3   6   8   16.40    3.80
   3   6  -8   13.20    4.10
  -2  -6   8   16.00    5.20
  -2   6   8   19.70    4.30
  -2   6   8   15.30    3.30
   2   6  -8   12.30    4.20
  -1  -6   8    1.20    4.40
   1   6  -8   -1.90    2.80
  -1   6   8   -0.50    2.90
   0  -6   8   30.40    5.70
   0  -6  -8   35.50    5.80
   0  -6   8   32.70    5.10
   0   6   8   27.00    5.30
   0   6  -8   32.70    5.50
   1  -6   8   21.90    4.50
   1  -6   8   12.80    5.30
  -1  -6  -8   15.70    4.90
   1   6   8   19.60    4.90
  -1   6  -8   13.80    4.50
   2  -6   8   -4.00    5.00
   2  -6   8    2.90    3.20
   2   6   8    2.30    4.10
  -2   6  -8    4.80    4.40
  -7  -7   8   24.50    5.60
  -7   7   8   34.70    5.40
   7   7  -8   34.50    5.30
   7   7  -8   27.80    4.90
   7   7  -8   37.30    5.60
  -6  -7   8   -6.20    3.00
  -6   7   8   -1.10    2.80
   6   7  -8    6.90    3.60
   6   7  -8   -5.80    2.40
  -5  -7   8   13.10    4.50
  -5   7   8   18.50    4.00
   5   7  -8   16.00    4.10
  -4  -7   8    1.90    3.40
   4   7  -8    4.00    3.20
  -4   7   8    2.80    2.80
  -3  -7   8    9.70    4.20
  -3   7   8    6.80    3.50
   3   7  -8    9.40    3.70
  -3   7   8   11.80    3.60
  -2  -7   8    1.30    3.90
   2  -7  -8    5.00    3.70
  -2   7   8    5.90    3.20
   2   7  -8    8.30    3.50
  -2   7   8    5.60    3.50
   1  -7  -8    6.00    4.00
  -1  -7   8   14.40    5.20
   1   7  -8    8.10    4.10
  -1   7   8    2.50    3.30
   0  -7   8   -0.30    4.30
   0  -7  -8    0.70    3.60
   0   7  -8    0.50    3.30
   0   7   8    0.50    3.40
   1  -7   8    5.40    5.40
  -1  -7  -8   -2.30    3.80
  -1   7  -8    3.60    3.90
   1   7   8    6.90    4.10
  -5  -8   8    7.90    4.30
   5   8  -8    7.80    3.70
  -5   8   8   11.10    3.90
  -4  -8   8    5.20    4.30
   4   8  -8    6.10    3.40
  -4   8   8    4.50    3.20
  -3  -8   8    2.50    3.90
  -3   8   8   11.90    3.90
   3   8  -8    5.10    3.40
  -2  -8   8   22.20    5.20
   2  -8  -8    9.90    4.30
  -2   8   8   20.20    4.40
   2   8  -8   19.80    4.50
  -2   8   8   11.70    4.10
   1  -8  -8   11.30    4.90
  -1  -8   8   11.20    4.50
   1   8  -8   16.20    4.40
  -1   8   8    5.20    4.20
   9   0  -9    3.50    5.50
   9   0  -9    8.60    3.70
  -9   0   9    8.90    3.70
   8   0  -9   -2.40    2.60
  -8   0   9   -1.80    2.50
   8   0  -9   -3.70    4.20
   7   0  -9   11.10    4.50
   7   0  -9    8.50    3.40
  -7   0   9    4.10    2.90
  -6   0   9   -0.50    3.20
   6   0  -9    3.70    3.70
  -6   0   9    0.90    2.20
  -5   0   9   60.09    5.70
   5   0  -9   58.09    6.30
   4   0  -9   -1.10    3.00
  -4   0   9    4.10    3.40
  -3   0   9   20.50    4.60
   3   0  -9    5.80    3.40
   2   0  -9   -5.40    2.80
  -2   0   9    2.70    3.40
   1   0  -9  126.29    8.00
  -1   0   9  128.59    8.60
   0   0   9   -1.00    3.70
   0   0  -9   -0.60    2.60
  -1   0  -9    0.90    2.90
   1   0   9    0.00    4.20
  -2   0  -9   -0.30    3.10
   2   0   9   -5.50    3.40
  -3   0  -9    3.90    4.10
  -9  -1   9   -1.20    3.10
   9  -1  -9   -3.20    4.20
   9  -1  -9   -3.30    2.70
  -9   1   9   -4.90    2.40
   9   1  -9    5.60    3.10
   9   1  -9   -0.50    4.60
   8  -1  -9   23.00    5.40
  -8  -1   9   22.70    4.30
   8  -1  -9   24.00    4.50
   8   1  -9   24.20    4.30
  -8   1   9   13.60    3.70
   8   1  -9   13.00    4.90
   7  -1  -9   15.30    4.90
  -7  -1   9   12.60    3.30
  -7   1   9   10.10    3.40
   7   1  -9    9.00    3.50
   7   1  -9   16.30    5.00
  -6  -1   9    6.50    2.60
   6  -1  -9    2.90    3.70
  -6  -1   9    3.60    3.70
  -6   1   9    5.50    2.70
   6   1  -9   12.00    4.30
  -5  -1   9  208.78    9.80
   5  -1  -9  207.68   10.00
  -5   1   9  213.38    9.20
  -5   1   9  219.08    8.00
   5   1  -9  220.68   10.50
   4  -1  -9  173.18    8.80
  -4  -1   9  165.08    8.60
   4   1  -9  153.18    8.70
  -4   1   9  174.58    8.40
  -3  -1   9   41.30    5.50
   3  -1  -9   34.00    4.80
  -3   1   9   32.90    4.90
   3   1  -9   34.00    5.10
   2  -1  -9  127.49    7.50
  -2  -1   9  132.09    8.20
  -2   1   9  130.99    7.80
   2   1  -9  133.69    8.20
   1  -1  -9   19.20    4.20
  -1  -1   9   14.80    4.50
  -1   1   9   13.10    4.20
   1   1  -9   21.00    4.30
   0  -1   9    0.70    3.80
   0  -1  -9    1.70    2.80
   0   1   9   -2.00    3.10
   0   1  -9   -1.50    3.20
   1  -1   9   37.20    6.10
  -1  -1  -9   46.50    5.90
  -1   1  -9   55.39    6.50
   1   1   9   46.20    6.60
  -2  -1  -9   -3.10    3.00
   2  -1   9    0.90    4.60
  -2   1  -9    0.20    3.60
   2   1   9   -6.90    3.90
   9  -2  -9   15.50    5.30
   9  -2  -9   17.60    4.30
  -9  -2   9    4.80    3.30
   9   2  -9    8.70    3.50
  -9   2   9    7.40    4.10
   9   2  -9    1.90    4.50
  -8  -2   9   -0.10    2.70
   8  -2  -9   -1.10    4.20
   8   2  -9    5.70    3.20
  -8   2   9   -1.20    3.10
   8   2  -9   -5.90    4.10
   7  -2  -9   21.70    5.50
  -7  -2   9   17.40    3.60
   7   2  -9   16.50    4.90
   7   2  -9   21.90    4.30
  -7   2   9   15.90    3.50
  -6  -2   9    3.00    2.40
  -6  -2   9    5.10    4.10
   6  -2  -9    8.50    4.00
  -6   2   9    8.10    2.70
   6   2  -9   10.40    4.20
  -5  -2   9   18.40    4.40
   5  -2  -9   10.60    4.40
  -5   2   9    8.40    2.70
   5   2  -9   16.20    4.30
  -5   2   9    4.90    3.20
   4  -2  -9   19.50    4.40
  -4  -2   9   22.70    5.00
   4   2  -9   24.40    4.50
  -4   2   9   24.10    4.40
  -3  -2   9    2.90    3.50
   3  -2  -9    7.60    3.40
  -3   2   9    0.30    2.90
   3   2  -9    3.00    3.20
   2  -2  -9    5.00    2.80
  -2  -2   9   -0.40    3.40
  -2   2   9   -2.10    3.20
   2   2  -9   -0.30    2.90
   1  -2  -9    0.50    2.50
  -1  -2   9   -3.30    3.40
  -1   2   9   -3.70    2.70
   1   2  -9   -4.40    2.70
   0  -2   9   39.30    6.10
   0  -2  -9   39.00    4.90
   0   2  -9   37.30    5.50
   0   2   9   36.80    5.50
   1  -2   9   -0.80    4.10
  -1  -2  -9   -4.20    2.60
  -1   2  -9    1.10    3.40
   1   2   9    7.00    3.80
   2  -2   9   19.80    5.50
  -2   2  -9   13.90    4.70
   2   2   9   14.40    4.60
  -9  -3   9   36.90    5.40
   9  -3  -9   32.10    6.90
   9   3  -9   30.80    4.80
  -9   3   9   34.20    5.40
   9   3  -9   37.90    6.50
  -8  -3   9    0.70    3.00
   8  -3  -9   11.10    5.70
  -8   3   9   10.00    3.90
   8   3  -9    6.40    5.20
   8   3  -9    4.30    3.10
   7  -3  -9   22.80    5.00
  -7  -3   9   30.90    4.80
  -7  -3   9   24.40    3.90
   7   3  -9   33.40    4.70
   7   3  -9   23.40    5.30
  -7   3   9   27.20    4.60
   6  -3  -9    9.20    4.30
  -6  -3   9    5.20    4.30
  -6   3   9    7.90    3.10
   6   3  -9    9.20    4.30
  -5  -3   9    2.70    3.90
   5  -3  -9    3.70    3.50
  -5   3   9    8.20    2.70
   5   3  -9    9.20    3.70
  -4  -3   9   15.20    4.40
   4  -3  -9   10.90    3.80
   4   3  -9   17.20    4.20
  -4   3   9   13.80    3.50
  -3  -3   9   18.80    4.50
   3  -3  -9   13.80    3.60
  -3   3   9   11.20    3.50
   3   3  -9   14.00    4.00
   2  -3  -9   77.49    5.60
  -2  -3   9   71.69    7.20
  -2   3   9   68.99    6.60
   2   3  -9   76.59    6.80
   1  -3  -9   42.40    5.10
  -1  -3   9   32.90    5.60
   1   3  -9   43.40    5.80
  -1   3   9   38.00    5.30
   0  -3   9    5.70    4.30
   0   3  -9   12.70    4.20
   0   3   9    6.10    3.80
   1  -3   9   23.10    5.40
  -1   3  -9   33.60    5.90
   1   3   9   31.40    5.60
   2  -3   9   -5.30    3.70
  -2   3  -9   -2.10    3.90
   2   3   9    0.10    3.60
   8  -4  -9   17.20    5.60
  -8  -4   9    2.70    2.80
   8   4  -9    4.50    2.90
   8   4  -9    3.50    3.20
  -8   4   9    1.20    3.10
   8   4  -9    2.70    4.40
   7  -4  -9    6.60    4.60
  -7  -4   9    9.40    4.00
  -7  -4   9    7.80    3.10
   7   4  -9    6.90    3.20
  -7   4   9    8.60    3.60
   7   4  -9   -0.70    3.80
  -6  -4   9   -1.50    3.60
   6  -4  -9    4.60    3.80
  -6   4   9    2.80    3.00
   6   4  -9    4.90    3.80
   5  -4  -9    9.00    4.50
  -5  -4   9    8.20    4.90
   5   4  -9    8.30    3.80
  -5   4   9   -1.50    2.40
  -4  -4   9    2.90    4.70
   4  -4  -9   -1.00    3.30
  -4   4   9    4.00    3.00
   4   4  -9    2.50    3.30
  -4   4   9    2.10    2.30
  -3  -4   9   11.20    4.50
   3   4  -9    5.40    3.50
  -3   4   9    8.80    3.50
  -2  -4   9    7.60    4.60
  -2   4   9   -4.30    2.30
   2   4  -9   -2.80    3.10
  -1  -4   9    0.90    4.10
  -1   4   9   -2.90    2.50
   1   4  -9    3.30    3.80
   0  -4   9    1.80    4.10
   0   4  -9    0.90    3.40
   0   4   9    9.60    3.90
   1  -4   9   16.60    5.00
   1   4   9    6.70    4.20
  -1   4  -9   19.10    4.90
   2  -4   9   -4.70    4.70
   2  -4   9    3.10    3.30
   2   4   9    0.20    4.30
  -2   4  -9   -3.10    4.30
   8  -5  -9   18.80    6.00
  -8  -5   9   15.20    4.20
   8   5  -9   17.10    4.30
   8   5  -9   22.80    4.50
   8   5  -9   25.80    5.80
  -8   5   9   14.40    4.30
   7  -5  -9   43.10    6.90
  -7  -5   9   27.60    5.10
   7   5  -9   39.80    5.30
  -7   5   9   34.40    5.30
   7   5  -9   39.30    6.10
  -6  -5   9    4.10    4.00
   6   5  -9    3.20    3.40
  -6   5   9    4.90    2.90
  -5  -5   9    2.10    3.80
   5   5  -9   14.30    4.00
  -5   5   9   14.80    3.50
  -4  -5   9   45.30    6.50
  -4   5   9   43.20    4.70
   4   5  -9   46.80    6.20
  -3  -5   9   13.60    4.90
  -3   5   9   24.00    4.50
   3   5  -9   18.60    4.50
  -2  -5   9   -0.50    3.70
  -2   5   9    0.10    3.20
   2   5  -9    3.70    3.50
  -1  -5   9   -5.90    3.80
   1   5  -9    2.10    3.30
  -1   5   9    0.50    3.10
   0  -5   9   -1.10    4.70
   0   5   9    3.90    3.60
   0   5  -9    2.10    4.00
   1  -5   9    3.60    3.50
   1  -5   9    0.20    4.30
  -1   5  -9    5.30    4.10
   1   5   9   13.10    4.60
  -7  -6   9   21.20    5.50
   7   6  -9   25.30    5.20
  -7   6   9   16.90    4.50
  -6  -6   9    4.10    4.20
   6   6  -9    7.40    4.00
  -6   6   9    3.60    3.20
  -5  -6   9    6.00    4.20
  -5   6   9    6.30    3.10
   5   6  -9    9.60    3.90
  -4  -6   9   -0.30    4.50
  -4   6   9    8.10    3.10
   4   6  -9    5.70    3.70
  -3  -6   9   -4.60    4.70
   3   6  -9    4.50    3.70
  -3   6   9    2.30    2.90
  -2  -6   9   27.50    6.10
   2   6  -9   21.90    4.70
  -2   6   9   15.50    4.20
  -1  -6   9    7.90    4.80
   1   6  -9    4.20    3.60
  -1   6   9    5.50    3.60
   0  -6   9   -7.80    3.70
   0   6   9    4.80    3.60
   0   6  -9   -1.00    3.30
  -6  -7   9   22.60    5.80
   6   7  -9   25.60    5.20
  -6   7   9   27.40    4.70
  -5  -7   9   10.70    4.60
   5   7  -9   25.60    5.20
  -5   7   9   29.20    4.90
  -4  -7   9   -1.80    3.50
  -4   7   9   10.30    3.50
   4   7  -9   11.40    4.10
  -3  -7   9    1.10    4.60
   3   7  -9    4.40    3.80
  -2  -7   9    1.60    4.50
  -2   7   9    2.20    3.10
   2   7  -9    2.60    3.30
  -1  -7   9    8.60    5.40
  -1   7   9    4.90    4.10
   1   7  -9    8.30    4.30
  -9   0  10   -6.20    2.90
   9   0 -10    3.50    5.20
  -8   0  10   -2.00    2.50
   8   0 -10   12.70    5.70
   7   0 -10    4.10    4.30
   6   0 -10    6.60    4.40
  -6   0  10   10.00    4.30
   5   0 -10    1.40    4.10
  -5   0  10    3.30    4.00
   4   0 -10  171.98    9.60
  -4   0  10  192.18   10.20
  -3   0  10    3.90    4.00
   3   0 -10   -6.50    2.80
   2   0 -10   13.40    4.10
  -2   0  10   14.80    4.80
  -1   0  10   -5.80    3.30
   1   0 -10   -2.00    2.90
   0   0  10   25.70    5.70
   0   0 -10   32.30    5.30
   1   0  10   -3.40    4.30
  -1   0 -10    1.00    3.50
  -9  -1  10   58.39    6.60
   9  -1 -10   74.39    8.90
   9   1 -10   53.09    7.80
  -9   1  10   46.30    6.00
   9   1 -10   52.89    7.10
   8  -1 -10   51.79    7.40
  -8  -1  10   47.10    5.60
   8   1 -10   50.09    7.80
  -8   1  10   42.00    5.20
   7  -1 -10    2.00    4.60
   7   1 -10   -1.40    4.00
  -7   1  10    1.40    2.50
  -6  -1  10   21.70    5.10
   6  -1 -10   18.70    5.00
   6   1 -10   25.00    5.60
  -5  -1  10   16.00    4.90
   5  -1 -10   10.80    4.60
   5   1 -10   10.80    4.60
  -5   1  10   16.50    4.50
  -4  -1  10    3.10    4.50
   4  -1 -10    0.60    3.80
  -4   1  10    2.00    3.60
   4   1 -10   -0.20    3.30
  -3  -1  10   13.60    5.00
   3  -1 -10    9.50    4.20
   3   1 -10    8.70    4.20
  -3   1  10   10.60    4.30
  -2  -1  10    9.20    4.80
   2  -1 -10    6.50    3.50
  -2   1  10    8.10    4.10
   2   1 -10   -0.40    3.20
  -1  -1  10   -3.60    3.50
   1  -1 -10   -1.10    3.10
  -1   1  10   -3.80    3.50
   1   1 -10    2.10    3.40
   0  -1  10    4.90    4.60
   0  -1 -10   17.90    4.50
   0   1 -10   10.60    4.20
   0   1  10   24.90    5.80
  -1  -1 -10   15.20    4.40
   1  -1  10   14.30    4.90
  -1   1 -10   14.20    4.70
   1   1  10    7.90    4.80
  -8  -2  10   11.50    3.70
   8  -2 -10   12.90    5.50
  -8   2  10   11.50    4.00
   8   2 -10   17.40    5.80
   7  -2 -10    2.90    4.30
  -7   2  10    3.40    3.10
   7   2 -10    5.80    4.60
   6  -2 -10    2.50    3.90
  -6  -2  10   -1.60    3.80
   6   2 -10    2.60    3.90
  -5  -2  10   16.40    4.80
   5  -2 -10    6.40    4.50
   5   2 -10    8.90    4.20
  -5   2  10    8.30    4.00
  -4  -2  10   70.99    7.60
   4  -2 -10   60.59    6.60
  -4   2  10   63.69    6.80
   4   2 -10   68.59    7.30
   3  -2 -10   81.79    7.00
  -3  -2  10   90.69    8.10
  -3   2  10   94.99    7.30
   3   2 -10   80.99    7.40
   2  -2 -10    3.40    3.10
  -2  -2  10   11.70    4.50
   2   2 -10    4.20    3.60
  -2   2  10    8.30    4.50
  -1  -2  10  146.89    9.60
   1  -2 -10  146.29    8.40
  -1   2  10  150.28    9.40
   1   2 -10  149.39    9.20
   0  -2 -10    7.80    3.50
   0  -2  10    4.80    4.90
   0   2 -10    9.40    4.20
   0   2  10   12.90    4.70
   1  -2  10   -1.50    4.60
   1   2  10   -6.30    3.40
  -1   2 -10   -3.70    3.30
   8  -3 -10   16.10    5.40
   8   3 -10   14.30    5.40
  -8   3  10   14.40    4.10
   7  -3 -10   28.20    6.50
  -7  -3  10    5.60    4.50
  -7   3  10   15.80    3.60
   7   3 -10   15.10    5.40
  -6  -3  10    1.40    4.50
   6  -3 -10    6.10    4.80
   6   3 -10    9.40    4.30
  -5  -3  10    1.80    4.10
   5  -3 -10    1.50    3.60
   5   3 -10    2.00    3.90
   4  -3 -10   41.30    5.40
  -4  -3  10   50.09    6.60
  -4   3  10   39.80    5.60
   4   3 -10   42.70    6.00
   3  -3 -10    3.00    3.20
  -3  -3  10    0.30    3.90
  -3   3  10   -3.70    2.90
   3   3 -10   -5.70    3.20
  -2  -3  10   11.90    4.70
  -2   3  10   14.70    4.20
   2   3 -10   21.20    5.30
  -1  -3  10   -2.40    3.90
  -1   3  10    7.50    3.90
   1   3 -10    0.30    3.50
   0  -3  10   -1.00    4.20
   0   3 -10    5.20    3.90
   0   3  10    0.00    3.40
   1  -3  10    9.30    5.20
  -1   3 -10    8.70    4.90
   8  -4 -10    4.90    5.00
  -8   4  10    1.70    3.50
   8   4 -10    1.50    4.60
   7  -4 -10   44.00    7.30
  -7  -4  10   37.90    5.70
  -7   4  10   41.80    5.30
   7   4 -10   39.80    6.60
   6  -4 -10   57.89    7.60
  -6  -4  10   42.40    7.10
   6   4 -10   46.10    6.70
  -6   4  10   50.89    5.60
   5  -4 -10    4.20    4.40
  -5  -4  10    2.60    4.50
   5   4 -10    6.30    3.70
  -4  -4  10   10.20    4.90
  -4   4  10   -4.00    3.10
   4   4 -10    8.50    3.90
  -3  -4  10   10.30    5.00
  -3   4  10   11.90    3.90
   3   4 -10   15.20    4.60
  -2  -4  10   -2.00    4.30
   2   4 -10   -0.80    4.00
  -2   4  10   -1.20    3.50
  -1  -4  10    4.30    4.80
  -1   4  10    0.10    3.80
   1   4 -10    0.70    3.60
   0  -4  10   11.70    5.20
   0   4  10   15.40    4.70
   0   4 -10    7.50    4.30
  -7  -5  10   -5.80    3.70
  -7   5  10   -1.40    2.90
   7   5 -10   -1.20    4.30
  -6  -5  10    2.40    4.00
  -6   5  10   10.80    3.50
   6   5 -10    9.80    4.20
  -5  -5  10    1.70    5.40
   5   5 -10   17.30    4.90
  -4  -5  10    3.10    4.90
   4   5 -10    1.10    3.60
  -3  -5  10    3.10    4.90
  -3   5  10   -1.30    3.10
   3   5 -10   -0.40    3.80
  -2  -5  10    7.40    5.20
   2   5 -10   -2.90    3.20
  -2   5  10   -0.20    3.20
  -1  -5  10   14.70    6.10
  -1   5  10    6.30    4.40
   1   5 -10   14.00    4.60
  -5  -6  10    2.30    4.80
   5   6 -10   -0.30    3.30
  -4  -6  10    9.00    5.20
   4   6 -10    2.20    3.90
  -3  -6  10   45.20    7.30
  -3   6  10   36.60    5.80
   3   6 -10   39.20    6.60
  -2  -6  10   -1.40    5.50
   2   6 -10   -0.40    4.20
  -2   6  10   -0.10    3.10
   8   0 -11    8.70    6.30
   7   0 -11   96.69    9.60
   6   0 -11   -0.60    4.30
   5   0 -11   70.79    7.70
  -5   0  11   78.99    8.20
  -4   0  11    2.30    4.00
   4   0 -11   -2.40    3.70
  -3   0  11   16.10    5.00
   3   0 -11   10.10    4.30
   2   0 -11   -1.50    3.20
  -2   0  11   -7.10    3.60
   1   0 -11    6.50    3.80
  -1   0  11    5.60    4.50
   8  -1 -11   11.30    6.00
   8   1 -11    8.90    5.70
   7  -1 -11    6.10    5.70
   7   1 -11    9.70    5.90
  -6  -1  11    6.30    4.70
   6  -1 -11   -7.40    3.90
   6   1 -11   -3.10    4.50
  -5  -1  11   12.80    5.20
   5  -1 -11   -4.10    3.80
  -5   1  11    4.40    4.60
   5   1 -11    2.70    4.20
  -4  -1  11    8.60    4.70
   4  -1 -11    4.50    4.00
   4   1 -11    5.60    4.10
  -4   1  11    8.60    4.80
   3  -1 -11   14.90    5.10
  -3  -1  11   16.90    5.40
   3   1 -11   11.10    5.00
  -3   1  11   18.40    5.10
  -2  -1  11   21.20    5.60
   2  -1 -11   12.30    4.20
  -2   1  11    7.30    4.70
   2   1 -11   13.80    4.80
  -1  -1  11   -3.90    4.00
   1  -1 -11    3.40    3.40
   1   1 -11    1.20    3.70
  -1   1  11   -7.10    3.90
   7  -2 -11    6.80    5.00
   7   2 -11    6.00    4.90
  -6  -2  11    6.40    5.80
   6  -2 -11   -1.80    4.40
   6   2 -11    7.30    5.10
   5  -2 -11   -4.50    4.10
  -5  -2  11   18.70    6.20
   5   2 -11    6.20    4.40
  -5   2  11    7.90    4.80
  -4  -2  11   15.00    5.70
   4  -2 -11    2.30    3.80
  -4   2  11    3.60    3.90
   4   2 -11   12.50    4.70
  -3  -2  11   26.60    5.90
   3  -2 -11   15.90    4.70
   3   2 -11    9.20    4.50
  -3   2  11    7.30    5.10
   2  -2 -11   -1.90    3.40
  -2  -2  11   -4.10    4.10
   2   2 -11   -1.90    3.70
  -2   2  11   -0.90    3.80
  -1  -2  11    3.20    4.80
  -1   2  11   13.00    5.20
   1   2 -11    8.60    4.50
  -7  -3  11   -6.40    4.40
   7  -3 -11    8.10    5.90
   7   3 -11    2.10    4.70
   6  -3 -11    1.00    4.30
  -6  -3  11    2.90    5.40
   6   3 -11    7.30    4.40
   5  -3 -11    1.20    4.40
  -5  -3  11    3.30    5.30
   5   3 -11    5.00    4.30
  -4  -3  11   16.80    6.40
   4  -3 -11   -3.10    3.70
   4   3 -11    2.20    4.00
  -4   3  11   -5.50    3.40
  -3  -3  11    4.80    5.00
  -3   3  11    1.50    4.30
   3   3 -11    6.10    4.70
  -2  -3  11    8.40    5.20
  -2   3  11   11.70    4.80
   2   3 -11    6.00    4.30
   1   3 -11   25.80    5.60
  -6  -4  11    2.50    5.30
   6   4 -11   -5.60    4.10
  -5  -4  11    9.00    5.50
   5   4 -11    6.20    4.20
  -4  -4  11    1.50    4.80
  -4   4  11   -1.60    4.00
   4   4 -11   -1.20    4.00
  -3  -4  11   29.70    6.80
  -3   4  11   22.10    5.40
   3   4 -11   19.10    5.70
  -2  -4  11    8.00    5.70
  -2   4  11   10.60    4.30
   2   4 -11   10.10    4.60
   5   0 -12   -5.10    4.00
  -5   0  12    1.60    5.30
   4   0 -12    4.50    5.00
  -4   0  12   11.00    6.10
   5  -1 -12    0.20    4.50
  -5  -1  12    6.20    5.50
   5   1 -12   -8.90    3.90
  -5   1  12    7.00    4.80
  -4  -1  12   19.20    6.10
   4  -1 -12   17.60    5.00
   4   1 -12   11.70    5.20
  -4   1  12   17.60    6.20
;
_shelx_hkl_checksum              64270
#END Tags that were not found in dictionaries
loop_
_space_group_symop_operation_xyz
'x, y, z'
'-x+1/2, y+1/2, -z+1/2'
'-x, -y, -z'
'x-1/2, -y-1/2, z-1/2'
loop_
_atom_site_label
_atom_site_type_symbol
_atom_site_fract_x
_atom_site_fract_y
_atom_site_fract_z
_atom_site_U_iso_or_equiv
_atom_site_adp_type
_atom_site_occupancy
_atom_site_site_symmetry_order
_atom_site_calc_flag
_atom_site_refinement_flags_posn
_atom_site_refinement_flags_adp
O3 O 0.34160(16) 0.55234(13) 0.30955(14) 0.0363(3) Uani 1 1 d . .
O1 O 0.09581(17) 0.88844(14) 0.71726(16) 0.0407(3) Uani 1 1 d . .
H1 H 0.0063 0.8955 0.7392 0.061 Uiso 1 1 calc R U
N1 N 0.23242(18) 0.61404(16) 0.49529(17) 0.0291(3) Uani 1 1 d . .
O2 O -0.05861(18) 0.68809(16) 0.57233(19) 0.0547(4) Uani 1 1 d . .
C5 C 0.3333(2) 0.63954(18) 0.41339(19) 0.0272(3) Uani 1 1 d . .
C2 C 0.2584(2) 0.72778(17) 0.61958(19) 0.0266(3) Uani 1 1 d . .
H2A H 0.3494 0.6892 0.7250 0.032 Uiso 1 1 calc R U
C1 C 0.0798(2) 0.76448(18) 0.63189(19) 0.0297(4) Uani 1 1 d . .
C3 C 0.3446(2) 0.86292(18) 0.5683(2) 0.0341(4) Uani 1 1 d . .
H3B H 0.2497 0.9358 0.5035 0.041 Uiso 1 1 calc R U
H3A H 0.4368 0.9149 0.6628 0.041 Uiso 1 1 calc R U
C4 C 0.4346(2) 0.78892(19) 0.4681(2) 0.0365(4) Uani 1 1 d . .
H4B H 0.4186 0.8523 0.3755 0.044 Uiso 1 1 calc R U
H4A H 0.5665 0.7722 0.5338 0.044 Uiso 1 1 calc R U
H2 H 0.180(3) 0.529(2) 0.491(2) 0.042(5) Uiso 1 1 d . .
loop_
_atom_site_aniso_label
_atom_site_aniso_U_11
_atom_site_aniso_U_22
_atom_site_aniso_U_33
_atom_site_aniso_U_23
_atom_site_aniso_U_13
_atom_site_aniso_U_12
O3 0.0443(7) 0.0367(7) 0.0378(7) -0.0066(5) 0.0270(6) -0.0069(5)
O1 0.0450(7) 0.0369(7) 0.0518(8) -0.0177(6) 0.0319(6) -0.0114(5)
N1 0.0361(7) 0.0219(7) 0.0360(8) -0.0040(5) 0.0219(6) -0.0079(5)
O2 0.0472(7) 0.0483(8) 0.0829(11) -0.0325(8) 0.0414(7) -0.0225(6)
C5 0.0282(7) 0.0261(8) 0.0292(8) 0.0030(6) 0.0141(6) -0.0001(6)
C2 0.0316(7) 0.0231(7) 0.0260(8) -0.0010(6) 0.0132(6) -0.0025(6)
C1 0.0377(8) 0.0253(8) 0.0310(8) -0.0030(6) 0.0193(7) -0.0054(6)
C3 0.0383(8) 0.0255(8) 0.0428(10) -0.0030(7) 0.0215(7) -0.0082(6)
C4 0.0391(8) 0.0312(9) 0.0473(10) -0.0011(7) 0.0261(8) -0.0092(7)
loop_
_atom_type_symbol
_atom_type_description
_atom_type_scat_dispersion_real
_atom_type_scat_dispersion_imag
_atom_type_scat_source
C C 0.0033 0.0016 'International Tables Vol C Tables 4.2.6.8 and 6.1.1.4'
H H 0.0000 0.0000 'International Tables Vol C Tables 4.2.6.8 and 6.1.1.4'
N N 0.0061 0.0033 'International Tables Vol C Tables 4.2.6.8 and 6.1.1.4'
O O 0.0106 0.0060 'International Tables Vol C Tables 4.2.6.8 and 6.1.1.4'
loop_
_geom_angle_atom_site_label_1
_geom_angle_atom_site_label_2
_geom_angle_atom_site_label_3
_geom_angle
C5 N1 C2 113.81(13)
O3 C5 N1 124.63(14)
O3 C5 C4 126.25(14)
N1 C5 C4 109.12(14)
N1 C2 C1 112.36(12)
N1 C2 C3 102.90(12)
C1 C2 C3 114.64(13)
O2 C1 O1 124.49(15)
O2 C1 C2 124.01(14)
O1 C1 C2 111.49(13)
C4 C3 C2 103.93(13)
C5 C4 C3 104.12(13)
loop_
_geom_bond_atom_site_label_1
_geom_bond_atom_site_label_2
_geom_bond_distance
O3 C5 1.2377(19)
O1 C1 1.3074(19)
N1 C5 1.3283(19)
N1 C2 1.452(2)
O2 C1 1.1995(19)
C5 C4 1.503(2)
C2 C1 1.508(2)
C2 C3 1.536(2)
C3 C4 1.525(2)
loop_
_geom_hbond_atom_site_label_D
_geom_hbond_atom_site_label_H
_geom_hbond_atom_site_label_A
_geom_hbond_distance_DH
_geom_hbond_distance_HA
_geom_hbond_distance_DA
_geom_hbond_angle_DHA
_geom_hbond_site_symmetry_A
O1 H1 O3 0.82 1.75 2.5546(16) 167.0 4_576
N1 H2 O2 0.84(2) 2.10(2) 2.9223(19) 165.4(19) 3_566
loop_
_geom_torsion_atom_site_label_1
_geom_torsion_atom_site_label_2
_geom_torsion_atom_site_label_3
_geom_torsion_atom_site_label_4
_geom_torsion
C2 N1 C5 O3 175.26(15)
C2 N1 C5 C4 -4.39(18)
C5 N1 C2 C1 142.26(14)
C5 N1 C2 C3 18.43(17)
N1 C2 C1 O2 14.6(2)
C3 C2 C1 O2 131.68(18)
N1 C2 C1 O1 -166.22(13)
C3 C2 C1 O1 -49.20(19)
N1 C2 C3 C4 -24.08(16)
C1 C2 C3 C4 -146.40(14)
O3 C5 C4 C3 168.56(15)
N1 C5 C4 C3 -11.79(18)
C2 C3 C4 C5 21.98(17)
