#------------------------------------------------------------------------------
#$Date: 2016-03-22 22:15:30 +0200 (Tue, 22 Mar 2016) $
#$Revision: 179036 $
#$URL: svn://www.crystallography.net/cod/cif/4/12/34/4123465.cif $
#------------------------------------------------------------------------------
#
# This file is available in the Crystallography Open Database (COD),
# http://www.crystallography.net/
#
# All data on this site have been placed in the public domain by the
# contributors.
#
data_4123465
loop_
_publ_author_name
'Ananias, Duarte'
'Paz, Filipe A Almeida'
'Yufit, Dmitry S.'
'Carlos, Lu\'is D'
'Rocha, Jo\~ao'
_publ_section_title
;
 Photoluminescent thermometer based on a phase-transition lanthanide
 silicate with unusual structural disorder.
;
_journal_issue                   8
_journal_name_full               'Journal of the American Chemical Society'
_journal_page_first              3051
_journal_page_last               3058
_journal_paper_doi               10.1021/ja512745y
_journal_volume                  137
_journal_year                    2015
_chemical_formula_moiety         'Eu0.01 Gd0.99 O4 Si, Na'
_chemical_formula_sum            'Eu0.01 Gd0.99 Na O4 Si'
_chemical_formula_weight         272.28
_chemical_name_systematic
;
 ?
;
_space_group_crystal_system      orthorhombic
_space_group_IT_number           74
_space_group_name_Hall           '-I 2b 2'
_space_group_name_H-M_alt        'I m m a'
_symmetry_space_group_name_Hall  '-I 2b 2'
_symmetry_space_group_name_H-M   'I m m a'
_audit_creation_date             '23 June 2014'
_audit_creation_method           'SHELXL-2014, manual editing plus enCIFer'
_cell_angle_alpha                90
_cell_angle_beta                 90
_cell_angle_gamma                90
_cell_formula_units_Z            4
_cell_length_a                   6.8051(11)
_cell_length_b                   5.4529(9)
_cell_length_c                   9.1425(15)
_cell_measurement_reflns_used    819
_cell_measurement_temperature    30(2)
_cell_measurement_theta_max      24.69
_cell_measurement_theta_min      3.73
_cell_volume                     339.26(10)
_computing_cell_refinement       'SAINT V8.30C (Bruker AXS Inc., 2013)'
_computing_data_collection       'APEX2 2013.4_1 (Bruker AXS Inc., 2013)'
_computing_data_reduction        'SAINT V8.30C (Bruker AXS Inc., 2013)'
_computing_molecular_graphics    'DIAMOND (Brandenburg, 2009)'
_computing_publication_material  'SHELXTL (Sheldrick, 2014)'
_computing_structure_refinement  'SHELXTL (Sheldrick, 2014)'
_computing_structure_solution    'SHELXTL (Sheldrick, 2014)'
_diffrn_ambient_temperature      30(2)
_diffrn_detector_type            'Bruker PHOTON 100 CMOS'
_diffrn_measured_fraction_theta_full 1.000
_diffrn_measured_fraction_theta_max 1.000
_diffrn_measurement_device_type  'Bruker D8 Venture'
_diffrn_measurement_method       '\w scans'
_diffrn_radiation_monochromator  'focusing mirrors'
_diffrn_radiation_source         'ImuS microsource'
_diffrn_radiation_type           MoK\a
_diffrn_radiation_wavelength     0.71073
_diffrn_reflns_av_R_equivalents  0.1165
_diffrn_reflns_av_unetI/netI     0.0635
_diffrn_reflns_Laue_measured_fraction_full 1.000
_diffrn_reflns_Laue_measured_fraction_max 1.000
_diffrn_reflns_limit_h_max       9
_diffrn_reflns_limit_h_min       -9
_diffrn_reflns_limit_k_max       7
_diffrn_reflns_limit_k_min       -7
_diffrn_reflns_limit_l_max       12
_diffrn_reflns_limit_l_min       -12
_diffrn_reflns_number            2498
_diffrn_reflns_point_group_measured_fraction_full 1.000
_diffrn_reflns_point_group_measured_fraction_max 1.000
_diffrn_reflns_theta_full        25.242
_diffrn_reflns_theta_max         28.998
_diffrn_reflns_theta_min         3.733
_diffrn_standards_number         0
_exptl_absorpt_coefficient_mu    19.863
_exptl_absorpt_correction_T_max  1.0000
_exptl_absorpt_correction_T_min  0.6256
_exptl_absorpt_correction_type   multi-scan
_exptl_absorpt_process_details
; 
'SADABS V2012/1 (Bruker AXS Inc.)' 
;
_exptl_crystal_colour            Colourless
_exptl_crystal_density_diffrn    5.331
_exptl_crystal_description       Prism
_exptl_crystal_F_000             484
_exptl_crystal_size_max          0.050
_exptl_crystal_size_mid          0.020
_exptl_crystal_size_min          0.010
_refine_diff_density_max         1.231
_refine_diff_density_min         -1.829
_refine_diff_density_rms         0.369
_refine_ls_extinction_method     none
_refine_ls_goodness_of_fit_ref   1.049
_refine_ls_hydrogen_treatment    undef
_refine_ls_matrix_type           full
_refine_ls_number_parameters     38
_refine_ls_number_reflns         275
_refine_ls_number_restraints     6
_refine_ls_restrained_S_all      1.057
_refine_ls_R_factor_all          0.0449
_refine_ls_R_factor_gt           0.0311
_refine_ls_shift/su_max          0.000
_refine_ls_shift/su_mean         0.000
_refine_ls_structure_factor_coef Fsqd
_refine_ls_weighting_details
'w=1/[\s^2^(Fo^2^)+(0.0243P)^2^] where P=(Fo^2^+2Fc^2^)/3'
_refine_ls_weighting_scheme      calc
_refine_ls_wR_factor_gt          0.0610
_refine_ls_wR_factor_ref         0.0657
_reflns_Friedel_coverage         0.000
_reflns_number_gt                234
_reflns_number_total             275
_reflns_threshold_expression     'I > 2\s(I)'
_cod_data_source_file            ja512745y_si_002.cif
_cod_data_source_block           2-Imma
_cod_depositor_comments
;
The following automatic conversions were performed:

'_space_group_crystal_system' value 'Orthorhombic' changed to
'orthorhombic' according to
/usr/data/users/saulius/crontab/automatic-downloads/rss-feeds/ACS/lib/dictionaries/cif_core.dic
dictionary named 'cif_core.dic' version 2.4.2 from 2011-04-26.

'_exptl_absorpt_correction_type' value 'Multi-scan' changed to
'multi-scan' according to
/usr/data/users/saulius/crontab/automatic-downloads/rss-feeds/ACS/lib/dictionaries/cif_core.dic
dictionary named 'cif_core.dic' version 2.4.2 from 2011-04-26.

Automatic conversion script
Id: cif_fix_values 3008 2015-01-20 13:52:24Z robertas 

 Adding full bibliography for 4123465--4123466.cif.
;
_cod_database_code               4123465
#BEGIN Tags that were not found in dictionaries:
_shelx_space_group_comment
;
The symmetry employed for this shelxl refinement is uniquely defined
by the following loop, which should always be used as a source of
symmetry information in preference to the above space-group names.
They are only intended as comments.
;
_shelx_estimated_absorpt_t_min   0.437
_shelx_estimated_absorpt_t_max   0.826
_shelxl_version_number           2014-3
_shelx_res_file
;
TITL Imma in Imma
CELL 0.71073   6.80510   5.45290   9.14250  90.0000  90.0000  90.0000
ZERR    4.00   0.00110   0.00090   0.00150   0.0000   0.0000   0.0000

LATT 2

SYMM -X, 0.5-Y, Z
SYMM -X, 0.5+Y, -Z
SYMM X, -Y, -Z

SFAC O    Na   Si   Gd     Eu
UNIT 16   4    4    3.96   0.04

LIST 4 ! automatically inserted. Change 6 to 4 for CHECKCIF!!

L.S. 24

ACTA
BOND $H
CONF
WPDB

SHEL 5.8 0.73
SIZE 0.050 0.020 0.010
TEMP -243.150

FMAP 2
PLAN -5

EADP GD1 EU1
EXYZ GD1 EU1

ISOR 0.01 O3

WGHT    0.024300
FVAR       0.11863
GD1   4    0.500000    0.250000    0.698956    10.24750    0.00560    0.03421 =
         0.00710    0.00000    0.00000    0.00000
EU1   5    0.500000    0.250000    0.698956    10.00250    0.00560    0.03421 =
         0.00710    0.00000    0.00000    0.00000
SI1   3    0.271401    0.250000    0.413629    10.25000    0.00538    0.01191 =
         0.00734    0.00000   -0.00288    0.00000
O1    1    0.500000    0.176761    0.445051    10.25000    0.01243    0.01444 =
         0.01693    0.00056    0.00000    0.00000
O2    1    0.220509    0.007553    0.321447    10.50000    0.06007    0.00741 =
         0.02716   -0.00377   -0.02441    0.00532
O3    1    0.166244    0.250000    0.572516    10.25000    0.02484    0.05378 =
         0.00594    0.00000   -0.00030    0.00000
NA1   2    0.166151    0.250000    0.429773    10.25000    0.00456    0.03043 =
         0.01801    0.00000   -0.00369    0.00000
HKLF 4

REM  Imma in Imma
REM R1 =  0.0311 for     234 Fo > 4sig(Fo)  and  0.0449 for all     275 data
REM     38 parameters refined using      6 restraints

END

WGHT      0.0243      0.0000

REM Highest difference peak  1.231,  deepest hole -1.829,  1-sigma level  0.369
Q1    1   0.1763  0.1389  0.5556  11.00000  0.05    1.23
Q2    1   0.3907  0.0723  0.7117  11.00000  0.05    1.15
Q3    1   0.5000  0.1707  0.6776  10.50000  0.05    0.95
Q4    1   0.3292  0.1628  0.6477  11.00000  0.05    0.90
Q5    1   0.7108 -0.1484  0.6447  11.00000  0.05    0.88
;
_shelx_res_checksum              39387
_shelx_hkl_file
;
   0   2   0 1000.00  103.85
   0   2   0  926.23  107.18
   0  -2   0  969.84  102.20
   0  -2   0  960.97  107.28
   0  -2   0  843.24  103.79
   0  -4   0  459.53   50.11
   0   4   0  457.67   51.27
   0   4   0  443.72   52.75
   0  -4   0  432.23   50.93
   0  -6   0   51.30   11.10
   0  -8   0   30.91   17.72
   0  -8   0    1.31   17.48
   1  -1   0   -0.48    1.29
  -1  -1   0   -0.31    1.78
  -1  -1   0    0.49    1.38
   1   1   0   -1.76    1.66
  -1   1   0    1.44    1.72
   1   1   0   -2.59    1.33
  -1   1   0    0.40    1.12
   1   1   0   -0.10    0.87
   1  -1   0   -0.90    1.16
  -1  -1   0   -0.07    1.06
  -1   1   0    0.15    1.39
  -1  -3   0   -2.27    4.72
  -1  -3   0   -1.91    3.83
  -1   3   0   -1.02    3.51
   1  -3   0   -2.28    3.77
  -1  -3   0    2.49    4.90
   1  -3   0   -1.04    3.19
  -1   3   0    1.66    3.84
   1  -3   0    2.50    5.26
  -1   5   0    1.38    6.09
   1  -5   0    4.20    5.37
  -1  -5   0    3.54    5.74
  -1  -5   0    4.22    5.69
   1  -7   0   -8.37   11.57
  -1  -7   0  -16.30   10.80
   2   0   0  240.97   28.73
   2   0   0  252.75   27.41
  -2   0   0  236.29   28.72
  -2   0   0  255.87   27.40
   2   0   0  243.09   27.39
   2  -2   0  366.70   46.16
  -2   2   0  427.48   47.39
   2  -2   0  432.45   44.91
   2   2   0  401.44   45.38
  -2  -2   0  357.70   47.21
  -2   2   0  451.81   44.88
   2  -2   0  404.34   47.18
  -2  -2   0  457.33   45.49
  -2  -2   0  359.51   45.50
  -2   4   0   55.11    9.60
   2  -4   0   53.22    9.47
   2  -4   0   46.83    8.40
  -2  -4   0   44.53   12.69
  -2  -4   0   41.12    9.83
  -2  -4   0   45.91    8.44
   2   4   0   42.62    8.45
  -2  -6   0   23.46    9.60
  -2  -6   0   26.29    9.66
  -2   6   0   18.80   10.55
   2  -6   0   25.35    9.76
  -3   1   0   -4.33    2.63
   3  -1   0    1.64    2.44
   3  -1   0   -0.84    2.68
  -3  -1   0    0.85    1.08
   3   1   0    0.28    1.25
   3   1   0    0.46    3.81
  -3  -1   0   -1.57    2.95
   3  -1   0   -1.88    1.92
   3  -1   0    0.59    3.06
   3   3   0    4.58    3.00
   3  -3   0    3.94    4.41
  -3   3   0    2.53    4.33
  -3  -3   0    6.96    3.68
  -3   3   0    6.65    4.35
   3  -3   0    7.70    5.39
   3   3   0    3.11    4.35
  -3  -3   0   -0.61    3.61
  -3   5   0    5.32    7.81
   3  -5   0   -4.08    7.02
  -3  -5   0    4.35    6.66
   3  -7   0   16.19   15.72
  -3  -7   0   -6.69   15.11
   3  -7   0   14.96   15.99
  -3   7   0  -11.52   14.83
  -3  -7   0    5.49   13.41
   4   0   0  698.23   66.09
  -4   0   0  628.85   69.10
   4   0   0  499.05   68.97
   4   0   0  562.13   65.87
   4   0   0  681.20   65.82
  -4   0   0  503.88   65.49
   4  -2   0  339.78   39.36
  -4   2   0  279.43   37.80
  -4   2   0  345.61   40.30
  -4  -2   0  335.95   40.17
   4  -2   0  343.99   38.57
   4   2   0  336.23   37.46
   4   2   0  345.05   38.88
  -4  -2   0  366.99   37.39
   4  -4   0  208.40   23.43
  -4   4   0  205.65   25.62
  -4   4   0  183.09   24.61
   4   4   0  180.63   24.66
  -4  -4   0  217.33   24.87
  -4  -4   0  136.01   23.47
   4  -4   0  188.06   24.79
   4  -6   0   34.74   13.04
  -4   6   0   16.27   13.62
  -4  -6   0   29.61   11.79
   4  -6   0   22.61   12.75
  -5   1   0   -7.03    4.35
   5  -1   0    3.43    3.24
   5  -1   0    0.37    4.05
   5   1   0    0.61    2.40
   5  -1   0    4.31    5.18
   5   1   0   -2.66    2.34
  -5   1   0   -8.52    6.85
  -5  -1   0    7.12    5.03
   5   1   0   -6.50    5.27
   5  -3   0   -6.65    5.13
   5  -3   0    4.32    5.85
  -5  -3   0    1.33    2.94
  -5   3   0    4.17    8.62
  -5   3   0   -1.30    6.27
  -5  -3   0   -1.96    5.46
   5   3   0    8.78    8.53
  -5   5   0    8.53   11.58
   5   5   0    7.08   11.19
   5  -5   0   32.61   10.11
  -5  -5   0    0.97    9.20
   6   0   0  252.09   34.60
   6   0   0  318.34   35.13
  -6   0   0  370.86   37.84
   6   0   0  297.17   34.38
   6   2   0  280.29   31.39
   6  -2   0  273.35   30.02
  -6  -2   0  240.38   31.76
   6  -2   0  248.33   29.50
  -6   2   0  209.95   31.53
  -6  -4   0   88.54   15.57
   6  -4   0   96.63   15.07
   6  -4   0   80.22   15.85
  -6   4   0   82.59   16.77
   6  -6   0   -2.28   16.35
  -6  -6   0   -1.14   14.97
  -6   6   0   12.52   18.71
   7   1   0    2.10    3.24
   7   1   0    4.57    8.55
   7  -1   0    2.91    6.97
   7  -1   0    8.46    6.35
  -7  -1   0   14.37    7.65
  -7   1   0    5.90    7.17
   7   1   0   -1.04    3.55
   7  -3   0    9.25    8.72
  -7   3   0  -10.83    9.52
   7  -3   0    9.79   10.12
  -7  -3   0    0.33    9.69
  -7   5   0  -17.73   16.48
   7  -5   0   17.05   15.12
  -7  -5   0    2.83   13.26
   7   5   0   23.87   19.44
  -8   0   0  150.57   25.87
   8   0   0  206.76   25.42
   8  -2   0  121.79   19.55
  -8  -2   0  106.75   21.08
   8   2   0  185.00   24.54
   8  -2   0  133.63   20.57
  -8   2   0  114.74   21.47
   8   4   0   70.91   22.58
  -8  -4   0   67.60   17.22
   8  -4   0   49.40   17.09
  -8   4   0   89.37   19.36
   9   1   0   23.66   14.77
  -9  -1   0    7.21   12.05
  -9   1   0   -7.78   13.48
   9  -1   0  -17.78   13.82
   9  -3   0    8.32   15.49
  -9  -3   0    8.18   14.58
   9   3   0   11.52   19.71
  -9   3   0   15.14   16.63
  10   0   0   96.49   24.02
 -10   0   0  101.21   24.30
   0  -1  -1  453.48   48.35
   0   1  -1  462.88   48.67
   0   1   1  454.51   48.39
   0  -1   1  451.29   48.61
   0  -1   1  447.00   49.40
   0  -1   1  441.25   50.62
   0   1   1  415.95   51.19
   0  -1  -1  389.10   51.16
   0   1  -1  480.05   49.48
   0  -1  -1  462.76   49.23
   0  -3   1  157.32   24.69
   0  -3   1  228.70   24.11
   0  -3  -1  182.32   25.98
   0  -3  -1  250.64   24.21
   0  -3   1  162.01   24.34
   0   3  -1  230.25   24.61
   0  -3  -1  196.90   24.80
   0  -3   1  240.71   25.11
   0  -5   1   68.40   10.67
   0   5  -1   36.01   10.00
   0  -5  -1   63.59    9.20
   0  -5   1   43.89   11.23
   0  -7  -1   31.49   11.82
   0  -7  -1    0.36   11.55
   0  -7   1   -6.22   10.78
  -1   0  -1   72.37    8.44
   1   0  -1   74.14    8.27
   1   0  -1   68.13    8.71
  -1   0   1   66.87    8.23
  -1   0  -1   71.56    8.28
   1   0  -1   69.27    8.42
   1   0   1   80.99    8.82
   1   0   1   75.58    8.47
   1   0   1   67.54    8.28
  -1   0  -1   76.47    8.79
  -1   0   1   74.63    8.42
  -1   0   1   75.30    8.81
  -1  -2   1   51.44    6.51
  -1  -2   1   46.06    7.40
  -1   2  -1   47.28    6.96
   1  -2  -1   32.53    7.09
   1  -2  -1   55.82    6.14
  -1  -2   1   51.51    7.00
   1   2   1   49.67    6.79
   1  -2  -1   47.65    6.17
  -1   2  -1   44.13    6.73
  -1   2  -1   46.33    6.66
   1  -2  -1   35.51    7.19
  -1  -2  -1   49.24    8.04
  -1  -2  -1   40.42    6.67
  -1   2   1   60.93    7.66
   1  -2   1   49.24    6.39
  -1  -2  -1   58.30    6.97
   1  -2   1   41.40    6.75
   1   2  -1   52.17    6.86
   1  -2   1   44.32    7.46
   1  -4  -1    7.78    6.17
  -1   4  -1    8.62    4.95
  -1  -4   1    4.30    6.63
   1  -4  -1    2.08    7.00
  -1  -4   1    5.57    4.56
   1  -4  -1   11.68    4.14
   1  -4   1   11.40    8.09
   1   4  -1    4.46    4.54
  -1   4   1    6.26    5.99
   1  -4   1    9.20    5.17
  -1  -4  -1  -12.64    8.30
  -1  -4  -1    5.50    7.05
  -1  -4  -1    7.03    7.00
   1  -4   1    8.12    4.90
  -1  -6   1   -0.42    6.98
   1  -6  -1    6.58    7.98
  -1  -6   1   10.13    8.03
   1  -6  -1  -10.68    8.07
   1  -6   1    0.94    8.35
  -1  -6  -1   11.02    8.04
  -1  -6  -1    7.34    8.17
   1   6  -1  -19.10    8.47
  -1   6   1    4.11    9.71
  -2   1  -1  658.37   75.88
  -2  -1   1  635.53   74.99
  -2   1  -1  739.10   78.38
  -2  -1   1  692.02   78.41
  -2   1  -1  720.09   74.80
   2  -1  -1  690.29   75.87
   2  -1  -1  655.58   74.33
   2   1   1  695.44   75.04
   2   1   1  566.99   78.48
  -2  -1   1  686.90   75.64
  -2   1   1  690.34   78.58
   2  -1   1  721.64   74.90
  -2  -1  -1  717.61   78.66
   2   1  -1  659.44   74.88
   2  -1   1  707.48   78.33
   2  -1   1  727.03   76.07
   2   1  -1  696.08   78.43
   2   1  -1  695.70   75.67
  -2   1   1  691.61   74.35
  -2   3  -1  297.04   37.27
  -2   3  -1  341.13   38.19
  -2  -3   1  300.91   37.98
   2  -3  -1  365.42   38.26
   2  -3  -1  330.62   35.92
  -2  -3   1  270.34   36.93
   2   3   1  333.99   36.85
   2   3  -1  325.93   37.22
   2  -3   1  314.00   37.76
  -2   3   1  351.38   38.89
   2  -3   1  387.30   38.67
  -2  -3  -1  302.14   36.74
   2   3  -1  335.74   37.22
   2  -3   1  338.01   36.56
  -2  -3  -1  278.43   39.58
  -2  -3  -1  340.30   38.51
   2  -5  -1  124.78   18.76
   2  -5  -1   94.69   18.96
  -2  -5   1  136.77   18.13
   2  -5  -1  143.76   17.70
  -2   5  -1  163.50   19.45
  -2  -5  -1  122.91   18.34
   2   5  -1  131.35   17.67
  -2   5   1  124.96   19.97
   2  -5   1   86.74   17.97
   2  -5   1  150.98   18.91
   2  -7  -1   42.25   14.17
  -2  -7   1   23.59   11.40
  -2  -7   1   21.93   12.84
   2  -7  -1   40.69   14.30
   2  -7   1   36.54   15.19
  -2  -7  -1   14.63   14.76
  -2   7   1    0.16   14.92
  -2  -7  -1   10.67   12.77
  -2  -7  -1   26.24   12.79
   3   0  -1  253.67   25.70
   3   0   1  192.52   26.90
   3   0   1  236.03   25.43
  -3   0  -1  199.33   25.76
   3   0   1  230.96   25.20
   3   0  -1  231.59   25.43
  -3   0   1  228.73   25.44
   3   0   1  220.58   25.72
   3   0  -1  191.72   26.80
  -3   0  -1  235.26   27.08
  -3   0   1  253.66   25.59
   3  -2  -1   67.85   11.45
   3  -2  -1   91.45   10.77
  -3  -2   1   94.61   12.99
  -3  -2   1   89.68   11.21
  -3  -2   1   78.38   10.25
  -3   2  -1   85.91   11.56
   3  -2  -1   62.08   11.48
   3  -2  -1   87.20   10.02
   3   2   1   89.71   11.82
  -3   2  -1   72.28   10.67
   3  -2   1   82.70   12.77
  -3  -2  -1   88.27    9.41
   3   2  -1   67.33   11.53
   3  -2   1   75.27   11.29
  -3  -2  -1   88.95   11.54
   3   2  -1   91.53   10.49
  -3  -2  -1   77.32    9.29
  -3   2   1   95.12   10.20
  -3   2   1   77.95   11.48
  -3  -2  -1   70.56   11.66
   3   2  -1   72.97   11.18
   3   4   1   22.84    7.92
  -3  -4   1   35.87    8.42
  -3   4  -1   20.82    6.75
   3  -4  -1   38.36    8.19
  -3  -4   1   27.07    6.79
   3  -4   1   15.83    7.07
  -3   4   1   24.65    7.70
  -3  -4  -1   20.24    7.81
   3   4  -1   21.55    6.29
  -3  -4  -1   24.49    7.51
   3  -4   1   27.02    7.60
   3  -6  -1    5.55    9.56
  -3   6  -1   -1.24   10.92
   3  -6  -1    3.35    9.62
  -3  -6   1   -1.72    9.02
  -3   6   1   -5.20   11.14
   3  -6   1  -18.22   10.04
  -3  -6  -1   11.65    8.13
  -3  -6  -1    0.64    9.66
   3   6  -1   -2.29   10.37
  -4  -1   1  248.48   34.25
  -4   1  -1  283.61   34.28
   4  -1  -1  307.23   34.72
   4   1   1  321.67   35.12
  -4  -1   1  307.86   32.34
   4   1   1  299.54   33.23
   4  -1  -1  277.28   32.23
  -4   1   1  222.74   32.19
  -4  -1  -1  313.44   34.71
   4   1  -1  329.20   32.55
  -4  -1  -1  266.57   32.98
  -4   1   1  315.84   34.81
   4   1  -1  283.69   32.89
   4   1  -1  332.43   35.02
   4  -1   1  297.16   32.80
   4  -1   1  226.20   32.99
  -4   3  -1  206.80   23.50
   4  -3  -1  191.78   22.52
  -4   3  -1  204.17   23.18
  -4  -3   1  185.35   22.90
   4   3   1  180.36   23.31
   4  -3  -1  176.19   21.26
  -4  -3   1  134.10   21.33
   4  -3   1  173.28   21.87
   4   3  -1  149.82   22.05
   4  -3   1  164.89   23.13
   4   3  -1  161.38   21.46
  -4  -3  -1  177.31   23.32
  -4   3   1  163.53   21.41
  -4  -3  -1  200.61   20.31
  -4   3   1  214.78   23.90
  -4  -3  -1  195.81   20.45
  -4   5  -1   46.35   11.46
   4  -5  -1   55.94   10.44
   4   5   1   63.65   13.56
  -4  -5   1   63.17   11.55
   4  -5  -1   54.01   11.87
  -4  -5  -1   53.32    8.74
   4   5  -1   39.44   10.12
  -4   5   1   32.96   11.90
  -4  -5  -1   60.27   12.43
   4  -5   1   37.92   12.10
   4  -7  -1   18.35   16.11
  -4  -7   1   12.09   15.13
  -4  -7  -1    3.49   16.55
   4  -7   1   -4.44   18.72
  -4   7   1    0.50   18.19
   4  -7   1    8.91   16.56
  -5   0   1   48.23    8.43
   5   0   1   32.38    8.02
  -5   0   1   44.58    8.54
   5   0   1   36.42    6.39
   5   0  -1   46.24    6.81
  -5   0  -1   39.38    8.12
   5   0   1   45.17    6.42
   5   0  -1   32.19    7.48
   5  -2  -1   42.27    7.58
  -5   2  -1   37.28    8.45
   5   2   1   41.55    9.96
  -5  -2   1   44.92    9.25
   5  -2  -1   65.32    8.33
  -5  -2   1   40.89    6.93
   5   2  -1   49.43    7.02
   5  -2   1   33.42    8.26
   5   2  -1   45.62   10.31
   5  -2   1   51.94    8.07
  -5   2   1   42.13    9.17
  -5  -2  -1   47.83    9.45
  -5   2   1   36.67    8.74
  -5   4  -1   19.93    8.91
   5  -4  -1   14.21    6.44
  -5  -4   1    0.73    6.45
   5   4   1   13.52   10.59
   5  -4  -1   15.79    7.80
  -5  -4  -1    7.69    3.19
   5  -4   1   21.10    8.29
   5   4  -1   15.37    9.42
  -5  -4  -1   16.64    7.57
  -5   4   1   10.54    8.57
  -5  -4  -1   11.37    3.40
  -5   6  -1   23.98   15.61
   5  -6  -1   14.99   13.62
  -5  -6  -1   -0.40   12.86
   5  -6   1  -18.43   14.59
   5  -6   1   34.34   15.48
  -6  -1   1  270.27   30.08
   6  -1  -1  224.34   28.80
  -6   1  -1  263.49   29.66
   6  -1  -1  261.63   27.71
   6  -1  -1  197.27   27.32
   6   1   1  237.06   28.58
   6  -1   1  262.03   27.36
   6   1  -1  213.35   26.91
  -6   1   1  201.06   29.41
   6  -1   1  261.36   28.80
  -6  -1  -1  176.29   29.37
   6   1  -1  223.63   28.22
   6  -3  -1  123.21   18.11
  -6   3  -1  119.30   19.75
   6   3   1  185.93   23.39
   6  -3  -1  145.10   18.04
  -6  -3   1  147.24   19.84
   6   3  -1  110.24   15.82
   6  -3   1  106.79   17.80
  -6   3   1  127.34   20.22
  -6  -3  -1  144.97   20.28
   6  -3   1  122.17   18.85
   6   3  -1  203.48   22.45
   6   5   1   62.38   18.33
   6  -5  -1   57.61   14.95
  -6   5  -1   38.04   16.40
   6  -5   1   46.54   14.32
   6   5  -1   64.74   17.69
   6  -5   1   39.06   15.24
  -6  -5  -1   47.47   14.10
  -7   0   1    9.03    7.91
  -7   0  -1    1.53    7.78
   7   0  -1   20.53    9.32
   7   0   1   10.58    4.61
   7   0   1   19.03    8.83
   7   0  -1    3.27    5.33
   7   2   1   -4.49    9.71
  -7   2  -1  -12.34    7.94
  -7  -2   1   -0.76    7.78
   7  -2  -1    8.98    7.32
   7  -2  -1    6.04    6.95
   7  -2   1   15.47    9.71
   7  -2   1    7.26    7.06
  -7   2   1   -6.90    7.74
  -7  -2  -1    8.32    7.60
   7   2  -1    3.68   10.14
   7  -4  -1   -8.69   10.55
   7  -4  -1   -3.29   10.19
  -7   4  -1    5.38   13.61
  -7  -4   1    4.43    9.99
   7   4   1  -11.01   13.97
  -7  -4  -1   -4.18    9.61
   7  -4   1    0.60   13.17
  -7   4   1    9.61   12.04
   7   4  -1   14.16   15.36
   8  -1  -1  114.55   17.92
  -8  -1   1  157.07   22.07
  -8   1  -1  123.63   21.31
   8  -1  -1  154.56   21.04
   8  -1   1  112.03   17.66
   8   1  -1  141.11   21.14
   8  -1   1  149.80   20.46
  -8   1   1   97.59   19.88
  -8  -1  -1   92.53   19.91
  -8   3  -1   68.52   16.62
   8  -3  -1   68.27   15.56
   8   3   1   77.48   20.95
   8  -3  -1   82.65   16.30
  -8  -3   1   86.36   16.85
   8  -3   1   65.65   18.11
   8   3  -1  118.28   21.02
  -8  -3  -1   73.45   16.26
  -8   3   1   78.54   17.19
   8  -3   1   78.87   16.12
  -9   0   1   65.92   16.66
  -9   0  -1   26.76   15.29
   9   0  -1   55.35   16.76
   9   0   1   64.44   17.35
  -9   2  -1    7.60   14.34
  -9  -2   1   62.31   15.89
   9   2   1   51.48   19.66
   9  -2  -1   73.89   17.43
   9  -2  -1   53.80   16.00
  -9   2   1   30.11   16.25
  -9  -2  -1   17.59   14.73
   9   2  -1   53.62   18.29
   9  -2   1   57.30   17.14
   0   0  -2  239.18   27.64
   0   0   2  240.86   29.17
   0   0   2  281.86   28.27
   0   0  -2  250.92   29.13
   0   0   2  247.97   27.62
   0   0  -2  256.81   28.24
   0   2  -2   65.91    8.37
   0  -2  -2   59.07    7.22
   0  -2   2   58.41    7.96
   0   2   2   65.65    9.40
   0  -2   2   45.45    8.22
   0  -2   2   55.99    7.01
   0  -2  -2   66.89    7.76
   0  -2   2   56.38    7.20
   0   2   2   73.41    7.69
   0  -2  -2   51.47    9.31
   0  -4  -2  105.44   12.91
   0   4   2   86.80   14.01
   0   4  -2   93.35   13.79
   0  -4   2   82.34   13.01
   0  -4   2   86.52   13.10
   0  -4   2  102.73   12.41
   0  -4  -2   81.98   12.71
   0  -6   2   10.35    8.22
   0  -6  -2   11.10    8.05
   0  -6  -2    7.96    7.07
   0  -6   2    2.43    6.62
   0   6  -2   10.31    9.82
  -1  -1   2  184.61   21.34
   1  -1  -2  203.13   21.19
  -1   1  -2  177.09   21.19
   1   1   2  193.57   20.83
  -1   1  -2  193.34   20.85
  -1  -1   2  189.18   21.08
  -1   1  -2  196.24   21.20
  -1  -1   2  198.19   21.11
   1   1   2  154.61   20.62
  -1  -1  -2  170.62   20.58
   1  -1   2  202.44   20.93
  -1   1   2  167.89   21.00
   1   1  -2  159.67   21.28
   1  -1   2  170.75   21.08
  -1  -1  -2  203.81   22.39
  -1   1   2  190.65   22.16
   1   1  -2  180.90   21.16
  -1  -1  -2  192.46   20.70
   1  -1   2  197.56   21.22
   1  -3  -2   79.87   14.77
  -1   3  -2   95.37   13.55
   1  -3  -2  108.40   13.15
  -1  -3   2   94.38   13.10
  -1  -3   2   81.08   13.56
   1  -3  -2   96.01   14.67
  -1  -3   2  128.75   12.75
  -1   3  -2  108.87   12.83
   1  -3  -2  106.45   12.03
  -1   3  -2   73.71   13.35
   1  -3  -2  113.14   12.17
  -1  -3   2   73.68   14.15
   1   3  -2  117.02   13.62
   1  -3   2   98.68   12.53
  -1  -3  -2  100.96   15.86
  -1   3   2  113.84   14.78
  -1  -3  -2   75.88   12.65
   1  -3   2  103.97   13.56
  -1  -3  -2   93.90   13.31
   1  -3   2  127.04   15.41
  -1  -5   2   44.02    7.66
   1  -5  -2   47.15    9.23
   1  -5  -2   15.19    9.53
   1  -5  -2   46.60    8.17
  -1  -5   2   27.91    9.76
  -1   5  -2   25.75    8.80
  -1  -5   2   35.99    8.57
  -1   5   2   41.39   10.00
   1  -5   2   38.78    9.00
  -1  -5  -2   28.45    7.22
   1  -5   2   48.92    8.76
   1   5  -2   21.63    8.33
  -1  -7   2   11.92   11.69
   1  -7  -2   14.28   12.68
   1  -7  -2    7.14   12.17
   1  -7   2   -4.09   12.15
  -1  -7  -2   -0.22   11.53
  -1  -7  -2    9.62   11.71
   1   7  -2   -2.97   12.75
   2   0   2  319.59   40.13
  -2   0  -2  415.59   42.16
   2   0   2  389.99   40.29
  -2   0  -2  338.37   40.22
  -2   0   2  368.93   40.52
   2   0   2  394.24   42.03
   2   0  -2  369.96   40.55
   2   0  -2  368.83   39.84
  -2   0  -2  296.55   40.00
  -2   0   2  373.91   42.10
  -2   2  -2  369.76   49.55
  -2   2  -2  477.55   51.58
  -2   2  -2  448.45   50.77
   2  -2  -2  444.27   50.40
   2  -2  -2  462.53   48.61
  -2  -2   2  472.18   50.34
  -2  -2   2  445.18   51.65
  -2  -2   2  369.96   50.23
   2  -2   2  376.48   50.58
   2  -2   2  497.42   51.55
   2   2  -2  415.68   51.70
  -2  -2  -2  485.89   49.62
  -2   2   2  483.91   52.73
  -2  -2  -2  463.88   52.42
  -2  -2  -2  501.49   49.83
  -2  -2  -2  418.06   53.05
   2   2  -2  455.20   50.36
  -2   4  -2  149.34   17.14
   2  -4  -2  148.25   15.52
  -2  -4   2  136.40   16.18
   2   4   2  127.90   17.13
  -2  -4   2  128.17   19.81
   2  -4  -2   95.90   15.61
   2  -4  -2  147.04   17.14
  -2   4  -2  124.91   17.02
  -2  -4  -2  109.51   16.94
  -2   4   2  120.38   18.11
   2  -4   2  154.23   17.07
  -2  -4  -2  112.44   17.31
   2  -4   2   88.66   15.94
  -2  -4  -2  119.31   15.39
   2   4  -2  111.19   16.55
   2  -6  -2   81.36   14.78
  -2  -6   2   66.34   12.37
  -2  -6   2   61.85   13.21
   2  -6  -2   61.24   12.38
  -2  -6  -2   73.95   12.15
   2  -6   2   74.09   14.16
  -2  -6  -2   61.96   13.54
   2   6  -2   51.71   13.93
  -2   6   2   43.37   14.24
   3  -1  -2  137.15   15.67
   3   1   2  152.92   17.27
  -3   1  -2  112.47   16.49
  -3   1  -2  150.54   17.10
   3   1   2  111.59   17.57
  -3  -1   2  128.30   17.01
  -3   1  -2  158.49   16.56
  -3  -1   2  148.77   16.44
   3  -1   2  137.16   17.19
   3   1  -2  122.45   17.21
  -3  -1  -2  120.43   17.27
  -3   1   2  149.43   17.66
   3   1  -2  144.82   16.90
   3  -1   2  123.76   16.59
   3   1  -2  165.42   16.62
   3  -1   2  182.04   17.36
  -3   1   2  133.18   16.65
  -3   1   2  154.36   15.78
  -3  -1  -2  100.10   16.58
  -3  -3   2   82.83   12.82
   3  -3  -2   78.26   12.29
  -3   3  -2  114.10   13.43
  -3  -3   2   88.29   12.25
   3  -3  -2   89.61   10.51
  -3   3  -2   82.28   12.47
   3   3   2   74.98   12.73
   3   3  -2   85.19   12.23
  -3   3   2   85.42   13.51
  -3  -3  -2  102.00   11.53
   3   3  -2  105.08   13.44
  -3  -3  -2   95.58   10.70
   3  -3   2   71.61   12.03
   3  -3   2   85.18   12.51
  -3  -3  -2   67.15   12.86
   3   3  -2   84.47   13.12
  -3  -5   2   36.83    8.26
   3  -5  -2   37.32    9.94
  -3   5  -2   28.70   10.17
  -3   5  -2   14.76    8.93
   3   5   2   26.98   10.27
   3  -5   2   38.32   10.72
  -3  -5  -2   46.39   10.48
  -3  -5  -2   22.03   12.75
  -3  -5  -2   41.70    7.80
   3  -5   2   34.86   10.32
  -3   5   2   30.91   11.13
   3   5  -2   40.76    9.17
   3  -7  -2  -28.08   13.82
  -3  -7   2    4.47   12.00
   3  -7   2    1.87   16.68
  -3  -7  -2   11.94   12.82
  -3   7   2   -0.37   16.27
  -3  -7  -2  -10.43   14.84
   4   0  -2  271.27   32.40
   4   0   2  287.30   30.23
  -4   0   2  276.54   32.46
   4   0   2  251.04   32.55
   4   0   2  234.76   30.79
  -4   0  -2  274.91   31.20
  -4   0   2  242.43   30.45
  -4   0  -2  303.66   32.40
  -4   2  -2  132.00   18.46
  -4  -2   2  172.18   17.89
   4  -2  -2  134.81   16.92
  -4   2  -2  160.66   19.06
  -4   2  -2  154.79   19.01
   4  -2  -2  137.03   17.92
  -4  -2   2  140.84   18.70
   4   2   2  169.10   19.58
  -4   2   2  153.86   19.69
   4   2  -2  141.39   17.95
   4   2  -2  140.23   19.91
   4  -2   2  119.92   18.98
   4  -2   2  166.40   18.59
   4   2  -2  147.65   18.65
  -4   2   2  136.18   17.19
   4  -2   2  173.53   20.46
  -4  -2  -2  143.34   19.37
   4  -4  -2  106.33   13.15
  -4  -4   2   95.65   15.75
   4  -4  -2  111.19   16.17
   4   4   2  111.93   17.20
  -4  -4   2  117.12   15.42
  -4   4  -2   82.40   14.67
  -4  -4  -2   91.67   13.40
   4  -4   2   98.58   15.31
  -4  -4  -2   96.78   16.08
   4   4  -2  104.55   14.94
  -4  -4  -2   95.90   12.94
  -4   4   2  108.75   17.01
  -4  -6   2   29.57   10.82
  -4   6  -2    1.61   12.65
  -4  -6   2   -2.17   11.23
   4  -6  -2   24.19   12.72
  -4   6   2   -9.88   13.95
   4   6  -2   10.62   11.84
   4  -6   2   -1.09   13.58
  -4  -6  -2   28.44   13.33
  -5  -1   2   65.00   10.08
   5  -1  -2   84.20   10.48
   5   1   2   85.10   12.41
  -5   1  -2   73.58   11.55
  -5  -1   2   70.28   11.98
   5  -1  -2   66.87   10.42
  -5  -1  -2   57.62   11.32
  -5   1   2   82.15   12.48
  -5   1   2   54.20   10.48
   5  -1   2   61.38   10.86
   5  -1   2   79.85   12.28
   5   1  -2   74.10   11.51
   5  -3  -2   56.74    9.78
   5   3   2   48.58   11.69
   5  -3  -2   58.75    8.55
  -5  -3   2   36.77    9.34
  -5  -3   2   41.49    9.38
  -5   3  -2   63.10   10.85
   5  -3   2   65.19   11.22
  -5  -3  -2   39.10   10.10
  -5   3   2   69.10   11.39
  -5   3   2   50.45    8.70
   5   3  -2   46.10    9.05
   5   3  -2   61.21   11.69
   5   5   2   18.78   13.49
   5  -5  -2   15.84   10.20
  -5  -5   2   37.83    9.14
  -5   5  -2   22.81   11.31
  -5  -5  -2   24.36   10.28
   5  -5   2   10.13   11.89
  -5   5   2   32.21   11.52
   5   5  -2    9.30    8.98
  -6   0   2   94.24   16.54
   6   0   2  124.74   16.85
   6   0  -2  136.99   15.46
   6   0   2  102.92   13.11
   6   0  -2  102.31   14.40
   6   0   2   91.71   13.88
  -6   0  -2  119.37   16.53
   6  -2  -2  107.74   15.75
  -6   2  -2  129.73   17.86
  -6  -2   2  115.44   17.28
  -6  -2   2  122.58   17.22
   6   2   2  114.86   18.02
   6  -2  -2  104.24   15.67
  -6   2   2  140.26   18.50
  -6   2   2  116.75   17.09
   6  -2   2  115.19   15.74
   6  -2   2  119.80   18.00
  -6  -2  -2   94.95   17.23
   6   2  -2  107.71   17.50
  -6   4  -2   54.84   14.04
   6  -4  -2   71.65   13.81
   6   4   2   59.49   16.40
  -6  -4   2   70.66   13.29
   6  -4   2   53.87   14.33
   6  -4   2   36.97   12.97
   6   4  -2   60.58   15.86
   6   4  -2   76.48   11.63
  -6   4   2   50.74   14.55
   6   6   2   42.01   20.03
  -6  -6   2   28.95   17.21
   6  -6  -2   58.25   17.64
   6  -6   2   78.66   22.25
  -6   6   2   -5.65   18.88
   6  -6   2   36.20   17.76
  -6  -6  -2   20.15   16.42
   7   1   2   90.36   17.03
  -7  -1   2  117.22   18.16
  -7   1  -2  116.28   17.49
   7  -1  -2  126.92   16.40
   7  -1  -2  140.76   17.55
   7  -1   2  128.94   18.38
  -7  -1  -2   77.33   16.56
   7  -1   2   81.78   14.20
   7   1  -2   89.58   14.50
  -7   1   2  113.82   18.15
   7   1  -2  127.54   18.30
  -7  -3   2   71.64   14.51
   7  -3  -2   62.53   12.62
   7   3   2   94.93   17.00
   7  -3  -2   70.91   12.57
  -7   3  -2   47.75   14.11
   7  -3   2   67.71   13.77
  -7  -3  -2   68.47   14.20
   7  -3   2   70.19   15.82
  -7  -5   2   18.68   14.64
   7  -5  -2   24.25   15.98
   7   5   2   28.10   19.89
  -7   5  -2    4.32   18.45
  -7   5   2   59.84   20.44
   7  -5   2   23.09   16.47
  -7  -5  -2  -10.73   13.65
   8   0   2  141.57   19.72
  -8   0  -2   65.50   16.41
   8   0  -2   82.97   14.39
   8   0  -2  102.44   18.32
  -8   0   2  101.15   17.98
   8   2   2  104.68   18.77
   8  -2  -2   81.70   15.78
  -8   2  -2   51.91   15.65
   8  -2  -2   55.25   14.49
  -8  -2   2   87.06   16.84
   8  -2   2   78.88   18.02
  -8  -2  -2   66.49   15.32
   8  -2   2   88.57   14.61
  -8   2   2   56.65   15.75
   8   2  -2   94.84   19.17
  -8  -4   2   47.47   16.69
  -8   4  -2   39.16   18.64
   8   4   2   36.77   19.12
   8  -4  -2   52.44   15.34
   8  -4   2   57.92   21.86
   8  -4   2   18.49   16.29
   8   4  -2   22.87   20.85
  -8  -4  -2    3.68   14.30
  -8   4   2   62.86   20.78
  -9  -1   2   26.30   14.99
   9   1   2   37.92   17.50
  -9   1  -2   14.17   14.46
   9  -1  -2    5.68   16.34
   9   1  -2    5.17   17.61
  -9  -1  -2   13.08   12.99
  -9   1   2    6.14   14.53
   9  -1   2   58.95   18.39
  -9   3  -2   -6.95   16.74
   9   3   2  -16.51   21.03
   9  -3  -2   25.08   16.02
  -9  -3   2   22.03   15.05
  -9  -3  -2    6.96   15.01
  -9   3   2   18.81   16.44
   9   3  -2    0.14   20.71
   9  -3   2  -10.83   21.71
   0  -1  -3  503.14   52.11
   0   1   3  491.21   54.53
   0  -1   3  485.63   53.31
   0   1   3  416.84   52.01
   0   1  -3  501.77   53.22
   0  -1   3  385.97   52.15
   0  -1  -3  539.38   51.04
   0  -1  -3  447.87   54.35
   0   1  -3  410.77   52.31
   0  -1   3  485.42   51.52
   0   3   3  241.86   27.35
   0  -3  -3  223.67   27.78
   0  -3  -3  236.19   30.73
   0  -3   3  246.45   27.46
   0   3  -3  243.07   28.86
   0   3   3  222.91   29.84
   0  -3   3  257.94   28.94
   0  -3  -3  243.37   27.12
   0  -3  -3  197.32   28.92
   0  -3   3  228.41   27.80
   0  -3   3  265.97   27.47
   0  -5  -3   62.07   11.67
   0  -5  -3   65.82   10.54
   0  -5   3   68.77    9.96
   0   5   3   61.28   12.86
   0  -5   3   67.49   12.15
   0   5  -3   74.53   13.07
   0  -5  -3   78.91   12.90
   0  -5   3   66.12   10.11
   0  -7  -3    9.92   12.74
   0  -7  -3   15.37   12.23
   0   7  -3    0.54   13.70
   0  -7   3   17.60   13.09
  -1   0  -3  352.84   40.61
  -1   0   3  384.46   39.81
  -1   0   3  305.83   40.65
   1   0   3  366.83   40.13
  -1   0   3  351.97   42.06
  -1   0  -3  402.10   42.26
   1   0  -3  354.82   40.71
   1   0  -3  370.76   41.99
   1   0   3  384.19   40.59
   1   2   3  294.73   33.63
   1  -2  -3  311.85   32.35
  -1   2  -3  325.57   34.53
   1   2   3  337.92   33.37
  -1  -2   3  338.94   34.25
  -1  -2   3  240.12   33.94
   1  -2  -3  247.70   35.66
   1   2   3  334.15   36.06
  -1   2  -3  302.07   33.90
  -1  -2   3  299.70   33.58
   1  -2  -3  323.07   34.04
  -1  -2  -3  256.90   33.07
  -1   2   3  320.39   36.09
   1   2  -3  289.60   34.24
   1  -2   3  336.26   33.93
  -1  -2  -3  252.45   35.98
  -1  -2  -3  306.90   33.55
   1  -2   3  243.27   34.05
  -1   2   3  292.13   34.19
   1  -4  -3   98.56   14.60
  -1   4  -3  141.26   16.57
  -1  -4   3   94.86   14.45
  -1  -4   3   94.49   13.65
  -1  -4   3  107.91   15.04
   1   4   3  104.17   14.96
   1  -4  -3  118.45   13.64
   1  -4  -3   78.08   13.60
  -1   4   3  125.73   17.17
  -1  -4  -3  121.07   14.34
   1   4  -3  120.91   16.18
  -1  -4  -3  109.85   15.62
   1  -4   3  124.20   15.33
  -1  -4  -3  115.36   16.64
   1  -6  -3   30.63   10.28
  -1  -6   3   35.33    8.98
   1  -6  -3   36.93    9.47
  -1  -6   3   43.93   10.47
  -1   6   3   44.21   13.28
  -1  -6  -3   31.34   10.01
   1  -6   3   26.07   11.08
   1  -6   3   37.26    8.05
  -1  -6  -3   20.31    8.70
   1   6  -3   24.14   10.81
  -2   1  -3  108.96   12.37
  -2   1  -3   74.37   12.53
  -2   1  -3  102.34   12.53
  -2  -1   3   89.97   13.15
  -2  -1   3   97.46   12.68
   2  -1  -3   86.87   13.31
  -2  -1   3   80.19   12.34
   2   1   3  115.93   11.75
  -2   1   3  107.91   11.11
   2   1  -3  109.16   12.65
  -2  -1  -3   97.93   13.28
   2  -1   3  112.91   12.44
  -2  -1  -3   91.34   11.69
   2   1  -3  115.86   12.71
  -2   1   3  106.14   11.07
  -2   1   3   82.48   12.43
  -2  -1  -3  107.93   14.44
   2  -1   3   85.31   12.41
  -2  -3   3   35.56    7.31
  -2   3  -3   27.53    7.20
   2  -3  -3   29.46    4.21
   2  -3  -3   32.60    4.18
   2   3   3   33.34    7.08
  -2  -3   3   23.19    7.63
  -2   3  -3   33.23    5.44
   2  -3  -3   35.99    6.66
  -2  -3   3   42.61    5.99
  -2   3   3   30.91    7.79
  -2  -3  -3   26.97    5.25
  -2  -3  -3   28.96    7.63
  -2  -3  -3   38.18    6.63
   2   3  -3   24.08    7.07
   2  -3   3   29.79    5.13
   2  -3   3   23.85    6.95
  -2  -5   3   17.99    7.69
   2  -5  -3    3.95    6.71
  -2  -5   3    8.44    5.75
   2   5   3   12.42    7.48
   2  -5  -3   -3.09    6.29
  -2   5  -3    5.02    5.37
  -2   5  -3   -1.94    7.56
   2  -5  -3   -4.92    6.53
  -2  -5   3    2.43    9.98
  -2  -5  -3   11.11    5.71
  -2   5   3   -0.11    8.89
   2   5  -3   12.01    8.97
  -2  -5  -3    5.60    8.03
   2  -5   3   15.19    8.55
   2  -5   3   16.67    5.81
  -2  -7   3  -10.12   11.16
   2  -7  -3   14.35   14.33
   2  -7   3  -13.21   14.88
  -2  -7  -3   12.27   15.62
  -2  -7  -3   29.09   11.98
  -2  -7  -3   -8.77   14.23
  -2   7   3   15.41   16.26
   2   7  -3   15.09   14.58
   3   0   3  256.36   33.78
  -3   0  -3  303.76   32.14
   3   0   3  293.70   32.10
  -3   0   3  239.55   32.45
  -3   0   3  311.53   31.91
   3   0   3  341.28   32.88
  -3   0  -3  222.24   32.31
   3   0  -3  303.04   31.92
  -3   0   3  304.96   34.05
  -3  -2   3  169.50   20.62
  -3   2  -3  165.64   18.59
  -3   2  -3  180.29   19.38
   3  -2  -3  148.00   18.40
   3   2   3  149.82   18.67
  -3   2  -3  149.92   18.53
   3  -2   3  155.24   18.63
   3   2  -3  147.69   18.51
  -3  -2  -3  156.54   16.99
   3   2  -3  130.39   18.98
   3  -2   3  106.68   18.78
  -3  -2  -3  152.49   18.42
   3  -2   3  154.73   18.76
  -3  -2  -3  134.86   19.25
  -3  -2  -3  146.62   16.87
  -3   2   3  151.05   19.74
   3  -4  -3   89.06   11.50
   3   4   3   82.42   15.29
  -3  -4   3  128.43   14.23
   3  -4  -3  106.49   15.42
   3  -4  -3   87.79   11.73
  -3   4  -3   88.94   15.15
  -3  -4  -3  118.02   16.47
   3   4  -3  109.33   15.82
  -3  -4  -3   98.69   14.58
  -3   4   3   98.68   16.64
   3  -4   3  125.85   16.86
   3  -4   3  107.37   14.47
   3  -6  -3   33.87   12.58
  -3  -6   3   38.13   10.87
  -3   6  -3   20.45   11.22
  -3  -6   3   37.38   10.10
   3   6  -3    4.06   11.39
   3  -6   3    3.66   13.48
  -3  -6  -3   42.69    9.52
  -3   6   3   20.67   13.43
  -4  -1   3  195.41   24.32
  -4  -1   3  153.39   23.58
   4   1   3  203.32   23.85
  -4   1  -3  225.95   24.11
   4  -1  -3  215.14   23.51
   4  -1  -3  190.73   21.97
  -4  -1   3  183.16   23.08
  -4   1   3  201.04   23.40
   4   1  -3  202.14   23.05
  -4   1   3  183.48   24.49
   4  -1   3  217.43   24.01
   4  -1   3  167.08   23.02
  -4   1   3  169.79   22.07
   4   1  -3  218.53   22.99
   4   1  -3  221.23   25.26
  -4  -1  -3  203.11   24.32
   4  -1   3  159.58   24.70
   4  -3  -3  115.41   15.30
   4   3   3  100.58   16.54
  -4  -3   3  118.53   15.85
  -4   3  -3  119.91   16.16
  -4   3  -3  137.86   15.61
   4  -3  -3  115.97   12.36
  -4  -3   3  110.19   15.64
   4  -3   3  107.81   16.27
  -4  -3  -3  105.67   16.82
   4   3  -3   88.00   15.06
   4  -3   3   98.65   15.85
  -4   3   3   80.87   16.54
  -4  -5   3   34.44   10.03
   4  -5  -3   44.21   11.46
  -4   5  -3   48.76   12.91
   4   5   3   34.52   11.32
  -4   5  -3   18.28    9.73
  -4  -5  -3   29.92    8.51
   4  -5   3   26.08   12.37
  -4   5   3   10.94   10.71
  -4  -5  -3   38.56   11.58
   4   5  -3   37.20   11.63
   4  -7  -3   39.27   19.03
  -4  -7   3   17.03   13.40
   4   7  -3    6.61   17.91
  -4  -7  -3   24.02   16.86
  -4   7   3   35.51   20.05
   4  -7   3   32.81   21.24
  -5   0   3  161.37   23.22
   5   0  -3  178.78   21.75
   5   0   3  162.98   22.84
  -5   0   3  209.42   22.76
  -5   0  -3  178.27   22.99
   5   0  -3  182.41   21.81
  -5  -2   3  182.04   23.75
   5  -2  -3  189.16   21.21
   5  -2  -3  182.32   22.61
  -5   2  -3  187.71   23.41
   5   2   3  223.73   24.17
  -5  -2   3  158.11   23.10
  -5   2   3  171.24   21.61
   5  -2   3  190.08   23.81
  -5  -2  -3  135.52   23.56
  -5   2   3  194.45   25.00
   5   2  -3  199.93   22.96
   5   2  -3  205.54   23.52
   5   4   3   77.13   15.75
  -5  -4   3   58.31   11.49
   5  -4  -3   69.90   12.74
  -5   4  -3   61.27   11.79
   5  -4   3   47.32   12.41
  -5  -4  -3   58.07   13.21
  -5   4   3   39.15   12.94
   5   4  -3   60.87   11.41
  -5  -6   3   38.99   13.61
  -5  -6   3   19.72   14.48
   5   6   3   17.28   18.57
   5  -6  -3   27.96   14.84
  -5   6   3    6.22   17.54
   5  -6   3   38.12   17.44
  -5  -6  -3   -0.94   13.86
   6  -1  -3   66.66   11.11
  -6  -1   3   57.62   12.22
   6   1   3   71.85   13.18
  -6  -1   3   66.87   12.71
  -6   1  -3   50.76   11.68
   6  -1  -3   81.08   11.84
   6  -1   3   84.29   14.64
   6  -1   3   45.87   11.82
   6   1  -3   83.45   13.11
  -6   1   3   77.37   12.80
   6  -1   3   72.89   10.06
  -6   1   3   59.90   12.76
   6   1  -3   64.39   10.81
  -6  -1  -3   61.07   11.96
  -6  -3   3   43.36    9.71
   6  -3  -3   27.98    7.31
   6  -3  -3   29.70    9.46
  -6   3  -3   29.89   10.16
   6   3   3   40.35   12.60
  -6  -3  -3   44.22   11.46
   6  -3   3   37.51   12.54
  -6   3   3   52.41   12.37
   6   3  -3   55.85   12.31
   6   3  -3   22.55    8.72
   6   5   3   49.09   17.31
  -6  -5   3   -9.75   12.36
  -6   5  -3   -7.99   13.10
   6  -5  -3    0.57   12.38
  -6   5   3   38.98   17.74
  -6  -5  -3    1.70   13.38
  -7   0  -3  112.34   19.52
   7   0  -3  145.84   19.23
   7   0   3  114.72   14.74
   7   0  -3  119.43   17.62
   7   0   3  184.87   22.98
  -7   0   3  128.25   20.55
   7   2   3  102.05   18.07
   7  -2  -3   77.62   14.35
  -7   2  -3   79.53   16.19
   7  -2  -3   74.96   14.33
  -7  -2   3  109.69   16.98
   7   2  -3   89.73   14.41
   7  -2   3   87.70   18.27
   7   2  -3  135.21   18.31
   7  -2   3   75.50   13.81
  -7  -2  -3   97.79   16.96
  -7   2   3  107.64   17.59
   7   4   3   35.92   18.49
  -7   4  -3   49.54   16.35
   7  -4  -3   46.02   14.18
  -7  -4   3   64.06   14.93
  -7   4   3   55.08   18.17
   7  -4   3   60.65   15.09
  -7  -4  -3   45.29   13.94
   8  -1  -3   45.47   13.19
  -8  -1   3   61.80   16.60
   8   1   3   92.45   18.17
   8  -1  -3   86.30   16.18
  -8   1  -3   58.90   14.50
  -8  -1  -3   40.58   14.67
  -8   1   3   44.70   15.04
   8   1  -3   84.83   13.13
   8   1  -3   78.48   17.76
   8  -1   3   83.09   18.60
  -8   3  -3    3.28   13.81
   8   3   3   46.61   16.69
   8  -3  -3   19.86   13.46
  -8  -3   3   44.49   14.14
   8  -3   3   61.33   20.24
   8  -3   3   19.71   13.64
   8   3  -3   35.99   17.99
  -8   3   3   49.51   16.36
  -8  -3  -3   40.88   13.17
  -9   0  -3   31.65   14.16
   9   0   3   72.65   19.30
  -9   0   3   35.14   15.80
   9   0  -3   76.58   20.13
   9   2   3   77.94   23.22
  -9   2  -3   44.46   16.98
   9  -2  -3   58.47   17.25
  -9  -2   3   80.33   19.80
  -9   2   3   60.90   17.34
  -9  -2  -3   50.33   16.92
   9   2  -3   86.94   21.76
   9  -2   3   47.66   24.10
   0   0  -4    8.31    2.98
   0   0   4    2.37    2.75
   0   0  -4    5.69    2.74
   0   0   4    8.08    3.17
   0   0  -4    1.03    3.02
   0   0   4    4.11    2.41
   0   2  -4    8.68    5.05
   0  -2  -4    7.34    3.40
   0   2  -4   13.29    4.73
   0  -2   4   10.27    5.14
   0  -2  -4   14.50    2.94
   0   2   4   11.94    4.25
   0   2   4    7.34    5.08
   0  -2   4   11.53    4.46
   0  -2  -4    8.66    6.29
   0   2   4    8.77    3.00
   0   4  -4   -0.09    6.66
   0  -4   4    0.66    5.11
   0  -4  -4   -2.79    5.78
   0  -4  -4   -2.89    4.11
   0   4   4   -4.86    6.35
   0  -6  -4   13.01    8.78
   0  -6  -4    7.77    8.10
  -1  -1   4  525.75   60.81
  -1  -1   4  565.85   58.45
   1   1   4  501.73   59.02
  -1  -1   4  466.08   59.40
   1  -1  -4  580.56   57.73
  -1   1  -4  471.54   58.49
  -1   1  -4  604.57   60.65
   1  -1  -4  542.87   59.55
   1   1   4  554.12   62.31
   1   1   4  583.47   58.38
  -1   1  -4  554.90   59.89
  -1   1  -4  568.06   60.85
   1   1  -4  566.98   59.90
  -1  -1  -4  513.41   61.99
  -1  -1  -4  538.75   59.02
  -1   1   4  443.45   59.26
   1  -1   4  458.25   59.30
  -1   1   4  532.89   57.67
   1   1  -4  535.00   60.67
  -1  -1  -4  498.26   58.12
  -1  -3   4  231.05   25.30
  -1  -3   4  252.45   26.39
   1  -3  -4  229.51   24.26
  -1   3  -4  216.49   27.10
   1  -3  -4  232.89   26.15
   1   3   4  228.59   28.31
   1   3   4  214.83   25.43
  -1  -3  -4  168.36   25.28
  -1   3   4  203.98   28.60
   1  -3   4  199.03   26.11
  -1  -3  -4  242.92   25.74
   1   3  -4  201.59   26.81
  -1  -5   4   90.02   13.54
  -1   5  -4   58.31   13.64
  -1  -5   4   64.87    9.28
   1  -5  -4   48.20   11.39
   1  -5  -4   70.77   12.00
   1   5  -4   71.16   13.66
   1  -5   4   65.11   13.09
  -1  -5  -4   73.61   11.45
  -1   5   4   50.12   13.57
  -1   7  -4   15.49   14.97
   1  -7  -4   31.87   13.75
  -1  -7   4    4.12   13.21
  -1  -7  -4   12.96   12.72
  -1  -7  -4   24.91   14.58
   1   7  -4   -2.81   14.77
   1  -7   4   34.96   14.95
  -2   0   4   81.01   12.84
   2   0   4   84.38   12.24
   2   0  -4   76.42   13.03
  -2   0   4  134.83   13.31
   2   0  -4  122.06   12.84
  -2   0  -4   69.02   12.43
  -2   0   4  105.86   11.75
   2   0   4  128.00   13.19
  -2   0  -4   99.80   13.81
  -2   0  -4  100.43   12.50
  -2   0  -4  110.56   12.97
  -2   2  -4   66.19    7.65
  -2   2  -4   57.38    9.31
  -2  -2   4   51.58    9.34
   2   2   4   65.18    8.20
   2  -2  -4   43.30    8.56
  -2  -2   4   64.02    9.16
  -2  -2   4   67.77   10.99
   2  -2  -4   53.95   10.69
   2   2   4   62.22    9.09
  -2   2  -4   50.11    9.21
  -2  -2   4   48.45    8.06
   2  -2   4   63.92   10.13
  -2  -2  -4   75.82   12.16
  -2  -2  -4   52.16    9.08
   2   2  -4   53.14    9.23
   2   2  -4   62.56    8.39
  -2  -2  -4   44.30    7.42
   2  -2   4   54.27    9.50
  -2   2   4   60.80    9.54
  -2   2   4   35.96    9.19
  -2   4  -4   35.49    8.80
   2  -4  -4   33.05    7.64
  -2  -4   4   35.04    8.61
   2   4   4   21.17    8.05
  -2  -4   4   32.07    8.21
  -2  -4   4   33.06    6.02
   2  -4   4   28.98    4.40
   2   4  -4   45.27    9.09
  -2  -4  -4   24.27    6.29
  -2  -4  -4   16.46   10.15
  -2   4   4   26.11    9.86
   2  -4   4   24.01    8.32
  -2   6  -4    8.35   11.81
   2  -6  -4    5.44    9.28
  -2  -6   4   -1.89    9.49
  -2  -6  -4   -1.79    9.70
   2   6  -4   -2.25   11.59
  -2  -6  -4   11.99    7.99
  -3   1  -4  438.15   48.63
  -3  -1   4  388.69   48.72
   3  -1  -4  435.73   50.96
   3   1   4  480.33   47.89
  -3  -1   4  443.41   50.39
   3   1   4  454.92   48.63
   3  -1  -4  419.90   48.99
  -3   1   4  426.92   50.86
  -3   1   4  476.30   47.01
  -3  -1  -4  418.03   48.39
   3  -1   4  417.19   48.44
   3  -1   4  433.29   50.12
   3   1  -4  380.87   48.64
  -3  -1  -4  397.05   50.45
  -3   1   4  426.44   46.87
  -3   1   4  457.29   49.07
  -3  -1  -4  405.90   47.89
  -3  -3   4  223.06   25.78
  -3  -3   4  226.66   25.91
  -3   3  -4  205.23   25.37
  -3   3  -4  219.15   26.75
   3   3   4  239.83   26.08
   3  -3  -4  210.15   25.82
  -3   3   4  191.73   27.95
   3   3  -4  176.38   26.18
  -3  -3  -4  179.24   24.82
   3   3  -4  222.75   26.39
  -3  -3  -4  250.15   24.48
   3  -3   4  230.24   26.46
  -3  -3  -4  182.15   27.39
   3  -3   4  202.43   25.55
  -3  -5   4   55.20   12.24
   3   5   4   45.16   13.13
  -3   5  -4   63.33   13.39
  -3   5  -4   50.60    9.33
   3  -5  -4   65.34   12.76
  -3  -5   4   67.03   11.11
  -3   5   4   55.81   14.48
  -3  -5  -4   53.43   13.17
  -3  -5  -4   71.25   10.92
   3   5  -4   61.71   13.03
   3  -5   4   53.70   14.01
  -3  -7   4    2.62   12.07
   3  -7  -4   22.90   15.51
  -3  -7  -4    4.34   15.96
   3   7  -4   10.27   17.68
  -3   7   4   -5.32   16.71
   3  -7   4  -40.09   16.99
  -4   0   4   11.51    5.77
  -4   0   4   14.75    6.87
   4   0   4   15.22    7.56
   4   0   4   15.71    4.23
   4   0  -4   20.19    5.33
  -4   0  -4   22.74    4.78
   4   0   4   20.09    6.57
  -4   0   4   24.34    5.64
  -4   0  -4   22.99    5.93
   4  -2  -4   14.73    5.22
  -4  -2   4   23.11    7.81
   4   2   4    8.56    6.51
  -4   2  -4   10.87    5.81
  -4  -2   4   14.21    6.29
  -4   2  -4   13.58    4.80
   4   2  -4   14.59    5.75
  -4  -2  -4   10.73    5.71
   4  -2   4   17.61    6.72
   4  -2   4   17.40    7.00
  -4   2   4    3.48    5.94
   4  -4  -4    4.48    7.33
  -4  -4   4   15.51    6.67
  -4   4  -4    6.45    8.08
  -4   4  -4   -1.79    5.94
   4   4   4   -5.63    9.39
   4  -4   4    9.64    9.22
  -4   4   4   -1.30    8.99
  -4  -4  -4   -0.40    8.47
  -4  -4  -4    7.38    6.17
  -4  -4  -4    9.37    4.92
   4  -4   4  -10.54    8.53
   4   4  -4    9.69    7.15
   4  -6  -4   -4.13   11.36
   4   6   4   10.45   16.75
  -4   6  -4   -4.32   13.95
  -4  -6   4    1.51   11.10
   4  -6   4   -1.54   14.54
  -4   6   4  -13.20   13.73
   4   6  -4   19.27   13.62
  -4  -6  -4  -18.33   13.09
   5  -1  -4  359.25   37.60
   5   1   4  311.00   37.58
   5  -1  -4  311.87   35.47
  -5   1  -4  342.45   38.47
  -5  -1   4  336.04   38.86
  -5   1  -4  291.30   36.45
   5   1  -4  306.03   36.32
  -5  -1  -4  284.74   38.46
   5  -1   4  323.26   37.70
   5   1  -4  304.45   36.59
  -5   1   4  375.02   39.71
  -5   1   4  280.96   35.73
  -5   3  -4  179.60   23.22
  -5   3  -4  166.54   23.30
  -5  -3   4  158.72   22.97
   5   3   4  192.08   24.32
   5  -3  -4  152.13   22.91
   5  -3   4  183.81   24.14
   5   3  -4  162.29   22.94
  -5   3   4  198.19   25.77
  -5  -3  -4  191.11   24.90
  -5  -5   4   61.48   13.56
   5  -5  -4   63.03   14.65
   5   5   4   49.33   15.76
  -5  -5   4   71.05   14.42
  -5  -5  -4   22.89   13.63
  -5   5   4   29.04   15.65
   5   5  -4   36.81   13.33
   6   0  -4   19.17    6.72
   6   0   4   31.76    5.98
   6   0  -4   30.50    7.92
  -6   0  -4   28.22    7.93
   6   0   4   26.34   10.07
  -6   0   4   10.20    8.21
   6   0   4   24.42    5.08
  -6  -2   4   27.77    9.48
   6  -2  -4   18.55    8.10
   6   2   4   27.85   10.18
  -6   2  -4   12.51    8.00
   6  -2  -4   18.46    6.18
   6   2  -4   16.19    8.22
   6   2  -4   24.94    9.47
  -6  -2  -4   14.99    8.88
  -6   2   4   26.33    9.69
   6  -2   4   16.27   11.22
   6  -4  -4   14.31    9.51
   6   4   4    3.40   13.41
  -6   4  -4    7.80   10.48
  -6  -4   4   20.66   10.09
  -6   4   4   17.48   13.47
   6  -4   4   26.06   13.86
  -6  -4  -4    0.53   11.09
   6   4  -4   25.65   10.55
   7  -1  -4  112.46   18.10
   7  -1  -4  136.21   18.87
   7   1   4  140.25   21.83
  -7  -1   4  150.67   21.23
  -7   1  -4   83.46   18.95
   7  -1   4  141.66   22.63
   7  -1   4  111.20   17.46
   7   1  -4  122.51   18.83
  -7  -1  -4  141.36   20.48
  -7   1   4  170.04   22.14
   7   1  -4  133.15   19.86
   7   3   4   82.18   17.37
  -7  -3   4   70.60   16.36
   7  -3  -4   43.63   13.67
  -7   3  -4   56.83   14.68
  -7   3   4   83.78   16.71
  -7  -3  -4   39.86   13.86
   7   3  -4   68.91   13.67
   7   5   4   36.73   20.55
   7  -5  -4   12.78   15.63
  -7  -5   4   47.07   18.79
   7  -5   4   12.10   23.43
  -7   5   4   67.73   22.61
  -7  -5  -4    4.52   17.37
   8   0  -4   28.48   13.87
  -8   0   4    2.86   11.92
  -8   0  -4    0.53   10.65
   8   0  -4   12.21    9.53
   8   0   4   16.48   16.13
  -8   2  -4   25.05   12.55
   8   2   4    4.48   15.38
  -8  -2   4   37.56   14.44
  -8   2   4   11.66   15.62
   8  -2   4   22.21   18.27
  -8  -2  -4   10.87   11.09
   8   2  -4   20.18   15.65
   8   4   4  -11.01   20.18
  -8  -4   4   -3.64   18.58
   8  -4  -4  -12.39   13.50
  -8   4  -4  -20.22   17.79
   8  -4   4   -0.64   21.55
  -8   4   4  -25.49   19.23
  -8  -4  -4  -13.78   15.64
   8  -4   4   22.96   17.69
  -9  -1   4  140.11   23.87
   9   1   4  129.61   26.65
  -9   1  -4  124.23   23.20
  -9  -1  -4   79.04   21.33
   9  -1   4  152.42   28.45
   9   1  -4  170.89   27.25
  -9   1   4  125.67   24.22
   0   1   5   20.14    4.28
   0   1  -5   28.08    4.28
   0   1   5   21.27    5.71
   0  -1   5   19.60    4.08
   0  -1  -5   18.38    6.70
   0   1   5   20.24    5.05
   0  -1   5   18.47    5.02
   0   1  -5   28.95    5.70
   0  -1  -5   13.43    4.16
   0   1  -5   19.76    5.21
   0  -1   5   13.09    5.25
   0  -1  -5   21.44    4.73
   0   3   5   12.03    3.95
   0  -3   5    2.10    4.63
   0   3   5    1.22    6.20
   0   3  -5   14.58    5.50
   0  -3  -5    8.12    3.98
   0  -3  -5    4.76    4.11
   0  -5  -5   -1.75    6.77
   0   5   5   -0.69    9.39
   0  -5   5   -6.23    7.28
   0   5  -5    0.32    9.43
   0  -7  -5  -10.67   12.42
   0  -7   5  -26.73   14.82
   0   7  -5  -10.33   14.04
   1   0   5  355.43   46.14
   1   0  -5  430.69   45.48
  -1   0   5  422.53   45.26
   1   0   5  492.27   45.85
   1   0  -5  373.82   47.78
  -1   0  -5  386.51   48.10
  -1   0  -5  364.30   45.60
  -1   0   5  372.20   46.48
   1   0  -5  447.19   46.60
  -1   0   5  470.26   48.28
  -1   2  -5  345.00   41.03
  -1  -2   5  338.70   40.64
  -1  -2   5  279.32   39.59
   1  -2  -5  365.33   40.57
   1   2   5  300.90   40.16
   1   2   5  345.83   42.71
   1  -2  -5  402.06   38.60
  -1   2   5  406.55   43.40
  -1  -2  -5  347.95   39.87
   1   2  -5  371.83   40.55
  -1   2   5  361.39   38.52
   1   2  -5  414.04   41.48
   1  -2   5  315.60   40.15
   1  -4  -5  152.23   16.76
  -1  -4   5  123.60   19.31
  -1   4  -5  144.86   20.75
   1   4   5  152.07   18.86
   1  -4  -5  150.05   19.16
   1  -4   5  142.63   19.67
  -1   4   5  130.97   21.84
   1   4  -5  152.06   20.25
  -1  -4  -5  151.86   18.60
  -1  -4  -5  114.62   19.32
  -1  -6   5   48.81   12.78
   1  -6  -5   45.43   11.25
  -1   6  -5   20.08   13.86
  -1   6   5    8.21   13.02
   1   6  -5   39.19   13.31
   1  -6   5   33.69   11.50
  -1  -6  -5   39.55   11.00
  -2   1  -5   -1.00    4.19
   2   1   5   -0.92    3.36
  -2   1  -5    1.53    2.72
  -2  -1   5   -4.12    3.29
  -2  -1   5   -1.90    6.54
   2  -1  -5   -3.09    5.67
  -2  -1   5   -0.83    3.54
  -2  -1   5   -0.32    4.34
  -2   1  -5    1.13    5.43
   2  -1  -5    4.28    4.03
  -2   1  -5   -2.30    3.58
   2   1   5    2.64    3.76
  -2  -1  -5   -3.34    3.83
  -2   1   5   -1.45    4.51
  -2   1   5   -1.06    2.98
  -2  -1  -5    2.64    3.45
   2  -1   5   -0.94    4.15
   2   1  -5    3.72    4.26
   2   1  -5   -0.64    3.37
   2  -1   5    0.51    4.74
  -2  -1  -5   11.23    7.04
  -2   1   5   -1.28    1.94
  -2   1   5    2.59    4.84
  -2  -1  -5    0.38    4.90
   2   3   5    5.86    5.91
  -2  -3   5   -0.55    5.27
  -2   3  -5    6.24    5.86
   2  -3  -5    2.61    4.45
  -2  -3   5    9.77    3.32
   2   3  -5   -0.98    4.08
  -2  -3  -5    4.68    4.23
   2   3  -5   -1.20    5.38
  -2   3   5    6.28    7.34
   2  -3   5    9.53    7.16
  -2  -5   5    6.68    4.00
  -2  -5   5  -14.46    9.08
  -2   5  -5   -4.20    9.31
   2   5   5   21.52    9.66
   2  -5  -5   12.58    8.19
   2  -5   5   -6.13    8.54
  -2   5   5    2.94   10.06
  -2  -5  -5    0.50    6.43
   2   5  -5    9.32   10.64
  -2  -7   5   -3.55   13.26
  -2   7  -5  -22.37   15.09
   2  -7  -5  -11.26   13.82
  -2  -7  -5   15.26   14.27
   2  -7   5  -11.65   16.32
  -2   7   5   25.97   18.52
   2   7  -5    2.76   16.15
  -2  -7  -5    4.05   12.67
  -3   0   5  345.75   38.57
  -3   0   5  334.90   35.81
   3   0   5  313.46   37.14
   3   0  -5  324.26   38.54
  -3   0  -5  318.79   38.23
   3   0  -5  359.09   37.53
   3   0   5  304.92   36.71
  -3   0   5  303.97   36.47
  -3   0  -5  288.53   39.02
  -3   2  -5  239.54   27.56
   3  -2  -5  226.93   27.86
   3   2   5  210.80   27.68
  -3  -2   5  236.05   27.32
   3   2   5  183.36   26.46
  -3   2  -5  248.00   28.38
  -3  -2   5  228.15   27.91
  -3   2   5  224.27   29.66
   3  -2   5  223.03   28.14
  -3  -2  -5  275.88   26.75
  -3  -2  -5  250.09   29.60
   3   2  -5  235.39   28.25
   3  -4  -5  148.06   19.00
  -3   4  -5  103.51   19.02
  -3  -4   5  162.94   17.85
  -3   4  -5  116.87   15.72
   3   4   5  102.76   17.87
  -3  -4   5  174.85   19.64
   3  -4   5  125.36   19.67
  -3  -4  -5  108.66   18.72
  -3   4   5  170.88   22.58
   3   4  -5  104.52   18.71
  -3  -4  -5  130.06   17.52
  -3  -4  -5  143.70   20.61
   3   6   5   39.72   15.54
  -3   6  -5   46.58   17.14
   3  -6  -5   18.40   14.12
  -3  -6   5   35.09   13.23
  -3  -6  -5   11.98   11.65
  -3   6   5   45.37   15.88
  -3  -6  -5   20.12   12.68
   3  -6   5   45.93   15.32
   3   6  -5   31.34   13.79
   4   1   5    7.55    6.70
  -4   1  -5    9.49    5.39
   4  -1  -5   -1.90    4.80
   4   1   5    0.46    3.57
  -4  -1   5   17.63    5.99
  -4   1  -5   14.67    4.90
  -4  -1   5    7.65    9.40
   4  -1   5   14.09    6.13
   4  -1   5    8.21    6.86
  -4   1   5   11.61    6.68
  -4  -1  -5    6.64    3.95
  -4  -1  -5    0.55    5.04
   4   1  -5   -2.39    4.84
  -4   1   5    7.78    4.00
  -4   1   5    5.03    3.03
   4   3   5    0.43    7.54
  -4  -3   5   11.85    6.09
   4  -3  -5   -3.57    5.63
  -4  -3   5    4.77    6.80
  -4   3  -5    0.18    6.45
  -4  -3  -5   -2.07    3.64
  -4   3   5    7.71    9.06
   4   3  -5   11.24    7.40
   4  -3   5    3.55    7.92
  -4  -3  -5    1.39    7.95
   4  -3   5   -3.26    6.98
  -4  -5   5  -19.26    8.85
  -4  -5   5   -1.89    8.53
   4   5   5   12.39   12.22
   4  -5  -5    9.48   10.40
  -4   5  -5    2.23   11.80
  -4   5   5   10.63   12.24
   4   5  -5   10.25   12.11
  -4  -5  -5   -0.19   11.51
   5   0   5  198.53   24.87
   5   0   5  165.82   22.80
   5   0  -5  193.35   24.01
  -5   0  -5  210.55   22.77
  -5   0   5  155.36   23.93
  -5   0  -5  215.97   24.78
  -5   0   5  180.12   24.94
  -5  -2   5  203.87   24.61
  -5   2  -5  183.84   24.12
   5  -2  -5  163.10   24.00
   5   2   5  143.98   24.26
  -5   2  -5  165.62   23.61
   5   2  -5  243.14   24.95
  -5   2   5  217.76   26.76
   5  -2   5  215.96   25.25
  -5  -2  -5  147.19   24.58
  -5   4  -5   85.42   13.28
   5   4   5   93.79   15.86
  -5   4  -5   89.88   16.04
  -5  -4   5   84.13   15.00
   5  -4  -5   48.18   13.46
  -5  -4  -5   93.09   17.59
  -5   4   5   68.84   17.22
   5   4  -5   74.97   15.07
   5  -4   5   57.73   16.54
   5  -6  -5    0.26   17.12
  -5  -6   5   36.35   13.99
   5   6   5   23.21   20.28
  -5  -6  -5    9.21   15.94
   5  -6   5   24.54   20.67
   5   6  -5   44.44   18.67
  -5   6   5   25.91   20.25
   6  -1  -5   -9.37    5.74
  -6   1  -5    0.82    7.42
   6   1   5    0.82    9.09
  -6  -1   5    4.04    7.39
   6   1  -5   -9.43    7.05
  -6  -1  -5    7.97    7.39
   6  -1   5    0.07    9.28
  -6   1   5    3.23    8.59
  -6   3  -5   -8.32    9.01
  -6   3  -5   -1.12    9.37
   6   3   5   -6.66    9.82
   6  -3  -5   -2.23    8.12
  -6  -3   5   14.42    9.93
  -6   3   5   -1.00   11.11
   6   3  -5   -9.34   10.19
   6  -3   5   -0.62   12.28
  -6  -3  -5   -1.36    9.46
   6  -5  -5   -8.40   13.51
  -6  -5   5   20.27   14.91
  -6  -5   5   -6.72   16.28
   6   5   5   17.96   18.48
  -6   5   5    9.47   16.56
  -6  -5  -5   -8.62   13.65
   6  -5   5   49.36   20.60
   6   5  -5   15.50   16.42
  -7   0   5  290.79   32.88
   7   0  -5  187.51   28.38
  -7   0  -5  206.26   30.83
   7   2   5  167.17   25.36
   7  -2  -5  130.90   22.73
  -7   2  -5  147.12   23.58
  -7  -2   5  174.93   25.06
   7  -2   5  210.01   27.48
  -7  -2  -5  139.57   24.52
  -7   2   5  198.09   26.78
   7   2  -5  164.11   24.04
   7  -4  -5   71.18   17.26
   7   4   5   87.38   20.11
  -7  -4   5  127.47   21.91
  -7   4   5   57.24   20.27
   7  -4   5   78.50   21.81
  -7  -4  -5   76.66   20.07
   8  -1  -5   -2.30   11.74
  -8  -1   5  -11.92   11.81
  -8   1  -5    5.50   11.64
   8   1   5    5.42   16.65
  -8   1   5  -12.37   13.03
   8   1  -5   15.80   12.17
  -8  -1  -5   -0.93   11.70
   8  -1   5    2.42   18.92
   8  -3  -5   20.86   13.22
  -8   3  -5  -18.86   14.93
  -8  -3   5    4.37   17.51
   8   3   5   56.58   19.54
  -8  -3  -5    0.25   14.46
   8  -3   5    4.90   15.51
   8  -3   5   36.77   22.36
  -8   3   5   11.70   15.05
  -9   0   5   60.56   18.83
   9   0   5   66.42   24.17
  -9   0  -5   30.64   16.76
   0   0  -6    1.23    4.71
   0   0  -6   -1.29    5.15
   0   0   6    3.40    3.45
   0   0  -6   -0.53    3.70
   0   0   6   13.68    5.34
   0   2  -6   15.71    6.80
   0   2  -6   10.30    2.12
   0  -2  -6   19.15    4.97
   0  -2   6   11.98    5.33
   0   2   6    5.53    6.29
   0   2  -6    9.54    1.94
   0   2   6    5.54    4.38
   0  -2  -6    8.49    4.05
   0  -4  -6    1.62    5.35
   0   4   6   -4.41    8.11
   0   4  -6    6.27    7.86
   0  -4   6    8.85    6.74
   0  -4  -6    5.55    6.28
   0  -6   6    0.92   11.74
   0   6  -6    5.06   12.53
   0  -6  -6    1.59    9.56
  -1  -1   6  267.24   33.95
   1   1   6  280.05   34.87
  -1   1  -6  255.68   33.81
   1   1   6  225.07   33.35
   1  -1  -6  317.78   32.15
  -1   1  -6  297.77   33.90
  -1   1  -6  305.50   33.50
  -1  -1   6  293.03   32.70
   1  -1  -6  269.76   33.14
   1  -1  -6  289.51   35.66
   1   1   6  285.59   32.84
  -1   1   6  244.47   34.85
  -1   1   6  325.81   32.16
  -1  -1  -6  277.12   33.09
   1  -1   6  304.63   33.15
   1   1  -6  295.66   33.93
  -1  -1  -6  333.20   36.71
   1  -3  -6  166.98   20.84
   1  -3  -6  156.39   18.59
   1   3   6  199.63   20.61
   1   3   6  189.42   23.75
  -1   3  -6  176.69   22.66
  -1  -3   6  183.42   21.39
  -1   3   6  133.89   18.58
   1   3  -6  181.30   22.65
  -1  -3  -6  121.91   20.37
  -1  -3  -6  182.57   20.76
  -1   3   6  196.35   24.31
   1  -3   6  189.98   21.84
   1  -5  -6   69.19   13.11
   1   5   6   68.78   13.16
  -1   5  -6   95.77   17.16
  -1  -5   6   72.61   14.37
   1   5  -6   71.47   15.27
  -1  -5  -6   48.83   11.94
   1  -5   6   83.21   14.80
  -1   5   6   59.57   16.35
  -1   7  -6    2.11   17.42
  -1  -7   6   11.37   15.16
   1  -7  -6   25.19   13.96
   1  -7   6   18.00   15.98
  -1  -7  -6    1.92   14.11
   1   7  -6    1.27   17.89
   2   0   6   65.81   10.96
   2   0  -6   77.03   12.24
  -2   0  -6   79.72   11.65
  -2   0  -6   72.54   12.74
   2   0   6   85.37   11.55
  -2   0   6   84.84   11.93
   2   0  -6   66.35   11.39
  -2   0  -6   78.70   11.28
  -2  -2   6  115.63   16.66
  -2   2  -6   99.35   16.21
   2  -2  -6  138.12   17.36
   2   2   6  100.00   16.68
  -2   2  -6  135.96   17.79
  -2  -2   6  148.18   16.95
   2   2   6  144.82   17.59
  -2   2  -6  146.08   15.76
  -2   2   6  118.82   19.15
  -2  -2  -6  142.42   16.36
   2  -2   6  143.94   18.13
   2   2  -6  143.50   18.25
   2   2  -6  116.01   16.89
   2   4   6   33.37    9.41
   2  -4  -6   30.75    8.54
  -2  -4   6   28.51    9.13
  -2   4  -6   34.59   11.40
   2  -4   6   26.43   10.25
  -2   4   6   27.03   12.07
   2   4  -6   35.03    9.96
  -2  -4  -6   40.96    8.42
   2  -6  -6   35.26   13.47
  -2   6  -6   19.02   13.87
  -2  -6   6   29.16   13.02
  -2   6   6    0.38   14.79
   2   6  -6   39.34   16.05
  -2  -6  -6   24.39   13.16
  -2  -6  -6    8.87   11.24
   2  -6   6   14.39   12.92
   3  -1  -6  214.25   25.91
   3   1   6  191.53   25.18
  -3   1  -6  205.80   25.74
  -3   1  -6  252.23   25.90
  -3   1  -6  173.56   26.90
   3   1   6  207.47   25.70
  -3  -1   6  294.62   29.48
  -3  -1   6  196.14   24.67
  -3  -1   6  182.43   25.86
   3   1  -6  216.97   26.59
  -3  -1  -6  204.92   26.77
   3   1  -6  202.14   25.85
   3  -1   6  217.72   25.88
  -3   1   6  225.31   23.46
  -3   1   6  187.25   26.85
  -3   3  -6  117.07   16.02
  -3   3  -6  152.64   19.81
  -3  -3   6  111.24   18.00
   3  -3  -6  125.86   18.22
  -3  -3   6  149.35   17.49
   3   3   6  131.81   18.35
  -3  -3  -6  175.28   21.76
  -3   3   6  147.43   21.75
   3   3  -6  153.43   20.48
  -3  -3  -6  117.29   17.16
   3  -3   6  131.81   19.53
   3   3  -6  127.46   18.91
   3  -5  -6   42.89   12.50
   3   5   6   44.72   14.18
  -3  -5   6   21.96   11.80
  -3   5  -6   54.49   14.78
  -3  -5  -6   63.15   14.34
  -3  -5  -6   31.18   11.27
   3   5  -6   53.52   13.78
   3  -5   6   64.81   14.27
  -3   5   6   25.13   14.14
  -4   0   6   22.95    5.47
  -4   0  -6   18.84    5.97
   4   0   6   34.08    8.20
   4   0  -6   31.09    7.81
   4   0   6   12.28    7.11
  -4   0   6   19.59    7.93
  -4   0  -6   17.17    6.40
  -4   0   6   25.96    7.38
  -4   2  -6   15.38    7.69
   4  -2  -6    8.50    5.95
   4   2   6   -0.83    7.24
   4   2   6    8.13    4.78
  -4  -2   6    6.61    5.53
  -4   2  -6    1.71    5.10
  -4  -2   6   17.72    6.67
   4   2  -6   13.15    6.42
  -4  -2  -6    8.68    4.96
  -4  -2  -6    1.97    7.17
   4  -2   6    3.20    7.09
  -4   2   6    6.14    8.02
  -4  -4   6    4.49    8.46
   4   4   6   -4.59    9.74
  -4  -4   6   -5.35    7.10
  -4   4  -6   10.06   10.27
   4   4  -6    5.87   11.00
   4  -4   6    6.19   11.86
  -4   6  -6   19.37   17.65
  -4  -6   6   -2.17   13.64
   4   6   6   11.59   18.80
   4  -6  -6   13.71   13.97
  -4  -6  -6  -24.73   13.45
  -4   6   6  -28.38   17.15
   4   6  -6   15.44   18.91
   4  -6   6    1.57   19.31
  -5   1  -6  162.56   23.48
   5  -1  -6  197.23   23.96
  -5  -1   6  197.71   24.55
  -5   1  -6  206.25   23.65
   5   1   6  195.87   24.90
  -5  -1   6  189.63   22.60
   5   1   6  190.38   21.36
   5   1  -6  145.84   22.75
  -5   1   6  231.34   26.11
   5  -1   6  163.21   24.40
  -5   1   6  157.13   20.83
  -5  -1  -6  141.37   21.18
  -5  -1  -6  165.55   24.42
  -5   1   6  215.01   21.84
  -5  -3   6   78.59   16.31
   5  -3  -6  110.92   17.53
  -5   3  -6  111.03   18.08
   5   3   6  110.35   18.25
  -5   3  -6  103.16   16.19
  -5  -3   6  113.47   17.48
   5  -3   6  128.27   19.14
   5   3  -6   93.20   18.30
  -5  -3  -6  108.23   20.03
  -5   3   6  177.57   22.79
   5   5   6   64.22   18.59
  -5   5  -6   25.35   16.84
  -5  -5   6   44.18   14.15
   5  -5  -6   32.71   14.29
   5  -5   6   47.52   18.80
  -5  -5  -6   56.29   17.85
  -5   5   6   35.08   17.93
  -6   0   6   14.30    7.37
   6   0  -6   17.42    8.28
  -6   0   6   20.62   10.97
   6   0   6   40.63   11.94
  -6   0  -6    5.63    8.33
  -6  -2   6   14.29    8.67
  -6  -2   6    7.04    8.88
  -6   2  -6   23.33    8.97
   6  -2  -6    0.84    7.59
  -6   2  -6   18.94    9.65
  -6  -2  -6    6.61    9.82
   6   2  -6   14.44   10.28
  -6  -4   6   14.75   12.43
   6  -4  -6  -11.01    9.49
  -6  -4   6   -1.80   12.67
  -6   4  -6   -8.09   15.05
   6   4   6    9.74   13.29
   6  -4   6   28.31   16.93
   6   4  -6  -18.66   15.26
  -6   4   6   42.76   16.67
  -6  -4  -6    7.80   14.35
   7   1   6   80.14   20.66
   7  -1  -6   92.34   18.09
  -7  -1   6  162.53   21.15
  -7   1  -6   85.93   17.86
  -7  -1  -6   80.66   17.69
  -7   1   6  136.42   21.15
   7  -1   6  129.10   23.33
   7   1  -6   97.13   17.49
  -7  -3   6   97.07   18.44
  -7  -3   6   55.47   17.29
   7  -3  -6   60.25   15.59
   7   3   6   82.43   19.50
  -7   3  -6   92.37   17.69
   7   3  -6   73.23   18.92
   7  -3   6   99.75   23.62
  -7   3   6  105.66   21.05
  -7  -3  -6  101.72   19.85
  -8   0  -6   -6.11   12.64
  -8   0   6   21.80   13.42
   8   0   6   28.94   19.73
   8   2   6  -15.06   16.34
   8  -2  -6   11.47   13.32
  -8   2  -6   -6.19   15.17
  -8  -2   6  -15.56   14.66
   8  -2   6    5.16   20.74
  -8  -2  -6    1.22   13.07
  -8   2   6   19.17   17.61
   0   1  -7  111.96   16.78
   0   1   7  137.45   18.47
   0  -1   7  135.13   16.82
   0   1  -7  133.79   17.64
   0  -1   7  139.79   16.83
   0  -1  -7  105.86   16.70
   0  -1  -7  137.40   16.64
   0   3   7  101.07   17.52
   0  -3  -7   84.90   13.85
   0   3  -7  127.84   17.16
   0  -3   7  103.76   15.06
   0  -3  -7   88.62   14.07
   0   5   7   22.59   12.50
   0  -5   7   35.61   12.03
   0  -5  -7   42.72   11.02
   0   5  -7   45.03   13.53
  -1   0  -7  129.11   23.56
  -1   0   7  149.17   22.85
   1   0  -7  185.27   23.74
  -1   0   7  197.74   21.17
   1   0  -7  172.35   22.06
  -1   0  -7  201.88   22.27
   1   0   7  190.50   21.64
  -1  -2   7  119.40   15.93
   1   2   7  108.63   15.80
   1  -2  -7  147.11   16.55
  -1   2  -7  109.47   13.89
  -1   2  -7  118.98   16.99
   1  -2  -7  110.75   14.49
   1   2   7  115.62   17.92
  -1   2  -7  119.54   13.86
  -1  -2   7  121.30   15.04
  -1   2   7  117.40   18.62
   1   2  -7  140.01   17.04
  -1  -2  -7  126.52   16.31
  -1  -2  -7   83.15   14.84
   1   2  -7  108.43   14.88
  -1   2   7  117.99   14.35
   1  -2   7  126.61   16.82
  -1   4  -7   67.87   13.49
   1  -4  -7   52.85   11.23
  -1  -4   7   62.69   12.50
   1   4   7   48.95   10.60
   1  -4   7   52.65   12.07
  -1   4   7   57.84   14.82
  -1  -4  -7   39.23    9.87
   1   4  -7   54.55   12.81
   1  -6  -7   21.27   11.12
  -1  -6   7   -4.80   12.95
  -1   6  -7   19.45   14.91
   1  -6   7   22.08   13.85
   1   6  -7   28.74   15.47
  -1   6   7   -3.28   14.64
   2  -1  -7   68.53   10.71
   2   1   7   72.12   11.10
   2   1   7   83.62   12.25
  -2   1  -7   51.08   10.86
  -2   1  -7   68.30   11.08
  -2  -1   7   56.98    9.74
  -2  -1   7   55.02    9.89
   2  -1   7   64.81   10.96
  -2  -1  -7   67.66   10.17
  -2   1   7   74.40   12.73
  -2   1   7   63.60    8.85
   2   1  -7   65.34   11.30
   2   1  -7   33.96    9.83
  -2   3  -7   38.94   10.84
   2  -3  -7   46.12    9.67
  -2  -3   7   29.40    6.58
   2   3   7   56.79   10.03
  -2  -3   7   37.74    9.93
  -2  -3  -7   37.42    8.46
   2  -3   7   42.42   10.69
  -2   3   7   29.28   12.10
   2   3  -7   41.50    6.87
   2   3  -7   36.69   10.30
  -2  -5   7   19.68   12.03
   2   5   7   35.77   13.27
   2  -5  -7   21.82   11.26
  -2   5  -7   10.02   12.41
   2   5  -7   26.96   12.40
  -2   5   7   11.08   13.00
  -2  -5  -7   12.21   10.55
   2  -5   7   32.73   12.70
  -3   0   7  214.06   26.97
  -3   0  -7  232.97   28.21
  -3   0  -7  243.92   29.16
   3   0  -7  247.17   29.18
   3   0   7  242.71   28.80
  -3   0   7  212.74   29.59
  -3   0   7  248.07   30.06
  -3  -2   7  195.01   23.68
  -3  -2   7  143.10   22.44
   3   2   7  174.20   24.05
   3   2   7  178.12   23.93
   3  -2  -7  212.37   24.12
  -3   2  -7  160.36   23.71
  -3   2  -7  149.42   22.50
  -3   2  -7  180.85   24.42
   3   2  -7  211.05   25.57
  -3   2   7  220.89   26.94
   3   2  -7  209.69   25.29
  -3  -2  -7  163.60   26.25
  -3  -2  -7  210.58   23.10
   3  -2   7  216.26   24.86
  -3  -4   7   74.77   14.14
   3   4   7   64.71   14.31
  -3   4  -7   63.64   14.52
   3  -4  -7   51.55   12.99
  -3  -4   7   56.77   10.84
   3   4  -7   74.43   15.45
  -3  -4  -7   60.25   12.70
  -3  -6   7    3.56   13.23
   3  -6  -7   -5.22   13.50
  -3   6  -7   -4.19   15.68
   3   6   7   20.52   19.56
   3   6  -7   26.39   17.79
  -3  -6  -7    3.57   15.21
  -3   6   7   16.33   16.96
   3  -6   7   -2.41   16.12
   4   1   7   92.02   14.53
  -4   1  -7  118.02   15.83
  -4  -1   7  121.82   16.22
  -4   1  -7   87.63   14.15
   4  -1  -7   93.11   15.61
  -4  -1   7   83.02   13.66
   4   1   7   99.13   16.55
   4   1  -7  102.03   15.57
  -4   1   7   99.95   16.68
  -4   1   7   90.46   12.22
   4  -1   7  126.84   16.81
  -4  -1  -7   90.40   15.47
  -4   1   7   96.08   13.30
  -4  -1  -7   88.41   13.75
  -4  -3   7   63.87   12.99
  -4  -3   7   99.95   13.42
   4  -3  -7   71.57   13.53
  -4   3  -7   71.59   11.22
  -4   3  -7   72.61   14.57
   4   3   7   67.43   13.75
  -4  -3  -7   85.75   17.07
   4   3  -7   55.25   14.81
   4  -3   7   85.35   15.57
  -4   3   7   69.37   16.63
  -4   5  -7   28.35   14.61
   4   5   7   15.46   16.67
  -4  -5   7   30.47   13.68
   4  -5  -7   25.36   13.46
  -4  -5  -7   35.52   15.23
   4   5  -7   36.07   15.82
  -4   5   7   28.84   16.05
   4  -5   7   25.20   16.48
   5   0   7  144.54   20.56
  -5   0  -7  104.05   18.40
  -5   0  -7  170.41   19.16
  -5   0   7  100.69   16.86
   5   0  -7  114.37   18.91
  -5   0   7  157.70   20.91
   5   2   7  120.73   17.86
  -5   2  -7   72.27   13.72
  -5  -2   7   73.51   14.36
  -5  -2   7   89.21   15.64
   5  -2  -7   84.65   15.66
  -5   2  -7   91.25   15.88
   5   2  -7   97.64   16.22
  -5  -2  -7   77.22   11.97
  -5  -2  -7   95.37   16.96
  -5   2   7  107.63   18.64
   5  -2   7  129.82   18.70
  -5  -4   7   77.03   13.88
   5   4   7   63.73   16.73
  -5  -4   7   62.97   13.41
   5  -4  -7   23.87   12.23
  -5   4  -7   19.99   15.54
   5  -4   7   58.57   17.52
  -5  -4  -7   51.20   17.05
  -5   4   7   25.39   15.02
  -6   1  -7   18.34   10.98
   6   1   7   77.88   15.78
  -6   1  -7   40.11   11.46
  -6  -1   7   40.89   12.49
   6  -1  -7   35.01   11.82
  -6  -1   7   47.39   10.79
   6  -1   7   27.89   12.68
   6   1  -7   45.69   11.65
  -6  -1  -7   60.64   12.29
   6  -3  -7   -7.03   10.78
  -6  -3   7   37.62   13.01
  -6  -3   7   46.65   13.16
   6   3   7   27.18   13.62
  -6   3  -7   24.53   14.06
   6  -3   7   16.19   15.27
  -6   3   7   49.69   17.80
   6   3  -7   -5.16   15.31
  -6  -3  -7   26.89   15.29
  -7   0  -7   62.64   15.23
  -7   0   7   64.97   16.52
   7   0   7   71.98   18.28
   7   2   7   61.29   16.77
  -7   2  -7   39.29   13.58
   7  -2  -7   17.82   12.34
  -7  -2   7   47.24   16.46
  -7   2   7   29.65   17.15
  -7  -2  -7   22.30   14.14
   7  -2   7   26.55   17.51
  -8  -1   7   43.23   17.38
   8  -1  -7   39.62   16.05
   8   1   7   37.80   19.77
  -8   1  -7   34.77   17.35
  -8  -1  -7   53.68   15.19
   8  -1   7   31.33   20.80
   8   1  -7   26.42   17.18
  -8   1   7   60.27   19.74
   0   0   8  415.20   47.28
   0   0  -8  392.30   50.57
   0   0   8  422.49   49.83
   0   0  -8  441.70   48.71
   0   2   8  191.89   23.50
   0   2  -8  179.48   22.78
   0   2  -8  172.76   23.08
   0  -2  -8  222.47   24.77
   0   2   8  213.55   26.90
   0  -2  -8  187.45   24.36
   0   2  -8  207.46   26.48
   0  -2   8  224.91   24.71
   0  -4  -8  106.71   16.19
   0  -4   8   96.84   16.72
   0  -6  -8   33.92   13.69
   0  -6   8   16.15   16.40
   0   6  -8   35.93   18.38
  -1  -1   8   62.90   11.42
   1   1   8   76.31   12.36
   1  -1  -8   44.98   10.69
  -1   1  -8   68.19   11.97
  -1  -1   8   89.39   12.11
   1  -1  -8   47.24   10.99
  -1   1  -8   61.65   12.58
  -1   1   8   80.36   11.01
   1   1  -8   52.39   11.20
  -1   1   8   63.96   12.67
  -1  -1  -8   78.68   11.52
   1  -1   8   77.38   12.60
   1   1  -8   84.89   12.87
  -1  -3   8   33.20    9.03
  -1   3  -8   43.80   12.28
   1  -3  -8   25.80    8.01
   1   3   8   40.29    8.56
   1   3  -8   35.05   11.90
  -1   3   8    3.89   11.39
  -1   3   8   35.69    5.87
  -1  -3  -8   46.64    9.32
   1  -3   8   37.66   10.14
   1  -5  -8   12.30    9.76
  -1   5  -8    9.63   14.15
  -1  -5   8   24.24   12.64
  -1   5   8   18.42   15.48
   1   5  -8   21.19   14.47
   1  -5   8   12.98   11.10
  -1  -5  -8    8.21    9.85
   2   0   8   96.53   16.54
  -2   0  -8  137.69   16.91
  -2   0  -8  134.04   16.90
  -2   0   8  103.86   15.45
  -2   0   8  128.13   17.39
   2   0  -8   98.63   16.59
  -2   2  -8  142.77   18.89
  -2   2  -8  127.27   16.26
  -2  -2   8  104.80   16.47
   2  -2  -8  144.70   17.55
  -2   2  -8  106.51   14.77
   2   2   8  127.55   18.26
  -2  -2  -8  109.41   16.54
   2   2  -8  149.38   19.09
  -2   2   8   93.77   13.31
  -2   2   8  112.10   13.16
   2  -2   8  130.22   18.43
  -2   2   8  130.75   19.83
   2   2  -8  118.10   17.21
   2   4   8   36.04   11.72
  -2   4  -8   24.51   13.13
   2  -4   8   37.55   12.69
  -2   4   8   24.02   13.68
  -2  -4  -8   31.67   11.02
  -2   6  -8   45.33   19.48
  -2  -6   8   15.02   15.79
   2  -6  -8    1.88   14.83
  -2  -6  -8   15.53   15.71
  -2   6   8    6.95   17.30
   2  -6   8   -8.33   15.27
   2   6  -8   24.72   18.67
  -3   1  -8   67.57   12.63
  -3  -1   8  121.49   16.12
  -3   1  -8  108.73   15.74
   3   1   8   80.63   14.80
  -3   1  -8  102.18   16.94
   3  -1  -8   80.00   15.05
  -3  -1   8   89.59   13.23
  -3  -1  -8   99.91   15.66
  -3  -1  -8  114.30   15.05
  -3   1   8   88.61   15.29
   3  -1   8   79.18   14.95
  -3   1   8   90.23   12.36
   3   1  -8   85.81   14.72
  -3   1   8   67.96   11.43
  -3   3  -8   40.12   12.91
   3   3   8   44.86   11.61
   3  -3  -8   44.19   10.94
  -3  -3   8   47.68   10.28
  -3  -3   8   40.21   11.16
  -3  -3  -8   68.64   15.13
   3  -3   8   37.81   13.17
   3   3  -8   75.35   13.62
  -3   3   8   56.31   14.69
  -3  -3  -8   35.82   10.51
   3  -5  -8   19.07   12.02
  -3  -5   8    8.89   13.45
  -3   5  -8   51.43   16.13
   3   5   8   27.97   16.86
  -3   5   8   15.57   17.11
   3  -5   8    1.79   15.32
  -3  -5  -8   27.74   14.04
   3   5  -8   -5.34   15.19
  -4   0   8  148.68   20.71
  -4   0  -8  142.80   22.78
  -4   0  -8  167.94   22.76
   4   0  -8  193.57   23.36
  -4   0   8  176.09   24.30
  -4   2  -8  107.74   17.12
  -4   2  -8   79.80   13.86
  -4  -2   8   74.86   15.29
  -4  -2   8  111.79   16.26
   4  -2  -8   85.73   15.92
   4   2   8   88.30   16.97
  -4  -2  -8  103.70   14.94
   4  -2   8  106.27   17.51
  -4   2   8  112.86   18.95
   4   2  -8  128.82   17.85
  -4  -2  -8   68.41   17.76
   4  -4  -8   46.02   13.70
  -4  -4   8   61.49   14.13
   4   4   8   66.32   17.74
  -4   4  -8   86.63   16.54
   4  -4   8   70.51   17.88
   4   4  -8   40.21   17.05
  -4  -4  -8   60.70   17.10
  -4   4   8   49.37   16.66
  -5  -1   8   26.97    9.73
   5  -1  -8   33.39   11.21
  -5   1  -8   34.58   10.13
  -5  -1   8   45.92   11.50
  -5   1  -8   40.92   11.14
   5   1   8   20.99   11.72
  -5   1   8   42.92   13.59
  -5  -1  -8   29.70    9.96
  -5  -1  -8   27.14   11.11
   5   1  -8   15.87    9.72
  -5   3  -8   40.10   15.12
  -5  -3   8   44.10   11.80
   5   3   8   17.29   12.55
   5  -3  -8   13.37   10.38
   5   3  -8    0.66   14.16
  -5   3   8   -2.35   13.82
  -5  -3  -8   31.52   14.58
   5  -3   8   45.60   15.88
  -5   5  -8    8.45   17.75
   5  -5  -8   -4.20   15.19
   5   5   8  -29.25   20.60
  -5  -5   8   19.81   15.60
   5   5  -8    4.83   20.27
  -5  -5  -8   -0.06   20.45
  -5   5   8   13.24   22.61
   5  -5   8   -3.29   19.44
   6   0  -8  142.23   20.08
   6   0   8   97.48   20.96
  -6   0   8  122.99   17.19
  -6   0  -8   97.79   18.74
   6  -2  -8  104.02   19.57
  -6   2  -8  102.18   18.42
  -6  -2   8  122.04   21.14
  -6  -2   8   85.52   18.44
   6   2   8  103.34   20.65
  -6   2  -8  106.98   20.93
   6  -2   8  101.16   21.90
  -6   2   8  152.84   23.48
  -6  -2  -8  109.66   20.47
   6   2  -8  100.64   20.27
   6  -4  -8    9.17   13.30
  -6   4  -8   32.55   19.06
  -6  -4   8   15.44   16.41
   6   4   8   48.48   19.74
   6   4  -8   47.64   20.62
  -6   4   8   38.24   21.00
   6  -4   8   89.67   25.46
  -6  -4  -8   17.71   21.98
  -7  -1   8   79.78   18.34
   7   1   8   49.44   18.78
   7  -1  -8   49.89   16.77
  -7  -1   8   48.87   14.91
   7  -1   8   15.74   17.52
  -7  -1  -8   31.19   14.53
   7   1  -8   20.72   14.70
  -7   1   8   62.85   20.49
  -7  -3   8   18.62   19.54
   7  -3  -8   10.72   13.97
   7   3   8   40.86   21.51
  -7   3  -8    2.05   20.59
  -7  -3   8   39.15   18.29
   7  -3   8   32.91   23.34
  -7  -3  -8   24.76   19.36
  -7   3   8   79.89   24.71
   7   3  -8   38.09   21.01
  -8   0  -8   88.73   21.60
   8   0  -8   28.18   20.17
  -8   0   8  125.59   24.67
   8   0   8   84.14   25.31
   0   1   9  120.37   18.29
   0   1   9  137.05   19.49
   0   1  -9  131.16   19.45
   0  -1   9  125.48   18.51
   0   1  -9  138.22   20.46
   0  -1  -9  119.57   17.82
   0  -3   9   44.70   12.92
   0   3  -9   88.38   16.26
   0   3   9   80.76   16.10
   0  -3  -9   68.27   13.29
   0   3   9   74.30   11.95
   0  -5  -9   10.06   11.80
   0   5   9   16.95   16.34
   0  -5   9   21.49   13.19
   0   5  -9   -1.09   14.57
  -1   0   9   17.39    8.55
  -1   0  -9   34.47    7.93
   1   0   9   18.69    7.88
  -1   0   9   13.99    7.37
   1   0  -9    6.08    6.90
   1   2   9   -1.18    8.41
  -1  -2   9    2.23    8.00
  -1   2  -9   11.49    9.44
  -1   2  -9    8.91    4.28
   1  -2  -9   -0.47    6.89
  -1   2   9   -3.01    8.70
  -1  -2  -9    7.76    7.31
   1   2  -9   17.73    9.64
   1  -2   9   -5.15    8.47
  -1  -4   9   18.73   10.26
   1  -4  -9   12.46    9.01
  -1   4  -9    5.84   12.62
   1   4   9   21.97   10.73
  -1   4   9   11.63   13.28
   1   4  -9    6.42   12.97
   1  -4   9   -2.54   10.01
  -1  -4  -9   14.14   10.26
  -2  -1   9  313.40   34.77
   2  -1  -9  275.45   33.42
  -2   1  -9  235.77   32.60
  -2  -1   9  302.88   32.19
   2   1   9  226.32   32.72
  -2   1  -9  304.25   34.18
  -2  -1  -9  271.56   32.61
   2   1  -9  284.75   33.72
   2  -1   9  249.14   33.09
  -2  -1  -9  252.04   34.86
  -2   1   9  252.79   31.25
  -2   1   9  273.78   35.17
   2   3   9  158.98   23.35
  -2  -3   9  128.67   22.72
  -2   3  -9  205.94   26.66
  -2  -3  -9  180.97   23.70
  -2   5  -9   57.25   19.84
   2  -5  -9   46.06   15.09
  -2  -5   9   76.98   18.02
  -2  -5  -9   85.80   18.97
   2   5  -9   88.22   21.63
  -2   5   9   75.13   20.52
   2  -5   9   50.59   16.63
   3   0  -9    3.70    8.33
  -3   0   9    4.70    8.93
  -3   0  -9   -2.65    9.18
   3   0   9  -19.16    8.13
  -3   0  -9   -4.55    6.88
  -3   0   9   -2.33    6.48
   3  -2  -9    1.18    8.01
  -3   2  -9    6.54   10.02
  -3  -2   9  -10.44    8.67
   3   2   9    6.61   10.57
  -3  -2   9   -5.68    7.62
  -3  -2  -9   12.06    9.39
   3  -2   9   10.00   10.42
   3   2  -9    5.76    9.55
  -3   2   9    9.93   10.88
  -3  -2  -9    2.62   10.92
  -3  -4   9    6.24   11.59
  -3   4  -9   21.24   14.05
   3  -4  -9  -11.62    9.68
   3   4   9   12.54   13.99
   3  -4   9  -18.21   13.19
  -3   4   9  -18.47   15.30
   3   4  -9  -10.37   13.31
  -3  -4  -9   19.47   14.53
  -3  -4  -9  -36.93   12.61
  -4   1  -9  103.26   16.64
   4   1   9   81.52   17.55
  -4   1  -9  118.85   18.99
  -4  -1   9  157.63   20.96
  -4  -1   9   92.79   16.48
  -4  -1  -9  113.83   17.79
  -4  -1  -9  101.47   18.24
  -4   1   9  138.45   20.16
   4   1  -9   77.73   17.22
   4  -3  -9   69.57   14.81
  -4  -3   9   69.31   14.67
  -4   3  -9   62.96   16.32
   4   3  -9   52.19   16.55
  -4  -3  -9   74.89   18.63
  -4   3   9  103.42   19.60
   4  -3   9   44.65   16.68
   4  -5  -9    2.30   15.67
  -4   5  -9   38.69   18.71
  -4  -5   9   19.27   17.71
   4   5   9  -17.59   20.98
  -4   5   9   29.87   19.56
   4   5  -9   41.08   22.40
   4  -5   9   48.53   19.78
  -4  -5  -9   28.29   20.52
   5   0  -9    9.51   10.75
  -5   0   9   26.63   11.82
  -5   0  -9   13.77   10.67
  -5   0   9   28.40    9.04
  -5   0  -9   22.64   11.99
   5   0   9   -3.03   12.83
  -5   2  -9    5.58   14.23
   5   2   9   10.75   13.28
   5  -2  -9   14.26   11.86
  -5  -2   9   19.65   12.08
  -5  -2   9   -8.35   11.92
   5  -2   9   14.71   13.43
  -5  -2  -9   20.25   15.10
   5   2  -9   -4.33   12.14
  -5   2   9    3.66   14.34
   5  -4  -9    5.81   12.98
  -5  -4   9   -6.03   15.53
  -5   4  -9    0.35   18.36
   5   4   9   13.81   19.34
   5  -4   9   -4.87   17.95
  -5   4   9   -2.37   18.76
   5   4  -9   -5.10   17.29
  -5  -4  -9  -29.20   21.34
  -6  -1   9  136.65   20.71
   6   1   9  126.79   24.04
  -6   1  -9  168.11   23.93
   6  -1  -9  105.56   22.06
  -6  -1   9  136.50   24.61
  -6   1  -9  128.36   22.10
  -6  -1  -9  153.68   23.84
  -6   1   9  100.19   24.11
   6   1  -9  139.33   22.65
   6  -1   9  111.08   24.14
  -6  -3   9   79.34   18.29
   6   3   9   67.36   21.81
   6  -3  -9   31.03   14.51
  -6   3  -9   38.10   20.89
   6  -3   9   48.82   24.98
   6   3  -9   85.06   21.80
  -6   3   9   54.89   22.72
  -6  -3  -9   60.03   21.68
  -7   0   9  -20.46   19.01
   7   0   9    4.17   18.54
  -7   0  -9   27.86   14.96
   7   0  -9  -41.10   15.35
   7  -2  -9   -6.78   15.51
   7   2   9   -9.67   18.48
  -7  -2   9    1.91   19.84
  -7  -2  -9   -2.20   17.07
   7   2  -9   -0.81   16.66
  -7   2   9   -3.93   22.98
   7  -2   9  -11.58   22.53
   0   0  10  138.16   19.71
   0  -2  10  144.81   21.67
   0   2  10  151.09   23.66
   0  -2 -10  138.12   21.23
   0   2  10  155.73   21.99
   0  -4  10   72.90   17.48
   0  -4 -10   96.10   18.91
   0   4  10   96.64   22.14
   0   4 -10  145.38   23.53
  -1  -1  10    5.21    8.07
   1   1  10    0.04    8.99
   1  -1 -10   -2.81    8.36
  -1  -1  10    2.71    7.49
  -1   1 -10    0.18    6.45
  -1   1 -10   -0.78    9.79
   1   1 -10    3.15    9.88
   1  -1  10    1.93    9.27
  -1   1  10    3.74    9.77
  -1   1  10    4.26    8.10
  -1  -1 -10    1.69    8.36
  -1   3 -10   -6.15   12.65
   1   3  10    8.57   10.08
   1  -3 -10   -8.38    9.12
  -1  -3  10   -0.75    9.67
  -1  -3 -10  -10.66    9.26
   1  -3  10    3.26   10.44
  -1   3  10   21.16   12.94
   1   3 -10    4.14   12.09
   1  -5 -10   16.83   13.86
  -1  -5  10   12.24   14.74
  -1   5 -10   26.29   21.64
   1  -5  10  -10.98   14.46
   1   5 -10   34.29   18.62
  -1  -5 -10    2.89   15.74
  -1   5  10   -1.67   19.12
  -2   0  10  105.21   19.17
  -2   0 -10  185.90   21.73
  -2   0 -10  119.74   18.32
   2   0  10   97.71   18.15
   2   0 -10  132.64   19.60
  -2   0  10  111.83   17.46
  -2  -2  10   85.07   17.40
  -2  -2  10  109.42   16.49
  -2   2 -10  137.48   21.35
   2   2  10  109.46   19.75
   2  -2 -10  122.22   18.64
   2   2 -10  104.84   19.83
  -2   2  10   98.95   20.51
  -2  -2 -10  147.69   19.23
  -2  -2 -10  107.24   21.04
   2  -4 -10   33.41   13.54
  -2  -4  10   67.52   15.55
  -2   4 -10   63.95   18.90
   2  -4  10   56.10   15.63
  -2  -4 -10   24.92   16.13
  -2   4  10   29.83   17.72
   2   4 -10   60.09   17.72
  -3   1 -10    2.60    9.99
  -3  -1  10   -3.87    9.41
   3  -1 -10    3.41    9.44
  -3   1 -10   11.76    8.19
   3   1  10   -6.86   11.89
  -3  -1  10   18.44   11.34
  -3  -1 -10    2.54    9.87
  -3  -1 -10   10.22   10.75
   3   1 -10   11.03    8.93
  -3   1  10    6.05   12.19
  -3  -3  10    0.85   11.80
   3  -3 -10    6.41   11.28
   3   3  10    9.71   13.47
  -3   3 -10   25.41   14.30
   3   3 -10   17.40   13.27
  -3   3  10  -17.41   14.80
   3  -3  10    0.46   13.92
  -3  -3 -10   39.78   18.05
  -3  -3 -10   -9.72   14.42
   4   0 -10  138.05   23.66
   4   0  10  124.13   23.68
  -4   0  10  161.08   22.35
  -4   0  10  196.63   28.05
  -4   0 -10  162.77   24.83
  -4   0 -10  166.22   24.23
  -4  -2  10  129.85   22.11
   4   2  10  143.26   23.52
  -4  -2  10  113.62   21.43
   4  -2 -10  117.46   21.91
   4  -2  10  119.61   22.29
  -4  -2 -10  179.60   23.79
  -4   2  10  160.58   24.17
   4   2 -10  115.32   22.50
  -4  -2 -10  124.02   24.38
   4   4  10   88.26   22.28
   4  -4 -10   66.81   17.22
  -4   4 -10   48.47   21.43
  -4  -4  10   64.70   18.42
  -4   4  10   38.80   22.13
   4   4 -10   78.17   20.45
   4  -4  10   62.49   19.72
  -4  -4 -10   86.17   23.99
  -5  -1  10   -5.83   12.12
  -5  -1  10   12.05   14.30
   5   1  10    3.19   14.23
   5  -1 -10  -17.84   11.94
  -5   1 -10  -13.09   14.66
  -5   1 -10   12.66   12.04
   5  -1  10    2.65   13.83
  -5  -1 -10   -1.99   13.32
  -5   1  10   11.58   16.00
   5   1 -10   10.69   12.86
   5  -3 -10    0.37   12.61
  -5   3 -10   10.75   18.85
   5   3  10   20.94   19.51
  -5  -3  10   -6.33   13.68
   5  -3  10    1.53   18.37
  -5  -3 -10   21.14   20.12
  -5   3  10  -28.18   17.48
   5   3 -10   -7.72   17.25
   6   0  10   49.20   19.26
  -6   0  10   77.20   21.87
   6   0 -10   33.54   15.24
  -6   0 -10   41.74   16.07
   6  -2 -10   43.87   19.08
   6   2  10   76.72   22.01
  -6  -2  10  101.02   21.16
  -6   2 -10   79.70   23.42
   6  -2  10   54.82   22.00
  -6  -2 -10   82.48   22.37
  -6   2  10   59.45   23.16
   6   2 -10   75.97   20.51
   0  -1 -11  160.57   24.90
   0   1  11  166.37   23.43
   0  -1  11  138.53   22.18
   0   1 -11  147.65   24.12
   0   3 -11  116.17   21.95
   0  -3 -11   83.14   16.95
   0  -3  11   81.56   18.49
   0   3  11   79.69   19.67
  -1   0  11   10.41   10.70
  -1   0 -11   12.32   11.26
   1   0 -11   15.64    9.97
  -1   0 -11   26.68   14.07
  -1   0  11   31.67   11.51
   1   0  11   42.19   11.76
  -1   2 -11   28.03   14.37
   1  -2 -11   17.89   11.84
   1   2  11   25.48   14.11
   1  -2  11   15.04   11.68
   1   2 -11   -5.34   13.53
  -1   2  11   24.82   13.59
  -1  -4  11   18.44   13.40
  -1   4 -11    9.93   18.75
   1  -4 -11    3.59   13.57
   1   4 -11   -5.78   16.48
  -1   4  11  -45.73   15.78
  -1  -4 -11    5.17   15.21
   1  -4  11    7.96   12.84
   2  -1 -11   70.69   17.90
  -2   1 -11  137.39   20.61
  -2   1 -11  118.67   16.52
  -2  -1  11   87.19   17.63
  -2  -1  11   86.61   17.10
   2   1  11   87.01   19.39
   2   1 -11  137.98   19.94
   2  -1  11   92.59   17.61
  -2  -1 -11  107.74   20.45
  -2  -1 -11   91.00   19.57
  -2   1  11  116.91   20.44
  -2  -3  11   50.66   14.69
   2  -3 -11   44.76   14.33
  -2   3 -11   71.21   19.04
   2   3  11   87.05   17.86
  -2  -3 -11   84.69   23.00
  -2   3  11   53.28   18.16
   2   3 -11   11.65   16.59
   2  -3  11   77.08   17.53
  -3   0 -11   13.43   14.52
  -3   0  11   18.61   11.51
  -3   0 -11   18.80   11.34
   3   0 -11   29.99   13.26
  -3   0  11   14.03   14.55
   3   0  11    0.79   13.22
   3   2  11   15.06   17.04
  -3   2 -11   22.15   15.51
   3  -2 -11    9.29   12.54
  -3  -2 -11   -7.44   16.12
   3  -2  11   19.75   13.40
  -3  -2 -11  -16.61   15.34
   3   2 -11    7.94   13.84
  -3   2  11  -11.06   16.22
  -4  -1  11  116.39   19.55
   4   1  11   69.39   21.33
   4  -1 -11   77.49   19.69
  -4  -1  11  107.96   21.34
  -4   1 -11  148.44   23.14
  -4  -1 -11  111.57   21.28
   4   1 -11  105.43   21.18
  -4   1  11  118.51   22.69
   4  -1  11   67.95   20.07
  -4  -1 -11  132.50   22.70
   4   3  11   73.86   22.38
  -4   3 -11   74.22   23.10
   4  -3 -11   46.36   16.60
  -4  -3  11   67.58   17.75
  -4  -3 -11   35.55   23.65
   4   3 -11   85.81   20.04
   4  -3  11   68.35   20.51
  -4   3  11   36.96   22.42
   5   0  11    0.06   17.20
  -5   0 -11   39.68   15.28
   5   0 -11   29.01   16.20
  -5   0  11    9.01   18.55
   5   2  11    2.00   21.34
  -5  -2  11   24.66   16.82
  -5   2 -11   34.53   20.92
   5  -2 -11  -12.50   15.13
   5   2 -11   53.34   18.65
  -5   2  11   14.42   20.30
   5  -2  11    9.91   20.41
  -5  -2 -11   20.57   20.83
   0   0 -12   27.88   14.18
   0   0  12   47.72   14.31
   0  -2  12   24.39   15.31
   0  -2 -12   15.24   13.86
   0   2 -12   11.65   15.18
   1   1  12   24.42   16.55
   1  -1 -12   49.12   16.21
  -1  -1  12   55.99   16.06
  -1   1 -12   53.32   17.62
   1  -1  12   51.39   15.40
   1   1 -12   63.56   18.05
  -1  -1 -12   66.20   17.07
   1  -3 -12   31.86   15.67
  -1  -3  12   28.02   15.66
  -1   3 -12   20.39   19.99
  -1  -3 -12   18.72   16.31
   1   3 -12   26.86   16.98
   1  -3  12   15.29   15.97
  -1   3  12   10.78   16.42
   2   0  12   68.05   20.73
  -2   0  12  128.93   21.05
  -2   0 -12   94.43   18.95
   2   0 -12  104.18   19.93
  -2   0 -12   98.86   22.59
  -2   2 -12   93.45   22.11
  -2  -2  12   60.46   19.06
   2  -2 -12   31.99   17.02
   2  -2  12   79.88   19.66
  -2   2  12   94.92   22.09
  -2  -2 -12  128.85   21.09
   2   2 -12   77.10   19.69
  -2  -2 -12   99.79   22.81
   3  -1 -12   23.10   16.58
  -3   1 -12   55.71   20.04
   3   1  12   41.32   19.84
  -3  -1 -12   25.75   19.04
   3  -1  12   65.25   17.20
  -3  -1 -12   29.40   17.85
  -3   1  12   31.04   20.81
   3   1 -12   38.76   16.07
   4   0  12    5.58   17.69
   4   0 -12   -2.72   16.85
  -4   0  12   15.15   20.88
  -4   0 -12   60.55   23.13
   0   1 -13   21.85   17.36
   0  -1 -13   42.73   16.54
   0  -1  13    2.60   16.74
   1   0  13   91.63   22.79
  -1   0 -13  114.39   23.02
   1   0 -13   90.18   21.32
  -2   1 -13    1.35   17.85
   2   1  13   42.64   21.72
   2  -1 -13    0.64   17.19
  -2   1  13   19.27   20.40
  -2  -1 -13  -18.61   20.11
   2  -1  13   41.81   18.52
   2   1 -13    7.90   18.50
  -2  -1 -13   60.98   21.88
   0   0   0    0.00    0.00
;
_shelx_hkl_checksum              3532
#END Tags that were not found in dictionaries
loop_
_space_group_symop_operation_xyz
'x, y, z'
'-x, -y+1/2, z'
'-x, y+1/2, -z'
'x, -y, -z'
'x+1/2, y+1/2, z+1/2'
'-x+1/2, -y+1, z+1/2'
'-x+1/2, y+1, -z+1/2'
'x+1/2, -y+1/2, -z+1/2'
'-x, -y, -z'
'x, y-1/2, -z'
'x, -y-1/2, z'
'-x, y, z'
'-x+1/2, -y+1/2, -z+1/2'
'x+1/2, y, -z+1/2'
'x+1/2, -y, z+1/2'
'-x+1/2, y+1/2, z+1/2'
loop_
_atom_site_label
_atom_site_type_symbol
_atom_site_fract_x
_atom_site_fract_y
_atom_site_fract_z
_atom_site_U_iso_or_equiv
_atom_site_adp_type
_atom_site_occupancy
_atom_site_site_symmetry_order
_atom_site_calc_flag
_atom_site_refinement_flags_posn
_atom_site_refinement_flags_adp
_atom_site_refinement_flags_occupancy
Gd1 Gd 0.5000 0.2500 0.69896(8) 0.0156(3) Uani 0.99 4 d S T P
Eu1 Eu 0.5000 0.2500 0.69896(8) 0.0156(3) Uani 0.01 4 d S T P
Si1 Si 0.2714(9) 0.2500 0.4136(6) 0.0082(11) Uani 0.5 2 d S T P
O1 O 0.5000 0.177(2) 0.4451(14) 0.015(3) Uani 0.5 2 d S T P
O2 O 0.221(2) 0.008(2) 0.3214(10) 0.032(3) Uani 0.5 1 d . . P
O3 O 0.166(2) 0.2500 0.5725(15) 0.028(4) Uani 0.5 2 d S TU P
Na1 Na 0.1662(14) 0.2500 0.4298(9) 0.018(2) Uani 0.5 2 d S T P
loop_
_atom_site_aniso_label
_atom_site_aniso_U_11
_atom_site_aniso_U_22
_atom_site_aniso_U_33
_atom_site_aniso_U_23
_atom_site_aniso_U_13
_atom_site_aniso_U_12
Gd1 0.0056(4) 0.0342(5) 0.0071(3) 0.000 0.000 0.000
Eu1 0.0056(4) 0.0342(5) 0.0071(3) 0.000 0.000 0.000
Si1 0.005(3) 0.012(3) 0.007(2) 0.000 -0.003(2) 0.000
O1 0.012(6) 0.014(9) 0.017(7) 0.001(5) 0.000 0.000
O2 0.060(9) 0.007(5) 0.027(6) -0.004(4) -0.024(6) 0.005(5)
O3 0.025(7) 0.054(8) 0.006(6) 0.000 0.000(5) 0.000
Na1 0.005(4) 0.030(5) 0.018(5) 0.000 -0.004(4) 0.000
loop_
_atom_type_symbol
_atom_type_description
_atom_type_scat_dispersion_real
_atom_type_scat_dispersion_imag
_atom_type_scat_source
O O 0.0106 0.0060 'International Tables Vol C Tables 4.2.6.8 and 6.1.1.4'
Na Na 0.0362 0.0249 'International Tables Vol C Tables 4.2.6.8 and 6.1.1.4'
Si Si 0.0817 0.0704 'International Tables Vol C Tables 4.2.6.8 and 6.1.1.4'
Gd Gd -0.1653 3.9035 'International Tables Vol C Tables 4.2.6.8 and 6.1.1.4'
Eu Eu -0.1578 3.6682 'International Tables Vol C Tables 4.2.6.8 and 6.1.1.4'
loop_
_geom_angle_atom_site_label_1
_geom_angle_atom_site_label_2
_geom_angle_atom_site_label_3
_geom_angle
_geom_angle_site_symmetry_1
_geom_angle_site_symmetry_3
O2 Gd1 O2 122.8(5) 5 6_545
O2 Gd1 O2 73.7(6) 5 15
O2 Gd1 O2 79.8(6) 6_545 15
O2 Gd1 O2 79.8(6) 5 16
O2 Gd1 O2 73.7(6) 6_545 16
O2 Gd1 O2 122.8(5) 15 16
O2 Gd1 O1 111.7(3) 5 2_655
O2 Gd1 O1 125.0(3) 6_545 2_655
O2 Gd1 O1 125.0(3) 15 2_655
O2 Gd1 O1 111.7(3) 16 2_655
O2 Gd1 O1 125.0(3) 5 .
O2 Gd1 O1 111.7(3) 6_545 .
O2 Gd1 O1 111.7(3) 15 .
O2 Gd1 O1 125.0(3) 16 .
O1 Gd1 O1 19.5(6) 2_655 .
O2 Gd1 O2 155.1(3) 5 4_556
O2 Gd1 O2 33.7(5) 6_545 4_556
O2 Gd1 O2 101.3(4) 15 4_556
O2 Gd1 O2 83.0(4) 16 4_556
O1 Gd1 O2 91.3(3) 2_655 4_556
O1 Gd1 O2 79.8(3) . 4_556
O2 Gd1 O2 33.7(5) 5 3_656
O2 Gd1 O2 155.1(3) 6_545 3_656
O2 Gd1 O2 83.0(4) 15 3_656
O2 Gd1 O2 101.3(4) 16 3_656
O1 Gd1 O2 79.8(3) 2_655 3_656
O1 Gd1 O2 91.3(3) . 3_656
O2 Gd1 O2 171.0(4) 4_556 3_656
O2 Gd1 O2 101.3(4) 5 10_566
O2 Gd1 O2 83.0(4) 6_545 10_566
O2 Gd1 O2 155.1(3) 15 10_566
O2 Gd1 O2 33.7(5) 16 10_566
O1 Gd1 O2 79.8(3) 2_655 10_566
O1 Gd1 O2 91.3(3) . 10_566
O2 Gd1 O2 72.6(6) 4_556 10_566
O2 Gd1 O2 106.6(6) 3_656 10_566
O2 Gd1 O2 83.0(4) 5 9_656
O2 Gd1 O2 101.3(4) 6_545 9_656
O2 Gd1 O2 33.7(5) 15 9_656
O2 Gd1 O2 155.1(3) 16 9_656
O1 Gd1 O2 91.3(3) 2_655 9_656
O1 Gd1 O2 79.8(3) . 9_656
O2 Gd1 O2 106.6(6) 4_556 9_656
O2 Gd1 O2 72.6(6) 3_656 9_656
O2 Gd1 O2 171.0(4) 10_566 9_656
O2 Gd1 O3 43.4(3) 5 14_556
O2 Gd1 O3 83.4(4) 6_545 14_556
O2 Gd1 O3 43.4(3) 15 14_556
O2 Gd1 O3 83.4(4) 16 14_556
O1 Gd1 O3 150.1(4) 2_655 14_556
O1 Gd1 O3 150.1(4) . 14_556
O2 Gd1 O3 116.8(4) 4_556 14_556
O2 Gd1 O3 71.8(4) 3_656 14_556
O2 Gd1 O3 116.8(4) 10_566 14_556
O2 Gd1 O3 71.8(4) 9_656 14_556
O2 Gd1 O3 83.4(4) 5 13_556
O2 Gd1 O3 43.4(3) 6_545 13_556
O2 Gd1 O3 83.4(4) 15 13_556
O2 Gd1 O3 43.4(3) 16 13_556
O1 Gd1 O3 150.1(4) 2_655 13_556
O1 Gd1 O3 150.1(4) . 13_556
O2 Gd1 O3 71.8(4) 4_556 13_556
O2 Gd1 O3 116.8(4) 3_656 13_556
O2 Gd1 O3 71.8(4) 10_566 13_556
O2 Gd1 O3 116.8(4) 9_656 13_556
O3 Gd1 O3 56.9(7) 14_556 13_556
Na1 Si1 O2 84.0(7) . 11_565
Na1 Si1 O2 84.0(7) . .
O2 Si1 O2 110.9(8) 11_565 .
Na1 Si1 O3 52.1(10) . .
O2 Si1 O3 112.1(6) 11_565 .
O2 Si1 O3 112.1(6) . .
Na1 Si1 O1 153.9(9) . .
O2 Si1 O1 120.0(7) 11_565 .
O2 Si1 O1 95.5(7) . .
O3 Si1 O1 105.3(8) . .
Na1 Si1 O1 153.9(9) . 2_655
O2 Si1 O1 95.5(7) 11_565 2_655
O2 Si1 O1 120.0(7) . 2_655
O3 Si1 O1 105.3(8) . 2_655
O1 Si1 O1 28.3(8) . 2_655
Na1 Si1 Na1 8.8(7) . 2
O2 Si1 Na1 79.1(6) 11_565 2
O2 Si1 Na1 79.1(6) . 2
O3 Si1 Na1 60.9(6) . 2
O1 Si1 Na1 160.7(5) . 2
O1 Si1 Na1 160.7(5) 2_655 2
Na1 Si1 Gd1 109.2(9) . .
O2 Si1 Gd1 124.1(4) 11_565 .
O2 Si1 Gd1 124.1(4) . .
O3 Si1 Gd1 57.0(6) . .
O1 Si1 Gd1 50.2(5) . .
O1 Si1 Gd1 50.2(5) 2_655 .
Na1 Si1 Gd1 118.0(3) 2 .
Na1 Si1 Na1 71.7(4) . 10_566
O2 Si1 Na1 58.6(4) 11_565 10_566
O2 Si1 Na1 154.0(5) . 10_566
O3 Si1 Na1 59.58(13) . 10_566
O1 Si1 Na1 110.3(5) . 10_566
O1 Si1 Na1 85.7(4) 2_655 10_566
Na1 Si1 Na1 75.60(18) 2 10_566
Gd1 Si1 Na1 74.16(17) . 10_566
Na1 Si1 Na1 71.7(4) . 10_556
O2 Si1 Na1 154.0(5) 11_565 10_556
O2 Si1 Na1 58.6(4) . 10_556
O3 Si1 Na1 59.58(13) . 10_556
O1 Si1 Na1 85.7(4) . 10_556
O1 Si1 Na1 110.3(5) 2_655 10_556
Na1 Si1 Na1 75.60(18) 2 10_556
Gd1 Si1 Na1 74.16(17) . 10_556
Na1 Si1 Na1 119.2(3) 10_566 10_556
Na1 Si1 Na1 109.4(9) . 13
O2 Si1 Na1 60.6(4) 11_565 13
O2 Si1 Na1 60.6(4) . 13
O3 Si1 Na1 161.5(7) . 13
O1 Si1 Na1 92.7(6) . 13
O1 Si1 Na1 92.7(6) 2_655 13
Na1 Si1 Na1 100.5(3) 2 13
Gd1 Si1 Na1 141.5(3) . 13
Na1 Si1 Na1 118.63(14) 10_566 13
Na1 Si1 Na1 118.63(14) 10_556 13
O1 O1 Si1 75.8(4) 2_655 .
O1 O1 Si1 75.8(4) 2_655 2_655
Si1 O1 Si1 144.9(8) . 2_655
O1 O1 Na1 80.0(3) 2_655 2_655
Si1 O1 Na1 152.2(7) . 2_655
Si1 O1 Na1 8.0(3) 2_655 2_655
O1 O1 Na1 80.0(3) 2_655 .
Si1 O1 Na1 8.0(3) . .
Si1 O1 Na1 152.2(7) 2_655 .
Na1 O1 Na1 158.9(6) 2_655 .
O1 O1 Gd1 80.2(3) 2_655 .
Si1 O1 Gd1 97.6(5) . .
Si1 O1 Gd1 97.6(5) 2_655 .
Na1 O1 Gd1 91.7(4) 2_655 .
Na1 O1 Gd1 91.7(4) . .
O1 O1 Gd1 150.5(3) 2_655 9_656
Si1 O1 Gd1 97.3(4) . 9_656
Si1 O1 Gd1 97.3(4) 2_655 9_656
Na1 O1 Gd1 96.9(3) 2_655 9_656
Na1 O1 Gd1 96.9(3) . 9_656
Gd1 O1 Gd1 129.3(5) . 9_656
O1 O1 Eu1 150.5(3) 2_655 9_656
Si1 O1 Eu1 97.3(4) . 9_656
Si1 O1 Eu1 97.3(4) 2_655 9_656
Na1 O1 Eu1 96.9(3) 2_655 9_656
Na1 O1 Eu1 96.9(3) . 9_656
Gd1 O1 Eu1 129.3(5) . 9_656
Gd1 O1 Eu1 0.00(3) 9_656 9_656
O2 O2 Si1 116.0(8) 7_545 .
O2 O2 Na1 128.6(4) 7_545 .
Si1 O2 Na1 25.4(3) . .
O2 O2 O3 126.4(5) 7_545 10_556
Si1 O2 O3 114.6(7) . 10_556
Na1 O2 O3 104.9(7) . 10_556
O2 O2 Gd1 74.4(7) 7_545 5_444
Si1 O2 Gd1 152.1(8) . 5_444
Na1 O2 Gd1 127.5(8) . 5_444
O3 O2 Gd1 69.4(6) 10_556 5_444
O2 O2 Eu1 74.4(7) 7_545 5_444
Si1 O2 Eu1 152.1(8) . 5_444
Na1 O2 Eu1 127.5(8) . 5_444
O3 O2 Eu1 69.4(6) 10_556 5_444
Gd1 O2 Eu1 0.00(3) 5_444 5_444
O2 O2 Gd1 71.9(9) 7_545 9_656
Si1 O2 Gd1 110.8(7) . 9_656
Na1 O2 Gd1 133.1(7) . 9_656
O3 O2 Gd1 74.8(6) 10_556 9_656
Gd1 O2 Gd1 97.0(4) 5_444 9_656
Eu1 O2 Gd1 97.0(4) 5_444 9_656
O2 O2 Eu1 71.9(9) 7_545 9_656
Si1 O2 Eu1 110.8(7) . 9_656
Na1 O2 Eu1 133.1(7) . 9_656
O3 O2 Eu1 74.8(6) 10_556 9_656
Gd1 O2 Eu1 97.0(4) 5_444 9_656
Eu1 O2 Eu1 97.0(4) 5_444 9_656
Gd1 O2 Eu1 0.00(3) 9_656 9_656
O2 O2 Na1 147.8(4) 7_545 10_556
Si1 O2 Na1 90.9(4) . 10_556
Na1 O2 Na1 83.3(4) . 10_556
O3 O2 Na1 23.7(4) 10_556 10_556
Gd1 O2 Na1 90.2(4) 5_444 10_556
Eu1 O2 Na1 90.2(4) 5_444 10_556
Gd1 O2 Na1 82.4(4) 9_656 10_556
Eu1 O2 Na1 82.4(4) 9_656 10_556
O2 O2 Na1 28.7(3) 7_545 13
Si1 O2 Na1 89.0(5) . 13
Na1 O2 Na1 100.0(6) . 13
O3 O2 Na1 155.0(7) 10_556 13
Gd1 O2 Na1 93.9(3) 5_444 13
Eu1 O2 Na1 93.9(3) 5_444 13
Gd1 O2 Na1 89.7(4) 9_656 13
Eu1 O2 Na1 89.7(4) 9_656 13
Na1 O2 Na1 171.5(6) 10_556 13
Na1 O3 Si1 26.3(5) . .
Na1 O3 O2 123.7(6) . 10_566
Si1 O3 O2 113.9(7) . 10_566
Na1 O3 O2 123.7(6) . 4_556
Si1 O3 O2 113.9(7) . 4_556
O2 O3 O2 107.1(10) 10_566 4_556
Na1 O3 Eu1 151.5(12) . 13_556
Si1 O3 Eu1 177.8(9) . 13_556
O2 O3 Eu1 67.2(6) 10_566 13_556
O2 O3 Eu1 67.2(6) 4_556 13_556
Na1 O3 Gd1 151.5(12) . 13_556
Si1 O3 Gd1 177.8(9) . 13_556
O2 O3 Gd1 67.2(6) 10_566 13_556
O2 O3 Gd1 67.2(6) 4_556 13_556
Eu1 O3 Gd1 0.000(16) 13_556 13_556
Na1 O3 Gd1 117.0(10) . .
Si1 O3 Gd1 90.7(7) . .
O2 O3 Gd1 63.9(6) 10_566 .
O2 O3 Gd1 63.9(6) 4_556 .
Eu1 O3 Gd1 91.5(4) 13_556 .
Gd1 O3 Gd1 91.5(4) 13_556 .
Na1 O3 Na1 60.0(8) . 2
Si1 O3 Na1 86.2(6) . 2
O2 O3 Na1 117.4(7) 10_566 2
O2 O3 Na1 117.4(7) 4_556 2
Eu1 O3 Na1 91.5(6) 13_556 2
Gd1 O3 Na1 91.5(6) 13_556 2
Gd1 O3 Na1 177.0(6) . 2
Na1 O3 Na1 89.6(3) . 10_566
Si1 O3 Na1 89.6(4) . 10_566
O2 O3 Na1 36.9(4) 10_566 10_566
O2 O3 Na1 144.0(8) 4_556 10_566
Eu1 O3 Na1 90.4(4) 13_556 10_566
Gd1 O3 Na1 90.4(4) 13_556 10_566
Gd1 O3 Na1 90.2(4) . 10_566
Na1 O3 Na1 89.8(4) 2 10_566
Na1 O3 Na1 89.6(3) . 10_556
Si1 O3 Na1 89.6(4) . 10_556
O2 O3 Na1 144.0(8) 10_566 10_556
O2 O3 Na1 36.9(4) 4_556 10_556
Eu1 O3 Na1 90.4(4) 13_556 10_556
Gd1 O3 Na1 90.4(4) 13_556 10_556
Gd1 O3 Na1 90.2(4) . 10_556
Na1 O3 Na1 89.8(4) 2 10_556
Na1 O3 Na1 179.1(7) 10_566 10_556
Si1 Na1 O3 101.6(12) . .
Si1 Na1 O2 70.6(7) . 11_565
O3 Na1 O2 125.8(5) . 11_565
Si1 Na1 O2 70.6(7) . .
O3 Na1 O2 125.8(5) . .
O2 Na1 O2 102.7(9) 11_565 .
Si1 Na1 Na1 168.4(9) . 2
O3 Na1 Na1 90.0(8) . 2
O2 Na1 Na1 102.6(6) 11_565 2
O2 Na1 Na1 102.6(6) . 2
Si1 Na1 O1 18.1(7) . .
O3 Na1 O1 86.5(9) . .
O2 Na1 O1 87.4(7) 11_565 .
O2 Na1 O1 71.7(6) . .
Na1 Na1 O1 169.5(3) 2 .
Si1 Na1 O1 18.1(6) . 2_655
O3 Na1 O1 86.5(9) . 2_655
O2 Na1 O1 71.7(6) 11_565 2_655
O2 Na1 O1 87.5(7) . 2_655
Na1 Na1 O1 169.5(3) 2 2_655
O1 Na1 O1 19.9(6) . 2_655
Si1 Na1 O3 161.7(11) . 2
O3 Na1 O3 60.0(10) . 2
O2 Na1 O3 118.8(6) 11_565 2
O2 Na1 O3 118.8(6) . 2
Na1 Na1 O3 30.0(4) 2 2
O1 Na1 O3 145.2(6) . 2
O1 Na1 O3 145.2(6) 2_655 2
Si1 Na1 O2 92.1(8) . 10_566
O3 Na1 O2 32.6(3) . 10_566
O2 Na1 O2 93.2(4) 11_565 10_566
O2 Na1 O2 150.4(7) . 10_566
Na1 Na1 O2 97.9(4) 2 10_566
O1 Na1 O2 84.5(5) . 10_566
O1 Na1 O2 74.0(5) 2_655 10_566
O3 Na1 O2 72.4(4) 2 10_566
Si1 Na1 O2 92.1(8) . 4_556
O3 Na1 O2 32.6(3) . 4_556
O2 Na1 O2 150.4(7) 11_565 4_556
O2 Na1 O2 93.3(4) . 4_556
Na1 Na1 O2 97.9(4) 2 4_556
O1 Na1 O2 74.0(5) . 4_556
O1 Na1 O2 84.5(5) 2_655 4_556
O3 Na1 O2 72.4(4) 2 4_556
O2 Na1 O2 62.7(5) 10_566 4_556
Si1 Na1 O3 89.9(4) . 10_556
O3 Na1 O3 90.4(3) . 10_556
O2 Na1 O3 140.9(6) 11_565 10_556
O2 Na1 O3 38.2(5) . 10_556
Na1 Na1 O3 90.0(4) 2 10_556
O1 Na1 O3 80.1(5) . 10_556
O1 Na1 O3 100.0(5) 2_655 10_556
O3 Na1 O3 90.2(4) 2 10_556
O2 Na1 O3 121.8(5) 10_566 10_556
O2 Na1 O3 59.1(4) 4_556 10_556
Si1 Na1 O3 89.9(4) . 10_566
O3 Na1 O3 90.4(3) . 10_566
O2 Na1 O3 38.2(5) 11_565 10_566
O2 Na1 O3 140.9(6) . 10_566
Na1 Na1 O3 90.0(4) 2 10_566
O1 Na1 O3 100.0(5) . 10_566
O1 Na1 O3 80.1(5) 2_655 10_566
O3 Na1 O3 90.2(4) 2 10_566
O2 Na1 O3 59.1(4) 10_566 10_566
O2 Na1 O3 121.8(5) 4_556 10_566
O3 Na1 O3 179.1(7) 10_556 10_566
loop_
_geom_bond_atom_site_label_1
_geom_bond_atom_site_label_2
_geom_bond_distance
_geom_bond_site_symmetry_2
Gd1 O2 2.341(12) 5
Gd1 O2 2.341(12) 6_545
Gd1 O2 2.341(12) 15
Gd1 O2 2.341(12) 16
Gd1 O1 2.355(13) 2_655
Gd1 O1 2.355(13) .
Gd1 O2 2.372(13) 4_556
Gd1 O2 2.372(13) 3_656
Gd1 O2 2.372(13) 10_566
Gd1 O2 2.372(13) 9_656
Gd1 O3 2.376(14) 14_556
Gd1 O3 2.376(14) 13_556
Si1 Na1 0.731(8) .
Si1 O2 1.606(11) 11_565
Si1 O2 1.606(11) .
Si1 O3 1.619(15) .
Si1 O1 1.632(7) .
Si1 O1 1.632(7) 2_655
Si1 Na1 2.981(14) 2
Si1 Na1 3.162(4) 10_566
Si1 Na1 3.162(4) 10_556
Si1 Na1 3.168(9) 13
O1 O1 0.80(2) 2_655
O1 Si1 1.632(7) 2_655
O1 Na1 2.311(10) 2_655
O1 Na1 2.311(10) .
O1 Gd1 2.674(12) 9_656
O1 Eu1 2.674(12) 9_656
O2 O2 1.37(2) 7_545
O2 Na1 1.693(12) .
O2 O3 1.746(14) 10_556
O2 Gd1 2.341(12) 5_444
O2 Eu1 2.341(12) 5_444
O2 Gd1 2.372(13) 9_656
O2 Eu1 2.372(13) 9_656
O2 Na1 2.699(12) 10_556
O2 Na1 2.760(13) 13
O3 Na1 1.305(15) .
O3 O2 1.746(14) 10_566
O3 O2 1.746(14) 4_556
O3 Eu1 2.376(14) 13_556
O3 Gd1 2.376(14) 13_556
O3 Na1 2.611(17) 2
O3 Na1 2.7265(5) 10_566
O3 Na1 2.7265(5) 10_556
Na1 O2 1.693(12) 11_565
Na1 Na1 2.26(2) 2
Na1 O1 2.311(10) 2_655
Na1 O3 2.611(17) 2
Na1 O2 2.699(12) 10_566
Na1 O2 2.699(12) 4_556
Na1 O3 2.7265(5) 10_556
Na1 O3 2.7265(5) 10_566
loop_
_geom_torsion_atom_site_label_1
_geom_torsion_atom_site_label_2
_geom_torsion_atom_site_label_3
_geom_torsion_atom_site_label_4
_geom_torsion
_geom_torsion_site_symmetry_1
_geom_torsion_site_symmetry_4
Na1 Si1 O1 O1 -121.1(16) . 2_655
O2 Si1 O1 O1 33.4(5) 11_565 2_655
O2 Si1 O1 O1 151.4(5) . 2_655
O3 Si1 O1 O1 -94.0(2) . 2_655
Na1 Si1 O1 O1 -136.0(16) 2 2_655
Gd1 Si1 O1 O1 -77.9(4) . 2_655
Na1 Si1 O1 O1 -31.25(17) 10_566 2_655
Na1 Si1 O1 O1 -150.80(18) 10_556 2_655
Na1 Si1 O1 O1 90.68(15) 13 2_655
Na1 Si1 O1 Si1 -158.1(12) . 2_655
O2 Si1 O1 Si1 -3.6(19) 11_565 2_655
O2 Si1 O1 Si1 114.3(14) . 2_655
O3 Si1 O1 Si1 -131.0(14) . 2_655
O1 Si1 O1 Si1 -37.0(16) 2_655 2_655
Na1 Si1 O1 Si1 -173.0(5) 2 2_655
Gd1 Si1 O1 Si1 -114.9(16) . 2_655
Na1 Si1 O1 Si1 -68.3(16) 10_566 2_655
Na1 Si1 O1 Si1 172.2(15) 10_556 2_655
Na1 Si1 O1 Si1 53.6(15) 13 2_655
Na1 Si1 O1 Na1 -151.7(17) . 2_655
O2 Si1 O1 Na1 3(2) 11_565 2_655
O2 Si1 O1 Na1 120.7(16) . 2_655
O3 Si1 O1 Na1 -124.6(16) . 2_655
O1 Si1 O1 Na1 -30.7(17) 2_655 2_655
Na1 Si1 O1 Na1 -166.7(10) 2 2_655
Gd1 Si1 O1 Na1 -108.5(17) . 2_655
Na1 Si1 O1 Na1 -61.9(18) 10_566 2_655
Na1 Si1 O1 Na1 178.5(16) 10_556 2_655
Na1 Si1 O1 Na1 60.0(16) 13 2_655
O2 Si1 O1 Na1 154.5(19) 11_565 .
O2 Si1 O1 Na1 -87.6(14) . .
O3 Si1 O1 Na1 27.1(14) . .
O1 Si1 O1 Na1 121.1(16) 2_655 .
Na1 Si1 O1 Na1 -14.9(7) 2 .
Gd1 Si1 O1 Na1 43.2(17) . .
Na1 Si1 O1 Na1 89.8(15) 10_566 .
Na1 Si1 O1 Na1 -29.7(16) 10_556 .
Na1 Si1 O1 Na1 -148.3(15) 13 .
Na1 Si1 O1 Gd1 -43.2(17) . .
O2 Si1 O1 Gd1 111.3(6) 11_565 .
O2 Si1 O1 Gd1 -130.8(5) . .
O3 Si1 O1 Gd1 -16.1(4) . .
O1 Si1 O1 Gd1 77.9(4) 2_655 .
Na1 Si1 O1 Gd1 -58.1(16) 2 .
Na1 Si1 O1 Gd1 46.6(5) 10_566 .
Na1 Si1 O1 Gd1 -72.9(3) 10_556 .
Na1 Si1 O1 Gd1 168.6(3) 13 .
Na1 Si1 O1 Gd1 88.1(16) . 9_656
O2 Si1 O1 Gd1 -117.4(6) 11_565 9_656
O2 Si1 O1 Gd1 0.6(6) . 9_656
O3 Si1 O1 Gd1 115.3(3) . 9_656
O1 Si1 O1 Gd1 -150.8(2) 2_655 9_656
Na1 Si1 O1 Gd1 73.2(16) 2 9_656
Gd1 Si1 O1 Gd1 131.3(6) . 9_656
Na1 Si1 O1 Gd1 178.0(2) 10_566 9_656
Na1 Si1 O1 Gd1 58.4(3) 10_556 9_656
Na1 Si1 O1 Gd1 -60.1(3) 13 9_656
Na1 Si1 O1 Eu1 88.1(16) . 9_656
O2 Si1 O1 Eu1 -117.4(6) 11_565 9_656
O2 Si1 O1 Eu1 0.6(6) . 9_656
O3 Si1 O1 Eu1 115.3(3) . 9_656
O1 Si1 O1 Eu1 -150.8(2) 2_655 9_656
Na1 Si1 O1 Eu1 73.2(16) 2 9_656
Gd1 Si1 O1 Eu1 131.3(6) . 9_656
Na1 Si1 O1 Eu1 178.0(2) 10_566 9_656
Na1 Si1 O1 Eu1 58.4(3) 10_556 9_656
Na1 Si1 O1 Eu1 -60.1(3) 13 9_656
Na1 Si1 O2 O2 126.1(15) . 7_545
O2 Si1 O2 O2 45(2) 11_565 7_545
O3 Si1 O2 O2 171.0(13) . 7_545
O1 Si1 O2 O2 -80.1(14) . 7_545
O1 Si1 O2 O2 -64.9(15) 2_655 7_545
Na1 Si1 O2 O2 118.7(13) 2 7_545
Gd1 Si1 O2 O2 -124.8(11) . 7_545
Na1 Si1 O2 O2 105.5(18) 10_566 7_545
Na1 Si1 O2 O2 -161.6(16) 10_556 7_545
Na1 Si1 O2 O2 9.9(11) 13 7_545
O2 Si1 O2 Na1 -81.2(10) 11_565 .
O3 Si1 O2 Na1 44.8(9) . .
O1 Si1 O2 Na1 153.8(9) . .
O1 Si1 O2 Na1 169.0(11) 2_655 .
Na1 Si1 O2 Na1 -7.4(6) 2 .
Gd1 Si1 O2 Na1 109.1(9) . .
Na1 Si1 O2 Na1 -20.6(12) 10_566 .
Na1 Si1 O2 Na1 72.3(8) 10_556 .
Na1 Si1 O2 Na1 -116.3(8) 13 .
Na1 Si1 O2 O3 -72.3(11) . 10_556
O2 Si1 O2 O3 -153.4(6) 11_565 10_556
O3 Si1 O2 O3 -27.4(10) . 10_556
O1 Si1 O2 O3 81.5(11) . 10_556
O1 Si1 O2 O3 96.8(11) 2_655 10_556
Na1 Si1 O2 O3 -79.7(9) 2 10_556
Gd1 Si1 O2 O3 36.8(12) . 10_556
Na1 Si1 O2 O3 -92.9(12) 10_566 10_556
Na1 Si1 O2 O3 0.0(7) 10_556 10_556
Na1 Si1 O2 O3 171.5(11) 13 10_556
Na1 Si1 O2 Gd1 19.8(15) . 5_444
O2 Si1 O2 Gd1 -61.4(19) 11_565 5_444
O3 Si1 O2 Gd1 64.6(15) . 5_444
O1 Si1 O2 Gd1 173.6(13) . 5_444
O1 Si1 O2 Gd1 -171.2(11) 2_655 5_444
Na1 Si1 O2 Gd1 12.4(13) 2 5_444
Gd1 Si1 O2 Gd1 128.9(11) . 5_444
Na1 Si1 O2 Gd1 -1(2) 10_566 5_444
Na1 Si1 O2 Gd1 92.1(14) 10_556 5_444
Na1 Si1 O2 Gd1 -96.5(13) 13 5_444
Na1 Si1 O2 Eu1 19.8(15) . 5_444
O2 Si1 O2 Eu1 -61.4(19) 11_565 5_444
O3 Si1 O2 Eu1 64.6(15) . 5_444
O1 Si1 O2 Eu1 173.6(13) . 5_444
O1 Si1 O2 Eu1 -171.2(11) 2_655 5_444
Na1 Si1 O2 Eu1 12.4(13) 2 5_444
Gd1 Si1 O2 Eu1 128.9(11) . 5_444
Na1 Si1 O2 Eu1 -1(2) 10_566 5_444
Na1 Si1 O2 Eu1 92.1(14) 10_556 5_444
Na1 Si1 O2 Eu1 -96.5(13) 13 5_444
Na1 Si1 O2 Gd1 -154.5(8) . 9_656
O2 Si1 O2 Gd1 124.3(6) 11_565 9_656
O3 Si1 O2 Gd1 -109.7(7) . 9_656
O1 Si1 O2 Gd1 -0.7(7) . 9_656
O1 Si1 O2 Gd1 14.5(9) 2_655 9_656
Na1 Si1 O2 Gd1 -161.9(5) 2 9_656
Gd1 Si1 O2 Gd1 -45.4(8) . 9_656
Na1 Si1 O2 Gd1 -175.1(6) 10_566 9_656
Na1 Si1 O2 Gd1 -82.2(5) 10_556 9_656
Na1 Si1 O2 Gd1 89.2(6) 13 9_656
Na1 Si1 O2 Eu1 -154.5(8) . 9_656
O2 Si1 O2 Eu1 124.3(6) 11_565 9_656
O3 Si1 O2 Eu1 -109.7(7) . 9_656
O1 Si1 O2 Eu1 -0.7(7) . 9_656
O1 Si1 O2 Eu1 14.5(9) 2_655 9_656
Na1 Si1 O2 Eu1 -161.9(5) 2 9_656
Gd1 Si1 O2 Eu1 -45.4(8) . 9_656
Na1 Si1 O2 Eu1 -175.1(6) 10_566 9_656
Na1 Si1 O2 Eu1 -82.2(5) 10_556 9_656
Na1 Si1 O2 Eu1 89.2(6) 13 9_656
Na1 Si1 O2 Na1 -72.3(8) . 10_556
O2 Si1 O2 Na1 -153.4(5) 11_565 10_556
O3 Si1 O2 Na1 -27.4(8) . 10_556
O1 Si1 O2 Na1 81.5(6) . 10_556
O1 Si1 O2 Na1 96.8(8) 2_655 10_556
Na1 Si1 O2 Na1 -79.7(4) 2 10_556
Gd1 Si1 O2 Na1 36.8(7) . 10_556
Na1 Si1 O2 Na1 -92.9(9) 10_566 10_556
Na1 Si1 O2 Na1 171.5(6) 13 10_556
Na1 Si1 O2 Na1 116.3(8) . 13
O2 Si1 O2 Na1 35.1(10) 11_565 13
O3 Si1 O2 Na1 161.1(7) . 13
O1 Si1 O2 Na1 -89.9(6) . 13
O1 Si1 O2 Na1 -74.7(7) 2_655 13
Na1 Si1 O2 Na1 108.8(4) 2 13
Gd1 Si1 O2 Na1 -134.7(5) . 13
Na1 Si1 O2 Na1 95.7(10) 10_566 13
Na1 Si1 O2 Na1 -171.5(6) 10_556 13
O2 Si1 O3 Na1 62.7(6) 11_565 .
O2 Si1 O3 Na1 -62.7(6) . .
O1 Si1 O3 Na1 -165.3(4) . .
O1 Si1 O3 Na1 165.3(4) 2_655 .
Na1 Si1 O3 Na1 0.000(4) 2 .
Gd1 Si1 O3 Na1 180.000(2) . .
Na1 Si1 O3 Na1 89.8(4) 10_566 .
Na1 Si1 O3 Na1 -89.8(4) 10_556 .
Na1 Si1 O3 Na1 0.000(3) 13 .
Na1 Si1 O3 O2 -118.4(8) . 10_566
O2 Si1 O3 O2 -55.7(10) 11_565 10_566
O2 Si1 O3 O2 178.9(10) . 10_566
O1 Si1 O3 O2 76.3(9) . 10_566
O1 Si1 O3 O2 46.9(10) 2_655 10_566
Na1 Si1 O3 O2 -118.4(8) 2 10_566
Gd1 Si1 O3 O2 61.6(8) . 10_566
Na1 Si1 O3 O2 -28.6(6) 10_566 10_566
Na1 Si1 O3 O2 151.8(12) 10_556 10_566
Na1 Si1 O3 O2 -118.4(8) 13 10_566
Na1 Si1 O3 O2 118.4(8) . 4_556
O2 Si1 O3 O2 -178.9(10) 11_565 4_556
O2 Si1 O3 O2 55.7(10) . 4_556
O1 Si1 O3 O2 -46.9(10) . 4_556
O1 Si1 O3 O2 -76.3(9) 2_655 4_556
Na1 Si1 O3 O2 118.4(8) 2 4_556
Gd1 Si1 O3 O2 -61.6(8) . 4_556
Na1 Si1 O3 O2 -151.8(12) 10_566 4_556
Na1 Si1 O3 O2 28.6(6) 10_556 4_556
Na1 Si1 O3 O2 118.4(8) 13 4_556
Na1 Si1 O3 Gd1 180.000(2) . .
O2 Si1 O3 Gd1 -117.3(6) 11_565 .
O2 Si1 O3 Gd1 117.3(6) . .
O1 Si1 O3 Gd1 14.7(4) . .
O1 Si1 O3 Gd1 -14.7(4) 2_655 .
Na1 Si1 O3 Gd1 180.000(1) 2 .
Na1 Si1 O3 Gd1 -90.2(4) 10_566 .
Na1 Si1 O3 Gd1 90.2(4) 10_556 .
Na1 Si1 O3 Gd1 180.000(5) 13 .
Na1 Si1 O3 Na1 0.000(2) . 2
O2 Si1 O3 Na1 62.7(6) 11_565 2
O2 Si1 O3 Na1 -62.7(6) . 2
O1 Si1 O3 Na1 -165.3(4) . 2
O1 Si1 O3 Na1 165.3(4) 2_655 2
Gd1 Si1 O3 Na1 180.000(2) . 2
Na1 Si1 O3 Na1 89.8(4) 10_566 2
Na1 Si1 O3 Na1 -89.8(4) 10_556 2
Na1 Si1 O3 Na1 0.000(5) 13 2
Na1 Si1 O3 Na1 -89.8(4) . 10_566
O2 Si1 O3 Na1 -27.1(8) 11_565 10_566
O2 Si1 O3 Na1 -152.5(5) . 10_566
O1 Si1 O3 Na1 104.9(5) . 10_566
O1 Si1 O3 Na1 75.5(6) 2_655 10_566
Na1 Si1 O3 Na1 -89.8(4) 2 10_566
Gd1 Si1 O3 Na1 90.2(4) . 10_566
Na1 Si1 O3 Na1 -179.6(8) 10_556 10_566
Na1 Si1 O3 Na1 -89.8(4) 13 10_566
Na1 Si1 O3 Na1 89.8(4) . 10_556
O2 Si1 O3 Na1 152.5(5) 11_565 10_556
O2 Si1 O3 Na1 27.1(8) . 10_556
O1 Si1 O3 Na1 -75.5(6) . 10_556
O1 Si1 O3 Na1 -104.9(5) 2_655 10_556
Na1 Si1 O3 Na1 89.8(4) 2 10_556
Gd1 Si1 O3 Na1 -90.2(4) . 10_556
Na1 Si1 O3 Na1 179.6(8) 10_566 10_556
Na1 Si1 O3 Na1 89.8(4) 13 10_556
O2 Si1 Na1 O3 -124.1(4) 11_565 .
O2 Si1 Na1 O3 124.1(4) . .
O1 Si1 Na1 O3 33.9(15) . .
O1 Si1 Na1 O3 -33.9(15) 2_655 .
Na1 Si1 Na1 O3 180.000(13) 2 .
Gd1 Si1 Na1 O3 0.000(2) . .
Na1 Si1 Na1 O3 -65.2(3) 10_566 .
Na1 Si1 Na1 O3 65.2(3) 10_556 .
Na1 Si1 Na1 O3 180.000(2) 13 .
O2 Si1 Na1 O2 -111.8(8) . 11_565
O3 Si1 Na1 O2 124.1(4) . 11_565
O1 Si1 Na1 O2 158.0(16) . 11_565
O1 Si1 Na1 O2 90.3(15) 2_655 11_565
Na1 Si1 Na1 O2 -55.9(4) 2 11_565
Gd1 Si1 Na1 O2 124.1(4) . 11_565
Na1 Si1 Na1 O2 58.9(5) 10_566 11_565
Na1 Si1 Na1 O2 -170.7(5) 10_556 11_565
Na1 Si1 Na1 O2 -55.9(4) 13 11_565
O2 Si1 Na1 O2 111.8(8) 11_565 .
O3 Si1 Na1 O2 -124.1(4) . .
O1 Si1 Na1 O2 -90.3(15) . .
O1 Si1 Na1 O2 -158.0(16) 2_655 .
Na1 Si1 Na1 O2 55.9(4) 2 .
Gd1 Si1 Na1 O2 -124.1(4) . .
Na1 Si1 Na1 O2 170.7(5) 10_566 .
Na1 Si1 Na1 O2 -58.9(5) 10_556 .
Na1 Si1 Na1 O2 55.9(4) 13 .
O2 Si1 Na1 Na1 55.9(4) 11_565 2
O2 Si1 Na1 Na1 -55.9(4) . 2
O3 Si1 Na1 Na1 180.000(14) . 2
O1 Si1 Na1 Na1 -146.1(15) . 2
O1 Si1 Na1 Na1 146.1(15) 2_655 2
Gd1 Si1 Na1 Na1 180.000(12) . 2
Na1 Si1 Na1 Na1 114.8(3) 10_566 2
Na1 Si1 Na1 Na1 -114.8(3) 10_556 2
Na1 Si1 Na1 Na1 0.000(13) 13 2
O2 Si1 Na1 O1 -158.0(16) 11_565 .
O2 Si1 Na1 O1 90.3(15) . .
O3 Si1 Na1 O1 -33.9(15) . .
O1 Si1 Na1 O1 -68(3) 2_655 .
Na1 Si1 Na1 O1 146.1(15) 2 .
Gd1 Si1 Na1 O1 -33.9(15) . .
Na1 Si1 Na1 O1 -99.1(13) 10_566 .
Na1 Si1 Na1 O1 31.4(17) 10_556 .
Na1 Si1 Na1 O1 146.1(15) 13 .
O2 Si1 Na1 O1 -90.3(15) 11_565 2_655
O2 Si1 Na1 O1 158.0(16) . 2_655
O3 Si1 Na1 O1 33.9(15) . 2_655
O1 Si1 Na1 O1 68(3) . 2_655
Na1 Si1 Na1 O1 -146.1(15) 2 2_655
Gd1 Si1 Na1 O1 33.9(15) . 2_655
Na1 Si1 Na1 O1 -31.4(17) 10_566 2_655
Na1 Si1 Na1 O1 99.1(13) 10_556 2_655
Na1 Si1 Na1 O1 -146.1(15) 13 2_655
O2 Si1 Na1 O3 -124.1(4) 11_565 2
O2 Si1 Na1 O3 124.1(4) . 2
O3 Si1 Na1 O3 0.000(5) . 2
O1 Si1 Na1 O3 33.9(15) . 2
O1 Si1 Na1 O3 -33.9(15) 2_655 2
Na1 Si1 Na1 O3 180.000(18) 2 2
Gd1 Si1 Na1 O3 0.000(6) . 2
Na1 Si1 Na1 O3 -65.2(3) 10_566 2
Na1 Si1 Na1 O3 65.2(3) 10_556 2
Na1 Si1 Na1 O3 180.000(5) 13 2
O2 Si1 Na1 O2 -92.7(4) 11_565 10_566
O2 Si1 Na1 O2 155.5(5) . 10_566
O3 Si1 Na1 O2 31.4(3) . 10_566
O1 Si1 Na1 O2 65.2(14) . 10_566
O1 Si1 Na1 O2 -2.5(16) 2_655 10_566
Na1 Si1 Na1 O2 -148.6(3) 2 10_566
Gd1 Si1 Na1 O2 31.4(3) . 10_566
Na1 Si1 Na1 O2 -33.9(3) 10_566 10_566
Na1 Si1 Na1 O2 96.6(5) 10_556 10_566
Na1 Si1 Na1 O2 -148.6(3) 13 10_566
O2 Si1 Na1 O2 -155.5(5) 11_565 4_556
O2 Si1 Na1 O2 92.7(4) . 4_556
O3 Si1 Na1 O2 -31.4(3) . 4_556
O1 Si1 Na1 O2 2.5(16) . 4_556
O1 Si1 Na1 O2 -65.2(14) 2_655 4_556
Na1 Si1 Na1 O2 148.6(3) 2 4_556
Gd1 Si1 Na1 O2 -31.4(3) . 4_556
Na1 Si1 Na1 O2 -96.6(5) 10_566 4_556
Na1 Si1 Na1 O2 33.9(3) 10_556 4_556
Na1 Si1 Na1 O2 148.6(3) 13 4_556
O2 Si1 Na1 O3 145.5(5) 11_565 10_556
O2 Si1 Na1 O3 33.7(5) . 10_556
O3 Si1 Na1 O3 -90.4(3) . 10_556
O1 Si1 Na1 O3 -56.6(16) . 10_556
O1 Si1 Na1 O3 -124.3(14) 2_655 10_556
Na1 Si1 Na1 O3 89.6(3) 2 10_556
Gd1 Si1 Na1 O3 -90.4(3) . 10_556
Na1 Si1 Na1 O3 -155.7(6) 10_566 10_556
Na1 Si1 Na1 O3 -25.2(3) 10_556 10_556
Na1 Si1 Na1 O3 89.6(3) 13 10_556
O2 Si1 Na1 O3 -33.7(5) 11_565 10_566
O2 Si1 Na1 O3 -145.5(5) . 10_566
O3 Si1 Na1 O3 90.4(3) . 10_566
O1 Si1 Na1 O3 124.3(14) . 10_566
O1 Si1 Na1 O3 56.6(16) 2_655 10_566
Na1 Si1 Na1 O3 -89.6(3) 2 10_566
Gd1 Si1 Na1 O3 90.4(3) . 10_566
Na1 Si1 Na1 O3 25.2(3) 10_566 10_566
Na1 Si1 Na1 O3 155.7(6) 10_556 10_566
Na1 Si1 Na1 O3 -89.6(3) 13 10_566
O2 O3 Na1 Si1 75.3(12) 10_566 .
O2 O3 Na1 Si1 -75.3(12) 4_556 .
Eu1 O3 Na1 Si1 180.000(4) 13_556 .
Gd1 O3 Na1 Si1 180.000(4) 13_556 .
Gd1 O3 Na1 Si1 0.000(2) . .
Na1 O3 Na1 Si1 180.000(1) 2 .
Na1 O3 Na1 Si1 90.0(4) 10_566 .
Na1 O3 Na1 Si1 -90.0(4) 10_556 .
Si1 O3 Na1 O2 -74.3(10) . 11_565
O2 O3 Na1 O2 0.9(19) 10_566 11_565
O2 O3 Na1 O2 -149.6(13) 4_556 11_565
Eu1 O3 Na1 O2 105.7(10) 13_556 11_565
Gd1 O3 Na1 O2 105.7(10) 13_556 11_565
Gd1 O3 Na1 O2 -74.3(10) . 11_565
Na1 O3 Na1 O2 105.7(10) 2 11_565
Na1 O3 Na1 O2 15.7(14) 10_566 11_565
Na1 O3 Na1 O2 -164.4(8) 10_556 11_565
Si1 O3 Na1 O2 74.3(10) . .
O2 O3 Na1 O2 149.6(13) 10_566 .
O2 O3 Na1 O2 -0.9(19) 4_556 .
Eu1 O3 Na1 O2 -105.7(10) 13_556 .
Gd1 O3 Na1 O2 -105.7(10) 13_556 .
Gd1 O3 Na1 O2 74.3(10) . .
Na1 O3 Na1 O2 -105.7(10) 2 .
Na1 O3 Na1 O2 164.4(8) 10_566 .
Na1 O3 Na1 O2 -15.7(14) 10_556 .
Si1 O3 Na1 Na1 180.000(3) . 2
O2 O3 Na1 Na1 -104.7(12) 10_566 2
O2 O3 Na1 Na1 104.7(12) 4_556 2
Eu1 O3 Na1 Na1 0.000(4) 13_556 2
Gd1 O3 Na1 Na1 0.000(4) 13_556 2
Gd1 O3 Na1 Na1 180.000(1) . 2
Na1 O3 Na1 Na1 -90.0(4) 10_566 2
Na1 O3 Na1 Na1 90.0(4) 10_556 2
Si1 O3 Na1 O1 10.0(3) . .
O2 O3 Na1 O1 85.3(13) 10_566 .
O2 O3 Na1 O1 -65.3(13) 4_556 .
Eu1 O3 Na1 O1 -170.0(3) 13_556 .
Gd1 O3 Na1 O1 -170.0(3) 13_556 .
Gd1 O3 Na1 O1 10.0(3) . .
Na1 O3 Na1 O1 -170.0(3) 2 .
Na1 O3 Na1 O1 100.0(5) 10_566 .
Na1 O3 Na1 O1 -80.0(5) 10_556 .
Si1 O3 Na1 O1 -10.0(3) . 2_655
O2 O3 Na1 O1 65.3(13) 10_566 2_655
O2 O3 Na1 O1 -85.3(13) 4_556 2_655
Eu1 O3 Na1 O1 170.0(3) 13_556 2_655
Gd1 O3 Na1 O1 170.0(3) 13_556 2_655
Gd1 O3 Na1 O1 -10.0(3) . 2_655
Na1 O3 Na1 O1 170.0(3) 2 2_655
Na1 O3 Na1 O1 80.0(5) 10_566 2_655
Na1 O3 Na1 O1 -100.0(5) 10_556 2_655
Si1 O3 Na1 O3 180.000(4) . 2
O2 O3 Na1 O3 -104.7(12) 10_566 2
O2 O3 Na1 O3 104.7(12) 4_556 2
Eu1 O3 Na1 O3 0.000(3) 13_556 2
Gd1 O3 Na1 O3 0.000(3) 13_556 2
Gd1 O3 Na1 O3 180.000(3) . 2
Na1 O3 Na1 O3 0.000(2) 2 2
Na1 O3 Na1 O3 -90.0(4) 10_566 2
Na1 O3 Na1 O3 90.0(4) 10_556 2
Si1 O3 Na1 O2 -75.3(12) . 10_566
O2 O3 Na1 O2 -151(2) 4_556 10_566
Eu1 O3 Na1 O2 104.7(12) 13_556 10_566
Gd1 O3 Na1 O2 104.7(12) 13_556 10_566
Gd1 O3 Na1 O2 -75.3(12) . 10_566
Na1 O3 Na1 O2 104.7(12) 2 10_566
Na1 O3 Na1 O2 14.7(9) 10_566 10_566
Na1 O3 Na1 O2 -165.3(16) 10_556 10_566
Si1 O3 Na1 O2 75.3(12) . 4_556
O2 O3 Na1 O2 151(2) 10_566 4_556
Eu1 O3 Na1 O2 -104.7(12) 13_556 4_556
Gd1 O3 Na1 O2 -104.7(12) 13_556 4_556
Gd1 O3 Na1 O2 75.3(12) . 4_556
Na1 O3 Na1 O2 -104.7(12) 2 4_556
Na1 O3 Na1 O2 165.3(16) 10_566 4_556
Na1 O3 Na1 O2 -14.7(9) 10_556 4_556
Si1 O3 Na1 O3 90.0(4) . 10_556
O2 O3 Na1 O3 165.3(9) 10_566 10_556
O2 O3 Na1 O3 14.7(16) 4_556 10_556
Eu1 O3 Na1 O3 -90.0(4) 13_556 10_556
Gd1 O3 Na1 O3 -90.0(4) 13_556 10_556
Gd1 O3 Na1 O3 90.0(4) . 10_556
Na1 O3 Na1 O3 -90.0(4) 2 10_556
Na1 O3 Na1 O3 179.999(12) 10_566 10_556
Na1 O3 Na1 O3 0.0(8) 10_556 10_556
Si1 O3 Na1 O3 -90.0(4) . 10_566
O2 O3 Na1 O3 -14.7(16) 10_566 10_566
O2 O3 Na1 O3 -165.3(9) 4_556 10_566
Eu1 O3 Na1 O3 90.0(4) 13_556 10_566
Gd1 O3 Na1 O3 90.0(4) 13_556 10_566
Gd1 O3 Na1 O3 -90.0(4) . 10_566
Na1 O3 Na1 O3 90.0(4) 2 10_566
Na1 O3 Na1 O3 0.0(8) 10_566 10_566
Na1 O3 Na1 O3 180.001(14) 10_556 10_566
O2 O2 Na1 Si1 -68.2(19) 7_545 .
O3 O2 Na1 Si1 116.4(10) 10_556 .
Gd1 O2 Na1 Si1 -168.5(9) 5_444 .
Eu1 O2 Na1 Si1 -168.5(9) 5_444 .
Gd1 O2 Na1 Si1 33.5(11) 9_656 .
Eu1 O2 Na1 Si1 33.5(11) 9_656 .
Na1 O2 Na1 Si1 106.5(8) 10_556 .
Na1 O2 Na1 Si1 -65.6(7) 13 .
O2 O2 Na1 O3 -158.8(18) 7_545 .
Si1 O2 Na1 O3 -90.5(14) . .
O3 O2 Na1 O3 25.8(13) 10_556 .
Gd1 O2 Na1 O3 101.0(13) 5_444 .
Eu1 O2 Na1 O3 101.0(13) 5_444 .
Gd1 O2 Na1 O3 -57.1(16) 9_656 .
Eu1 O2 Na1 O3 -57.1(16) 9_656 .
Na1 O2 Na1 O3 15.9(14) 10_556 .
Na1 O2 Na1 O3 -156.1(13) 13 .
O2 O2 Na1 O2 -4(2) 7_545 11_565
Si1 O2 Na1 O2 63.9(9) . 11_565
O3 O2 Na1 O2 -179.8(6) 10_556 11_565
Gd1 O2 Na1 O2 -104.6(9) 5_444 11_565
Eu1 O2 Na1 O2 -104.6(9) 5_444 11_565
Gd1 O2 Na1 O2 97.3(8) 9_656 11_565
Eu1 O2 Na1 O2 97.3(8) 9_656 11_565
Na1 O2 Na1 O2 170.3(4) 10_556 11_565
Na1 O2 Na1 O2 -1.7(9) 13 11_565
O2 O2 Na1 Na1 101.9(18) 7_545 2
Si1 O2 Na1 Na1 170.1(7) . 2
O3 O2 Na1 Na1 -73.5(8) 10_556 2
Gd1 O2 Na1 Na1 1.7(7) 5_444 2
Eu1 O2 Na1 Na1 1.7(7) 5_444 2
Gd1 O2 Na1 Na1 -156.4(7) 9_656 2
Eu1 O2 Na1 Na1 -156.4(7) 9_656 2
Na1 O2 Na1 Na1 -83.4(3) 10_556 2
Na1 O2 Na1 Na1 104.6(4) 13 2
O2 O2 Na1 O1 -87.3(18) 7_545 .
Si1 O2 Na1 O1 -19.1(7) . .
O3 O2 Na1 O1 97.3(9) 10_556 .
Gd1 O2 Na1 O1 172.5(8) 5_444 .
Eu1 O2 Na1 O1 172.5(8) 5_444 .
Gd1 O2 Na1 O1 14.4(8) 9_656 .
Eu1 O2 Na1 O1 14.4(8) 9_656 .
Na1 O2 Na1 O1 87.4(5) 10_556 .
Na1 O2 Na1 O1 -84.7(5) 13 .
O2 O2 Na1 O1 -74.9(18) 7_545 2_655
Si1 O2 Na1 O1 -6.7(6) . 2_655
O3 O2 Na1 O1 109.7(8) 10_556 2_655
Gd1 O2 Na1 O1 -175.2(7) 5_444 2_655
Eu1 O2 Na1 O1 -175.2(7) 5_444 2_655
Gd1 O2 Na1 O1 26.8(9) 9_656 2_655
Eu1 O2 Na1 O1 26.8(9) 9_656 2_655
Na1 O2 Na1 O1 99.8(5) 10_556 2_655
Na1 O2 Na1 O1 -72.3(5) 13 2_655
O2 O2 Na1 O3 129.1(17) 7_545 2
Si1 O2 Na1 O3 -162.7(10) . 2
O3 O2 Na1 O3 -46.4(11) 10_556 2
Gd1 O2 Na1 O3 28.8(9) 5_444 2
Eu1 O2 Na1 O3 28.8(9) 5_444 2
Gd1 O2 Na1 O3 -129.3(8) 9_656 2
Eu1 O2 Na1 O3 -129.3(8) 9_656 2
Na1 O2 Na1 O3 -56.2(6) 10_556 2
Na1 O2 Na1 O3 131.7(6) 13 2
O2 O2 Na1 O2 -125.3(12) 7_545 10_566
Si1 O2 Na1 O2 -57.1(16) . 10_566
O3 O2 Na1 O2 59(2) 10_556 10_566
Gd1 O2 Na1 O2 134.4(13) 5_444 10_566
Eu1 O2 Na1 O2 134.4(13) 5_444 10_566
Gd1 O2 Na1 O2 -24(2) 9_656 10_566
Eu1 O2 Na1 O2 -24(2) 9_656 10_566
Na1 O2 Na1 O2 49.4(18) 10_556 10_566
Na1 O2 Na1 O2 -122.7(14) 13 10_566
O2 O2 Na1 O2 -159.3(15) 7_545 4_556
Si1 O2 Na1 O2 -91.0(8) . 4_556
O3 O2 Na1 O2 25.3(11) 10_556 4_556
Gd1 O2 Na1 O2 100.5(7) 5_444 4_556
Eu1 O2 Na1 O2 100.5(7) 5_444 4_556
Gd1 O2 Na1 O2 -57.6(10) 9_656 4_556
Eu1 O2 Na1 O2 -57.6(10) 9_656 4_556
Na1 O2 Na1 O2 15.4(7) 10_556 4_556
Na1 O2 Na1 O2 -156.6(4) 13 4_556
O2 O2 Na1 O3 175(2) 7_545 10_556
Si1 O2 Na1 O3 -116.4(10) . 10_556
Gd1 O2 Na1 O3 75.2(10) 5_444 10_556
Eu1 O2 Na1 O3 75.2(10) 5_444 10_556
Gd1 O2 Na1 O3 -82.9(9) 9_656 10_556
Eu1 O2 Na1 O3 -82.9(9) 9_656 10_556
Na1 O2 Na1 O3 -9.9(6) 10_556 10_556
Na1 O2 Na1 O3 178.1(11) 13 10_556
O2 O2 Na1 O3 -4(3) 7_545 10_566
Si1 O2 Na1 O3 64.1(11) . 10_566
O3 O2 Na1 O3 -179.5(13) 10_556 10_566
Gd1 O2 Na1 O3 -104.4(12) 5_444 10_566
Eu1 O2 Na1 O3 -104.4(12) 5_444 10_566
Gd1 O2 Na1 O3 97.6(11) 9_656 10_566
Eu1 O2 Na1 O3 97.6(11) 9_656 10_566
Na1 O2 Na1 O3 170.6(9) 10_556 10_566
Na1 O2 Na1 O3 -1.5(12) 13 10_566
