#------------------------------------------------------------------------------
#$Date: 2015-07-05 11:56:51 +0300 (Sun, 05 Jul 2015) $
#$Revision: 140122 $
#$URL: svn://www.crystallography.net/cod/cif/4/12/38/4123828.cif $
#------------------------------------------------------------------------------
#
# This file is available in the Crystallography Open Database (COD),
# http://www.crystallography.net/
#
# All data on this site have been placed in the public domain by the
# contributors.
#
data_4123828
loop_
_publ_author_name
'Wang, Gang'
'Franke, Jana'
'Ngo, Chinh Q.'
'Krische, Michael J.'
_publ_section_title
;
 Diastereo- and Enantioselective Iridium Catalyzed Coupling of Vinyl
 Aziridines with Alcohols: Site-Selective Modification of Unprotected
 Diols and Synthesis of Substituted Piperidines.
;
_journal_issue                   24
_journal_name_full               'Journal of the American Chemical Society'
_journal_page_first              7915
_journal_page_last               7920
_journal_paper_doi               10.1021/jacs.5b04404
_journal_volume                  137
_journal_year                    2015
_chemical_absolute_configuration ad
_chemical_formula_moiety         'C14 H18 N2 O5 S'
_chemical_formula_sum            'C14 H18 N2 O5 S'
_chemical_formula_weight         326.36
_chemical_name_systematic
;
 ?
;
_space_group_crystal_system      monoclinic
_space_group_IT_number           4
_space_group_name_Hall           'P 2yb'
_space_group_name_H-M_alt        'P 1 21 1'
_symmetry_space_group_name_Hall  'P 2yb'
_symmetry_space_group_name_H-M   'P 1 21 1'
_atom_sites_solution_hydrogens   mixed
_audit_creation_method           SHELXL-2013
_cell_angle_alpha                90
_cell_angle_beta                 100.670(2)
_cell_angle_gamma                90
_cell_formula_units_Z            2
_cell_length_a                   8.10640(10)
_cell_length_b                   7.84280(10)
_cell_length_c                   12.2165(2)
_cell_measurement_reflns_used    6366
_cell_measurement_temperature    100(2)
_cell_measurement_theta_max      75.9
_cell_measurement_theta_min      3.6
_cell_volume                     763.258(19)
_computing_cell_refinement
'CrysAlisPro V 1.171.37.31, Agilent Technologies'
_computing_data_collection
'CrysAlisPro V 1.171.37.31, Agilent Technologies'
_computing_data_reduction
'CrysAlisPro V 1.171.37.31, Agilent Technologies'
_computing_molecular_graphics    'XP SHELXTL/PC, Siemens Analytical'
_computing_publication_material  'XL SHELXTL/PC, Siemens Analytical'
_computing_structure_refinement  'Shelxl-2013, Sheldrick, G. M.'
_computing_structure_solution
;

SUPERFLIP.  Palatinus, L. and Chapuis, G., J. Appl. Cryst. 40, 786-790.
;
_diffrn_ambient_temperature      100(2)
_diffrn_measured_fraction_theta_full 1.000
_diffrn_measured_fraction_theta_max 0.991
_diffrn_measurement_device_type  'Agilent SuperNova with Atlas S2 CCD'
_diffrn_measurement_method       \w-scans
_diffrn_radiation_type           CuK\a
_diffrn_radiation_wavelength     1.54184
_diffrn_reflns_av_R_equivalents  0.0189
_diffrn_reflns_av_unetI/netI     0.0191
_diffrn_reflns_laue_measured_fraction_full 1.000
_diffrn_reflns_laue_measured_fraction_max 0.991
_diffrn_reflns_limit_h_max       10
_diffrn_reflns_limit_h_min       -9
_diffrn_reflns_limit_k_max       9
_diffrn_reflns_limit_k_min       -9
_diffrn_reflns_limit_l_max       15
_diffrn_reflns_limit_l_min       -15
_diffrn_reflns_number            8408
_diffrn_reflns_point_group_measured_fraction_full 1.000
_diffrn_reflns_point_group_measured_fraction_max 0.992
_diffrn_reflns_theta_full        67.684
_diffrn_reflns_theta_max         76.003
_diffrn_reflns_theta_min         3.682
_diffrn_source                   'microfocus sealed tube'
_exptl_absorpt_coefficient_mu    2.124
_exptl_absorpt_correction_T_max  1.00
_exptl_absorpt_correction_T_min  0.805
_exptl_absorpt_correction_type   multi-scan
_exptl_absorpt_process_details
;
CrysAlisPro, Agilent Technologies,
Version 1.171.37.35h (release 09-02-2015 CrysAlis171 .NET)
(compiled Feb  9 2015,16:26:32)
Empirical absorption correction using spherical harmonics,
 implemented in SCALE3 ABSPACK scaling algorithm.
;
_exptl_crystal_colour            colorless
_exptl_crystal_density_diffrn    1.420
_exptl_crystal_description       needle
_exptl_crystal_F_000             344
_exptl_crystal_size_max          0.370
_exptl_crystal_size_mid          0.080
_exptl_crystal_size_min          0.040
_refine_diff_density_max         0.167
_refine_diff_density_min         -0.258
_refine_diff_density_rms         0.037
_refine_ls_abs_structure_details
;
 Refined as an inversion twin.
;
_refine_ls_abs_structure_Flack   0.013(14)
_refine_ls_extinction_method     none
_refine_ls_goodness_of_fit_ref   1.053
_refine_ls_hydrogen_treatment    mixed
_refine_ls_matrix_type           full
_refine_ls_number_parameters     205
_refine_ls_number_reflns         3059
_refine_ls_number_restraints     1
_refine_ls_restrained_S_all      1.053
_refine_ls_R_factor_all          0.0215
_refine_ls_R_factor_gt           0.0214
_refine_ls_shift/su_max          0.001
_refine_ls_shift/su_mean         0.000
_refine_ls_structure_factor_coef Fsqd
_refine_ls_weighting_details
'w=1/[\s^2^(Fo^2^)+(0.0312P)^2^+0.1483P] where P=(Fo^2^+2Fc^2^)/3'
_refine_ls_weighting_scheme      calc
_refine_ls_wR_factor_gt          0.0559
_refine_ls_wR_factor_ref         0.0561
_reflns_Friedel_coverage         0.859
_reflns_friedel_fraction_full    1.000
_reflns_friedel_fraction_max     0.993
_reflns_number_gt                3039
_reflns_number_total             3059
_reflns_threshold_expression     'I > 2\s(I)'
_cod_data_source_file            ja5b04404_si_003.cif
_cod_data_source_block           shelx
_cod_depositor_comments
'Adding full bibliography for 4123827--4123828.cif.'
_cod_database_code               4123828
_shelx_space_group_comment
;
The symmetry employed for this shelxl refinement is uniquely defined
by the following loop, which should always be used as a source of
symmetry information in preference to the above space-group names.
They are only intended as comments.
;
_shelx_estimated_absorpt_t_min   0.507
_shelx_estimated_absorpt_t_max   0.920
_shelxl_version_number           2013-4
_shelx_res_file
;
TITL wg-e4-2-me-piper-full in P21 #4 colorless needles
CELL  1.54184   8.1064   7.8428  12.2165   90.000  100.670   90.000
ZERR     2.00   0.0001   0.0001   0.0002    0.000    0.002    0.000
LATT  -1
SYMM  - X, 1/2 + Y, - Z
SFAC  C    H    N    O    S
UNIT  28   36   4    10   2
MERG   2
TWIN
EQIV $1 x-1, y, z
HTAB O1 O3_$1
FMAP   2
PLAN   20
SIZE     0.040   0.080   0.370
ACTA
BOND   $H
CONF
L.S.   4
TEMP  -173.00
WGHT    0.031200    0.148300
BASF   0.01339
FVAR       7.49875
C1    1    0.723201    0.583337    0.906722    11.00000    0.01791    0.01919 =
         0.02077    0.00180    0.00760    0.00031
AFIX  13
H1    2    0.780344    0.545767    0.982519    11.00000   -1.20000
AFIX   0
C2    1    0.602263    0.727753    0.921419    11.00000    0.01651    0.02132 =
         0.02578   -0.00238    0.01024   -0.00070
AFIX  23
H2A   2    0.508492    0.680269    0.953476    11.00000   -1.20000
H2B   2    0.662034    0.811506    0.975206    11.00000   -1.20000
AFIX   0
C3    1    0.530478    0.819674    0.813128    11.00000    0.01443    0.01673 =
         0.03081   -0.00250    0.00465    0.00190
AFIX  13
H3    2    0.459494    0.738404    0.761561    11.00000   -1.20000
AFIX   0
C4    1    0.669558    0.889282    0.756302    11.00000    0.01592    0.01578 =
         0.02029   -0.00061    0.00153    0.00182
AFIX  13
H4    2    0.733188    0.979489    0.804433    11.00000   -1.20000
AFIX   0
C5    1    0.789289    0.742861    0.741797    11.00000    0.01841    0.01853 =
         0.01770    0.00036    0.00451    0.00246
AFIX  23
H5A   2    0.729459    0.657787    0.689037    11.00000   -1.20000
H5B   2    0.884773    0.787720    0.710389    11.00000   -1.20000
AFIX   0
C6    1    0.636791    0.427888    0.846017    11.00000    0.02479    0.01777 =
         0.03641   -0.00011    0.00897   -0.00205
AFIX 137
H6A   2    0.547345    0.388686    0.884014    11.00000   -1.50000
H6B   2    0.719100    0.336356    0.846058    11.00000   -1.50000
H6C   2    0.588508    0.458919    0.769043    11.00000   -1.50000
AFIX   0
C7    1    0.600106    0.963562    0.643648    11.00000    0.02273    0.02415 =
         0.02472    0.00030   -0.00162    0.00477
AFIX  43
H7    2    0.517880    0.898487    0.595772    11.00000   -1.20000
AFIX   0
C8    1    0.643348    1.110996    0.605571    11.00000    0.03493    0.02839 =
         0.02871    0.00710    0.00022    0.00720
AFIX  93
H8A   2    0.725117    1.180279    0.650628    11.00000   -1.20000
H8B   2    0.592752    1.147996    0.533065    11.00000   -1.20000
AFIX   0
C9    1    1.088765    0.447241    0.791612    11.00000    0.01280    0.01671 =
         0.01959    0.00059    0.00319    0.00298
C10   1    1.060334    0.279824    0.821529    11.00000    0.01651    0.01908 =
         0.01780    0.00331    0.00597    0.00250
AFIX  43
H10   2    1.024435    0.256810    0.889788    11.00000   -1.20000
AFIX   0
C11   1    1.084483    0.147670    0.751722    11.00000    0.01709    0.01382 =
         0.02133    0.00285    0.00412    0.00102
AFIX  43
H11   2    1.064447    0.032904    0.770428    11.00000   -1.20000
AFIX   0
C12   1    1.138838    0.186758    0.653402    11.00000    0.01555    0.01711 =
         0.01758    0.00053    0.00234    0.00269
C13   1    1.168464    0.352295    0.622285    11.00000    0.01998    0.01998 =
         0.01766    0.00365    0.00621    0.00192
AFIX  43
H13   2    1.205856    0.374521    0.554428    11.00000   -1.20000
AFIX   0
C14   1    1.142345    0.484851    0.692357    11.00000    0.01907    0.01474 =
         0.02142    0.00423    0.00603    0.00195
AFIX  43
H14   2    1.160745    0.599658    0.672918    11.00000   -1.20000
AFIX   0
N1    3    0.852553    0.660588    0.849825    11.00000    0.01536    0.01787 =
         0.01830    0.00248    0.00592    0.00229
N2    3    1.165372    0.045980    0.579064    11.00000    0.02238    0.01950 =
         0.01843    0.00027    0.00335    0.00388
O1    4    0.430155    0.960965    0.834152    11.00000    0.01733    0.02137 =
         0.05020   -0.00224    0.01271    0.00404
O2    4    1.079143    0.546051    0.993086    11.00000    0.02251    0.02223 =
         0.01772   -0.00139    0.00204    0.00527
O3    4    1.143078    0.757832    0.855550    11.00000    0.01726    0.01710 =
         0.03040   -0.00258    0.00685   -0.00087
O4    4    1.127885   -0.099353    0.603804    11.00000    0.04145    0.01706 =
         0.02810   -0.00172    0.01026   -0.00069
O5    4    1.223616    0.079141    0.495972    11.00000    0.04075    0.02732 =
         0.01990    0.00029    0.01296    0.00494
S1    5    1.048494    0.613212    0.881872    11.00000    0.01427    0.01368 =
         0.01836   -0.00079    0.00400    0.00169
H1O   2    0.344205    0.915673    0.851082    11.00000    0.05276
HKLF    4

REM  wg-e4-2-me-piper-full in P21 #4 colorless needles
REM R1 =  0.0214 for    3039 Fo > 4sig(Fo)  and  0.0215 for all    3059 data
REM    205 parameters refined using      1 restraints

END

WGHT      0.0314      0.1491

REM Highest difference peak  0.167,  deepest hole -0.258,  1-sigma level  0.037
Q1    1   1.1566  0.1744  0.7183  11.00000  0.05    0.17
Q2    1   1.1548  0.4635  0.7570  11.00000  0.05    0.16
Q3    1   0.7892  0.6183  0.8750  11.00000  0.05    0.15
Q4    1   1.0783  0.6139  0.9574  11.00000  0.05    0.15
Q5    1   0.5977  0.8477  0.7817  11.00000  0.05    0.14
Q6    1   0.3767  0.6078  1.0446  11.00000  0.05    0.12
Q7    1   0.7313  0.8224  0.7579  11.00000  0.05    0.12
Q8    1   0.6296  0.9345  0.7015  11.00000  0.05    0.12
Q9    1   0.8229  0.7013  0.7955  11.00000  0.05    0.12
Q10   1   1.0246  0.3779  0.7867  11.00000  0.05    0.11
Q11   1   1.1194  0.2160  0.8057  11.00000  0.05    0.11
Q12   1   1.0489  0.2291  0.7757  11.00000  0.05    0.11
Q13   1   0.5077  1.0881  0.7234  11.00000  0.05    0.11
Q14   1   0.6791  0.5170  0.8680  11.00000  0.05    0.10
Q15   1   1.1555  0.7671  0.7747  11.00000  0.05    0.10
Q16   1   0.8795  0.3832  0.8482  11.00000  0.05    0.10
Q17   1   1.1746  0.4135  0.6789  11.00000  0.05    0.10
Q18   1   1.2390  0.7433  0.8413  11.00000  0.05    0.10
Q19   1   1.1406  0.2582  0.6372  11.00000  0.05    0.10
Q20   1   1.1432  0.4247  1.0702  11.00000  0.05    0.10
;
_shelx_res_checksum              12190
_shelx_hkl_file
;
   0  -9   0-8.12452 13.7530  17
   0  -9  -1 2520.96 107.209  11
   0  -9   1 2497.01 98.4411  17
   0  -9  -1 2452.41 92.3776  17
   0  -9   2 7466.15 187.393  17
   0  -9  -2 7571.41 196.696  11
   0  -9  -3 2302.07 93.8859  11
   0  -9   3 2073.05 86.5566  17
   0  -9  -4 1841.15 79.2210  11
   0  -9   4 1617.74 72.1102  17
   0  -9   5 3757.29 106.528  17
   0  -9  -5 3995.77 113.169  11
   0  -9  -6 6538.41 139.166  11
   0  -8   0 3801.80 174.817  10
   0  -8   0 3733.00 152.835  17
   0  -8  -1 1410.29 105.770  10
   0  -8   1 1361.46 102.111  10
   0  -8  -1 1399.64 88.7275  17
   0  -8   1 1357.04 90.5935  17
   0  -8   2 1469.65 102.719  10
   0  -8   2 1713.98 102.819  17
   0  -8  -2 1521.81 90.9959  17
   0  -8  -3 133.025 28.7336  17
   0  -8  -3 101.867 30.3327  11
   0  -8   3 126.352 37.7767  17
   0  -8   3 149.449 36.5528  10
   0  -8   4 7539.91 242.284  20
   0  -8  -4 7102.88 200.624  17
   0  -8   4 7923.89 238.714  17
   0  -8  -4 7598.72 221.822  11
   0  -8   4 7437.88 226.916  10
   0  -8  -5 17612.3 370.128  11
   0  -8   5 16895.9 395.799  20
   0  -8   5 17497.0 368.690  10
   0  -8   5 18088.5 392.824  17
   0  -8   6 8024.71 226.916  17
   0  -8   6 7545.21 229.139  20
   0  -8   7 6353.22 192.673  20
   0  -8   7 6955.86 194.653  17
   0  -8  -8 7337.12 163.834  11
   0  -8   8 6874.28 169.493  17
   0  -7   0 3.62989 30.6922  10
   0  -7   0 23.1202 24.0600  17
   0  -7   1 16284.7 420.789  10
   0  -7  -1 17272.7 394.827  17
   0  -7   1 17007.5 405.681  17
   0  -7  -1 16260.5 424.549  10
   0  -7   2 6704.55 235.406  17
   0  -7   2 6218.38 238.310  10
   0  -7  -2 6562.58 247.996  10
   0  -7  -2 6363.95 213.844  17
   0  -7   2 6619.48 250.887  20
   0  -7  -3 7452.06 230.486  17
   0  -7   3 7351.53 253.203  17
   0  -7   3 7270.03 258.686  10
   0  -7   3 7470.69 277.979  20
   0  -7  -4 2096.85 121.398  11
   0  -7   4 2168.22 144.947  20
   0  -7   4 2037.31 130.043  10
   0  -7   4 2285.27 138.246  17
   0  -7  -4 2074.02 113.090  17
   0  -7   5 6088.51 224.357  10
   0  -7   5 6311.86 233.487  17
   0  -7  -5 6027.81 208.870  11
   0  -7   5 5950.83 255.813  20
   0  -7  -5 6057.18 199.092  17
   0  -7  -6 10769.8 287.501  11
   0  -7  -6 10478.8 266.346  17
   0  -7   6 10237.6 338.785  20
   0  -7  -7 21328.7 436.119  11
   0  -7  -7 21018.6 411.314  17
   0  -7   8 4132.08 185.809  20
   0  -7  -8 4168.57 149.052  11
   0  -7  -9 539.800 46.9779  11
   0  -7   9 493.365 51.5562  17
   0  -7   9 611.055 65.3186  20
   0  -7  10 9069.51 221.835  20
   0  -7 -10 8989.07 194.178  11
   0  -7  10 8809.36 207.767  17
   0  -6   0 38169.8 734.596  10
   0  -6   0 38257.2 705.201  17
   0  -6  -1 14005.4 345.315  17
   0  -6  -1 14695.6 619.618   3
   0  -6  -1 14324.6 374.364  10
   0  -6   1 14259.2 358.042  17
   0  -6   1 14339.6 380.394  10
   0  -6  -1 14110.0 589.040  16
   0  -6  -2 22506.1 505.410  10
   0  -6  -2 22533.1 743.741  16
   0  -6   2 22311.2 513.690  10
   0  -6  -2 22700.7 782.551   3
   0  -6  -2 21967.3 464.576  17
   0  -6   2 22157.9 489.487  17
   0  -6   2 23093.2 532.860  20
   0  -6  -3 45087.8 1168.06   3
   0  -6   3 43666.1 835.713  10
   0  -6  -3 43938.3 775.146  17
   0  -6   3 45343.8 878.952  20
   0  -6  -3 45283.8 1080.36  16
   0  -6  -3 44960.7 833.466  10
   0  -6   4 19366.3 480.936  10
   0  -6   4 20094.1 524.581  20
   0  -6  -4 19936.9 428.192  17
   0  -6  -5 8552.60 253.111  17
   0  -6   5 8736.49 333.146  20
   0  -6  -5 8897.52 266.277  11
   0  -6   5 8253.76 284.710  10
   0  -6  -6 9676.92 279.694  11
   0  -6   6 9380.37 356.546  20
   0  -6  -6 9009.38 265.480  17
   0  -6   6 9328.48 302.381  10
   0  -6  -7 1035.03 81.8610  17
   0  -6  -7 1136.99 88.5279  11
   0  -6   7 1056.48 116.579  20
   0  -6  -8 7764.58 240.489  11
   0  -6  -8 7613.00 225.935  17
   0  -6   8 7366.79 304.503  20
   0  -6  -9 130.194 33.6600  11
   0  -6  -9 193.428 35.2178  17
   0  -6   9 208.317 52.5908  20
   0  -6  10 2595.83 148.160  20
   0  -6 -10 2674.33 115.128  11
   0  -6  11 970.663 74.7836  20
   0  -6 -11 825.844 54.9459  11
   0  -5   0 3.78774 30.2646   3
   0  -5  -1 3960.42 275.659   3
   0  -5   1 4119.28 285.674   3
   0  -5  -2 38451.5 941.905  16
   0  -5  -2 37383.6 967.231   3
   0  -5  -3 7531.57 383.099   3
   0  -5  -3 7402.00 350.006  16
   0  -5   4 8017.31 404.663  14
   0  -5  -4 8947.03 412.600   3
   0  -5  -4 8523.83 361.991  16
   0  -5   5 14907.5 450.017  20
   0  -5  -5 15629.4 364.503  11
   0  -5   6 15010.1 460.154  20
   0  -5   6 13757.6 382.655  19
   0  -5  -6 13576.3 338.333  17
   0  -5   6 13454.1 604.554  14
   0  -5  -6 14483.2 352.872  11
   0  -5  -7 1836.37 110.116  17
   0  -5   7 1762.51 125.760  19
   0  -5  -7 1924.15 115.961  11
   0  -5   7 1826.53 159.626  20
   0  -5   8 10340.9 317.051  19
   0  -5   8 10173.3 383.781  20
   0  -5  -8 9795.63 287.815  11
   0  -5  -8 9892.47 285.777  17
   0  -5   9 12791.6 431.191  20
   0  -5  -9 13068.4 332.429  11
   0  -5  -9 12676.4 324.944  17
   0  -5 -10 11815.3 301.222  11
   0  -5 -10 11009.0 290.108  17
   0  -5  10 11994.4 391.336  20
   0  -5 -11 2818.75 120.303  17
   0  -5  11 3236.47 171.517  20
   0  -5 -11 3024.78 130.817  11
   0  -5  12 8582.86 246.598  20
   0  -5 -12 7364.62 200.914   9
   0  -5  13 2391.50 90.8971  20
   0  -4   0 12273.1 446.235   3
   0  -4   1 6207.32 243.266  14
   0  -4   1 6561.41 317.428   3
   0  -4  -1 6389.73 309.425   3
   0  -4   2 67530.8 1262.79  14
   0  -4   2 70117.0 1366.40   3
   0  -4  -2 66675.6 1330.03   3
   0  -4  -3 3978.95 224.134  16
   0  -4   3 3710.49 235.102  14
   0  -4  -3 3838.40 236.321   3
   0  -4  -4 24722.4 668.853   3
   0  -4   4 25103.2 728.794  14
   0  -4  -4 25643.7 619.129  16
   0  -4   5 2426.90 221.410  14
   0  -4   6 14310.3 602.009  14
   0  -4   7 2472.67 257.542  14
   0  -4   7 2466.04 146.163  19
   0  -4  -7 2770.42 133.202  11
   0  -4  -7 2605.42 128.788  17
   0  -4   7 2472.37 177.634  20
   0  -4   8 34644.6 786.052  20
   0  -4   8 31785.6 666.848  19
   0  -4  -8 32903.5 627.948  17
   0  -4   8 32946.2 1062.24  14
   0  -4  -8 32005.5 623.832  11
   0  -4   9 2057.92 138.809  19
   0  -4  -9 2310.83 128.069  11
   0  -4   9 2077.13 168.165  20
   0  -4  -9 2106.39 125.618  17
   0  -4 -10 21800.5 482.486  17
   0  -4  10 22731.7 603.541  20
   0  -4 -10 22627.2 479.230  11
   0  -4 -11 4047.61 164.605  11
   0  -4 -11 3896.70 166.014  17
   0  -4  11 4480.34 228.185  20
   0  -4 -12 4653.40 173.819   9
   0  -4  12 4701.20 208.085  20
   0  -4  13 4030.42 158.160  20
   0  -4 -13 4078.03 135.654   9
   0  -3   0 17.2465 30.9728   3
   0  -3   0 10.4803 16.0729  14
   0  -3  -1 585.187 41.1877  14
   0  -3   1 818.820 94.6744   3
   0  -3  -1 740.341 89.7200   3
   0  -3   1 670.135 68.2844  14
   0  -3  -2 35366.4 753.924   3
   0  -3  -2 36956.2 739.103  16
   0  -3   2 36217.8 772.655   3
   0  -3   2 34745.7 736.533  14
   0  -3  -3 72898.3 1218.10  16
   0  -3   3 71378.6 1321.13  14
   0  -3  -3 71126.4 1267.07   3
   0  -3   4 8940.42 379.962  14
   0  -3  -4 9373.43 293.679  16
   0  -3  -4 8869.64 323.490   3
   0  -3   5 32852.0 872.631  14
   0  -3  -5 32024.4 703.554   3
   0  -3  -5 33494.9 667.500  16
   0  -3   6 8815.49 441.465  14
   0  -3   7 4025.04 316.463  14
   0  -3  -8 6770.36 224.192  17
   0  -3   8 6721.46 436.256  14
   0  -3   8 6902.11 299.328  20
   0  -3  -8 6726.95 215.592  11
   0  -3   9 1718.07 122.454  19
   0  -3  -9 1777.83 110.037  11
   0  -3   9 1895.66 164.293  20
   0  -3   9 1600.97 219.481  14
   0  -3  -9 1782.49 116.007  17
   0  -3 -10 1741.11 118.502  17
   0  -3  10 1827.98 121.871  19
   0  -3 -10 1888.01 115.553  11
   0  -3  10 2039.19 171.089  20
   0  -3  11 8956.09 347.114  20
   0  -3 -11 8883.85 278.420  17
   0  -3 -11 8666.24 260.405  11
   0  -3  12 5978.47 256.201  20
   0  -3 -12 6405.96 219.465   9
   0  -3 -13 3807.41 146.291   9
   0  -3  13 3530.82 168.176  20
   0  -3 -14 521.217 43.1533   9
   0  -3  14 494.125 49.2927  20
   0  -2   0 66327.2 1097.29   3
   0  -2   0 66847.0 1001.65  14
   0  -2  -1 32553.7 623.486   3
   0  -2   1 31932.1 594.758  14
   0  -2   1 32151.7 630.147   3
   0  -2  -1 32212.9 488.144  14
   0  -2  -2 108988. 1661.37   3
   0  -2   2 108180. 1696.20  14
   0  -2   2 110939. 1681.17   3
   0  -2  -2 108400. 1633.22  16
   0  -2  -3 6326.40 198.925  16
   0  -2   3 6398.22 265.267  14
   0  -2  -3 6202.38 215.751   3
   0  -2  -4 3571.36 147.210  16
   0  -2  -4 3714.12 162.322   3
   0  -2   4 3988.80 227.899  14
   0  -2  -5 109194. 1656.37   3
   0  -2   5 111878. 1917.51  14
   0  -2  -5 106538. 1634.23  16
   0  -2  -5 107454. 1837.86  13
   0  -2  -6 3776.68 168.001  16
   0  -2   6 3514.12 259.467  14
   0  -2   7 5149.22 336.018  14
   0  -2   8 25188.2 847.324  14
   0  -2   9 21065.8 480.621  19
   0  -2  -9 22553.6 462.500  11
   0  -2  -9 21025.2 476.413  17
   0  -2   9 22758.6 832.002  14
   0  -2 -10 18164.2 412.090  11
   0  -2 -10 17796.1 436.776  17
   0  -2  10 17394.8 432.561  19
   0  -2 -11 3559.16 177.927  17
   0  -2  11 3930.48 228.472  20
   0  -2  11 3585.57 168.762  19
   0  -2 -12 300.901 55.4087   9
   0  -2 -12 309.670 54.4389  17
   0  -2  12 168.747 57.0545  20
   0  -2  13 7791.95 272.544  20
   0  -2 -13 7975.99 241.013   9
   0  -2  14 952.681 76.5644  20
   0  -2 -14 1055.41 71.3739   9
   0  -1   0 5.27476 9.62354  14
   0  -1   0 27.7795 18.7349   3
   0  -1   1 65635.2 991.993   3
   0  -1   1 66377.8 999.784  14
   0  -1  -1 66138.0 979.892   3
   0  -1   2 431530. 5667.20  14
   0  -1  -2 413138. 5550.75  16
   0  -1  -2 422233. 5565.69   3
   0  -1  -3 17719.4 333.444  16
   0  -1  -3 17687.7 335.244   3
   0  -1   3 18249.2 444.880  14
   0  -1  -3 17984.9 408.132  13
   0  -1  -3 17822.1 398.356   1
   0  -1  -4 47671.6 742.880   3
   0  -1  -4 46154.8 753.889  16
   0  -1  -4 48175.2 882.169  13
   0  -1   4 48366.8 932.342  14
   0  -1  -5 5650.16 250.321   1
   0  -1  -5 5814.02 260.443  13
   0  -1  -5 5938.63 168.044   3
   0  -1  -5 6036.21 189.629  16
   0  -1   5 6100.54 289.323  14
   0  -1   6 82423.3 1544.12  14
   0  -1  -6 80995.4 1471.97   1
   0  -1  -6 80228.5 1485.20  13
   0  -1   7 9654.10 438.639  14
   0  -1  -7 9617.97 416.219  13
   0  -1  -7 9949.19 417.391   1
   0  -1   8 9311.61 461.159  14
   0  -1  -8 8646.77 427.084  13
   0  -1  -9 2808.85 129.122  11
   0  -1   9 2701.92 258.412  14
   0  -1  -9 2753.14 145.509  17
   0  -1  10 7174.72 374.738   2
   0  -1  10 6845.59 240.300  19
   0  -1 -10 7034.83 255.578  17
   0  -1  10 7336.81 456.277  14
   0  -1 -10 7796.67 268.813   9
   0  -1 -10 7555.10 279.480  21
   0  -1  11 20344.8 467.349  19
   0  -1 -11 21514.5 493.284   9
   0  -1 -11 20786.0 512.177  21
   0  -1 -11 19621.1 491.214  17
   0  -1  12 354.884 74.2190  20
   0  -1 -12 419.340 63.5564   9
   0  -1  12 427.731 58.6873  19
   0  -1 -12 405.381 65.6710  21
   0  -1 -12 390.207 61.0049  17
   0  -1  13 1732.77 130.169  20
   0  -1 -13 1825.58 112.775   9
   0  -1  14 438.153 54.0392  20
   0  -1 -14 616.727 57.8852   9
   0  -1 -15 492.975 38.2882   9
   0   0   1 52339.8 758.145  14
   0   0  -1 51167.9 741.023   1
   0   0  -1 52063.8 719.972  16
   0   0  -1 52116.6 740.248  13
   0   0  -2 62740.6 938.607  13
   0   0  -2 62663.6 896.416  16
   0   0  -2 63164.8 939.217   1
   0   0   2 62462.2 967.287  14
   0   0  -3 119632. 1707.83   1
   0   0   3 115214. 1743.97  14
   0   0  -3 113773. 1704.00  13
   0   0   4 144026. 2167.41  14
   0   0  -4 140277. 2117.32  13
   0   0  -4 143099. 2112.30   1
   0   0  -5 12783.3 255.424   3
   0   0  -5 12361.9 362.903   1
   0   0   5 11811.5 391.241  14
   0   0  -5 11888.2 368.183  13
   0   0  -6 11683.7 386.843   1
   0   0  -6 11651.4 396.309  13
   0   0   6 11019.6 414.661  14
   0   0  -7 9546.69 381.776   1
   0   0   7 9675.04 409.279  14
   0   0  -7 9489.08 394.561  13
   0   0  -8 63494.0 1348.48  13
   0   0  -8 63667.1 1325.73   1
   0   0   8 62712.1 1365.99  14
   0   0   8 63246.6 1230.03   2
   0   0  -9 118.501 64.9073  13
   0   0   9 113.748 62.4648  15
   0   0   9 196.239 64.4801   2
   0   0  -9 219.458 65.5861   1
   0   0  -9 282.306 49.7764   9
   0   0   9 278.910 91.7899  14
   0   0 -10 3013.54 176.302  21
   0   0 -10 2823.03 158.528   9
   0   0  10 2389.49 223.569  15
   0   0 -10 2980.82 267.227   1
   0   0  10 2824.49 265.089  14
   0   0 -10 2768.73 160.783  17
   0   0  10 2646.57 137.731  19
   0   0 -11 528.684 75.2013  21
   0   0  11 598.319 67.4910  19
   0   0 -11 580.951 74.6757   9
   0   0 -11 475.710 67.6692  17
   0   0  12 4566.40 185.080  19
   0   0 -12 4772.09 203.654   9
   0   0 -12 4718.99 218.284  21
   0   0 -13 608.959 70.6753   9
   0   0  13 562.821 74.4669  20
   0   0 -13 732.059 74.3215  21
   0   0  13 568.980 61.6699  19
   0   0 -14 179.057 38.3416   9
   0   0  14 153.963 32.2574  20
   0   0 -14 269.268 37.2259  21
   0   0 -15 14.0211 14.1801   9
   0   1   0-15.1443 12.8084  15
   0   1   1 69465.5 1022.88  15
   0   1   1 67459.3 978.611   2
   0   1  -1 68470.6 975.765  13
   0   1  -1 69954.5 1007.75  15
   0   1   2 405200. 5522.75  15
   0   1   2 413469. 5475.58   2
   0   1  -2 406833. 5480.98  13
   0   1  -3 18839.7 377.854  13
   0   1   3 18628.1 384.829  14
   0   1  -3 19389.2 393.153   1
   0   1   3 20012.6 374.907   2
   0   1   3 19070.0 409.689  15
   0   1   4 48343.4 828.604  14
   0   1  -4 46946.9 822.446   1
   0   1   4 47215.2 851.182  15
   0   1  -4 46689.9 809.670  13
   0   1   4 44961.9 786.743   2
   0   1  -5 5234.64 218.085  13
   0   1   5 5400.66 234.924  15
   0   1  -5 5063.53 219.750   1
   0   1   5 5049.90 200.439   2
   0   1   5 5136.30 224.016  14
   0   1   6 81031.7 1445.40  15
   0   1   6 80861.0 1436.39  14
   0   1   6 83435.1 1373.84   2
   0   1  -6 81849.8 1429.18   1
   0   1  -6 79849.9 1413.25  13
   0   1  -7 12121.3 431.443   1
   0   1  -7 11944.1 428.536  13
   0   1   7 12467.7 441.143  14
   0   1   7 12385.8 395.814   2
   0   1   7 12001.3 440.233  15
   0   1   8 8397.49 386.084  14
   0   1   8 8251.06 385.820  15
   0   1  -8 8747.21 390.939   1
   0   1  -8 8541.60 390.597  13
   0   1  -9 3311.70 261.799  13
   0   1  -9 3316.40 181.422  21
   0   1  -9 3213.37 169.944  17
   0   1   9 2640.38 237.661  15
   0   1  -9 3149.65 254.463   1
   0   1  -9 3498.39 166.443   9
   0   1  10 6358.48 397.475  15
   0   1 -10 7113.25 414.827   1
   0   1 -10 7123.28 261.462   9
   0   1 -10 7356.41 291.215  21
   0   1  10 7162.93 235.193  19
   0   1 -11 18860.8 472.786   9
   0   1 -11 18872.5 508.999  21
   0   1  11 18503.9 431.723  19
   0   1 -12 275.121 51.3797  21
   0   1  12 279.092 49.1960  19
   0   1 -12 245.767 53.6891   9
   0   1 -13 1577.85 111.872   9
   0   1 -13 1762.21 121.023  21
   0   1 -14 929.740 75.2154   9
   0   1 -14 1064.55 75.5797  21
   0   1 -15 311.694 30.5135   7
   0   1 -15 354.384 33.4543   9
   0   2   0 62979.7 1027.86  15
   0   2   1 35134.0 669.629  15
   0   2  -1 35930.6 654.754  15
   0   2  -2 109731. 1632.99  15
   0   2   2 111471. 1585.03   2
   0   2   2 108679. 1672.77  15
   0   2  -3 7820.86 212.538  13
   0   2  -3 7924.77 248.348   1
   0   2   3 8359.16 283.489  15
   0   2   3 7538.20 217.149   2
   0   2  -4 5739.10 218.383   1
   0   2   4 5722.55 176.500  14
   0   2   4 5753.09 251.490  15
   0   2  -4 5594.09 195.494  13
   0   2   4 5720.29 197.105   2
   0   2   5 107511. 1686.24   2
   0   2  -5 108360. 1745.04   1
   0   2   5 111010. 1670.15  14
   0   2   5 110277. 1841.52  15
   0   2  -5 108873. 1707.42  13
   0   2  -6 3877.94 205.016  13
   0   2  -6 3708.93 210.422   1
   0   2   6 4136.65 254.132  15
   0   2   6 3538.44 183.769   2
   0   2  -7 5107.91 275.541   1
   0   2   7 4968.47 304.231  15
   0   2  -7 4709.59 252.792  13
   0   2   8 26285.5 806.403  15
   0   2  -8 25564.1 734.173   1
   0   2  -9 22015.4 719.337   1
   0   2  -9 21280.9 506.604  12
   0   2  -9 21267.9 542.396  21
   0   2   9 20974.4 760.068  15
   0   2   9 21632.3 454.983  19
   0   2  -9 21066.3 505.541   9
   0   2 -10 17313.6 459.730   9
   0   2 -10 16636.3 480.968  21
   0   2  10 17384.8 403.834  19
   0   2 -11 3698.95 192.295   9
   0   2  11 4039.07 169.299  19
   0   2  12 228.809 43.3403  19
   0   2 -12 195.828 51.7803   9
   0   2 -12 194.219 49.7750  21
   0   2  13 7790.87 222.869  19
   0   2 -13 7887.20 252.639   9
   0   2 -13 7956.43 264.934  21
   0   2 -14 1256.92 83.2271   9
   0   2 -14 1359.55 83.6171  21
   0   3   0 6.47117 28.5480  15
   0   3   1 640.878 86.2419  15
   0   3  -1 840.870 88.5763  15
   0   3  -2 37563.4 757.347  15
   0   3   2 37240.6 793.052  15
   0   3  -2 37210.8 661.125  13
   0   3  -3 72497.7 1164.45  13
   0   3   3 73401.0 1355.59  15
   0   3  -3 75325.2 1273.68   1
   0   3   4 9130.18 284.118   2
   0   3  -4 8891.63 317.204   1
   0   3   4 8687.45 368.455  15
   0   3  -4 8470.07 256.544  13
   0   3  -5 33880.5 753.381   1
   0   3   5 35158.0 878.616  15
   0   3  -6 10242.3 386.648   1
   0   3   6 10611.5 467.692  15
   0   3   7 3901.56 299.201  15
   0   3  -7 3981.71 260.302   1
   0   3  -8 6305.23 350.658   1
   0   3   8 6485.75 412.727  15
   0   3  -8 5935.73 241.604   9
   0   3  -8 6286.92 261.588  21
   0   3  -8 6480.72 255.355  12
   0   3   8 6477.10 212.279  19
   0   3   9 1838.64 230.619  15
   0   3  -9 1817.24 201.537   1
   0   3  -9 1766.71 134.550   9
   0   3  -9 1823.77 131.496  12
   0   3  -9 1737.79 140.295  21
   0   3   9 1692.60 108.987  19
   0   3 -10 1369.56 127.199  21
   0   3 -10 1346.61 118.254   9
   0   3 -10 1336.53 110.668  12
   0   3  10 1279.21 95.1469  19
   0   3 -11 8000.24 305.180  21
   0   3  11 8537.20 255.194  19
   0   3 -11 8379.81 298.115   9
   0   3 -11 8167.49 269.814  12
   0   3 -12 5695.56 226.711   9
   0   3  12 5697.72 192.430  19
   0   3 -12 5474.81 232.641  21
   0   3 -13 3671.00 163.226  21
   0   3 -13 3750.51 161.109   9
   0   3  13 3844.94 135.652  19
   0   3 -14 498.895 45.7466  21
   0   4   0 12660.3 434.591  15
   0   4   1 5499.88 280.959  15
   0   4  -1 5319.89 266.014  15
   0   4  -1 5208.68 216.355  13
   0   4   2 68901.3 1341.87  15
   0   4  -2 67202.2 1283.76  15
   0   4  -3 3773.77 217.468   1
   0   4   3 3401.30 238.338  15
   0   4   4 28962.2 820.059  15
   0   4  -4 30322.3 738.601   1
   0   4  -5 2455.12 187.486   1
   0   4   5 2774.27 241.664  15
   0   4  -6 15375.9 523.632   1
   0   4   6 15078.3 622.842  15
   0   4   7 1966.48 230.065  15
   0   4  -7 2124.78 198.137   1
   0   4  -7 1955.20 137.855  12
   0   4  -7 1803.25 133.497   9
   0   4  -7 2084.64 143.816  21
   0   4   8 34922.4 1081.48  15
   0   4  -8 32857.2 717.508  21
   0   4  -8 33669.1 936.132   1
   0   4  -8 33294.5 712.995  12
   0   4  -9 1999.93 150.083  21
   0   4  -9 1840.92 137.494  12
   0   4   9 2246.90 126.318  19
   0   4  -9 1841.96 145.607   9
   0   4 -10 20832.9 510.216  12
   0   4  10 21792.2 465.301  19
   0   4 -10 21394.5 537.880   9
   0   4 -10 20113.5 529.953  21
   0   4 -11 4635.26 214.137  21
   0   4 -11 4436.53 206.979   9
   0   4  11 4650.23 173.829  19
   0   4 -11 4430.53 187.689  12
   0   4 -12 4906.10 196.516  21
   0   4  12 5108.91 165.927  19
   0   4 -12 4621.34 164.185  12
   0   4  13 3381.02 112.115  19
   0   4 -13 3149.28 128.616  21
   0   5   0 26.3304 35.0199  15
   0   5  -1 2858.12 222.320  15
   0   5   1 2936.18 232.941  15
   0   5  -2 37376.1 913.076  15
   0   5   2 35663.8 951.226  15
   0   5   3 6210.22 368.187  15
   0   5  -3 7016.03 342.968   1
   0   5  -4 8417.88 386.765   1
   0   5   4 7624.45 430.808  15
   0   5   5 14815.5 635.666  15
   0   5  -5 14806.1 417.503  12
   0   5  -5 15088.8 541.842   1
   0   5   6 14754.2 342.768  22
   0   5  -6 13848.4 413.001  12
   0   5   6 13811.4 643.455  15
   0   5  -6 14464.5 548.319   1
   0   5   7 1060.16 80.3400  22
   0   5  -7 1055.62 101.583  21
   0   5  -7 1050.45 104.545  12
   0   5  -8 9486.64 329.366  21
   0   5  -8 9544.25 332.491  12
   0   5   9 12375.8 320.524  19
   0   5  -9 11262.5 363.502  21
   0   5  -9 12268.8 371.192  12
   0   5 -10 12371.1 353.852  12
   0   5 -10 11996.7 357.437  21
   0   5 -11 3492.63 159.692  21
   0   5 -11 3650.44 155.820  12
   0   5  11 3784.66 141.350  19
   0   5 -12 7954.44 220.366  21
   0   5  12 8577.13 199.281  19
   0   5 -12 8014.58 204.045  12
   0   5 -13 2580.52 83.9278   5
   0   6   0 36169.5 991.550  15
   0   6   0 36983.9 700.012  22
   0   6   1 14315.5 586.916  15
   0   6   1 14171.6 359.009  22
   0   6  -1 14560.7 572.012  15
   0   6  -2 22095.4 703.765   1
   0   6   2 20737.6 748.170  15
   0   6   2 21649.4 472.038  22
   0   6  -3 42475.1 823.914  12
   0   6   3 43060.3 1174.57  15
   0   6   3 43265.8 774.281  22
   0   6  -4 19697.2 500.485  12
   0   6   4 20844.9 789.068  15
   0   6   4 20175.9 442.248  22
   0   6   5 8321.71 245.970  22
   0   6  -5 7798.55 293.094  12
   0   6  -6 8627.52 312.702  12
   0   6   6 8909.43 255.235  22
   0   6  -7 972.083 100.343  12
   0   6   7 1005.94 77.8247  22
   0   6  -8 6453.70 253.296  12
   0   6  -9 290.256 46.3942  21
   0   6  -9 323.286 53.3578  12
   0   6   9 323.312 47.3922  19
   0   6 -10 2125.68 110.480  21
   0   6  10 2408.60 108.981  19
   0   6 -10 2213.26 119.767  12
   0   6 -11 818.515 59.7290  12
   0   6  11 824.078 54.0015  19
   0   6 -11 789.314 54.7052  21
   0   7   0 62.1537 32.2733  22
   0   7  -1 16008.8 405.845  22
   0   7   1 15785.8 393.724  22
   0   7   2 4766.37 189.764  22
   0   7  -2 5092.40 209.306  22
   0   7  -3 8296.84 274.816  22
   0   7   3 7906.09 249.664  22
   0   7  -4 2101.86 132.782  12
   0   7   4 2108.37 118.602  22
   0   7   5 7098.46 220.508  22
   0   7  -5 6913.74 258.174  12
   0   7   6 11265.5 280.540  22
   0   7  -6 10823.3 330.587  12
   0   7  -6 10588.9 295.231  22
   0   7  -7 20514.4 420.835  22
   0   7  -7 21212.0 481.417  12
   0   7   7 19825.1 405.923  22
   0   7  -8 3908.00 169.511  12
   0   7   8 4091.98 146.831  19
   0   7   9 615.996 50.2478  19
   0   7  -9 695.118 61.4472  12
   0   7  10 9886.39 202.049  19
   0   7 -10 9558.38 220.945  12
   0   8   0 3545.07 157.761  22
   0   8  -1 1673.87 108.069  22
   0   8   1 1361.40 83.1072  22
   0   8   2 1528.56 96.5636  22
   0   8  -2 1579.76 105.783  22
   0   8  -3 60.3189 28.9114  22
   0   8   3 71.8240 28.9726  22
   0   8  -4 7177.03 224.587  22
   0   8   4 6896.14 205.418  22
   0   8  -5 17026.8 368.178  22
   0   8   5 17759.7 355.290  22
   0   8  -6 9292.23 224.966  22
   0   8   6 9102.10 219.606  22
   0   8  -6 9139.16 245.025  12
   0   8   7 8689.20 188.391  22
   0   8   7 9246.23 212.917  19
   0   8  -7 8664.06 224.978  12
   0   8  -8 7695.83 187.681  12
   0   8   8 7926.37 177.027  19
   0   9   0-21.1698 20.8322  22
   0   9  -1 2760.08 114.887  22
   0   9   1 2690.54 111.663  22
   0   9  -2 8551.44 218.654  22
   0   9   2 8513.60 212.421  22
   0   9   3 2090.84 89.3887  22
   0   9  -3 2001.28 89.5127  22
   0   9  -4 1805.70 77.0068  22
   0   9   4 1813.31 77.4658  22
   0   9   5 3846.41 109.558  22
   0   9  -5 4828.66 114.513  22
   0   9   6 6317.80 137.998  19
  -1  -9   6 6020.08 139.601  17
   1  -9  -6 6483.54 141.068  11
  -1  -9   5 3360.54 108.007  17
   1  -9  -5 3805.19 112.478  11
   1  -9  -4 45.3574 21.2612  11
  -1  -9   4 1.73897 13.5553  17
  -1  -9   3 1619.66 79.8431  17
   1  -9  -3 1532.44 78.8025  11
   1  -9  -2 5230.89 159.605  11
  -1  -9   2 5104.58 155.210  17
  -1  -9   1 1245.18 71.2064  17
   1  -9  -1 1234.35 73.9757  11
  -1  -9   0 2790.14 105.947  11
  -1  -9   0 2826.97 108.284  17
   1  -9   1 4420.50 156.314  10
  -1  -9  -1 4018.81 128.517  11
  -1  -9  -1 4018.87 130.360  17
  -1  -9  -2 3289.40 112.380  17
  -1  -9  -2 3599.88 116.245  11
   1  -9   2 3572.39 133.941  10
   1  -9   3 5234.23 156.439  10
  -1  -9  -3 5056.93 139.321  11
  -1  -9  -3 5114.77 137.067  17
  -1  -9  -4 1502.00 60.5338  17
   1  -9   4 1685.94 73.7486  10
  -1  -9  -4 1577.17 66.4591  11
  -1  -9  -5 659.029 37.0004  11
  -1  -8   9 669.624 40.3750  17
  -1  -8   8 1160.66 65.4244  17
   1  -8  -8 1104.90 58.2839  11
  -1  -8   7 2453.41 110.890  17
   1  -8  -7 2443.13 102.647  11
   1  -8  -6 3137.50 126.374  11
  -1  -8   6 3230.16 136.614  17
   1  -8  -5 2066.53 105.416  11
  -1  -8   5 2072.29 113.030  17
  -1  -8   4 9273.57 267.801  17
   1  -8  -4 9086.35 253.684  11
   1  -8  -3 14411.7 352.940  11
  -1  -8   3 14834.1 362.699  17
  -1  -8   3 15453.7 347.855  10
  -1  -8   2 9194.75 263.756  10
   1  -8  -2 9220.86 291.435  10
  -1  -8   2 9404.44 271.264  17
  -1  -8   1 2618.95 130.462  17
  -1  -8   1 2596.77 134.812  10
   1  -8  -1 2535.00 143.524  10
  -1  -8   0 9486.78 266.877  17
   1  -8   0 9639.15 298.168  10
   1  -8   0 9497.92 269.221  20
   1  -8   1 4482.13 192.400  10
   1  -8   1 4470.28 160.058  17
   1  -8   1 4453.01 180.412  20
  -1  -8  -1 4500.31 170.374  17
  -1  -8  -2 1729.01 99.7281  17
   1  -8   2 1923.72 101.624  17
   1  -8   2 1684.34 112.570  10
   1  -8   2 1731.41 114.657  20
  -1  -8  -2 1793.73 101.783  11
   1  -8   3 3009.73 150.490  10
  -1  -8  -3 3337.63 135.614  11
   1  -8   3 3387.32 160.125  20
  -1  -8  -3 3075.44 132.777  17
   1  -8   3 3249.88 135.768  17
   1  -8   4 6079.26 211.267  10
  -1  -8  -4 6251.09 189.532  11
   1  -8   4 6487.75 230.805  20
  -1  -8  -4 5922.63 185.655  17
   1  -8   4 6113.67 193.093  17
   1  -8   5 28505.8 538.085  10
   1  -8   5 27664.1 517.302  17
   1  -8   5 27743.4 565.452  20
  -1  -8  -5 28353.6 504.393  17
  -1  -8  -5 28760.8 509.752  11
   1  -8   6 4135.78 139.428  10
   1  -8   6 3723.52 153.490  20
  -1  -8  -6 3789.64 126.112  17
   1  -8   6 3742.27 131.890  17
  -1  -8  -6 3914.91 129.500  11
  -1  -8  -7 3028.08 98.0594  17
   1  -8   7 3294.22 109.932  17
  -1  -8  -7 3183.44 106.737  11
   1  -8   7 3215.58 128.119  20
   1  -8   8 3288.39 110.097  20
  -1  -8  -8 3439.09 93.2908  11
  -1  -7  10 4251.38 138.012  17
   1  -7 -10 4405.37 125.178  11
  -1  -7   9 993.407 76.0006  20
  -1  -7   9 981.290 72.5977  17
   1  -7  -9 1078.35 68.3466  11
  -1  -7   8 922.141 85.0261  20
   1  -7  -8 1010.99 75.2819  11
  -1  -7   8 1064.86 83.0412  17
  -1  -7   7 1980.28 133.929  20
   1  -7  -7 2239.52 118.028  11
  -1  -7   7 2381.87 133.440  17
   1  -7  -6 2681.92 132.147  11
  -1  -7   6 2720.19 147.938  17
  -1  -7   6 2499.65 152.352  20
   1  -7  -5 13588.8 345.627  11
  -1  -7   5 13701.4 372.002  17
  -1  -7   4 31522.9 639.313  17
   1  -7  -4 30042.7 601.699  11
  -1  -7   3 13021.6 358.102  17
  -1  -7   3 12727.6 339.354  10
   1  -7  -3 12550.7 364.196  10
  -1  -7   2 3488.57 164.227  10
   1  -7  -2 3663.60 182.021  10
  -1  -7   2 3584.39 168.755  17
   1  -7  -2 3546.30 159.905  20
  -1  -7   1 14826.3 377.366  17
   1  -7  -1 14725.6 377.196  20
  -1  -7   1 14459.2 377.864  10
   1  -7  -1 14924.3 402.451  10
  -1  -7   0 17730.1 431.931  10
   1  -7   0 17383.7 447.088  10
  -1  -7   0 17460.1 415.387  17
   1  -7   0 17496.4 437.064  20
   1  -7   0 17612.0 396.664  17
  -1  -7  -1 42094.6 768.908  17
   1  -7   1 42794.9 761.761  17
   1  -7   1 42160.8 823.229  20
  -1  -7  -1 42392.5 799.717  10
   1  -7   1 41891.5 821.293  10
   1  -7   2 3748.73 165.833  17
  -1  -7  -2 3706.72 163.189  17
   1  -7   2 3743.21 189.225  10
   1  -7   2 3730.34 194.701  20
  -1  -7  -3 13906.9 347.414  11
   1  -7   3 14154.6 367.201  17
   1  -7   3 13952.9 398.620  10
  -1  -7  -3 13935.5 349.398  17
   1  -7   3 14810.2 420.791  20
  -1  -7  -4 14364.8 351.882  11
   1  -7   4 15209.7 380.435  17
   1  -7   4 14254.0 424.511  20
   1  -7   4 14847.7 407.418  10
  -1  -7  -4 14476.4 353.332  17
  -1  -7  -5 15519.4 364.538  11
   1  -7   5 15278.4 409.600  10
   1  -7   5 15937.4 445.301  20
  -1  -7  -5 15448.0 365.022  17
   1  -7   5 15549.2 390.372  17
  -1  -7  -6 4343.51 164.028  11
   1  -7   6 4281.45 186.362  10
   1  -7   6 4390.50 210.479  20
  -1  -7  -6 4213.53 160.509  17
   1  -7   7 6237.33 213.135  10
  -1  -7  -7 6400.72 195.346  11
   1  -7   7 6685.41 253.318  20
  -1  -7  -7 6447.76 194.742  17
   1  -7   8 172.488 44.3630  20
  -1  -7  -8 166.632 31.6151  17
  -1  -7  -8 146.492 29.6662  11
  -1  -7  -9 527.255 43.6211  11
   1  -7   9 522.407 47.3057  17
  -1  -7  -9 507.513 40.8244  17
   1  -7   9 624.968 60.8994  20
   1  -7  10 1436.64 71.5913  20
   1  -7  10 1253.64 57.6573  17
  -1  -6  12 2560.96 89.5669  17
  -1  -6  12 2577.78 95.9276  20
  -1  -6  11 1756.95 101.320  20
   1  -6 -11 1688.03 81.9321  11
  -1  -6  10 87.8204 33.6954  20
   1  -6 -10 163.933 32.2792  11
   1  -6  -9 3511.66 148.546  11
  -1  -6   9 3753.00 196.697  20
  -1  -6   8 3653.29 203.793  20
   1  -6  -8 4199.13 168.353  11
  -1  -6   7 154.498 54.5095  20
   1  -6  -7 182.206 44.6222  11
   1  -6  -6 1072.66 86.3159  11
  -1  -6   6 868.202 104.915  20
   1  -6  -5 35656.0 680.666  11
  -1  -6   5 35888.1 766.436  20
   1  -6  -4 3689.52 267.319  16
   1  -6  -4 3596.83 179.111  10
   1  -6  -3 12593.6 356.626  10
   1  -6  -3 12793.0 333.440  20
   1  -6  -3 13642.1 546.316  16
  -1  -6   2 38634.0 1096.52   3
   1  -6  -2 36484.1 693.388  20
   1  -6  -2 37066.1 1010.81  16
   1  -6  -2 37197.0 718.246  10
  -1  -6   2 36173.3 698.206  17
  -1  -6   2 35663.6 692.574  10
   1  -6  -1 8756.46 462.247  16
  -1  -6   1 8439.30 267.962  10
  -1  -6   1 8904.44 484.374   3
  -1  -6   1 8397.93 261.903  17
   1  -6  -1 8780.16 277.689  20
   1  -6  -1 8539.00 280.648  10
   1  -6   0 2972.19 272.062  16
  -1  -6   0 2935.72 153.570  10
   1  -6   0 2733.95 152.327  20
   1  -6   0 2989.40 158.824  10
  -1  -6   0 2937.88 141.953  17
  -1  -6   0 2847.63 272.953   3
  -1  -6  -1 14391.9 585.725  16
   1  -6   1 14936.4 362.227  17
  -1  -6  -1 15099.4 386.744  10
  -1  -6  -1 14891.4 365.329  17
   1  -6   1 16098.9 422.683  20
   1  -6   1 15365.5 411.631  10
  -1  -6  -1 14549.5 637.793   3
  -1  -6  -2 10300.4 287.883  17
  -1  -6  -2 10536.4 314.961  10
   1  -6   2 10445.3 343.029  20
   1  -6   2 10473.3 335.292  10
  -1  -6  -2 10205.2 526.572   3
   1  -6   3 35487.2 750.203  20
  -1  -6  -3 34074.1 645.678  17
   1  -6   3 33997.6 717.187  10
   1  -6   4 11830.6 372.631  10
  -1  -6  -4 11991.4 316.499  17
   1  -6   4 11984.4 394.943  20
  -1  -6  -4 11842.1 316.221  11
  -1  -6  -5 15019.5 365.799  11
  -1  -6  -5 15143.7 367.897  17
   1  -6   5 14956.1 457.806  20
   1  -6   5 14343.3 419.267  10
  -1  -6  -6 15595.9 375.782  11
  -1  -6  -6 15199.7 373.863  17
   1  -6   6 15900.7 474.178  20
   1  -6   6 15500.8 436.858  10
  -1  -6  -7 1834.35 112.668  11
   1  -6   7 1898.52 134.582  10
   1  -6   7 2135.01 163.145  20
  -1  -6  -7 2043.45 118.096  17
   1  -6   8 3423.59 200.455  20
   1  -6   8 3344.23 164.351  10
  -1  -6  -8 3530.11 151.261  17
  -1  -6  -8 3699.25 151.763  11
   1  -6   9 5174.37 221.647  20
  -1  -6  -9 4685.33 167.668  17
  -1  -6  -9 4984.01 167.722  11
   1  -6  10 7868.28 246.996  20
  -1  -6 -10 7656.14 196.456  11
   1  -6  11 1605.76 87.8259  20
  -1  -5  13 10163.6 234.273  20
   1  -5 -12 255.456 37.0316   9
  -1  -5  12 309.727 48.2377  20
  -1  -5  11 2003.55 140.220  20
   1  -5 -11 1699.61 98.0027  11
  -1  -5  10 7145.78 295.403  20
   1  -5 -10 7049.52 222.164  11
  -1  -5   9 12767.1 435.638  20
   1  -5  -9 13280.5 335.853  11
   1  -5  -8 6470.96 223.927  11
  -1  -5   8 6349.51 301.526  20
   1  -5  -7 13564.3 344.145  11
  -1  -5   7 13385.5 636.271  14
  -1  -5   7 12946.6 435.511  20
   1  -5  -6 32585.3 617.302  11
  -1  -5   6 32736.6 739.794  20
  -1  -5   5 13149.6 576.897  14
   1  -5  -5 13218.6 336.356  11
  -1  -5   4 2813.87 241.393  14
   1  -5  -4 3227.48 229.300  16
   1  -5  -3 18064.1 590.592  16
  -1  -5   3 18357.7 653.163   3
  -1  -5   3 16855.9 586.110  14
  -1  -5   2 10636.7 485.906   3
   1  -5  -2 10899.8 462.592  16
  -1  -5   1 4798.94 316.866   3
   1  -5  -1 5504.14 327.820  16
  -1  -5   0 112.743 56.4943   3
  -1  -5  -1 23482.4 754.871   3
  -1  -5  -2 14181.9 570.077   3
  -1  -5  -2 13958.4 501.323  16
  -1  -5  -3 7089.35 392.406   3
  -1  -5  -4 17849.3 648.865   3
   1  -5   5 51.2074 31.1281  19
   1  -5   5 76.4303 59.2002  14
  -1  -5  -5 27.5675 17.2487  17
  -1  -5  -5 39.8971 23.5668  11
   1  -5   5 71.0709 45.7869  20
  -1  -5  -6 5825.53 208.165  17
   1  -5   6 5821.13 272.317  20
   1  -5   6 5952.65 391.220  14
  -1  -5  -6 5815.57 207.142  11
   1  -5   6 5510.58 238.784  19
  -1  -5  -7 22551.7 483.113  17
   1  -5   7 21468.4 534.702  19
  -1  -5  -7 21480.9 473.285  11
   1  -5   7 22952.4 609.663  20
   1  -5   8 10136.9 337.411  19
  -1  -5  -8 10666.4 296.107  11
  -1  -5  -8 10792.4 304.581  17
   1  -5   8 11423.5 396.752  20
   1  -5   9 5967.18 266.762  20
  -1  -5  -9 5446.35 201.509  17
  -1  -5  -9 5495.83 196.761  11
   1  -5   9 5581.76 222.897  19
   1  -5  10 23272.3 564.811  20
  -1  -5 -10 23930.4 467.502  11
  -1  -5 -10 22627.4 473.870  17
  -1  -5 -11 2337.70 111.698  17
   1  -5  11 2469.84 139.901  20
  -1  -5 -12 825.033 51.2491  17
  -1  -5 -12 886.817 55.7302   9
  -1  -4  14 111.104 24.3155  20
   1  -4 -13 2157.88 97.1535   9
  -1  -4  13 2373.82 126.803  20
   1  -4 -12 10832.2 288.196   9
  -1  -4  12 10948.5 343.654  20
  -1  -4  11 4636.13 242.824  20
   1  -4 -11 4872.64 178.604  11
  -1  -4  10 697.476 106.465  20
   1  -4 -10 997.539 84.4865  11
   1  -4  -9 1038.75 85.3388  11
  -1  -4   9 1128.38 131.355  20
   1  -4  -8 20230.3 448.685  11
  -1  -4   8 20801.0 823.990  14
  -1  -4   8 21768.3 594.611  20
   1  -4  -7 11768.2 303.622  11
  -1  -4   7 11624.1 575.242  14
  -1  -4   7 10984.7 394.679  20
  -1  -4   6 17972.6 695.731  14
   1  -4  -6 19012.6 547.488  16
  -1  -4   5 19567.0 690.988  14
   1  -4  -5 20997.3 580.421  16
   1  -4  -4 49412.3 1003.22  16
  -1  -4   4 45036.7 1089.72  14
  -1  -4   4 46205.7 1051.75   3
   1  -4  -4 48243.4 987.314   3
  -1  -4   3 7413.99 350.636   3
  -1  -4   3 7132.27 345.178  14
   1  -4  -3 7875.16 329.838   3
   1  -4  -3 7545.49 325.400  16
  -1  -4   2 20042.0 613.624   3
   1  -4  -2 20890.0 587.147   3
  -1  -4   2 19235.1 565.435  14
   1  -4  -2 21080.4 595.119  16
  -1  -4   1 15946.4 468.586  14
   1  -4  -1 17481.8 534.170   3
  -1  -4   1 16517.9 546.790   3
  -1  -4   0 22440.3 536.972  14
  -1  -4   0 23451.8 671.995   3
  -1  -4  -1 13354.0 490.225   3
   1  -4   2 18122.9 506.547  14
  -1  -4  -2 19048.1 602.621   3
  -1  -4  -3 912.574 97.9222  16
  -1  -4  -3 960.331 125.950   3
   1  -4   3 952.341 120.893  14
   1  -4   4 12481.3 485.360  14
  -1  -4  -4 12335.9 481.158   3
   1  -4   5 3880.79 284.794  14
  -1  -4  -5 4172.10 272.484   3
   1  -4   6 602.286 119.082  14
   1  -4   7 14248.2 447.696  20
  -1  -4  -7 13466.4 342.921  17
   1  -4   7 12241.2 374.802  19
  -1  -4  -7 13379.5 335.698  11
   1  -4   7 13333.6 621.329  14
  -1  -4  -8 15439.5 368.342  11
  -1  -4  -8 15170.3 378.780  17
   1  -4   8 15185.9 484.092  20
   1  -4   9 7076.89 269.617  19
  -1  -4  -9 7703.08 243.129  11
  -1  -4  -9 7404.19 253.466  17
   1  -4   9 7592.39 323.343  20
  -1  -4 -10 653.409 71.0441  11
   1  -4  10 577.839 74.5368  19
   1  -4  10 504.465 86.0769  20
  -1  -4 -10 607.068 68.9120  17
  -1  -4 -11 207.575 36.3795  11
   1  -4  11 290.554 62.8157  20
  -1  -4 -11 205.651 36.8434  17
   1  -4  11 217.734 41.5878  19
  -1  -4 -12 212.964 37.5418  17
  -1  -4 -12 281.460 38.3369   9
   1  -4  12 242.929 36.2758  19
   1  -4  12 291.198 50.1481  20
  -1  -4 -13 3189.27 108.071   9
   1  -4  13 3125.25 119.283  20
   1  -3 -14 11344.5 249.707   9
  -1  -3  14 11636.0 286.514  20
   1  -3 -13 2252.62 113.489   9
  -1  -3  13 2160.65 139.201  20
  -1  -3  12 196.152 56.0225  20
   1  -3 -12 163.536 42.4441   9
  -1  -3  11 21428.2 569.668  20
   1  -3 -11 18752.2 428.572  11
   1  -3 -10 2647.45 134.706  11
  -1  -3  10 2911.30 202.079  20
   1  -3  -9 1600.94 102.122  11
  -1  -3   9 1416.77 207.090  14
   1  -3  -8 1198.28 85.3527  11
  -1  -3   8 1213.05 190.989  14
  -1  -3   7 2990.44 269.919  14
   1  -3  -7 3184.14 194.813  16
  -1  -3   6 23667.0 775.266  14
   1  -3  -6 25708.2 614.131  16
  -1  -3   5 1051.61 138.126  14
   1  -3  -5 1261.57 113.489  16
   1  -3  -4 19932.6 507.942  16
   1  -3  -4 20580.5 488.400   3
  -1  -3   4 21031.8 553.799   3
  -1  -3   4 19713.2 606.215  14
   1  -3  -3 105299. 1675.55   3
  -1  -3   3 101864. 1785.67  14
  -1  -3   3 104530. 1746.75   3
   1  -3  -3 105007. 1690.91  16
  -1  -3   2 40686.5 856.003   3
  -1  -3   2 38993.6 838.276  14
   1  -3  -2 40161.5 808.129   3
  -1  -3   1 22306.4 542.574  14
   1  -3  -1 24184.9 566.797   3
  -1  -3   1 23887.3 597.127   3
  -1  -3   0 2458.28 173.357   3
   1  -3   0 2659.32 111.627  14
  -1  -3   0 2377.45 136.148  14
   1  -3   0 2689.35 170.831   3
   1  -3   1 5314.14 202.080  14
  -1  -3  -1 5293.80 255.417   3
   1  -3   2 24736.9 581.145  14
  -1  -3  -2 25287.4 632.211   3
  -1  -3  -3 31863.9 755.144   3
  -1  -3  -3 32689.2 629.976  16
   1  -3   3 32510.6 754.711  14
  -1  -3  -4 24343.4 642.334   3
   1  -3   4 25252.8 693.459  14
   1  -3   5 29041.0 819.169  14
  -1  -3  -5 28602.5 720.058   3
   1  -3   6 1051.71 151.415  14
   1  -3   7 22729.9 806.380  14
   1  -3   8 243.816 51.6026  19
  -1  -3  -8 342.644 49.6418  11
  -1  -3  -8 239.390 45.2448  17
   1  -3   8 224.292 87.2616  14
   1  -3   8 195.033 64.2825  20
   1  -3   9 235.613 69.9716  20
  -1  -3  -9 246.423 41.5549  11
  -1  -3  -9 307.012 54.6598  17
   1  -3   9 315.811 58.3424  19
  -1  -3 -10 978.490 91.9386  17
   1  -3  10 907.471 90.4177  19
   1  -3  10 993.975 119.336  20
  -1  -3 -10 1012.22 82.8705  11
  -1  -3 -11 4192.53 186.449  17
   1  -3  11 4118.27 222.989  20
   1  -3  11 4324.83 188.796  19
   1  -3  12 2398.08 126.700  19
  -1  -3 -12 2352.42 127.472  17
   1  -3  12 2271.36 144.659  20
  -1  -3 -12 2659.46 133.256   9
   1  -3  13 425.940 52.7065  20
  -1  -3 -13 535.280 52.0382   9
  -1  -3 -14 108.134 18.7636   9
  -1  -2  14 942.260 81.8662  20
   1  -2 -14 938.687 68.9164   9
  -1  -2  13 5616.78 245.163  20
   1  -2 -13 5658.94 201.369   9
   1  -2 -12 3390.83 165.297   9
  -1  -2  12 3400.88 205.530  20
   1  -2 -12 3008.66 148.777  17
   1  -2 -11 2142.63 133.526  17
   1  -2 -11 2275.23 141.243   9
   1  -2 -10 31768.1 631.748  17
   1  -2 -10 30955.4 600.414  11
  -1  -2   9 30725.7 992.971  14
   1  -2  -9 30199.6 572.553  11
  -1  -2   8 35901.8 1045.33  14
   1  -2  -7 11684.2 375.100  16
  -1  -2   7 11840.1 520.568  14
   1  -2  -6 26341.3 590.340  16
  -1  -2   6 25707.2 757.800  14
   1  -2  -5 46809.6 863.078  16
  -1  -2   5 48902.5 1054.64  14
  -1  -2   4 40290.6 761.112   3
   1  -2  -4 39987.9 748.413  16
   1  -2  -4 40797.3 679.887   3
  -1  -2   4 40939.4 889.827  14
   1  -2  -3 44733.8 752.829   3
   1  -2  -3 43550.0 785.605  16
  -1  -2   3 45076.6 818.964   3
  -1  -2   3 43618.5 890.913  14
   1  -2  -2 84956.4 1304.61   3
  -1  -2   2 83810.4 1363.84   3
  -1  -2   2 82879.6 1390.10  14
   1  -2  -2 83928.5 1331.51  16
  -1  -2   1 88791.0 1424.08  14
   1  -2  -1 91965.9 1411.19   3
  -1  -2   1 91116.0 1451.60   3
   1  -2   0 121496. 1744.08  14
  -1  -2   0 125444. 1876.28   3
  -1  -2  -1 62203.8 974.171  13
  -1  -2  -1 61175.2 1050.19   3
   1  -2   1 60586.5 997.955  14
   1  -2   2 17614.7 436.289  14
  -1  -2  -2 17947.0 414.297  13
  -1  -2  -2 17584.8 432.877   3
  -1  -2  -3 126604. 1949.91  13
   1  -2   3 126111. 2004.41  14
  -1  -2  -3 124867. 1777.22  16
  -1  -2  -3 123301. 1934.62   3
  -1  -2  -4 32271.5 529.935  16
  -1  -2  -4 30608.1 712.337  13
   1  -2   4 32146.7 761.755  14
  -1  -2  -4 30427.7 662.484   3
  -1  -2  -5 22044.7 616.539  13
   1  -2   5 22874.5 661.834  14
  -1  -2  -5 21407.5 535.485   3
  -1  -2  -6 13393.1 499.683  13
   1  -2   6 13485.2 532.609  14
  -1  -2  -7 12038.3 517.012  13
   1  -2   7 12560.2 551.654  14
  -1  -2  -8 7391.87 430.116  13
   1  -2   8 7997.94 462.073  14
   1  -2   9 28454.1 839.438   2
  -1  -2  -9 28883.7 565.289  11
  -1  -2  -9 28519.4 594.917  17
   1  -2   9 30029.2 698.898  20
   1  -2   9 27373.5 604.412  19
   1  -2  10 23053.3 530.111  19
  -1  -2 -10 23499.6 531.878  17
  -1  -2 -10 21950.7 487.968  11
  -1  -2 -11 3839.56 186.134  17
   1  -2  11 4568.83 234.626  20
   1  -2  11 4067.22 186.677  19
  -1  -2 -11 4081.29 188.775   9
   1  -2  12 3429.92 185.679  20
  -1  -2 -12 3639.80 163.794   9
  -1  -2 -12 3399.45 167.846  17
   1  -2  12 3207.19 156.307  19
   1  -2  13 6406.67 194.530  19
  -1  -2 -13 6870.03 206.932   9
  -1  -2 -14 1986.61 87.7473   9
   1  -1 -15 818.711 52.8908   9
   1  -1 -15 768.456 50.8206   7
  -1  -1  14 3254.57 161.931  20
   1  -1 -14 3355.21 143.634   9
   1  -1 -13 273.526 47.5670   9
  -1  -1  13 235.089 54.8605  20
   1  -1 -12 14341.8 382.728   9
   1  -1 -11 20087.0 472.103   9
   1  -1 -11 17849.9 459.089  17
  -1  -1  10 19209.9 755.815  14
   1  -1 -10 18812.6 464.260  17
  -1  -1   9 29834.8 926.710  14
   1  -1  -8 5808.04 336.589   1
  -1  -1   8 5662.08 353.164  14
   1  -1  -7 1106.03 133.679   1
  -1  -1   7 1001.08 144.251  14
   1  -1  -7 796.311 86.0900  16
  -1  -1   6 25477.5 703.482  14
   1  -1  -6 25436.5 554.809  16
   1  -1  -6 24570.2 646.060   1
  -1  -1   5 14401.0 461.710  14
   1  -1  -5 14594.8 359.666  16
   1  -1  -4 26858.3 514.094  16
  -1  -1   4 26953.2 625.217  14
  -1  -1   3 112524. 1770.64  14
   1  -1  -3 112811. 1648.09  16
  -1  -1   3 113658. 1628.38   3
   1  -1  -3 110728. 1683.69   1
  -1  -1   2 35347.6 598.317   3
  -1  -1   2 34639.6 658.071  14
  -1  -1   1 118464. 1701.07   3
  -1  -1   0 90145.2 1319.81   3
   1  -1   0 88849.7 1299.95   4
  -1  -1   0 89961.0 1245.95  13
   1  -1   0 89254.3 1276.99  14
   1  -1   1 88060.3 1307.04  14
  -1  -1  -1 86829.8 1291.65   3
   1  -1   1 85796.8 1239.25   4
  -1  -1  -1 87854.4 1267.91  13
  -1  -1  -2 120579. 1658.06   3
  -1  -1  -2 122122. 1677.33  13
   1  -1   2 120736. 1723.00  14
  -1  -1  -2 111181. 1525.74  16
   1  -1   3 89153.3 1429.07  14
  -1  -1  -3 90334.6 1330.37   3
  -1  -1  -3 88792.0 1379.28  13
  -1  -1  -4 32019.2 679.113  13
   1  -1   4 32524.3 726.635  14
  -1  -1  -4 30435.2 597.168   3
  -1  -1  -5 72384.5 1202.88   3
   1  -1   5 74993.9 1396.82  14
  -1  -1  -5 74803.8 1342.80  13
   1  -1   6 55986.1 1219.14  14
  -1  -1  -6 57374.8 1173.34  13
   1  -1   7 45140.6 1124.30  14
  -1  -1  -7 45582.1 1072.28  13
   1  -1   8 7847.11 376.079   2
   1  -1   8 8073.52 445.156  14
  -1  -1  -8 8288.34 433.187  13
  -1  -1  -9 5395.88 231.049  21
  -1  -1  -9 5169.50 363.329  13
   1  -1   9 5373.77 209.768  19
   1  -1   9 5178.19 381.197  14
   1  -1   9 5766.73 333.109   2
  -1  -1  -9 5346.61 214.854  17
  -1  -1 -10 3617.48 196.444  21
   1  -1  10 3448.54 175.507  19
  -1  -1 -10 4158.55 188.645   9
  -1  -1 -10 3655.37 182.844  17
   1  -1  11 17180.0 428.694  19
  -1  -1 -11 16857.0 447.696  17
  -1  -1 -11 18228.1 439.177   9
  -1  -1 -11 17453.6 464.271  21
   1  -1  11 16604.2 495.919  20
  -1  -1 -12 15735.0 417.639  17
   1  -1  12 17114.2 457.003  20
  -1  -1 -12 17330.4 413.955   9
   1  -1  12 16920.3 405.724  19
  -1  -1 -12 16522.1 426.291  21
   1  -1  13 3769.72 151.555  19
  -1  -1 -13 3671.59 154.242  21
   1  -1  13 3498.22 157.926  20
  -1  -1 -13 3872.65 158.307   9
  -1  -1 -14 584.705 54.1578   9
   1   0 -15 3215.16 116.103   9
   1   0 -15 3371.30 120.232   7
  -1   0  14 31.5843 26.4996  20
   1   0 -14 25.9550 26.4418   9
   1   0 -13 443.211 62.5363  21
   1   0 -13 387.793 58.7447   9
   1   0 -12 4612.86 212.066  21
   1   0 -12 5223.20 216.006   9
   1   0 -11 16699.4 456.612  21
   1   0 -11 16481.5 428.462   9
   1   0 -10 139.119 38.7786   9
   1   0 -10 287.686 107.405   1
  -1   0  10 59.9170 45.6131  15
   1   0 -10 257.394 61.4554  21
   1   0 -10 110.311 25.5125  17
  -1   0   9 32094.8 911.566  14
   1   0  -9 32222.2 908.451   1
  -1   0   8 16869.2 592.188  14
   1   0  -8 16532.1 573.006   1
   1   0  -7 20316.6 587.397  13
   1   0  -7 21394.2 603.667   1
  -1   0   7 20135.2 613.309  14
  -1   0   6 27.4898 33.6197  14
   1   0  -6 19.5129 34.0310  13
   1   0  -6 24.8029 30.6713   1
  -1   0   5 9706.69 346.353  14
   1   0  -5 9955.27 323.181  13
   1   0  -5 10512.7 327.668   1
   1   0  -5 10425.3 291.593  16
   1   0  -4 2852.78 141.372   1
  -1   0   4 2779.97 157.958  14
   1   0  -4 2881.74 141.959  13
   1   0  -4 2632.59 124.323  16
   1   0  -4 2521.90 119.610   4
   1   0  -3 8599.34 230.221   1
  -1   0   3 8852.44 257.796  14
   1   0  -3 8080.36 213.518  16
   1   0  -3 7751.23 207.662   4
   1   0  -2 42967.3 675.931   1
   1   0  -2 43103.5 678.825   4
  -1   0   2 43162.7 613.672   3
   1   0  -1 391.548 28.3437   2
   1   0  -1 401.058 24.3528   1
  -1   0   0 204194. 2747.37  13
   1   0   0 199830. 2708.27  16
   1   0   0 200883. 2727.45   2
   1   0   1 17192.8 308.588   2
  -1   0  -1 17624.2 317.851  13
  -1   0  -1 17248.9 273.015   1
   1   0   1 16789.5 324.869  14
   1   0   2 33652.7 611.327  14
  -1   0  -2 33172.2 548.395   1
  -1   0  -2 33357.2 585.432  13
  -1   0  -3 13402.5 306.022   1
  -1   0  -3 12589.3 325.171  13
   1   0   3 12263.0 347.868  14
  -1   0  -4 28467.0 574.465   1
  -1   0  -4 28280.4 603.973  13
   1   0   4 27414.1 639.291  14
   1   0   5 23531.4 555.792   2
  -1   0  -5 23402.1 580.966  13
   1   0   5 23072.5 609.193  14
  -1   0  -5 23055.6 546.531   1
  -1   0  -6 842.383 78.0042   3
  -1   0  -6 796.619 108.112  13
   1   0   6 959.661 124.742  14
  -1   0  -6 779.492 99.6506   1
   1   0   6 890.264 105.058   2
   1   0   7 33509.2 886.904  14
   1   0   7 33600.1 801.790   2
  -1   0  -7 33220.1 855.223  13
  -1   0  -7 33409.1 817.464   1
   1   0   8 45628.3 1022.25  15
  -1   0  -8 47979.9 1105.86   1
   1   0   8 46078.3 1163.96  14
  -1   0  -8 46608.9 1140.19  13
   1   0   8 49650.8 1083.21   2
  -1   0  -9 8339.08 456.614  13
   1   0   9 8127.20 254.063  19
  -1   0  -9 8663.67 271.710   9
   1   0   9 8047.28 448.725  14
  -1   0  -9 8204.35 297.421  21
   1   0   9 7627.75 372.975  15
   1   0   9 8247.85 399.060   2
  -1   0  -9 8181.00 280.732  17
   1   0  10 24339.8 527.621  19
  -1   0 -10 24796.3 545.762   9
  -1   0 -10 24132.2 561.614  17
  -1   0 -10 24175.3 590.605  21
  -1   0 -11-14.9933 33.5112  17
  -1   0 -11-4.16846 30.8276   9
  -1   0 -11 23.5518 28.9283  21
   1   0  11-36.4833 39.5968  19
   1   0  12 1745.49 114.769  19
  -1   0 -12 1900.86 134.503  21
   1   0  12 1892.56 132.328  20
  -1   0 -12 1901.75 122.205   9
  -1   0 -13 8496.98 266.549  21
  -1   0 -13 8592.49 256.414   9
   1   0  13 8672.10 244.295  19
  -1   0 -14 1652.70 89.4330   9
   1   0  14 1655.82 79.8002  19
  -1   0 -14 1559.01 82.5660  21
   1   1 -15 355.606 38.2167   9
   1   1 -15 448.789 41.3375   7
   1   1 -14 3144.05 134.845  21
  -1   1  14 2971.50 140.575  20
   1   1 -14 3231.25 143.152   9
   1   1 -13 406.316 58.7478  21
   1   1 -13 364.723 60.8751   9
   1   1 -12 13599.8 404.396  21
   1   1 -12 13995.2 390.086   9
   1   1 -11 18147.5 465.181   9
   1   1 -11 18599.6 499.784  21
   1   1 -10 22260.7 767.176   1
   1   1 -10 22186.9 518.082   9
   1   1 -10 21868.2 549.600  21
  -1   1   9 28724.9 847.019  15
   1   1  -9 30749.8 862.502   1
  -1   1   8 5811.60 324.516  15
   1   1  -8 5585.97 309.761   1
   1   1  -7 962.715 118.415   1
  -1   1   7 864.682 115.289  15
   1   1  -7 931.369 113.838  13
  -1   1   7 1045.93 117.105  14
  -1   1   6 26977.7 548.231   2
   1   1  -6 27357.5 618.600  13
  -1   1   6 28297.6 648.407  14
   1   1  -6 27581.2 656.334   1
   1   1  -5 12936.2 291.454   4
  -1   1   5 12895.1 301.872   2
   1   1  -5 13983.0 390.089   1
  -1   1   5 14130.2 384.682  14
   1   1  -5 13839.0 360.197  13
  -1   1   4 27408.4 530.756  14
   1   1  -4 26755.7 536.295   1
   1   1  -4 27318.0 500.646  13
   1   1  -4 26027.2 455.766   4
   1   1  -3 110642. 1540.72   4
   1   1  -3 109325. 1550.47  13
  -1   1   3 111919. 1589.05  14
   1   1  -3 108907. 1604.20   1
  -1   1   3 105872. 1497.46   2
   1   1  -2 38382.3 596.427   4
  -1   1   2 38935.8 597.903  14
  -1   1   2 37411.8 639.840  15
   1   1  -2 38496.7 630.696   1
   1   1  -1 112327. 1603.01  15
   1   1  -1 111336. 1632.64   2
  -1   1   1 113913. 1602.81  15
   1   1   0 88748.4 1329.15   2
   1   1   0 90497.5 1307.49  15
  -1   1   0 91971.8 1290.10  15
  -1   1  -1 84058.8 1280.06  13
   1   1   1 85264.4 1254.79  15
  -1   1  -1 85306.8 1210.94  15
  -1   1  -1 85951.2 1211.98   1
   1   1   1 86780.8 1271.42   2
   1   1   2 115955. 1703.38  15
   1   1   2 114986. 1717.22   2
  -1   1  -2 113979. 1724.52  13
   1   1   3 94909.8 1466.10  14
  -1   1  -3 94742.4 1420.99   1
   1   1   3 94381.1 1464.73   2
   1   1   3 95385.7 1450.18  15
  -1   1  -3 95223.3 1468.98  13
   1   1   4 33602.2 677.517  14
   1   1   4 32013.4 634.721  15
  -1   1  -4 31644.9 633.786   1
  -1   1  -4 33234.8 666.314  13
   1   1   4 33440.7 661.862   2
  -1   1  -5 75077.0 1248.05   1
  -1   1  -5 71261.0 1265.76  13
   1   1   5 74912.7 1264.94   2
   1   1   5 73277.1 1286.15  14
  -1   1  -6 60636.8 1175.90  13
  -1   1  -6 61478.8 1136.82   1
   1   1   6 61412.4 1187.39  14
   1   1   6 61573.2 1150.65   2
   1   1   7 50033.4 1095.56  14
  -1   1  -7 50341.8 1054.16   1
   1   1   7 49739.3 1053.78  15
  -1   1  -7 50136.6 1103.69  13
   1   1   7 50997.0 1061.40   2
  -1   1  -8 6559.15 364.536  13
  -1   1  -8 6439.77 340.068   1
   1   1   8 7059.72 344.600   2
   1   1   8 6733.07 349.575  15
   1   1   8 6850.26 359.290  14
   1   1   9 5424.44 334.944  15
  -1   1  -9 5287.83 333.862   1
  -1   1  -9 5928.79 223.854   9
  -1   1  -9 5617.02 232.096  17
   1   1   9 5520.12 200.941  19
  -1   1  -9 4947.83 340.402  13
  -1   1  -9 5587.07 245.860  21
   1   1  10 3976.77 178.343  19
  -1   1 -10 4119.03 193.494   9
  -1   1 -10 4094.99 202.554  17
  -1   1 -10 4544.64 227.878  21
  -1   1 -11 18542.4 504.776  21
  -1   1 -11 19058.7 467.345   9
   1   1  11 18757.9 439.881  19
   1   1  12 15455.1 379.161  19
  -1   1 -12 15666.8 401.703   9
  -1   1 -12 16070.6 440.684  21
   1   1  13 3803.37 150.602  19
  -1   1 -13 3706.15 172.664  21
  -1   1 -13 3586.29 155.947   9
  -1   1 -14 860.812 64.0021  21
  -1   1 -14 895.855 63.5960   9
   1   1  14 885.452 57.3869  19
   1   2 -14 1051.40 78.7002   9
   1   2 -14 1068.68 76.9470  21
   1   2 -14 1015.08 76.2066   7
   1   2 -13 5472.20 185.068   5
   1   2 -13 5465.85 214.853   9
   1   2 -13 5514.90 219.027  21
   1   2 -12 3195.10 181.767  21
   1   2 -12 3021.12 168.967   9
  -1   2  11 1951.52 114.074  19
   1   2 -11 1959.21 148.324  21
   1   2 -11 2061.37 142.578   9
   1   2 -10 30597.2 702.626  21
   1   2 -10 32315.0 679.123   9
  -1   2  10 30907.6 596.099  19
  -1   2   9 28221.2 540.095  19
   1   2  -9 27845.4 825.114   1
  -1   2   9 28059.0 890.661  15
   1   2  -9 27769.5 641.768  21
   1   2  -9 28062.0 611.552   9
  -1   2   8 40658.0 1055.42  15
   1   2  -8 40697.7 984.974   1
  -1   2   7 11686.5 481.334  15
   1   2  -7 12435.6 450.323   1
  -1   2   6 23418.3 667.051  15
   1   2  -6 25254.7 621.560   1
   1   2  -5 44332.2 764.004  13
   1   2  -5 44529.6 855.870   1
   1   2  -4 44273.7 822.685   1
  -1   2   4 43679.0 681.479   2
  -1   2   4 45589.7 890.955  15
   1   2  -4 43433.5 696.151   4
   1   2  -4 45461.3 713.578  13
  -1   2   3 49315.9 886.316  15
   1   2  -3 46404.4 737.564   4
   1   2  -3 49107.1 840.403   1
   1   2  -3 46079.6 686.495  13
  -1   2   2 83378.2 1362.77  15
   1   2  -2 87329.2 1349.57  15
  -1   2   1 91905.3 1427.91  15
   1   2  -1 92480.6 1428.40  15
  -1   2   0 126931. 1866.68  15
   1   2   0 123693. 1880.70  15
   1   2   0 128367. 1888.47   2
  -1   2  -1 60791.8 967.574  15
   1   2   1 59371.3 1008.16  15
  -1   2  -1 58249.6 997.741  13
   1   2   1 61289.1 1001.22   2
   1   2   2 16275.9 404.778  15
  -1   2  -2 16301.8 385.009  13
   1   2   2 15988.4 386.412   2
  -1   2  -2 16232.2 358.587   1
  -1   2  -2 16877.9 365.427  15
   1   2   3 126461. 1901.41   2
   1   2   3 123483. 1939.20  15
  -1   2  -3 121631. 1883.67  13
  -1   2  -3 125197. 1846.77   1
  -1   2  -4 34329.5 701.173  13
   1   2   4 35612.6 756.652  15
  -1   2  -4 34672.4 676.865   1
   1   2   4 34516.5 712.525   2
  -1   2  -5 24823.8 575.265   1
   1   2   5 26046.4 655.826  15
  -1   2  -5 25090.8 598.492  13
   1   2   5 23530.7 590.128   2
   1   2   6 10577.9 390.039   2
  -1   2  -6 11815.3 401.351   1
   1   2   6 11655.0 444.127  15
  -1   2  -6 11567.7 407.489  13
   1   2   7 12869.9 501.456  15
  -1   2  -7 12363.1 466.313  13
   1   2   7 12506.2 451.587   2
  -1   2  -7 12311.3 450.241   1
  -1   2  -8 8181.35 403.246  13
   1   2   8 7529.26 408.141  15
  -1   2  -8 7923.54 379.307   1
  -1   2  -9 30075.0 648.506  12
   1   2   9 28789.0 901.046  15
  -1   2  -9 30167.2 631.928   9
  -1   2  -9 29469.9 671.272  21
  -1   2  -9 28051.3 842.918   1
   1   2   9 28856.3 578.958  19
   1   2  10 21810.4 484.239  19
  -1   2 -10 21958.1 521.541   9
  -1   2 -10 21543.9 559.768  21
   1   2  11 3942.18 172.929  19
  -1   2 -11 3927.77 188.789   9
  -1   2 -11 3885.74 207.239  21
   1   2  12 3265.25 148.028  19
  -1   2 -12 3173.31 175.775  21
  -1   2 -12 3262.14 161.027   9
  -1   2 -13 7036.07 237.300  21
  -1   2 -13 7176.51 223.662   9
   1   2  13 7111.48 208.126  19
  -1   2 -14 2132.66 97.5096  21
  -1   2 -14 2192.39 92.5552   9
   1   2  14 2151.21 83.4198  19
   1   3 -14 11821.1 233.949   5
   1   3 -14 10970.8 246.515   7
   1   3 -14 11324.9 266.776  21
   1   3 -13 2509.63 127.505   7
   1   3 -13 2628.33 137.464   9
   1   3 -13 2480.12 134.028  21
   1   3 -13 2484.73 117.195   5
   1   3 -12 117.400 40.2266   9
  -1   3  12 144.761 31.3711  19
   1   3 -12 166.614 49.4570  21
  -1   3  11 20087.3 431.554  19
   1   3 -11 19080.5 454.672  12
   1   3 -11 19168.0 515.215  21
   1   3 -11 20717.0 515.778   9
   1   3 -10 3648.05 181.532  12
   1   3 -10 3643.52 199.366   9
  -1   3  10 3792.01 161.461  19
   1   3 -10 3421.84 201.371  21
   1   3  -9 1342.51 124.066  21
   1   3  -9 1337.47 110.500  12
   1   3  -9 1498.76 179.885   1
  -1   3   9 1254.61 91.1535  19
  -1   3   9 1366.70 197.739  15
   1   3  -9 1338.70 117.311   9
   1   3  -8 1198.07 149.570   1
   1   3  -8 1085.63 103.501  21
   1   3  -8 1112.22 103.455   9
  -1   3   8 1092.99 169.527  15
   1   3  -7 3653.78 245.213   1
  -1   3   7 3679.23 292.109  15
  -1   3   6 23945.7 754.955  15
   1   3  -6 25910.6 666.024   1
  -1   3   5 1361.93 153.380  15
   1   3  -5 1452.29 129.514   1
   1   3  -4 19449.9 396.727   4
   1   3  -4 21011.1 538.518   1
  -1   3   4 21358.6 602.760  15
   1   3  -3 100695. 1639.56   1
  -1   3   3 101506. 1725.67  15
   1   3  -2 43864.2 857.832  15
  -1   3   2 43106.7 878.729  15
  -1   3   1 19666.7 500.918  15
   1   3  -1 19564.7 495.262  15
   1   3   0 2407.89 153.576  15
  -1   3   0 2480.26 152.189  15
   1   3   1 6206.81 245.449   2
   1   3   1 6120.57 259.252  15
  -1   3  -1 6317.44 242.045  15
  -1   3  -1 5916.43 239.532  13
  -1   3  -2 24310.5 546.379  15
   1   3   2 23722.2 596.928  15
  -1   3  -2 24178.3 544.624  13
   1   3   2 23892.7 563.847   2
  -1   3  -3 34549.2 701.355   1
   1   3   3 34075.7 728.276   2
  -1   3  -3 34217.8 702.643  13
   1   3   3 33694.8 780.493  15
  -1   3  -4 22492.1 545.028  13
   1   3   4 22871.1 579.768   2
   1   3   4 22741.1 633.479  15
  -1   3  -4 23007.1 546.196   1
  -1   3  -5 29046.6 672.960   1
  -1   3  -5 28064.2 665.960  13
   1   3   5 28734.0 701.496   2
   1   3   5 29371.5 782.564  15
  -1   3  -6 506.310 83.9133   1
  -1   3  -6 474.443 78.5428  13
   1   3   6 581.922 106.046  15
   1   3   6 501.448 90.0595   2
   1   3   7 22621.3 746.632  15
  -1   3  -7 20718.6 638.520   1
   1   3   8 35.4987 34.0765  15
  -1   3  -8 33.3587 28.4119   9
  -1   3  -8 39.6438 39.1056   1
   1   3   8 81.5819 36.6764  19
  -1   3  -8 91.4927 42.7911  21
  -1   3  -8 38.2000 25.6671  12
  -1   3  -9 255.483 62.0585  21
   1   3   9 276.680 46.2597  19
  -1   3  -9 336.317 70.2761   9
  -1   3  -9 390.238 63.3045  12
  -1   3 -10 639.602 87.3135  21
   1   3  10 589.922 68.5688  19
  -1   3 -10 592.679 77.7038   9
  -1   3 -10 614.068 76.6399  12
   1   3  11 4838.83 187.813  19
  -1   3 -11 4924.30 228.150  21
  -1   3 -11 4700.05 197.425  12
  -1   3 -11 5018.37 215.100   9
  -1   3 -12 2554.86 137.809   9
   1   3  12 2716.47 127.510  19
  -1   3 -12 2656.49 149.762  21
   1   3  13 486.680 46.2737  19
  -1   3 -13 541.175 57.7891  21
  -1   3 -14 163.308 23.2556  21
   1   4 -14 125.490 21.2064  21
   1   4 -13 2938.85 117.257   5
   1   4 -13 2934.43 130.034  21
   1   4 -12 11151.5 325.135  21
   1   4 -12 11126.1 293.530   7
   1   4 -12 11406.7 283.917  12
  -1   4  12 12150.3 274.254  19
  -1   4  11 6186.83 198.841  19
   1   4 -11 5990.53 249.486   9
   1   4 -11 5789.97 221.296   7
   1   4 -11 5633.99 241.260  21
   1   4 -10 941.715 93.4535  12
   1   4 -10 784.491 87.1219   7
  -1   4  10 1013.76 83.2274  19
   1   4 -10 964.113 104.926  21
   1   4 -10 962.888 105.673   9
   1   4  -9 1929.10 137.907  12
  -1   4   9 2009.67 117.496  19
   1   4  -9 1787.11 144.354   9
   1   4  -9 1978.30 151.245  21
   1   4  -8 20931.8 556.463   9
   1   4  -8 22978.9 750.041   1
   1   4  -8 22656.3 568.060  21
  -1   4   8 22768.5 866.763  15
   1   4  -8 22844.7 549.526  12
   1   4  -7 10698.2 338.932  12
   1   4  -7 9716.69 340.750   9
   1   4  -7 10917.7 463.222   1
   1   4  -7 10294.2 342.713  21
  -1   4   7 9629.82 528.088  15
   1   4  -6 18229.5 585.656   1
  -1   4   6 17430.2 680.049  15
  -1   4   5 21072.0 717.277  15
   1   4  -5 22082.5 624.339   1
   1   4  -4 50884.8 1045.27   1
  -1   4   4 46825.1 1121.41  15
  -1   4   3 6663.63 335.232  15
   1   4  -3 6692.16 299.585   1
   1   4  -2 20367.9 576.921  15
  -1   4   2 20272.9 602.664  15
  -1   4   1 15279.2 489.942  15
   1   4  -1 15186.2 488.103  15
   1   4   0 21662.5 603.623  15
  -1   4   0 21778.5 593.366  15
   1   4   1 10575.7 405.640  15
  -1   4  -1 10656.0 385.012  15
  -1   4  -1 11064.0 375.630  13
   1   4   2 17411.8 558.163  15
  -1   4  -2 17367.3 476.781  13
  -1   4  -2 18373.3 516.342  15
   1   4   3 1170.34 120.758   2
   1   4   3 1099.52 133.789  15
  -1   4  -3 1210.81 112.671  13
  -1   4  -3 1156.76 116.329   1
   1   4   4 11855.9 418.056   2
  -1   4  -4 11410.7 401.817   1
   1   4   4 11303.6 473.248  15
  -1   4  -4 11183.2 370.976  13
  -1   4  -5 3810.06 230.630   1
   1   4   5 3450.15 267.931  15
  -1   4  -6 928.166 122.624   1
   1   4   6 877.425 145.052  15
  -1   4  -7 12856.9 389.994  21
   1   4   7 12401.7 320.459  22
  -1   4  -7 12615.1 503.394   1
   1   4   7 12921.9 590.685  15
  -1   4  -7 13448.1 407.458  12
  -1   4  -7 11584.3 365.176   9
  -1   4  -8 13403.7 409.948  21
  -1   4  -8 12447.6 390.695   9
   1   4   8 13387.4 332.324  22
  -1   4  -8 13318.2 411.566  12
   1   4   8 13532.9 346.285  19
  -1   4  -9 6765.59 272.086   9
   1   4   9 7007.96 235.111  19
  -1   4  -9 6921.12 277.302  12
  -1   4  -9 6975.02 284.042  21
   1   4  10 352.997 50.7630  19
  -1   4 -10 432.406 66.2981   9
  -1   4 -10 375.339 67.6816  21
  -1   4 -10 487.433 70.4349  12
  -1   4 -11 280.027 55.5303  21
  -1   4 -11 266.527 43.1243  12
   1   4  11 217.141 38.8009  19
  -1   4 -12 467.961 54.7960  21
   1   4  12 514.658 53.1340  19
  -1   4 -12 404.986 44.6955  12
   1   4  13 3081.14 107.568   8
   1   4  13 3377.26 107.461  19
  -1   4 -13 3072.17 114.673  21
   1   5 -13 11024.2 223.556   5
   1   5 -13 10622.1 229.471  21
  -1   5  12 403.263 39.8995  19
   1   5 -12 443.446 51.9085  21
   1   5 -12 381.424 41.3252  12
  -1   5  11 2185.24 102.796  19
   1   5 -11 2106.48 127.440  21
   1   5 -11 2050.77 116.757  12
  -1   5  10 8622.76 242.962  19
   1   5 -10 7717.01 281.831  21
   1   5 -10 8243.40 277.038  12
  -1   5   9 12645.2 319.145  19
   1   5  -9 11969.5 364.658  12
   1   5  -8 6696.73 269.876  12
   1   5  -8 6596.65 273.075  21
   1   5  -7 12701.6 390.252  12
   1   5  -7 12778.6 391.557  21
   1   5  -6 34763.0 908.832   1
  -1   5   6 32951.4 1039.95  15
   1   5  -6 32298.9 691.219  12
   1   5  -5 16676.9 584.435   1
  -1   5   5 15884.7 665.334  15
   1   5  -5 16058.6 430.157  12
   1   5  -4 3331.60 239.738   1
  -1   5   4 2847.97 255.867  15
  -1   5   3 18361.3 657.366  15
   1   5  -3 19301.3 605.280   1
   1   5  -2 13267.6 501.745  15
  -1   5   2 12645.2 509.800  15
   1   5  -1 3939.26 266.481  15
  -1   5   1 3753.14 258.914  15
  -1   5   0 118.646 38.2288  13
   1   5   0 121.280 48.7091  15
  -1   5   0 146.228 49.4410  15
   1   5   1 24007.8 737.414  15
  -1   5  -1 24878.7 701.587  15
  -1   5  -1 25166.4 658.443  13
   1   5   2 13722.3 542.087  15
  -1   5  -2 13644.5 500.228  15
   1   5   3 7422.26 403.652  15
  -1   5  -3 8050.13 362.593   1
  -1   5  -4 17038.3 559.103   1
   1   5   4 16391.0 642.898  15
   1   5   5 67.4759 32.0970  22
   1   5   5 24.9479 36.2384  15
  -1   5  -5 17.5347 29.6225  12
  -1   5  -5 23.1028 34.1272   1
   1   5   6 4446.34 174.032  22
  -1   5  -6 4310.18 219.689  12
  -1   5  -6 4532.69 293.073   1
   1   5   6 4067.99 335.760  15
   1   5   7 18873.1 430.468  22
  -1   5  -7 20203.2 530.285  12
   1   5   8 10113.5 280.807  22
  -1   5  -8 9957.77 331.429  21
  -1   5  -8 10388.8 351.017  12
   1   5   8 10436.2 292.890  19
  -1   5  -9 5225.38 225.001  21
   1   5   9 5547.77 199.259  19
  -1   5  -9 5412.38 234.898  12
   1   5   9 5821.16 185.950  22
  -1   5 -10 21543.3 494.931  12
   1   5  10 22646.5 453.622  19
  -1   5 -10 21276.9 491.335  21
  -1   5 -11 2403.17 119.736  12
  -1   5 -11 2395.91 121.261  21
   1   5  11 2542.57 111.166  19
  -1   5 -12 897.820 54.3659  12
   1   5  12 956.058 56.1850  19
  -1   5 -12 863.914 56.5370  21
   1   6 -12 2994.39 93.7204   5
   1   6 -11 1829.22 90.7155   5
  -1   6  11 1958.14 81.3666  19
   1   6 -11 1823.13 93.5204  12
   1   6 -10 123.345 34.8756  12
   1   6 -10 176.361 37.7128  21
  -1   6  10 131.550 28.3110  19
   1   6  -9 3807.32 178.710  12
   1   6  -9 3839.40 177.773  21
  -1   6   9 4171.74 157.014  19
   1   6  -8 5371.34 223.372  21
   1   6  -8 5436.64 228.178  12
   1   6  -7 509.001 73.8887  12
   1   6  -7 473.477 64.7558  21
   1   6  -6 844.599 92.0707  12
  -1   6   5 37150.0 665.525  22
   1   6  -5 35732.0 747.034  12
  -1   6   4 5199.56 190.302  22
  -1   6   4 5489.97 381.755  15
   1   6  -4 5784.42 350.630   1
   1   6  -4 4874.74 214.566  12
   1   6  -3 10679.7 309.677  22
   1   6  -3 10592.8 323.434  12
  -1   6   3 11540.1 549.316  15
  -1   6   3 10849.8 295.271  22
   1   6  -3 11399.4 496.164   1
  -1   6   2 36360.8 688.624  22
  -1   6   2 38211.0 1047.13  15
   1   6  -2 36754.6 702.129  22
   1   6  -1 8208.32 258.566  22
  -1   6   1 8245.21 431.973  15
   1   6  -1 8371.89 434.162  15
  -1   6   1 7909.85 254.727  22
   1   6   0 2284.36 222.025  15
  -1   6   0 2249.70 212.642  15
   1   6   0 2336.94 127.762  22
   1   6   1 16710.2 394.403  22
  -1   6  -1 16799.0 610.415  15
   1   6   1 16454.3 639.327  15
  -1   6  -2 10277.6 448.145   1
   1   6   2 9671.06 488.773  15
   1   6   2 10113.1 286.658  22
   1   6   3 34369.5 645.887  22
   1   6   3 34790.8 1024.37  15
  -1   6  -3 32903.2 705.694  12
  -1   6  -3 35674.5 929.077   1
  -1   6  -4 10691.4 459.342   1
  -1   6  -4 9658.05 332.838  12
   1   6   4 9510.81 515.094  15
   1   6   4 10185.8 285.060  22
  -1   6  -5 14727.1 432.701  12
   1   6   5 15292.5 367.323  22
  -1   6  -6 16818.9 468.537  12
   1   6   6 16847.5 390.519  22
  -1   6  -7 1981.87 140.736  12
   1   6   7 1532.93 103.125  22
  -1   6  -8 2708.32 157.529  12
   1   6   8 2758.19 131.824  19
   1   6   8 2565.31 120.627  22
  -1   6  -9 5086.20 204.841  12
   1   6   9 5320.37 178.915  19
   1   6   9 5292.91 157.453  22
   1   6  10 7019.66 191.333  19
  -1   6 -10 6684.23 212.186  12
  -1   6 -11 1638.80 79.1120  12
   1   6  11 1620.60 72.1891  19
   1   7 -10 4832.49 129.397   5
  -1   7  10 5144.71 131.977  19
   1   7 -10 4830.80 148.713  12
   1   7  -9 759.688 55.7986   5
  -1   7   9 774.949 56.5291  19
   1   7  -9 800.361 68.3936  12
   1   7  -8 1196.10 92.7100  12
   1   7  -7 3094.80 158.704  12
   1   7  -6 3518.81 175.517  12
   1   7  -6 3809.58 150.740  22
  -1   7   6 3934.44 146.063  22
   1   7  -5 13374.9 339.775  22
   1   7  -5 13444.4 376.788  12
  -1   7   5 13830.6 326.401  22
  -1   7   4 30445.3 580.846  22
   1   7  -4 30474.4 631.890  12
   1   7  -4 30131.8 603.920  22
  -1   7   3 13002.2 336.114  22
   1   7  -3 13550.5 355.027  22
   1   7  -2 4199.82 182.130  22
  -1   7   2 4258.53 180.036  22
  -1   7   1 13838.2 366.547  22
   1   7  -1 14165.2 366.349  22
  -1   7   0 17944.9 439.266  22
   1   7   0 18211.2 428.907  22
  -1   7  -1 42045.4 804.271  22
   1   7   1 42532.1 776.270  22
   1   7   2 2665.18 136.791  22
   1   7   3 15071.1 371.740  22
  -1   7  -4 14515.9 398.946  12
   1   7   4 14984.6 362.573  22
  -1   7  -5 14800.8 407.068  12
   1   7   5 15686.2 362.351  22
   1   7   6 4389.08 166.976  22
  -1   7  -6 4601.27 200.506  12
  -1   7  -7 6527.53 230.371  12
   1   7   7 5486.00 180.601  22
  -1   7  -8 272.823 34.8441  22
  -1   7  -8 309.639 46.8719  12
   1   7   8 273.364 36.6531  19
   1   7   8 240.677 31.2586  22
   1   7   9 699.976 49.6866  19
  -1   7  -9 689.938 59.2922  12
   1   7  10 1077.95 52.6774  19
  -1   7 -10 1161.42 60.5953  12
  -1   8   8 1089.96 56.5259  19
   1   8  -8 1084.34 63.7261  12
   1   8  -7 3138.42 124.097  12
   1   8  -6 3185.23 133.097  12
  -1   8   6 3279.01 110.888  22
   1   8  -5 1481.33 92.4641  12
   1   8  -5 1586.54 85.2249  22
  -1   8   5 1505.57 80.9421  22
   1   8  -4 9896.05 261.057  22
  -1   8   4 10262.8 254.610  22
   1   8  -3 17155.8 382.344  22
  -1   8   3 16524.9 366.567  22
  -1   8   2 9206.71 260.258  22
   1   8  -2 9151.11 262.805  22
  -1   8   1 2864.50 139.255  22
   1   8  -1 2993.73 141.972  22
  -1   8   0 11694.8 316.792  22
   1   8   0 11713.3 308.314  22
  -1   8  -1 5325.88 201.936  22
   1   8   1 5436.62 191.906  22
   1   8   2 1792.12 105.192  22
  -1   8  -2 1837.39 115.199  22
  -1   8  -3 3403.96 154.356  22
   1   8   3 3200.10 139.036  22
  -1   8  -4 7076.80 227.183  22
   1   8   4 7214.64 211.976  22
  -1   8  -5 27961.6 528.743  22
   1   8   5 28703.3 508.258  22
  -1   8  -6 3884.44 135.430  22
  -1   8  -6 3791.47 140.463  12
   1   8   6 3458.45 125.130  22
   1   8   7 3291.20 103.285  22
  -1   8  -7 3503.25 108.175  22
  -1   8  -7 3460.06 122.380  12
   1   8   7 3527.49 113.212  19
  -1   8  -8 3331.24 102.357  12
   1   8   8 3340.46 96.8325  19
  -1   9   6 5901.80 133.132  19
  -1   9   4-15.8719 13.6201  22
   1   9  -4 1.72628 11.6467  22
   1   9  -3 956.599 57.2195  22
  -1   9   3 1109.25 61.1318  22
  -1   9   2 6517.54 176.472  22
   1   9  -2 6568.84 178.265  22
  -1   9   1 1390.69 75.9360  22
   1   9  -1 1358.94 76.6923  22
  -1   9   0 2568.95 109.166  22
   1   9   0 2745.86 111.157  22
  -1   9  -1 3689.08 134.705  22
   1   9   1 3748.04 132.481  22
  -1   9  -2 3197.41 122.782  22
   1   9   2 3366.18 121.271  22
   1   9   3 5904.65 162.507  22
  -1   9  -3 5632.16 162.923  22
   1   9   4 1574.44 72.1060  22
  -1   9  -4 1723.82 75.5572  22
   1   9   5 591.596 36.7824  19
  -1   9  -5 582.912 36.5376  22
   1   9   5 554.863 37.1126  22
  -2  -9   6 4225.88 107.585  17
  -2  -9   5 20637.2 356.902  17
   2  -9  -5 20248.0 348.415  11
  -2  -9   4 3765.06 119.413  17
   2  -9  -4 3564.29 113.973  11
  -2  -9   3 1900.61 86.3784  17
   2  -9  -3 1880.61 83.2948  11
   2  -9  -2 8951.12 216.206  11
  -2  -9   2 8915.55 215.480  17
  -2  -9   1 9818.04 227.395  17
   2  -9  -1 9223.92 227.179  11
   2  -9   0 998.587 59.1785  20
  -2  -9   0 944.919 60.2130  17
   2  -9   0 1030.86 72.7730  10
   2  -9   1 2969.33 107.735  20
  -2  -9  -1 2992.21 108.888  17
   2  -9   1 3209.03 127.046  10
   2  -9   2 6832.91 175.895  20
   2  -9   2 6900.58 192.304  10
  -2  -9  -2 6898.79 172.537  17
   2  -9   3 5806.11 164.546  10
  -2  -9  -3 6170.65 149.718  17
   2  -9   3 5740.43 153.648  20
   2  -9   4 2052.68 77.9075  20
  -2  -9  -4 2240.62 75.3559  17
   2  -9   4 2372.92 85.4139  10
   2  -8  -8 3281.09 100.323  11
  -2  -8   8 3402.58 112.009  17
  -2  -8   7 6258.63 181.087  17
   2  -8  -7 6108.17 165.725  11
   2  -8  -6 1569.50 86.6445  11
  -2  -8   6 1682.75 96.2599  17
   2  -8  -5 4657.33 162.284  11
  -2  -8   5 4720.60 172.524  17
   2  -8  -4 23136.2 459.558  11
  -2  -8   4 22842.2 474.591  17
   2  -8  -3 11970.9 293.671  20
   2  -8  -3 11591.4 297.610  11
  -2  -8   3 12019.7 310.166  17
   2  -8  -2 1234.74 85.7999  20
   2  -8  -2 1322.17 98.3579  10
  -2  -8   2 1290.31 90.0776  17
   2  -8  -1 1315.71 99.5482  10
  -2  -8   1 1287.28 92.4131  17
   2  -8  -1 1336.97 92.7348  20
  -2  -8   0 778.072 69.5621  17
   2  -8   0 838.141 76.0076  20
   2  -8   0 813.020 80.1797  10
   2  -8   1 4381.33 180.232  20
  -2  -8  -1 4273.12 151.605  11
   2  -8   1 4581.69 193.561  10
  -2  -8  -1 4428.80 167.712  17
   2  -8   2 9561.42 289.485  10
   2  -8   2 8879.15 276.022  20
  -2  -8  -2 8898.63 247.856  17
  -2  -8  -2 8906.08 229.078  11
  -2  -8  -3 87.2653 25.4794  11
   2  -8   3 53.1421 25.8481  20
   2  -8   3 44.9317 27.6679  10
  -2  -8  -3 86.8513 23.7303  17
  -2  -8  -4 1885.53 96.0257  17
   2  -8   4 1863.51 110.628  10
   2  -8   4 1980.12 119.123  20
  -2  -8  -4 1936.54 89.2451  11
  -2  -8  -5 11393.5 242.904  11
  -2  -8  -5 11522.1 261.039  17
   2  -8   5 11620.4 302.688  20
   2  -8   5 11011.7 284.137  10
   2  -8   6 5463.44 179.271  20
   2  -8   6 5484.10 165.520  10
  -2  -8  -6 5408.39 137.049  11
  -2  -8  -6 5199.12 149.021  17
   2  -8   7 2237.99 79.6080  10
  -2  -8  -7 2161.69 79.3970  17
   2  -8   7 2418.57 99.3661  20
  -2  -7  10 3844.82 123.777  17
   2  -7 -10 3770.51 109.831  11
   2  -7  -9 1621.15 80.1863  11
  -2  -7   9 1632.89 92.2590  17
  -2  -7   8 271.848 43.9513  17
   2  -7  -8 309.218 42.3746  11
  -2  -7   7 1021.59 88.2853  17
   2  -7  -7 975.201 76.9744  11
   2  -7  -6 10725.5 283.292  11
  -2  -7   6 9971.78 300.439  17
   2  -7  -5 6672.90 219.823  11
  -2  -7   5 6408.38 234.941  17
  -2  -7   4 6598.09 238.840  17
   2  -7  -4 6309.58 241.311  10
   2  -7  -4 6640.20 223.814  20
   2  -7  -3 6661.87 246.999  10
   2  -7  -3 6471.99 227.711  20
  -2  -7   3 6631.48 239.465  17
  -2  -7   2 2820.93 148.422  17
   2  -7  -2 2937.40 152.858  20
   2  -7  -2 2890.27 161.824  10
   2  -7  -1 11160.0 345.068  10
  -2  -7   1 11414.1 319.613  17
   2  -7  -1 11307.1 334.096  20
   2  -7   0 29098.7 636.309  10
  -2  -7   0 28848.8 585.691  17
   2  -7   0 28915.3 625.557  20
   2  -7   1 7534.01 281.810  10
   2  -7   1 7333.13 274.947  20
  -2  -7  -1 7073.70 238.578  17
   2  -7   2 10172.7 335.472  10
  -2  -7  -2 9839.33 287.140  17
  -2  -7  -2 9826.55 272.301  11
   2  -7   2 9644.96 329.472  20
   2  -7   3 22352.4 548.500  10
  -2  -7  -3 22036.2 456.872  11
  -2  -7  -3 22198.2 476.617  17
   2  -7   3 22337.1 550.357  20
   2  -7   4 21304.1 535.502  20
  -2  -7  -4 21274.6 440.973  11
   2  -7   4 21730.4 532.059  10
  -2  -7  -4 21286.6 460.464  17
   2  -7   5 922.782 94.8030  20
   2  -7   5 963.056 76.9413  17
   2  -7   5 957.818 95.8740  10
  -2  -7  -5 976.172 80.1774  17
  -2  -7  -5 908.337 71.6430  11
   2  -7   6 1848.97 124.304  10
   2  -7   6 1930.63 103.628  17
  -2  -7  -6 1692.04 99.5360  17
  -2  -7  -6 1890.99 97.0722  11
   2  -7   6 1858.96 130.175  20
   2  -7   7 7874.11 216.823  17
   2  -7   7 8340.58 269.510  20
  -2  -7  -7 8410.54 209.453  11
  -2  -7  -7 8236.91 223.878  17
   2  -7   7 8122.26 247.997  10
  -2  -7  -8 2691.43 99.0146  11
  -2  -7  -8 2699.40 108.367  17
   2  -7   8 2847.29 107.535  17
   2  -7   8 2869.25 136.931  20
   2  -7   8 2706.20 114.940  10
  -2  -7  -9 178.361 24.1990  17
   2  -7   9 250.589 33.8155  20
  -2  -6  12 1811.00 69.1963  17
  -2  -6  11 3643.92 142.307  20
   2  -6 -11 3839.44 120.414  11
   2  -6 -10 878.190 64.3348  11
  -2  -6  10 910.326 80.6683  20
  -2  -6   9 1661.44 126.187  20
   2  -6  -9 1865.94 102.616  11
   2  -6  -8 8472.21 247.718  11
  -2  -6   8 7702.44 290.683  20
   2  -6  -7 6298.99 213.283  11
  -2  -6   7 5553.59 247.988  20
   2  -6  -6 2981.44 143.865  11
   2  -6  -5 5023.61 198.253  20
   2  -6  -5 5059.47 194.225  11
   2  -6  -4 8295.13 427.471  16
   2  -6  -4 8012.63 262.109  20
   2  -6  -4 7998.01 274.255  10
  -2  -6   4 8109.00 270.867  17
   2  -6  -3 12428.8 537.451  16
  -2  -6   3 11956.0 337.779  17
   2  -6  -3 12240.4 349.237  10
   2  -6  -3 12303.8 341.615  20
  -2  -6   3 13141.3 605.004   3
  -2  -6   2 33572.4 1040.44   3
   2  -6  -2 33792.0 968.671  16
  -2  -6   2 31885.0 646.893  17
   2  -6  -2 33792.5 672.884  20
   2  -6  -2 33386.7 676.945  10
  -2  -6   1 898.317 75.2880  17
   2  -6  -1 802.159 84.6872  10
   2  -6  -1 1016.00 155.288  16
  -2  -6   1 932.333 160.021   3
   2  -6  -1 823.491 84.8563  20
   2  -6   0 25641.0 851.251  16
  -2  -6   0 25541.8 532.134  10
  -2  -6   0 24910.9 893.946   3
  -2  -6   0 23627.5 514.209  17
   2  -6   0 24672.0 569.419  20
   2  -6   0 24558.2 566.832  10
  -2  -6  -1 13930.8 358.071  17
   2  -6   1 14561.6 634.262  16
   2  -6   1 14413.5 412.612  20
  -2  -6  -1 14823.6 666.675   3
   2  -6   1 14897.7 416.892  10
   2  -6   2 17510.4 477.239  20
   2  -6   2 18030.7 479.765  10
  -2  -6  -2 17384.8 410.521  17
   2  -6   2 18230.2 732.439  16
  -2  -6  -2 17125.6 729.487   3
   2  -6   3 33596.4 723.907  10
   2  -6   3 32412.2 720.680  20
  -2  -6  -3 32221.6 627.917  17
  -2  -6  -3 32173.9 610.715  11
  -2  -6  -3 31239.6 1027.64   3
  -2  -6  -4 29571.1 570.526  11
   2  -6   4 28674.0 674.498  10
  -2  -6  -4 29148.4 583.740  17
   2  -6   4 28751.9 677.878  20
   2  -6   5 8289.62 314.022  10
  -2  -6  -5 7598.12 250.172  17
  -2  -6  -5 7841.78 241.605  11
   2  -6   5 8018.58 314.081  20
   2  -6   6 3689.18 203.022  10
   2  -6   6 4434.02 223.788  20
  -2  -6  -6 4164.59 175.071  17
  -2  -6  -6 3858.50 161.729  11
   2  -6   7 66.0396 46.7951  20
  -2  -6  -7 69.2344 33.9800  11
   2  -6   7-5.16095 29.8493  10
  -2  -6  -7 18.9868 21.8683  17
   2  -6   8 2312.47 151.589  20
  -2  -6  -8 2458.49 124.637  17
   2  -6   8 2256.42 139.342  10
  -2  -6  -8 2680.97 118.129  11
   2  -6   9 3081.91 156.372  20
  -2  -6  -9 3139.57 119.306  11
  -2  -6  -9 3148.99 130.815  17
   2  -6   9 3161.08 141.478  10
  -2  -6 -10 947.961 61.7197  17
   2  -6  10 1073.42 78.7447  20
  -2  -5  13 11999.0 255.549  20
   2  -5 -12 652.551 49.0192   9
  -2  -5  12 854.223 76.0608  20
   2  -5 -11 4417.26 158.433   9
   2  -5 -11 4437.91 154.200  11
  -2  -5  10 1442.47 128.865  20
   2  -5 -10 1605.84 97.2142  11
   2  -5  -9 17723.0 394.733  11
  -2  -5   9 16155.0 484.953  20
   2  -5  -8 17545.4 391.958  11
  -2  -5   8 13420.8 460.852  20
   2  -5  -7 3453.06 155.052  11
  -2  -5   7 3553.81 207.852  20
   2  -5  -6 1391.96 155.325  16
   2  -5  -6 1261.76 93.7235  11
   2  -5  -5 14915.9 370.006  20
   2  -5  -5 13607.0 348.476  11
   2  -5  -5 15712.0 563.076  16
  -2  -5   5 15392.2 599.680   3
   2  -5  -5 15373.0 379.446  10
  -2  -5   5 13824.1 618.634  14
  -2  -5   4 13136.6 551.914   3
   2  -5  -4 13380.7 517.727  16
  -2  -5   4 12514.1 557.158  14
  -2  -5   3 11778.5 512.627  14
   2  -5  -3 12411.3 497.925  16
  -2  -5   3 12278.4 536.655   3
   2  -5  -2 5736.26 329.808  16
  -2  -5   2 5210.16 343.549   3
  -2  -5   1 30517.5 916.713   3
   2  -5  -1 31161.4 877.238  16
   2  -5   0 1076.19 151.361  16
  -2  -5   0 943.084 148.209   3
  -2  -5  -1 6585.23 399.715   3
   2  -5   1 6470.91 381.186  16
  -2  -5  -2 17394.1 686.616   3
  -2  -5  -3 16973.1 682.686   3
   2  -5   4 8145.10 293.382  19
  -2  -5  -4 7967.38 237.001  11
  -2  -5  -4 8112.14 249.840  17
  -2  -5  -4 8194.24 465.433   3
   2  -5   4 8545.04 314.085  20
   2  -5   5 1247.17 123.290  20
  -2  -5  -5 1189.83 94.0862  17
  -2  -5  -5 1099.93 83.7381  11
   2  -5   5 1200.24 108.638  19
  -2  -5  -6 12689.1 332.031  11
  -2  -5  -6 13794.9 351.697  17
   2  -5   6 12386.6 391.647  19
   2  -5   6 14094.6 440.354  20
   2  -5   7 7358.67 307.096  20
  -2  -5  -7 6936.67 239.761  17
  -2  -5  -7 7015.59 228.570  11
   2  -5   8 4831.12 246.919  20
  -2  -5  -8 5008.96 196.636  17
   2  -5   8 4487.34 217.908  19
  -2  -5  -8 4803.02 180.250  11
  -2  -5  -9 2897.43 143.973  17
  -2  -5  -9 2990.89 133.730  11
   2  -5   9 3037.50 179.630  20
   2  -5   9 3046.26 165.012  19
  -2  -5 -10 15186.0 344.230  17
  -2  -5 -10 14319.8 317.632  11
   2  -5  11 7086.43 215.908  20
  -2  -5 -11 6865.15 191.544   9
  -2  -5 -11 7150.23 196.336  17
  -2  -5 -12 1600.13 64.7639   9
  -2  -4  14 1778.83 81.1254  20
  -2  -4  13 13165.4 325.624  20
   2  -4 -13 11861.2 259.893   9
  -2  -4  12 7762.86 282.349  20
   2  -4 -12 7810.60 223.238   9
   2  -4 -11 8612.59 242.434  11
  -2  -4  11 8802.64 330.341  20
   2  -4 -10 788.836 71.2969  11
  -2  -4  10 713.714 104.356  20
   2  -4  -9 3646.76 156.207  11
  -2  -4   9 3902.14 231.738  20
   2  -4  -8 13482.4 338.146  11
  -2  -4   8 13219.8 442.415  20
   2  -4  -8 13310.6 377.795  18
  -2  -4   7 66502.6 1609.32  14
   2  -4  -7 65778.2 1113.88  18
   2  -4  -7 66689.6 1063.52  11
   2  -4  -6 20162.0 605.999  16
  -2  -4   6 18480.8 727.653  14
   2  -4  -5 25154.0 694.081  16
  -2  -4   5 26467.3 734.346   3
   2  -4  -4 5799.73 295.493  16
  -2  -4   4 5387.86 307.175   3
  -2  -4   4 5022.20 326.962  14
  -2  -4   3 3983.33 269.754   3
   2  -4  -3 4577.13 261.088  16
  -2  -4   3 4204.48 277.583  14
  -2  -4   2 39332.7 973.760   3
   2  -4  -2 41603.4 937.570  16
  -2  -4   2 38883.7 939.375  14
   2  -4  -1 15688.9 520.907  16
  -2  -4   1 14240.0 533.404   3
  -2  -4   1 14094.0 485.766  14
   2  -4   0 1091.33 136.437  16
  -2  -4   0 869.326 106.637  14
  -2  -4   0 1001.28 137.614   3
  -2  -4  -1 19343.7 638.413   3
  -2  -4  -1 17414.7 511.096  14
  -2  -4  -2 12776.5 519.386   3
   2  -4   2 12462.0 411.092  14
  -2  -4  -3 10104.6 465.607   3
   2  -4   3 9761.04 401.527  14
  -2  -4  -4 17035.6 628.547   3
   2  -4   4 16366.6 584.379  14
  -2  -4  -5 1394.60 167.937   3
   2  -4   5 1242.73 166.960  14
   2  -4   6 2136.45 160.044  20
  -2  -4  -6 2015.68 112.330  11
   2  -4   6 1826.43 133.033  19
   2  -4   6 2028.99 225.441  14
  -2  -4  -6 1922.70 118.752  17
   2  -4   7 12898.3 423.301  20
  -2  -4  -7 12615.4 335.418  17
  -2  -4  -7 12642.6 322.434  11
   2  -4   7 12643.1 608.061  14
  -2  -4  -8 10194.1 286.726  11
   2  -4   8 9744.53 336.184  19
  -2  -4  -8 10143.2 303.519  17
   2  -4   8 9789.40 369.133  20
  -2  -4  -9 14310.8 374.023  17
   2  -4   9 14458.1 408.660  19
  -2  -4  -9 14017.6 347.309  11
   2  -4   9 13544.9 432.912  20
   2  -4  10 56.1497 36.8541  20
  -2  -4 -10 21.0743 20.8250  11
  -2  -4 -10 23.7565 35.1411  17
   2  -4  10 130.824 47.1329  19
   2  -4  11 2084.40 128.729  20
   2  -4  11 2241.43 121.731  19
  -2  -4 -11 2182.31 116.566  17
   2  -4  12 1369.72 83.6005  20
   2  -4  12 1474.77 82.4900  19
  -2  -4 -12 1500.67 77.0578   9
  -2  -4 -12 1424.15 83.1347  17
  -2  -3  14 12539.6 306.716  20
   2  -3 -14 12002.6 250.402   9
   2  -3 -13 9277.67 243.681   9
  -2  -3  13 9082.69 300.291  20
   2  -3 -12 2486.37 132.797   9
  -2  -3  12 2490.19 171.359  20
  -2  -3  11 8803.44 351.109  20
   2  -3 -11 9240.55 280.820   9
   2  -3 -10 10612.0 288.624  11
   2  -3  -9 23160.8 476.251  11
  -2  -3   9 24465.7 910.365  14
   2  -3  -8 31019.7 634.904  18
  -2  -3   8 31049.3 1008.85  14
   2  -3  -8 28990.1 560.521  11
   2  -3  -8 31443.7 787.937  16
  -2  -3   7 9744.58 511.962  14
   2  -3  -7 9578.14 384.039  16
   2  -3  -6 49343.5 1009.22  16
  -2  -3   6 46232.6 1193.25  14
   2  -3  -5 26559.9 656.020  16
  -2  -3   5 27060.5 667.787   3
  -2  -3   5 25375.0 782.894  14
  -2  -3   4 779.435 124.731  14
  -2  -3   4 748.716 100.439   3
   2  -3  -4 830.398 98.2029  16
   2  -3  -3 90769.3 1539.92  16
  -2  -3   3 88515.3 1594.73   3
  -2  -3   3 91178.4 1661.56  14
  -2  -3   2 49837.9 1044.58  14
  -2  -3   2 50678.3 1040.19   3
   2  -3  -2 50392.3 984.586  16
  -2  -3   1 12810.3 421.938  14
  -2  -3   1 13408.9 450.503   3
   2  -3  -1 14109.4 430.707  16
  -2  -3   0 41246.1 918.895   3
   2  -3   0 43367.3 900.491  16
  -2  -3  -1 15516.3 492.426   3
   2  -3   1 15158.5 404.748  14
  -2  -3  -2 5685.25 288.241   3
  -2  -3  -2 5308.23 231.839  13
   2  -3   2 5845.83 260.372  14
  -2  -3  -3 9918.12 407.312   3
   2  -3   3 10281.8 394.493  14
  -2  -3  -3 10083.6 367.706  13
  -2  -3  -4 24221.9 695.223   3
   2  -3   4 24925.8 715.379  14
  -2  -3  -4 23090.8 661.917  13
  -2  -3  -5 5818.24 319.799   3
   2  -3   5 5956.50 353.022  14
  -2  -3  -5 5383.27 319.188  13
   2  -3   6 2461.39 241.095  14
  -2  -3  -6 2326.20 225.786  13
   2  -3   7 1651.94 139.159  20
  -2  -3  -7 1646.97 98.3707  11
  -2  -3  -7 1592.19 106.799  17
   2  -3   7 1597.94 204.771  14
   2  -3   7 1416.45 114.269  19
   2  -3   8 1198.71 107.949  19
   2  -3   8 1221.71 122.695  20
   2  -3   8 1290.59 196.704  14
  -2  -3  -8 1289.42 99.9565  17
  -2  -3  -8 1247.82 89.0989  11
   2  -3   9 1701.95 130.501  19
  -2  -3  -9 1512.93 114.980  17
   2  -3   9 1667.25 146.371  20
  -2  -3  -9 1531.68 104.834  11
   2  -3  10 430.103 75.1441  20
   2  -3  10 402.591 66.2453  19
  -2  -3 -10 306.085 53.9858  17
   2  -3  11 409.680 66.9350  20
   2  -3  11 459.569 62.8755  19
  -2  -3 -11 494.079 62.3663   9
  -2  -3 -11 384.932 58.8727  17
   2  -3  12 4476.28 176.305  20
  -2  -3 -12 4889.50 178.018  17
  -2  -3 -12 5106.49 170.470   9
   2  -3  12 4761.40 177.550  19
   2  -3  13 3871.16 122.130  19
  -2  -3 -13 3552.43 115.659   9
  -2  -2  15 2083.29 92.4796  20
   2  -2 -14 153.362 31.0526   7
   2  -2 -14 126.190 29.6179   9
  -2  -2  13 1089.80 110.475  20
   2  -2 -13 1069.37 81.1490   9
   2  -2 -12 25021.7 531.252   9
   2  -2 -11 3349.14 164.447   9
   2  -2 -10 26527.8 523.275  11
   2  -2  -9 17936.8 390.742  11
  -2  -2   9 19523.4 768.609  14
   2  -2  -8 41868.3 931.354  16
  -2  -2   8 41199.0 1147.20  14
  -2  -2   7 37324.5 1044.32  14
   2  -2  -7 41123.3 872.908  16
   2  -2  -6 578.262 82.3916  16
  -2  -2   6 496.967 98.5816  14
   2  -2  -5 11554.8 363.888  16
  -2  -2   5 11641.7 466.712  14
  -2  -2   5 12283.5 343.759   3
  -2  -2   4 41251.5 795.024   3
   2  -2  -4 40066.8 790.662  16
  -2  -2   4 41276.6 928.101  14
  -2  -2   3 15512.8 417.380   3
   2  -2  -3 15390.6 401.751  16
  -2  -2   3 14642.7 469.042  14
  -2  -2   2 22800.9 537.173   3
   2  -2  -2 21992.6 502.318  16
  -2  -2   2 22629.0 568.381  14
  -2  -2   1 41375.0 816.610   3
   2  -2  -1 43322.8 800.138  16
   2  -2   0 492.776 65.7473  16
  -2  -2   0 523.252 71.0910   3
  -2  -2   0 550.497 45.9028  13
  -2  -2  -1 20059.4 497.639   3
   2  -2   1 18935.4 447.022  14
  -2  -2  -1 18931.7 412.174  13
  -2  -2  -2 65689.7 1173.22   3
   2  -2   2 67123.5 1165.59  14
  -2  -2  -2 66956.1 1114.12  13
  -2  -2  -3 17987.4 512.523   3
   2  -2   3 19110.0 540.884  14
  -2  -2  -3 19528.9 506.226  13
  -2  -2  -4 3796.41 223.236   3
   2  -2   4 3721.37 243.785  14
  -2  -2  -4 3937.91 228.388  13
  -2  -2  -5 11675.5 418.832   3
   2  -2   5 11934.4 487.512  14
  -2  -2  -5 11508.2 448.084  13
   2  -2   6 33326.5 929.669  14
  -2  -2  -6 30646.2 856.614  13
  -2  -2  -6 31565.4 785.945   3
  -2  -2  -7 844.992 140.728  13
   2  -2   7 816.448 145.933  14
  -2  -2  -8 11077.2 293.938  11
   2  -2   8 11458.4 385.322  20
   2  -2   8 11088.5 339.364  19
  -2  -2  -8 11766.1 323.858  17
   2  -2   8 12016.7 510.777   2
  -2  -2  -8 11672.2 561.739  13
  -2  -2  -8 10892.8 342.738  21
   2  -2   8 11664.1 577.543  14
   2  -2   9 7883.64 318.482  20
  -2  -2  -9 7598.17 240.890  11
  -2  -2  -9 8099.10 272.378  17
   2  -2   9 8122.66 282.980  19
  -2  -2  -9 7898.92 287.093  21
  -2  -2 -10 2161.36 140.170  17
   2  -2  10 2338.83 146.766  19
  -2  -2 -10 2175.50 146.555  21
   2  -2  10 2167.68 164.321  20
   2  -2  11 2928.04 158.330  19
  -2  -2 -11 2890.16 156.690  21
   2  -2  11 2528.78 163.501  20
  -2  -2 -11 2832.38 156.197  17
  -2  -2 -11 3188.61 152.730   9
  -2  -2 -12 421.275 56.0886  17
   2  -2  12 448.309 58.7527  20
  -2  -2 -12 510.765 55.9589   9
  -2  -2 -12 537.190 59.4834  21
   2  -2  12 405.262 57.4582  19
  -2  -2 -13 10.9414 16.0660   9
   2  -2  13 17.4046 24.0777  19
  -2  -1  15 816.223 63.6454  20
   2  -1 -15 864.569 52.2874   9
   2  -1 -15 884.172 53.2923   7
  -2  -1  14 3829.39 178.084  20
   2  -1 -14 3560.93 143.394   9
   2  -1 -13 1292.51 95.4549   9
   2  -1 -12 1349.43 105.651   9
   2  -1 -11 12592.4 351.919   9
   2  -1 -10 43829.1 806.401   9
  -2  -1  10 42875.9 1203.99  14
  -2  -1   9 12057.9 560.803  14
   2  -1  -8 1693.68 179.362   1
  -2  -1   8 1672.61 195.059  14
   2  -1  -7 786.048 97.3684  16
   2  -1  -7 727.175 110.180   1
  -2  -1   7 773.831 118.084  14
   2  -1  -6 22018.1 595.068   1
  -2  -1   6 22272.5 662.911  14
   2  -1  -6 21675.1 540.292  16
   2  -1  -5 41704.9 797.680  16
  -2  -1   5 41678.3 929.630  14
   2  -1  -5 39581.6 822.977   1
   2  -1  -4 3045.49 160.781   1
  -2  -1   4 3175.05 132.101   3
   2  -1  -4 3246.27 158.809  16
  -2  -1   4 3389.69 206.410  14
   2  -1  -4 3042.99 171.834   4
  -2  -1   3 33423.6 601.190   3
   2  -1  -3 32488.2 617.620  16
  -2  -1   3 32337.3 711.441  14
   2  -1  -3 31933.5 662.691   4
  -2  -1   2 23518.2 460.369   3
   2  -1  -2 23641.4 462.370  16
  -2  -1   1 185509. 2677.92   3
  -2  -1   1 189413. 2577.24  13
   2  -1  -1 187016. 2657.26  16
   2  -1  -1 189011. 2564.77   2
   2  -1  -1 186445. 2699.57   4
  -2  -1   0 9897.65 272.979   3
   2  -1   0 9689.97 245.457  16
   2  -1   0 9684.48 221.677   2
   2  -1   0 10121.4 264.971   4
  -2  -1   0 9775.71 226.811  13
   2  -1   1 202763. 2839.86  16
   2  -1   1 201653. 2906.51  14
  -2  -1  -1 202665. 2902.75   3
   2  -1   1 199011. 2838.70   4
  -2  -1  -1 204206. 2850.67  13
   2  -1   2 29589.8 628.775  14
  -2  -1  -2 28575.3 598.353   3
   2  -1   2 28745.6 516.204   4
   2  -1   3 39737.9 642.338   4
  -2  -1  -3 38749.3 769.818   3
   2  -1   3 41360.3 843.157  14
  -2  -1  -3 41206.8 795.334  13
  -2  -1  -4 2352.14 152.437   3
   2  -1   4 2304.65 179.367  14
  -2  -1  -4 2200.13 158.475  13
  -2  -1  -5 14062.2 429.891   3
   2  -1   5 13515.4 500.232  14
  -2  -1  -5 14179.8 476.542  13
  -2  -1  -6 36068.5 804.327   3
   2  -1   6 36111.1 859.000   2
   2  -1   6 35896.1 946.674  14
  -2  -1  -6 36663.3 913.356  13
   2  -1   7 23816.3 784.807  14
   2  -1   7 24873.6 714.995   2
  -2  -1  -7 23297.8 751.069  13
   2  -1   8 1546.20 107.946  19
  -2  -1  -8 1436.76 105.313  17
  -2  -1  -8 1482.71 191.485  13
  -2  -1  -8 1630.21 121.267  21
   2  -1   8 1406.09 165.854   2
   2  -1   8 1422.92 194.847  14
  -2  -1  -9 9028.56 294.991  17
  -2  -1  -9 8937.29 315.916  21
   2  -1   9 9274.63 510.844  14
  -2  -1  -9 8902.17 503.721  13
   2  -1   9 8897.80 456.024   2
   2  -1   9 9335.45 296.089  19
  -2  -1 -10 1412.53 124.617  17
   2  -1  10 1181.04 106.272  19
  -2  -1 -10 1251.10 101.395   9
  -2  -1 -10 1063.13 106.914  21
  -2  -1 -11 6990.01 269.731  21
   2  -1  11 6570.23 246.612  19
  -2  -1 -11 6891.26 259.794  17
  -2  -1 -11 6901.58 236.947   9
  -2  -1 -12 8941.55 285.541  17
  -2  -1 -12 9145.22 287.263  21
   2  -1  12 9434.75 279.926  19
  -2  -1 -12 9569.70 269.649   9
  -2  -1 -13 3298.48 134.920  21
   2  -1  13 3275.15 135.327  19
  -2  -1 -13 3346.61 130.578   9
   2  -1  13 2940.14 124.239   8
   2   0 -15 3850.97 128.994   7
   2   0 -15 3620.88 121.344   9
   2   0 -14 967.666 77.6112   9
   2   0 -13 4168.37 182.522   9
   2   0 -12 7627.15 266.968   9
   2   0 -12 7632.27 269.530  21
   2   0 -11 146.503 40.6760  21
   2   0 -11 248.980 47.6574   9
   2   0 -10 1296.86 109.985  21
   2   0 -10 1580.80 197.152   1
   2   0 -10 1415.83 106.628   9
   2   0  -9 13215.2 542.262   1
  -2   0   9 11722.0 518.978  14
   2   0  -8 211.506 68.6978   1
  -2   0   8 280.801 85.3986  14
  -2   0   7 52329.6 1152.51  14
   2   0  -7 55609.4 1127.80   1
   2   0  -6 2075.09 157.054   1
  -2   0   6 2030.05 168.678  14
   2   0  -5 34077.5 691.377   1
   2   0  -5 33093.3 677.334  16
  -2   0   5 33319.8 749.141  14
   2   0  -5 31340.6 670.639   4
   2   0  -4 11312.6 311.139   1
  -2   0   4 11599.1 365.112  14
   2   0  -4 11155.2 311.549  16
   2   0  -4 10871.4 313.417   4
  -2   0   3 189919. 2585.63   3
  -2   0   3 188738. 2766.12  14
   2   0  -3 181060. 2654.26   1
   2   0  -3 189397. 2703.80   4
   2   0  -3 191823. 2691.30  16
   2   0  -2 1252.41 64.6560   1
   2   0  -2 1275.02 80.0907  16
  -2   0   2 1309.51 67.7010   3
   2   0  -1 114902. 1603.83  16
   2   0  -1 115675. 1606.23   2
   2   0   0 3364.90 125.613   2
   2   0   0 3539.76 110.000  16
  -2   0   0 3527.95 138.157  13
   2   0   1 994422. 12666.7   2
   2   0   1 975546. 12626.2   4
  -2   0  -2 48466.1 831.840  13
   2   0   2 48261.5 748.948   4
   2   0   2 43878.1 677.214  15
   2   0   2 50023.1 831.828   2
  -2   0  -2 46429.5 735.157   1
   2   0   2 46715.9 856.053  14
   2   0   3 32445.3 554.788   4
  -2   0  -3 32299.8 593.981   1
   2   0   3 31128.6 532.683  15
   2   0   3 33515.0 668.211   2
  -2   0  -3 33460.9 670.806  13
   2   0   3 32869.3 700.508  14
  -2   0  -4 14674.5 428.057  13
  -2   0  -4 14215.7 379.459   1
   2   0   4 14141.9 331.538  15
   2   0   4 14203.3 453.406  14
   2   0   4 14984.3 430.208   2
   2   0   4 14853.0 309.388   4
   2   0   5 286.475 73.7193  14
   2   0   5 340.829 78.4182   2
   2   0   5 280.256 48.4888  15
  -2   0  -5 354.160 62.2839   1
  -2   0  -6 19912.0 511.929   3
  -2   0  -6 18100.0 524.953   1
   2   0   6 17334.2 464.482  15
   2   0   6 17825.6 601.270  14
   2   0   6 19500.9 576.753   2
  -2   0  -6 18610.3 590.311  13
   2   0   7 6618.61 370.155  14
   2   0   7 6821.45 347.716   2
  -2   0  -7 6871.32 373.498  13
   2   0   8 1179.13 91.9574  19
  -2   0  -8 1433.15 104.557  17
   2   0   8 1195.67 170.075  14
  -2   0  -8 1357.84 179.556  13
   2   0   8 1455.16 167.841   2
  -2   0  -8 1251.05 106.925  21
  -2   0  -9 11644.2 368.010  21
  -2   0  -9 10985.3 339.384  17
   2   0   9 10849.9 319.093  19
  -2   0  -9 11611.8 322.468   9
   2   0   9 11388.7 505.829   2
   2   0   9 11571.8 560.708  14
  -2   0  -9 11364.9 555.772  13
   2   0  10 8985.92 293.090  19
  -2   0 -10 9349.57 292.136   9
  -2   0 -10 9550.02 338.222  21
  -2   0 -10 9229.90 311.414  17
  -2   0 -11 8078.13 300.099  21
  -2   0 -11 7803.38 256.878   9
   2   0  11 7699.97 261.979  19
  -2   0 -11 7263.03 272.007  17
  -2   0 -12 4026.21 191.451  21
  -2   0 -12 4084.03 168.545   9
   2   0  12 3999.13 174.379  19
  -2   0 -13 1036.54 80.8225  21
   2   0  13 1102.87 77.3756  19
  -2   0 -13 1063.66 73.5961   9
   2   0  14 1866.60 76.2692  19
  -2   1  15 542.090 48.1310  20
   2   1 -15 602.285 47.5808   9
   2   1 -15 691.815 52.2441   7
   2   1 -14 3269.07 149.165   7
   2   1 -14 3096.57 142.982   9
   2   1 -14 3111.43 128.510  21
   2   1 -13 1693.95 115.738  21
   2   1 -13 1852.63 120.943   9
   2   1 -12 1235.79 108.729  21
   2   1 -12 1268.35 110.005   9
   2   1 -12 1575.17 106.794   5
   2   1 -11 12315.0 364.219   9
   2   1 -11 12058.1 383.440  21
   2   1 -10 40895.9 836.021  21
   2   1 -10 42057.2 798.843   9
   2   1 -10 42304.8 1116.76   1
  -2   1   9 10740.2 489.868  15
   2   1  -9 11831.9 505.086   1
   2   1  -8 1873.85 177.073   1
  -2   1   8 1834.50 182.107  15
   2   1  -7 661.963 97.3593   1
  -2   1   7 557.568 87.5621  14
  -2   1   6 26695.9 631.731  14
   2   1  -6 24807.9 559.803   4
   2   1  -6 26319.2 636.155   1
   2   1  -5 43563.3 843.621   1
  -2   1   5 45289.4 855.068  14
   2   1  -5 42775.1 789.566   4
   2   1  -4 3745.83 166.922   1
  -2   1   4 3745.64 172.865  14
   2   1  -4 3575.95 154.154   4
   2   1  -3 34215.2 613.034   1
  -2   1   3 34881.7 641.522  14
   2   1  -3 33666.1 614.800   4
  -2   1   2 25872.7 484.538  15
   2   1  -2 26475.1 497.389   4
   2   1  -2 27033.8 479.333   1
  -2   1   1 190592. 2604.49  15
   2   1  -1 182712. 2688.44   2
   2   1   0 7765.42 238.518   2
   2   1   0 7922.64 188.512  15
  -2   1   0 7819.34 251.543  13
  -2   1   0 8125.61 170.591  15
   2   1   1 199877. 2897.05   2
  -2   1  -1 202032. 2740.64   1
   2   1   1 204998. 2800.63  15
  -2   1  -1 200300. 2913.23  13
   2   1   2 26500.2 561.724   2
  -2   1  -2 26498.1 461.698   1
   2   1   2 26674.0 488.524  15
  -2   1  -2 26421.3 566.761  13
   2   1   3 43008.6 825.500   2
   2   1   3 41670.7 746.846  15
  -2   1  -3 43372.0 729.829   1
  -2   1  -3 42294.8 825.037  13
  -2   1  -4 3433.26 162.540   1
   2   1   4 3408.36 165.485  15
   2   1   4 3231.64 193.370   2
  -2   1  -4 3307.94 190.011  13
   2   1   5 13676.5 449.704   2
  -2   1  -5 13813.6 393.105   1
   2   1   5 13380.6 400.152  15
   2   1   5 12987.6 450.492  14
  -2   1  -5 13566.1 445.830  13
   2   1   6 33325.2 815.715   2
   2   1   6 33149.3 750.268  15
  -2   1  -6 33256.5 751.976   1
   2   1   6 32162.0 838.978  14
  -2   1  -6 32169.7 820.838  13
  -2   1  -7 21944.0 630.851   1
   2   1   7 22708.9 682.148   2
  -2   1  -7 21855.0 692.491  13
   2   1   8 2256.19 126.744  19
  -2   1  -8 2453.13 143.412  17
  -2   1  -8 2476.56 131.345   9
   2   1   8 2153.09 208.797   2
   2   1   8 2225.62 116.904  22
  -2   1  -8 1992.90 192.399   1
  -2   1  -8 2247.57 148.680  21
  -2   1  -8 2288.50 227.783  13
   2   1   9 8950.28 277.394  19
  -2   1  -9 9147.43 308.570  17
  -2   1  -9 9406.13 330.959  21
   2   1   9 8427.00 253.797  22
   2   1   9 9375.70 457.169   2
  -2   1  -9 8733.67 481.982  13
  -2   1  -9 9269.73 288.078   9
   2   1  10 851.349 84.5371  19
  -2   1 -10 800.161 80.6477   9
  -2   1 -10 849.608 96.8608  21
  -2   1 -10 711.597 85.1442  17
  -2   1 -11 7740.65 261.684   9
  -2   1 -11 8016.07 301.576  21
   2   1  11 7841.18 259.343  19
  -2   1 -12 8389.72 258.668   9
   2   1  12 8712.25 260.803  19
  -2   1 -12 9238.22 301.371  21
  -2   1 -13 3410.88 152.067  21
   2   1  13 3690.12 141.408  19
  -2   1 -13 3365.74 131.952   9
   2   1  14 2153.40 81.6401  19
   2   1  14 2074.87 88.6800   8
  -2   1 -14 2328.38 90.6725  21
   2   2 -15 2264.68 86.0427   7
   2   2 -14 132.098 29.0238  21
   2   2 -14 147.089 33.2527   9
   2   2 -14 138.967 25.3196   5
   2   2 -14 81.0038 24.0956   7
   2   2 -13 1490.37 108.158   9
   2   2 -13 1433.52 91.3841   5
   2   2 -13 1399.22 105.984  21
   2   2 -13 1229.21 102.048   7
   2   2 -12 24192.4 571.572  21
   2   2 -12 24182.3 553.747   9
   2   2 -12 23860.6 520.146   5
   2   2 -11 2651.95 160.304   9
   2   2 -11 2694.24 173.965  21
   2   2 -10 28633.8 632.011   9
   2   2 -10 27827.8 657.477  21
   2   2  -9 18381.8 492.811  21
   2   2  -9 18554.4 465.565   9
  -2   2   9 18078.5 702.199  15
   2   2  -9 19191.2 663.647   1
   2   2  -8 41323.9 993.612   1
  -2   2   8 37356.2 1027.30  15
  -2   2   7 31163.2 866.995  15
   2   2  -7 35042.0 833.716   1
   2   2  -6 353.866 70.6440   1
  -2   2   6 352.482 73.2623  15
  -2   2   5 10416.2 389.816  15
   2   2  -5 10771.6 299.254   4
   2   2  -4 40067.3 763.475   1
  -2   2   4 39210.8 822.614  15
   2   2  -4 39255.9 706.651   4
  -2   2   3 18219.1 458.281  15
   2   2  -3 18298.7 430.820   1
  -2   2   3 18060.2 344.405  14
   2   2  -3 17809.7 397.615   4
  -2   2   2 25708.4 547.416  15
   2   2  -1 42582.0 822.659   2
  -2   2   1 43015.8 763.521  15
   2   2  -1 43341.7 767.522  15
  -2   2   0 198.400 37.1658  15
   2   2   0 173.787 37.7534  15
   2   2   0 194.573 45.7345   2
  -2   2  -1 17324.0 447.605  13
   2   2   1 16080.5 430.564   2
   2   2   1 16104.8 391.757  15
  -2   2  -1 16648.1 348.233  15
  -2   2  -1 15977.7 333.562   1
   2   2   2 72180.6 1260.86   2
  -2   2  -2 73898.5 1123.66   1
   2   2   2 72202.3 1213.61  15
  -2   2  -2 73810.4 1259.68  13
  -2   2  -3 18591.1 410.062   1
   2   2   3 18223.5 467.800  15
   2   2   3 18614.1 508.805   2
  -2   2  -3 19377.0 501.132  13
   2   2   4 3803.82 219.684   2
   2   2   4 3865.04 209.742  15
  -2   2  -4 3882.33 178.192   1
  -2   2  -4 3814.15 213.573  13
   2   2   5 14522.0 460.418  15
  -2   2  -5 13834.0 461.691  13
   2   2   5 13745.0 476.260   2
  -2   2  -5 14668.2 418.103   1
   2   2   6 31398.4 823.265   2
  -2   2  -6 33115.0 753.707   1
   2   2   6 31725.5 800.674  15
  -2   2  -6 31274.7 808.189  13
  -2   2  -7 1059.08 129.650   1
   2   2   7 856.229 127.950   2
  -2   2  -7 826.833 127.410  13
   2   2   8 10612.6 479.401   2
  -2   2  -8 10075.0 303.097   9
   2   2   8 10405.3 282.007  22
  -2   2  -8 10406.6 339.517  12
  -2   2  -8 9758.67 478.989  13
   2   2   8 10077.1 289.393  19
  -2   2  -8 10105.3 341.245  21
  -2   2  -9 8218.26 298.073  12
  -2   2  -9 8295.21 312.291  21
   2   2   9 7926.78 258.339  19
  -2   2  -9 7613.98 271.234   9
   2   2   9 8234.56 246.840  22
   2   2  10 2023.50 125.031  19
  -2   2 -10 2021.42 131.724   9
  -2   2 -10 2277.72 143.654  12
   2   2  10 1956.86 110.142  22
  -2   2 -10 2002.40 149.172  21
  -2   2 -11 2598.44 141.742   9
   2   2  11 2500.34 136.511  19
  -2   2 -11 2440.75 158.182  21
  -2   2 -12 317.443 53.2538  21
   2   2  12 321.291 47.3815  19
  -2   2 -12 318.261 44.4904   9
   2   2  13 130.590 27.7430  19
  -2   2 -13 67.9674 21.4335   9
  -2   2 -13 109.443 31.6128  21
   2   3 -14 11204.8 264.395  21
   2   3 -14 11589.5 238.952   5
   2   3 -14 11092.8 255.501   7
   2   3 -13 8765.53 267.067  21
   2   3 -13 9102.83 247.562   5
   2   3 -13 8866.05 263.207   7
   2   3 -13 9029.33 271.412   9
   2   3 -12 2493.48 152.807  21
   2   3 -12 2704.28 158.136   9
   2   3 -12 2572.72 151.602   7
   2   3 -11 8392.26 312.887  21
   2   3 -11 8210.81 264.440  12
   2   3 -10 11081.4 335.524  12
   2   3 -10 11957.6 377.200   9
   2   3 -10 11131.0 377.712  21
   2   3  -9 22390.2 569.882  21
   2   3  -9 21946.7 522.262  12
   2   3  -9 23753.3 772.383   1
   2   3  -9 22944.1 557.630   9
  -2   3   9 23105.5 854.296  15
   2   3  -8 29295.8 661.188  21
   2   3  -8 29398.8 622.627  12
   2   3  -8 29132.4 640.911   9
  -2   3   8 28329.0 933.995  15
   2   3  -8 30186.6 855.616   1
   2   3  -7 10111.6 418.474   1
  -2   3   7 7714.32 429.856  15
  -2   3   6 46434.7 1132.76  15
   2   3  -6 48101.9 1014.53   1
   2   3  -5 27857.4 673.918   1
  -2   3   5 26959.5 756.162  15
   2   3  -4 1029.80 87.5350   4
  -2   3   4 1052.72 124.971  15
   2   3  -4 1021.41 109.388   1
  -2   3   3 92514.4 1604.22  15
   2   3  -3 90707.4 1529.89   1
  -2   3   2 54794.3 1063.63  15
   2   3  -2 58879.1 1063.36  15
  -2   3   1 10650.8 345.862  15
   2   3  -1 10429.9 343.795  15
   2   3   0 39460.1 844.719   2
  -2   3   0 39064.6 775.083  15
   2   3   0 40104.1 810.220  15
   2   3   1 15585.5 470.193   2
   2   3   1 15214.2 443.195  15
  -2   3  -1 15508.1 403.643  15
  -2   3  -1 16214.5 475.630  13
   2   3   2 4019.86 227.574   2
   2   3   2 4159.37 221.717  15
  -2   3  -2 4564.36 193.011  15
  -2   3  -2 4051.98 218.350  13
  -2   3  -2 4323.77 185.837   1
   2   3   3 12294.4 434.438   2
   2   3   3 12243.5 419.887  15
  -2   3  -3 12444.0 416.937  13
  -2   3  -3 13090.0 358.231   1
   2   3   4 26789.0 721.817   2
  -2   3  -4 27230.8 608.663   1
   2   3   4 26742.4 704.187  15
  -2   3  -4 26601.7 677.140  13
   2   3   5 5442.82 308.619   2
  -2   3  -5 5774.63 265.866   1
  -2   3  -5 5621.99 290.477  13
   2   3   5 5698.68 308.459  15
   2   3   6 1425.97 164.627   2
   2   3   6 2038.45 190.785  15
  -2   3  -6 1836.98 159.209   1
  -2   3  -6 1694.50 170.477  13
  -2   3  -7 991.277 96.0433  12
   2   3   7 894.898 79.5143  19
  -2   3  -7 833.544 128.654  13
   2   3   7 957.572 140.561   2
   2   3   7 919.310 77.7077  22
  -2   3  -7 977.482 98.4557  21
  -2   3  -8 1357.79 119.064  21
   2   3   8 1264.87 97.2558  19
  -2   3  -8 1328.70 121.144  12
  -2   3  -8 1330.76 106.046   9
   2   3   8 1374.47 94.6617  22
  -2   3  -9 1468.43 112.364   9
   2   3   9 1569.85 108.874  19
  -2   3  -9 1510.84 129.235  21
   2   3   9 1357.43 97.5169  22
  -2   3  -9 1469.38 127.315  12
   2   3  10 221.531 38.1240  22
  -2   3 -10 366.108 62.0181  12
  -2   3 -10 297.857 50.7893   9
   2   3  10 281.509 49.8957  19
  -2   3 -10 247.820 53.5116  21
  -2   3 -11 607.860 66.2566  12
   2   3  11 470.204 59.1371  19
  -2   3 -11 659.660 67.5410   9
  -2   3 -11 648.232 79.9741  21
  -2   3 -12 5416.99 201.963  21
   2   3  12 5127.87 174.134  19
  -2   3 -13 3994.98 139.366  21
   2   3  13 3881.94 124.843  19
   2   3  13 3777.15 135.465   8
   2   4 -13 12971.1 312.712  21
   2   4 -13 12386.4 279.688   7
   2   4 -13 13219.9 290.980   5
   2   4 -12 6903.83 205.700  12
   2   4 -12 7112.86 248.583  21
   2   4 -12 7148.27 229.271   5
   2   4 -12 7073.54 228.839   7
   2   4 -11 8603.03 302.318  21
   2   4 -11 8855.16 287.349   7
   2   4 -11 8949.90 274.087  12
   2   4 -10 705.302 76.5782  12
   2   4 -10 619.701 87.7295   9
  -2   4  10 702.257 63.4109  19
   2   4 -10 643.117 84.1605  21
   2   4 -10 594.737 76.1259   7
   2   4  -9 2983.47 181.581  21
  -2   4   9 3446.05 149.862  19
   2   4  -9 3084.16 190.142   9
   2   4  -9 3322.34 177.780  12
   2   4  -9 2965.46 172.454   7
   2   4  -8 16614.8 468.353  21
   2   4  -8 16329.3 440.907   7
   2   4  -8 16389.9 470.063   9
   2   4  -8 16826.0 447.203  12
   2   4  -8 17800.3 647.996   1
   2   4  -7 65083.1 1170.82  21
   2   4  -7 67338.7 1155.77  12
   2   4  -7 64181.7 1175.69   9
   2   4  -6 18645.1 598.936   1
  -2   4   6 17987.2 693.562  15
   2   4  -5 27656.4 728.615   1
  -2   4   5 26555.5 818.885  15
   2   4  -4 7579.11 339.640   1
  -2   4   4 7377.46 376.358  15
  -2   4   3 3590.63 241.749  15
   2   4  -3 3520.08 218.544   1
  -2   4   2 35552.3 871.805  15
   2   4  -2 39990.2 888.613  15
  -2   4   1 13451.8 455.184  15
   2   4  -1 13954.7 463.577  15
  -2   4   0 1876.67 153.267  15
   2   4   0 1941.73 166.690  15
   2   4   1 17761.5 551.586  15
  -2   4  -1 18268.5 513.889  15
  -2   4  -1 18828.8 566.773  13
   2   4   2 11630.7 445.161   2
   2   4   2 10540.0 424.305  15
  -2   4  -2 10859.3 406.596  13
  -2   4  -2 11750.0 377.762   1
  -2   4  -3 11139.0 372.693   1
   2   4   3 9830.25 419.265   2
   2   4   3 9985.52 421.565  15
  -2   4  -3 9726.50 387.816  13
  -2   4  -4 15858.6 473.829   1
   2   4   4 14906.3 547.809   2
   2   4   4 15190.9 553.514  15
  -2   4  -4 14502.6 493.210  13
  -2   4  -5 2174.27 173.769   1
   2   4   5 2038.79 199.852   2
   2   4   5 2018.72 202.340  15
  -2   4  -5 1883.00 170.518  13
  -2   4  -6 2055.65 147.056  12
   2   4   6 1956.15 206.602  15
   2   4   6 1902.10 115.741  22
   2   4   7 12357.3 325.926  19
   2   4   7 11976.3 325.049  22
  -2   4  -7 12100.7 373.713  21
  -2   4  -7 11995.2 352.761   9
  -2   4  -7 12384.1 396.051  12
  -2   4  -8 8920.03 319.877  21
  -2   4  -8 9143.03 336.411  12
   2   4   8 9605.73 280.757  19
   2   4   8 9370.64 270.304  22
  -2   4  -8 8562.33 297.287   9
  -2   4  -9 14761.6 424.494  21
  -2   4  -9 15353.2 434.945  12
   2   4   9 15408.0 373.163  19
   2   4   9 14848.6 356.448  22
  -2   4 -10 179.148 46.2905  12
   2   4  10 103.299 36.3345  19
  -2   4 -10 138.368 45.4416  21
   2   4  10 88.3778 26.5143  22
  -2   4 -11 1898.52 118.532  21
  -2   4 -11 1992.29 113.788  12
   2   4  11 1988.56 104.707  19
  -2   4 -12 1541.84 86.9243  21
  -2   4 -12 1516.33 73.2035  12
   2   4  12 1516.87 81.1658  19
   2   4  12 1558.36 84.4740   8
   2   5 -13 14348.8 272.795   5
   2   5 -12 851.981 70.7495  21
   2   5 -12 824.740 59.6967  12
   2   5 -12 817.728 63.2774   5
   2   5 -11 4708.13 196.203  21
   2   5 -11 4641.07 176.775  12
  -2   5  11 5062.24 154.264  19
  -2   5  10 2410.50 113.464  19
   2   5 -10 2098.39 132.160  12
   2   5 -10 2211.03 145.018  21
   2   5  -9 16716.2 461.662  21
   2   5  -9 16915.9 444.083  12
   2   5  -8 15525.9 446.492  21
   2   5  -8 15391.5 426.977  12
   2   5  -7 3428.42 187.287  12
   2   5  -7 3256.33 187.503  21
   2   5  -6 2111.32 142.584  12
  -2   5   6 2207.35 247.621  15
   2   5  -6 1882.17 197.076   1
   2   5  -6 1904.77 136.097  21
   2   5  -5 14799.8 550.221   1
  -2   5   5 14852.0 630.373  15
   2   5  -5 13828.5 389.155  12
   2   5  -4 12878.2 503.158   1
  -2   5   4 12002.0 538.370  15
  -2   5   3 11158.9 499.802  15
   2   5  -3 12240.7 475.752   1
  -2   5   2 4502.32 294.654  15
   2   5  -2 4890.63 298.466  15
  -2   5   1 28770.3 796.688  15
   2   5  -1 29414.0 807.964  15
  -2   5   0 623.880 104.054  13
  -2   5   0 375.999 81.2731  15
   2   5   0 402.713 87.0998  15
   2   5   1 6491.42 352.409  15
  -2   5  -1 6794.46 332.386  15
  -2   5  -1 6365.51 331.765  13
   2   5   2 18943.2 653.834  15
  -2   5  -2 19085.2 601.210  13
  -2   5  -2 20790.1 592.560   1
  -2   5  -3 21994.3 624.266   1
   2   5   3 18956.2 675.221  15
  -2   5  -4 6259.94 263.519  12
   2   5   4 6885.62 222.305  22
   2   5   4 6127.08 373.431  15
  -2   5  -5 1053.85 107.802  12
   2   5   5 1064.16 89.2296  22
   2   5   5 1031.12 155.403  15
  -2   5  -6 12686.5 402.858  12
   2   5   6 12278.2 329.928  22
   2   5   7 7362.58 237.991  19
  -2   5  -7 7487.26 299.439  12
   2   5   7 6672.82 234.603  22
   2   5   8 3782.98 163.178  19
  -2   5  -8 3739.58 200.031  12
   2   5   8 3957.44 163.501  22
  -2   5  -9 3019.18 153.453  21
   2   5   9 2896.01 129.058  22
   2   5   9 3162.38 141.575  19
  -2   5  -9 2986.25 166.989  12
  -2   5 -10 13758.1 338.697  21
  -2   5 -10 14376.0 362.919  12
   2   5  10 13717.9 293.222  22
  -2   5 -11 8351.53 221.307  12
   2   5  11 8462.67 208.055  19
  -2   5 -11 7740.54 204.194  21
   2   5  12 3447.17 101.644  19
   2   6 -12 1969.89 72.5712   5
   2   6 -11 4167.84 145.316  12
   2   6 -11 4407.22 142.851   5
  -2   6  10 998.436 64.6992  19
   2   6 -10 904.005 70.2135   5
   2   6 -10 921.969 76.2534  12
   2   6  -9 1574.16 110.943  12
   2   6  -9 1455.56 109.132  21
  -2   6   9 1729.86 95.3544  19
   2   6  -8 10675.8 328.825  12
   2   6  -8 10420.6 331.735  21
   2   6  -7 4814.15 215.885  12
   2   6  -7 4745.53 217.525  21
   2   6  -6 2592.50 158.151  12
   2   6  -5 5191.79 225.782  12
   2   6  -4 8514.05 291.893  12
   2   6  -4 8706.71 256.117  22
  -2   6   4 8481.41 247.510  22
   2   6  -3 11224.8 304.260  22
  -2   6   3 10842.0 526.723  15
   2   6  -3 11988.5 513.645   1
   2   6  -3 10706.4 325.021  12
  -2   6   3 10972.2 298.824  22
   2   6  -2 31737.6 616.342  22
  -2   6   2 31427.6 619.469  22
  -2   6   2 31745.5 931.979  15
   2   6  -2 33535.2 913.459   1
  -2   6   1 1014.49 145.956  15
   2   6  -1 1025.04 151.752  15
   2   6  -1 1010.88 84.8220  22
  -2   6   0 26494.8 794.880  15
   2   6   0 27219.6 838.108  15
   2   6   0 26490.1 541.746  22
   2   6   1 13434.8 340.968  22
   2   6   1 12817.7 559.763  15
  -2   6  -1 13043.7 519.495  15
   2   6   2 16348.1 385.481  22
   2   6   2 15333.0 629.462  15
  -2   6  -3 31381.8 698.330  12
   2   6   3 33644.9 631.521  22
   2   6   3 31274.2 956.207  15
   2   6   4 27302.6 550.481  22
  -2   6  -4 26312.6 625.498  12
   2   6   5 7830.91 251.477  22
  -2   6  -5 7843.50 303.784  12
   2   6   6 3906.08 170.639  22
  -2   6  -6 4205.40 212.747  12
   2   6   7 45.8699 27.2106  22
   2   6   7 55.4678 27.5492  19
  -2   6  -7 86.8840 43.4801  12
   2   6   8 2173.10 110.652  19
  -2   6  -8 2090.21 133.055  12
   2   6   8 2027.63 104.589  22
   2   6   9 3046.96 121.760  19
  -2   6  -9 3037.20 145.035  12
   2   6   9 2721.79 109.683  22
  -2   6 -10 848.245 64.6224  12
   2   6  10 876.005 57.8366  19
   2   6  11 2273.68 76.1775  19
  -2   7  10 4541.25 111.776  19
   2   7 -10 4488.86 141.200  12
  -2   7   9 1894.46 81.9565  19
   2   7  -9 1797.57 99.0797  12
   2   7  -8 268.116 46.4952  12
   2   7  -7 1048.27 87.4526  12
   2   7  -6 10201.0 308.844  12
   2   7  -5 6402.74 238.356  12
   2   7  -4 6305.96 206.408  22
  -2   7   4 6478.97 204.166  22
  -2   7   3 7722.34 236.098  22
   2   7  -3 6974.84 229.887  22
  -2   7   2 4082.42 172.495  22
   2   7  -2 4168.89 172.151  22
   2   7  -1 9178.80 271.407  22
  -2   7   1 8636.67 276.025  22
  -2   7   0 27566.6 588.276  22
   2   7   0 28208.6 565.432  22
   2   7   1 7509.42 244.030  22
   2   7   2 9560.40 278.798  22
   2   7   3 20927.2 455.134  22
   2   7   4 22412.8 466.913  22
  -2   7  -4 20739.9 502.509  12
   2   7   5 886.484 75.9720  22
  -2   7  -5 870.007 87.3157  12
  -2   7  -6 2144.04 129.952  12
   2   7   6 2218.41 106.992  19
  -2   7  -7 8693.45 262.323  12
   2   7   7 8355.74 220.953  19
   2   7   7 8747.55 225.372  22
   2   7   8 3072.14 112.380  19
  -2   7  -8 3303.27 136.146  12
   2   7   8 3049.63 107.795  22
  -2   7  -9 194.605 28.5990  12
   2   7   9 204.888 24.9832  19
  -2   8   8 2761.07 86.3613  19
   2   8  -8 2620.81 98.6854  12
   2   8  -7 6277.18 181.931  12
   2   8  -6 1769.44 95.3202  12
   2   8  -5 4902.21 170.283  12
  -2   8   4 21815.4 407.967  22
   2   8  -4 20811.7 405.489  22
  -2   8   3 11198.3 272.299  22
   2   8  -3 11239.0 275.089  22
   2   8  -2 898.149 69.6301  22
  -2   8   2 922.268 71.1091  22
  -2   8   1 1114.82 80.9762  22
   2   8  -1 1038.56 78.3151  22
  -2   8   0 899.310 76.8098  22
   2   8   0 889.832 72.9812  22
  -2   8  -1 4446.36 180.727  22
   2   8   1 4565.39 169.813  22
  -2   8  -2 9588.51 281.426  22
   2   8   2 9780.63 262.351  22
   2   8   3 43.6868 27.7459  22
  -2   8  -3 106.977 39.6028  22
   2   8   4 2461.65 114.511  22
  -2   8  -4 2434.12 122.348  22
   2   8   5 11578.1 250.047  19
  -2   8  -5 11559.4 281.138  22
  -2   8  -6 6014.31 168.867  22
   2   8   6 5660.97 157.356  22
   2   8   6 5852.21 151.899  19
   2   8   7 2453.87 81.1066  19
  -2   8  -7 2362.33 85.5507  12
  -2   8  -7 2409.92 82.7140  22
   2   8   7 2376.77 79.2598  22
   2   9  -3 2103.59 77.1776  22
  -2   9   3 2140.28 78.7658  22
   2   9  -2 8726.42 199.913  22
  -2   9   2 8930.93 200.879  22
  -2   9   1 10112.4 227.357  22
   2   9  -1 9957.01 225.672  22
  -2   9   0 744.160 53.0115  22
   2   9   0 774.378 55.1668  22
   2   9   1 2819.44 107.099  22
  -2   9  -1 2786.97 107.788  22
  -2   9  -2 6045.07 168.976  22
   2   9   2 6540.53 170.188  22
   2   9   3 6907.53 169.874  22
  -2   9  -3 6187.17 165.684  22
   2   9   4 2775.10 91.5312  22
  -2   9  -4 2696.51 90.8465  22
  -3  -9   5 13241.2 239.025  17
   3  -9  -4 3641.46 97.7439  11
  -3  -9   4 3719.99 108.358  17
  -3  -9   3 117.980 23.0579  17
   3  -9  -3 130.599 24.8194  11
  -3  -9   2 3875.54 118.883  17
   3  -9  -2 3834.71 113.597  11
  -3  -9   1 2366.73 90.9005  17
   3  -9  -1 2400.48 88.5284  11
   3  -9   0 2217.96 87.7676  20
   3  -9   0 2005.03 82.3384  11
  -3  -9   0 2112.45 84.7304  17
   3  -9   1 1048.40 64.3019  10
  -3  -9  -1 966.818 54.7083  17
   3  -9   1 993.937 56.9730  20
   3  -9   2 10141.6 226.285  10
   3  -9   2 10055.9 214.170  20
  -3  -9  -2 9877.20 205.885  17
   3  -9   3 11073.9 226.198  10
   3  -9   3 10982.0 217.632  20
  -3  -9  -3 11217.1 211.775  17
  -3  -8   8 1164.95 55.8984  17
   3  -8  -7 2407.74 85.1153  11
  -3  -8   7 2649.27 99.6514  17
   3  -8  -6 3291.21 115.021  11
  -3  -8   6 3564.61 129.070  17
   3  -8  -5 1154.93 68.8829  11
  -3  -8   5 1143.02 75.6723  17
  -3  -8   4 7153.99 212.021  17
   3  -8  -4 7294.29 201.270  11
   3  -8  -3 2478.83 113.202  11
  -3  -8   3 2528.10 120.597  17
   3  -8  -3 2683.48 124.235  20
   3  -8  -2 2167.33 112.925  20
   3  -8  -2 2104.24 118.399  10
  -3  -8   2 2016.14 107.243  17
   3  -8  -1 2670.77 138.043  10
  -3  -8   1 2650.02 124.806  17
   3  -8  -1 2737.56 132.367  20
   3  -8   0 3309.89 150.061  20
   3  -8   0 3331.06 156.653  10
  -3  -8   0 3226.21 137.255  17
   3  -8   1 2891.51 139.964  20
   3  -8   1 2946.68 148.512  10
  -3  -8  -1 2751.40 124.762  17
   3  -8   2 15853.6 378.463  20
   3  -8   2 15975.3 385.026  10
  -3  -8  -2 15499.1 342.744  17
   3  -8   3 71.9936 27.6562  20
   3  -8   3 123.107 33.8256  10
  -3  -8  -3 116.165 28.1407  17
  -3  -8  -4 5059.38 158.254  17
   3  -8   4 4820.04 177.019  10
   3  -8   5 2165.13 103.393  10
   3  -8   5 2287.53 108.663  20
  -3  -8  -5 2114.87 90.8524  17
   3  -8   6 15408.3 300.350  10
  -3  -8  -6 14993.3 284.141  17
   3  -8   6 15637.6 309.132  20
  -3  -7  10 771.707 45.5032  17
   3  -7  -9 3448.86 107.167  11
  -3  -7   9 3545.28 126.164  17
   3  -7  -8 3855.47 131.113  11
  -3  -7   8 4320.36 155.313  17
   3  -7  -7 1300.77 82.3887  11
  -3  -7   7 1417.38 94.8454  17
   3  -7  -6 8846.02 240.556  11
  -3  -7   6 8654.91 259.293  17
   3  -7  -5 4776.45 172.238  11
  -3  -7   5 4472.12 183.341  17
   3  -7  -4 11450.9 316.694  20
   3  -7  -4 11312.6 296.982  11
   3  -7  -4 11674.2 325.206  10
  -3  -7   4 11155.9 313.443  17
   3  -7  -3 3314.82 162.089  20
   3  -7  -3 3370.62 164.888  10
  -3  -7   3 3252.08 155.337  17
   3  -7  -2 10467.6 317.423  10
   3  -7  -2 10344.0 315.977  20
  -3  -7   2 10357.8 297.900  17
   3  -7  -1 5265.65 217.198  20
   3  -7  -1 5346.25 221.300  10
  -3  -7   1 5132.94 197.553  17
   3  -7   0 20802.9 505.603  20
  -3  -7   0 20810.0 461.063  17
   3  -7   0 21579.2 516.751  10
   3  -7   1 6889.97 265.963  20
   3  -7   1 7292.94 275.463  10
  -3  -7  -1 7187.10 234.708  17
   3  -7   2 34281.5 716.031  20
  -3  -7  -2 33341.2 639.026  17
   3  -7   2 34528.9 723.892  10
   3  -7   3 4109.52 203.837  10
  -3  -7  -3 4121.41 167.545  17
   3  -7   3 3999.03 198.580  20
   3  -7   4 16995.5 451.011  10
  -3  -7  -4 16926.9 387.470  17
   3  -7   4 18136.3 457.987  20
   3  -7   5 7789.20 263.650  20
  -3  -7  -5 7131.70 217.113  17
   3  -7   6 46.0161 26.2222  10
  -3  -7  -6 69.9230 21.5013  17
   3  -7   6 73.7949 34.1337  20
   3  -7   7 969.220 77.6178  20
  -3  -7  -7 819.220 62.4761  17
   3  -7   7 891.336 76.2675  10
   3  -7   8 9988.50 229.363  10
  -3  -7  -8 9836.81 219.191  17
  -3  -6  11 1831.82 81.2242  17
  -3  -6  10 42.7593 20.7298  17
   3  -6 -10 33.1153 18.2478  11
   3  -6  -9 1583.09 86.6356  11
  -3  -6   9 1585.87 98.9048  17
  -3  -6   8 5502.42 205.260  17
   3  -6  -8 5377.81 181.946  11
   3  -6  -7 3297.60 144.800  11
  -3  -6   7 3355.86 160.968  17
   3  -6  -6 3723.96 154.792  11
  -3  -6   6 3482.65 167.887  17
   3  -6  -5 1389.10 93.2301  11
  -3  -6   5 1263.88 100.565  17
   3  -6  -5 1313.95 103.643  20
   3  -6  -5 1383.98 104.316  10
   3  -6  -4 8423.85 277.340  20
   3  -6  -4 8213.95 271.831  10
  -3  -6   4 8197.22 267.851  17
   3  -6  -3 3919.23 183.091  10
  -3  -6   3 4044.78 179.982  17
   3  -6  -3 4297.71 193.143  20
   3  -6  -2 24532.6 549.962  20
   3  -6  -2 23292.3 537.895  10
  -3  -6   2 23923.6 516.757  17
  -3  -6   2 24006.0 889.780   3
  -3  -6   1 17255.6 744.101   3
  -3  -6   1 16799.5 405.772  17
   3  -6  -1 16669.1 442.250  10
   3  -6  -1 16569.8 439.856  20
  -3  -6   0 16433.9 398.167  17
   3  -6   0 16088.7 445.251  10
  -3  -6   0 17014.4 749.817   3
   3  -6   0 16831.6 450.229  20
   3  -6   1 12518.3 389.268  20
  -3  -6  -1 12871.1 341.143  17
   3  -6   2 44502.7 889.993  20
  -3  -6  -2 44598.0 804.395  17
   3  -6   2 45152.3 900.889  10
   3  -6   3 1076.49 114.282  10
  -3  -6  -3 1301.12 96.6369  17
   3  -6   3 1157.34 114.264  20
   3  -6   4 28055.3 674.215  10
  -3  -6  -4 27969.5 571.734  17
   3  -6   4 28962.0 660.909  20
   3  -6   5 1759.89 135.772  20
   3  -6   5 1389.23 127.211  10
  -3  -6  -5 1690.13 110.273  17
   3  -6   6 8671.04 308.995  20
  -3  -6  -6 8768.55 232.757  11
   3  -6   6 7459.40 298.452  10
   3  -6   6 7748.15 278.492  18
  -3  -6  -6 8672.69 256.879  17
   3  -6   7 1060.05 100.491  10
   3  -6   7 1174.41 100.586  20
  -3  -6  -7 1101.11 71.1325  11
   3  -6   7 953.181 89.4884  18
  -3  -6  -7 1137.92 85.5358  17
   3  -6   8 906.086 82.9940  20
  -3  -6  -8 666.389 52.0627  11
   3  -6   8 804.116 79.5965  10
  -3  -6  -8 803.069 68.2915  17
   3  -6   9 561.966 56.5277  20
  -3  -6  -9 553.587 50.0783  17
   3  -6   9 518.927 55.1342  10
   3  -6  10 2402.02 89.9338  20
  -3  -6 -10 2447.18 88.4923  17
  -3  -5  12 7661.02 217.982  20
  -3  -5  12 8496.21 195.352  17
   3  -5 -11 1679.09 82.1466  11
  -3  -5  11 1832.10 116.226  20
   3  -5 -10 6621.09 191.898  11
  -3  -5  10 5709.99 244.184  20
  -3  -5   9 19453.8 513.302  20
   3  -5  -9 21733.5 434.701  11
   3  -5  -8 11373.1 294.292  11
   3  -5  -8 10935.7 331.461  18
   3  -5  -7 19748.9 471.365  18
   3  -5  -7 19545.7 426.620  11
   3  -5  -6 18671.1 454.867  18
   3  -5  -6 19403.0 667.041  16
  -3  -5   6 18508.1 778.202  14
   3  -5  -6 18942.6 415.516  11
   3  -5  -5 35744.8 672.218  10
   3  -5  -5 36210.6 692.239  20
   3  -5  -5 34717.4 688.135  18
   3  -5  -5 34081.0 640.845  11
   3  -5  -5 36269.3 964.012  16
   3  -5  -4 6601.75 368.600  16
   3  -5  -4 5935.55 215.701  10
   3  -5  -4 6230.74 228.513  18
  -3  -5   4 5758.86 214.305  17
  -3  -5   4 6072.57 383.931   3
  -3  -5   4 5464.03 381.809  14
   3  -5  -4 6537.09 231.911  20
  -3  -5   3 179.303 37.1862  17
   3  -5  -3 199.874 60.7321  16
  -3  -5   3 230.483 86.6014   3
  -3  -5   3 326.923 84.3278  14
   3  -5  -3 199.645 37.0694  20
  -3  -5   2 16471.5 665.043   3
   3  -5  -2 15769.2 591.563  16
  -3  -5   2 14802.7 612.193  14
  -3  -5   1 7023.06 432.942   3
   3  -5  -1 7072.38 385.195  16
  -3  -5   0 15563.9 672.605   3
   3  -5   0 15828.1 605.903  16
   3  -5   1 10821.2 343.805  20
  -3  -5  -1 10965.3 566.897   3
   3  -5   1 11457.2 353.721  10
  -3  -5  -1 11063.0 297.005  17
   3  -5   1 10847.9 501.311  16
   3  -5   2 2644.02 161.944  20
   3  -5   2 2584.83 162.169  10
  -3  -5  -2 2574.73 131.902  17
  -3  -5  -2 2540.55 274.735   3
   3  -5   2 2460.59 235.861  16
   3  -5   2 2559.51 155.437  18
   3  -5   3 21342.9 544.681  20
  -3  -5  -3 22323.4 474.053  17
  -3  -5  -3 20607.2 824.791   3
   3  -5   3 21998.9 752.066  16
  -3  -5  -4 19616.1 441.548  17
   3  -5   4 18890.7 508.217  20
   3  -5   4 18937.9 502.215  19
  -3  -5  -4 19101.6 789.546   3
   3  -5   4 18666.3 695.341  16
   3  -5   5 7003.81 289.603  20
   3  -5   5 7100.54 285.088  19
  -3  -5  -5 7198.08 242.867  17
   3  -5   6 3590.86 204.916  20
  -3  -5  -6 3540.82 150.343  11
  -3  -5  -6 3591.94 166.189  17
   3  -5   6 3566.02 200.080  19
   3  -5   7 1875.09 145.719  20
  -3  -5  -7 2167.02 113.176  11
   3  -5   7 2031.39 143.287  19
  -3  -5  -7 2169.22 127.614  17
   3  -5   8 5569.77 247.259  20
  -3  -5  -8 6054.20 190.313  11
   3  -5   8 6264.02 247.510  19
  -3  -5  -8 6090.86 214.752  17
   3  -5   9 5125.03 207.745  20
   3  -5   9 5307.15 209.722  19
  -3  -5  -9 5245.64 188.398  17
   3  -5  10 2067.45 108.442  20
   3  -5  10 1833.77 108.578  10
  -3  -5 -10 2036.89 102.705  17
  -3  -5 -11 5937.47 146.792  17
  -3  -5 -11 3207.60 99.4979   9
  -3  -4  13 850.765 70.7164  20
  -3  -4  12 2707.07 150.550  20
   3  -4 -11 9028.47 235.771  11
  -3  -4  11 10061.1 336.991  20
   3  -4 -10 3196.34 134.885  11
  -3  -4  10 2837.12 185.658  20
   3  -4  -9 2872.15 130.961  11
  -3  -4   9 2425.35 183.451  20
   3  -4  -9 2838.26 167.344  18
  -3  -4   8 20040.3 548.851  20
   3  -4  -8 21588.2 510.593  18
   3  -4  -8 20852.1 439.488  11
   3  -4  -7 50558.4 865.232  11
   3  -4  -7 54507.8 954.274  18
   3  -4  -7 52271.4 1198.71  16
  -3  -4   7 52963.2 1429.85  14
   3  -4  -6 5164.58 209.639  18
   3  -4  -6 5451.61 315.245  16
  -3  -4   6 4745.55 369.217  14
   3  -4  -5 12557.9 482.927  16
  -3  -4   5 12296.2 494.797   3
  -3  -4   5 11316.4 556.830  14
  -3  -4   4 32431.7 879.528   3
   3  -4  -4 30431.5 817.239  16
  -3  -4   4 31272.6 941.601  14
  -3  -4   3 37625.7 982.680   3
   3  -4  -3 37797.8 911.016  16
  -3  -4   3 35458.7 991.821  14
  -3  -4   2 19756.0 675.854   3
   3  -4  -2 20151.8 615.765  16
  -3  -4   2 19615.4 670.937  14
  -3  -4   1 13602.1 559.281   3
   3  -4  -1 14219.6 509.846  16
  -3  -4   1 13281.1 523.306  14
   3  -4   0 16496.4 560.446  16
  -3  -4   0 15327.6 557.842  14
  -3  -4  -1 8204.28 438.862   3
   3  -4   1 8329.65 388.456  16
  -3  -4  -2 5724.65 371.903   3
   3  -4   2 5954.67 329.196  16
   3  -4   3 22872.8 709.079  16
  -3  -4  -3 22839.8 798.102   3
   3  -4   3 22439.4 680.287  14
  -3  -4  -4 4846.04 354.788   3
   3  -4   4 4623.63 304.934  16
   3  -4   4 4476.50 302.571  14
   3  -4   5 10330.1 347.732  20
   3  -4   5 9696.27 330.006  19
  -3  -4  -5 9607.59 515.532   3
  -3  -4  -5 10287.0 289.564  17
   3  -4   5 9571.65 483.753  14
   3  -4   6 12207.9 392.959  20
  -3  -4  -6 12688.3 311.491  11
   3  -4   6 11529.0 375.306  19
  -3  -4  -6 12132.1 330.124  17
   3  -4   6 12829.2 540.870   2
   3  -4   6 11925.3 575.464  14
   3  -4   7 1801.06 143.408  20
  -3  -4  -7 1744.46 106.094  11
  -3  -4  -7 1780.38 118.456  17
   3  -4   7 1793.82 136.648  19
   3  -4   8 768.178 94.5052  20
   3  -4   8 830.142 95.6363  19
  -3  -4  -8 874.091 86.6198  17
  -3  -4  -8 781.555 71.5357  11
   3  -4   9 10357.1 328.876  19
  -3  -4  -9 10384.5 301.338  17
   3  -4   9 9921.35 330.499  20
   3  -4  10 1365.56 105.291  20
  -3  -4 -10 1411.83 99.8720  17
   3  -4  10 1636.31 111.983  19
   3  -4  11 78.2934 21.6904  20
   3  -4  11 123.073 31.2875  19
  -3  -4 -11 117.115 25.1450   9
  -3  -4 -11 176.005 34.0965  17
  -3  -4 -12 146.959 23.3357  17
  -3  -3  14 9553.59 249.768  20
  -3  -3  13 2568.86 145.945  20
  -3  -3  12 8325.75 303.030  20
   3  -3 -12 7685.11 223.746   9
  -3  -3  11 1911.84 153.346  20
   3  -3 -11 1816.36 108.374   9
   3  -3 -10 37287.4 661.306  11
   3  -3  -9 5975.63 248.040  18
   3  -3  -8 14618.6 397.875  18
   3  -3  -8 13601.6 517.862  16
  -3  -3   8 14085.1 672.011  14
   3  -3  -7 9086.39 403.324  16
  -3  -3   7 8836.34 502.668  14
  -3  -3   6 4813.52 352.148  14
   3  -3  -6 4837.28 274.628  16
  -3  -3   5 6889.86 319.559   3
   3  -3  -5 7063.76 322.925  16
  -3  -3   5 7017.62 406.997  14
   3  -3  -4 16234.7 505.335  16
  -3  -3   4 15121.0 516.571   3
  -3  -3   4 16067.2 602.451  14
  -3  -3   3 64008.8 1290.80   3
   3  -3  -3 65868.3 1232.86  16
  -3  -3   3 61824.7 1353.44  14
   3  -3  -2 115636. 1906.34  16
  -3  -3   2 110581. 2015.65  14
  -3  -3   2 114959. 1993.47   3
   3  -3  -1 78052.6 1395.15  16
  -3  -3   1 75198.1 1476.34   3
  -3  -3   0 89552.8 1698.11   3
   3  -3   0 92622.9 1601.39  16
   3  -3   0 91895.1 1423.08   2
   3  -3   1 860.687 102.434  16
  -3  -3  -1 892.925 125.840   3
  -3  -3  -2 3232.83 244.213   3
  -3  -3  -2 3074.55 187.064  13
   3  -3   2 3483.11 215.024  16
  -3  -3  -3 21118.7 693.046   3
   3  -3   3 23371.1 633.805  16
  -3  -3  -3 21873.8 619.843  13
   3  -3   3 21942.7 654.850  14
  -3  -3  -4 34799.1 946.993   3
   3  -3   4 34386.7 915.501  14
  -3  -3  -4 33810.9 876.208  13
  -3  -3  -5 4320.53 305.953   3
  -3  -3  -5 4056.18 288.990  13
   3  -3   5 3871.32 295.112  14
   3  -3   6 18188.7 468.875  19
  -3  -3  -6 19221.3 426.965  17
  -3  -3  -6 18240.0 693.325  13
   3  -3   6 18476.3 495.542  20
   3  -3   6 19287.2 657.018   2
   3  -3   6 18112.7 715.790  14
  -3  -3  -7 9381.90 263.771  11
   3  -3   7 8894.93 333.130  20
   3  -3   7 9098.75 315.800  19
  -3  -3  -7 9029.08 499.736  13
  -3  -3  -7 9179.98 304.890  21
  -3  -3  -7 9218.99 283.601  17
   3  -3   7 9408.03 524.451  14
   3  -3   7 10119.6 483.240   2
   3  -3   8 7813.90 308.970  20
  -3  -3  -8 8011.43 282.177  21
   3  -3   8 7890.14 293.851  19
  -3  -3  -8 8256.71 271.063  17
  -3  -3  -8 7334.01 238.515  11
   3  -3   9 799.742 96.1868  20
  -3  -3  -9 710.961 77.9165  17
  -3  -3  -9 746.448 80.9543  21
   3  -3   9 866.064 94.2005  19
   3  -3  10 1247.03 102.210  20
   3  -3  10 1252.09 104.868  19
  -3  -3 -10 1252.95 100.389  17
  -3  -3 -10 1313.98 99.2611  21
   3  -3  11 1368.56 98.6677  19
  -3  -3 -11 1361.12 87.6690   9
  -3  -3 -11 1375.26 96.4730  17
   3  -3  12 5022.45 165.002  19
  -3  -3 -12 4865.99 163.397  17
  -3  -2  14 1668.56 107.900  20
   3  -2 -14 1486.58 72.6954   9
   3  -2 -13 626.084 61.8869   7
   3  -2 -13 640.616 60.6736   9
   3  -2 -12 31148.4 601.027   9
   3  -2 -11 1959.92 121.005   9
   3  -2 -10 14251.6 358.916   9
   3  -2  -9 12047.3 363.042  18
   3  -2  -9 11676.7 479.392  16
  -3  -2   9 11984.1 610.263  14
   3  -2  -8 32487.2 843.455  16
  -3  -2   8 33921.7 1045.44  14
   3  -2  -7 7767.41 347.118  16
  -3  -2   7 6629.48 410.715  14
  -3  -2   6 2579.10 241.445  14
   3  -2  -6 2575.43 188.534  16
   3  -2  -5 2536.43 174.980  16
  -3  -2   5 2483.22 222.908  14
  -3  -2   4 109361. 1763.09   3
   3  -2  -4 104374. 1741.06  16
  -3  -2   4 103925. 1926.75  14
  -3  -2   3 22433.3 568.810   3
   3  -2  -3 22470.9 545.174  16
  -3  -2   3 21695.4 639.930  14
   3  -2  -3 21304.3 601.600   4
  -3  -2   2 58083.1 1099.16   3
   3  -2  -2 58824.2 1052.59  16
   3  -2  -2 56657.9 1125.62   4
  -3  -2   1 16601.2 479.493   3
   3  -2  -1 16127.1 427.750  16
   3  -2  -1 16233.4 475.018   4
   3  -2  -1 16319.4 325.774   2
  -3  -2   0 13071.2 425.216   3
   3  -2   0 13283.3 372.862  16
   3  -2   0 12443.6 394.374   4
   3  -2   0 13236.4 319.312   2
  -3  -2   0 12698.9 311.774  13
  -3  -2  -1 27329.0 678.223   3
   3  -2   1 27778.0 598.224  16
   3  -2   1 26150.0 604.912   4
   3  -2   1 27589.3 570.054   2
  -3  -2  -1 26635.0 571.943  13
   3  -2   2 23874.7 549.135  16
   3  -2   2 22343.5 522.173   4
   3  -2   2 24029.1 554.728   2
  -3  -2  -2 23990.8 574.364  13
  -3  -2  -3 5976.56 309.429   3
   3  -2   3 6819.93 259.769  16
   3  -2   3 6878.46 288.623   2
   3  -2   3 6944.25 330.113  14
  -3  -2  -3 6786.91 302.094  13
  -3  -2  -4 7973.23 370.836   3
   3  -2   4 7679.18 337.152   2
   3  -2   4 7671.76 379.252  14
  -3  -2  -4 7700.18 353.430  13
  -3  -2  -5 935.552 129.704  13
   3  -2   5 776.835 107.677   2
  -3  -2  -5 767.683 116.830   3
   3  -2   5 797.137 130.105  14
  -3  -2  -6 34030.0 910.351   3
   3  -2   6 33126.7 986.982  14
   3  -2   6 34977.0 917.634   2
  -3  -2  -6 34424.3 959.385  13
  -3  -2  -7 7502.60 276.299  21
  -3  -2  -7 7663.50 230.915  11
   3  -2   7 7673.06 270.371  19
  -3  -2  -7 7850.91 250.784  17
  -3  -2  -7 7844.04 449.796  13
   3  -2   7 8078.30 472.217  14
   3  -2   7 8017.92 421.722   2
   3  -2   8 6922.33 265.271  19
  -3  -2  -8 6888.03 247.169  17
  -3  -2  -8 6745.07 267.854  21
   3  -2   9 10721.7 342.187  19
  -3  -2  -9 11449.9 334.201  17
  -3  -2  -9 10840.2 349.281  21
   3  -2  10 31941.2 668.410  19
  -3  -2 -10 31095.4 649.785  17
  -3  -2 -10 30767.7 667.139  21
   3  -2  11 8724.04 278.395  19
  -3  -2 -11 8649.84 275.931  17
  -3  -2 -11 8594.76 272.988  21
  -3  -2 -11 9220.52 252.133   9
  -3  -2 -12 1049.23 80.1944  17
  -3  -2 -12 1146.46 69.6587   9
  -3  -2 -12 1208.32 78.7691  21
   3  -2  12 1181.63 82.7987  19
   3  -2  13 40.4384 20.0920  19
  -3  -1  15 184.137 34.3196  20
   3  -1 -14 1381.71 86.1627   7
  -3  -1  14 1407.83 105.797  20
   3  -1 -14 1231.38 76.4568   9
   3  -1 -13 5200.96 208.143   7
   3  -1 -13 5219.10 189.561   9
   3  -1 -12 474.192 59.8450   9
   3  -1 -11 764.875 78.0587   9
   3  -1 -10 43569.6 793.477   9
  -3  -1  10 42352.9 1212.53  14
  -3  -1   9 7202.49 444.012  14
   3  -1  -8 14203.2 500.182  16
  -3  -1   8 13932.2 599.323  14
   3  -1  -7 11233.0 412.972  16
  -3  -1   7 10663.8 492.802  14
   3  -1  -6 72.8203 37.0538  16
  -3  -1   6 12.5912 36.4641  14
   3  -1  -5 23018.7 569.283  16
  -3  -1   5 23121.4 683.041  14
   3  -1  -5 21907.3 609.762   4
  -3  -1   4 19493.1 448.508   3
   3  -1  -4 18376.8 477.285  16
  -3  -1   4 18939.8 578.973  14
   3  -1  -4 19107.8 536.272   4
  -3  -1   3 57089.0 994.609   3
   3  -1  -3 56234.6 1000.91  16
   3  -1  -3 56927.9 1083.64   4
  -3  -1   3 57179.6 905.511  13
  -3  -1   2 85818.3 1391.01   3
   3  -1  -2 83748.5 1258.48   2
   3  -1  -2 87125.5 1375.64  16
   3  -1  -2 86540.7 1457.36   4
  -3  -1   2 88685.5 1289.91  13
   3  -1  -1 19131.9 392.663   2
  -3  -1   1 19646.3 475.972   3
   3  -1  -1 19847.8 436.673  16
   3  -1  -1 20378.7 497.452   4
  -3  -1   1 20480.1 409.148  13
  -3  -1   0 51130.0 937.876   3
   3  -1   0 50502.9 854.415  16
  -3  -1   0 51257.4 865.550  13
   3  -1   0 51418.0 926.813   4
   3  -1   0 49625.4 848.197   2
  -3  -1  -1 9074.34 320.555   3
   3  -1   1 9727.56 254.084  16
  -3  -1  -1 9749.57 293.087  13
   3  -1   1 9899.21 288.927   2
  -3  -1  -2 47314.5 957.541   3
   3  -1   2 50366.7 814.672  16
   3  -1   2 52997.5 941.969   2
   3  -1   2 46483.3 873.098   4
  -3  -1  -2 51823.0 943.583  13
  -3  -1  -3 16528.3 488.016   3
   3  -1   3 16585.1 516.363  14
   3  -1   3 16926.4 472.990   2
   3  -1   3 16521.0 392.110   4
  -3  -1  -3 16287.7 476.125  13
  -3  -1  -4 43127.7 934.936   3
   3  -1   4 42079.7 998.853  14
   3  -1   4 44846.3 940.782   2
  -3  -1  -4 42794.4 945.942  13
  -3  -1  -5 19578.5 581.077   3
   3  -1   5 17699.8 627.642  14
   3  -1   5 18932.4 584.005   2
  -3  -1  -5 18665.1 601.757  13
  -3  -1  -6 11988.2 459.678   3
   3  -1   6 12026.5 535.839  14
   3  -1   6 12381.9 491.621   2
  -3  -1  -6 12043.9 512.729  13
  -3  -1  -7 21734.1 521.119  21
   3  -1   7 21009.9 483.357  19
  -3  -1  -7 22093.8 475.481  17
   3  -1   7 22058.5 792.832  14
   3  -1   7 22162.2 721.237   2
  -3  -1  -7 21191.9 750.099  13
  -3  -1  -8 57636.1 1002.38  17
  -3  -1  -8 58273.3 1062.57  21
   3  -1   8 57116.7 1016.84  19
  -3  -1  -8 55213.3 1410.68  13
   3  -1   8 58541.3 1365.28   2
   3  -1   9 18918.1 476.344  19
  -3  -1  -9 19246.2 477.121  17
  -3  -1  -9 19564.4 512.520  21
   3  -1  10 4284.61 196.647  19
  -3  -1 -10 4073.95 194.112  17
  -3  -1 -10 4526.34 180.373   9
  -3  -1 -10 4178.67 209.686  21
  -3  -1 -11 4382.11 202.527  21
   3  -1  11 4274.71 186.664  19
  -3  -1 -11 4398.01 192.779  17
  -3  -1 -11 4467.17 170.549   9
  -3  -1 -12 14254.7 347.210  21
   3  -1  12 14443.0 339.934  19
  -3  -1 -12 13337.5 300.532   9
   3  -1  12 13150.4 317.379   8
  -3  -1 -13 2906.13 107.360  21
   3  -1  13 3029.49 114.472  19
   3   0 -15 3458.28 115.362   7
  -3   0  15 3140.62 126.896  20
   3   0 -14 276.628 40.7252   9
   3   0 -14 233.678 41.5962   7
   3   0 -13 6814.22 253.699   7
   3   0 -13 7257.47 235.644   9
   3   0 -12 6617.69 239.535   9
   3   0 -11 1784.18 123.985   9
   3   0 -11 1878.35 118.739   5
   3   0 -10 3465.40 164.554   9
   3   0 -10 2886.85 273.823   1
   3   0 -10 3114.91 154.109   5
   3   0  -9 5356.15 200.110   9
   3   0  -9 5163.70 200.268   5
   3   0  -9 5371.67 340.018   1
   3   0  -8 2052.10 189.595   1
  -3   0   8 2175.58 212.083  14
   3   0  -7 824.697 115.954   1
  -3   0   7 974.388 134.393  14
   3   0  -6 2199.32 165.840  16
  -3   0   6 2435.98 200.087  14
   3   0  -6 2058.87 165.430   4
   3   0  -6 2160.84 161.403   1
   3   0  -5 6571.22 269.896  16
  -3   0   5 6206.59 304.882  14
   3   0  -5 6283.86 252.749   1
   3   0  -5 6029.74 270.324   4
  -3   0   4 13252.9 305.516   3
   3   0  -4 13327.8 383.595  16
   3   0  -4 13236.6 345.458   1
  -3   0   4 13897.2 447.202  14
   3   0  -4 13345.4 401.184   4
   3   0  -3 64.1876 38.0284   4
   3   0  -3 60.5146 33.1875  16
  -3   0   3 116.554 26.7271   3
   3   0  -3 64.4743 24.2290   1
   3   0  -2 32793.7 616.591   2
   3   0  -2 33676.8 632.406  16
   3   0  -2 31612.1 521.914   1
   3   0  -2 33790.1 675.140   4
   3   0  -1 16168.3 379.779   2
   3   0  -1 16287.4 364.129  16
   3   0  -1 16520.9 408.546   4
  -3   0   1 16446.6 397.808  13
   3   0   0 54454.9 932.918   2
   3   0   0 53091.3 863.007  16
   3   0   0 56883.3 953.232   4
  -3   0   0 55509.1 951.450  13
   3   0   1 317886. 4425.08   2
  -3   0  -1 320975. 4437.75  13
   3   0   1 326815. 4392.88   4
  -3   0  -2 53013.1 997.333  13
   3   0   2 55468.4 1001.67   2
   3   0   2 54563.3 930.827   4
   3   0   3 1441.27 128.276   2
  -3   0  -3 1368.65 122.566  13
   3   0   3 1371.12 95.6906   4
   3   0   4 930.178 112.059   2
  -3   0  -4 1091.88 121.430  13
  -3   0  -5 12953.5 449.604   3
   3   0   5 13596.3 481.174   2
  -3   0  -5 12770.3 472.395  13
   3   0   6 27187.2 770.465   2
  -3   0  -6 27201.7 714.308   3
  -3   0  -6 26494.7 782.228  13
  -3   0  -7 10886.6 339.868  21
   3   0   7 11452.2 495.384   2
  -3   0  -7 10639.2 504.553  13
  -3   0  -8 3215.22 183.052  21
  -3   0  -8 3228.70 162.721  17
   3   0   8 3188.62 268.781   2
   3   0   8 2894.29 151.057  19
  -3   0  -8 3116.95 284.574  13
   3   0   9 16779.7 423.081  19
  -3   0  -9 16742.9 400.184   9
  -3   0  -9 16405.8 433.441  17
  -3   0  -9 16641.4 465.504  21
   3   0  10 9448.07 298.957  19
  -3   0 -10 8918.70 304.226  17
  -3   0 -10 9537.17 279.869   9
  -3   0 -10 9582.92 334.925  21
  -3   0 -11 8517.13 296.706  21
   3   0  11 8314.86 269.551  19
  -3   0 -11 7812.42 269.786  17
  -3   0 -11 8227.78 246.068   9
  -3   0 -12 41.4589 28.0348  21
   3   0  12 33.8209 25.1811  19
  -3   0 -12 67.3320 24.0497   9
   3   0  12 43.8136 28.5931   8
  -3   0 -13 874.873 64.9492  21
   3   0  13 991.681 67.1703  19
  -3   1  15 233.018 35.5440  20
   3   1 -15 353.139 36.8092   7
   3   1 -14 1350.85 91.3252   7
   3   1 -14 1113.48 79.9419   9
   3   1 -13 5271.77 196.477  21
   3   1 -13 5276.20 220.916   7
   3   1 -13 5039.62 197.471   9
   3   1 -13 5646.02 182.507   5
   3   1 -12 415.327 61.6654  21
   3   1 -12 523.714 68.8655   9
   3   1 -12 499.129 60.0070   5
   3   1 -11 551.329 74.7659  21
   3   1 -11 574.654 76.9609   9
   3   1 -11 603.276 73.1792   5
   3   1 -10 40661.3 783.592   9
   3   1 -10 41462.1 824.388  21
   3   1 -10 39061.3 777.032   5
   3   1 -10 43041.7 1124.92   1
   3   1  -9 6749.44 264.648  21
   3   1  -9 6576.84 374.152   1
   3   1  -9 6888.89 243.378   9
  -3   1   9 6664.97 380.209  15
  -3   1   8 12782.0 507.875  15
   3   1  -8 14152.2 517.877   1
   3   1  -7 10823.3 407.836   1
  -3   1   7 9662.71 409.055  15
   3   1  -6 250.117 63.5230   4
   3   1  -6 243.053 63.5864   1
  -3   1   6 55.6415 28.4926  14
  -3   1   5 20826.3 547.482  14
   3   1  -5 20117.7 507.408   1
   3   1  -5 19425.4 507.837   4
   3   1  -4 16254.7 403.725   1
  -3   1   4 16840.3 462.463  14
   3   1  -4 16417.4 434.791   4
   3   1  -3 57362.4 932.321   1
   3   1  -3 55761.7 1001.98   4
  -3   1   3 57693.0 965.230  15
   3   1  -2 81187.4 1205.45   1
   3   1  -2 82725.1 1319.24   4
  -3   1   2 78462.6 1234.74  15
   3   1  -2 81196.7 1334.81   2
   3   1  -1 15593.8 392.628   4
   3   1  -1 15152.8 412.297   2
  -3   1   1 15954.6 312.061  15
  -3   1   1 15529.7 433.208  13
   3   1  -1 15585.0 304.516   1
   3   1   0 46762.6 848.935   4
   3   1   0 48123.7 894.705   2
  -3   1   0 48238.0 917.465  13
   3   1   1 9746.78 291.514   4
   3   1   1 9804.19 329.804   2
  -3   1  -1 10019.8 333.677  13
   3   1   2 50234.2 968.955   2
  -3   1  -2 48805.4 962.236  13
   3   1   3 16275.0 487.796   2
  -3   1  -3 15818.0 475.330  13
   3   1   4 48372.0 1024.06   2
  -3   1  -4 46051.6 996.878  13
   3   1   5 19024.6 607.561   2
  -3   1  -5 18768.4 588.507  13
   3   1   6 11645.6 483.010   2
  -3   1  -6 10300.6 458.455  13
  -3   1  -7 23517.0 552.906  21
   3   1   7 23353.5 494.155  19
   3   1   7 24304.1 774.492   2
  -3   1  -7 23372.0 517.515  17
   3   1   7 23999.5 489.907  22
  -3   1  -7 23124.0 767.648  13
  -3   1  -8 60229.4 1097.29  21
   3   1   8 62612.8 1426.08   2
   3   1   8 59584.9 1016.35  19
  -3   1  -8 60576.2 1082.51  12
  -3   1  -8 59349.1 1051.51  17
   3   1   8 57388.7 995.017  22
  -3   1  -8 60172.7 1445.16  13
   3   1   9 19152.7 447.924  19
  -3   1  -9 17988.7 463.744  17
  -3   1  -9 18223.3 497.882  21
  -3   1 -10 4398.46 219.961  21
   3   1  10 4560.23 194.088  19
  -3   1 -11 5481.00 232.915  21
   3   1  11 5408.91 206.958  19
   3   1  12 14007.0 331.735  19
   3   1  12 13634.9 363.041   8
  -3   1 -12 14077.9 360.947  21
   3   1  13 2631.68 106.363  19
   3   1  13 2699.54 112.085   8
  -3   1 -13 2721.49 115.478  21
   3   2 -14 1577.38 84.5104  21
   3   2 -14 1592.24 94.6054   7
   3   2 -14 1638.32 76.7842   5
   3   2 -13 754.885 77.3393   7
   3   2 -13 663.091 71.3891   9
   3   2 -13 652.514 63.1938   5
   3   2 -13 668.077 70.0546  21
   3   2 -12 30754.1 660.377  21
   3   2 -12 31943.8 682.169   7
   3   2 -12 31976.4 657.508   9
   3   2 -12 31916.9 631.127   5
   3   2 -11 1130.58 110.472  21
   3   2 -11 1200.94 105.997   9
   3   2 -11 1231.89 104.111   5
   3   2 -10 12564.9 395.875  21
   3   2 -10 13438.6 386.931   9
   3   2  -9 10809.9 357.410  21
   3   2  -9 10995.8 337.416   9
   3   2  -9 11342.6 499.742   1
  -3   2   9 10688.5 528.126  15
   3   2  -8 31811.3 850.889   1
  -3   2   8 30564.8 904.838  15
  -3   2   7 6224.97 348.272  15
   3   2  -7 7453.91 347.094   1
  -3   2   6 1784.70 173.709  15
   3   2  -6 1915.96 158.868   1
   3   2  -6 1873.81 145.078   4
   3   2  -5 2361.64 158.935   1
  -3   2   5 2366.93 178.556  15
   3   2  -5 2272.92 153.862   4
   3   2  -4 100863. 1625.30   1
   3   2  -4 101581. 1639.04   4
  -3   2   4 103056. 1706.79  15
   3   2  -3 18826.3 445.383   1
   3   2  -3 18697.7 463.143   4
  -3   2   3 18236.6 476.957  15
   3   2  -2 53214.0 971.441   4
  -3   2   2 55204.8 960.634  15
   3   2  -2 53758.4 926.746   1
   3   2  -1 15981.9 468.784   2
  -3   2   1 16712.9 380.574  15
   3   2   0 11633.9 392.046   2
  -3   2   0 12003.9 271.816  15
   3   2   0 11774.0 309.176  15
  -3   2   0 12270.2 410.580  13
   3   2   1 23833.3 623.960   2
   3   2   1 24751.0 509.047  15
  -3   2  -1 24749.6 624.534  13
   3   2   2 23837.2 632.757   2
   3   2   2 23929.3 512.917  15
  -3   2  -2 24011.4 626.744  13
   3   2   3 6397.52 316.367   2
  -3   2  -3 7292.54 322.195  13
   3   2   4 7090.87 346.973   2
  -3   2  -4 6767.85 325.606  13
   3   2   5 1504.83 169.092   2
  -3   2  -5 1666.30 170.047  13
   3   2   6 35243.5 953.970   2
  -3   2  -6 33208.3 905.110  13
  -3   2  -7 7963.52 290.225  21
   3   2   7 8116.55 440.242   2
   3   2   7 8042.04 248.850  19
   3   2   7 8382.18 253.312   6
  -3   2  -7 8381.72 436.163  13
   3   2   7 8316.85 250.046  22
   3   2   8 6587.71 406.635   2
   3   2   8 6103.01 222.721  19
   3   2   8 6375.00 221.121  22
  -3   2  -8 6280.79 265.352  21
  -3   2  -8 6545.67 266.683  12
  -3   2  -9 12230.4 378.864  12
   3   2   9 12779.2 341.535  19
   3   2   9 12481.2 326.779  22
  -3   2  -9 12162.5 388.977  21
  -3   2 -10 32669.8 708.335  21
  -3   2 -10 32764.3 673.178  12
   3   2  10 33192.3 645.866  19
  -3   2 -11 8040.45 278.196  21
   3   2  11 7821.91 243.010  19
  -3   2 -12 1142.07 88.5331  21
   3   2  12 1165.30 78.6316  19
   3   2  12 1118.85 88.0900   8
  -3   2 -13 35.3706 16.1220  21
   3   2  13 22.7466 18.3794  19
   3   2  13 7.71053 14.1776   8
   3   3 -14 10550.0 223.944   5
   3   3 -14 10536.9 244.869   7
   3   3 -13 3302.23 149.674   7
   3   3 -13 3195.08 135.049   5
   3   3 -13 3278.63 149.192  21
   3   3 -12 8092.86 275.562   7
   3   3 -12 7734.05 269.019   9
   3   3 -12 7898.94 274.579  21
   3   3 -12 7675.14 252.009   5
   3   3 -11 1929.07 115.766  12
   3   3 -11 2065.11 145.434  21
   3   3 -11 2029.61 140.272   9
   3   3 -11 1916.81 138.327   7
   3   3 -11 1935.72 127.978   5
   3   3 -10 35444.5 695.969  12
   3   3 -10 33987.8 751.372  21
   3   3 -10 35609.2 757.999   7
   3   3 -10 36159.7 759.766   9
   3   3  -9 4604.11 202.645  12
   3   3  -9 4600.24 227.352  21
   3   3  -9 4679.74 220.767   9
   3   3  -9 4483.56 223.225   7
   3   3  -8 11813.3 378.261  21
   3   3  -8 11941.4 365.417   9
  -3   3   8 10678.9 542.611  15
   3   3  -8 12172.8 351.905  12
   3   3  -8 12452.7 514.640   1
   3   3  -8 12219.4 375.391   7
  -3   3   7 8177.07 438.997  15
   3   3  -7 8033.95 382.092   1
   3   3  -6 4304.31 252.859   1
  -3   3   6 4630.06 306.328  15
   3   3  -5 7955.18 327.010   1
   3   3  -5 7649.98 295.853   4
  -3   3   5 7992.93 381.532  15
   3   3  -4 15273.5 455.388   1
  -3   3   4 15150.0 508.309  15
   3   3  -4 14781.0 428.669   4
   3   3  -3 60983.2 1128.03   4
  -3   3   3 64208.6 1214.67  15
   3   3  -3 63020.8 1153.19   1
  -3   3   2 108341. 1782.87  15
  -3   3   1 75894.9 1302.27  15
   3   3  -1 75899.5 1319.56  15
   3   3   0 86823.3 1619.97   2
  -3   3   0 91621.7 1452.55  15
   3   3   0 89457.3 1509.00  15
  -3   3   0 92372.5 1669.67  13
   3   3   1 921.172 96.8860  15
   3   3   1 949.738 125.535   2
  -3   3  -1 995.298 123.192  13
   3   3   2 4432.14 270.975   2
   3   3   2 3984.81 213.306  15
  -3   3  -2 4420.71 258.464  13
   3   3   3 24255.6 718.399   2
   3   3   3 24124.0 616.811  15
  -3   3  -3 24438.1 685.418  13
   3   3   4 35788.9 956.274   2
  -3   3  -4 36483.1 897.260  13
   3   3   5 3515.60 278.090   2
  -3   3  -5 3717.71 260.342  13
   3   3   6 19198.8 419.367   6
   3   3   6 17948.6 408.434  19
   3   3   6 17967.1 416.268  22
  -3   3  -6 18470.0 468.334  21
   3   3   6 19690.8 478.134   7
  -3   3  -6 17254.1 631.968  13
   3   3   6 17683.3 686.268   2
  -3   3  -7 8047.56 294.799  21
   3   3   7 7980.77 252.559  19
   3   3   7 8217.58 463.915   2
   3   3   7 8106.80 254.667  22
  -3   3  -7 7574.35 422.341  13
  -3   3  -7 8222.68 311.295  12
  -3   3  -8 7134.55 283.921  21
  -3   3  -8 7919.01 302.570  12
   3   3   8 8044.79 250.360  22
   3   3   8 7594.09 250.717  19
  -3   3  -9 1042.43 104.439  21
  -3   3  -9 936.323 99.6589  12
   3   3   9 970.652 85.0555  19
   3   3   9 970.951 84.5345  22
  -3   3 -10 1454.76 115.335  21
   3   3  10 1374.33 94.9820  19
  -3   3 -10 1383.30 106.841  12
   3   3  10 1392.91 90.3716  22
  -3   3 -11 1996.55 121.960  21
  -3   3 -11 1833.13 104.205  12
   3   3  11 1936.70 106.134  19
   3   3  11 1840.37 122.218   8
  -3   3 -12 5959.33 187.368  21
   3   3  12 6022.51 174.045  19
   3   3  12 6203.04 188.706   8
   3   4 -13 628.396 53.3756   5
   3   4 -13 730.723 57.3828   7
   3   4 -12 2136.99 129.621  21
   3   4 -12 2187.94 121.039   7
   3   4 -12 2203.98 103.490  12
   3   4 -12 2182.35 115.180   5
   3   4 -11 10460.2 291.348  12
   3   4 -11 10598.4 320.854   7
   3   4 -11 10223.8 328.794  21
   3   4 -11 10166.3 305.083   5
   3   4 -10 3346.99 180.175   7
   3   4 -10 3431.99 170.458  12
   3   4 -10 3384.73 190.986  21
   3   4  -9 2779.43 178.224  21
   3   4  -9 2844.19 171.978   7
   3   4  -9 3113.64 169.908  12
   3   4  -8 22369.8 529.587  12
   3   4  -8 21633.3 535.362   7
   3   4  -7 50902.4 994.530  21
   3   4  -7 53824.6 979.077  12
   3   4  -7 53052.8 983.647   7
   3   4  -7 54257.4 1226.92   1
  -3   4   7 52001.8 1349.99  15
   3   4  -6 3752.15 192.537  21
   3   4  -6 3791.39 194.537  12
   3   4  -6 3907.08 264.215   1
  -3   4   6 3901.95 306.261  15
   3   4  -5 12594.7 464.767   1
  -3   4   5 11282.5 505.499  15
   3   4  -4 30083.2 719.006   4
  -3   4   4 30407.9 843.042  15
   3   4  -3 35886.8 809.784   4
  -3   4   3 37001.3 905.891  15
   3   4  -3 38202.0 870.695   1
  -3   4   2 18123.5 561.915  15
  -3   4   1 13955.3 458.352  15
   3   4  -1 14539.0 482.974  15
   3   4   0 16820.5 524.811  15
  -3   4   0 17183.5 599.789  13
   3   4   1 8058.58 394.238   2
   3   4   1 7945.87 347.274  15
  -3   4  -1 7597.38 375.522  13
   3   4   2 4310.47 291.619   2
   3   4   2 4138.15 251.761  15
  -3   4  -2 4172.56 269.432  13
   3   4   3 21868.0 729.683   2
   3   4   3 22122.6 651.959  15
  -3   4  -3 22059.2 680.950  13
   3   4   4 4586.05 324.975   2
  -3   4  -4 4636.59 293.710  13
   3   4   5 8926.36 253.759  19
  -3   4  -5 8499.62 317.074  12
   3   4   5 8483.39 464.269   2
   3   4   5 9298.80 293.887   7
   3   4   5 8285.45 262.710  22
  -3   4  -5 8666.70 419.173  13
   3   4   6 11258.3 304.854  19
  -3   4  -6 11693.9 384.689  12
   3   4   6 11292.5 314.778  22
   3   4   6 12030.3 350.166   7
  -3   4  -6 10998.0 496.916  13
  -3   4  -7 1777.52 129.463  21
   3   4   7 1720.05 113.531  22
   3   4   7 1853.81 116.365  19
  -3   4  -7 1823.54 142.977  12
  -3   4  -8 690.659 90.6763  12
   3   4   8 712.360 74.4872  19
  -3   4  -8 753.280 86.4920  21
   3   4   8 727.724 72.8351  22
  -3   4  -9 9322.56 303.019  21
   3   4   9 9625.41 271.452  19
   3   4   9 8850.91 304.017   8
  -3   4  -9 9712.79 322.852  12
   3   4   9 9616.10 265.872  22
  -3   4 -10 1918.38 117.317  21
   3   4  10 1839.82 102.910  19
   3   4  10 1798.82 130.827   8
   3   4  10 1663.46 94.0849  22
  -3   4 -10 1935.06 119.282  12
  -3   4 -11-9.15049 16.6653  21
  -3   4 -11 40.0777 19.0144  12
   3   4  11 17.1888 18.0932  19
   3   4  11-9.61741 21.5917   8
   3   4  12 143.709 22.1301  19
   3   5 -13 5525.80 136.748   5
   3   5 -12 9262.70 228.667   5
   3   5 -12 8838.96 211.584  12
   3   5 -11 1733.60 114.555  21
   3   5 -11 1726.67 103.645   5
   3   5 -11 1735.61 100.387  12
   3   5 -10 6536.50 230.635  12
   3   5 -10 6259.12 247.959  21
   3   5 -10 6444.78 227.539   7
   3   5 -10 6343.90 224.799   5
   3   5  -9 23587.8 534.488  12
   3   5  -9 22655.8 557.191  21
   3   5  -9 22507.2 512.918   5
   3   5  -9 23727.1 530.424   7
   3   5  -8 10336.4 353.800  21
   3   5  -8 10671.9 336.655  12
   3   5  -7 20002.8 526.317  21
   3   5  -7 20821.9 511.711  12
   3   5  -6 19067.6 501.473  21
   3   5  -6 19615.7 668.862   1
  -3   5   6 19905.8 761.757  15
   3   5  -6 19087.2 486.151  12
   3   5  -5 34138.5 709.428  12
   3   5  -5 35588.7 926.159   1
  -3   5   5 34437.8 1015.26  15
   3   5  -4 7357.59 263.301  12
  -3   5   4 6737.56 393.202  15
   3   5  -3 179.412 58.5299   4
   3   5  -3 215.205 43.1950  12
  -3   5   3 143.290 59.2850  15
   3   5  -3 180.688 69.1146   1
  -3   5   2 15365.9 557.546  15
  -3   5   1 6587.70 391.720  13
   3   5   0 13473.2 514.576  15
  -3   5   0 13144.5 550.804  13
   3   5   1 9939.88 439.712  15
  -3   5  -1 10075.8 460.342  13
  -3   5  -2 3277.56 185.902  12
   3   5   2 3018.84 240.454  15
   3   5   2 3463.63 150.495  22
  -3   5  -2 3298.54 255.390  13
   3   5   2 3243.26 145.276   6
  -3   5  -3 18412.5 496.931  12
   3   5   3 18984.9 417.028   6
   3   5   3 19591.2 433.395  22
   3   5   3 19092.6 653.778  15
  -3   5  -3 18648.6 644.923  13
  -3   5  -4 19151.6 526.335  12
   3   5   4 19579.9 737.721   2
  -3   5  -5 6657.39 282.151  12
   3   5   5 6284.89 229.280  22
  -3   5  -6 3030.68 188.384  12
   3   5   6 2992.81 155.461  22
   3   5   6 3127.44 146.062  19
  -3   5  -7 1341.99 125.074  12
   3   5   7 1296.55 90.7119  19
   3   5   7 1398.24 99.3336  22
  -3   5  -8 5068.00 224.625  12
   3   5   8 4930.60 178.860  19
   3   5   8 4656.91 174.966  22
  -3   5  -9 4659.14 196.713  12
   3   5   9 4597.77 163.120  19
   3   5   9 4586.49 158.886  22
   3   5  10 2068.16 93.8873  19
  -3   5 -10 2082.70 109.542  12
   3   5  10 1932.40 85.0206  22
  -3   5 -11 5858.01 152.833  12
   3   5  11 6030.81 150.017  19
   3   6 -11 1698.08 80.0380   5
   3   6 -11 1553.27 81.4454  12
   3   6 -10 26.5792 22.3359  12
   3   6 -10 13.8943 23.4078   5
   3   6  -9 1661.98 108.400  12
   3   6  -9 1596.47 99.5410   5
   3   6  -8 6477.34 242.323  12
   3   6  -8 6286.63 214.159   5
   3   6  -7 3279.62 170.679  12
   3   6  -7 2957.52 146.397   5
   3   6  -6 3058.88 169.084  12
   3   6  -5 1238.81 107.035  12
   3   6  -4 8012.66 279.916  12
   3   6  -3 2742.98 154.602  12
   3   6  -2 23139.5 743.962   1
   3   6  -2 23401.0 476.849  22
   3   6  -2 21952.2 500.499  12
  -3   6   1 15632.4 644.768  13
   3   6  -1 17127.8 390.638  22
   3   6   0 16169.7 382.778  22
   3   6   0 16261.1 620.249  15
  -3   6   0 15465.7 618.776  13
   3   6   1 11354.5 512.616  15
   3   6   1 12115.7 315.451  22
   3   6   1 10784.4 301.943   6
   3   6   2 47161.1 818.159  22
   3   6   2 44530.5 790.656   6
  -3   6  -3 1173.45 115.288  12
   3   6   3 1316.68 97.4294  22
  -3   6  -4 26742.7 637.088  12
   3   6   4 28174.6 568.404  22
   3   6   5 1027.21 80.5357  19
  -3   6  -5 1152.58 110.462  12
   3   6   5 886.944 80.6575  22
   3   6   6 9276.38 254.933  19
   3   6   6 8803.91 266.857  22
  -3   6  -7 1137.58 101.812  12
   3   6   7 980.337 72.3859  19
   3   6   7 907.160 75.0513  22
   3   6   8 970.894 67.5161  19
  -3   6  -8 1033.95 88.0267  12
   3   6   8 1027.17 72.0211  22
   3   6   9 246.465 31.2926  22
  -3   6  -9 278.035 40.7912  12
   3   6   9 251.627 34.4870  19
  -3   6 -10 2801.30 99.5894  12
   3   6  10 2668.59 85.4107  19
   3   7 -10 922.909 55.6426  12
   3   7  -9 3600.46 136.234  12
   3   7  -8 3318.60 144.366  12
   3   7  -7 1368.85 99.8104  12
   3   7  -6 8277.92 263.417  12
   3   7  -5 3741.69 172.204  12
   3   7  -4 11029.0 316.425  12
  -3   7   3 3263.27 139.878  22
   3   7  -3 3230.08 135.937  22
   3   7  -3 2921.64 149.522  12
   3   7  -2 10354.9 276.504  22
  -3   7   2 9797.36 278.381  22
  -3   7   1 3822.55 168.922  22
   3   7  -1 3629.30 161.044   6
   3   7  -1 4104.93 164.598  22
   3   7   0 18671.6 421.614   6
   3   7   0 20196.5 433.919  22
   3   7   1 7724.73 240.268  22
   3   7   2 33822.1 636.739  22
   3   7   3 2890.17 140.446  22
  -3   7  -4 16089.6 411.989  12
   3   7   4 17760.5 396.096  22
   3   7   5 6798.61 218.735  22
   3   7   5 7344.97 203.285  19
  -3   7  -5 7531.13 251.398  12
   3   7   6 25.4535 19.3533  22
  -3   7  -6 83.0632 31.9571  12
   3   7   6 63.0981 20.1295  19
  -3   7  -7 1562.14 92.7855  12
   3   7   7 1327.25 68.1359  19
   3   7   7 1389.70 76.1573  22
   3   7   8 9939.50 202.709  19
  -3   7  -8 10363.9 237.073  12
   3   7   8 9930.87 207.487  22
   3   8  -8 706.764 45.0600  12
   3   8  -7 1854.71 85.6266  12
   3   8  -6 3400.67 127.987  12
   3   8  -5 1110.25 73.4345  12
   3   8  -3 2231.28 95.4473  22
   3   8  -3 2229.58 111.245   6
  -3   8   3 2308.59 97.6955  22
   3   8  -2 1889.06 100.895   6
   3   8  -2 1857.49 92.9661  22
  -3   8   2 1846.61 93.4690  22
   3   8  -1 2739.85 115.287   6
   3   8  -1 2695.89 118.370  22
  -3   8   1 2600.15 118.458  22
   3   8   0 3358.92 136.840  22
  -3   8   0 3368.47 142.596  22
  -3   8  -1 2805.08 130.231  22
   3   8   1 2826.01 124.610  22
   3   8   2 14964.2 329.874  22
  -3   8  -2 14433.0 345.144  22
   3   8   3 107.071 32.1919  22
  -3   8  -3 126.467 32.6633  22
  -3   8  -4 4212.52 153.318  22
   3   8   4 4641.10 152.443  22
  -3   8  -5 1988.41 91.9307  22
   3   8   5 1756.46 83.4021  22
  -3   8  -6 15140.6 289.780  22
   3   8   6 15064.5 280.036  22
  -3   9   2 2975.45 85.8394  22
  -3   9   1 2903.09 91.7169  22
   3   9  -1 2781.91 91.2540  22
   3   9   0 1498.69 69.2174  22
  -3   9   0 1775.16 72.4505  22
   3   9   1 801.678 50.1824  22
  -3   9  -1 919.211 52.1401  22
   3   9   2 9370.21 198.165  22
  -3   9  -2 9152.65 196.570  22
   3   9   3 11521.3 215.307  22
  -3   9  -3 10804.2 213.538  22
  -4  -9   2 1245.90 52.3083  17
  -4  -9   1 8293.36 169.949  17
  -4  -9   0 4523.50 111.877  17
  -4  -8   7 13251.5 239.619  17
  -4  -8   6 8916.51 197.166  17
   4  -8  -5 823.277 47.5807  11
  -4  -8   5 974.345 59.6460  17
   4  -8  -4 2470.10 90.3573  11
  -4  -8   4 2473.42 102.969  17
   4  -8  -3 10269.2 229.728  11
  -4  -8   3 10709.6 250.976  17
   4  -8  -2 3055.30 112.591  11
   4  -8  -2 3240.51 134.271  10
   4  -8  -2 3513.03 138.752  20
  -4  -8   2 3363.89 126.960  17
   4  -8  -1 446.187 49.1399  20
   4  -8  -1 431.586 50.0967  10
  -4  -8   1 409.868 45.0753  17
   4  -8   0 3784.13 149.206  20
   4  -8   0 3925.05 154.885  10
  -4  -8   0 3791.73 135.989  17
   4  -8   1 2242.39 112.494  20
   4  -8   1 2309.07 115.659  10
  -4  -8  -1 2155.00 98.8324  17
   4  -8   2 2304.61 113.582  10
  -4  -8  -2 2329.53 99.5168  17
   4  -8   2 2390.87 113.574  20
   4  -8   3 3484.13 132.806  20
   4  -8   3 3494.57 135.889  10
  -4  -8  -3 3435.81 117.924  17
   4  -8   4 193.706 28.8823  20
   4  -8   4 183.501 29.1444  10
  -4  -8  -4 191.197 27.4439  17
   4  -8   5 41.3756 14.1206  10
  -4  -8  -5 43.1971 18.6695  17
  -4  -7   9 4989.73 124.829  17
  -4  -7   8 1906.47 86.5085  17
  -4  -7   7 1009.32 68.7191  17
   4  -7  -6 5789.24 168.045  11
  -4  -7   6 6215.19 192.747  17
   4  -7  -5 8575.34 221.663  11
  -4  -7   5 8731.44 246.404  17
   4  -7  -4 4967.26 192.247  20
   4  -7  -4 4567.02 157.512  11
   4  -7  -4 4769.53 180.217  10
  -4  -7   4 4482.39 172.093  17
   4  -7  -3 4574.24 187.097  20
   4  -7  -3 4248.94 176.107  10
  -4  -7   3 4113.64 165.639  17
   4  -7  -2 2399.85 138.296  20
   4  -7  -2 2469.60 135.503  10
  -4  -7   2 2372.10 123.609  17
   4  -7  -1 534.649 67.5334  20
   4  -7  -1 589.078 67.5237  10
  -4  -7   1 535.625 61.5301  17
   4  -7   0 5866.08 227.857  10
  -4  -7   0 6027.41 204.109  17
   4  -7   0 5868.85 228.349  20
   4  -7   1 9081.32 294.626  10
  -4  -7  -1 8563.73 250.183  17
   4  -7   1 8375.44 280.280  20
   4  -7   2 2580.00 149.499  10
  -4  -7  -2 2364.55 120.480  17
   4  -7   2 2477.80 143.468  20
   4  -7   3 8602.05 287.236  10
  -4  -7  -3 8260.46 237.274  17
   4  -7   3 8864.03 280.340  20
   4  -7   4 6714.06 242.457  10
   4  -7   4 7098.72 236.330  20
  -4  -7  -4 6743.35 203.727  17
   4  -7   5 8329.70 246.572  20
   4  -7   5 7829.67 249.903  10
  -4  -7  -5 8129.91 216.655  17
   4  -7   6 651.430 59.3440  20
   4  -7   6 674.919 60.6008  10
  -4  -7  -6 670.837 52.6091  17
   4  -7   7 2156.57 94.3895  10
  -4  -7  -7 1871.40 81.2221  17
   4  -7   7 1972.16 85.3154  20
  -4  -6  10 1048.49 59.9118  17
  -4  -6   9 968.018 69.2938  17
   4  -6  -8 8061.50 240.065  18
  -4  -6   8 7707.93 227.941  17
   4  -6  -7 7517.90 241.467  18
  -4  -6   7 7148.53 228.214  17
   4  -6  -6 657.048 69.9296  18
  -4  -6   6 709.703 69.9428  17
   4  -6  -5 7125.79 214.226  11
   4  -6  -5 7124.05 249.213  18
  -4  -6   5 7273.52 239.598  17
   4  -6  -4 110.124 42.1520  20
   4  -6  -4 75.8963 27.1971  11
   4  -6  -4 49.4059 22.1401  10
   4  -6  -4 75.8490 32.4244  18
  -4  -6   4 54.3769 23.6660  17
   4  -6  -3 804.592 83.5012  20
   4  -6  -3 799.158 78.9118  10
   4  -6  -3 833.227 81.1637  18
  -4  -6   3 904.299 80.9792  17
   4  -6  -2 234.675 48.3975  20
   4  -6  -2 178.321 43.4552  10
   4  -6  -2 203.732 47.6083  18
  -4  -6   2 229.387 43.1956  17
   4  -6  -1 8788.24 297.622  20
   4  -6  -1 8555.13 289.993  18
  -4  -6   1 8422.45 261.605  17
   4  -6  -1 8458.68 289.919  10
   4  -6   0 822.103 87.3680  20
   4  -6   0 828.381 89.9884  10
   4  -6   0 785.722 87.0082  18
  -4  -6   0 736.117 71.7193  17
   4  -6   1 15132.4 424.883  20
   4  -6   1 14957.7 429.000  10
  -4  -6  -1 15188.9 373.491  17
   4  -6   1 15472.0 420.547  18
   4  -6   2 6346.39 258.542  20
   4  -6   2 6720.41 272.601  10
   4  -6   2 6216.60 252.461  18
  -4  -6  -2 6444.75 221.921  17
   4  -6   3 3919.99 201.847  20
   4  -6   3 4381.20 223.464  10
   4  -6   3 4390.82 210.949  18
  -4  -6  -3 4382.53 177.108  17
   4  -6   4 5380.31 229.328  20
   4  -6   4 5225.07 242.632  10
   4  -6   4 5070.45 226.162  18
  -4  -6  -4 5089.66 193.256  17
   4  -6   5 9403.25 324.742  10
   4  -6   5 9260.80 307.188  18
  -4  -6  -5 9318.39 265.696  17
   4  -6   5 9521.12 308.548  20
   4  -6   6 3031.19 170.585  10
   4  -6   6 2834.40 153.658  18
  -4  -6  -6 3127.93 138.943  17
   4  -6   6 3444.10 164.200  20
   4  -6   7 6022.07 204.864  20
   4  -6   7 6161.94 223.895  10
  -4  -6  -7 6110.87 187.168  17
   4  -6   8 938.563 66.2435  20
   4  -6   8 873.624 70.5413  10
   4  -6   8 703.504 61.2689  18
  -4  -6  -8 944.725 62.7203  17
   4  -6   9 2756.53 99.7691  10
  -4  -6  -9 2639.36 95.2239  17
  -4  -5  10 1963.56 101.905  17
   4  -5  -9 293.373 53.5681  18
  -4  -5   9 316.558 45.8421  17
  -4  -5   8 12548.6 326.157  17
   4  -5  -8 12453.9 354.419  18
   4  -5  -7 4066.06 193.309  18
  -4  -5   7 3785.64 166.355  17
   4  -5  -6 10048.7 319.437  18
  -4  -5   6 10093.6 294.321  17
   4  -5  -5 3857.71 182.772  20
   4  -5  -5 3786.74 186.156  18
  -4  -5   5 3507.47 164.226  17
   4  -5  -4 15688.6 404.953  20
   4  -5  -4 15340.9 412.280  18
  -4  -5   4 15070.1 376.936  17
   4  -5  -4 15550.6 604.604  16
  -4  -5   4 15154.5 647.103   3
  -4  -5   4 14137.9 672.772  14
   4  -5  -3 8583.01 283.224  20
   4  -5  -3 8489.13 266.849  10
   4  -5  -3 8882.16 294.015  18
  -4  -5   3 8359.29 261.243  17
  -4  -5   3 8617.58 493.254   3
   4  -5  -3 8096.96 427.688  16
  -4  -5   3 8469.02 500.917  14
   4  -5  -2 6027.31 233.599  20
   4  -5  -2 5769.87 222.564  10
   4  -5  -2 5936.06 235.789  18
  -4  -5   2 5870.69 210.180  17
  -4  -5   2 6260.65 423.629   3
   4  -5  -2 5731.10 350.780  16
  -4  -5   2 5844.15 403.896  14
   4  -5  -1 12239.1 356.676  10
   4  -5  -1 11952.9 361.719  18
  -4  -5   1 12430.2 626.883   3
  -4  -5   1 12622.8 326.744  17
   4  -5  -1 13033.5 542.343  16
   4  -5  -1 12387.3 362.637  20
   4  -5   0 6412.31 253.869  20
   4  -5   0 6439.20 253.764  10
   4  -5   0 6134.66 250.353  18
  -4  -5   0 6640.00 457.323   3
  -4  -5   0 6361.70 217.018  17
   4  -5   0 6125.42 362.404  16
   4  -5   1 4775.05 223.405  20
   4  -5   1 4660.60 222.484  10
   4  -5   1 4981.86 229.106  18
  -4  -5  -1 4382.70 375.146   3
  -4  -5  -1 4817.66 186.738  17
   4  -5   1 4757.95 314.425  16
   4  -5   2 3621.89 204.403  10
   4  -5   2 3777.29 200.541  18
  -4  -5  -2 3690.53 353.794   3
  -4  -5  -2 3706.34 163.643  17
   4  -5   2 3667.22 272.643  16
   4  -5   2 3742.08 193.424  20
   4  -5   3 34557.1 734.041  20
  -4  -5  -3 35148.1 661.770  17
   4  -5   4 27420.3 633.124  20
  -4  -5  -4 27855.7 569.015  17
   4  -5   5 8706.69 313.307  20
   4  -5   5 8918.65 318.905  19
  -4  -5  -5 9396.21 278.994  17
   4  -5   6 926.881 95.5940  20
   4  -5   6 1002.55 97.0366  19
  -4  -5  -6 964.964 82.8515  17
   4  -5   7 5777.25 225.925  20
   4  -5   7 5590.55 233.233  19
  -4  -5  -7 5619.10 201.827  17
   4  -5   8 4922.04 189.968  20
  -4  -5  -8 5174.51 183.116  17
   4  -5   9 11183.3 264.547  20
   4  -5   9 11231.6 302.825  10
   4  -5   9 10684.1 293.788  18
  -4  -5  -9 11834.3 274.526  17
   4  -5  10 1747.30 85.6120  10
  -4  -5 -10 1931.78 84.1573  17
  -4  -4  12 461.640 57.0299  20
  -4  -4  11 3131.10 162.786  20
  -4  -4  10 4234.49 202.457  20
   4  -4  -9 2836.35 164.950  18
   4  -4  -8 1576.30 124.464  18
   4  -4  -7 17385.4 454.065  18
   4  -4  -6 51049.0 936.938  18
   4  -4  -6 49531.6 1192.45  16
  -4  -4   6 49381.2 1400.87  14
   4  -4  -5 1727.58 121.685  18
   4  -4  -5 1623.12 114.327  20
   4  -4  -5 1642.91 178.516  16
  -4  -4   5 1583.75 219.239  14
  -4  -4   4 3192.84 266.564   3
   4  -4  -4 3138.65 242.801  16
  -4  -4   4 3102.27 295.343  14
  -4  -4   3 17830.6 674.785   3
   4  -4  -3 18246.8 615.104  16
  -4  -4   3 17183.1 699.572  14
  -4  -4   2 30774.3 950.028   3
   4  -4  -2 32865.0 857.025  16
  -4  -4   2 31086.4 962.958  14
  -4  -4   1 1559.72 200.297   3
   4  -4  -1 1735.14 170.911  16
  -4  -4   1 1548.69 195.271  14
  -4  -4   0 38104.6 1103.36   3
   4  -4   0 38742.0 948.752  16
  -4  -4  -1 13291.5 620.764   3
   4  -4   1 14359.2 522.773  16
  -4  -4  -2 24415.5 889.644   3
   4  -4   2 26784.7 748.807  16
   4  -4   3 9578.58 320.928  20
   4  -4   3 9615.77 315.567  19
  -4  -4  -3 9048.39 526.040   3
  -4  -4  -3 9885.54 277.845  17
   4  -4   4 7287.21 281.983  20
  -4  -4  -4 6867.73 461.093   3
   4  -4   4 7397.73 280.506  19
  -4  -4  -4 7848.64 247.189  17
   4  -4   5 38646.1 808.439  20
   4  -4   5 39019.0 810.987  19
   4  -4   6 6757.46 274.197  20
   4  -4   6 6880.80 275.890  19
  -4  -4  -6 7256.79 243.679  17
   4  -4   7 486.278 69.1655  20
   4  -4   7 556.430 75.4234  19
  -4  -4  -7 488.404 65.4331  21
  -4  -4  -7 501.921 63.8300  17
  -4  -4  -8 1016.01 87.3650  21
   4  -4   8 1281.01 104.499  20
  -4  -4  -8 1174.52 93.4068  17
   4  -4   8 1419.93 115.452  19
   4  -4   9 4906.50 178.902  20
   4  -4   9 5155.17 205.742  19
  -4  -4  -9 5009.22 185.317  17
   4  -4  10 12204.5 306.443  19
  -4  -4 -10 12259.6 291.002  17
   4  -4  11 1361.15 74.9678  10
  -4  -4 -11 1950.22 85.2693  17
  -4  -3  13 5884.90 202.114  20
  -4  -3  12 7633.82 269.865  20
  -4  -3  11 312.082 60.9237  20
   4  -3  -9 2112.51 147.363  18
   4  -3  -8 6164.68 250.506  18
   4  -3  -8 5919.55 354.986  16
  -4  -3   8 6585.93 470.970  14
   4  -3  -7 7161.83 268.046  18
   4  -3  -7 7157.49 378.034  16
  -4  -3   7 7857.99 503.054  14
   4  -3  -6 1304.06 154.896  16
  -4  -3   6 1280.41 193.716  14
   4  -3  -5 17514.3 573.766  16
  -4  -3   5 16312.6 690.659  14
  -4  -3   4 19517.7 633.302   3
   4  -3  -4 18742.5 584.828  16
  -4  -3   4 19712.4 735.764  14
  -4  -3   3 6530.44 354.558   3
   4  -3  -3 6605.85 319.493  16
  -4  -3   3 6179.81 381.179  14
  -4  -3   2 103434. 1946.41   3
   4  -3  -2 104806. 1814.03  16
  -4  -3   2 102960. 2011.66  14
  -4  -3   1 16149.4 595.116   3
   4  -3  -1 16118.7 504.775  16
  -4  -3   0 14642.5 572.900   3
   4  -3   0 15132.8 481.138  16
  -4  -3  -1 3020.63 256.456   3
   4  -3   1 3152.74 202.555  16
   4  -3   2 708.478 98.6314  16
  -4  -3  -2 685.279 130.152   3
   4  -3   2 823.433 101.727   2
  -4  -3  -3 16410.3 668.152   3
   4  -3   3 18726.3 574.701   2
  -4  -3  -4 30029.6 958.906   3
   4  -3   4 32677.7 857.951   2
   4  -3   5 18896.2 480.698  19
  -4  -3  -5 19332.2 753.404   3
  -4  -3  -5 19706.2 435.413  17
   4  -3   5 19958.5 677.424   2
  -4  -3  -5 18945.0 694.516  13
   4  -3   6 20657.5 518.384  19
  -4  -3  -6 21380.4 474.882  17
   4  -3   7 11426.9 364.363  19
  -4  -3  -7 11802.7 330.379  17
  -4  -3  -7 11579.5 360.458  21
   4  -3   8 8328.21 293.953  19
  -4  -3  -8 8067.90 265.235  17
  -4  -3  -8 7847.79 280.856  21
   4  -3   9 4692.57 207.542  19
  -4  -3  -9 4559.45 189.401  17
  -4  -3  -9 4322.57 189.490  21
   4  -3  10 4622.12 186.048  19
  -4  -3 -10 4381.92 172.539  17
  -4  -3 -10 4079.71 164.124  21
   4  -3  11 4352.08 156.317  19
  -4  -3 -11 4444.20 153.244  17
   4  -3  12 701.430 46.7012  19
  -4  -2  14 1954.45 106.099  20
  -4  -2  13 4335.80 193.289  20
   4  -2  -9 29093.3 642.705  18
   4  -2  -8 15843.0 425.143  18
   4  -2  -8 15337.3 576.605  16
  -4  -2   8 15928.3 714.818  14
   4  -2  -7 6396.02 341.559  16
  -4  -2   7 6614.18 435.941  14
   4  -2  -6 9260.14 397.625  16
  -4  -2   6 9357.80 504.897  14
   4  -2  -5 9945.61 394.655  16
  -4  -2   5 9830.40 495.260  14
  -4  -2   4 22551.4 619.505   3
   4  -2  -4 20658.8 583.271  16
  -4  -2   4 21615.9 733.570  14
   4  -2  -4 21015.3 675.033   4
  -4  -2   3 19701.7 582.580   3
   4  -2  -3 19658.3 542.567  16
   4  -2  -3 20223.6 638.175   4
  -4  -2   2 30322.5 777.071   3
   4  -2  -2 31373.1 709.009  16
   4  -2  -2 31268.8 815.531   4
  -4  -2   1 44608.1 999.493   3
   4  -2  -1 45224.5 893.802  16
   4  -2  -1 43540.6 996.234   4
   4  -2   0 10137.3 308.400   2
  -4  -2   0 9560.56 404.742   3
   4  -2   0 10429.0 339.506  16
  -4  -2  -1 13002.7 495.659   3
   4  -2   1 14171.7 413.857   2
   4  -2   1 14704.4 404.513  16
   4  -2   1 13722.6 460.048   4
  -4  -2  -1 14363.0 420.475  13
  -4  -2  -2 26423.0 660.360  13
   4  -2   2 26781.4 649.361   2
  -4  -2  -3 2338.26 214.824   3
   4  -2   3 2454.60 189.302   2
  -4  -2  -3 2524.70 199.143  13
   4  -2   4 204.757 62.1668   2
  -4  -2  -4 231.842 73.7199   3
  -4  -2  -4 157.839 56.3895  13
  -4  -2  -5 22787.9 764.434   3
   4  -2   5 23130.9 723.624   2
  -4  -2  -5 21801.7 732.701  13
   4  -2   6 15001.8 406.754  19
  -4  -2  -6 14626.5 619.646   3
  -4  -2  -6 15537.7 376.244  17
   4  -2   6 15544.1 609.422   2
  -4  -2  -6 14793.7 623.361  13
  -4  -2  -7 17168.2 465.831  21
   4  -2   7 16677.7 445.276  19
  -4  -2  -7 17557.8 419.559  17
  -4  -2  -8 3393.50 188.151  21
   4  -2   8 3579.16 187.155  19
  -4  -2  -8 3777.32 176.046  17
  -4  -2  -9 16114.2 436.811  21
   4  -2   9 17057.1 436.584  19
  -4  -2  -9 16258.5 410.813  17
  -4  -2 -10 9127.96 288.300  21
   4  -2  10 9410.56 289.721  19
  -4  -2 -10 8951.05 276.376  17
  -4  -2 -11 2759.89 128.640  21
   4  -2  11 2689.07 132.294  19
  -4  -2 -11 2634.56 128.147  17
   4  -2  12 1493.93 79.6838  19
   4  -1 -14 1582.54 81.2733   7
  -4  -1  14 1677.20 105.707  20
   4  -1 -13 845.813 74.3489   7
   4  -1 -12 2146.42 133.158   7
   4  -1 -11 2296.84 147.893   7
   4  -1 -10 6039.87 255.136   7
   4  -1  -9 6220.07 255.809   7
   4  -1  -9 6188.61 250.566  18
  -4  -1   9 6944.02 450.480  14
   4  -1  -8 3872.35 184.929  18
   4  -1  -8 3825.47 269.870  16
  -4  -1   8 3767.99 322.497  14
   4  -1  -7 1293.03 146.560  16
  -4  -1   7 1459.97 189.705  14
   4  -1  -6 4710.76 266.921  16
  -4  -1   6 4802.05 331.886  14
   4  -1  -6 4698.96 294.639   4
   4  -1  -5 5735.69 280.733  16
  -4  -1   5 5629.15 350.127  14
   4  -1  -5 5519.34 313.818   4
  -4  -1   4 7679.47 300.335   3
   4  -1  -4 7735.32 314.154  16
  -4  -1   4 8500.67 411.143  14
   4  -1  -4 8144.48 370.433   4
   4  -1  -3 896.833 116.423   4
  -4  -1   3 958.375 103.722   3
   4  -1  -3 924.654 103.006  16
   4  -1  -2 713.627 104.268   4
  -4  -1   2 849.548 97.6954   3
   4  -1  -2 678.986 79.4183  16
  -4  -1   2 684.600 68.4145  13
  -4  -1   1 30884.8 721.721   3
   4  -1  -1 30861.7 624.693   2
   4  -1  -1 30896.5 643.873  16
   4  -1  -1 32230.0 753.192   4
  -4  -1   1 31571.7 632.137  13
  -4  -1   0 84749.9 1532.09   3
   4  -1   0 87806.9 1392.26  16
   4  -1   0 87553.7 1532.54   4
  -4  -1   0 88551.1 1436.55  13
   4  -1   0 86473.6 1429.87   2
   4  -1   1 7220.18 281.959   2
  -4  -1  -1 6615.00 307.913   3
   4  -1   1 6972.83 222.978  16
   4  -1   1 6706.71 287.915   4
  -4  -1  -1 6918.60 279.172  13
  -4  -1  -2 49404.6 1070.48   3
   4  -1   2 51436.8 993.006   4
  -4  -1  -2 49514.4 1011.03  13
   4  -1   2 51053.0 1015.88   2
  -4  -1  -3 72412.9 1423.74   3
  -4  -1  -3 70110.3 1363.37  13
   4  -1   3 72604.5 1369.99   2
  -4  -1  -4 12081.9 484.697   3
  -4  -1  -4 11532.8 463.845  13
   4  -1   4 12806.5 477.082   2
   4  -1   5 5505.28 328.586   2
  -4  -1  -5 5476.12 327.914   3
  -4  -1  -5 5456.75 333.792  13
  -4  -1  -6 1664.73 190.513   3
   4  -1   6 1337.20 105.391  19
  -4  -1  -6 1339.85 95.9279  17
   4  -1   6 1308.43 169.345   2
   4  -1   6 1397.14 124.538   8
  -4  -1  -6 1256.30 174.538  13
  -4  -1  -7 37121.3 766.894  21
   4  -1   7 35295.7 722.644  19
  -4  -1  -7 36836.9 705.364  17
   4  -1   7 36931.9 765.188   8
  -4  -1  -7 36813.9 1073.61  13
   4  -1   7 38309.7 1052.97   2
  -4  -1  -8 22213.3 549.350  21
   4  -1   8 21425.1 515.040  19
  -4  -1  -8 21586.4 498.184  17
   4  -1   8 21716.7 538.870   8
  -4  -1  -9 2141.21 149.020  21
   4  -1   9 2015.18 134.457  19
  -4  -1  -9 1975.36 128.371  17
   4  -1   9 2027.51 138.946   8
  -4  -1 -10 2224.27 143.499  21
   4  -1  10 2196.73 134.654  19
  -4  -1 -10 2202.57 134.063  17
   4  -1  10 2293.68 136.180   8
  -4  -1 -11 1871.36 116.758  21
   4  -1  11 1861.23 113.594  19
  -4  -1 -11 1599.44 104.840  17
   4  -1  11 1793.64 102.616   8
  -4  -1 -12 6867.53 196.362  21
   4  -1  12 7172.03 197.991  19
  -4   0  15 628.051 52.9667  20
   4   0 -14 1140.75 78.3191   7
   4   0 -13 13835.2 361.741   7
   4   0 -12 12541.6 368.479   7
   4   0 -12 12228.8 311.436   5
   4   0 -11 1942.98 145.891   7
   4   0 -11 2099.88 124.869   5
   4   0 -10 747.912 93.2636   7
   4   0 -10 611.969 73.0567   5
   4   0  -9 23.2703 36.3732   7
   4   0  -9 9.02757 30.1255   5
  -4   0   8 6928.12 402.679  14
   4   0  -8 6156.57 337.462   1
   4   0  -7 1319.89 142.335   1
  -4   0   7 1706.27 195.780  14
   4   0  -7 1389.55 163.302   4
   4   0  -6 315.290 85.9534   4
   4   0  -6 261.637 61.8347   1
   4   0  -6 305.814 72.1875  16
  -4   0   6 213.966 72.5046  14
   4   0  -5 38285.4 852.592  16
  -4   0   5 39590.6 975.863  14
   4   0  -5 37578.9 896.733   4
   4   0  -4 26977.7 653.385  16
  -4   0   4 28586.5 771.381  14
   4   0  -4 28020.4 711.822   4
  -4   0   3 5567.39 230.931   3
   4   0  -3 5599.53 241.675  16
  -4   0   3 5649.59 250.231  13
   4   0  -3 5742.31 274.613   4
   4   0  -2 18002.0 462.442   2
   4   0  -2 18293.5 457.402  16
  -4   0   2 18029.5 479.892  13
  -4   0   2 19394.0 482.532   3
   4   0  -2 19063.1 527.861   4
   4   0  -1 1392.06 118.544   2
  -4   0   1 1391.31 121.819   3
   4   0  -1 1381.38 100.944  16
  -4   0   1 1321.76 114.630  13
   4   0  -1 1442.02 125.297   4
   4   0   0 109318. 1787.59   2
   4   0   0 111744. 1658.39  16
  -4   0   0 110783. 1796.57  13
   4   0   0 110596. 1805.76   4
   4   0   1 15418.9 459.792   2
  -4   0  -1 15225.9 456.588  13
   4   0   2 93750.6 1645.65   2
  -4   0  -2 91153.9 1627.48  13
   4   0   2 96495.8 1569.04   4
   4   0   3 14954.0 502.083   2
   4   0   3 14765.3 421.944   4
  -4   0  -3 14628.3 486.202  13
   4   0   4 29507.6 789.417   2
  -4   0  -4 29880.8 770.403   3
   4   0   5 19063.6 647.775   2
  -4   0  -5 18545.5 610.340   3
  -4   0  -5 17755.4 627.003  13
   4   0   6 7597.14 417.284   2
  -4   0  -6 7096.03 268.312  21
  -4   0  -6 7120.43 374.789   3
   4   0   6 7062.55 236.029  19
  -4   0  -6 7054.80 235.334  17
   4   0   6 7386.67 271.607   7
  -4   0  -6 6697.98 397.760  13
   4   0   7 7931.16 442.845   2
   4   0   7 6964.92 247.199  19
  -4   0  -7 7285.88 249.366  17
  -4   0  -7 6990.81 276.963  21
  -4   0  -7 7459.89 440.762  13
   4   0   8 4128.69 191.668  19
  -4   0  -8 4161.44 190.849  17
  -4   0  -8 4580.53 222.901  21
  -4   0  -9 6523.72 268.371  21
   4   0   9 6468.46 239.007  19
  -4   0  -9 6045.41 238.511  17
   4   0   9 6025.19 263.903   8
  -4   0 -10 9813.19 322.528  21
   4   0  10 9483.61 290.380  19
  -4   0 -10 8924.07 285.920  17
   4   0  10 9548.18 316.513   8
  -4   0 -11 9428.26 291.276  21
   4   0  11 9605.62 271.420  19
   4   0  11 9975.81 287.713   8
  -4   0 -12 2125.53 107.483  21
   4   0  12 1984.14 98.2872  19
   4   1 -14 1503.77 92.2654   7
   4   1 -13 992.278 87.3859   7
   4   1 -13 962.397 69.7554   5
   4   1 -12 2233.89 129.974  21
   4   1 -12 2202.63 144.614   7
   4   1 -12 1951.76 118.378   9
   4   1 -12 2165.47 122.512   5
   4   1 -11 2160.84 137.415  21
   4   1 -11 2324.58 159.781   7
   4   1 -11 2406.86 141.010   5
   4   1 -10 6263.08 251.532  21
   4   1 -10 6325.31 270.141   7
   4   1 -10 6091.96 235.561   5
   4   1  -9 5630.56 237.798  21
   4   1  -9 6031.65 258.691   7
   4   1  -9 5726.92 343.723   1
  -4   1   9 5176.63 338.406  15
   4   1  -9 5781.40 228.932   5
   4   1  -8 3251.48 244.692   1
  -4   1   8 3064.77 247.705  15
   4   1  -8 3416.99 167.921   5
   4   1  -8 3591.95 190.941   7
  -4   1   7 1335.48 152.349  15
   4   1  -7 1545.91 153.056   1
   4   1  -7 1534.57 161.493   4
   4   1  -6 5141.22 252.213   1
  -4   1   6 4553.85 256.793  15
   4   1  -6 4859.49 278.124   4
   4   1  -5 6597.55 264.010   1
  -4   1   5 6475.31 280.585  15
  -4   1   5 7116.85 335.593  14
   4   1  -5 6997.93 320.255   4
  -4   1   4 10091.1 394.777  14
   4   1  -4 10048.5 372.438   4
  -4   1   3 1082.80 89.7556  15
   4   1  -3 925.145 107.545   4
   4   1  -2 826.788 102.300   2
  -4   1   2 831.028 104.486  13
   4   1  -2 951.764 102.549   4
   4   1  -1 28971.9 690.196   2
  -4   1   1 29039.2 707.424  13
   4   1  -1 28917.5 664.793   4
   4   1   0 84391.0 1511.00   2
  -4   1   0 84024.7 1497.69  13
   4   1   0 87242.4 1461.18   4
   4   1   1 6132.01 259.900   4
   4   1   1 5948.84 284.708   2
  -4   1  -1 5975.11 286.661  13
   4   1   2 52100.7 982.197   4
   4   1   2 49078.2 1063.48   2
  -4   1  -2 49677.7 1052.85  13
   4   1   3 64792.1 1332.02   2
   4   1   3 67052.3 1200.10   4
  -4   1  -3 64173.7 1301.45  13
   4   1   4 13600.2 531.032   2
  -4   1  -4 13501.0 507.011  13
   4   1   4 14582.3 429.962   4
   4   1   5 6288.55 367.057   2
  -4   1  -5 5762.36 340.980  13
  -4   1  -6 1161.20 107.113  21
   4   1   6 1345.46 97.7038   6
   4   1   6 1330.32 178.620   2
   4   1   6 1228.96 91.8365  19
   4   1   6 1065.84 105.711   7
  -4   1  -6 1139.80 164.685  13
   4   1   6 1300.81 94.5663  22
  -4   1  -7 34522.5 730.783  21
   4   1   7 33986.9 664.250  19
  -4   1  -7 33096.6 680.030  17
  -4   1  -7 33652.1 1011.79  13
   4   1   7 34770.2 659.450  22
   4   1   8 21558.5 491.052  19
  -4   1  -8 21427.8 502.881  17
  -4   1  -8 22125.4 548.316  21
  -4   1  -9 1994.24 144.973  21
  -4   1  -9 2086.21 137.345  12
   4   1   9 1895.19 122.660  19
  -4   1 -10 2160.99 142.953  21
   4   1  10 2169.35 126.500  19
   4   1  10 2160.95 149.890   8
  -4   1 -11 1957.41 122.531  21
   4   1  11 1938.69 110.914  19
   4   1  11 2025.16 121.740   8
  -4   1 -12 7888.82 221.158  21
   4   1  12 7702.22 203.698  19
   4   1  12 8076.66 216.930   8
   4   2 -14 1636.58 72.7509   5
   4   2 -14 1704.60 93.4945   7
   4   2 -13 4686.84 188.236   7
   4   2 -13 4565.48 163.200   5
   4   2 -12 683.086 73.4207  21
   4   2 -12 752.185 84.3947   7
   4   2 -12 692.740 74.7065   9
   4   2 -12 695.538 73.8383   5
   4   2 -11 10672.2 341.919  21
   4   2 -11 11151.9 362.073   7
   4   2 -11 10777.5 326.383   9
   4   2 -11 10909.5 326.687   5
   4   2 -10 8222.14 303.959  21
   4   2 -10 8508.65 316.499   7
   4   2 -10 8292.16 286.119   9
   4   2 -10 8108.02 282.827   5
   4   2  -9 27320.0 639.134  21
   4   2  -9 28273.8 656.825   7
  -4   2   9 26420.1 890.142  15
   4   2  -9 28151.9 615.454   5
   4   2  -9 29406.4 855.796   1
   4   2  -9 29237.1 589.800  12
   4   2  -8 13171.5 394.561  21
   4   2  -8 13285.9 401.163   7
   4   2  -8 13924.0 524.505   1
  -4   2   8 12020.4 541.245  15
   4   2  -8 13152.0 373.538   5
   4   2  -8 13635.8 360.375  12
   4   2  -7 6973.26 341.023   1
  -4   2   7 6231.84 355.326  15
  -4   2   6 9511.32 414.925  15
   4   2  -6 9608.63 394.198   4
   4   2  -6 9783.32 379.128   1
  -4   2   5 10392.9 405.064  15
   4   2  -5 9714.71 350.583   1
   4   2  -5 10670.1 396.332   4
   4   2  -4 19072.3 479.773   1
  -4   2   4 19148.5 537.121  15
   4   2  -4 19435.4 548.967   4
   4   2  -3 16714.4 412.185   1
   4   2  -3 17226.5 498.472   4
   4   2  -2 33525.7 820.092   2
   4   2  -2 35795.8 780.492   4
   4   2  -1 47369.3 963.804   4
   4   2  -1 47190.2 1029.49   2
  -4   2   1 49777.5 1075.55  13
   4   2   0 10558.0 370.157   4
   4   2   0 10514.4 418.063   2
  -4   2   0 10706.3 418.206  13
   4   2   1 15223.5 462.885   4
   4   2   1 15955.4 535.935   2
  -4   2  -1 15488.9 518.539  13
   4   2   2 26123.8 744.943   2
   4   2   2 26097.7 652.064   4
  -4   2  -2 26415.0 727.804  13
   4   2   3 3142.48 200.968   4
   4   2   3 3002.71 242.225   2
  -4   2  -3 3131.84 232.109  13
  -4   2  -4 270.034 77.9233  13
   4   2   4 263.779 65.5681   4
   4   2   4 225.704 80.1787   2
   4   2   5 19824.1 726.570   2
   4   2   5 21732.7 517.120   7
  -4   2  -5 19253.0 678.551  13
   4   2   5 21049.3 447.705  22
  -4   2  -6 15471.7 426.071  21
   4   2   6 16207.8 392.688   6
   4   2   6 16444.2 671.096   2
   4   2   6 15334.7 373.101  19
   4   2   6 17312.1 453.710   7
   4   2   6 16689.7 390.029  22
  -4   2  -6 15480.5 623.219  13
   4   2   7 16363.8 395.401  19
  -4   2  -7 16050.9 449.393  21
   4   2   7 16920.3 400.923  22
   4   2   8 3512.27 167.158  19
   4   2   8 3217.59 156.981  22
  -4   2  -8 3408.18 189.774  21
  -4   2  -8 3569.11 196.890  12
  -4   2  -9 15757.3 436.019  21
  -4   2  -9 15941.7 430.244  12
   4   2   9 16006.4 392.676  19
   4   2   9 16795.0 462.264   8
  -4   2 -10 9214.55 296.988  21
  -4   2 -10 8767.69 271.257  12
   4   2  10 8976.17 262.672  19
   4   2  10 9515.55 309.577   8
  -4   2 -11 2105.85 118.921  21
   4   2  11 2112.99 109.927  19
   4   2  11 2192.59 121.005   8
  -4   2 -12 1384.20 77.2805  21
   4   2  12 1335.76 69.9169  19
   4   2  12 1258.39 77.7995   8
   4   3 -14 1270.48 67.0159   7
   4   3 -14 1256.03 58.9549   5
   4   3 -13 5653.81 177.289   5
   4   3 -13 5693.44 193.275   7
   4   3 -12 7534.47 259.975   7
   4   3 -12 7496.94 253.433  21
   4   3 -12 7916.48 242.678   5
   4   3 -11 253.030 54.8301  21
   4   3 -11 270.204 43.7816  12
   4   3 -11 391.243 64.9432   7
   4   3 -11 326.168 54.8934   5
   4   3 -10 8529.36 312.905  21
   4   3 -10 8363.91 309.186   7
   4   3 -10 8347.98 285.425   5
   4   3 -10 8121.61 266.138  12
   4   3  -9 2974.96 182.628  21
   4   3  -9 3051.48 183.206   7
   4   3  -9 3093.25 170.195   5
   4   3  -9 3088.27 161.887  12
   4   3  -8 5616.70 251.733  21
   4   3  -8 5672.92 251.780   7
   4   3  -8 5578.19 224.599  12
   4   3  -8 5842.93 345.132   1
  -4   3   8 5489.62 375.576  15
   4   3  -8 5297.45 224.580   5
   4   3  -7 7412.93 260.356  12
   4   3  -7 7044.89 277.083   7
   4   3  -7 6842.48 275.248  21
  -4   3   7 6396.16 390.121  15
   4   3  -7 6848.32 255.448   5
   4   3  -7 7229.80 365.922   1
   4   3  -6 1780.00 170.780   1
  -4   3   6 1854.90 196.836  15
   4   3  -5 18400.1 538.739   1
  -4   3   5 17614.9 598.527  15
   4   3  -5 18036.3 555.495   4
   4   3  -4 16947.3 495.115   1
  -4   3   4 18445.6 567.763  15
   4   3  -4 17395.7 533.002   4
   4   3  -3 6746.68 311.149   4
   4   3  -3 7139.89 290.386   1
   4   3  -2 101465. 1774.49   4
   4   3  -2 104308. 1691.33   1
   4   3  -1 16805.6 517.403   4
   4   3  -1 17080.1 584.297   2
  -4   3   1 18445.8 634.381  13
   4   3   0 12863.4 510.255   2
  -4   3   0 13949.1 532.031  13
   4   3   0 12710.6 444.938   4
   4   3   1 3191.09 249.874   2
  -4   3  -1 3331.97 244.921  13
  -4   3  -2 737.317 118.173  13
   4   3   2 691.639 122.985   2
   4   3   3 15290.2 613.315   2
  -4   3  -3 15554.9 577.796  13
   4   3   4 32282.6 616.590  22
   4   3   4 32847.5 978.425   2
   4   3   4 32590.3 675.012   7
  -4   3  -4 31028.6 892.142  13
   4   3   5 21728.4 642.094   4
   4   3   5 21247.5 461.183   6
   4   3   5 20556.9 437.377  19
   4   3   5 21023.0 785.525   2
   4   3   5 19833.1 514.616   8
   4   3   5 20611.5 511.540   7
  -4   3  -5 19967.6 704.730  13
   4   3   5 21601.4 463.790  22
  -4   3  -6 20849.5 507.651  21
   4   3   6 21176.8 466.837   6
   4   3   6 20423.5 449.672  19
   4   3   6 19850.5 529.412   8
   4   3   6 20930.2 519.042   7
   4   3   6 21676.9 468.296  22
  -4   3  -7 11001.6 349.183  21
  -4   3  -7 10494.6 364.075  12
   4   3   7 11020.9 306.584  19
   4   3   7 10805.6 367.015   8
   4   3   7 10849.9 303.006   6
   4   3   7 11335.7 313.825  22
  -4   3  -8 7996.91 288.468  21
   4   3   8 8022.62 250.573  19
  -4   3  -8 7924.25 300.492  12
   4   3   8 7735.79 298.659   8
   4   3   8 7797.23 248.550  22
  -4   3  -9 4202.78 194.204  21
  -4   3  -9 4315.24 200.728  12
   4   3   9 3991.98 164.561  22
   4   3   9 4274.08 172.238  19
   4   3   9 4450.24 207.580   8
  -4   3 -10 4293.60 179.094  21
  -4   3 -10 4378.66 175.124  12
   4   3  10 4041.15 155.768  19
   4   3  10 4296.48 183.605   8
  -4   3 -11 4442.48 154.781  21
  -4   3 -11 4204.13 133.406  12
   4   3  11 4427.63 144.999  19
   4   3  11 4562.43 161.443   8
   4   4 -13 1898.70 85.6839   5
   4   4 -13 1921.24 86.6246   7
   4   4 -12 514.830 55.8429   7
   4   4 -12 561.787 58.0534   5
   4   4 -12 483.216 44.8084  12
   4   4 -11 3324.55 153.975   5
   4   4 -11 3194.34 143.272  12
   4   4 -11 3343.73 165.157   7
   4   4 -10 5003.48 228.178  21
   4   4 -10 4811.90 202.207   5
   4   4 -10 5061.36 202.063  12
   4   4 -10 5149.93 226.801   7
   4   4  -9 2785.50 172.848  21
   4   4  -9 2860.88 158.278   5
   4   4  -9 2942.29 174.983   7
   4   4  -9 2793.11 156.165  12
   4   4  -8 1617.24 121.774  12
   4   4  -8 1388.68 125.485  21
   4   4  -8 1582.04 122.877   5
   4   4  -8 1712.22 134.529   7
   4   4  -7 20096.0 494.842  12
   4   4  -7 19831.1 524.746  21
  -4   4   7 19643.5 747.506  15
   4   4  -7 20210.5 479.749   5
   4   4  -7 20174.6 676.173   1
   4   4  -7 19598.6 513.172   7
   4   4  -6 50087.8 916.906  12
   4   4  -6 51049.4 1134.09   1
  -4   4   6 46332.4 1206.92  15
   4   4  -6 47952.9 880.007   5
   4   4  -6 47601.0 926.029   7
   4   4  -5 1471.03 111.810  12
   4   4  -5 1388.14 101.913   5
   4   4  -5 1277.04 109.576   7
   4   4  -4 2740.62 201.682   1
   4   4  -4 2821.21 211.425   4
   4   4  -3 16827.4 550.592   4
   4   4  -3 17657.6 550.590   1
   4   4  -2 28066.7 756.695   4
  -4   4   2 30188.9 925.848  13
   4   4  -2 29670.4 736.545   1
   4   4  -1 1346.14 148.736   4
  -4   4   1 1461.40 183.957  13
  -4   4   0 37687.0 1020.12  13
   4   4   1 14169.6 591.534   2
  -4   4  -1 14135.3 568.757  13
   4   4   2 28417.4 558.586   6
   4   4   2 27931.0 887.875   2
  -4   4  -2 28240.2 852.917  13
   4   4   3 10073.0 292.635  22
   4   4   3 10952.8 296.432   6
   4   4   3 11026.8 542.417   2
   4   4   3 10783.5 329.007   7
  -4   4  -3 10858.6 496.911  13
   4   4   4 7091.42 233.600   6
   4   4   4 7262.58 449.987   2
   4   4   4 7040.70 256.964   8
   4   4   4 6666.62 232.079  22
   4   4   4 6872.55 259.615   7
  -4   4  -4 7102.86 399.808  13
   4   4   5 38884.4 710.689   6
   4   4   5 37545.1 690.068  19
   4   4   5 37330.3 763.509   8
   4   4   5 37750.6 763.165   7
   4   4   5 40085.8 730.406  22
   4   4   6 8102.77 250.969   6
   4   4   6 8013.87 244.522  19
   4   4   6 8195.65 260.092  22
   4   4   6 7942.77 289.030   8
   4   4   6 8052.58 285.397   7
  -4   4  -6 8298.65 318.174  12
   4   4   7 437.737 56.1299   6
  -4   4  -7 419.919 67.3074  12
   4   4   7 417.533 53.3860  19
   4   4   7 426.170 58.5008  22
   4   4   7 397.497 67.7024   8
  -4   4  -8 1094.48 104.763  12
   4   4   8 1206.09 86.2943  19
   4   4   8 1206.71 88.2304  22
   4   4   8 1143.88 98.3898   8
  -4   4  -9 5160.44 188.160  21
  -4   4  -9 5310.19 210.479  12
   4   4   9 5008.13 172.955  19
   4   4   9 4982.12 194.600   8
   4   4   9 4913.59 172.290  22
  -4   4 -10 13052.8 288.666  21
  -4   4 -10 13208.5 312.064  12
   4   4  10 12501.9 280.530  19
   4   4  10 12291.8 299.833   8
   4   4  11 1796.81 73.3002  19
   4   4  11 1670.33 72.1673   8
   4   5 -12 12920.8 254.837  12
   4   5 -12 13605.7 278.454   5
   4   5 -11 118.381 29.6167  12
   4   5 -11 87.9022 23.5838   7
   4   5 -11 115.142 29.9161   5
   4   5 -10 1969.35 118.951   7
   4   5 -10 1932.38 112.147   5
   4   5 -10 1942.51 114.698  12
   4   5  -9 426.386 59.8786   7
   4   5  -9 486.285 64.5134  12
   4   5  -9 445.020 58.7376   5
   4   5  -8 11358.7 350.345   7
   4   5  -8 11710.6 328.782   5
   4   5  -8 11742.2 347.641  12
   4   5  -7 4170.19 198.415  12
   4   5  -7 3882.00 176.495   5
   4   5  -7 3927.05 197.980   7
   4   5  -6 9458.13 313.507  12
   4   5  -6 8801.03 307.055   7
   4   5  -6 9084.75 280.161   5
   4   5  -5 3928.81 193.570   7
   4   5  -5 3689.72 187.723  12
   4   5  -4 17583.9 591.263   1
   4   5  -4 16568.3 433.868   7
   4   5  -4 16480.5 433.869  12
   4   5  -3 9521.71 427.714   1
   4   5  -3 9084.29 412.341   4
  -4   5   3 10095.6 540.984  13
   4   5  -3 8991.71 295.598  12
   4   5  -2 4888.27 302.599   4
  -4   5   2 5508.34 387.503  13
   4   5  -2 5626.41 314.845   1
   4   5  -2 4873.89 206.895  12
   4   5  -1 12514.9 504.139   4
   4   5  -1 12786.0 349.248  12
   4   5   0 6137.89 222.365   6
  -4   5   0 7002.30 416.336  13
   4   5   0 6801.05 216.051  22
   4   5   1 5190.36 200.339   6
  -4   5  -1 5383.89 358.233  13
   4   5   1 5225.11 193.672  22
  -4   5  -2 3472.96 193.776  12
   4   5   2 3904.02 168.297  22
   4   5   2 3436.17 160.313   6
  -4   5  -2 3964.89 303.137  13
  -4   5  -3 34405.0 758.157  12
   4   5   3 35768.1 662.929   6
   4   5   3 34366.9 693.275   7
   4   5   3 35818.3 679.077  22
  -4   5  -4 29956.1 684.706  12
   4   5   4 30319.5 578.026   6
   4   5   4 29375.9 611.472   7
   4   5   5 7958.75 240.837   6
   4   5   5 7937.36 234.634  19
  -4   5  -5 7956.79 309.173  12
   4   5   5 7626.12 260.536   7
   4   5   5 7621.93 253.996  22
  -4   5  -6 1049.54 105.697  12
   4   5   6 936.326 75.8430  19
   4   5   6 1018.09 85.5138  22
  -4   5  -7 5094.07 226.199  12
   4   5   7 5036.88 175.993  19
   4   5   7 5244.04 189.619  22
  -4   5  -8 4642.84 197.341  12
   4   5   8 4435.55 154.112  19
   4   5   8 4769.37 165.125  22
  -4   5  -9 11005.6 285.838  12
   4   5   9 10102.2 241.054  22
   4   5   9 10557.2 239.512  19
  -4   5 -10 2210.47 92.5311  12
   4   5  10 2150.89 78.3094  19
   4   6 -11 2077.78 77.8576   5
   4   6 -11 2041.02 84.8548  12
   4   6 -10 1205.69 71.7335   5
   4   6 -10 1199.75 79.5512  12
   4   6  -9 891.040 68.0376   5
   4   6  -9 984.693 81.2772  12
   4   6  -8 7489.10 223.104   5
   4   6  -8 7623.23 253.079  12
   4   6  -7 8468.77 281.143  12
   4   6  -6 251.078 46.8441  12
   4   6  -5 7457.17 268.700  12
   4   6  -4 55.5420 26.9260  12
   4   6  -3 1017.24 94.3450  12
   4   6  -2 168.925 40.3764  12
   4   6  -1 7997.77 263.610   6
   4   6  -1 8966.95 253.603  22
   4   6   0 644.302 70.6048   6
   4   6   0 712.346 67.9072  22
   4   6   1 16381.6 383.976  22
   4   6   1 15400.4 380.442   6
   4   6   2 6887.04 225.120   6
   4   6   2 7183.08 236.570  22
  -4   6  -3 3497.37 190.988  12
   4   6   3 3876.20 158.035   6
   4   6   3 3898.08 170.583  22
  -4   6  -4 5004.40 229.059  12
   4   6   4 5109.24 195.234  22
  -4   6  -5 8531.03 298.518  12
   4   6   5 8652.04 256.586  22
  -4   6  -6 3745.61 181.070  12
   4   6   6 3481.74 129.756  19
   4   6   6 3781.42 150.036  22
  -4   6  -7 6120.40 215.784  12
   4   6   7 5690.29 162.622  19
   4   6   7 5830.70 180.963  22
   4   6   8 893.802 52.9748  19
  -4   6  -8 958.585 71.3645  12
   4   6   8 858.243 58.6390  22
  -4   6  -9 3099.02 107.635  12
   4   7  -9 5340.91 157.677  12
   4   7  -8 1815.42 96.9323  12
   4   7  -7 1005.92 78.6261  12
   4   7  -6 5636.45 202.528  12
   4   7  -5 8456.70 259.201  12
   4   7  -4 5477.79 204.423  12
   4   7  -3 3929.30 168.868  12
   4   7  -2 2653.22 137.205   6
  -4   7   2 2769.81 123.136  22
  -4   7   1 826.988 69.8961  22
   4   7  -1 873.583 75.8196   6
   4   7  -1 884.951 70.3467  22
   4   7   0 4219.98 166.574   6
   4   7   0 4201.09 162.246  22
   4   7   1 8396.32 237.479   6
   4   7   1 8739.37 248.522  22
   4   7   2 2386.72 108.667   6
   4   7   2 2146.59 117.190  22
   4   7   3 7244.67 222.443  22
  -4   7  -4 6264.34 213.279  12
   4   7   4 7275.09 211.659  22
  -4   7  -5 8117.83 237.345  12
   4   7   5 8779.44 225.161  22
  -4   7  -6 605.391 54.9585  12
   4   7   6 517.133 48.7448  22
  -4   7  -7 2272.93 91.2956  12
   4   7   7 2196.98 83.8120  22
   4   8  -7 12695.2 240.501   6
   4   8  -7 10843.6 225.138  12
   4   8  -6 9611.41 217.366   6
   4   8  -6 8645.61 203.192  12
   4   8  -5 1034.49 62.7955  12
   4   8  -5 1098.86 69.5589   6
   4   8  -4 2601.05 111.020   6
   4   8  -3 10168.0 248.476   6
   4   8  -2 3771.72 135.013   6
   4   8  -1 542.625 48.9347   6
   4   8  -1 509.807 44.0626  22
  -4   8   1 612.483 49.6718  22
   4   8   0 3540.26 117.147   6
  -4   8   0 3471.82 125.240  22
  -4   8  -1 2201.96 99.3424  22
   4   8   1 1948.32 94.3521  22
  -4   8  -2 2425.88 104.531  22
   4   8   2 2333.36 101.790  22
  -4   8  -3 3917.02 134.325  22
   4   8   3 4070.31 129.701  22
   4   8   4 137.133 23.6678  22
  -4   8  -4 177.767 26.6632  22
   4   8   5 144.583 20.6278  22
  -4   8  -5 171.032 22.3414  22
  -5  -8   4 68.2563 17.4709  17
  -5  -8   3 3279.13 102.032  17
  -5  -8   2 785.540 49.0899  17
   5  -8  -1 52.9798 20.2646  20
   5  -8  -1 61.3843 17.1816  10
  -5  -8   1 10.2357 11.8327  17
   5  -8   0 6274.80 165.500  10
   5  -8   0 6163.42 172.592  20
  -5  -8   0 5988.55 153.803  17
   5  -8   1 4220.83 128.695  10
   5  -8   1 4094.13 130.899  20
  -5  -8  -1 3809.40 114.374  17
   5  -8   2 101.254 20.4882  20
   5  -8   2 72.5699 16.7175  10
  -5  -8  -2 58.6877 15.4890  17
   5  -8   3 8320.82 175.083  20
   5  -8   3 8069.53 175.525  10
  -5  -7   6 7106.16 178.647  17
   5  -7  -5 4122.79 147.758  18
  -5  -7   5 4039.19 135.866  17
   5  -7  -4 433.065 48.0782  18
  -5  -7   4 430.051 45.2165  17
   5  -7  -3 4476.97 175.412  20
   5  -7  -3 4424.37 155.099  10
   5  -7  -3 4772.20 174.037  18
  -5  -7   3 4579.93 155.312  17
   5  -7  -2 1328.52 88.4187  18
   5  -7  -2 1387.07 87.7746  10
  -5  -7   2 1417.20 84.3574  17
   5  -7  -2 1593.78 100.019  20
   5  -7  -1 3130.20 145.304  20
   5  -7  -1 2953.85 134.605  10
   5  -7  -1 3076.65 141.331  18
  -5  -7   1 3183.58 129.077  17
   5  -7   0 4180.04 168.902  20
   5  -7   0 4253.16 169.411  10
   5  -7   0 4094.96 165.560  18
  -5  -7   0 4217.82 151.443  17
   5  -7   1 9427.97 268.232  20
   5  -7   1 9058.53 265.547  10
   5  -7   1 9057.10 259.973  18
  -5  -7  -1 9419.22 241.407  17
   5  -7   2 3525.70 149.057  20
   5  -7   2 3643.36 155.939  10
   5  -7   2 3433.41 146.481  18
  -5  -7  -2 3502.53 132.608  17
   5  -7   3 2494.22 116.700  20
   5  -7   3 2498.44 125.101  10
   5  -7   3 2211.28 109.117  18
  -5  -7  -3 2271.65 101.448  17
   5  -7   4 778.274 59.5265  20
   5  -7   4 726.146 62.0161  10
  -5  -7  -4 735.389 53.8120  17
   5  -7   5 12169.1 255.268  20
   5  -7   5 12690.1 279.928  10
  -5  -7  -5 11902.2 248.309  17
  -5  -7  -6 1563.77 62.2178  17
   5  -7   6 1665.63 72.5667  10
   5  -6  -8 2644.22 123.546  18
   5  -6  -7 8798.17 259.484  18
   5  -6  -6 7378.61 245.469  18
  -5  -6   6 7626.52 216.821  17
   5  -6  -5 8793.53 283.047  18
  -5  -6   5 9349.02 252.088  17
   5  -6  -4 916.484 86.0184  18
   5  -6  -4 950.172 88.0451  20
  -5  -6   4 1038.24 78.4739  17
   5  -6  -3 6172.25 229.419  20
   5  -6  -3 6205.94 238.543  18
  -5  -6   3 6216.16 206.370  17
   5  -6  -2 1200.32 98.9419  20
   5  -6  -2 1168.41 88.6483  10
   5  -6  -2 1180.10 100.190  18
  -5  -6   2 1142.59 86.1284  17
   5  -6  -1 12103.1 346.233  20
   5  -6  -1 11592.1 332.016  10
   5  -6  -1 12154.7 358.893  18
  -5  -6   1 12481.7 313.466  17
   5  -6   0 1309.59 101.323  20
   5  -6   0 1445.52 110.073  10
   5  -6   0 1368.41 111.812  18
  -5  -6   0 1430.05 93.9661  17
   5  -6   1 13385.3 368.939  20
   5  -6   1 13742.7 382.297  10
   5  -6   1 13261.8 384.553  18
  -5  -6  -1 13706.8 334.479  17
   5  -6   2 5485.85 215.977  20
   5  -6   2 5165.15 220.608  10
   5  -6   2 4966.04 222.629  18
  -5  -6  -2 5394.63 189.917  17
   5  -6   3 18631.1 445.455  20
   5  -6   3 18727.7 474.272  10
   5  -6   3 19358.8 476.115  18
  -5  -6  -3 19952.0 418.770  17
   5  -6   4 5518.83 205.351  20
   5  -6   4 5654.64 225.159  10
   5  -6   4 5174.87 214.471  18
  -5  -6  -4 5569.10 185.298  17
   5  -6   5 5872.82 198.973  20
   5  -6   5 5701.71 217.678  10
   5  -6   5 5868.48 213.297  18
  -5  -6  -5 6141.51 187.100  17
   5  -6   6 138.613 28.0760  20
   5  -6   6 131.916 34.0200  10
   5  -6   6 182.413 35.6030  18
  -5  -6  -6 133.241 29.4016  17
   5  -6   7 1023.77 54.3074  20
   5  -6   7 1208.48 78.1595  10
   5  -6   7 991.368 66.8065  18
  -5  -6  -7 1033.64 61.2722  17
   5  -6   8 2163.05 82.4059  10
   5  -5  -9 7994.60 252.681  18
   5  -5  -8 16850.4 418.868  18
   5  -5  -7 5663.91 227.263  18
   5  -5  -6 1604.35 121.810  18
   5  -5  -5 10549.2 337.690  18
   5  -5  -4 21891.6 502.558  20
   5  -5  -4 20962.6 519.995  18
   5  -5  -3 6037.21 232.328  20
  -5  -5   3 6463.84 212.133  17
   5  -5  -2 1423.23 118.224  18
  -5  -5   2 1433.26 94.6384  17
   5  -5  -2 1406.66 108.910  20
   5  -5  -1 4861.11 210.815  20
   5  -5  -1 5080.14 208.990  10
   5  -5  -1 4885.95 226.646  18
  -5  -5   1 5248.61 190.981  17
   5  -5   0 6212.35 245.433  20
   5  -5   0 6371.14 249.318  10
   5  -5   0 6658.65 270.938  18
  -5  -5   0 6966.72 225.027  17
   5  -5   1 11271.5 347.956  20
   5  -5   1 11549.1 363.284  10
   5  -5   1 11424.6 373.622  18
  -5  -5  -1 11923.9 313.471  17
   5  -5   2 2092.85 148.180  10
   5  -5   2 2074.51 151.462  18
  -5  -5  -2 1988.53 117.189  17
   5  -5   2 1948.51 131.865  20
   5  -5   3 8346.87 289.502  20
   5  -5   3 8442.55 314.076  10
   5  -5   3 8252.20 317.853  18
  -5  -5  -3 8777.83 261.721  17
   5  -5   4 10551.3 323.193  20
   5  -5   4 9959.10 353.540  10
   5  -5   4 10172.8 352.465  18
  -5  -5  -4 10767.1 293.081  17
   5  -5   5 8307.72 271.345  20
   5  -5   5 7912.87 309.137  10
   5  -5   5 8585.06 309.728  18
  -5  -5  -5 8647.82 253.135  17
   5  -5   6 4117.03 170.107  20
   5  -5   6 4121.23 202.014  10
  -5  -5  -6 3956.41 162.207  21
   5  -5   6 4175.49 200.171  18
  -5  -5  -6 4580.16 170.487  17
   5  -5   7 4659.19 159.333  20
   5  -5   7 4608.31 199.281  10
   5  -5   7 4533.36 195.150  18
  -5  -5  -7 4808.08 165.931  17
   5  -5   8 1224.16 88.2925  10
   5  -5   8 1149.74 83.8418  18
  -5  -5  -8 1215.47 72.3921  17
   5  -5   9 577.342 47.4761  10
   5  -5   9 603.995 47.5183  18
  -5  -5  -9 593.855 41.7580  17
   5  -4  -9 3198.05 173.331  18
   5  -4  -8 5026.36 224.131  18
   5  -4  -7 12921.4 384.223  18
   5  -4  -6 60801.0 1098.07  18
   5  -4  -5 2404.98 152.601  18
  -5  -4   5 2355.69 280.445  14
   5  -4  -4 4882.90 203.075  20
   5  -4  -4 5162.59 228.745  18
   5  -4  -4 5440.28 336.096  16
  -5  -4   4 4858.33 403.944  14
   5  -4  -3 3801.53 176.571  20
   5  -4  -3 4101.56 199.842  18
  -5  -4   3 4193.15 338.298   3
   5  -4  -3 3761.93 273.749  16
  -5  -4   3 3582.55 341.299  14
   5  -4  -2 7408.06 255.042  20
   5  -4  -2 7156.49 272.987  18
  -5  -4   2 7497.07 464.623   3
   5  -4  -2 7409.91 380.032  16
  -5  -4   2 6750.02 456.093  14
   5  -4  -1 18004.9 440.298  20
   5  -4  -1 18760.8 487.161  18
  -5  -4   1 18544.8 768.483   3
   5  -4  -1 18769.5 625.293  16
  -5  -4   1 16758.8 731.194  14
   5  -4   0 4299.52 191.643  20
   5  -4   0 4377.80 201.950  10
   5  -4   0 4375.66 215.520  18
  -5  -4   0 4338.40 368.145   3
   5  -4   0 4192.97 273.429  16
   5  -4   1 28447.6 620.265  20
   5  -4   1 29542.5 676.026  18
  -5  -4  -1 30753.1 573.646  17
   5  -4   2 24723.2 567.838  20
   5  -4   2 25139.5 617.855  18
  -5  -4  -2 26254.8 521.005  17
   5  -4   3 783.154 88.4187  20
   5  -4   3 984.884 101.939  19
  -5  -4  -3 872.231 77.0414  17
   5  -4   4 10791.1 335.642  20
   5  -4   4 10945.8 344.146  19
  -5  -4  -4 11329.7 307.726  17
   5  -4   5 462.344 65.4117  20
   5  -4   5 521.010 72.2785  19
  -5  -4  -5 530.982 62.1066  17
   5  -4   6 5332.02 224.044  19
  -5  -4  -6 5589.70 204.508  17
  -5  -4  -7 5212.45 204.466  21
  -5  -4  -7 5681.35 199.364  17
   5  -4   7 5885.23 226.582  19
  -5  -4  -8 528.832 57.5167  21
   5  -4   8 568.379 65.8156  19
  -5  -4  -8 431.269 52.3904  17
  -5  -4  -9 3353.93 118.513  21
   5  -4   9 3675.25 142.998  19
  -5  -4  -9 3595.53 132.461  17
   5  -4  10 13371.3 285.770  10
   5  -4  10 13908.9 293.678  18
  -5  -4 -10 14079.8 266.975  17
   5  -3 -10 237.743 54.5877  18
   5  -3  -9 11894.3 366.408  18
   5  -3  -8 2618.84 163.852  18
   5  -3  -7 41301.6 821.193  18
   5  -3  -6 24199.7 565.028  18
   5  -3  -6 23885.3 759.001  16
  -5  -3   6 24382.5 944.132  14
   5  -3  -5 17998.3 462.637  18
   5  -3  -5 17072.3 609.680  16
  -5  -3   5 17308.1 774.291  14
   5  -3  -4 31123.5 655.690  18
   5  -3  -4 29427.8 820.277  16
  -5  -3   4 30449.6 1027.93  14
  -5  -3   3 36825.2 1018.81   3
   5  -3  -3 35850.3 902.928  16
  -5  -3   3 37634.3 1134.26  14
  -5  -3   2 9874.21 491.769   3
   5  -3  -2 9898.22 408.598  16
  -5  -3   1 51348.9 1293.01   3
   5  -3  -1 51814.2 1101.63  16
  -5  -3   0 26174.5 882.151   3
   5  -3   0 28094.9 718.577  16
  -5  -3  -1 28542.6 951.832   3
   5  -3   1 30977.3 676.846  18
  -5  -3  -2 4586.78 363.877   3
   5  -3   3 8535.96 287.268  19
  -5  -3  -3 8875.51 516.402   3
  -5  -3  -3 9380.38 261.052  17
   5  -3   4 10190.0 325.404  19
  -5  -3  -4 10491.2 571.330   3
  -5  -3  -4 10538.9 288.805  17
   5  -3   5 5081.67 224.147  19
  -5  -3  -5 5048.02 193.242  17
   5  -3   6 1977.00 138.131  19
  -5  -3  -6 1878.75 116.658  17
  -5  -3  -7 3254.46 176.726  21
   5  -3   7 3377.44 175.808  19
  -5  -3  -7 3513.98 163.489  17
  -5  -3  -8 4738.21 200.811  21
   5  -3   8 5035.32 207.023  19
  -5  -3  -8 4992.42 190.486  17
  -5  -3  -9 2698.98 131.521  21
   5  -3   9 2773.56 138.604  19
  -5  -3  -9 2816.63 131.844  17
  -5  -3 -10 660.702 53.5433  21
   5  -3  10 726.626 60.3793  19
  -5  -3 -10 651.480 56.1188  17
  -5  -2  13 275.911 46.6530  20
   5  -2  -9 23131.4 550.140  18
   5  -2  -8 3395.67 182.993  18
   5  -2  -7 12171.1 364.426  18
   5  -2  -7 11973.6 375.731   8
   5  -2  -7 12275.2 517.133  16
  -5  -2   7 13135.6 665.068  14
   5  -2  -6 11420.1 344.044  18
   5  -2  -6 11899.4 356.268   8
   5  -2  -6 10749.1 463.001  16
  -5  -2   6 10949.5 595.399  14
   5  -2  -5 18946.2 618.142  16
  -5  -2   5 21007.3 816.044  14
   5  -2  -4 2825.59 213.434  16
  -5  -2   4 2884.26 283.461  14
   5  -2  -4 2782.62 253.552   4
  -5  -2   3 45456.1 1077.14   3
   5  -2  -3 44762.5 991.217  16
   5  -2  -3 46731.4 1170.25   4
  -5  -2   2 16580.4 600.744   3
   5  -2  -2 17581.1 526.178  16
   5  -2  -2 17500.9 643.061   4
  -5  -2   1 38331.5 993.177   3
   5  -2  -1 38272.8 831.364  16
   5  -2  -1 35802.7 971.883   4
   5  -2   0 87.0787 56.0411   4
  -5  -2   0-12.4155 34.1607   3
  -5  -2  -1 971.210 153.378   3
   5  -2   1 1578.49 163.381   4
   5  -2   2 10549.3 418.849   2
  -5  -2  -2 10252.0 501.418   3
   5  -2   3 5894.36 329.339   2
  -5  -2  -3 5926.38 385.393   3
   5  -2   4 7211.19 389.180   2
   5  -2   4 6845.00 246.743  19
  -5  -2  -4 7073.36 434.657   3
   5  -2   5 7791.75 429.021   2
   5  -2   5 7752.14 273.216  19
  -5  -2  -5 7910.89 469.624   3
  -5  -2  -5 7974.28 246.447  17
  -5  -2  -5 7634.60 429.143  13
   5  -2   6 9591.74 312.504  19
  -5  -2  -6 9820.43 288.723  17
   5  -2   7 12984.0 371.704  19
  -5  -2  -7 13040.2 396.150  21
  -5  -2  -7 12910.6 346.383  17
   5  -2   8 170.791 47.7806  19
  -5  -2  -8 103.548 43.6941  21
  -5  -2  -8 111.464 32.7837  17
  -5  -2  -9 2188.43 131.997  21
   5  -2   9 2070.69 124.523  19
  -5  -2  -9 2106.47 120.483  17
  -5  -2 -10 5973.59 200.971  21
   5  -2  10 6137.19 198.161  19
  -5  -2 -10 5896.03 186.025  17
  -5  -2 -11 3247.76 112.839  21
   5  -2  11 3393.71 119.108  19
  -5  -1  14 64.1952 23.4542  20
   5  -1 -13 3128.86 125.053   7
   5  -1 -12 8312.44 255.104   7
   5  -1 -11 4270.51 191.471   7
   5  -1 -10 2080.71 135.238   7
   5  -1 -10 1972.09 122.354   5
   5  -1  -9 31282.1 666.913   7
   5  -1  -9 31153.8 660.703  18
   5  -1  -9 31400.4 633.334   5
   5  -1  -8 5223.83 221.394   7
   5  -1  -8 5152.94 220.477  18
   5  -1  -8 5256.02 209.618   5
  -5  -1   8 5232.42 404.912  14
   5  -1  -7 3023.56 163.564  18
   5  -1  -7 3145.26 182.106   8
   5  -1  -7 2844.96 236.112  16
   5  -1  -7 2963.12 152.959   5
  -5  -1   7 2875.14 290.727  14
   5  -1  -6 1250.61 172.418   4
   5  -1  -6 991.052 134.369  16
  -5  -1   6 1220.18 190.523  14
   5  -1  -5 7073.50 344.529  16
  -5  -1   5 7588.38 454.005  14
   5  -1  -5 7685.17 419.452   4
   5  -1  -4 18588.1 565.669  16
  -5  -1   4 19358.9 731.060  14
   5  -1  -4 19671.6 677.553   4
  -5  -1   3 9252.48 386.131   3
   5  -1  -3 8598.68 344.584  16
   5  -1  -3 9058.58 430.428   4
  -5  -1   2 3080.08 220.275   3
   5  -1  -2 3284.24 195.756  16
   5  -1  -2 3040.61 236.933   4
  -5  -1   1 8959.99 394.567   3
   5  -1  -1 9830.37 334.323  16
   5  -1  -1 9447.81 419.740   4
  -5  -1   0 6924.95 351.629   3
   5  -1   0 7230.98 309.703   2
   5  -1   0 6894.21 345.712   4
  -5  -1   0 7557.67 307.885  13
   5  -1   1 15334.4 499.457   2
  -5  -1  -1 15245.6 555.163   3
   5  -1   1 15391.0 526.776   4
  -5  -1  -1 15051.4 485.308  13
   5  -1   2 5511.23 298.990   2
  -5  -1  -2 4999.73 314.570   3
  -5  -1  -2 4854.56 276.679  13
   5  -1   3 12468.6 499.865   2
  -5  -1  -3 12732.2 540.807   3
  -5  -1  -3 12750.4 495.776  13
  -5  -1  -4 21192.7 745.191   3
   5  -1   4 20935.7 507.718   8
  -5  -1  -4 20966.6 699.457  13
   5  -1   4 22045.5 718.682   2
   5  -1   5 9520.34 475.125   2
  -5  -1  -5 8991.67 473.733   3
   5  -1   5 8631.09 280.087  19
   5  -1   5 9164.30 311.692   8
   5  -1   5 9071.26 294.079   7
   5  -1   6 481.875 65.1702  19
  -5  -1  -6 446.000 55.7400  17
   5  -1   6 445.348 68.3219   8
  -5  -1  -7 15105.8 432.787  21
   5  -1   7 14732.8 397.936  19
  -5  -1  -7 14458.4 374.802  17
   5  -1   7 15276.5 419.102   8
  -5  -1  -8 8548.65 305.909  21
   5  -1   8 8193.18 275.905  19
  -5  -1  -8 7949.76 263.198  17
   5  -1   8 8549.51 289.277   8
  -5  -1  -9 6741.09 252.981  21
   5  -1   9 6714.64 233.503  19
  -5  -1  -9 6478.67 223.760  17
   5  -1   9 6821.38 238.085   8
   5  -1  10 574.082 61.8698  19
  -5  -1 -10 524.266 63.1516  21
   5  -1  10 539.957 55.8571   8
   5  -1  11 392.607 44.3094  19
  -5  -1 -11 329.808 41.7160  21
   5   0 -14 2345.40 94.3490   7
   5   0 -13 1152.88 84.2717   7
   5   0 -12 165.412 44.4237   7
   5   0 -12 152.545 35.2527   5
   5   0 -11 1011.51 100.102   7
   5   0 -11 938.737 84.9243   5
   5   0 -10 10093.3 339.523   7
   5   0 -10 9863.27 304.553   5
   5   0  -9 26916.3 617.922   7
   5   0  -9 25856.3 571.666   5
   5   0  -8 63.7967 30.3473   7
   5   0  -8 56.0784 31.7723  18
  -5   0   8 63.5478 30.3223  15
   5   0  -8 93.2404 43.2073   8
   5   0  -8 13.0106 26.2634   5
   5   0  -7 447.974 97.0990   4
   5   0  -7 464.088 62.5848   7
   5   0  -7 419.207 67.7822   8
   5   0  -7 400.206 60.2612   5
  -5   0   7 493.619 124.202  14
  -5   0   6 9021.77 477.754  14
   5   0  -6 7954.81 418.567   4
  -5   0   5 2697.88 248.321  14
   5   0  -5 2777.41 233.953   4
   5   0  -4 23.7359 35.3354   4
   5   0  -4 14.2916 35.8776  16
   5   0  -3 367.635 86.0065   4
   5   0  -3 299.752 58.1131  16
  -5   0   3 269.484 65.9444   3
  -5   0   3 223.391 52.3838  13
  -5   0   2 50437.5 1041.83   3
   5   0  -2 48591.7 964.360  16
   5   0  -2 48844.9 991.389   2
  -5   0   2 49950.2 1003.50  13
   5   0  -2 49938.9 1101.78   4
  -5   0   1 28459.0 730.443   3
   5   0  -1 26828.3 692.872   2
  -5   0   1 28415.1 694.341  13
   5   0  -1 28889.9 752.631   4
   5   0   0 891.606 115.078   4
  -5   0   0 909.031 120.603   3
   5   0   0 798.510 106.256   2
  -5   0   0 843.664 109.028  13
   5   0   1 472.038 90.2087   4
  -5   0  -1 460.825 89.9341   3
   5   0   1 483.878 91.2756   2
  -5   0  -1 521.065 90.9650  13
  -5   0  -2 105357. 1911.89   3
   5   0   2 101899. 1874.07   2
   5   0   2 107058. 1821.37   4
  -5   0  -3 627.109 110.740  13
   5   0   3 684.038 116.112   2
  -5   0  -3 727.726 123.518   3
   5   0   4 12436.1 327.722   6
  -5   0  -4 13125.7 538.648   3
   5   0   4 12156.6 536.736   2
   5   0   4 13746.8 390.022   8
   5   0   4 12741.1 361.522   7
  -5   0  -4 12013.4 513.139  13
   5   0   5 12841.9 565.809   2
  -5   0  -5 12640.1 544.700   3
   5   0   5 11615.0 320.321  19
   5   0   5 12440.4 382.500   8
   5   0   5 12124.5 361.990   7
  -5   0  -5 11803.6 535.870  13
  -5   0  -6 5309.77 238.901  21
   5   0   6 5517.46 213.194  19
   5   0   6 5434.30 246.383   8
   5   0   6 5638.82 237.927   7
  -5   0  -7 6031.91 258.086  21
   5   0   7 5947.84 229.080  19
   5   0   7 6456.75 267.427   8
  -5   0  -8 190.175 53.6674  21
   5   0   8 316.140 54.4754  19
  -5   0  -8 207.532 41.1194  17
   5   0   8 166.572 47.4034   8
  -5   0  -9 298.193 59.3143  21
   5   0   9 251.703 50.4474  19
   5   0   9 264.538 49.1935   8
   5   0  10 111.544 36.0237  19
  -5   0 -10 114.963 36.3838  21
   5   0  10 129.992 38.2213   8
  -5   0 -11 1058.17 75.1542  21
   5   0  11 1081.28 68.5652  19
   5   0  11 943.309 67.9459   8
   5   1 -14 159.471 26.4796   7
   5   1 -13 2603.89 109.738   5
   5   1 -13 2725.42 133.316   7
   5   1 -12 8107.21 276.174   7
   5   1 -12 8099.82 242.999   5
   5   1 -11 4117.00 206.257   7
   5   1 -11 4236.21 184.935   5
   5   1 -10 1584.47 131.295   7
   5   1 -10 1568.59 118.941   5
   5   1  -9 32166.5 714.981   7
   5   1  -9 32139.8 668.473   5
   5   1  -8 5048.25 234.383   7
   5   1  -8 4579.04 230.789   8
   5   1  -8 4890.95 212.007   5
   5   1  -7 2698.35 168.224   7
   5   1  -7 2843.73 173.602   8
   5   1  -7 2808.96 158.005   5
   5   1  -7 3133.35 257.798   4
   5   1  -6 1274.65 160.441   4
  -5   1   5 9781.48 453.360  14
   5   1  -5 8395.71 408.574   4
  -5   1   4 18374.2 606.379  13
   5   1  -4 18045.4 598.601   4
  -5   1   3 8337.97 327.714   3
  -5   1   3 7929.79 368.692  13
   5   1  -3 7658.30 362.685   4
   5   1  -2 2969.75 212.035   2
  -5   1   2 3560.49 234.189  13
   5   1  -2 3146.57 221.828   4
   5   1  -1 8998.61 393.197   2
  -5   1   1 8998.83 384.802  13
   5   1  -1 9456.27 387.790   4
   5   1   0 6207.60 325.043   2
  -5   1   0 6257.56 324.172  13
   5   1   0 6439.56 313.581   4
   5   1   1 14335.1 529.291   2
  -5   1  -1 13627.0 502.461  13
   5   1   1 14728.2 488.975   4
   5   1   2 5166.60 321.614   2
  -5   1  -2 5164.12 305.539  13
   5   1   2 5798.11 300.594   4
   5   1   3 11534.2 511.735   2
  -5   1  -3 10754.5 470.599  13
   5   1   3 11564.6 428.268   4
   5   1   4 21893.2 475.225   6
   5   1   4 22915.7 773.417   2
   5   1   4 22255.7 542.423   8
   5   1   4 22040.8 523.600   7
  -5   1  -4 20207.0 705.370  13
   5   1   4 21791.6 463.058  22
  -5   1  -5 10562.8 336.002  21
  -5   1  -5 11185.5 503.431   3
   5   1   5 10378.7 304.873   6
   5   1   5 10582.2 537.872   2
   5   1   5 11070.8 360.844   8
   5   1   5 10561.8 343.581   7
  -5   1  -5 10420.2 502.706  13
   5   1   5 10322.2 293.678  22
   5   1   6 618.461 68.0442  22
   5   1   6 656.782 83.6005   7
  -5   1  -6 552.452 74.6644  21
   5   1   6 656.207 70.4322  19
   5   1   6 576.178 79.1174   8
  -5   1  -7 13857.6 407.914  21
   5   1   7 13692.0 362.016  19
   5   1   7 14809.7 435.885   8
  -5   1  -8 9504.33 321.424  21
   5   1   8 9283.94 283.459  19
   5   1   8 10065.5 337.176   8
  -5   1  -9 7309.45 263.792  21
  -5   1  -9 7019.12 238.303  12
   5   1   9 7113.25 232.725  19
   5   1   9 7757.56 273.211   8
  -5   1 -10 397.526 57.5138  21
   5   1  10 445.704 55.0392  19
   5   1  10 396.162 56.2895   8
  -5   1 -11 327.651 41.7240  21
   5   1  11 256.599 34.0531  19
   5   2 -14 1655.93 78.3627   7
   5   2 -13 458.149 55.4760   7
   5   2 -13 370.278 43.2229   5
   5   2 -12 105.877 33.5298   7
   5   2 -12 98.8047 31.7798   5
   5   2 -11 31429.0 675.593   7
   5   2 -11 31062.3 627.475   5
   5   2 -10 1669.03 136.513   7
   5   2 -10 1566.97 119.836   5
   5   2  -9 22227.8 567.374   7
   5   2  -9 22027.3 524.483   5
   5   2  -9 22934.1 501.783  12
   5   2  -8 3550.60 199.709   7
   5   2  -8 3540.26 185.963   5
   5   2  -8 3677.31 175.291  12
   5   2  -7 12202.5 384.385   7
   5   2  -7 11977.3 368.260   8
   5   2  -7 11905.4 353.423   5
   5   2  -7 12169.4 343.089  12
   5   2  -6 9512.47 312.689   8
   5   2  -6 9359.08 295.771   5
   5   2  -6 9470.22 441.041   4
   5   2  -6 9396.63 292.403  12
   5   2  -6 9637.27 325.921   7
   5   2  -5 18974.6 631.151   4
   5   2  -4 2561.05 210.593   4
  -5   2   3 47520.2 1156.08  13
   5   2  -3 45130.8 1037.34   4
  -5   2   2 14855.6 567.457  13
   5   2  -2 14498.1 508.800   4
   5   2  -1 36242.1 933.614   2
  -5   2   1 37023.0 955.770  13
   5   2  -1 37143.8 887.325   4
   5   2   0 52.7545 48.3553   4
  -5   2   0 84.0574 50.4652  13
   5   2   0 83.4839 53.4998   2
   5   2   1 1238.88 166.367   2
  -5   2  -1 1436.18 167.801  13
   5   2   1 1590.43 162.190   4
   5   2   2 9513.60 402.582   4
   5   2   2 9157.09 465.621   2
  -5   2  -2 8922.01 434.993  13
   5   2   3 6998.07 232.522   6
   5   2   3 6863.74 418.435   2
   5   2   3 6765.73 267.497   8
   5   2   3 7259.07 268.742   7
  -5   2  -3 6909.01 388.451  13
   5   2   3 7063.21 221.916  22
   5   2   3 7382.99 349.718   4
   5   2   4 7535.25 247.080   6
   5   2   4 7489.26 447.856   2
   5   2   4 7513.75 287.506   8
   5   2   4 7741.72 287.019   7
  -5   2  -4 7534.04 420.541  13
   5   2   4 7668.76 242.675  22
  -5   2  -5 7118.30 265.327  21
   5   2   5 7691.13 251.415   6
   5   2   5 8095.44 481.210   2
   5   2   5 7518.80 295.735   8
   5   2   5 7632.12 287.797   7
   5   2   5 7642.90 245.242  22
  -5   2  -6 11705.0 358.752  21
   5   2   6 11806.2 329.229   6
   5   2   6 11521.8 312.699  19
   5   2   6 11923.1 388.577   8
   5   2   6 12058.5 374.512   7
   5   2   6 12126.4 327.301  22
  -5   2  -7 12728.3 380.645  21
   5   2   7 12714.3 337.882  19
   5   2   7 13431.5 345.630  22
  -5   2  -8 83.6962 35.8506  21
  -5   2  -8 5.46148 28.1477  12
   5   2   8 60.8157 33.0197  19
   5   2   8 47.3933 37.3056   8
  -5   2  -9 1744.71 117.399  21
  -5   2  -9 1693.01 113.986  12
   5   2   9 1625.59 100.419  19
   5   2   9 1898.87 127.269   8
  -5   2 -10 6919.45 217.285  21
  -5   2 -10 6701.67 192.973  12
   5   2  10 6814.40 196.620  19
   5   2  10 7160.71 227.220   8
  -5   2 -11 3642.23 124.366  21
   5   2  11 3599.84 112.337  19
   5   2  11 3868.64 133.355   8
   5   3 -13 8945.56 214.670   5
   5   3 -13 8795.82 230.812   7
   5   3 -12 1704.48 99.4577   5
   5   3 -12 1844.87 113.989   7
   5   3 -11 1725.64 112.512   5
   5   3 -11 1534.25 116.837   7
   5   3 -10 177.378 49.8435   7
   5   3 -10 178.135 40.3829  12
   5   3 -10 118.592 36.7352   5
   5   3  -9 10867.1 332.616   5
   5   3  -9 10803.7 323.530  12
   5   3  -9 11156.1 368.759   7
   5   3  -8 1687.39 127.471   5
   5   3  -8 1605.40 118.216  12
   5   3  -8 1542.56 131.108   7
   5   3  -7 39336.6 772.875   5
   5   3  -7 40183.7 779.848  12
   5   3  -7 38691.3 819.571   7
   5   3  -6 22439.0 514.852   5
   5   3  -6 22045.0 553.418   7
   5   3  -6 22804.0 528.668  12
   5   3  -5 17523.7 432.443   5
   5   3  -5 18265.5 623.158   4
   5   3  -5 17579.2 470.977   7
   5   3  -5 18533.0 454.713  12
   5   3  -4 30551.4 838.208   4
   5   3  -4 30910.0 668.737   7
   5   3  -4 32065.0 648.212  12
  -5   3   3 45114.2 1177.53  13
   5   3  -3 37721.8 962.810   4
  -5   3   2 10327.3 507.894  13
   5   3  -2 9610.43 423.726   4
   5   3  -1 54521.3 1201.37   4
  -5   3   1 56618.4 1333.48  13
   5   3   0 29138.5 799.135   4
   5   3   0 27703.7 863.924   2
  -5   3   0 29174.5 876.053  13
   5   3   1 29254.5 803.732   4
   5   3   1 28369.9 567.506   6
   5   3   1 28240.6 891.369   2
  -5   3  -1 27769.1 864.767  13
   5   3   1 28532.4 622.181   7
   5   3   2 5017.34 306.397   4
   5   3   2 5018.86 194.720   6
   5   3   2 4637.55 352.895   2
   5   3   2 4644.38 210.814   8
   5   3   2 5013.07 221.838   7
  -5   3  -2 5196.61 343.356  13
   5   3   2 5036.01 182.901  22
   5   3   3 9649.51 437.785   4
   5   3   3 9819.08 287.051   6
   5   3   3 10226.9 536.882   2
   5   3   3 9431.34 320.140   8
   5   3   3 9858.52 328.388   7
  -5   3  -3 9518.47 480.636  13
   5   3   3 9960.09 282.329  22
   5   3   4 12563.5 498.717   4
   5   3   4 11728.4 323.753   6
   5   3   4 12069.3 601.121   2
   5   3   4 12374.7 322.934  22
   5   3   4 11801.9 372.683   8
   5   3   4 11671.5 366.022   7
  -5   3  -4 11112.5 531.236  13
   5   3   5 6214.77 224.053   6
   5   3   5 6209.00 262.783   8
   5   3   5 6356.79 258.700   7
   5   3   5 6613.86 227.581  22
   5   3   6 1772.37 118.608   6
   5   3   6 1740.26 107.040  19
   5   3   6 1870.54 139.176   8
   5   3   6 1728.09 133.677   7
   5   3   6 1810.80 117.290  22
  -5   3  -7 3610.70 174.802  21
  -5   3  -7 3318.58 188.524  12
   5   3   7 3453.25 152.641  19
   5   3   7 3600.82 189.211   8
   5   3   7 3490.13 158.157  22
  -5   3  -8 4220.54 180.376  21
  -5   3  -8 4087.58 196.958  12
   5   3   8 4105.47 159.879  19
   5   3   8 4498.36 202.774   8
   5   3   8 4195.35 166.414  22
  -5   3  -9 2374.13 120.976  21
  -5   3  -9 2343.54 130.604  12
   5   3   9 2297.57 108.037  19
   5   3   9 2300.84 130.572   8
  -5   3 -10 808.595 59.0910  21
  -5   3 -10 829.264 59.6829  12
   5   3  10 806.787 55.2171  19
   5   3  10 806.976 64.4723   8
   5   4 -13 1578.44 66.5280   5
   5   4 -12 4323.44 147.440   5
   5   4 -12 4314.35 153.511   7
   5   4 -11 15920.7 358.675   5
   5   4 -11 15739.9 379.445   7
   5   4 -10 6076.28 219.690   5
   5   4 -10 6436.74 242.721   7
   5   4 -10 6262.55 215.842  12
   5   4  -9 3370.86 169.257   5
   5   4  -9 3627.89 190.365   7
   5   4  -9 3326.51 170.206  12
   5   4  -8 4416.76 195.797   5
   5   4  -8 4412.12 219.253   7
   5   4  -8 4474.30 205.650  12
   5   4  -7 13244.9 375.533   5
   5   4  -7 14006.6 417.646   7
   5   4  -7 14150.3 395.692  12
   5   4  -6 60739.6 1131.31   7
   5   4  -6 61824.1 1069.86   5
   5   4  -6 63724.6 1113.24  12
   5   4  -5 2273.21 135.068   5
   5   4  -5 2202.87 151.994   7
   5   4  -5 2430.39 153.337  12
   5   4  -4 4871.65 313.026   4
  -5   4   4 5146.02 395.396  13
   5   4  -4 4724.88 220.724   7
   5   4  -4 5137.88 222.675  12
  -5   4   3 3927.36 336.615  13
   5   4  -3 3807.82 194.267   7
   5   4  -3 3943.11 189.540  12
   5   4  -3 3616.01 267.904   4
   5   4  -2 8951.65 282.256   6
  -5   4   2 9705.57 520.978  13
   5   4  -2 9011.53 309.678   7
   5   4  -2 9566.61 300.332  12
   5   4  -2 9047.98 431.277   4
   5   4  -1 17988.4 630.125   4
   5   4  -1 18041.4 427.507   6
  -5   4   1 19280.2 736.295  13
   5   4  -1 17490.1 461.070   7
   5   4  -1 17736.1 438.323  12
   5   4   0 4350.83 297.955   4
   5   4   0 4284.63 184.866   6
  -5   4   0 4479.47 334.522  13
   5   4   0 4150.37 200.452   7
   5   4   1 32376.8 894.176   4
   5   4   1 31810.4 619.782   6
   5   4   1 32516.2 1009.52   2
   5   4   1 30463.1 661.028   7
  -5   4  -1 32142.8 974.795  13
   5   4   2 28677.4 840.994   4
   5   4   2 27399.1 566.154   6
   5   4   2 27264.3 556.548  22
   5   4   2 28960.3 957.805   2
   5   4   2 26061.8 585.780   8
   5   4   2 27086.3 610.483   7
  -5   4  -2 28407.8 898.578  13
   5   4   3 1079.79 90.8506   6
   5   4   3 1059.40 87.8429  22
   5   4   3 1038.74 96.8776   8
   5   4   3 1014.48 99.6060   7
   5   4   4 10567.0 299.430   6
   5   4   4 9741.44 324.022   8
   5   4   4 10950.7 304.675  22
   5   4   4 10363.4 333.024   7
   5   4   5 590.665 64.9909  22
   5   4   5 485.979 68.5433   7
   5   4   5 504.712 65.6759   6
   5   4   5 515.969 74.8419   8
  -5   4  -6 5166.77 236.079  12
   5   4   6 4496.28 178.169   6
   5   4   6 4765.32 211.448   8
   5   4   6 4842.13 211.651   7
   5   4   6 5237.75 193.168  22
  -5   4  -7 5365.87 230.835  12
   5   4   7 5035.77 171.540  19
   5   4   7 5159.95 209.684   8
   5   4   7 5450.74 191.627  22
   5   4   8 340.563 43.7603  22
  -5   4  -8 423.777 59.5171  12
   5   4   8 389.036 43.8270  19
   5   4   8 405.893 56.4142   8
   5   4   9 3319.14 112.810  19
   5   4   9 3202.75 129.961   8
  -5   4 -10 15425.0 288.941  12
   5   5 -12 13021.3 245.123   5
   5   5 -11 2022.32 93.2504   5
   5   5 -11 2090.95 95.5928   7
   5   5 -11 2022.92 91.5244  12
   5   5 -10 2885.73 126.905   5
   5   5 -10 2905.81 136.502   7
   5   5 -10 2694.50 128.799  12
   5   5  -9 7473.37 229.812   5
   5   5  -9 7187.92 245.938   7
   5   5  -9 7182.24 240.993  12
   5   5  -8 16812.7 403.711   5
   5   5  -8 17656.4 443.107   7
   5   5  -8 17856.7 434.954  12
   5   5  -7 5647.86 234.514   7
   5   5  -7 5268.63 203.482   5
   5   5  -7 5586.66 228.637  12
   5   5  -6 1578.10 109.286   5
   5   5  -6 1649.68 125.067   7
   5   5  -6 1570.88 118.803  12
   5   5  -5 10866.5 348.403   7
   5   5  -5 10911.0 340.174  12
   5   5  -4 21730.5 528.958   7
   5   5  -4 21260.3 516.587  12
   5   5  -3 6572.35 259.951   7
   5   5  -3 6623.65 254.780  12
   5   5  -2 1170.77 98.3251   6
   5   5  -2 1343.50 112.839   7
   5   5  -2 1072.94 101.315  12
   5   5  -1 4476.83 192.884   6
   5   5  -1 4178.11 191.912  12
   5   5  -1 4518.47 208.360   7
   5   5   0 8243.69 267.480   6
   5   5   0 7870.95 280.788   7
   5   5   0 7720.76 238.234  22
   5   5   1 12446.9 334.130   6
   5   5   1 12148.9 356.936   7
  -5   5  -2 1762.11 136.949  12
   5   5   2 1699.94 114.950   6
   5   5   2 1792.67 128.401   7
   5   5   2 1759.02 112.906  22
  -5   5  -3 9267.86 331.981  12
   5   5   3 9447.53 277.498   6
   5   5   3 9407.05 302.659   7
   5   5   3 10246.6 289.338  22
  -5   5  -4 12085.9 379.782  12
   5   5   4 11906.6 312.696   6
   5   5   4 11731.5 337.300   7
   5   5   4 12554.0 323.724  22
  -5   5  -5 9024.45 315.669  12
   5   5   5 8725.16 248.493   6
   5   5   5 8663.52 272.221   7
   5   5   5 9271.92 265.429  22
  -5   5  -6 4036.08 193.247  12
   5   5   6 3702.30 140.021   6
   5   5   6 4130.35 159.403  22
  -5   5  -7 4670.80 192.882  12
   5   5   7 4460.28 156.420  22
  -5   5  -8 2020.59 107.362  12
   5   5   8 1580.75 82.2087  22
  -5   5  -9 403.070 38.7690  12
   5   6 -10 3154.66 96.3103   6
   5   6 -10 2951.97 110.876  12
   5   6  -9 60.5015 22.7697  12
   5   6  -9 45.3621 17.7907   5
   5   6  -8 2320.56 123.291  12
   5   6  -7 9513.75 282.920  12
   5   6  -6 8312.33 270.196  12
   5   6  -5 9718.72 303.150  12
   5   6  -4 823.754 87.5721  12
   5   6  -3 6261.67 226.867   6
   5   6  -3 6182.00 234.324  12
   5   6  -2 1172.09 94.2423   6
   5   6  -2 1351.97 103.461  12
   5   6  -1 12003.8 327.864   6
   5   6   0 1302.18 94.9415   6
   5   6   0 1090.93 82.7879  22
   5   6   1 13165.6 331.448   6
   5   6   1 12062.3 316.620  22
   5   6   2 6308.31 207.977   6
   5   6   2 6403.75 212.773  22
   5   6   3 19990.6 415.161   6
   5   6   3 21020.1 434.661  22
  -5   6  -4 5400.62 217.127  12
   5   6   4 5318.35 169.946   6
   5   6   4 5388.19 184.195  22
  -5   6  -5 5689.98 210.931  12
   5   6   5 5664.02 160.781   6
   5   6   5 5838.28 182.791  22
   5   6   6 199.086 33.2625  22
  -5   6  -6 236.043 40.5268  12
  -5   6  -7 1648.48 87.3589  12
   5   6   7 1479.01 72.8641  22
  -5   6  -8 1995.00 78.0436  12
   5   7  -8 3524.29 113.049   6
   5   7  -8 3359.67 119.966  12
   5   7  -7 1262.34 72.9368   6
   5   7  -7 1087.85 73.3842  12
   5   7  -6 6973.28 203.421   6
   5   7  -6 6908.50 210.152  12
   5   7  -5 4776.62 169.723   6
   5   7  -5 4432.76 169.786  12
   5   7  -4 807.248 69.8404   6
   5   7  -4 706.119 66.5611  12
   5   7  -3 4547.42 171.356   6
   5   7  -2 1407.45 92.4561   6
   5   7  -1 3750.99 150.621   6
  -5   7   0 3355.86 130.842  22
   5   7   0 3626.24 141.326   6
   5   7   0 3244.47 126.711  22
   5   7   1 9032.75 231.567   6
   5   7   1 8476.63 223.716  22
   5   7   2 3595.19 127.624   6
   5   7   2 3468.79 132.269  22
   5   7   3 2288.66 90.5031   6
   5   7   3 2287.66 103.809  22
   5   7   4 256.942 33.4845  22
  -5   7  -5 12036.2 247.181  12
   5   7   5 12700.3 254.120  22
   5   7   6 1629.15 64.0029  22
   5   8  -6 636.778 39.2237   6
   5   8  -5 722.657 46.4734   6
   5   8  -4 105.528 22.7654   6
   5   8  -3 3001.32 106.169   6
   5   8  -2 950.583 57.4375   6
   5   8  -1 123.490 22.5020   6
   5   8   0 5834.78 142.577   6
   5   8   1 4191.03 108.999  22
  -5   8  -1 4504.08 115.429  22
   5   8   2 192.239 21.5697  22
  -5   8  -2 220.866 23.0748  22
   6  -7  -6 1372.61 63.3832  18
   6  -7  -5 5305.89 151.375  18
   6  -7  -4 4864.78 152.691  18
   6  -7  -3 2116.58 99.7327  18
   6  -7  -2 321.481 39.3404  18
   6  -7  -1 9396.81 233.897  20
   6  -7  -1 8867.01 234.067  18
  -6  -7   1 9035.74 200.768  17
   6  -7   0 508.763 47.7390  20
   6  -7   0 417.134 37.8050  10
   6  -7   0 406.793 44.6637  18
  -6  -7   0 417.264 36.9750  17
   6  -7   1 3523.30 122.403  20
   6  -7   1 3314.42 113.432  10
   6  -7   1 3305.20 126.227  18
  -6  -7  -1 3306.62 104.417  17
   6  -7   2 6423.78 162.566  20
   6  -7   2 6133.91 159.435  10
   6  -7   2 6118.04 168.921  18
  -6  -7  -2 5739.99 144.158  17
   6  -7   3 1122.75 53.5278  20
   6  -7   3 1087.22 56.3512  10
  -6  -7  -3 986.849 47.6459  17
   6  -6  -8 8369.59 214.440  18
   6  -6  -7 8585.08 234.966  18
   6  -6  -6 4778.82 177.080  18
   6  -6  -5 923.845 78.1631  18
   6  -6  -4 2234.04 127.110  18
   6  -6  -3 647.502 69.7336  18
   6  -6  -2 790.490 72.9802  20
   6  -6  -2 712.266 77.2579  18
   6  -6  -1 223.986 42.2779  20
   6  -6  -1 160.417 39.0084  18
   6  -6   0 8412.71 248.280  20
   6  -6   0 7873.24 235.768  10
   6  -6   0 8146.38 269.919  18
   6  -6   1 5495.77 191.251  20
   6  -6   1 5403.27 192.729  10
   6  -6   1 5710.40 217.169  18
  -6  -6  -1 6003.32 177.192  17
   6  -6   2 16789.1 366.680  20
   6  -6   2 15889.5 375.030  10
   6  -6   2 17315.1 410.156  18
  -6  -6  -2 17006.2 345.521  17
   6  -6   3 8111.36 216.802  20
   6  -6   3 7956.16 236.199  10
   6  -6   3 8213.61 250.983  18
  -6  -6  -3 8239.14 207.547  17
   6  -6   4 7581.93 189.629  20
   6  -6   4 7713.26 220.392  10
   6  -6   4 7651.86 227.462  18
  -6  -6  -4 7596.25 189.473  17
   6  -6   5 1357.76 78.1767  10
   6  -6   5 1377.45 80.8680  18
  -6  -6  -5 1264.38 62.7891  17
   6  -6   6 2484.54 91.2766  10
   6  -6   6 2335.92 89.1271  18
   6  -5  -9 2076.07 110.805  18
   6  -5  -8 7773.50 245.190  18
   6  -5  -7 6253.24 228.677  18
   6  -5  -6 6003.50 233.536  18
   6  -5  -5 4658.67 206.440  18
   6  -5  -4 10988.9 344.441  18
   6  -5  -3 3043.49 152.359  20
   6  -5  -3 2929.82 169.390  18
   6  -5  -2 140.654 38.7279  20
   6  -5  -2 49.1166 30.5905  18
   6  -5  -1 4358.82 185.975  20
   6  -5  -1 4553.08 214.727  18
   6  -5   0 19962.6 457.989  20
   6  -5   0 20727.3 518.371  18
   6  -5   1 6765.68 229.716  20
   6  -5   1 6731.49 241.497  10
   6  -5   1 6774.80 268.358  18
   6  -5   2 1316.70 92.8049  20
   6  -5   2 1306.68 105.367  10
   6  -5   2 1425.91 121.669  18
  -6  -5  -2 1265.65 85.3891  17
   6  -5   3 3303.82 143.382  20
   6  -5   3 3376.92 170.440  10
   6  -5   3 3476.68 183.029  18
  -6  -5  -3 3521.33 141.421  17
   6  -5   4 5428.62 219.099  10
   6  -5   4 5687.68 231.774  18
  -6  -5  -4 6032.68 185.377  17
   6  -5   5 3510.86 162.726  10
   6  -5   5 3473.60 168.825  18
  -6  -5  -5 3684.81 135.469  17
  -6  -5  -6 9591.61 239.181  21
   6  -5   6 10440.1 275.598  10
   6  -5   6 10425.7 284.627  18
  -6  -5  -6 10607.3 237.719  17
   6  -5   7 187.663 32.4349  10
   6  -5   7 175.855 31.7616  18
  -6  -5  -7 135.509 22.3467  17
   6  -4  -9 7518.94 255.200  18
   6  -4  -8 1097.50 97.6994  18
   6  -4  -7 1086.01 100.082  18
   6  -4  -6 25330.6 587.760  18
   6  -4  -5 30126.6 666.976  18
   6  -4  -4 3815.57 200.199  18
   6  -4  -3 4164.17 181.547  20
   6  -4  -3 4309.73 212.487  18
   6  -4  -2 30728.5 622.796  20
   6  -4  -2 31632.5 693.479  18
   6  -4  -1 37097.0 711.400  20
   6  -4  -1 37694.8 788.486  18
   6  -4   0 1488.20 103.579  20
   6  -4   0 1366.80 121.351  18
   6  -4   1 16856.7 478.430  18
   6  -4   2 12141.0 375.234  10
   6  -4   2 13522.1 417.517  18
   6  -4   3 4223.50 222.709  18
   6  -4   4 1737.97 140.923  18
  -6  -4  -4 1902.46 108.583  17
   6  -4   5 1046.72 106.336  18
  -6  -4  -5 1054.21 77.7110  17
   6  -4   6 8617.04 297.493  18
  -6  -4  -6 8739.05 266.323  21
  -6  -4  -6 9020.58 238.419  17
  -6  -4  -7 7653.68 222.902  21
   6  -4   7 7837.84 257.438  18
  -6  -4  -7 7739.81 203.468  17
  -6  -4  -8 3752.77 122.613  21
   6  -4   8 3650.67 140.908  10
  -6  -4  -8 3572.08 113.234  17
   6  -3  -9 6717.81 253.611  18
   6  -3  -8 4532.34 210.387  18
   6  -3  -7 2969.01 170.732  18
   6  -3  -6 1395.65 117.590  18
   6  -3  -6 1351.21 103.718   5
   6  -3  -6 1485.11 113.393   8
   6  -3  -5 19.8056 29.8926  18
   6  -3  -5 62.4889 27.4472   8
   6  -3  -5 52.6113 26.9832   5
   6  -3  -4 14829.6 421.705  18
   6  -3  -4 15024.0 394.141   5
   6  -3  -4 14815.2 566.221  16
   6  -3  -3 34895.9 658.189  20
   6  -3  -3 34691.8 730.522  18
   6  -3  -3 33983.1 691.128   5
  -6  -3   3 34790.7 1053.82   3
   6  -3  -3 33482.4 907.084  16
  -6  -3   3 34639.1 1173.03  14
   6  -3  -2 6181.87 256.587  18
  -6  -3   2 6337.76 425.397   3
   6  -3  -2 6464.51 243.801   5
  -6  -3   2 6188.29 458.319  14
  -6  -3   1 12937.0 631.186   3
   6  -3  -1 13957.3 384.573   5
   6  -3  -1 14032.0 413.896  18
  -6  -3   0 27467.7 978.529   3
   6  -3   0 28970.4 663.912  18
   6  -3   1 38876.5 821.146  18
   6  -3   2 485.844 81.1325  18
   6  -3   3 262.850 56.7870  18
   6  -3   4 15118.3 394.439  19
   6  -3   5 28964.3 604.128  19
   6  -3   6 5695.16 216.736  19
  -6  -3  -6 6250.41 202.434  17
  -6  -3  -7 8376.52 266.474  21
   6  -3   7 8277.69 251.892  19
  -6  -3  -7 8459.12 234.668  17
  -6  -3  -8 9030.14 251.162  21
   6  -3   8 9094.87 240.787  19
  -6  -3  -8 8822.95 220.385  17
  -6  -3  -9 2245.44 95.1531  21
   6  -3   9 2023.65 103.886  18
   6  -2  -9 6936.48 261.195  18
   6  -2  -8 12579.8 370.257  18
   6  -2  -8 12404.5 342.079   5
   6  -2  -7 23774.1 559.278  18
   6  -2  -7 23695.1 531.922   5
   6  -2  -7 24764.5 587.793   8
   6  -2  -6 31873.2 671.478  18
   6  -2  -6 30368.8 640.111   5
   6  -2  -6 31762.4 689.597   8
   6  -2  -5 25066.5 581.553  18
   6  -2  -5 25492.3 561.526   5
   6  -2  -5 26047.8 593.115   8
   6  -2  -5 24766.4 760.451  16
  -6  -2   5 25969.8 1003.44  14
   6  -2  -4 7930.32 286.208  18
   6  -2  -4 8116.94 276.141   5
   6  -2  -4 8200.85 290.338   8
   6  -2  -4 7805.47 381.554  16
  -6  -2   4 8648.26 550.590  14
   6  -2  -4 7972.44 473.719   4
  -6  -2   3 19058.1 693.748   3
   6  -2  -3 18600.5 471.837  18
   6  -2  -3 18549.5 456.520   5
   6  -2  -3 18163.0 590.381  16
   6  -2  -3 18913.5 473.937   8
  -6  -2   3 19126.0 817.214  14
   6  -2  -3 17756.4 728.308   4
  -6  -2   2 21904.4 771.487   3
   6  -2  -2 22357.3 535.985  18
   6  -2  -2 22442.8 516.137   5
   6  -2  -2 23029.6 533.664   8
   6  -2  -2 22587.7 809.519   4
  -6  -2   1 14950.5 634.779   3
   6  -2  -1 15504.1 426.764  18
   6  -2  -1 15041.0 402.394   5
   6  -2  -1 15507.7 418.132   8
   6  -2  -1 14343.3 620.561   4
  -6  -2   0 10877.5 548.613   3
   6  -2   0 11410.6 339.402   5
   6  -2   0 11345.7 363.129  18
   6  -2   0 11202.3 347.578   8
   6  -2   0 10618.6 509.948   4
  -6  -2  -1 6308.73 422.192   3
   6  -2   1 6890.54 280.157  18
   6  -2   1 6902.50 261.422   8
  -6  -2  -2 13119.6 624.356   3
   6  -2   2 13458.2 413.922  18
   6  -2   5 491.423 65.9494  19
   6  -2   6 16883.0 417.776  19
  -6  -2  -7 8540.03 287.689  21
   6  -2   7 8070.53 258.405  19
  -6  -2  -8 11966.5 326.086  21
   6  -2   8 11436.7 296.798  19
  -6  -2  -9 391.885 48.3782  21
   6  -2   9 394.066 44.7363  19
  -6  -2 -10 2589.51 94.8803  21
   6  -1 -11 2388.16 115.066   5
   6  -1 -10 3720.43 163.129   5
   6  -1  -9 24930.0 551.426  18
   6  -1  -9 24782.7 538.658   5
   6  -1  -8 17125.6 437.604  18
   6  -1  -8 17444.8 486.093   8
   6  -1  -8 16513.2 426.925   5
   6  -1  -7 11339.5 341.722  18
   6  -1  -7 11963.7 382.593   8
   6  -1  -7 11249.7 339.499   5
   6  -1  -6 5695.76 229.259  18
   6  -1  -6 6001.22 233.302   5
   6  -1  -6 6085.34 258.552   8
   6  -1  -6 5265.55 326.715  16
  -6  -1   6 6196.59 458.375  14
   6  -1  -6 5753.97 403.065   4
   6  -1  -5 10220.9 317.691  18
   6  -1  -5 10577.7 325.179   5
   6  -1  -5 9641.38 438.081  16
   6  -1  -5 11381.7 358.831   8
  -6  -1   5 10699.7 602.135  14
   6  -1  -5 10549.3 544.866   4
   6  -1  -4 48732.9 904.731  18
   6  -1  -4 50055.2 911.717   5
   6  -1  -4 46300.3 1095.17  16
   6  -1  -4 52896.5 960.110   8
  -6  -1   4 53697.9 1448.85  14
   6  -1  -4 50820.0 1309.77   4
   6  -1  -3 15071.3 397.066   5
   6  -1  -3 14528.6 501.346  16
   6  -1  -3 15634.1 425.181   8
   6  -1  -3 15043.9 634.643   4
  -6  -1   2 4651.98 309.989   3
   6  -1  -2 4520.31 198.716   5
   6  -1  -2 4666.49 334.558   4
  -6  -1   1 9698.62 470.262   3
   6  -1  -1 10795.2 319.062   5
   6  -1  -1 10571.1 500.838   4
  -6  -1   0 14449.4 592.560   3
   6  -1   0 15322.5 399.515   5
   6  -1   0 15727.7 429.398   8
   6  -1   0 14502.4 590.148   4
  -6  -1  -1 3645.48 294.402   3
   6  -1   1 4409.25 201.267   5
   6  -1   1 3723.06 195.987  18
   6  -1   1 4206.41 204.520   8
  -6  -1  -2 5193.35 361.073   3
   6  -1   2 5017.70 234.022  18
   6  -1   2 5093.48 230.115   8
   6  -1   3 6483.16 388.800   2
  -6  -1  -3 7253.19 437.235   3
   6  -1   3 6770.11 266.882   8
   6  -1   4 27307.5 621.056   8
   6  -1   5 4641.47 216.676   8
  -6  -1  -6 1537.02 129.691  21
   6  -1   6 1628.73 112.676  19
   6  -1   6 1705.92 126.741   8
  -6  -1  -7 398.063 68.8308  21
   6  -1   7 356.850 56.6030  19
  -6  -1  -8 2968.68 156.598  21
   6  -1   8 2796.17 134.656  19
   6  -1   8 2794.38 137.442   8
  -6  -1  -9 1755.63 106.276  21
   6  -1   9 1675.79 92.3454  19
   6  -1   9 1630.30 87.8059   8
  -6  -1 -10 3346.15 123.679  21
   6  -1  10 3074.82 102.277  19
   6   0 -13 1965.28 88.1180   7
   6   0 -12 14089.8 309.834   5
   6   0 -12 13593.6 333.214   7
   6   0 -11 27810.7 549.422   5
   6   0 -11 27895.0 582.628   7
   6   0 -10 16971.3 415.972   5
   6   0 -10 17445.0 448.323   7
   6   0  -9 983.252 95.9012   5
   6   0  -9 936.389 97.6833   7
   6   0  -8 2072.14 133.012  18
   6   0  -8 2414.72 167.319   8
   6   0  -8 2292.85 144.521   5
   6   0  -8 2326.65 152.065   7
   6   0  -7 14050.7 425.496   8
   6   0  -7 13534.5 380.441   5
   6   0  -7 13541.7 401.058   7
   6   0  -6 3326.37 173.947   5
   6   0  -6 3777.45 203.213   8
  -6   0   6 3468.27 326.626  14
   6   0  -6 3297.35 297.119   4
   6   0  -6 3516.06 185.549   7
   6   0  -5 2694.76 155.193   5
   6   0  -5 2808.53 172.545   8
  -6   0   5 2915.80 295.680  14
   6   0  -5 2665.25 264.031   4
   6   0  -5 2990.87 165.042   7
   6   0  -4 8941.61 290.786   5
   6   0  -4 9748.50 325.928   8
  -6   0   4 9102.54 521.148  14
   6   0  -4 8840.11 469.839   4
   6   0  -3 203.414 82.4463   4
  -6   0   2 48794.3 1130.59   3
   6   0  -2 48739.0 1200.00   4
  -6   0   1 8480.24 412.017   3
   6   0  -1 8929.99 440.631   4
  -6   0   0 2062.81 207.461   3
   6   0   0 2199.30 203.064   2
   6   0   0 2222.27 148.934   8
  -6   0   0 1998.98 184.362  13
   6   0   0 2319.61 219.376   4
  -6   0  -1 17527.4 649.599   3
   6   0   1 17656.2 396.233   6
   6   0   1 17265.5 631.894   2
   6   0   1 17751.2 436.503   5
   6   0   1 18071.2 474.300   8
   6   0   1 17565.9 442.141   7
  -6   0  -1 17274.8 592.035  13
   6   0   1 18274.4 636.540   4
   6   0   2 23173.1 496.150   6
  -6   0  -2 24981.1 812.672   3
   6   0   2 23917.4 784.913   2
   6   0   2 25045.0 584.898   8
   6   0   2 24466.3 546.425   7
  -6   0  -2 22247.7 718.811  13
   6   0   3 4978.45 194.327   6
  -6   0  -3 4938.13 345.345   3
   6   0   3 4998.14 355.428   2
   6   0   3 5354.73 240.636   8
   6   0   3 4954.12 217.259   7
  -6   0  -3 4965.39 326.986  13
   6   0   4 7618.87 294.387   8
   6   0   4 7408.39 270.679   7
   6   0   5 18.9781 28.6439   7
   6   0   5 20.4697 31.3217   8
  -6   0  -6 10435.4 341.217  21
   6   0   6 10628.0 348.075   8
  -6   0  -7 238.373 55.2236  21
   6   0   7 176.603 41.6590  19
   6   0   7 222.904 53.9408   8
  -6   0  -8 3466.86 170.857  21
   6   0   8 3403.36 147.006  19
   6   0   8 3796.26 175.576   8
  -6   0  -9 3488.60 154.732  21
   6   0   9 3183.35 128.465  19
   6   0   9 3557.40 149.269   8
  -6   0 -10 51.8600 22.0791  21
   6   0  10 52.1315 20.6971   8
   6   1 -13 3173.18 106.564   5
   6   1 -13 3230.51 124.226   7
   6   1 -12 10657.8 269.146   5
   6   1 -12 10989.5 298.815   7
   6   1 -11 2723.70 140.615   5
   6   1 -11 2743.84 152.050   7
   6   1 -10 3844.42 179.432   5
   6   1 -10 4143.25 203.977   7
   6   1  -9 25906.1 572.037   5
   6   1  -9 25788.3 611.031   7
   6   1  -8 16725.8 471.005   8
   6   1  -8 16283.1 433.619   5
   6   1  -8 16999.0 473.142   7
   6   1  -7 11491.3 379.289   8
   6   1  -7 11316.5 346.878   5
   6   1  -7 11488.2 372.542   7
   6   1  -6 6149.71 260.416   8
   6   1  -6 6079.37 239.845   5
   6   1  -6 5982.07 391.603   4
   6   1  -6 6053.61 256.964   7
   6   1  -5 9488.31 308.348   5
   6   1  -5 10018.5 339.823   8
   6   1  -5 9811.56 490.647   4
   6   1  -5 9791.14 332.357   7
   6   1  -4 52980.2 940.912   5
   6   1  -4 53638.0 992.881   8
   6   1  -4 50925.0 1268.36   4
   6   1  -4 50912.6 967.257   7
   6   1  -3 16320.2 410.792   5
   6   1  -3 16881.1 452.762   8
  -6   1   3 15733.8 567.469  13
   6   1  -3 16570.3 626.543   4
   6   1  -3 15750.6 429.507   7
  -6   1   2 4481.04 284.681   3
   6   1  -2 4519.71 216.645   8
  -6   1   2 4483.59 289.745  13
   6   1  -2 4516.35 306.229   4
  -6   1   1 11084.0 464.775   3
   6   1  -1 10175.7 460.211   2
   6   1  -1 11213.5 355.021   8
  -6   1   1 10284.2 456.051  13
   6   1  -1 10310.3 470.102   4
  -6   1   0 14084.4 549.154   3
   6   1   0 13196.9 558.227   2
   6   1   0 14239.5 410.947   8
   6   1   0 14011.1 393.853   7
  -6   1   0 12745.0 520.718  13
   6   1   0 14132.5 545.775   4
  -6   1  -1 3642.78 279.532   3
   6   1   1 3328.88 151.519   6
   6   1   1 3441.16 166.720   5
   6   1   1 3115.30 268.166   2
   6   1   1 3639.86 195.347   8
   6   1   1 3395.78 183.909   7
  -6   1  -1 3314.92 256.943  13
   6   1   1 3286.85 254.728   4
  -6   1  -2 4824.18 330.842   3
   6   1   2 4326.99 181.228   6
   6   1   2 4253.03 328.246   2
   6   1   2 5037.28 233.247   8
   6   1   2 4581.92 216.540   7
  -6   1  -2 4633.16 314.991  13
   6   1   2 4747.73 298.951   4
   6   1   2 4660.00 171.560  22
  -6   1  -3 6908.91 404.272   3
   6   1   3 6494.26 228.492   6
   6   1   3 6701.39 424.478   2
   6   1   3 6935.55 280.269   8
   6   1   3 6607.05 261.005   7
  -6   1  -3 6335.33 381.871  13
   6   1   3 6268.51 213.638  22
  -6   1  -4 25017.1 576.944  21
   6   1   4 26094.8 549.535   6
   6   1   4 26601.4 626.025   8
   6   1   4 25967.9 595.865   7
  -6   1  -5 5801.78 239.771  21
   6   1   5 5972.85 220.365   6
   6   1   5 6075.98 263.635   8
   6   1   5 5823.59 244.520   7
  -6   1  -6 1228.45 108.031  21
   6   1   6 1329.93 120.764   8
   6   1   6 1056.75 100.095   7
  -6   1  -7 274.094 51.9916  21
   6   1   7 441.051 69.5331   8
  -6   1  -8 2275.81 133.367  21
  -6   1  -8 2207.37 126.651  12
   6   1   8 2071.35 108.250  19
   6   1   8 2536.72 142.955   8
  -6   1  -9 2278.48 119.144  21
   6   1   9 2098.65 98.3657  19
  -6   1 -10 3012.88 113.981  21
   6   1  10 3160.61 116.171   8
   6   2 -13 35.8836 18.0999   7
   6   2 -13 20.4445 14.8386   5
   6   2 -12 236.549 41.9685   7
   6   2 -12 149.848 32.5433   5
   6   2 -11 5731.35 203.346   5
   6   2 -11 5555.16 220.197   7
   6   2 -10 9025.33 286.655   5
   6   2 -10 9109.62 311.726   7
   6   2  -9 6011.28 220.548  12
   6   2  -9 6384.06 267.970   7
   6   2  -8 12609.8 384.035   8
   6   2  -8 12770.8 369.986   5
   6   2  -8 12584.3 351.246  12
   6   2  -8 12700.6 402.816   7
   6   2  -7 23016.3 561.795   8
   6   2  -7 22496.1 535.933   5
   6   2  -7 23341.9 526.831  12
   6   2  -7 22782.3 574.570   7
   6   2  -6 33454.0 720.836   8
   6   2  -6 33042.8 688.028   5
   6   2  -6 32855.6 733.634   7
   6   2  -6 34401.4 691.556  12
   6   2  -5 27509.7 631.283   8
   6   2  -5 28257.3 605.119   5
  -6   2   5 29188.0 926.405  13
   6   2  -5 26725.5 866.334   4
   6   2  -5 27915.7 646.523   7
   6   2  -5 29366.0 616.993  12
   6   2  -4 7921.66 273.687   5
   6   2  -4 8765.54 308.549   8
  -6   2   4 8836.19 463.223  13
   6   2  -4 7889.52 429.440   4
   6   2  -4 7967.89 299.109   7
   6   2  -4 8374.81 286.201  12
   6   2  -3 18870.3 422.358   6
   6   2  -3 19188.0 453.572   5
   6   2  -3 19457.2 495.655   8
  -6   2   3 19142.1 698.882  13
   6   2  -3 18755.8 673.041   4
   6   2  -3 18727.0 489.720   7
   6   2  -2 22173.8 476.141   6
   6   2  -2 22856.8 500.207   5
   6   2  -2 22664.7 549.023   8
  -6   2   2 22977.7 761.523  13
   6   2  -2 22693.1 547.465   7
   6   2  -2 21615.2 724.922   4
   6   2  -1 14350.5 360.682   6
   6   2  -1 15303.9 429.743   8
   6   2  -1 14562.4 596.840   2
  -6   2   1 14944.6 603.285  13
   6   2  -1 14781.7 418.931   7
   6   2  -1 15135.2 582.787   4
   6   2   0 10534.8 296.789   6
   6   2   0 9999.01 503.702   2
   6   2   0 10686.2 349.630   8
  -6   2   0 10501.2 497.842  13
   6   2   0 10849.4 349.162   7
   6   2   0 10889.8 481.950   4
   6   2   1 7450.26 247.041   6
   6   2   1 8063.00 457.222   2
   6   2   1 8023.48 297.836   8
   6   2   1 7640.90 289.763   7
  -6   2  -1 7069.17 408.477  13
   6   2   1 8053.37 408.133   4
   6   2   2 13579.4 352.532   6
   6   2   2 13601.5 627.493   2
   6   2   2 13719.0 409.059   8
   6   2   2 13546.7 402.615   7
  -6   2  -2 13108.2 572.471  13
   6   2   2 13377.6 328.375  22
   6   2   2 13545.0 543.138   4
   6   2   3 8277.38 270.930   6
   6   2   3 8707.79 318.025   8
   6   2   3 8605.39 311.387   7
   6   2   3 8557.48 255.895  22
   6   2   4 4693.52 197.817   6
   6   2   4 5083.16 239.411   8
   6   2   4 5260.20 234.746   7
   6   2   4 4909.50 189.887  22
   6   2   5 488.485 61.9927  22
   6   2   5 482.611 71.1519   7
  -6   2  -5 591.749 75.8190  21
   6   2   5 465.520 66.3464   6
   6   2   5 556.055 83.7045   8
   6   2   6 16077.4 444.798   8
   6   2   6 16560.9 432.136   7
  -6   2  -7 7318.24 251.517  21
   6   2   7 7928.15 278.373   8
  -6   2  -8 10729.0 295.653  21
  -6   2  -8 11209.6 311.650  12
   6   2   8 11692.8 325.578   8
  -6   2  -9 432.227 47.8187  21
  -6   2  -9 366.157 40.8248  12
   6   2   9 433.431 52.9602   8
   6   2  10 2419.17 94.5849   8
   6   3 -13 1019.46 56.3401   7
   6   3 -12 4540.73 148.820   5
   6   3 -12 4519.81 162.154   7
   6   3 -11 2200.21 116.340   5
   6   3 -11 2204.26 127.270   7
   6   3 -10 673.827 77.6591   7
   6   3 -10 640.631 69.0580   5
   6   3 -10 602.205 62.6181  12
   6   3  -9 6763.98 244.218   5
   6   3  -9 6811.61 268.581   7
   6   3  -9 6644.18 234.738  12
   6   3  -8 6038.26 239.602   5
   6   3  -8 6306.66 265.279   7
   6   3  -8 5994.77 233.622  12
   6   3  -7 2254.28 143.351   8
   6   3  -7 2183.34 144.870   5
   6   3  -7 2575.48 167.429   7
   6   3  -7 2378.07 151.350  12
   6   3  -6 1198.83 88.6704   6
   6   3  -6 1262.18 108.323   8
   6   3  -6 1271.98 107.172   5
   6   3  -6 1349.33 126.642   7
   6   3  -6 1353.05 116.087  12
   6   3  -5 128.336 55.3114   7
   6   3  -5 119.811 36.7770  12
   6   3  -5 90.9348 27.0689   6
   6   3  -5 137.286 41.5874   8
   6   3  -5 137.016 44.6402   5
   6   3  -4 15982.3 395.329   6
   6   3  -4 15897.2 412.177   5
   6   3  -4 15712.7 432.437   8
  -6   3   4 18217.5 737.918  13
   6   3  -4 16365.0 462.823   7
   6   3  -4 17453.5 444.554  12
   6   3  -3 32564.1 647.484   6
   6   3  -3 32910.3 655.460   5
   6   3  -3 32385.4 692.006   8
  -6   3   3 34872.9 1050.02  13
   6   3  -3 33358.1 722.380   7
   6   3  -3 33481.2 953.503   4
   6   3  -3 34711.8 703.290  12
   6   3  -2 6153.83 225.862   6
   6   3  -2 6105.59 250.882   8
  -6   3   2 7058.86 432.401  13
   6   3  -2 6122.93 258.585   7
   6   3  -2 6315.48 378.297   4
   6   3  -1 13236.3 348.628   6
   6   3  -1 12728.2 384.883   8
  -6   3   1 13056.5 596.852  13
   6   3  -1 13502.1 404.240   7
   6   3  -1 12966.0 550.056   4
   6   3   0 29312.9 593.284   6
   6   3   0 28570.4 642.502   8
   6   3   0 27233.8 916.857   2
  -6   3   0 30951.1 954.638  13
   6   3   0 28939.5 656.761   7
   6   3   0 29393.6 872.701   4
   6   3   1 36025.3 686.235   6
   6   3   1 35107.0 745.903   8
   6   3   1 35274.0 748.191   7
   6   3   2 536.666 75.4720   7
   6   3   2 656.033 74.6926   6
   6   3   2 621.544 79.9777   8
   6   3   2 796.481 71.2817  22
   6   3   3 432.588 54.5737  22
   6   3   3 489.849 78.5827   7
   6   3   3 428.206 59.5419   6
   6   3   3 419.637 75.0142   8
   6   3   4 14757.5 378.952   6
   6   3   4 14976.3 424.704   8
   6   3   4 14643.6 417.910   7
   6   3   4 15392.3 369.568  22
   6   3   5 30074.3 601.682   6
   6   3   5 29879.6 661.581   8
   6   3   5 30932.6 653.613   7
   6   3   5 30899.8 594.208  22
   6   3   6 5750.59 235.651   8
   6   3   6 5758.90 228.118   7
   6   3   6 5447.34 194.909  22
  -6   3  -7 8346.61 279.336  12
   6   3   7 8553.89 275.697   8
  -6   3  -8 8303.08 250.177  12
   6   3   8 8381.96 248.050   8
  -6   3  -9 2053.41 91.8767  12
   6   3   9 1931.16 91.8418   8
   6   4 -12 4769.52 132.476   5
   6   4 -12 4969.94 139.616   7
   6   4 -11 775.571 62.4483   5
   6   4 -11 819.784 67.0625   7
   6   4 -10 5062.77 182.348   5
   6   4 -10 5553.45 204.046   7
   6   4 -10 5064.60 174.165  12
   6   4  -9 8389.74 255.910   5
   6   4  -9 8324.29 281.944   7
   6   4  -9 8394.56 259.003  12
   6   4  -8 1128.15 78.0378   6
   6   4  -8 1146.38 100.776   5
   6   4  -8 1154.42 106.008   7
   6   4  -8 1108.41 100.563  12
   6   4  -7 1525.43 100.361   6
   6   4  -7 1529.63 114.698   5
   6   4  -7 1769.59 133.096   7
   6   4  -7 1667.46 123.355  12
   6   4  -6 25714.7 548.097   6
   6   4  -6 27080.3 567.423   5
   6   4  -6 26864.2 625.689   7
   6   4  -6 28068.8 606.870  12
   6   4  -5 27298.1 573.271   6
   6   4  -5 27723.8 577.178   5
   6   4  -5 28589.8 649.166   7
   6   4  -5 28279.5 624.041  12
   6   4  -4 3797.07 173.825   6
   6   4  -4 3750.41 201.692   7
   6   4  -4 4013.23 198.543  12
   6   4  -3 3436.96 166.963   6
   6   4  -3 3576.21 194.354   7
   6   4  -3 3642.33 189.902  12
   6   4  -2 30337.8 622.269   6
   6   4  -2 30286.2 676.748   7
   6   4  -1 35629.0 693.980   6
   6   4  -1 35315.3 750.705   7
   6   4   0 1485.06 112.037   6
   6   4   0 1276.21 108.711   8
   6   4   0 1397.05 120.268   7
   6   4   1 16468.9 402.946   6
   6   4   1 15756.2 428.151   8
   6   4   1 15745.9 439.557   7
   6   4   2 13981.3 363.474   6
   6   4   2 13341.3 385.635   8
   6   4   2 13436.3 395.353   7
   6   4   2 14383.0 343.935  22
   6   4   3 4171.24 179.064   6
   6   4   3 4016.74 194.432   8
   6   4   3 4248.74 201.461   7
   6   4   3 4341.54 171.493  22
   6   4   4 2159.14 121.301   6
   6   4   4 2118.34 136.308   8
   6   4   4 2071.07 134.513   7
   6   4   4 2220.91 119.728  22
  -6   4  -5 952.460 95.1068  12
   6   4   5 968.552 76.7127   6
   6   4   5 833.770 84.0875   8
   6   4   5 1022.51 94.9279   7
   6   4   5 930.802 77.3610  22
  -6   4  -6 8794.50 288.029  12
   6   4   6 8390.96 262.980   8
   6   4   6 8916.54 241.584  22
  -6   4  -7 8205.59 253.570  12
   6   4   7 7098.97 218.721   8
  -6   4  -8 3672.67 138.405  12
   6   4   8 2764.50 109.225   8
   6   5 -10 3972.70 130.342   5
   6   5 -10 4253.29 144.113   7
   6   5  -9 1785.45 81.7694   6
   6   5  -9 1555.97 88.1151   5
   6   5  -9 1600.77 98.6718   7
   6   5  -9 1573.06 99.6800  12
   6   5  -8 8923.46 233.786   6
   6   5  -8 8815.46 242.018   5
   6   5  -8 8576.39 268.835   7
   6   5  -8 8768.19 268.756  12
   6   5  -7 5781.57 195.014   6
   6   5  -7 5734.39 196.478   5
   6   5  -7 6155.56 234.035   7
   6   5  -7 6281.24 228.873  12
   6   5  -6 6064.09 211.299   6
   6   5  -6 5752.67 235.177   7
   6   5  -6 5879.39 229.454  12
   6   5  -5 3843.67 172.172   6
   6   5  -5 3970.84 195.887   7
   6   5  -5 4454.37 198.645  12
   6   5  -4 10366.2 306.654   6
   6   5  -4 10663.0 341.185   7
   6   5  -4 10878.3 330.827  12
   6   5  -3 3579.40 170.870   6
   6   5  -3 3397.81 182.808   7
   6   5  -2 230.226 49.2565   7
   6   5  -2 230.710 45.7615   6
   6   5  -1 5239.11 204.526   6
   6   5  -1 4887.09 217.534   7
   6   5   0 21511.0 478.122   6
   6   5   0 20851.1 505.276   7
   6   5   1 5845.09 210.669   6
   6   5   1 5725.19 229.769   7
   6   5   1 5907.26 192.766  22
  -6   5  -2 847.161 91.5815  12
   6   5   2 1044.00 86.7470   6
   6   5   2 1079.26 94.5905   7
   6   5   2 973.253 79.6343  22
  -6   5  -3 3524.28 179.869  12
   6   5   3 3855.84 157.515   6
   6   5   3 3544.85 166.893   7
   6   5   3 3672.21 151.001  22
  -6   5  -4 5891.24 231.533  12
   6   5   4 6122.08 194.816   6
   6   5   4 5814.70 208.198   7
   6   5   4 5872.31 191.178  22
  -6   5  -5 4212.62 179.579  12
   6   5   5 3903.38 142.682   6
   6   5   5 3994.03 148.648  22
  -6   5  -6 10134.4 275.585  12
   6   5   6 9357.11 232.736  22
  -6   5  -7 221.389 33.7002  12
   6   6  -8 7712.38 189.530   6
   6   6  -7 8483.89 220.734   6
   6   6  -7 8505.00 229.818   7
   6   6  -7 8446.73 240.979  12
   6   6  -6 5394.06 180.268   6
   6   6  -6 5447.27 189.019   7
   6   6  -6 5125.17 190.208  12
   6   6  -5 412.513 56.4578   7
   6   6  -5 461.899 53.6971   6
   6   6  -4 2132.33 118.718   6
   6   6  -4 2323.61 128.049   7
   6   6  -3 477.575 60.7184   7
   6   6  -3 461.795 55.3607   6
   6   6  -2 375.812 53.2744   7
   6   6  -2 360.128 52.0529   6
   6   6  -1 368.007 52.8224   7
   6   6  -1 429.635 57.7874   6
   6   6   0 8475.31 243.262   6
   6   6   0 8216.18 249.640   7
   6   6   1 6221.50 200.055   6
   6   6   1 6243.48 206.095   7
   6   6   1 6151.84 177.583  22
   6   6   2 17934.6 376.086   6
   6   6   2 17541.1 381.936   7
   6   6   2 17849.0 357.435  22
  -6   6  -3 7869.05 234.270  12
   6   6   3 8428.15 216.563   6
   6   6   3 8443.44 222.516   7
   6   6   3 8522.23 212.828  22
  -6   6  -4 6804.51 205.585  12
   6   6   4 6896.03 177.126   6
   6   6   4 6972.53 183.035  22
  -6   6  -5 1520.85 82.1163  12
   6   6   5 1339.99 68.2373  22
  -6   6  -6 2095.95 82.4205  12
   6   7  -7 1026.10 51.3977   6
   6   7  -6 1366.09 68.6135   6
   6   7  -5 5000.19 151.100   6
   6   7  -4 4924.32 154.439   6
   6   7  -3 2380.17 106.727   6
   6   7  -2 385.735 45.5556   6
   6   7  -1 9942.21 238.387   6
   6   7   0 949.682 63.9708   6
   6   7   1 2362.81 95.3999   6
  -6   7  -2 5806.97 141.844  22
   6   7   2 6074.93 148.178   6
  -6   7  -3 1273.24 56.2828  22
   7  -6  -7 3828.26 121.077  18
   7  -6  -6 10923.7 253.076  18
   7  -6  -5 3182.57 128.062  18
   7  -6  -4 1815.83 98.3137  18
   7  -6  -3 484.074 52.6967  18
   7  -6  -2 3424.60 144.077  18
   7  -6  -1 634.783 60.1343  18
   7  -6   0 6097.05 197.486  18
   7  -6   1 3470.48 139.960  18
   7  -6   2 11186.3 265.917  18
   7  -6   3 3484.37 121.436  18
   7  -5  -8 8768.59 232.821  18
   7  -5  -7 4508.86 168.792  18
   7  -5  -6 839.732 75.7010  18
   7  -5  -5 7218.84 243.003  18
   7  -5  -4 6076.10 224.736  18
   7  -5  -3 4861.66 202.429  18
   7  -5  -2 4157.58 188.870  18
   7  -5  -1 1254.27 99.5434  18
   7  -5   0 6025.43 229.037  18
   7  -5   1 2636.81 144.270  18
   7  -5   2 7393.12 245.667  18
   7  -5   3 838.166 76.4414  18
   7  -5   4 1717.12 81.4873  10
   7  -5   4 1872.61 104.254  18
  -7  -5  -5 8935.26 204.885  21
   7  -5   5 10056.0 238.643  18
   7  -4  -9 3086.39 136.590  18
   7  -4  -8 363.843 50.4558  18
   7  -4  -7 2306.51 134.311  18
   7  -4  -6 11008.1 326.820  18
   7  -4  -5 14481.2 396.740  18
   7  -4  -4 2921.16 166.820  18
   7  -4  -3 1199.21 106.261  18
   7  -4  -2 1993.00 137.477  18
   7  -4  -1 2012.10 139.791  18
   7  -4   0 10319.4 337.575  18
   7  -4   1 1572.76 126.772  18
   7  -4   2 4364.78 204.875  18
   7  -4   3 7740.93 273.605  18
   7  -4   4 3548.08 151.745  10
   7  -4   4 4113.56 183.759  18
  -7  -4  -5 119.743 32.1889  21
   7  -4   5 69.4784 23.6423  10
   7  -4   5 79.8557 35.9206  18
  -7  -4  -6 11152.6 256.735  21
   7  -4   6 11513.9 277.409  18
   7  -4   7 5977.80 159.281  18
   7  -3  -9 3219.76 151.218  18
   7  -3  -8 8894.86 282.779  18
   7  -3  -7 603.880 72.6568  18
   7  -3  -7 651.853 69.8486   5
   7  -3  -6 11485.6 350.651  18
   7  -3  -6 11763.6 325.071   5
   7  -3  -5 4112.83 202.417  18
   7  -3  -5 4408.03 191.926   5
   7  -3  -5 4539.16 198.955   8
   7  -3  -4 19131.8 485.967  18
   7  -3  -4 18118.4 451.890   5
   7  -3  -3 11455.4 363.496  18
   7  -3  -3 11680.1 345.165   5
   7  -3  -2 5448.79 238.621  18
   7  -3  -1 6759.65 271.095  18
   7  -3   0 22057.9 546.745  18
   7  -3   1 976.637 102.841  18
   7  -3   2 3449.24 191.377  18
   7  -3   3 803.140 91.6958  18
   7  -3   4 2048.73 143.052  18
   7  -3   5 6105.14 233.691  18
  -7  -3  -6 2914.34 137.949  21
   7  -3   6 3000.41 146.293  18
  -7  -3  -7 174.573 33.5850  21
   7  -3   7 113.479 23.9695  10
   7  -3   7 136.791 32.2533  18
   7  -2  -9 4376.18 183.104  18
   7  -2  -9 4491.87 167.123   5
   7  -2  -8 11735.3 336.199  18
   7  -2  -8 11976.0 321.430   5
   7  -2  -7 2442.49 144.195  18
   7  -2  -7 2270.85 135.932   5
   7  -2  -7 2472.67 156.194   8
   7  -2  -6 9463.57 309.430  18
   7  -2  -6 9541.17 303.476   5
   7  -2  -6 9481.23 325.210   8
   7  -2  -5 1109.19 101.698  18
   7  -2  -5 1316.21 106.969   5
   7  -2  -5 1221.78 108.855   8
   7  -2  -4 1590.77 122.371  18
   7  -2  -4 1538.44 119.998   5
   7  -2  -4 1873.56 135.433   8
   7  -2  -3 5608.22 233.953  18
   7  -2  -3 5051.04 222.013   5
   7  -2  -3 5269.11 231.824   8
   7  -2  -2 21671.7 531.231  18
   7  -2  -2 21581.0 521.455   5
   7  -2  -2 22607.6 539.533   8
   7  -2  -1 7159.53 273.178  18
   7  -2  -1 7062.52 264.604   5
   7  -2  -1 6844.33 266.754   8
   7  -2   0 3319.43 185.142  18
   7  -2   0 3357.16 183.922   8
   7  -2   1 6949.69 277.622  18
   7  -2   1 7112.85 271.636   8
   7  -2   2 7744.63 294.186  18
   7  -2   2 7720.76 280.183   8
   7  -2   3 2241.07 153.023  18
   7  -2   3 2031.71 135.119   8
   7  -2   4 131.219 48.3415  18
   7  -2   5 968.341 93.4168  18
  -7  -2  -6 5084.78 203.101  21
   7  -2   6 4839.64 200.755  18
  -7  -2  -7 5273.38 185.666  21
   7  -2   7 4499.99 174.115  18
  -7  -2  -8 10439.9 236.804  21
   7  -2   8 7941.82 199.844  18
   7  -1 -11 3464.58 123.857   5
   7  -1 -10 620.175 60.3594   5
   7  -1  -9 2046.83 120.503   5
   7  -1  -8 14089.0 363.119  18
   7  -1  -8 14131.0 376.534   5
   7  -1  -7 706.430 74.9840  18
   7  -1  -7 920.491 90.7394   5
   7  -1  -7 764.082 93.4787   8
   7  -1  -6 2981.60 157.196  18
   7  -1  -6 3070.32 167.007   5
   7  -1  -6 3336.32 190.090   8
   7  -1  -5 25423.2 569.106  18
   7  -1  -5 27052.1 597.715   5
   7  -1  -5 27431.9 632.929   8
   7  -1  -4 12151.6 352.915  18
   7  -1  -4 12691.8 370.249   5
   7  -1  -4 12829.8 397.161   8
   7  -1  -3 11197.6 339.519  18
   7  -1  -3 12176.7 360.764   5
   7  -1  -3 12093.8 380.944   8
   7  -1  -2 13688.1 383.407  18
   7  -1  -2 14659.6 401.626   5
   7  -1  -2 14619.7 429.623   8
   7  -1  -1 7085.93 263.800  18
   7  -1  -1 7627.09 273.312   5
   7  -1  -1 7472.16 295.779   8
   7  -1   0 5681.86 233.928  18
   7  -1   0 5858.38 241.213   5
   7  -1   0 5955.00 260.148   8
   7  -1   1 7658.44 285.688  18
   7  -1   1 7859.70 304.004   8
   7  -1   2 2810.86 166.193  18
   7  -1   2 3003.89 181.455   8
   7  -1   3 456.371 68.9813  18
   7  -1   3 478.897 73.3015   8
   7  -1   4 10333.7 325.258  18
   7  -1   4 9929.93 329.828   8
  -7  -1  -5 14745.2 400.482  21
   7  -1   5 14929.3 392.253   8
  -7  -1  -6 2237.09 134.552  21
   7  -1   6 2135.51 123.897  18
   7  -1   6 2158.80 124.674   8
  -7  -1  -7 1478.94 100.554  21
   7  -1   7 1334.14 85.4762   8
  -7  -1  -8 4376.29 156.600  21
   7   0 -12 1005.51 57.3261   5
   7   0 -11 2735.29 120.108   5
   7   0 -11 2682.02 119.552   7
   7   0 -10 4935.53 186.784   5
   7   0 -10 4813.83 187.285   7
   7   0  -9 1755.31 117.256   5
   7   0  -9 1676.37 115.578   7
   7   0  -8 4062.62 190.787   5
   7   0  -8 4359.79 217.899   8
   7   0  -8 4331.69 197.828   7
   7   0  -7 6671.89 252.371   5
   7   0  -7 7066.89 287.203   8
   7   0  -7 6618.36 255.838   7
   7   0  -6 16032.8 432.744   5
   7   0  -6 17137.7 478.460   8
   7   0  -6 16000.1 433.858   7
   7   0  -5 3578.42 184.228   5
   7   0  -5 3839.36 207.323   8
   7   0  -5 3202.23 178.882   7
   7   0  -4 46340.1 880.374   5
   7   0  -4 47577.0 927.920   8
   7   0  -4 44481.4 873.477   7
   7   0  -3 17204.2 447.812   5
   7   0  -3 17999.7 488.591   8
   7   0  -2 4528.57 208.162   5
   7   0  -2 4436.08 228.455   8
   7   0  -2 4345.47 202.012   7
   7   0  -1 7487.67 271.855   5
   7   0  -1 7474.11 301.411   8
   7   0  -1 7095.85 264.888   7
   7   0   0 477.052 69.3254   7
   7   0   0 486.396 68.5362   5
   7   0   0 546.653 85.8897   8
   7   0   1 57.0269 36.1879   7
   7   0   1 50.6023 20.5654   6
   7   0   1 36.7041 34.6306   8
   7   0   2 1185.77 90.5018   6
   7   0   2 1291.03 121.739   8
   7   0   2 1216.38 102.874   7
   7   0   3 35613.2 753.490   8
   7   0   3 33796.5 689.352   7
   7   0   4 4821.53 225.287   8
   7   0   4 4342.46 192.548   7
  -7   0  -5 6766.76 255.040  21
   7   0   5 7502.98 275.883   8
  -7   0  -6 1430.37 106.756  21
   7   0   6 1318.82 104.394   8
  -7   0  -7 2982.65 142.891  21
   7   0   7 2968.82 142.656   8
  -7   0  -8 9199.63 241.626  21
   7   0   8 9004.31 231.869   8
   7   1 -12 9480.06 217.960   5
   7   1 -12 9232.63 223.543   7
   7   1 -11 3866.41 149.694   5
   7   1 -11 4012.53 158.551   7
   7   1 -10 592.701 70.1230   7
   7   1 -10 494.312 62.0272   5
   7   1  -9 2581.81 144.705   5
   7   1  -9 2657.49 154.519   7
   7   1  -8 15488.9 439.254   8
   7   1  -8 15154.7 404.635   5
   7   1  -8 15221.5 423.637   7
   7   1  -7 1445.10 126.806   8
   7   1  -7 1436.10 116.406   5
   7   1  -7 1408.09 118.779   7
   7   1  -6 2879.36 168.777   5
   7   1  -6 3333.08 191.206   8
   7   1  -6 3263.42 185.414   7
   7   1  -5 28214.4 617.792   5
   7   1  -5 29031.6 664.282   8
   7   1  -5 27269.6 637.710   7
   7   1  -4 15111.0 410.623   5
   7   1  -4 14744.8 438.956   8
   7   1  -4 14629.3 425.680   7
   7   1  -3 10377.1 330.989   5
   7   1  -3 10391.5 359.847   8
   7   1  -3 10055.6 341.377   7
   7   1  -2 12743.9 373.956   5
   7   1  -2 13606.6 417.427   8
   7   1  -2 13203.5 396.161   7
   7   1  -1 7413.97 235.139   6
   7   1  -1 7803.03 272.883   5
   7   1  -1 8379.41 318.159   8
   7   1  -1 8107.44 296.570   7
   7   1   0 5059.47 191.406   6
   7   1   0 5017.55 207.536   5
   7   1   0 5111.14 249.552   8
   7   1   0 5183.73 231.954   7
   7   1   1 6983.85 232.375   6
   7   1   1 6996.85 252.024   5
   7   1   1 7316.41 300.129   8
   7   1   1 7006.64 274.781   7
   7   1   2 2137.00 126.753   6
   7   1   2 2123.01 159.129   8
   7   1   2 2123.86 143.801   7
   7   1   3 412.538 64.8758   7
  -7   1  -3 529.796 68.8397  21
   7   1   3 428.405 57.4516   6
   7   1   3 468.642 73.9673   8
  -7   1  -4 8706.85 282.872  21
   7   1   4 8980.31 321.092   8
   7   1   4 8779.45 292.173   7
  -7   1  -5 13713.2 368.718  21
   7   1   5 14609.7 411.233   8
   7   1   5 14532.7 381.511   7
  -7   1  -6 2341.20 129.572  21
   7   1   6 2515.26 147.484   8
  -7   1  -7 1400.53 91.9995  21
  -7   1  -7 1414.52 95.3272  12
   7   1   7 1538.34 102.239   8
  -7   1  -8 3410.81 124.424  21
  -7   1  -8 3064.69 112.386  12
   7   1   8 3446.00 134.521   8
   7   2 -12 24.6098 15.6920   7
   7   2 -12 79.9449 20.5708   5
   7   2 -11 2934.28 125.862   5
   7   2 -11 2957.20 134.151   7
   7   2 -10 16651.0 385.623   5
   7   2 -10 16590.8 407.104   7
   7   2  -9 3443.22 165.197   5
   7   2  -9 3375.84 175.385   7
   7   2  -8 11323.7 347.445   8
   7   2  -8 11508.3 333.303   5
   7   2  -8 10969.4 352.725   7
   7   2  -7 2389.04 156.871   8
   7   2  -7 2521.91 149.343   5
   7   2  -7 2392.83 158.758   7
   7   2  -6 10242.5 328.076   5
   7   2  -6 10436.2 349.134   8
   7   2  -6 10351.0 351.015   7
   7   2  -5 721.313 88.4986   7
   7   2  -5 666.613 84.1376   8
   7   2  -5 688.036 79.9292   5
   7   2  -4 1390.93 115.530   5
   7   2  -4 1239.23 118.584   7
   7   2  -3 5497.16 194.600   6
   7   2  -3 5204.68 220.275   5
   7   2  -3 5364.97 244.583   8
   7   2  -3 5063.29 237.806   7
   7   2  -2 21345.4 466.500   6
   7   2  -2 21741.1 502.333   5
   7   2  -2 22665.0 563.037   8
   7   2  -2 22194.4 555.258   7
   7   2  -1 5486.91 205.234   6
   7   2  -1 5946.91 221.533   5
   7   2  -1 5980.93 263.870   8
   7   2  -1 5863.13 257.279   7
   7   2   0 3519.58 160.270   6
   7   2   0 3440.63 198.808   8
   7   2   0 3304.77 188.936   7
   7   2   1 6916.40 237.510   6
   7   2   1 7011.66 290.666   8
   7   2   1 7166.96 282.315   7
   7   2   2 8796.82 273.737   6
   7   2   2 9169.81 332.615   8
   7   2   2 8855.04 311.014   7
   7   2   3 1501.58 106.437   6
   7   2   3 1675.86 135.294   8
   7   2   3 1546.44 124.192   7
   7   2   4 18.8175 29.6804   7
   7   2   4-2.26636 23.7367   6
   7   2   4 78.8514 47.0510   8
   7   2   5 1080.46 105.541   8
   7   2   5 1121.02 97.9595   7
   7   2   6 4613.29 195.616   8
  -7   2  -7 5230.95 188.204  12
   7   2   7 5351.38 190.818   8
  -7   2  -8 9350.60 220.098  12
   7   2   8 9751.95 237.046   8
   7   3 -11 1913.55 90.0448   5
   7   3 -11 1871.88 97.8467   7
   7   3 -10 563.783 64.4146   7
   7   3 -10 528.603 55.2048   5
   7   3  -9 3252.31 151.748   5
   7   3  -9 3585.64 171.225   7
   7   3  -8 9840.89 292.319   5
   7   3  -8 10179.5 323.379   7
   7   3  -7 621.996 80.8540   7
   7   3  -7 547.259 67.5676   8
   7   3  -7 504.758 66.4675   5
   7   3  -6 10957.8 323.966   5
   7   3  -6 10968.6 334.186   8
   7   3  -6 11127.1 363.392   7
   7   3  -5 3561.52 151.722   6
   7   3  -5 3512.46 172.461   5
   7   3  -5 3217.84 175.550   8
   7   3  -5 3611.24 195.265   7
   7   3  -4 19909.5 438.348   6
   7   3  -4 19708.1 465.626   5
   7   3  -4 19090.3 487.232   8
   7   3  -4 19722.9 516.894   7
   7   3  -3 10949.6 304.871   6
   7   3  -3 11141.2 320.886   5
   7   3  -3 11129.7 352.484   8
   7   3  -3 11309.8 369.419   7
   7   3  -2 5197.62 199.375   6
   7   3  -2 4844.20 226.986   8
   7   3  -2 5207.06 240.060   7
   7   3  -1 6735.00 233.514   6
   7   3  -1 6680.65 269.931   8
   7   3  -1 6693.43 273.596   7
   7   3   0 24342.7 517.493   6
   7   3   0 23648.4 576.303   8
   7   3   0 23817.7 573.251   7
   7   3   1 549.665 80.2096   7
   7   3   1 574.840 69.2434   6
   7   3   1 570.676 83.1561   8
   7   3   2 2738.00 142.537   6
   7   3   2 2534.15 162.809   8
   7   3   2 2921.69 166.420   7
   7   3   3 966.682 85.2922   6
   7   3   3 900.029 95.3902   8
   7   3   3 927.439 93.2253   7
   7   3   3 822.692 72.1459  22
   7   3   4 1403.91 97.0215   6
   7   3   4 1499.71 114.311   8
   7   3   4 1425.22 110.686   7
   7   3   5 5358.89 209.393   8
   7   3   5 5209.08 201.842   7
  -7   3  -6 3503.44 160.026  12
   7   3   6 3160.81 145.928   8
  -7   3  -7 245.925 38.2332  12
   7   3   7 161.382 29.9788   8
   7   4 -11 1276.12 62.8965   7
   7   4 -10 4063.45 134.322   5
   7   4 -10 4242.68 150.387   7
   7   4  -9 3571.31 139.761   5
   7   4  -9 3894.91 161.798   7
   7   4  -8 329.437 51.6065   7
   7   4  -8 321.927 48.0430   5
   7   4  -7 1888.13 95.2528   6
   7   4  -7 1855.02 109.838   5
   7   4  -7 1923.51 128.108   7
   7   4  -6 12758.8 307.581   6
   7   4  -6 13125.3 329.448   5
   7   4  -6 12819.7 374.904   7
   7   4  -5 15316.9 362.855   6
   7   4  -5 15330.6 366.426   5
   7   4  -5 15476.8 426.541   7
   7   4  -4 2602.53 134.116   6
   7   4  -4 2339.68 151.683   7
   7   4  -3 1076.68 91.0945   6
   7   4  -3 954.337 98.2053   7
   7   4  -2 1882.72 117.903   6
   7   4  -2 1755.60 118.184   8
   7   4  -2 1797.44 133.385   7
   7   4  -1 1373.25 101.097   6
   7   4  -1 1229.19 102.103   8
   7   4  -1 1371.90 115.370   7
   7   4   0 9394.60 277.656   6
   7   4   0 8589.92 285.776   8
   7   4   0 9152.25 310.148   7
   7   4   1 1478.12 101.795   6
   7   4   1 1474.59 111.809   8
   7   4   1 1410.32 113.891   7
   7   4   2 5024.30 188.165   6
   7   4   2 4711.70 200.216   8
   7   4   2 4895.17 207.201   7
   7   4   3 7899.64 232.268   6
   7   4   3 7839.76 256.242   7
   7   4   3 7478.47 208.046  22
  -7   4  -4 4151.05 183.423  12
   7   4   4 4322.54 160.039   6
   7   4   4 3939.72 167.029   8
   7   4   4 4314.08 173.860   7
  -7   4  -5 41.5165 30.6435  12
   7   4   5-19.2200 22.7552   8
  -7   4  -6 10761.8 260.397  12
   7   4   6 7984.56 212.451   8
  -7   4  -7 5696.77 156.385  12
   7   5  -9 4280.03 136.420   7
   7   5  -8 8925.91 239.909   7
   7   5  -7 5079.49 150.963   6
   7   5  -7 5056.98 185.256   7
   7   5  -6 651.643 71.1649   7
   7   5  -6 608.910 58.1922   6
   7   5  -5 6671.33 203.717   6
   7   5  -5 6601.53 236.374   7
   7   5  -4 4626.40 173.684   6
   7   5  -4 4815.37 201.253   7
   7   5  -3 5457.49 192.072   6
   7   5  -3 5380.95 216.363   7
   7   5  -2 4717.65 178.107   6
   7   5  -2 4747.92 201.091   7
   7   5  -1 1007.78 82.0231   6
   7   5  -1 990.195 88.7374   7
   7   5   0 5335.54 188.073   6
   7   5   0 5138.17 202.567   7
   7   5   1 3191.58 140.715   6
   7   5   1 3172.58 151.711   7
   7   5   2 8420.49 228.265   6
   7   5   2 8207.57 244.676   7
  -7   5  -3 724.733 66.9995  12
   7   5   3 635.054 55.5669   6
   7   5   3 772.012 64.8644   7
   7   5   3 656.189 48.4599  22
  -7   5  -4 1911.93 102.313  12
   7   5   4 1929.79 88.3024   6
  -7   5  -5 10382.5 245.205  12
   7   6  -7 4192.37 109.997   6
   7   6  -6 11719.2 243.153   6
   7   6  -6 11526.9 251.326   7
   7   6  -5 2792.49 108.496   6
   7   6  -5 2865.40 115.556   7
   7   6  -4 1904.71 93.7711   6
   7   6  -4 1829.17 95.1248   7
   7   6  -3 298.654 41.4856   7
   7   6  -3 379.369 45.4518   6
   7   6  -2 2859.80 119.834   6
   7   6  -2 2927.28 125.615   7
   7   6  -1 456.281 48.2228   7
   7   6  -1 487.334 48.3564   6
   7   6   0 5400.96 164.898   6
   7   6   0 5189.67 165.616   7
   7   6   1 3347.82 119.689   6
   7   6   1 3089.41 115.845   7
   7   6   2 9774.03 217.722   6
   7   6   2 9621.50 214.310   7
   7   6   3 3023.03 96.0081   6
   7   7  -4 3350.04 95.3164   6
   7   7  -3 524.079 38.0468   6
   7   7  -2 1209.74 57.7632   6
   7   7  -1 4096.82 111.016   6
   8  -6  -3 78.9665 17.4406  18
   8  -6  -2 3611.25 110.903  18
   8  -6  -1 2694.43 91.4553  18
   8  -5  -7 4673.46 134.048  18
   8  -5  -6 8049.03 204.150  18
   8  -5  -5 393.587 42.0467  18
   8  -5  -4 4541.70 159.263  18
   8  -5  -3 15190.0 340.655  18
   8  -5  -2 298.886 43.0651  18
   8  -5  -1 734.298 63.1493  18
   8  -5   0 2444.39 113.302  18
   8  -5   1 3660.60 135.321  18
   8  -5   2 3125.49 115.366  18
   8  -5   3 3568.23 111.279  18
   8  -4  -8 181.261 30.3675  18
   8  -4  -7 1647.19 91.4166  18
   8  -4  -6 1501.54 93.0199  18
   8  -4  -5 10929.8 294.479  18
   8  -4  -4 11086.5 303.810  18
   8  -4  -3 3772.50 166.796  18
   8  -4  -2 1182.10 91.1807  18
   8  -4  -1 5219.83 199.253  18
   8  -4   0 5189.68 195.850  18
   8  -4   1 2444.14 126.103  18
   8  -4   2 523.758 56.5603  18
   8  -4   3 3797.96 143.606  18
  -8  -4  -4 2276.24 98.0238  21
   8  -4   4 2222.10 96.0927  18
   8  -3  -8 1464.69 88.5267  18
   8  -3  -7 3829.26 155.341  18
   8  -3  -6 4050.53 169.562  18
   8  -3  -5 6200.50 223.493  18
   8  -3  -4 1654.51 111.980  18
   8  -3  -3 9857.82 301.135  18
   8  -3  -2 16990.4 422.703  18
   8  -3  -1 4532.20 194.033  18
   8  -3   0 135.618 38.9227  18
   8  -3   1 10276.2 303.021  18
   8  -3   2 11183.1 308.325  18
   8  -3   3 1296.43 90.7382  18
  -8  -3  -4 200.034 41.3269  21
   8  -3   4 186.166 36.5809  18
  -8  -3  -5 9634.96 232.597  21
   8  -3   5 8421.52 210.741  18
   8  -2  -9 2401.72 99.1521   5
   8  -2  -8 2097.09 106.466  18
   8  -2  -8 2222.59 109.171   5
   8  -2  -7 1833.87 107.602  18
   8  -2  -7 1858.84 109.534   5
   8  -2  -6 5809.42 208.180  18
   8  -2  -6 5967.46 214.795   5
   8  -2  -6 6021.52 230.521   8
   8  -2  -5 4896.84 194.489  18
   8  -2  -5 4964.22 202.880   5
   8  -2  -5 5259.77 217.090   8
   8  -2  -4 1087.29 91.5385  18
   8  -2  -4 1174.37 98.5505   5
   8  -2  -4 1231.29 103.497   8
   8  -2  -3 1155.63 93.2324  18
   8  -2  -3 1067.44 95.4228   5
   8  -2  -3 1239.84 102.314   8
   8  -2  -2 660.952 70.7654  18
   8  -2  -2 713.739 77.8628   8
   8  -2  -1 883.113 82.6214  18
   8  -2  -1 922.023 88.5371   8
   8  -2   0 2406.74 139.107  18
   8  -2   0 2349.58 136.481   8
   8  -2   1 8001.34 262.415  18
   8  -2   1 8147.34 261.938   8
   8  -2   2 1779.80 115.015  18
   8  -2   2 1735.12 112.728   8
   8  -2   3 6710.99 220.615  18
  -8  -2  -4 3673.42 160.683  21
   8  -2   4 3268.70 139.900  18
  -8  -2  -5 570.200 57.7449  21
   8  -2   5 402.384 43.2762  18
  -8  -2  -6 2584.05 106.660  21
   8  -1 -10 5089.39 149.480   5
   8  -1  -9 579.501 57.7112   5
   8  -1  -8 17560.4 398.936   5
   8  -1  -7 7678.96 251.466   5
   8  -1  -7 7778.47 277.727   8
   8  -1  -6 1493.73 110.975   5
   8  -1  -6 1624.06 125.358   8
   8  -1  -5 6730.84 247.942   5
   8  -1  -5 6624.26 262.733   8
   8  -1  -4 3564.00 179.583   5
   8  -1  -4 3591.85 189.517   8
   8  -1  -3 9812.92 317.504   5
   8  -1  -3 10153.0 336.189   8
   8  -1  -2 4421.90 206.509   5
   8  -1  -2 4716.98 217.036   8
   8  -1  -1 1110.59 99.9289   5
   8  -1  -1 1029.48 102.567   8
   8  -1   0 1111.40 104.085   8
   8  -1   1 990.079 95.8192   8
   8  -1   2 2348.41 142.943   8
   8  -1   3 7541.71 256.047   8
  -8  -1  -4 6064.53 214.504  21
   8  -1   4 5702.16 207.492   8
  -8  -1  -5 11582.9 292.810  21
   8  -1   5 10536.9 270.114   8
  -8  -1  -6 2194.60 102.702  21
   8   0 -11 4549.46 126.169   5
   8   0 -10 3101.86 123.231   5
   8   0  -9 8857.08 250.990   5
   8   0  -8 13802.9 350.161   5
   8   0  -8 13416.7 329.044   7
   8   0  -7 28.3721 22.4311   7
   8   0  -7 74.9246 41.6655   8
   8   0  -7 37.0146 33.7379   5
   8   0  -6 8015.51 273.866   5
   8   0  -6 7922.73 293.451   8
   8   0  -6 7787.06 257.396   7
   8   0  -5 2553.00 150.140   5
   8   0  -5 2838.95 173.415   8
   8   0  -5 2565.29 142.732   7
   8   0  -4 681.328 72.7978   7
   8   0  -4 854.271 95.6918   8
   8   0  -4 650.427 79.7996   5
   8   0  -3 936.341 93.3894   5
   8   0  -3 795.481 94.3786   8
   8   0  -3 888.610 98.5561   7
   8   0  -2 591.126 81.0766   8
   8   0  -2 665.254 82.5387   5
   8   0  -2 500.381 79.1399   7
   8   0  -1 25494.2 567.999   5
   8   0  -1 26243.4 615.037   8
   8   0  -1 25571.1 551.929   7
   8   0   0 4130.34 212.480   8
   8   0   0 4141.43 181.521   7
   8   0   1 62.7689 30.8659   7
   8   0   1-4.93836 31.3504   8
   8   0   2 214.149 39.5708   7
   8   0   2 167.259 47.1588   8
  -8   0  -3 7283.17 241.498  21
   8   0   3 7486.17 269.513   8
   8   0   3 7142.33 224.618   7
  -8   0  -4 2112.25 119.442  21
   8   0   4 2441.70 138.446   8
  -8   0  -5 2239.26 113.292  21
   8   0   5 2073.67 116.305   8
  -8   0  -6 482.888 46.7185  21
   8   0   6 589.344 54.5771   8
   8   1 -11 14021.3 276.260   5
   8   1 -10 5438.86 171.226   5
   8   1 -10 5293.71 165.571   7
   8   1  -9 552.221 58.6538   7
   8   1  -9 581.474 60.2438   5
   8   1  -8 17308.3 407.800   5
   8   1  -8 17032.4 407.131   7
   8   1  -7 8143.51 264.667   5
   8   1  -7 7930.78 283.243   8
   8   1  -7 7703.39 263.936   7
   8   1  -6 1437.23 112.943   5
   8   1  -6 1545.23 121.949   8
   8   1  -6 1546.33 117.118   7
   8   1  -5 6592.31 246.684   5
   8   1  -5 6613.59 268.008   8
   8   1  -5 6169.98 245.599   7
   8   1  -4 2796.13 154.706   5
   8   1  -4 2815.05 170.227   8
   8   1  -4 2659.44 157.579   7
   8   1  -3 10355.5 318.217   5
   8   1  -3 10660.6 358.323   8
   8   1  -3 10531.8 334.478   7
   8   1  -2 4932.92 209.152   5
   8   1  -2 5271.46 243.986   8
   8   1  -2 5052.36 221.281   7
   8   1  -1 1143.65 98.4814   5
   8   1  -1 1083.55 110.722   8
   8   1  -1 1023.47 97.2127   7
   8   1   0 1497.98 93.2840   6
   8   1   0 1635.67 133.578   8
   8   1   0 1630.50 119.829   7
   8   1   1 1554.04 95.9336   6
   8   1   1 1609.12 130.810   8
   8   1   1 1508.31 113.600   7
   8   1   2 1844.01 137.893   8
   8   1   2 1806.88 117.800   7
   8   1   3 7706.35 274.547   8
   8   1   3 7232.35 239.293   7
   8   1   4 5367.30 214.193   8
   8   1   5 11051.2 299.101   8
  -8   1  -6 2678.98 115.444  12
   8   1   6 2795.61 120.045   8
   8   2 -11 1467.94 67.3305   5
   8   2 -10 10566.0 248.263   5
   8   2 -10 10305.3 250.888   7
   8   2  -9 2761.06 126.955   5
   8   2  -9 2755.17 130.430   7
   8   2  -8 1780.85 107.365   5
   8   2  -8 1820.69 115.309   7
   8   2  -7 1749.09 114.640   5
   8   2  -7 1823.79 123.473   8
   8   2  -7 1760.20 119.628   7
   8   2  -6 5394.32 210.922   5
   8   2  -6 5527.67 227.774   8
   8   2  -6 5376.28 223.985   7
   8   2  -5 5691.38 218.336   5
   8   2  -5 5835.56 240.088   8
   8   2  -5 5996.83 244.063   7
   8   2  -4 1048.64 94.3237   5
   8   2  -4 1154.51 109.324   8
   8   2  -4 1232.93 108.562   7
   8   2  -3 1039.29 91.7550   5
   8   2  -3 1043.93 103.739   8
   8   2  -3 1146.06 105.359   7
   8   2  -2 413.681 73.3464   7
   8   2  -2 383.937 47.9400   6
   8   2  -2 413.323 64.5570   8
   8   2  -2 474.684 64.4404   5
   8   2  -1 752.660 86.4148   7
   8   2  -1 686.782 65.4847   6
   8   2  -1 628.260 70.2340   5
   8   2  -1 794.815 93.7233   8
   8   2   0 2117.52 112.829   6
   8   2   0 1995.38 146.270   8
   8   2   0 2071.35 135.947   7
   8   2   1 8015.30 236.667   6
   8   2   1 7540.68 290.688   8
   8   2   1 8013.61 270.851   7
   8   2   2 1913.42 107.120   6
   8   2   2 2084.48 139.638   8
   8   2   2 2032.61 126.304   7
   8   2   3 6220.79 238.725   8
   8   2   3 6320.96 219.946   7
   8   2   4 3258.99 156.671   8
   8   2   4 3216.10 142.179   7
   8   2   5 417.698 53.2705   8
  -8   2  -6 2054.75 96.2694  12
   8   2   6 1901.64 92.6800   8
   8   3 -10 390.914 38.5583   7
   8   3 -10 287.796 32.7741   5
   8   3  -9 2029.12 94.9365   5
   8   3  -9 2025.86 104.617   7
   8   3  -8 2160.22 109.929   5
   8   3  -8 2339.88 123.418   7
   8   3  -7 5186.57 181.103   5
   8   3  -7 4816.82 197.826   7
   8   3  -6 3625.94 153.275   5
   8   3  -6 3042.04 149.517   8
   8   3  -6 3390.30 170.259   7
   8   3  -5 5962.68 209.451   5
   8   3  -5 6021.91 223.168   8
   8   3  -5 6412.20 244.779   7
   8   3  -4 1447.89 84.5749   6
   8   3  -4 1403.26 98.1325   5
   8   3  -4 1366.59 104.503   8
   8   3  -4 1600.76 122.829   7
   8   3  -3 9690.01 253.563   6
   8   3  -3 10043.9 318.349   7
   8   3  -2 15930.7 356.322   6
   8   3  -2 15085.1 404.189   8
   8   3  -2 15715.4 421.824   7
   8   3  -1 4432.90 166.762   6
   8   3  -1 4300.51 195.304   8
   8   3  -1 4224.95 197.152   7
   8   3   0 39.8917 35.7237   7
   8   3   0 70.6033 26.3342   6
   8   3   0 53.9925 28.4383   8
   8   3   1 10831.6 276.556   6
   8   3   1 10022.3 309.212   8
   8   3   1 10575.2 312.091   7
   8   3   2 10931.5 275.099   6
   8   3   2 10382.8 307.053   8
   8   3   2 10896.1 305.050   7
   8   3   3 1472.77 84.7616   6
   8   3   3 1332.52 96.7808   8
   8   3   3 1491.47 96.5319   7
   8   3   4 25.7321 20.0477   8
   8   3   4 55.3732 22.0760   7
  -8   3  -5 8927.26 229.966  12
   8   3   5 7588.26 207.095   8
   8   4  -9 4829.87 141.914   7
   8   4  -8 91.0408 26.1700   7
   8   4  -8 36.6297 15.1943   5
   8   4  -7 1651.00 81.2743   5
   8   4  -7 1710.61 101.337   7
   8   4  -6 2155.90 121.996   7
   8   4  -5 11148.9 248.200   6
   8   4  -5 11473.4 315.162   7
   8   4  -4 9891.02 242.246   6
   8   4  -4 10123.8 300.694   7
   8   4  -3 3794.39 142.269   6
   8   4  -3 3433.27 144.069   8
   8   4  -3 3899.21 177.200   7
   8   4  -2 793.610 65.5828   6
   8   4  -2 799.577 68.6356   8
   8   4  -2 749.385 77.0954   7
   8   4  -1 4550.04 159.807   6
   8   4  -1 4819.67 190.362   7
   8   4   0 4581.17 158.390   6
   8   4   0 4529.82 181.389   7
   8   4   1 2503.48 113.234   6
   8   4   1 2136.95 110.601   8
   8   4   1 2486.69 126.492   7
   8   4   2 501.640 53.6483   7
  -8   4  -2 354.077 47.4005  12
   8   4   2 545.295 52.3251   6
   8   4   2 450.427 48.0993   8
  -8   4  -3 3926.78 146.768  12
   8   4   3 4167.18 132.610   6
   8   4   3 4401.63 149.383   7
  -8   4  -4 2372.58 101.865  12
   8   5  -7 4507.81 133.494   7
   8   5  -6 7278.98 196.069   7
   8   5  -5 258.861 37.6999   7
   8   5  -5 245.470 28.8764   6
   8   5  -4 3996.69 126.586   6
   8   5  -4 4185.18 154.436   7
   8   5  -3 13973.9 291.365   6
   8   5  -3 14423.4 329.621   7
   8   5  -2 98.8896 33.0256   7
   8   5  -2 122.835 25.7809   6
   8   5  -1 665.448 52.7735   6
   8   5  -1 700.222 61.6174   7
   8   5   0 2342.58 98.1805   6
   8   5   0 2331.60 107.988   7
   8   5   1 3630.30 121.120   6
   8   5   1 3727.98 130.328   7
   8   5   2 3194.72 105.178   6
   8   5   2 3252.81 111.794   7
   8   6  -3 97.6670 17.4414   6
   8   6  -2 3713.09 102.578   6
   8   6  -1 2313.68 77.2139   6
   9  -4  -5 3167.61 101.409  18
   9  -4  -4 10874.2 232.797  18
   9  -4  -3 1004.59 59.2944  18
   9  -4  -2 2847.93 104.204  18
   9  -4  -1 1217.83 64.2841  18
   9  -4   0 3850.84 115.236  18
   9  -3  -6 2439.83 91.6445  18
   9  -3  -5 5254.32 153.529  18
   9  -3  -4 5797.66 169.481  18
   9  -3  -3 4252.63 144.002  18
   9  -3  -2 7502.19 202.393  18
   9  -3  -1 4790.56 152.586  18
   9  -3   0 608.903 49.8483  18
   9  -3   1 5832.59 155.634  18
  -9  -3  -2 2635.06 104.535  21
   9  -2  -5 9095.62 247.289   8
   9  -2  -4 6632.50 207.782   8
   9  -2  -3 3464.97 144.705   8
   9  -2  -2 2946.27 131.266   8
   9  -2  -1 11586.9 281.803   8
  -9  -2  -2 4033.49 143.798  21
  -9  -2  -3 5231.65 152.946  21
   9  -1  -8 7540.11 192.305   5
   9  -1  -7 7757.34 214.275   5
   9  -1  -6 640.965 62.0379   5
   9  -1  -6 540.940 60.7464   8
   9  -1  -5 150.872 37.0329   8
   9  -1  -5 191.466 40.1637   5
   9  -1  -4 3805.77 162.138   5
   9  -1  -4 3883.94 170.944   8
   9  -1  -3 12838.1 341.862   8
   9  -1  -2 22193.3 485.378   8
   9  -1  -1 5452.75 203.232   8
   9  -1   0 1513.92 99.8947   8
   9  -1   1 4591.68 168.816   8
  -9  -1  -2 7277.44 199.977  21
   9  -1   2 6582.52 195.999   8
  -9  -1  -3 2165.73 92.5665  21
   9  -1   3 1805.99 82.0850   8
   9   0  -9 6184.60 159.431   5
   9   0  -8 732.196 58.8162   5
   9   0  -7 558.939 55.4332   5
   9   0  -6 6441.26 212.175   5
   9   0  -6 7119.40 234.596   8
   9   0  -5 5058.67 187.033   5
   9   0  -5 5130.96 202.744   8
   9   0  -4 3745.51 163.839   5
   9   0  -4 3890.94 177.486   8
   9   0  -3 1025.50 84.1155   5
   9   0  -3 1004.43 90.5582   8
   9   0  -2 89.2664 40.4651   8
   9   0  -1 4624.60 192.742   8
   9   0   0 11078.0 311.413   8
   9   0   1 5617.04 201.916   8
   9   0   2 6289.46 203.538   8
   9   0   3 3284.07 129.577   8
   9   0   4 32463.3 535.555   8
   9   1  -9 825.623 53.8173   5
   9   1  -8 8786.01 216.910   5
   9   1  -8 8080.20 187.900   7
   9   1  -7 7503.68 211.778   5
   9   1  -7 6941.13 191.243   7
   9   1  -6 309.857 42.6433   7
   9   1  -6 263.559 49.6949   8
   9   1  -6 278.595 44.5124   5
   9   1  -5 307.826 46.4765   7
   9   1  -5 226.620 45.2936   8
   9   1  -5 291.669 47.1239   5
   9   1  -4 4210.24 165.758   5
   9   1  -4 4287.39 186.401   8
   9   1  -4 3977.68 158.791   7
   9   1  -3 13624.8 329.429   5
   9   1  -3 13695.7 365.059   8
   9   1  -3 12698.6 320.722   7
   9   1  -2 22256.1 497.209   8
   9   1  -2 21205.4 448.475   7
   9   1  -1 4923.36 202.034   8
   9   1  -1 4826.92 174.316   7
   9   1   0 1862.28 119.274   8
   9   1   0 1786.70 99.4499   7
   9   1   1 3993.87 169.770   8
   9   1   1 3918.77 142.464   7
   9   1   2 7057.13 222.202   8
   9   1   2 6954.86 186.999   7
   9   1   3 2264.32 108.638   8
   9   1   4 566.884 47.4399   8
   9   2  -8 296.547 33.4329   7
   9   2  -8 271.965 33.9357   5
   9   2  -7 6994.77 190.755   5
   9   2  -7 6861.14 194.234   7
   9   2  -6 6946.15 197.397   5
   9   2  -6 6626.64 208.605   8
   9   2  -6 6818.08 205.201   7
   9   2  -5 8714.69 237.179   5
   9   2  -5 8913.06 260.022   8
   9   2  -5 9177.08 253.862   7
   9   2  -4 7413.21 209.889   5
   9   2  -4 7134.46 233.513   8
   9   2  -4 7112.81 224.857   7
   9   2  -3 3539.43 136.604   5
   9   2  -3 3703.11 163.671   8
   9   2  -3 3571.13 154.402   7
   9   2  -2 3283.25 154.067   8
   9   2  -2 3121.44 142.972   7
   9   2  -1 12788.3 333.659   8
   9   2  -1 12858.7 317.192   7
   9   2   0 9312.22 269.167   8
   9   2   0 9270.68 251.558   7
   9   2   1 3544.89 150.389   8
   9   2   1 3517.39 137.073   7
   9   2   2 3646.23 144.284   8
   9   2   2 4039.50 137.040   7
   9   2   3 4780.28 152.430   8
   9   3  -7 1089.33 65.3585   7
   9   3  -6 1730.25 75.6787   5
   9   3  -6 1884.44 94.2512   7
   9   3  -5 4814.66 154.750   8
   9   3  -5 5431.61 176.316   7
   9   3  -4 4944.88 165.428   8
   9   3  -4 5265.71 179.953   7
   9   3  -3 4697.97 164.103   8
   9   3  -3 5092.74 176.939   7
   9   3  -2 6646.34 161.099   6
   9   3  -2 6320.03 198.042   8
   9   3  -1 4708.80 133.172   6
   9   3  -1 4919.37 168.794   7
   9   3   0 549.059 42.4316   6
   9   3   0 543.423 51.5199   8
   9   3   0 592.092 55.0200   7
   9   3   1 5532.69 171.978   8
   9   3   1 7409.28 192.113   7
  -9   3  -2 2036.72 89.1981  12
   9   3   2 1728.46 81.0940   8
   9   4  -6 4385.64 126.680   7
   9   4  -5 3906.55 127.283   7
   9   4  -4 9994.46 234.666   7
   9   4  -3 838.276 59.6732   7
   9   4  -2 2340.21 77.5881   6
   9   4  -2 2533.31 104.698   7
   9   4  -1 753.932 42.8908   6
   9   4  -1 779.320 57.0586   7
   9   4   0 3248.65 111.527   7
   9   4   1 6292.09 153.607   7
  10   0  -4 14927.7 303.980   8
  10   0  -3 909.899 60.8194   8
  10   0  -2 810.118 56.2333   8
  10   0  -1 2196.95 89.6778   8
  10   1  -4 1350.61 71.1997   8
  10   1  -3 3094.47 114.050   8
  10   1  -2 9580.62 224.063   8
  10   1  -1 1122.39 63.2338   8
   0   0   0    0.00    0.00   0
TITL wg-e4-2-me-piper-full in P2(1)
REM P2(1) (#4 in standard setting)
CELL 1.54184   8.106443   7.842845  12.216484  90.0000 100.6695  90.0000
ZERR    2.00   0.000128   0.000101   0.000183   0.0000   0.0015   0.0000
LATT -1
SYMM -x, y+1/2,-z
SFAC C H N O S
UNIT 28.00 20.00 2.00 10.00 2.00
TREF
HKLF 4
END
;
_shelx_hkl_checksum              94363
loop_
_space_group_symop_operation_xyz
'x, y, z'
'-x, y+1/2, -z'
loop_
_atom_site_label
_atom_site_type_symbol
_atom_site_fract_x
_atom_site_fract_y
_atom_site_fract_z
_atom_site_U_iso_or_equiv
_atom_site_adp_type
_atom_site_occupancy
_atom_site_site_symmetry_order
_atom_site_calc_flag
_atom_site_refinement_flags_posn
_atom_site_refinement_flags_adp
C1 C 0.7232(2) 0.5833(2) 0.90672(15) 0.0188(4) Uani 1 1 d . .
H1 H 0.7803 0.5458 0.9825 0.023 Uiso 1 1 calc R U
C2 C 0.6023(2) 0.7278(2) 0.92142(16) 0.0204(4) Uani 1 1 d . .
H2A H 0.5085 0.6803 0.9535 0.024 Uiso 1 1 calc R U
H2B H 0.6620 0.8115 0.9752 0.024 Uiso 1 1 calc R U
C3 C 0.5305(2) 0.8197(2) 0.81313(16) 0.0206(4) Uani 1 1 d . .
H3 H 0.4595 0.7384 0.7616 0.025 Uiso 1 1 calc R U
C4 C 0.6696(2) 0.8893(2) 0.75630(15) 0.0176(4) Uani 1 1 d . .
H4 H 0.7332 0.9795 0.8044 0.021 Uiso 1 1 calc R U
C5 C 0.7893(2) 0.7429(2) 0.74180(14) 0.0181(3) Uani 1 1 d . .
H5A H 0.7295 0.6578 0.6890 0.022 Uiso 1 1 calc R U
H5B H 0.8848 0.7877 0.7104 0.022 Uiso 1 1 calc R U
C6 C 0.6368(3) 0.4279(3) 0.84602(18) 0.0259(4) Uani 1 1 d . .
H6A H 0.5473 0.3887 0.8840 0.039 Uiso 1 1 calc R U
H6B H 0.7191 0.3364 0.8461 0.039 Uiso 1 1 calc R U
H6C H 0.5885 0.4589 0.7690 0.039 Uiso 1 1 calc R U
C7 C 0.6001(3) 0.9636(3) 0.64365(17) 0.0246(4) Uani 1 1 d . .
H7 H 0.5179 0.8985 0.5958 0.030 Uiso 1 1 calc R U
C8 C 0.6433(3) 1.1110(3) 0.60557(16) 0.0314(4) Uani 1 1 d . .
H8A H 0.7251 1.1803 0.6506 0.038 Uiso 1 1 calc R U
H8B H 0.5928 1.1480 0.5331 0.038 Uiso 1 1 calc R U
C9 C 1.0888(2) 0.4472(2) 0.79161(15) 0.0163(3) Uani 1 1 d . .
C10 C 1.0603(2) 0.2798(2) 0.82153(14) 0.0174(3) Uani 1 1 d . .
H10 H 1.0244 0.2568 0.8898 0.021 Uiso 1 1 calc R U
C11 C 1.0845(2) 0.1477(2) 0.75172(15) 0.0173(4) Uani 1 1 d . .
H11 H 1.0644 0.0329 0.7704 0.021 Uiso 1 1 calc R U
C12 C 1.1388(2) 0.1868(3) 0.65340(15) 0.0168(3) Uani 1 1 d . .
C13 C 1.1685(2) 0.3523(3) 0.62229(16) 0.0189(4) Uani 1 1 d . .
H13 H 1.2059 0.3745 0.5544 0.023 Uiso 1 1 calc R U
C14 C 1.1423(2) 0.4849(2) 0.69236(15) 0.0181(4) Uani 1 1 d . .
H14 H 1.1607 0.5997 0.6729 0.022 Uiso 1 1 calc R U
N1 N 0.85255(18) 0.66059(19) 0.84983(12) 0.0168(3) Uani 1 1 d . .
N2 N 1.1654(2) 0.0460(2) 0.57906(13) 0.0202(3) Uani 1 1 d . .
O1 O 0.43016(18) 0.96096(19) 0.83415(14) 0.0288(3) Uani 1 1 d . .
O2 O 1.07914(16) 0.54605(18) 0.99309(10) 0.0210(3) Uani 1 1 d . .
O3 O 1.14308(16) 0.75783(17) 0.85555(11) 0.0213(3) Uani 1 1 d . .
O4 O 1.1279(2) -0.09935(18) 0.60380(12) 0.0284(3) Uani 1 1 d . .
O5 O 1.22362(19) 0.07914(18) 0.49597(11) 0.0284(3) Uani 1 1 d . .
S1 S 1.04849(5) 0.61321(5) 0.88187(3) 0.01531(10) Uani 1 1 d . .
H1O H 0.344(4) 0.916(4) 0.851(3) 0.053(9) Uiso 1 1 d . .
loop_
_atom_site_aniso_label
_atom_site_aniso_U_11
_atom_site_aniso_U_22
_atom_site_aniso_U_33
_atom_site_aniso_U_23
_atom_site_aniso_U_13
_atom_site_aniso_U_12
C1 0.0179(8) 0.0192(10) 0.0208(8) 0.0018(7) 0.0076(6) 0.0003(7)
C2 0.0165(8) 0.0213(9) 0.0258(9) -0.0024(7) 0.0102(7) -0.0007(7)
C3 0.0144(8) 0.0167(9) 0.0308(10) -0.0025(7) 0.0047(7) 0.0019(7)
C4 0.0159(8) 0.0158(8) 0.0203(8) -0.0006(7) 0.0015(7) 0.0018(7)
C5 0.0184(8) 0.0185(8) 0.0177(8) 0.0004(7) 0.0045(6) 0.0025(7)
C6 0.0248(10) 0.0178(9) 0.0364(11) -0.0001(8) 0.0090(8) -0.0021(8)
C7 0.0227(9) 0.0241(10) 0.0247(9) 0.0003(8) -0.0016(7) 0.0048(8)
C8 0.0349(10) 0.0284(10) 0.0287(9) 0.0071(10) 0.0002(8) 0.0072(11)
C9 0.0128(8) 0.0167(8) 0.0196(8) 0.0006(6) 0.0032(7) 0.0030(6)
C10 0.0165(8) 0.0191(9) 0.0178(8) 0.0033(7) 0.0060(6) 0.0025(7)
C11 0.0171(8) 0.0138(9) 0.0213(8) 0.0029(6) 0.0041(6) 0.0010(6)
C12 0.0156(8) 0.0171(8) 0.0176(8) 0.0005(7) 0.0023(7) 0.0027(6)
C13 0.0200(8) 0.0200(9) 0.0177(8) 0.0036(7) 0.0062(7) 0.0019(7)
C14 0.0191(9) 0.0147(8) 0.0214(8) 0.0042(7) 0.0060(7) 0.0020(7)
N1 0.0154(7) 0.0179(8) 0.0183(7) 0.0025(5) 0.0059(6) 0.0023(5)
N2 0.0224(8) 0.0195(7) 0.0184(7) 0.0003(6) 0.0033(6) 0.0039(6)
O1 0.0173(7) 0.0214(7) 0.0502(9) -0.0022(6) 0.0127(6) 0.0040(5)
O2 0.0225(6) 0.0222(6) 0.0177(6) -0.0014(5) 0.0020(5) 0.0053(5)
O3 0.0173(6) 0.0171(6) 0.0304(7) -0.0026(5) 0.0068(5) -0.0009(5)
O4 0.0414(9) 0.0171(7) 0.0281(7) -0.0017(6) 0.0103(6) -0.0007(6)
O5 0.0407(8) 0.0273(9) 0.0199(6) 0.0003(5) 0.0130(6) 0.0049(6)
S1 0.01427(18) 0.01368(18) 0.01836(18) -0.00079(16) 0.00400(13) 0.00169(16)
loop_
_atom_type_symbol
_atom_type_description
_atom_type_scat_dispersion_real
_atom_type_scat_dispersion_imag
_atom_type_scat_source
C C 0.0181 0.0091 'International Tables Vol C Tables 4.2.6.8 and 6.1.1.4'
H H 0.0000 0.0000 'International Tables Vol C Tables 4.2.6.8 and 6.1.1.4'
N N 0.0311 0.0180 'International Tables Vol C Tables 4.2.6.8 and 6.1.1.4'
O O 0.0492 0.0322 'International Tables Vol C Tables 4.2.6.8 and 6.1.1.4'
S S 0.3331 0.5567 'International Tables Vol C Tables 4.2.6.8 and 6.1.1.4'
loop_
_geom_angle_atom_site_label_1
_geom_angle_atom_site_label_2
_geom_angle_atom_site_label_3
_geom_angle
N1 C1 C6 113.39(15)
N1 C1 C2 105.98(14)
C6 C1 C2 113.67(16)
N1 C1 H1 107.8
C6 C1 H1 107.8
C2 C1 H1 107.8
C3 C2 C1 113.46(15)
C3 C2 H2A 108.9
C1 C2 H2A 108.9
C3 C2 H2B 108.9
C1 C2 H2B 108.9
H2A C2 H2B 107.7
O1 C3 C2 110.49(16)
O1 C3 C4 107.29(15)
C2 C3 C4 111.57(15)
O1 C3 H3 109.1
C2 C3 H3 109.1
C4 C3 H3 109.1
C7 C4 C3 111.77(15)
C7 C4 C5 108.76(15)
C3 C4 C5 108.68(15)
C7 C4 H4 109.2
C3 C4 H4 109.2
C5 C4 H4 109.2
N1 C5 C4 110.30(14)
N1 C5 H5A 109.6
C4 C5 H5A 109.6
N1 C5 H5B 109.6
C4 C5 H5B 109.6
H5A C5 H5B 108.1
C1 C6 H6A 109.5
C1 C6 H6B 109.5
H6A C6 H6B 109.5
C1 C6 H6C 109.5
H6A C6 H6C 109.5
H6B C6 H6C 109.5
C8 C7 C4 125.71(19)
C8 C7 H7 117.1
C4 C7 H7 117.1
C7 C8 H8A 120.0
C7 C8 H8B 120.0
H8A C8 H8B 120.0
C14 C9 C10 121.41(17)
C14 C9 S1 120.55(14)
C10 C9 S1 118.02(14)
C11 C10 C9 119.78(16)
C11 C10 H10 120.1
C9 C10 H10 120.1
C10 C11 C12 118.25(16)
C10 C11 H11 120.9
C12 C11 H11 120.9
C13 C12 C11 122.89(17)
C13 C12 N2 118.77(17)
C11 C12 N2 118.34(16)
C12 C13 C14 118.59(17)
C12 C13 H13 120.7
C14 C13 H13 120.7
C13 C14 C9 119.08(17)
C13 C14 H14 120.5
C9 C14 H14 120.5
C5 N1 C1 115.96(14)
C5 N1 S1 118.93(12)
C1 N1 S1 122.78(12)
O5 N2 O4 123.41(17)
O5 N2 C12 118.40(16)
O4 N2 C12 118.19(16)
C3 O1 H1O 104(2)
O2 S1 O3 119.67(8)
O2 S1 N1 107.78(8)
O3 S1 N1 107.87(8)
O2 S1 C9 107.42(8)
O3 S1 C9 105.81(8)
N1 S1 C9 107.78(8)
loop_
_geom_bond_atom_site_label_1
_geom_bond_atom_site_label_2
_geom_bond_distance
C1 N1 1.490(2)
C1 C6 1.528(3)
C1 C2 1.530(2)
C1 H1 1.0000
C2 C3 1.524(3)
C2 H2A 0.9900
C2 H2B 0.9900
C3 O1 1.426(2)
C3 C4 1.530(3)
C3 H3 1.0000
C4 C7 1.504(2)
C4 C5 1.535(2)
C4 H4 1.0000
C5 N1 1.473(2)
C5 H5A 0.9900
C5 H5B 0.9900
C6 H6A 0.9800
C6 H6B 0.9800
C6 H6C 0.9800
C7 C8 1.318(3)
C7 H7 0.9500
C8 H8A 0.9500
C8 H8B 0.9500
C9 C14 1.393(2)
C9 C10 1.394(2)
C9 S1 1.7749(18)
C10 C11 1.379(3)
C10 H10 0.9500
C11 C12 1.388(2)
C11 H11 0.9500
C12 C13 1.386(3)
C12 N2 1.470(2)
C13 C14 1.388(3)
C13 H13 0.9500
C14 H14 0.9500
N1 S1 1.6075(15)
N2 O5 1.224(2)
N2 O4 1.232(2)
O1 H1O 0.84(3)
O2 S1 1.4353(13)
O3 S1 1.4384(14)
loop_
_geom_hbond_atom_site_label_D
_geom_hbond_atom_site_label_H
_geom_hbond_atom_site_label_A
_geom_hbond_distance_DH
_geom_hbond_distance_HA
_geom_hbond_distance_DA
_geom_hbond_angle_DHA
_geom_hbond_site_symmetry_A
O1 H1O O3 0.84(3) 2.06(4) 2.872(2) 163(3) 1_455
loop_
_geom_torsion_atom_site_label_1
_geom_torsion_atom_site_label_2
_geom_torsion_atom_site_label_3
_geom_torsion_atom_site_label_4
_geom_torsion
N1 C1 C2 C3 54.00(19)
C6 C1 C2 C3 -71.2(2)
C1 C2 C3 O1 -175.24(14)
C1 C2 C3 C4 -56.0(2)
O1 C3 C4 C7 -64.93(19)
C2 C3 C4 C7 173.92(15)
O1 C3 C4 C5 175.03(15)
C2 C3 C4 C5 53.88(19)
C7 C4 C5 N1 -176.83(14)
C3 C4 C5 N1 -54.94(18)
C3 C4 C7 C8 133.9(2)
C5 C4 C7 C8 -106.1(2)
C14 C9 C10 C11 -0.4(3)
S1 C9 C10 C11 177.74(13)
C9 C10 C11 C12 0.7(3)
C10 C11 C12 C13 -0.5(3)
C10 C11 C12 N2 179.74(15)
C11 C12 C13 C14 -0.1(3)
N2 C12 C13 C14 179.63(16)
C12 C13 C14 C9 0.5(3)
C10 C9 C14 C13 -0.3(3)
S1 C9 C14 C13 -178.32(14)
C4 C5 N1 C1 60.42(19)
C4 C5 N1 S1 -136.40(13)
C6 C1 N1 C5 67.8(2)
C2 C1 N1 C5 -57.54(18)
C6 C1 N1 S1 -94.63(17)
C2 C1 N1 S1 140.00(13)
C13 C12 N2 O5 4.9(2)
C11 C12 N2 O5 -175.34(16)
C13 C12 N2 O4 -175.18(17)
C11 C12 N2 O4 4.6(2)
C5 N1 S1 O2 176.14(13)
C1 N1 S1 O2 -21.90(16)
C5 N1 S1 O3 45.63(15)
C1 N1 S1 O3 -152.41(13)
C5 N1 S1 C9 -68.20(15)
C1 N1 S1 C9 93.77(15)
C14 C9 S1 O2 -151.51(14)
C10 C9 S1 O2 30.38(16)
C14 C9 S1 O3 -22.60(16)
C10 C9 S1 O3 159.29(14)
C14 C9 S1 N1 92.59(15)
C10 C9 S1 N1 -85.52(15)
