#------------------------------------------------------------------------------
#$Date: 2015-06-05 08:03:28 +0300 (Fri, 05 Jun 2015) $
#$Revision: 138250 $
#$URL: svn://www.crystallography.net/cod/cif/4/12/36/4123678.cif $
#------------------------------------------------------------------------------
#
# This file is available in the Crystallography Open Database (COD),
# http://www.crystallography.net/
#
# All data on this site have been placed in the public domain by the
# contributors.
#
data_4123678
loop_
_publ_author_name
'Sanz Camacho, Paula'
'Athukorala Arachchige, Kasun S.'
'Slawin, Alexandra M. Z.'
'Green, Timothy F. G.'
'Yates, Jonathan R.'
'Dawson, Daniel M.'
'Woollins, J. Derek'
'Ashbrook, Sharon E.'
_publ_section_title
;
 Unusual intermolecular &quot;through-space&quot; j couplings in p-se
 heterocycles.
;
_journal_issue                   19
_journal_name_full               'Journal of the American Chemical Society'
_journal_page_first              6172
_journal_page_last               6175
_journal_paper_doi               10.1021/jacs.5b03353
_journal_volume                  137
_journal_year                    2015
_chemical_formula_moiety         'C13 H13 P Se2'
_chemical_formula_sum            'C13 H13 P Se2'
_chemical_formula_weight         358.14
_space_group_crystal_system      triclinic
_space_group_IT_number           2
_space_group_name_Hall           '-P 1'
_space_group_name_H-M_alt        'P -1'
_symmetry_space_group_name_Hall  '-P 1'
_symmetry_space_group_name_H-M   'P -1'
_atom_sites_solution_hydrogens   geom
_atom_sites_solution_primary     direct
_atom_sites_solution_secondary   difmap
_cell_angle_alpha                106.421(8)
_cell_angle_beta                 104.690(7)
_cell_angle_gamma                106.308(8)
_cell_formula_units_Z            2
_cell_length_a                   7.6709(17)
_cell_length_b                   9.404(2)
_cell_length_c                   10.484(2)
_cell_measurement_reflns_used    1797
_cell_measurement_temperature    93
_cell_measurement_theta_max      25.37
_cell_measurement_theta_min      3.04
_cell_volume                     649.1(2)
_computing_cell_refinement       'CrystalClear-SM Expert 2.0 rc13'
_computing_data_collection
'CrystalClear-SM Expert 2.0 rc13 (Rigaku, 2009)'
_computing_data_reduction        'CrystalClear-SM Expert 2.0 rc13'
_computing_molecular_graphics    'CrystalStructure 4.1'
_computing_publication_material  'CrystalStructure 4.1 (Rigaku, 2014)'
_computing_structure_refinement  'SHELXL2013 (Sheldrick, 2008)'
_computing_structure_solution    'SHELXS97 (Sheldrick, 2008)'
_diffrn_ambient_temperature      93
_diffrn_detector_area_resol_mean 7.353
_diffrn_measured_fraction_theta_full 0.973
_diffrn_measured_fraction_theta_max 0.973
_diffrn_measurement_device_type  'Rigaku Mercury70'
_diffrn_measurement_method       \w
_diffrn_radiation_type           'Mo K\a'
_diffrn_radiation_wavelength     0.71075
_diffrn_reflns_av_R_equivalents  0.0281
_diffrn_reflns_laue_measured_fraction_full 0.973
_diffrn_reflns_laue_measured_fraction_max 0.973
_diffrn_reflns_limit_h_max       9
_diffrn_reflns_limit_h_min       -8
_diffrn_reflns_limit_k_max       7
_diffrn_reflns_limit_k_min       -11
_diffrn_reflns_limit_l_max       12
_diffrn_reflns_limit_l_min       -12
_diffrn_reflns_number            4082
_diffrn_reflns_point_group_measured_fraction_full 0.973
_diffrn_reflns_point_group_measured_fraction_max 0.973
_diffrn_reflns_theta_full        24.997
_diffrn_reflns_theta_max         24.997
_diffrn_reflns_theta_min         3.044
_diffrn_standards_number         0
_exptl_absorpt_coefficient_mu    5.790
_exptl_absorpt_correction_T_max  0.749
_exptl_absorpt_correction_T_min  0.429
_exptl_absorpt_correction_type   multi-scan
_exptl_absorpt_process_details   'REQAB (Rigaku, 1998)'
_exptl_crystal_colour            purple
_exptl_crystal_density_diffrn    1.832
_exptl_crystal_density_method    'not measured'
_exptl_crystal_description       block
_exptl_crystal_F_000             348.00
_exptl_crystal_size_max          0.180
_exptl_crystal_size_mid          0.150
_exptl_crystal_size_min          0.050
_refine_diff_density_max         0.37
_refine_diff_density_min         -0.38
_refine_ls_extinction_method     none
_refine_ls_goodness_of_fit_ref   0.949
_refine_ls_hydrogen_treatment    constr
_refine_ls_number_parameters     145
_refine_ls_number_reflns         2221
_refine_ls_number_restraints     0
_refine_ls_R_factor_all          0.0430
_refine_ls_R_factor_gt           0.0294
_refine_ls_shift/su_max          0.001
_refine_ls_structure_factor_coef Fsqd
_refine_ls_weighting_details
'w = 1/[\s^2^(Fo^2^)+(0.0141P)^2^+0.0000P] where P=(Fo^2^+2Fc^2^)/3'
_refine_ls_weighting_scheme      calc
_refine_ls_wR_factor_gt          0.0444
_refine_ls_wR_factor_ref         0.0467
_reflns_number_gt                1796
_reflns_number_total             2221
_reflns_threshold_expression     F^2^>2.0\s(F^2^)
_cod_data_source_file            ja5b03353_si_003.cif
_cod_data_source_block           2
_cod_depositor_comments
'Adding full bibliography for 4123677--4123678.cif.'
_cod_original_cell_volume        649.1(3)
_cod_database_code               4123678
_shelx_res_file
;

    shelxl.res created by SHELXL-2014/7

TITL PSDW1
CELL  0.71075 7.67092 9.40390 10.48430 106.42100 104.69000 106.30800
ZERR  2 0.00165 0.00210 0.00230 0.00750 0.00740 0.00750
LATT 1
SFAC C H P SE
UNIT 26 26 2 4
SHEL 99999.000000 0.840885
OMIT     1   0   4
L.S. 5
FMAP 2
PLAN -10
WPDB -2
HTAB
BOND $H
CONF
LIST 4
TEMP -180.0
ACTA
SIZE 0.180 0.150 0.050
WGHT    0.014100
FVAR       0.65481
SE1   4    0.335652    0.859132    0.538396    11.00000    0.03370    0.01677 =
         0.02129    0.00803    0.01487    0.00743
SE2   4    0.003921    0.954676    0.661175    11.00000    0.02229    0.02149 =
         0.02815    0.01127    0.00519    0.01175
P1    3    0.315013    1.073715    0.685011    11.00000    0.02694    0.01499 =
         0.02005    0.00735    0.00753    0.00739
C1    1    0.260805    0.700774    0.617782    11.00000    0.01594    0.00908 =
         0.01522    0.00443    0.00335    0.00032
C2    1    0.357334    0.597393    0.598994    11.00000    0.01661    0.01983 =
         0.02220    0.00359    0.00885    0.00504
AFIX  43
H2    2    0.455131    0.617442    0.558746    11.00000   -1.20000
AFIX   0
C3    1    0.316606    0.465093    0.636828    11.00000    0.02284    0.01823 =
         0.02523    0.00789    0.00864    0.01279
AFIX  43
H3    2    0.382899    0.394284    0.619948    11.00000   -1.20000
AFIX   0
C4    1    0.180644    0.437796    0.698397    11.00000    0.02597    0.00964 =
         0.01911    0.00366    0.00018    0.00326
AFIX  43
H4    2    0.152528    0.347643    0.724827    11.00000   -1.20000
AFIX   0
C5    1    0.081095    0.542265    0.723304    11.00000    0.01771    0.01076 =
         0.01750    0.00373    0.00224   -0.00004
C6    1   -0.058463    0.507159    0.788696    11.00000    0.02708    0.01641 =
         0.02591    0.00847    0.01013    0.00302
AFIX  43
H6    2   -0.080260    0.416653    0.814822    11.00000   -1.20000
AFIX   0
C7    1   -0.159815    0.601112    0.813831    11.00000    0.02237    0.03236 =
         0.02977    0.01163    0.01588    0.00493
AFIX  43
H7    2   -0.254372    0.575779    0.855933    11.00000   -1.20000
AFIX   0
C8    1   -0.125410    0.736958    0.777608    11.00000    0.01614    0.02542 =
         0.02282    0.00226    0.00726    0.00782
AFIX  43
H8    2   -0.195199    0.803990    0.798403    11.00000   -1.20000
AFIX   0
C9    1    0.006773    0.775578    0.712756    11.00000    0.01619    0.01489 =
         0.01556    0.00306    0.00279    0.00156
C10   1    0.116721    0.676641    0.682732    11.00000    0.01229    0.01066 =
         0.01137    0.00056   -0.00020    0.00034
C11   1    0.452059    1.089452    0.864824    11.00000    0.02009    0.01471 =
         0.02048    0.00678    0.00573    0.00495
AFIX  13
H11   2    0.404939    0.982962    0.872814    11.00000   -1.20000
AFIX   0
C12   1    0.416980    1.212706    0.975322    11.00000    0.04144    0.02902 =
         0.02255    0.00308    0.00507    0.01221
AFIX  33
H12A  2    0.277556    1.177473    0.959336    11.00000   -1.20000
H12B  2    0.489582    1.223184    1.071247    11.00000   -1.20000
H12C  2    0.461290    1.316556    0.966294    11.00000   -1.20000
AFIX   0
C13   1    0.668563    1.141443    0.887291    11.00000    0.02741    0.03929 =
         0.02978    0.01263    0.00784    0.00577
AFIX  33
H13A  2    0.688357    1.061095    0.815579    11.00000   -1.20000
H13B  2    0.713972    1.244982    0.877878    11.00000   -1.20000
H13C  2    0.742264    1.151610    0.982832    11.00000   -1.20000
AFIX   0
HKLF 4
 
REM  PSDW1
REM R1 =  0.0294 for    1796 Fo > 4sig(Fo)  and  0.0430 for all    2221 data
REM    145 parameters refined using      0 restraints
 
END  
     
WGHT      0.0131      0.0000 

REM Instructions for potential hydrogen bonds
HTAB C12 Se2
HTAB C13 Se1

REM Highest difference peak  0.373,  deepest hole -0.377,  1-sigma level  0.090
Q1    1  -0.0358  0.7598  0.7615  11.00000  0.05    0.37
Q2    1   0.3758  1.0956  0.7991  11.00000  0.05    0.36
Q3    1   0.0570  0.5593  0.7958  11.00000  0.05    0.34
Q4    1  -0.0924  0.7797  0.5783  11.00000  0.05    0.34
Q5    1  -0.1316  0.9650  0.5597  11.00000  0.05    0.32
Q6    1   0.2195  0.8348  0.4463  11.00000  0.05    0.32
Q7    1   0.1296  0.5910  0.4253  11.00000  0.05    0.32
Q8    1   0.1192  0.7622  0.7326  11.00000  0.05    0.32
Q9    1   0.1657  0.6400  0.5978  11.00000  0.05    0.31
Q10   1   0.1300  0.4967  0.7202  11.00000  0.05    0.30
;
_shelx_res_checksum              94163
_shelx_hkl_file
;
  -1   1   0  640.53   14.63
  -1   1   0  630.76    7.08
   1  -1   0  666.51   14.04
  -1   1   1  465.91    9.66
   1  -1  -1  414.84    9.02
   1  -1  -1  468.52    7.28
   1  -1   1 2514.80   41.22
  -1   1  -1 2638.07   44.16
   0   1   1 3573.10   48.39
   0  -1  -1 3484.03   47.20
  -1  -1   1  800.89   14.43
  -1  -1   1  789.95   10.70
   1   1  -1  803.26   13.79
   0  -1   2  475.41   13.01
   0   1  -2  478.93   13.25
   1   0   1  587.55   13.83
  -1   0  -1  553.54   12.80
   1   0  -2   12.26    2.61
   1   0  -2   12.85    1.26
  -1   0   2   11.11    2.70
   1   0  -2    9.63    1.57
   1   0  -2    8.77    2.15
   0   0  -2  488.08   11.58
   0   0   2  497.51    6.90
   0   0   2  513.41   11.54
  -1  -1   0  386.20   11.45
   1   1   0  403.43   11.44
   0  -2   1  637.00   18.47
   0   2  -1  618.16   16.93
   1  -2   0   74.74    2.03
   1  -2   0   78.88    8.23
  -1   2   0   69.82    7.68
  -1  -1   2  730.48   12.58
  -1  -1   2  700.47   13.97
   1   1  -2  698.39   12.37
  -1  -1   2  758.05   12.19
   1   1  -2  734.50   12.95
   1  -2   1 1803.21   40.36
  -1   2  -1 1878.97   43.63
   0  -2   0 1193.19   26.53
   0   2   0 1153.14   25.08
   0   2  -2 5110.37   85.34
   0  -2   2 5218.27   84.76
   1  -1  -2 1719.78   27.24
   1  -1  -2 1688.23   25.23
  -1   1   2 1697.92   26.95
   1  -1   2 1425.24   31.21
  -1   1  -2 1484.00   33.46
  -2   1   1 1298.44   20.23
  -2   1   1 1229.94   23.42
  -1   2   1  658.86   18.76
   1  -2  -1  688.15   19.34
  -2   1   0 2229.39   41.17
   2  -1   0 2336.93   39.13
  -2   0   1 1230.75   18.32
   2   0  -1 1163.24   19.71
  -2   0   1 1192.91   19.22
  -2   0   1 1200.30   20.54
   0  -1  -2 2647.13   46.38
   0   1   2 2710.35   45.21
   1  -2   2 2106.27   46.66
  -1   2  -2 1884.55   46.77
   1   1   1 4302.23   66.81
  -1  -1  -1 4324.48   69.77
   2   0   0   84.28    5.60
  -2   0   0   88.95    6.09
   2   0   0   82.35    4.04
   2   0  -2 2087.51   32.11
   2   0  -2 1962.60   30.76
  -2   0   2 2006.14   31.55
  -1  -2   1  522.03   15.25
   1   2  -1  494.85   15.35
   0   1  -3  696.62   19.69
   0  -1   3  723.71   18.02
  -1  -1   3   74.97    5.48
  -1  -1   3   73.90    3.86
   1   1  -3   69.32    4.02
   1   1  -3   77.91    5.60
   0   2   1  240.26   10.81
   0  -2  -1  253.02   12.97
  -1   0  -213547.64  164.74
   1   0   213205.14  161.94
  -1  -2   2  567.95   11.48
   1   2  -2  585.03   15.14
   2  -2   0 1997.01   43.65
  -2   2   0 1923.43   46.32
  -2   2   0 1950.50   23.44
   1   0  -3  379.71    9.13
   1   0  -3  345.70    8.50
  -1   0   3  340.80    9.18
   2  -1  -2   89.32    4.76
  -2   1   2   88.13    5.17
   2  -1  -2   86.92    6.57
   2  -1  -2   98.83    4.80
  -2   1   2   87.59    4.37
   2  -1   1  723.61   20.16
  -2   1  -1  753.48   22.08
   2  -2  -1 3338.89   38.01
  -2   2   1 3306.16   38.13
   2  -2  -1 3420.62   60.46
  -2   2   1 3321.42   60.38
   0  -2   3 2660.43   55.94
   0   2  -3 2661.45   57.05
   0   0   3 1022.68   14.34
   0   0   3  995.63   21.54
   0   0  -3  973.58   22.72
   2  -2   1  648.83   23.08
  -2   2  -1  642.35   23.57
  -1   3  -1   31.70    7.89
   1  -3   1   18.07    9.23
   2   1  -1 1231.59   23.12
  -2  -1   1 1274.62   19.99
  -2  -1   1 1225.56   24.28
   2   1  -1 1252.58   18.52
   1   2   0 2788.41   53.22
  -1  -2   0 2861.76   55.80
   2   1  -2 3417.28   38.88
   2   1  -2 3367.27   43.03
  -2  -1   2 3302.63   44.19
  -2  -1   2 3296.47   46.68
   1  -3   0 1546.70   41.30
  -1   3   0 1634.50   42.62
   0  -3   1   45.69    9.61
   0   3  -1   55.35    8.11
  -1   2   2  326.09   12.46
   1  -2  -2  318.11   13.87
  -1  -2   3   75.50    7.27
   1   2  -3   81.93    7.17
   1   2  -3   74.52    4.87
  -1  -2   3   78.82    4.50
   0  -3   2 3039.72   28.09
   0  -3   2 3156.89   72.53
   0   3  -2 3063.46   65.04
  -2   0  -1  150.06    9.09
   2   0   1  161.38    9.44
   2   0  -3 3530.01   51.49
  -2   0   3 3498.50   52.87
  -2   0   3 3513.04   49.86
   2   0  -3 3494.25   48.79
   1  -3   2  167.08   15.09
  -1   3  -2  331.14   17.13
   1  -1  -3 5344.14   76.75
  -1   1   3 5220.03   72.61
   1  -1  -3 5234.04   61.91
  -2  -1   0    4.35    3.44
  -2  -1   0    1.05    5.27
  -2  -1   0    7.82    2.14
  -2   2   2 1271.36   28.04
   2  -2  -2 1308.00   21.59
   2  -2  -2 1270.05   28.52
   1  -1   3 2634.88   54.58
  -1   1  -3 2533.09   54.16
   0   3   0  229.13   13.64
   0  -3   0  273.47   15.33
   1  -2   3 2460.63   57.33
  -1   2  -3 2349.20   57.41
   2   1  -3 3191.63   44.22
  -2  -1   3 3208.44   46.65
  -2  -1   3 3260.91   49.17
   2   1  -3 3080.78   46.66
  -2   3   0 1451.06   44.74
   2  -3   0 1506.42   42.36
   2  -3   0 1406.48   16.79
  -1  -1  -2  310.46   13.80
  -1  -1  -2  302.86   12.07
   2  -1  -3  318.00   10.69
   2  -1  -3  307.30   10.45
  -2   1   3  308.65    8.61
   2  -1  -3  335.45    8.84
  -2   3  -1   14.60    9.66
  -2   3  -1    8.75    1.66
   2  -3   1   13.86    6.86
   1  -3  -1 1789.11   45.49
  -2   2  -2   96.54   11.99
   2  -2   2  104.14    9.68
   0   2   2    1.06    4.68
   0  -2  -2    7.50    5.57
  -2   1  -2   45.19    7.49
   2  -1   2   59.38    8.51
   0  -3   3 4488.94   94.93
   0   3  -3 4446.60   94.47
   0  -1  -3   51.97    7.34
   0  -1  -3   52.66    2.90
   0  -1  -3   39.08    6.33
   1   1  -4  169.95    8.85
  -1  -1   4  158.08    8.05
  -1  -1   4  167.02    6.41
   1   1  -4  163.87    6.73
  -1  -2  -1 1094.29   31.83
   1   2   1 1145.83   31.24
   2  -3  -1 4265.99   88.56
  -2   3   1 3980.08   83.54
   2  -3  -1 4218.15   45.47
  -3   1   1 1229.95   28.33
  -3   1   1 1350.48   24.59
   3  -1  -1 1223.90   26.75
  -1  -3   2  151.14    6.43
   1   3  -2  170.80   10.79
  -1  -3   2  166.12   11.27
  -2  -2   2 2600.19   47.55
   2   2  -2 2597.04   45.01
  -2  -2   2 2531.04   36.21
  -2  -2   2 2643.88   39.90
   1   0   3 3956.95   70.88
  -1   0  -3 4035.97   74.03
   0  -1   4 1324.63   32.12
   0  -1   4 1439.27   20.47
   0   1  -4 1331.47   34.29
   1   0  -4  193.43    6.92
   1   0  -4  198.48    8.77
  -1   0   4  198.24    8.00
   1   0  -4  205.25    9.31
   1  -3   3  592.52   25.29
  -1   3  -3  576.96   27.07
   1   3  -1   38.59    7.80
  -1  -3   1   34.41    8.45
   0   2  -4 1958.76   50.03
   0  -2   4 1920.85   46.87
  -3   1   2  214.73    9.28
   3  -1  -2  205.30   10.68
  -3   1   2  198.46    8.91
   3  -1  -2  222.04    9.77
  -1  -2   4  602.80   19.15
   1   2  -4  611.96   14.46
   1   2  -4  661.69   22.32
  -1  -2   4  611.74   13.86
  -2  -2   1  933.08   16.17
  -2  -2   1  913.74   26.45
   2   2  -1  961.57   25.38
   3  -1   0 4503.76   75.32
   3  -2  -1  618.44   19.98
  -3   2   1  592.17   22.60
  -3   2   1  627.57   15.16
  -2   3  -2  318.69   21.60
   2  -3   2  349.99   21.01
  -3   0   1 3541.70   54.36
   3   0  -1 3505.73   52.84
  -3   0   1 3472.56   54.58
  -3   2   0 1257.26   21.67
  -3   2   0 1246.66   37.20
   3  -2   0 1264.36   33.61
   3   0  -2  102.63    7.58
  -3   0   2  108.49    7.42
  -3   0   2  110.49    7.80
  -3   0   2  106.64    5.37
  -3   0   2  102.04    4.97
  -2  -1  -1   33.25    8.34
  -2  -1  -1   30.01    5.82
  -2  -1  -1   38.95    2.55
   0  -3  -1   27.09    7.58
   0   3   1   44.83    8.60
  -1  -3   3    4.40    6.68
   1   3  -3    3.42    3.17
  -1  -3   3    0.95    2.98
   1   3  -3    9.14    5.24
   2   2  -3  918.92   20.05
  -2  -2   3  875.22   18.81
  -2  -2   3  877.55   19.75
  -2  -2   3  876.98   23.68
  -2   0  -2  158.53   10.99
   2   0   2  143.37    9.72
  -2   0   4 2730.20   46.84
   2   0  -4 2711.38   44.33
   2   0  -4 2624.56   43.16
   2   1  -4   73.25    4.43
   2   1  -4   74.00    6.86
  -2  -1   4   88.73    5.62
  -2  -1   4   71.95    5.44
   2   1  -4   56.89    5.64
   1  -2  -3 4546.20   83.85
  -1   4  -1  138.99   12.80
   1  -4   1  118.84   12.89
   0   0   4   39.56    6.10
   0   0   4   43.42    3.52
   0   0  -4   56.92    7.74
   2  -2  -3   36.46    6.04
  -2   2   3   30.96    5.36
   2  -2  -3   36.28    6.32
   3  -2  -2   20.13    3.97
   3  -2  -2   -2.29    3.39
  -3   2   2    3.80    4.66
  -3   2   2    3.94    3.91
   1  -4   2  197.71   18.77
  -1   4  -2  163.36   14.49
   1   3   0  998.49   31.00
  -1  -3   0  989.62   32.21
   3   0   0 5627.28   87.16
  -3   0   0 5588.42   89.87
  -1   3   2   84.80    8.90
   1  -3  -2   82.48   10.65
  -3   0   3  286.07   12.36
  -3   0   3  291.07   11.76
   3   0  -3  252.75   10.31
   3   0  -3  292.49   11.94
   2  -3  -2 6372.55  115.73
  -2   3   2 6388.80  114.34
   0   3  -4 2321.62   31.46
   0   3  -4 2243.51   59.68
   0  -3   4 2276.23   58.02
  -3   2  -1   67.29   10.67
   3  -2   1   77.77   10.89
   2   2   0   77.12    8.32
  -2  -2   0   73.14    3.88
  -2  -2   0   75.22    8.06
   3  -1  -3   12.64    5.74
  -3   1   3    6.57    4.16
  -3   1   3    8.47    2.29
   3  -1  -3    3.42    3.69
   0   4  -2 3898.92   87.43
   0  -4   2 3826.37   99.13
  -1   4   0 2609.29   67.46
   1  -1  -4 1731.52   38.83
   1  -1  -4 1583.79   26.65
   1  -1  -4 1642.64   33.28
   2  -2   3  424.43   21.96
  -2   2  -3  348.05   19.27
   3  -3   0 1048.30   34.76
  -3   3   0  997.00   37.53
  -3   3   0 1030.82   18.60
  -3   1  -1  317.97   16.08
   3  -1   1  319.93   16.21
  -1   2  -4  385.45   21.15
   1  -2   4  349.33   19.48
   0  -4   1 1220.45   40.53
   0   4  -1 1137.08   35.05
   2  -4   1  699.22   28.32
  -2   4  -1  714.48   33.40
  -3  -1   2 1823.57   33.97
  -3  -1   2 1813.87   34.18
  -3  -1   2 1860.22   34.36
  -3  -1   2 1871.20   31.07
   3   1  -2 1791.35   31.38
  -2   1   4 1825.55   31.83
   2  -1  -4 1853.22   33.50
   2  -1  -4 1829.26   35.87
  -3   3   1    5.02    8.41
   3  -3  -1    8.00    6.80
   3  -3  -1    7.88    3.31
  -3   3   1    4.50    3.29
   2  -4   0  124.54   15.55
   2  -4   0  129.69    3.98
  -2   4   0  147.06   15.06
  -2  -2   4    2.76    4.15
   2   2  -4    3.01    4.29
   2   2  -4    4.93    3.96
  -2  -2   4    4.23    4.14
  -2  -2   4    7.59    4.33
  -1   1  -4  266.13   14.55
   1  -1   4  266.17   16.29
   1   3  -4   80.71    5.94
  -1  -3   4   94.63   10.63
  -1  -3   4   91.17    5.56
   1   3  -4  107.86   10.51
   1   2   2  572.76   22.85
  -1  -2  -2  603.87   24.97
  -3  -1   1 1285.30   24.96
  -3  -1   1 1295.74   28.39
  -3  -1   1 1230.71   30.82
   3   1  -1 1275.82   22.78
  -2   1  -3  141.66   12.76
   2  -1   3  149.79   13.55
  -1  -1  -3 1533.25   43.71
  -1  -1  -3 1443.31   38.89
   0  -4   3 1719.62   58.42
   0  -4   3 1922.42   22.36
   0   4  -3 1931.12   57.44
  -2   3  -3   50.70   13.58
   2  -3   3   36.98   12.19
   3  -3   1  808.71   32.23
  -3   3  -1 1121.17   39.73
  -1   4  -3   99.18    2.91
  -1   4  -3   97.27   15.98
   1  -4   3  108.98   14.00
  -3  -1   3 1442.66   31.30
   3   1  -3 1189.34   27.17
  -3  -1   3 1422.69   30.45
   3   1  -3 1374.34   27.66
   0   2   3  178.01   11.04
   0  -2  -3  174.16   12.76
   1  -3   4  463.15   25.23
  -1   3  -4  442.27   24.87
   2  -4   2 2048.70   61.72
  -2   4  -2 1853.41   65.66
  -1  -1   5 1397.50   26.64
   1   1  -5 1426.27   34.97
  -1  -1   5 1391.48   30.49
  -3   2   3  149.83    8.14
   3  -2  -3  151.17    9.18
   3  -2  -3  141.13    8.57
   0   4   0  215.80   14.68
   0  -4   0  228.27   16.77
   0   3   2  204.35   13.93
   0  -3  -2  210.81   14.78
   0  -1  -4  157.78    4.84
   0  -1  -4  159.73   13.37
   0  -1  -4  163.76   11.21
  -2  -1  -2  153.31   13.04
  -2  -1  -2  159.45   10.97
  -2  -3   2  787.17   27.09
  -1  -2   5 1023.00   27.36
   1   2  -5 1024.60   30.45
   1   2  -5  948.88   21.41
  -1  -2   5  986.92   21.02
  -3   0  -1 2562.30   58.52
   3   0   1 2563.74   35.19
   3   0   1 2999.46   59.30
   2  -4  -1  737.84   13.64
  -2   4   1  717.43   29.40
   2  -4  -1  781.37   32.22
  -1   4   1 2909.83   76.13
   1  -4  -1 2850.89   74.44
  -3   3   2   26.12    6.96
   3  -3  -2   28.20    8.25
   3  -3  -2   21.57    4.62
  -3   0   4  274.13   12.91
   3   0  -4  263.73   12.43
  -3   0   4  259.69   12.60
   3   0  -4  256.22   12.16
  -2  -3   3   36.90    7.81
   2   3  -3   37.16    6.87
  -2  -3   3   27.17    5.35
  -2  -3   3   30.64    4.16
   1   3   1 2095.71   54.53
  -1  -3  -1 2109.06   57.29
   3  -2   2 1714.97   49.10
  -3   2  -2 1665.09   51.41
   0  -2   5   86.24   10.20
   0   2  -5   81.61   10.89
  -3  -1   0 2910.80   58.58
  -3  -1   0 2838.60   63.84
  -3  -1   0 2925.53   42.45
   3   1   0 2875.71   36.54
   1   0   4   57.31    7.80
  -1   0  -4   55.21    9.60
   1   0   4   49.12    2.67
  -2  -2  -1  109.04   11.38
  -2  -2  -1  119.89    3.87
   2   2   1  128.63   11.21
   2   1  -5    5.15    3.89
  -2  -1   5    1.41    3.10
  -2  -1   5    1.48    4.33
   2   1  -5    3.47    4.79
   2   1  -5    5.06    4.65
  -1  -4   2 2888.38   74.28
   1   4  -2 2696.16   66.00
   1   0  -5  422.92   15.51
   1   0  -5  414.13   15.66
  -1   0   5  419.39   13.15
   1   0  -5  418.87   11.18
   0  -1   5  179.79   12.21
   0   1  -5  237.00   14.69
   0  -1   5  243.06    8.01
  -3   1   4  362.10    8.02
   3  -1  -4  426.11   14.81
   3  -1  -4  405.20   14.72
   3  -1  -4  443.79   10.85
   3   1  -4   35.71    6.78
  -3  -1   4   33.43    5.36
   3   1  -4   29.82    5.14
  -3  -1   4   39.13    5.64
   2   3  -1   40.90    7.91
  -2  -3   1   28.15    9.36
  -2   0  -3   88.96    9.24
   2   0   3   93.17   12.04
   3  -3   2 1956.65   58.90
  -3   3  -2 1955.65   62.62
  -1  -4   3  652.09   15.44
   1   4  -3  666.60   25.89
   0  -4   4  328.90   23.00
   0   4  -4  360.31   21.44
   2   0  -5  366.56   13.69
   2   0  -5  347.27   11.11
  -2   0   5  359.19   13.04
   2   0  -5  378.14   11.38
   2   0  -5  351.81   12.84
  -2   3   3  273.38   15.62
   2  -3  -3  302.95   15.71
   3  -1   2  326.24   18.95
  -3   1  -2  328.72   19.69
   2  -2  -4  519.98   19.25
  -2   2   4  512.74   18.64
   2  -2  -4  593.74   17.89
  -2   4  -3  597.54   33.49
   2  -4   3  688.86   35.38
  -3   4   0   86.57   16.03
  -3   4   0   92.31    4.92
   3  -4   0   97.25   13.56
  -1  -4   1  480.52   24.35
   1   4  -1  471.04   23.07
  -1   3   3 1865.53   51.32
   1  -3  -3 1910.86   53.31
  -3  -2   2 1403.28   30.02
  -3  -2   2 1324.17   34.15
   3   2  -2 1347.78   31.23
  -3  -2   2 1299.67   27.32
  -1   2   4 3474.14   71.99
   1  -2  -4 3459.75   52.13
   0   3  -5   64.33   10.02
   0  -3   5   67.37   11.70
   3  -4   1  417.52   24.66
  -3   4  -1  397.40    9.11
  -3   4  -1  371.22   27.22
   2   3  -4 1374.73   32.36
  -2  -3   4 1291.42   38.69
  -2  -3   4 1307.42   28.90
  -2  -3   4 1288.11   28.01
  -1   4  -4 2390.71   76.37
   1  -4   4 2326.16   71.80
   2   2  -5 1019.43   26.19
  -2  -2   5 1033.47   24.47
  -2  -2   5 1002.61   24.15
   2   2  -5  975.40   24.27
  -3  -2   3 2451.95   47.69
  -3  -2   3 2622.59   48.97
  -3  -2   3 2563.57   46.44
   3   2  -3 2554.02   44.25
   1   3  -5  239.37    9.78
  -1  -3   5  234.28   15.46
   1   3  -5  274.88   17.95
   4  -1  -2  318.55   10.50
   4  -1  -2  400.29   16.29
  -4   1   2  387.02   13.46
  -4   1   2  407.39   15.05
  -4   2   1  331.96   12.67
  -4   2   1  334.85   17.62
   4  -2  -1  328.76   14.60
  -4   1   1   74.13    8.08
  -4   1   1   66.72    5.74
   4  -1  -1   63.78    7.37
   4  -1  -1   63.58    7.85
   3  -4  -1  232.43   17.64
  -3   4   1  179.95   15.55
   3  -4  -1  180.15    6.95
   0   4   1   79.53   12.92
   0  -4  -1   77.74   11.79
   2  -2   4  353.57   20.57
  -2   2  -4  320.20   20.22
   0   0  -5  693.58   24.96
   0   0   5  669.52   15.44
   0   0  -5  667.86   25.03
  -1   5  -2  196.64   17.11
   1  -5   2  217.32   20.42
   1   4  -4   84.62   10.34
  -1  -4   4   47.74   13.54
  -1  -4   4   75.25    5.65
   1   4  -4   59.10    5.44
   4  -2  -2  441.44   16.77
  -4   2   2  459.34   15.03
  -4   2   2  456.64   19.53
   4  -2  -2  438.66   14.59
   3   2  -1    7.93    5.94
  -3  -2   1   17.57    3.75
  -3  -2   1   10.29    7.62
  -2   4   2 1630.61   50.31
   2  -4  -2 1748.72   51.66
   1  -5   1   58.71   13.76
  -1   5  -1   31.30    9.88
   2  -3   4  250.57   18.74
  -2   3  -4  200.13   18.05
  -3   3   3  210.30   13.90
   3  -3  -3  207.77   10.01
   3  -3  -3  186.84   13.63
  -4   2   0   91.88   11.48
   4  -2   0   51.90    9.53
   2  -1  -5  951.90   23.01
   2  -1  -5  941.98   23.79
   2   3   0  317.45   16.33
  -2  -3   0  310.56   18.59
  -3   2   4   38.07    5.91
   3  -2  -4   40.96    6.72
   3  -2  -4   50.76    6.88
  -4   0   2  156.83    8.62
  -4   0   2  161.34   10.22
  -4   0   2  160.35    9.14
  -4   0   2  163.00    8.58
   4   0  -2  155.11   10.04
  -1   2  -5 1188.10   43.25
   1  -2   5 1227.61   41.08
  -2   5  -1 2887.70   87.84
   2  -5   1 2962.32   89.42
   3  -4   2 1372.95   50.65
  -3   4  -2 1301.76   54.77
  -3  -2   4 1406.76   32.66
  -3  -2   4 1446.78   33.68
   3   2  -4 1433.37   25.87
   3   2  -4 1430.09   33.78
  -3  -2   4 1388.45   31.71
   4  -1  -3 2907.47   60.41
  -4   1   3 3002.30   58.79
   4  -1  -3 2949.78   56.54
  -1   4   2  295.74   21.43
   1  -4  -2  350.57   20.77
   1  -1  -5  163.69    7.78
   1  -1  -5  167.92   12.21
   1  -1  -5  179.31   11.57
  -1  -2  -3  257.25   17.36
  -3  -1  -1 1649.29   49.19
  -3  -1  -1 1607.53   44.60
   4  -1   0   -1.22    4.25
   4  -1   0   -0.21    5.70
  -4   1   0    7.16    6.47
  -1   5  -3   33.55   10.87
   1  -5   3   27.24   12.42
   3   0   2   93.78    8.77
   3   0   2  128.52    4.84
  -3   0  -2  116.57   12.46
  -1  -4   0  677.44   31.08
   1   4   0  649.26   29.41
   2  -5   2 3895.03  100.75
  -2   5  -2 2612.15  101.37
  -1   3  -5 5778.85  143.12
   1  -3   5 5699.00  129.43
  -4   3   1  900.53   21.95
  -4   3   1  853.93   34.37
   4  -3  -1  883.66   30.20
  -2   1  -4   -0.43    6.62
   2  -1   4    9.31    7.42
  -4   0   1  260.16   12.99
   4   0  -1  240.50   11.01
  -4   0   1  234.71   12.53
   3   0  -5  765.14   21.66
  -3   0   5  731.33   23.11
   3   0  -5  730.79   21.30
  -4   0   3  740.70   24.04
  -4   0   3  786.79   23.10
   4   0  -3  777.49   24.01
   0  -5   2    7.81    2.14
   0  -5   2   10.42   14.02
   0   5  -2   -1.60    7.27
  -4   3   0  311.51   21.42
  -4   3   0  339.93   11.43
   4  -3   0  358.48   19.72
   2  -5   0  360.99    7.32
  -2   5   0  321.38   24.35
   2  -5   0  338.00   26.75
  -3  -1   5  357.61   16.16
  -3  -1   5  437.55   16.71
   3   1  -5  370.30   14.38
   3  -2   3 2449.98   67.83
  -3   2  -3 2378.92   69.97
   1  -5   0 2168.00   67.43
  -1   5   0 2284.44   69.48
   1  -1   5   -4.62    7.72
   1  -1   5    2.13    2.15
  -1   1  -5    9.90    7.61
  -1  -1  -4 2800.41   70.13
  -1  -1  -4 2892.93   74.29
   0   5  -3  165.36   15.27
   0  -5   3  152.08   22.05
   0  -5   3  159.27    5.50
  -3   3  -3 1406.12   54.94
   3  -3   3 1510.49   53.46
  -1  -3  -2 2282.60   67.22
   1   3   2 2298.36   64.48
  -4   2   3 2700.67   54.74
  -4   2   3 2721.16   50.90
   4  -2  -3 2848.44   48.30
   4  -2  -3 2805.09   61.97
   4  -2  -3 2723.22   51.64
   0   2   4   41.44    8.41
   0  -2  -4   44.89    3.92
   0  -2  -4   42.34   10.94
  -3   4   2  716.91   29.79
   3  -4  -2  726.41   17.21
   3  -4  -2  791.54   32.71
   0   4  -5  533.45   13.25
   0   4  -5  509.18   29.98
   0  -4   5  534.76   28.93
   0   3   3  443.10   22.34
   0  -3  -3  431.02   25.67
  -2  -3   5 3992.89   66.63
  -2  -3   5 3919.32   81.61
   2   3  -5 3900.37   66.27
  -2  -3   5 3983.46   67.57
   0  -5   1  532.55   28.45
   0   5  -1  488.60   26.99
  -4   3   2   -8.24    4.35
   4  -3  -2    1.97    6.16
  -4   3   2   -2.71    6.81
   4  -3  -2    1.47    4.54
   2  -4   4   76.04   16.59
  -2   4  -4   64.23   16.19
  -2  -1  -3 4115.98   94.03
  -2  -2  -2  244.84   17.34
  -2  -2  -2  250.25   15.89
  -4   2  -1  469.29   23.69
   4  -2   1  477.87   22.74
  -3  -2   0  486.64   18.45
  -3  -2   0  471.70   23.07
  -3  -2   0  480.05   12.56
   3  -1  -5 1103.81   19.85
   3  -1  -5 1087.61   21.32
   3  -1  -5 1051.73   27.18
   1   2  -6 1061.73   25.48
  -1  -2   6 1074.91   24.47
  -1  -2   6 1116.62   31.07
   1   2  -6 1154.34   36.65
  -1  -1   6 1659.14   39.87
   1   1  -6 1642.44   44.09
  -1  -1   6 1659.79   34.24
  -2   5  -3  678.35   38.87
   2  -5   3  737.75   40.17
  -4   3  -1   10.03   10.59
   4  -3   1    4.52    8.99
   1   4  -5    3.29    4.12
   1   4  -5   15.54    8.10
  -1  -4   5    8.94    9.57
  -2  -4   3  131.54    7.67
   2   4  -3  126.16   12.76
  -2  -4   3  125.04   15.08
   4   0   0   19.27    5.11
  -4   0   0   26.24    8.21
  -4   0   0   34.75    7.72
  -3   1  -3 1251.50   43.69
   3  -1   3 1326.59   45.79
   4   0  -4  306.89   13.69
  -4   0   4  338.72   14.69
   4   0  -4  327.37   15.87
  -4   0   4  351.34   17.11
   2   1  -6    8.06    5.37
   2   1  -6   17.29    6.08
  -2  -1   6   13.43    4.84
  -2  -1   6   15.07    4.59
   4  -1  -4 2081.80   46.04
  -4   1   4 2136.16   49.48
   4  -1  -4 2162.43   50.42
  -4  -1   2   23.74    6.18
  -4  -1   2   25.90    7.39
   4   1  -2   26.65    5.83
  -4  -1   2   27.26    5.37
  -4  -1   2   30.21    5.97
  -2  -4   2   64.90   12.79
   2   4  -2   47.92   10.18
   2  -3  -4  195.05   11.72
   2  -3  -4  177.50   14.15
  -2   3   4  175.67   13.54
   1  -4   5 4849.82  124.56
  -1   4  -5 4738.31  133.04
  -4  -1   3  178.84    9.23
   4   1  -3  172.76    9.45
  -4  -1   3  167.19    7.56
  -4  -1   3  176.02   10.78
  -4  -1   3  189.51   10.35
  -1   5  -4  269.00   25.37
  -1   5  -4  276.81    6.36
   1  -5   4  287.15   25.35
   0  -5   4  886.76   41.40
   0   5  -4  947.27   39.77
  -3  -2   5  172.35    9.54
  -3  -2   5  174.00   10.97
  -3  -2   5  160.40    8.05
   3   2  -5  162.04    6.77
   3   2  -5  163.41   11.41
   3  -5   1  870.34   40.75
  -3   5  -1  780.32   45.01
   0  -1  -5 1898.08   51.70
   0  -1  -5 1880.33   54.11
  -4   1  -1  178.88   15.03
   4  -1   1  158.08    8.89
   4  -1   1  177.31   14.65
  -3   4  -3  588.10   34.72
   3  -4   3  631.60   35.15
  -2   5   1  778.81   36.52
   2  -5  -1  810.99   36.85
   0   2  -6   69.58   12.57
   0  -2   6   39.37   10.49
   0  -2   6   59.44    5.27
   3  -5   0  134.39    5.27
  -3   5   0  130.72   18.45
   3  -5   0  134.13   19.04
   2   2  -6 1314.25   35.07
  -2  -2   6 1221.61   27.71
   2   2  -6 1220.84   30.25
  -2  -2   6 1271.15   31.27
   3   3  -3 3912.58   76.99
  -3  -3   3 3772.48   65.11
  -3  -3   3 3899.16   85.18
  -3  -3   3 3931.22   68.88
   0   4   2  197.04   16.36
   0  -4  -2  187.42   19.35
  -2   0  -4  160.78   15.08
  -2   0  -4  166.72   15.82
   2   3   1  746.38   31.17
  -2  -3  -1  681.61   30.64
   1   3  -6   10.00    5.13
   1   3  -6   16.98    9.09
  -1  -3   6    9.23    9.10
  -1  -3   6   10.04    4.96
  -2  -4   4 1530.03   53.70
   2   4  -4 1670.30   44.98
  -2  -4   4 1583.39   34.42
  -4   4   0 2077.97   73.49
  -4   4   0 2232.84   38.55
   4  -4   0 2176.95   64.98
  -2   2   5   11.31    5.62
   2  -2  -5    2.77    5.13
   2  -2  -5    7.40    6.89
   0   5   0  132.66   15.96
   0  -5   0  124.90   20.71
  -3  -3   2 2188.56   40.25
  -3  -3   2 2078.84   55.57
   3   3  -2 2141.45   53.31
   2   0  -6   54.73    7.43
  -2   0   6   53.72    7.09
   2   0  -6   44.92    6.22
   2   0  -6   45.61    6.62
   2  -4  -3  195.47   17.56
  -2   4   3  195.87   16.72
  -1   0  -5   75.09    9.66
   1   0   5   65.94    3.83
  -1   0  -5   70.15   11.53
  -4   4   1 2026.63   38.66
   4  -4  -1 2054.84   61.16
  -4   4   1 2061.36   69.59
   1  -5  -1 2855.90   85.73
  -1   5   1 2753.84   85.99
  -1   0   6 2401.57   46.34
   1   0  -6 2372.63   55.89
   1   0  -6 2248.79   55.14
   0  -3   6  382.87   22.60
   0   3  -6  372.62   23.95
  -4  -1   1  507.76   18.67
  -4  -1   1  540.17   17.70
   4   1  -1  486.93   14.76
  -4  -1   1  466.23   20.93
   1  -3  -4 3397.06   57.63
  -1   3   4 3089.83   80.29
   1  -3  -4 3337.56   86.40
   4  -3  -3 1900.69   39.57
   4  -3  -3 1813.67   46.79
  -4   3   3 1791.80   45.08
  -4   3   3 1865.61   40.20
  -3   3   4  430.41   18.72
   3  -3  -4  504.68   20.91
   3  -3  -4  457.01   16.03
   3  -3  -4  462.52   20.37
   0  -1   6  386.58   12.03
   0   1  -6  385.57   21.87
   0  -1   6  393.31   20.56
   1   4   1 1568.96   51.33
  -1  -4  -1 1624.96   56.59
   3  -5   2  109.88   18.61
  -3   5  -2  102.20   19.12
   1   5  -3  240.42   16.21
  -1  -5   3  243.18   24.42
  -3  -3   4  664.80   19.60
  -3  -3   4  632.40   26.27
  -3  -3   4  657.63   20.69
   3   3  -4  648.39   20.49
  -4  -1   4   88.25    9.43
   4   1  -4   75.56    8.70
  -4  -1   4   69.45    7.44
   2   4  -1  216.50   15.14
  -2  -4   1  203.53   18.72
  -4   2   4 2623.19   44.00
   4  -2  -4 2623.54   59.83
   4  -2  -4 2697.09   45.93
  -4   2   4 2671.46   56.60
   4  -2  -4 2689.30   53.72
   1   5  -2 3116.80   86.50
  -1  -5   2 3239.40   96.86
   4  -4   1  195.94   19.50
  -4   4  -1  191.78    7.74
  -4   4  -1  177.98   20.43
   3  -5  -1  103.66    5.30
  -3   5   1   88.85   16.39
   3  -5  -1   92.80   17.42
  -3  -1  -2  158.26   14.92
  -3  -1  -2  179.55   17.39
   1  -2  -5 1228.66   25.55
   1  -2  -5 1187.21   34.14
   1  -2  -5 1258.81   41.99
   3  -4  -3  318.57   12.13
  -3   4   3  299.71   19.21
   3  -4  -3  325.84   21.01
  -3   2   5  169.23    9.45
   3  -2  -5  185.31   11.01
   3  -2  -5  189.00   11.69
   1  -4  -3   33.18   11.45
  -1   4   3    9.76    9.93
  -2   3  -5  285.45   25.63
   2  -3   5  287.06   23.13
  -4   3  -2   -7.41    9.60
   4  -3   2   13.51    8.36
  -4   2  -2 2313.44   72.03
   4  -2   2 2327.94   65.83
  -3  -3   1  258.29   19.77
  -3  -3   1  269.82    9.87
   3   3  -1  265.81   16.41
  -2   5  -4  100.97   22.49
   2  -5   4  117.87   20.95
  -2   2  -5  549.14   31.64
   2  -2   5  522.77   30.20
  -1  -5   4   16.42    4.52
  -1  -5   4    8.18   12.96
   1   5  -4   14.40   10.15
   4  -4  -2  537.69   15.95
   4  -4  -2  544.33   25.51
  -4   4   2  535.22   26.45
  -3  -2  -1  563.80   27.71
  -3  -2  -1  561.39   24.44
  -3  -2  -1  593.41   12.35
   2   3  -6 2177.13   56.68
  -2  -3   6 2092.25   52.10
   3   1  -6   63.28    3.57
   3   1  -6   71.36    7.56
  -3  -1   6   69.00    8.98
   3   1  -6   67.70    4.33
  -3   0  -3  539.52   30.12
  -3   0  -3  547.44   25.64
   4   0   1  169.24    7.69
  -4   0  -1  184.76   14.46
  -4   0  -1  168.40   15.88
  -2  -4   5 3280.08   60.07
  -2  -4   5 3169.90   87.79
   2   4  -5 3317.26   60.27
   2   4  -5 3283.05   73.02
  -1  -5   1 3848.75  110.04
   1   5  -1 3603.05   99.35
   3   0  -6 1301.11   34.21
   3   0  -6 1295.16   33.73
  -3   0   6 1257.75   35.97
   3   0  -6 1263.96   23.06
   3   0  -6 1323.43   22.85
   4   0  -5  324.09   15.53
  -4   0   5  314.20   17.43
  -4   0   5  322.30   16.35
   4   0  -5  332.91   16.88
   0   5  -5  717.50   36.75
   0  -5   5  683.47   38.53
  -3   3  -4  615.57   33.11
   3  -3   4  640.43   32.19
   0   4  -6  811.29   19.69
   0   4  -6  747.71   37.56
   0  -4   6  840.65   37.13
   2  -1  -6  338.50   16.48
   2  -1  -6  305.38   14.87
   4   1   0 1847.55   31.19
  -4  -1   0 1845.23   54.58
  -4  -1   0 1784.12   49.18
   3  -2   4 1267.05   47.26
  -3   2  -4 1237.67   50.55
   3  -5   3   98.28   18.29
  -3   5  -3   80.18   19.20
   4  -1  -5   23.75    6.52
  -4   1   5   20.69    7.15
   4  -1  -5   15.45    6.25
  -3  -3   5   53.84    8.10
  -3  -3   5   50.72    8.49
  -3  -3   5   62.35   10.20
   3   3  -5   66.01    9.50
   3   3  -5   65.82    7.40
   2  -5  -2  567.96   32.75
  -2   5   2  524.68   28.76
   0   0  -6 1227.87   39.69
   0   0  -6 1210.82   41.51
   0   0   6 1209.22   25.14
  -1   6  -2  302.88   27.29
   1  -6   2  353.21   31.84
  -1  -2  -4   33.94   10.66
  -1  -2  -4   31.54    8.73
  -2   4  -5   -6.34   10.81
   1  -5   5  964.70   43.97
  -1   5  -5  978.28   17.29
  -1   5  -5  943.41   46.31
  -1   2  -6  651.91   32.01
   1  -2   6  694.75   31.34
  -4  -2   3  302.50   14.56
  -4  -2   3  296.68   11.33
  -4  -2   3  286.95   12.31
  -4  -2   3  273.95   15.85
  -1   3  -6 2809.04   88.71
   1  -3   6 2840.05   79.62
  -1  -4   6  384.83   22.94
   1   4  -6  351.65   22.65
   1   4  -6  382.22   13.80
  -1  -3  -3  282.80   23.37
   1   3   3  263.04   20.71
  -4   4  -2  222.72   24.95
   4  -4   2  262.21   20.37
  -2   6  -2 3126.79  109.59
   2  -6   2 3069.42  100.55
  -4   1  -2 2803.18   78.98
   4  -1   2 2739.15   45.70
   4  -1   2 2874.64   75.29
  -4  -1   5 1195.95   34.91
   4   1  -5 1170.74   32.96
  -4  -1   5 1158.76   34.72
   4   1  -5 1159.17   31.21
   2  -6   1 2797.90   95.75
  -2   6  -1 2734.78   94.49
   3   2  -6   41.79    8.30
  -3  -2   6   37.99    7.83
  -3  -2   6   42.71    7.96
  -3  -2   6   41.42    4.05
   3   2  -6   37.89    4.72
   0   5   1   -6.52    9.44
   0  -5  -1    1.55    8.05
   1  -6   3  114.08   24.26
  -1   6  -3   92.97   20.21
  -4  -2   2  360.63   18.35
  -4  -2   2  313.48   12.75
  -4  -2   2  349.76   15.84
  -4  -2   2  353.93   14.05
  -2   1  -5  655.69   33.50
   2  -1   5  724.81   33.70
  -2  -4   0 2110.88   69.41
   2   4   0 2124.04   65.09
  -3   4  -4   17.15   12.08
   3  -4   4   -4.62   10.13
   1  -6   1  128.96   23.84
  -1   6  -1   96.58   14.87
   1  -1  -6  664.87   16.38
   1  -1  -6  703.48   28.34
   1  -1  -6  719.88   26.51
  -2  -2  -3 1134.50   38.91
  -2  -2  -3 1135.18   44.80
  -3   5   2  137.24   17.49
   3  -5  -2  147.47    7.89
   3  -5  -2  181.50   21.35
  -4  -2   4   87.25    7.88
  -4  -2   4   69.96    9.63
  -4  -2   4   70.65    7.52
  -5   2   2  705.78   23.37
  -5   2   2  660.91   25.41
   5  -2  -2  683.94   25.34
   0  -3  -4  290.29   20.78
   0  -3  -4  282.45    9.81
   0   3   4  285.34   18.41
   4  -3  -4 1876.70   42.10
   4  -3  -4 1783.51   47.77
  -4   3   4 1779.41   44.39
   5  -2  -1 1557.69   41.25
  -5   2   1 1525.09   49.23
  -5   2   1 1513.84   36.15
   5  -2  -1 1560.10   42.04
  -1  -5   5   23.53   12.80
   1   5  -5   51.25   11.18
  -1  -5   5   19.88    4.22
  -5   1   2   18.56    6.82
   5  -1  -2   18.92    7.84
  -5   1   2   20.19    8.31
   3  -1  -6 1795.16   42.04
   3  -1  -6 1802.70   34.47
   3  -1  -6 1788.72   42.73
  -4   5   0  615.64   39.99
   4  -5   0  675.38   35.62
  -4   5   0  676.20   16.63
   1  -5  -2  987.86   44.35
  -1   5   2 1051.93   42.84
  -2  -1  -4 2839.95   81.23
  -2  -1  -4 3051.32   89.74
  -2   6  -3  316.38   29.21
   2  -6   3  305.48   32.30
  -1  -1  -5  422.15   23.85
  -1  -1  -5  447.37   27.63
   0  -2  -5  770.52   14.64
   0  -2  -5  676.76   33.28
   0  -2  -5  713.92   30.78
  -3  -3   0   -8.85    8.26
   3   3   0  -10.34    7.65
  -3  -3   0   -0.73    3.64
   1  -1   6  153.06    6.16
  -1   1  -6  145.08   17.04
   1  -1   6  161.25   17.25
   4  -5   1    8.65   12.50
  -4   5  -1    8.25   14.74
  -4   5  -1   12.69    3.39
  -1   4  -6  549.74   35.08
   1  -4   6  516.70   29.13
  -4   4   3   31.26    9.37
   4  -4  -3   26.15    6.39
   4  -4  -3   27.94   10.34
  -5   1   3  324.46   15.25
   5  -1  -3  326.91   10.56
  -5   1   3  327.26   14.28
   5  -1  -3  310.96   15.72
  -2  -3  -2    4.62    8.61
   2   3   2   -6.19    8.52
   2  -6   0  674.45   42.71
  -2   6   0  614.23   36.71
   3  -1   4  338.20   22.54
  -3   1  -4  316.16   23.72
  -5   1   1  523.09   17.58
  -5   1   1  504.00   24.32
   5  -1  -1  530.21   20.07
   5  -1  -1  524.99   20.76
   0  -6   3  686.66   13.34
   0   6  -3  658.68   31.64
   0  -6   3  700.41   44.40
   5  -3  -1 2608.75   63.52
  -5   3   1 2396.71   71.56
  -5   3   1 2524.85   51.86
   0  -6   2  181.00   25.00
   0   6  -2  200.83   20.40
  -1  -5   0  706.81   34.70
   1   5   0  657.83   31.39
  -1  -2   7  298.36   17.99
  -1  -2   7  320.55   13.16
   1   2  -7  310.06   21.52
   5  -2  -3   51.20   10.31
  -5   2   3   34.76    6.97
  -5   2   3   46.16    9.41
   5  -2  -3   43.10    6.11
   4  -2  -5  762.25   21.46
   4  -2  -5  718.02   24.26
   4  -2  -5  728.33   27.65
   4  -5  -1 1935.26   65.21
   4  -5  -1 1996.95   34.68
  -4   5   1 1877.99   68.19
   0  -4  -3  777.98   39.81
   0   4   3  767.37   37.41
  -1  -4  -2 1017.89   46.54
   1   4   2  889.57   37.36
  -4  -2   1  139.17   14.79
  -4  -2   1  143.72    8.80
  -4  -2   1  151.42   12.93
   1  -6   4    8.09   12.50
  -1   6  -4   12.97   13.67
   5  -3  -2 1845.82   47.30
   5  -3  -2 1799.92   49.67
  -5   3   2 1764.25   55.75
  -5   3   2 1848.67   43.63
   2  -3  -5    3.23    5.46
   2  -3  -5   -1.35    7.70
  -5   2   0 1348.81   48.02
   5  -2   0 1387.35   36.60
   5  -2   0 1341.67   41.77
   3  -6   1  289.05   24.13
  -3   6  -1  280.83   28.87
   2  -4  -4   53.53   12.52
  -2   4   4   36.01   10.79
  -2  -1   7   54.55    8.44
   2   1  -7   78.50    9.55
   2   1  -7   53.10    8.25
   1  -6   0  293.89   29.89
  -1   6   0  290.39   22.82
   2   2  -7  342.12   15.73
  -2  -2   7  327.80   14.97
  -2  -2   7  311.45   13.30
   2   2  -7  328.79   18.28
   4  -3   3   91.81   15.87
  -4   3  -3   77.18   18.01
  -1  -1   7 1681.82   44.63
  -1  -1   7 1808.82   40.66
   1   1  -7 1714.82   52.27
  -5   3   0  742.92   21.43
  -5   3   0  755.42   36.95
  -2  -4   6 1772.51   41.61
   2   4  -6 1834.70   41.02
   2   4  -6 1890.18   51.43
  -2  -4   6 1802.20   40.14
  -2  -4   6 1648.69   52.91
  -3   3   5   25.33    8.03
   3  -3  -5   25.71    6.47
   3  -3  -5   31.97    7.22
   3  -3  -5   40.66    9.24
  -5   0   2  736.29   24.82
  -5   0   2  805.21   26.54
   5   0  -2  770.18   25.46
  -3  -4   3 1226.83   30.40
  -3  -4   3 1310.57   33.59
  -3  -4   3 1193.53   44.91
   3   4  -3 1193.52   40.19
  -1  -3   7  290.25   13.28
   1   3  -7  318.43   20.58
  -1  -3   7  300.60   18.02
   1   3  -7  291.40   13.96
  -5   0   3 1170.81   28.62
  -5   0   3 1134.28   32.99
   5   0  -3 1155.12   33.86
  -5   0   3 1108.54   25.93
  -2   5  -5   14.02   13.51
   2  -5   5   35.49   16.65
  -3   4   4 1438.74   47.32
   3  -4  -4 1489.68   49.52
   3  -4  -4 1477.01   34.03
   0  -6   4 1922.03   76.57
   0   6  -4 1895.46   70.73
   0  -6   4 1927.92   25.78
   3  -6   2   -2.59   11.66
  -3   6  -2    3.64   11.78
  -4  -2   5  631.17   23.90
  -4  -2   5  594.21   21.97
  -4  -2   5  603.49   16.52
   4   2  -5  571.70   20.91
   2   5  -3   49.29   11.23
  -2  -5   3   58.07   13.82
  -2  -5   3   22.00    6.52
   3  -6   0   27.64    3.16
   3  -6   0   15.85   15.34
  -3   6   0   21.66   14.62
  -4   2  -3  800.37   39.36
   4  -2   3  768.90   35.39
   0  -6   1   18.51   13.15
   0   6  -1   31.21   13.93
  -3  -4   4   93.85    9.03
   3   4  -4  107.89   11.65
  -3  -4   4  110.94   13.89
  -3  -4   4   97.91    7.84
  -4   5  -2   66.46   19.17
   4  -5   2   60.85   15.88
  -4   5  -2   50.40    4.64
  -3  -3   6   46.91    8.42
  -3  -3   6   51.59    8.59
   3   3  -6   50.06    7.45
   3   3  -6   39.00    6.55
  -3  -3   6   37.67    7.30
  -3   5  -4  807.12   51.41
   3  -5   4  936.47   44.50
  -4  -1  -1  104.65   12.79
  -4  -1  -1  102.49   15.28
   2   5  -4  609.12   29.03
  -2  -5   4  590.20   18.12
  -2  -5   4  611.20   35.72
  -5   1   4  957.28   30.64
   5  -1  -4  989.69   29.34
   5  -1  -4 1018.05   34.30
  -4   0  -2 1734.53   57.43
   4   0   2 1787.71   27.64
  -4   0  -2 1749.21   56.99
   0   5  -6  792.30   42.24
   0  -5   6  790.90   37.94
   4  -4   3   83.82   15.54
  -4   4  -3   67.14   19.30
  -3  -1  -3   95.97   12.84
  -3  -1  -3  138.46   17.50
   0   2  -7  198.83   19.30
   0  -2   7  226.02   16.03
   0  -2   7  242.73   11.24
   5  -1   0  562.71   19.48
  -5   1   0  557.95   26.63
   5  -1   0  587.45   24.97
  -4   0   6 1498.88   46.39
   4   0  -6 1534.35   40.57
   4   0  -6 1496.51   39.88
   2   5  -2  106.68   15.54
  -2  -5   2  100.46   15.60
  -3  -2  -2   -0.54   11.83
  -3  -2  -2   10.14    7.79
  -3  -4   2  828.61   21.81
   3   4  -2  822.25   33.05
  -3  -4   2  852.38   36.07
   2  -6   4  270.57   33.06
  -2   6  -4  274.41   32.70
   2  -2  -6   18.99    7.85
   2  -2  -6    1.47    4.95
   2  -2  -6   -4.41    5.71
  -2   0  -5  347.26   23.97
  -2   0  -5  413.02   25.41
   0   3  -7   -0.61   11.82
   0  -3   7   13.81   10.58
   0  -3   7   16.25    4.83
   0  -1  -6 1586.00   50.97
   0  -1  -6 1621.21   55.66
  -5   3   3  519.84   21.93
   5  -3  -3  515.75   24.09
   5  -3  -3  492.53   18.68
  -5   3   3  530.43   20.19
   2   0  -7  155.82   11.77
   2   0  -7  164.30    9.32
   2   0  -7  185.37   12.79
  -2   0   7  167.77   12.00
  -1   3   5 1009.17   37.18
   1  -3  -5 1043.36   43.28
  -5   0   1   19.94    8.53
   5   0  -1   10.72    5.93
  -5   0   1    8.62    7.47
   4  -5  -2  886.44   40.24
   4  -5  -2  822.37   21.05
  -4   5   2  789.62   36.63
  -5   0   4  785.35   26.19
  -5   0   4  772.78   28.11
   5   0  -4  758.92   25.82
   4   1  -6 2105.86   51.35
  -4  -1   6 1974.20   52.15
  -4  -1   6 1992.95   53.51
   4   1  -6 1975.42   51.21
  -2  -3   7  621.61   22.54
  -2  -3   7  584.44   21.77
   2   3  -7  559.13   20.83
   2   3  -7  613.12   26.93
   5  -4  -1  822.78   36.37
  -5   4   1  840.75   23.88
  -5   4   1  797.92   39.65
   2  -6  -1  142.33   22.06
  -2   6   1  119.85   18.51
  -5   2   4  733.66   18.98
   5  -2  -4  765.70   25.53
  -5   2   4  773.84   27.72
   5  -2  -4  758.76   30.68
   1  -4  -4  438.26   28.14
  -1   4   4  420.38   26.73
  -2   5   3  306.89   23.83
   2  -5  -3  329.51   25.76
   3  -2  -6 1219.22   33.65
   3  -2  -6 1265.01   35.91
   3  -2  -6 1198.31   29.98
   2   4   1 1409.35   54.19
  -2  -4  -1 1353.66   54.48
   5  -4   0   44.01   12.59
  -5   4   0   41.53    7.27
  -5   4   0   46.44   15.31
   1   5  -6  307.74   23.71
  -1  -5   6  318.58   25.65
   3  -6   3 1231.46   59.83
  -3   6  -3 1175.60   64.43
  -1   0  -6   49.98   13.69
  -1   0  -6   64.13   14.09
   3   1  -7  175.56   11.52
   3   1  -7  181.37   12.59
  -3  -1   7  166.86   11.88
   3  -5  -3   80.63   16.23
  -3   5   3   83.66   12.98
   3  -5  -3   76.66    7.46
   1  -5   6  292.78   27.59
  -1   5  -6  309.43   29.56
   4  -1  -6  606.89   24.71
   4  -1  -6  591.20   22.85
  -5   3  -1   52.63   14.64
   5  -3   1   40.24   12.45
   1   0  -7 1947.54   55.77
  -1   0   7 2001.37   44.40
   1   0  -7 2082.69   55.95
  -3  -4   5  532.71   18.97
  -3  -4   5  550.83   20.34
  -3  -4   5  441.22   25.44
   3   4  -5  534.84   22.63
   0   5   2   -2.74    9.20
   0  -5  -2   -6.22   11.97
  -4  -2   0  877.07   39.11
  -4  -2   0  925.12   22.58
  -4  -2   0  938.77   33.69
   5  -2   1   47.68   10.27
   5  -2   1   52.93    8.10
  -5   2  -1   53.57   14.41
   0  -1   7   95.87    6.86
   0  -1   7   83.61   13.36
   0   1  -7   78.37   15.19
  -2   3  -6  119.98   21.58
   2  -3   6  127.38   19.79
   2   5  -5 1179.94   41.26
  -2  -5   5 1152.67   29.41
  -2  -5   5 1078.82   49.10
   3  -6  -1  307.69    9.86
  -3   6   1  264.12   24.84
   3  -6  -1  315.42   29.35
  -5   4   2 1219.38   34.25
  -5   4   2 1247.21   48.94
   5  -4  -2 1306.33   42.44
  -1   6  -5   51.81   15.15
   1  -6   5   25.79   15.23
  -1   6  -5   30.88    3.39
   3  -3   5   25.82   15.89
  -3   3  -5   49.47   17.03
   4   3  -3   32.39    7.52
  -4  -3   3   26.01    6.81
  -4  -3   3   26.83    9.59
  -4  -3   3   37.01    7.50
  -3   0  -4   24.94   11.39
  -3   0  -4   15.77   11.49
   4  -1   3 1499.36   54.70
  -4   1  -3 1413.29   52.59
   4  -1   3 1441.20   26.33
   0   6  -5 1587.52   64.70
   0  -6   5 1583.93   69.00
   1   4  -7 1137.87   29.53
   1   4  -7 1144.96   47.38
  -1  -4   7 1099.24   41.71
  -1  -6   3  263.39   10.38
   1   6  -3  230.32   22.04
  -1  -6   3  237.78   27.06
   1  -2  -6   82.08   13.11
   1  -2  -6   57.06   10.88
  -3   0   7  121.96   10.82
   3   0  -7  122.64   10.49
   3   0  -7  143.40    8.88
   3   0  -7  144.07   11.34
   3   0  -7  121.93    9.06
  -3  -2   7  216.81    8.38
  -3  -2   7  220.73   14.17
   3   2  -7  213.51   15.01
   4   3  -4    8.64    5.17
  -4  -3   4   -0.10    6.32
  -4  -3   4   -9.90    8.14
  -4  -3   4    4.00    4.89
  -3  -3  -1   10.17    3.04
  -3  -3  -1   22.86   12.37
   0   4  -7  165.47   20.45
   0   4  -7  167.57    9.77
   0  -4   7  166.22   16.53
  -4   4   4  237.71   18.13
   4  -4  -4  133.08   16.93
   4  -4  -4  255.91   12.69
   4  -3  -5  934.75   28.83
   4  -3  -5  941.66   34.01
  -4   3   5  889.58   27.52
   5   1  -3 1131.62   32.12
  -5  -1   3 1117.36   35.17
  -5  -1   3 1166.51   29.73
  -5  -1   3 1170.25   32.68
  -2   2  -6  551.48   31.29
   2  -2   6  534.15   33.61
   2   5  -1   11.50   10.36
  -2  -5   1   12.77   13.12
   0  -6   0   17.57   14.33
  -1   6   1  529.44   32.40
   1  -6  -1  587.01   38.94
  -1  -5  -1  427.26   27.89
  -3  -4   1  655.22   17.64
  -3  -4   1  649.92   35.26
   3   4  -1  656.52   31.81
  -2   4  -6  398.28   33.86
   2  -4   6  403.87   30.79
   3  -4   5  387.91   29.67
  -1  -6   4  204.61   25.23
  -1  -6   4  201.13    9.03
   1   6  -4  219.61   19.69
  -5   4  -1  636.92   39.07
  -5   4  -1  702.41   19.66
   5  -4   1  669.41   34.12
  -1  -6   2 2166.29   82.60
   1   6  -2 2120.87   73.39
   3  -2   5   11.80   14.31
  -4   5  -3  -10.24   14.21
   4  -5   3    3.17   12.89
  -5  -1   2 1494.87   44.06
   5   1  -2 1498.73   35.88
  -5  -1   2 1437.08   40.17
  -5  -1   2 1456.42   40.45
   4   3  -2   17.53    8.64
  -4  -3   2   12.39   10.30
  -4  -3   2   17.05    5.56
   4   2  -6  801.85   28.47
  -4  -2   6  813.21   29.66
   1  -5  -3   94.78   14.88
  -1   5   3   67.29   16.72
  -5  -1   4  306.29   10.76
   5   1  -4  302.84   15.22
  -5  -1   4  287.76   11.76
  -5  -1   4  323.19   17.92
   5   0   0    2.79    5.08
  -5   0   0   14.56    8.34
  -5   0   0    0.91    8.81
   5  -1  -5  585.28   24.55
   5  -1  -5  545.83   22.81
   5   0  -5  532.23   23.55
   5   0  -5  495.12   21.90
  -1  -3  -4    3.55   10.03
   5  -3  -4   37.81    8.22
  -5   3   4   36.64    8.12
   5  -3  -4   34.52   11.25
   5  -3  -4   39.27    7.33
  -5   3   4   32.47    7.95
   4  -6   1  124.85   22.13
  -4   6  -1  123.83   22.36
   5  -1   1   68.69    7.70
   5  -1   1   60.90   12.85
  -5   1  -1   55.67   14.05
  -4   6   0   40.88   16.90
   4  -6   0   55.52   16.35
   2  -1  -7   22.78    6.49
   2  -1  -7   29.09    8.30
   2  -1  -7   41.90    9.06
  -4  -3   5   74.44   10.38
  -4  -3   5   66.79    8.42
  -4  -3   5   67.94    8.18
   4   3  -5   62.38    7.54
   1  -3   7  374.91   26.71
  -1   3  -7  326.28   25.79
  -1  -2  -5  110.78   20.67
  -2  -2  -4 2177.19   79.10
  -5   4   3   52.85   11.00
   5  -4  -3   50.84   12.03
  -5   4   3   44.17    7.71
   5  -4  -3   40.05    7.68
  -4   5   3  271.86   21.00
   4  -5  -3  295.97   13.54
   4  -5  -3  303.79   25.47
   2  -6   5  363.66   34.65
   4  -2  -6   12.80    5.77
   4  -2  -6   16.18    4.49
   4  -2  -6   27.81    8.21
   4  -2  -6   13.66    8.72
   2   4  -7   37.59   10.26
   2   4  -7   25.49    8.33
  -2  -4   7   43.35   10.99
  -2  -3  -3  873.81   42.32
   1  -2   7  289.95   10.34
   1  -2   7  263.86   23.74
  -1   2  -7  299.57   25.80
   3  -6   4 2691.70  103.14
   3   4  -6 1589.64   43.11
   3   4  -6 1636.83   41.09
  -3  -4   6 1554.19   41.88
  -3  -4   6 1524.54   48.09
  -1  -6   5  192.69   22.41
   1   6  -5  226.37   20.83
  -1  -6   5  179.90    8.64
   4  -3   4  496.89   30.73
   3  -1  -7  688.43   23.00
   3  -1  -7  633.28   20.37
   3  -1  -7  603.23   22.38
   3  -1  -7  598.17   22.68
   5  -2  -5  118.98   12.73
  -5   2   5  140.39   13.08
   5  -2  -5  120.10   14.63
   3   3  -7   -0.56    5.37
   3   3  -7    0.64    6.20
  -3  -3   7   13.29    5.61
   5   1  -1  100.02    8.76
  -5  -1   1   62.47   12.00
  -5  -1   1   79.72   13.09
   4  -6   2  360.66   30.71
   2  -7   2  238.54   26.79
  -1  -4  -3  108.25   18.11
   0   0  -7   47.76   12.51
   0   0  -7   52.66   12.77
   0   0   7   37.36    6.77
   5  -5   0   66.64   15.23
  -5   5   0   48.75   18.43
  -5   5   0   53.03    6.81
   2  -1   6 1409.58   20.26
   2  -1   6 1334.46   51.06
   2   5  -6   90.32    8.24
  -2  -5   6   86.97    8.73
  -2  -5   6   91.20   15.71
   2   5  -6   88.04   13.66
  -1  -6   1 1821.28   72.73
   0  -3  -5   -1.77    3.23
   0  -3  -5    1.99    6.80
   0  -3  -5   -9.55   11.55
  -2   6   2   17.84   12.03
   2  -6  -2   -8.87   11.29
   5  -3   2  183.49   20.74
  -5   3  -2  169.38   22.92
   3  -5   5  878.93   52.86
  -1   4  -7   64.04   17.92
   1  -4   7   47.99   16.09
  -4  -1  -2  178.26   18.69
  -4  -1  -2  216.04   19.58
   5  -5  -1  208.63   20.95
  -5   5   1  198.62   11.03
  -5   5   1  169.55   23.34
   4  -4   4  912.87   48.35
   4  -6  -1  661.80   41.32
  -4   6   1  647.86   39.36
   4  -6  -1  631.15   16.13
   2  -5   6  293.33   26.94
   1  -7   3  461.14   43.16
   1  -7   2 1094.93   57.76
  -3   6   2 1011.47   50.89
   3  -6  -2 1053.75   24.42
   3  -6  -2 1137.44   53.68
  -4  -3   1  170.47   10.05
  -4  -3   1  150.34   12.25
  -4  -3   1  147.29   19.11
   5   1  -5   76.57    9.70
   0  -4  -4  827.96   44.38
   2  -7   3  150.33   22.75
   2  -7   1 1641.62   74.26
   1  -1  -7 1818.89   54.63
   1  -1  -7 1711.52   32.90
   1  -1  -7 1669.76   55.94
   3  -1   5   45.27   13.24
  -2  -1  -5    2.69   11.54
   3  -4  -5 1250.45   46.27
   3  -4  -5 1199.74   38.70
  -3   4   5 1083.49   41.31
  -5   2  -2   -1.20   10.77
   5  -2   2   -1.11    8.19
   5  -2   2    2.81    4.97
   4  -2   4  293.69   27.47
   5  -4   2 1788.76   64.95
  -5   4  -2 1600.52   72.54
   0   5  -7  300.55   12.20
   0  -5   7  343.43   28.63
   0   5  -7  294.97   25.98
  -2   4   5    8.42   10.23
   2  -4  -5   11.36    6.67
   2  -4  -5   10.34   11.09
   0  -6   6  178.76   26.33
   0   6  -6  189.63   20.91
  -2  -5   0 1131.91   50.20
  -4   0  -3 1240.57   50.69
  -5   5  -1 1593.30   74.32
   5  -5   1 1648.21   60.48
  -5   5  -1 1603.19   34.48
  -4  -2  -1  670.80   32.62
  -4  -2  -1  649.63   36.71
  -3  -4   0  104.74   17.50
   3   4   0  136.79   16.92
  -3  -4   0  128.96    7.08
   4   1  -7 1500.13   41.07
   4   1  -7 1500.37   42.69
   4   0  -7 1523.07   43.77
   4   0  -7 1448.70   40.07
   3  -3  -6  129.78   11.57
   3  -3  -6  122.51   12.42
  -3   3   6  112.79   11.76
   3  -3  -6  132.49   15.59
   0  -2  -6 1250.71   51.74
   0  -2  -6 1161.38   45.33
   1   5  -7 1491.84   61.45
   1   5  -7 1391.34   33.89
  -1  -5   7 1316.16   53.22
  -1  -1  -6   81.19   14.81
   2  -3  -6  310.60   22.07
   2  -3  -6  292.55   14.80
  -2   3   6  293.41   20.19
  -1   6  -6   27.34    4.00
   1  -6   6   22.92   18.67
   1  -7   4   48.22   17.37
   1  -7   1  976.20   63.21
   0  -6  -1  400.18   37.19
  -1  -2   8   23.73    6.74
   1   2  -8   10.51   13.39
  -1  -2   8   23.57    9.19
   2   2  -8   14.46    7.16
  -2  -2   8    1.79    5.21
  -2  -2   8    4.69    6.18
  -5   5   2  316.52   25.12
   5  -5  -2  313.56   24.10
  -2  -4  -2   44.76   15.04
  -3  -2  -3  124.37   20.39
   1  -1   7    4.55    4.04
   1  -1   7   13.80   10.63
   4   3  -6   -1.07    4.04
  -4  -3   6    7.12    5.38
   3  -7   2  568.83   37.59
   3  -7   1   44.29   20.42
  -3   5   4 1151.88   48.12
   3  -5  -4 1220.56   50.48
  -1  -3   8  654.74   22.72
   1   3  -8  655.12   23.38
   1   3  -8  620.27   33.45
  -1  -3   8  617.61   27.28
   2   1  -8   -0.46    8.93
   2   1  -8    7.48    7.01
   2   1  -8    6.92    5.64
  -2  -1   8   -1.25    6.28
  -5  -2   3  357.12   16.39
  -5  -2   3  355.55   20.82
  -5  -2   3  338.49   17.78
  -5   0  -1   16.23   10.34
   5   0   1    1.89    4.37
  -5   0  -1    5.34    7.76
  -2   5   4  409.45   29.75
   2  -5  -4  470.14   30.38
   1  -6  -2  969.34   49.12
  -5  -2   4   36.72    5.89
  -5  -2   4   36.19    9.54
  -4   6  -3    3.26    2.86
   4  -6   3   22.56   12.17
   4  -5   4  275.93   30.93
  -3  -1  -4   17.90   15.23
   3   5  -4  637.16   30.66
  -3  -5   4  645.34   23.19
  -3  -5   4  570.98   34.97
  -3  -5   4  646.90   23.45
   0  -7   3 1056.54   62.58
   2  -7   4 1542.00   80.15
   5   0  -6   40.97    9.21
   5   0  -6   33.49    8.59
   2  -7   0 1144.85   61.46
  -3  -5   3   -1.55   10.29
  -3  -5   3   -4.23    5.46
  -3  -5   3    0.68    6.14
   3   5  -3  -13.33    9.07
   0  -5  -3  258.32   25.08
  -2  -3   8   17.96    7.55
   2   3  -8   19.44    8.21
   2   3  -8   21.48   11.12
   5  -4  -4  104.81   12.20
  -5   4   4  105.18   12.60
   5  -4  -4   97.82   10.70
   1  -5   7  380.79   32.15
  -1  -1   8  406.25   17.35
   1   1  -8  397.54   25.79
   1   1  -8  422.83   23.24
   1   6  -6   48.07   14.77
  -1  -6   6   51.11   14.11
   4   2  -7  298.81   18.90
   5  -1  -6   18.15    9.87
   5  -1  -6   27.19    8.21
   5  -3  -5   28.48    7.81
   5  -3  -5   41.86   11.48
   5  -3  -5   35.72    8.90
  -4   6   2  694.48   40.64
   4  -6  -2  766.84   20.67
   4  -6  -2  849.04   46.05
  -3  -3  -2   71.32    3.58
  -3  -3  -2   65.17   18.37
  -5  -1   0   13.52   10.09
  -5  -1   0   14.83    8.25
   5   1   0    0.78    4.58
   4  -4  -5  143.07   16.16
   4  -4  -5  125.86   10.65
   4  -4  -5  150.77   16.69
  -4   4   5  133.01   14.14
   4  -1  -7  836.51   18.10
   4  -1  -7  899.36   32.34
   4  -1  -7  894.94   20.23
   4  -1  -7  849.57   30.32
  -6   2   2  309.23   19.87
   6  -2  -2  297.02   18.82
  -1  -5  -2  451.03   35.40
   0  -7   2  199.95   30.46
   0  -7   4 1189.72   67.82
   0  -7   4 1144.16   18.76
  -5  -2   2  832.56   33.91
  -5  -2   2  783.05   26.56
  -5  -2   2  886.73   31.27
   3  -7   3 1798.28   75.82
   3  -7   0    8.10   15.00
   3  -7   0   12.34    2.81
   5  -1   2   44.41    6.16
   5  -1   2   45.11   13.76
  -1  -6   0  573.87   35.24
   5  -5   2 2011.91   76.34
  -5   5  -2 1939.88   38.79
   2   6  -4   63.15   14.70
  -2  -6   4   57.64    7.31
  -2  -6   4   55.18   16.76
   2   6  -3  158.13   20.42
  -2  -6   3  146.88   24.03
  -2  -6   3  144.49   10.65
   6  -2  -3   41.18   11.35
  -6   2   3   39.88    9.28
   6  -2  -3   29.30    7.41
   1  -4  -5  342.37   25.71
  -3  -5   5 1391.56   38.58
  -3  -5   5 1398.80   57.62
   3   5  -5 1372.81   48.88
   0  -3   8  386.90   15.21
   0  -3   8  354.86   24.99
   0   3  -8  323.78   27.83
   6  -3  -2   76.90    9.88
  -6   3   2   76.89   16.27
  -6   3   2   80.81    9.06
   6  -3  -2   82.51   11.80
   4  -1   4   45.18   14.04
   4  -3  -6   86.10   11.30
  -4   3   6   77.46   10.11
   4  -3  -6   78.58   12.56
   5   1  -6    9.24    6.92
   5   1  -6    6.70    8.58
   3   1  -8 1360.64   31.72
   3   1  -8 1339.07   39.99
   2  -2  -7  224.82   12.59
   2  -2  -7  227.00   16.54
   2  -2  -7  248.22   19.45
   6  -2  -1  173.91   17.08
   6  -2  -1  194.54   15.26
  -6   2   1  195.66   18.73
  -5  -2   5  367.22   10.72
  -5  -2   5  359.47   14.58
   3  -2  -7 1022.32   32.50
   3  -2  -7 1079.09   33.48
   3  -2  -7  994.69   32.49
   3  -2  -7 1099.36   35.89
  -6   3   1   25.24   12.03
   6  -3  -1   39.03   10.90
  -6   3   1   29.99    8.46
   6  -3  -1   42.83   10.32
   4   4  -4  419.88   21.37
  -4  -4   4  451.54   27.43
  -4  -4   4  423.41   19.65
  -4  -3   0  728.13   40.35
  -4  -3   0  708.62   19.22
  -4  -3   0  718.34   31.87
   6  -1  -3   25.90    9.49
  -6   1   3   25.30    5.89
  -6   1   3   34.16    9.05
   1  -3  -6   64.30   15.79
   1  -3  -6   35.55   11.73
   3   4  -7  247.70   15.38
  -3  -4   7  249.19   15.87
   3   4  -7  249.16   15.18
  -3  -4   7  273.87   16.55
  -6   1   2   41.48   10.58
   6  -1  -2   55.41   10.75
  -2   0  -6  438.78   33.18
   0  -2   8 1451.12   34.60
   0  -2   8 1415.03   51.30
   0   2  -8 1386.94   57.38
  -3  -5   2   34.21    6.79
  -3  -5   2   29.23   14.42
   3   5  -2   38.53   11.97
   3  -6   5 1132.50   62.70
  -1  -4   8 1416.60   49.66
   1   4  -8 1376.65   57.44
   1   4  -8 1391.07   36.93
   3   2  -8 1450.19   39.41
  -3  -2   8 1516.05   31.16
   3   2  -8 1498.28   43.71
   4  -5  -4   71.94   15.92
  -4   5   4   42.71   13.56
   4  -5  -4   38.01    7.91
   1  -7   5   83.06   25.28
   1  -7   0  297.15   29.23
  -4  -4   3  189.58   18.56
   4   4  -3  200.70   16.18
  -4  -4   3  210.55   12.86
   2   0  -8  246.45   17.07
  -2   0   8  252.62   15.81
   2   0  -8  237.64   15.41
   2   5  -7  623.52   30.32
  -2  -5   7  641.48   34.05
   2   5  -7  614.68   22.27
   2  -6   6   10.41   17.47
   3  -3   6   95.99   22.26
   5  -5  -3   85.96   18.29
   5  -5  -3  113.91    9.54
  -5   5   3   88.53   14.87
   3  -4   6  326.89   29.43
   0  -1  -7  445.44   30.59
  -2  -6   5   26.77    6.64
  -2  -6   5   24.84   16.69
   2   6  -5   51.54   12.87
   6  -3  -3   40.14    8.84
   6  -3  -3   38.55   12.00
  -6   3   3   35.95   11.54
  -3   0  -5  313.42   27.09
   5  -3   3    2.44   11.70
   5  -2  -6  368.09   20.67
   5  -2  -6  358.25   20.37
   2  -3   7  580.15   37.81
  -2  -6   2  418.04   34.03
   1  -5  -4    4.24   13.06
  -3   6   3  119.93   20.63
   3  -6  -3  130.96    9.75
   3  -6  -3  161.72   22.68
   0  -4   8   21.59   12.28
   0   4  -8   -6.86   12.96
  -4  -4   5   56.81   13.98
   4   4  -5   73.12   10.54
   0  -7   1    7.94   18.99
   0  -7   5  391.66   36.87
   5  -4   3  227.92   25.09
   3   0  -8  321.41   15.95
   3   0  -8  288.49   18.65
   3   0  -8  347.37   16.58
  -5   6   0  375.50   34.89
  -5   6   0  388.78   13.83
   5  -6   0  429.84   31.58
  -6   1   4   85.78    8.09
   6  -1  -4   95.83   11.58
   2  -4   7 1260.41   56.37
   6  -1  -1  678.44   26.04
  -6   1   1  592.27   31.85
   6  -2  -4  137.46   13.12
  -6   2   4  126.77    9.94
   6  -2  -4  123.19    7.21
   2  -6  -3  194.81   25.27
  -6   3   0  128.26   18.55
  -6   3   0  136.49   10.33
   6  -3   0  140.63   15.73
   6  -3   0   96.55   14.23
  -5  -2   1  399.84   17.37
  -5  -2   1  411.19   22.40
  -5  -2   1  416.91   26.65
   2   4  -8 1104.50   34.12
  -2  -4   8 1164.47   39.70
   2   4  -8 1099.46   44.14
  -1   0  -7   71.31   16.95
  -6   4   1    9.79   13.41
  -6   4   1   10.72    7.06
   6  -4  -1   23.17   10.50
   2  -7   5 1496.12   77.65
  -5   6  -1 1544.39   31.35
   5  -6   1 1548.14   66.55
  -2  -5  -1 2303.19   85.85
   4   4  -2  454.61   24.87
  -4  -4   2  420.43   16.91
  -4  -4   2  430.39   29.08
  -1   0   8   41.42    8.23
   1   0  -8   46.25   12.15
   1   0  -8   24.44   12.28
   4  -7   1  908.57   53.23
   2  -7  -1   36.44   21.17
   3  -7   4  716.73   51.67
   3  -7  -1  698.58   49.78
   3  -7  -1  721.74   16.56
   6  -2   0  109.31   14.60
   6  -2   0  105.87   11.40
  -6   2   0  102.54   16.67
   5  -6  -1   39.88   15.86
  -5   6   1   21.70   16.90
   3  -2   6   75.73   20.38
   3   5  -6  114.13   15.82
  -3  -5   6  145.98   19.45
  -3  -5   6  117.26   12.20
   3   3  -8  240.82   16.99
  -3  -3   8  238.21   13.01
  -3  -4  -1   62.65   18.01
  -3  -4  -1   46.80    5.00
  -6   4   2   17.04   13.85
   6  -4  -2   20.35    9.15
  -6   4   2   31.31    7.70
   6  -4  -2   23.88    9.76
   6   0  -3   72.76   12.27
  -6   0   3   68.03   10.00
  -6   0   3   53.87    8.40
   0  -1   8  914.67   26.57
   0   1  -8  949.27   39.83
   0   1  -8  856.94   43.28
   0  -6   7   89.58   22.06
   0   6  -7   87.54   22.01
   4   3  -7  167.45   14.32
   4   3  -7  156.49    7.47
  -4  -3   7  175.19    8.70
   4  -6   4  145.57   22.89
   1  -2  -7   49.99   13.57
   1  -2  -7   33.06   12.31
   2  -2   7  151.54   21.76
   2  -2   7  117.32    6.78
   5  -2   3  149.32   11.24
   5  -2   3  141.86   21.40
   4  -2  -7  111.17    9.36
   4  -2  -7  135.61   10.26
   4  -2  -7  125.70   13.23
   4  -2  -7  108.74   11.98
   3  -5   6  437.91   35.07
   4  -7   2  217.34   30.30
   4  -4   5 2266.53   85.87
   4  -7   0  412.20   36.17
   4  -3   5 1434.96   63.31
  -4  -1  -3  263.84   26.99
  -6   0   2    4.75    7.58
  -6   0   2    5.58    7.83
   6   0  -2    9.95    7.43
  -6   4   0  261.21   26.36
   6  -4   0  281.86   22.04
  -6   4   0  280.46   14.57
   6   0  -4    6.98    6.74
  -6   0   4    5.25    4.47
  -6   0   4   -0.72    4.95
  -1  -3  -5    4.91   13.92
  -4  -2  -2  236.70   26.88
  -3  -5   1   56.53   15.74
  -3  -5   1   81.42    7.33
   0  -6  -2  616.76   42.16
   4  -6  -3  516.55   38.38
  -4   6   3  468.35   32.98
   4  -6  -3  523.75   18.36
  -1  -7   3   40.44    6.74
  -1  -7   3   70.35   21.85
  -1  -7   4 1278.34   65.89
  -1  -7   4 1292.44   28.98
  -2  -3  -4 1685.25   72.06
   5  -5   3  272.50   25.72
   6  -3  -4   63.63   13.84
   6  -3  -4   40.37    7.91
   6  -3  -4   53.51   10.31
  -2  -6   6   70.29    8.63
  -2  -6   6   60.81   17.27
   2   6  -6   64.53   13.89
   2  -5   7  787.85   46.19
   1  -6   7 1425.50   67.66
  -1  -4  -4   20.95    3.33
  -1  -4  -4   -1.42   13.80
   1   6  -7  376.97   15.26
  -1  -6   7  370.62   31.73
   1   6  -7  374.32   29.86
   4   4  -6   18.07    7.64
  -4  -4   6   21.30    9.96
   5   0   2   24.54    4.95
  -5   0  -2   29.23   14.80
  -5  -1  -1   13.66   14.21
  -2  -2  -5 1237.37   56.90
  -5   6  -2 1621.45   32.36
   5  -6   2 1612.81   71.54
  -2  -6   1   -6.55   13.07
  -6   4   3  605.98   24.37
  -6   4   3  565.89   29.47
   6  -4  -3  575.22   31.09
  -5   4   5  238.21   17.23
   5  -4  -5  230.46   20.91
   5  -4  -5  219.80   15.72
   5   0  -7  136.70   15.11
   5   0  -7  112.51   12.09
   1  -3   8  110.36   19.72
   6  -1  -5  957.39   36.00
   1   5  -8  509.54   19.88
   1   5  -8  487.73   33.90
  -1  -5   8  557.50   32.93
   0   5  -8   18.93   16.67
   0  -5   8   26.62   14.08
   0   5  -8   16.17    6.44
   4   1  -8  337.79   18.55
   4   1  -8  338.28   17.76
  -6   1   0  740.87   37.24
   6  -1   0  732.40   27.72
   2  -1  -8   53.46    7.20
   2  -1  -8   36.57   10.80
   2  -1  -8   35.88   11.86
   4  -5   5 1021.42   53.31
  -1  -6  -1    2.90   14.61
  -1  -2  -6   19.33   15.72
  -5  -3   4  669.70   30.06
  -5  -3   4  652.83   22.54
   5  -6  -2  126.99   19.05
   5  -6  -2   86.32    8.86
  -5   6   2   91.01   21.11
   1  -7   6  173.64   28.96
   1  -7  -1    1.73   12.87
  -4   0  -4  483.87   37.74
   3  -1  -8   17.67    6.99
   3  -1  -8   10.39    7.68
   3  -1  -8   17.83    8.66
   3  -1  -8    2.00    6.56
   4  -2   5  789.90   43.25
  -3   4   6  224.58   19.70
   3  -4  -6  229.05   22.28
   3  -4  -6  243.81   17.14
   1  -6  -3  374.68   29.40
   0  -7   0   46.60   23.25
   0  -7   6  168.06   27.73
   1  -4   8  384.59   31.64
   6  -3   1  461.81   21.90
  -6   3  -1  390.83   29.72
   6  -3   1  388.19   25.77
  -1  -7   2  584.41   44.16
   4  -7   3  143.52   22.45
  -5  -3   3   48.41   10.56
  -5  -3   3   38.70   11.88
  -5  -3   3   40.77    8.65
  -1  -7   5  934.35   22.99
  -1  -7   5  960.64   58.42
   4  -7  -1  -11.62   17.47
   6  -2  -5   -4.96   10.08
   6  -2  -5    7.23    6.32
   5   1  -7   65.19   12.51
   5   1  -7   46.73    9.40
  -2  -4  -3  128.68   25.91
   4   0  -8  395.52   20.25
   4   0  -8  435.95   21.07
  -6   0   1  697.18   34.30
   6   0  -1  763.68   27.32
  -6   0   1  737.91   33.13
   5  -3  -6   18.31   10.49
   5  -3  -6    6.82    6.76
   5  -3  -6   16.72    9.35
  -5   3   6   13.46    6.17
  -4  -4   1   88.39    8.07
  -4  -4   1   64.43   18.36
   0  -4  -5  812.41   19.44
   0  -4  -5  867.94   48.72
   5  -5  -4  451.64   28.29
   5  -5  -4  399.47   18.59
  -5   5   4  377.41   25.59
   3  -5  -5 1603.76   63.26
  -3   5   5 1433.63   58.11
   5  -1  -7   56.06   10.22
   5  -1  -7   53.13   12.69
   6   0  -5  571.26   28.00
  -4  -3  -1  674.57   41.93
  -4  -3  -1  619.44   16.47
   1  -2   8   -3.72    4.06
   1  -2   8    4.18   11.98
   0  -3  -6   49.65   15.30
   0  -3  -6   75.79    4.72
   6  -4   1  411.03   28.62
  -6   4  -1  370.03   16.91
   4   2  -8   12.12    7.74
  -5  -3   5 1518.20   34.41
   2  -4  -6  510.24   32.04
   2  -4  -6  474.16   20.46
  -6   5   1  157.45   25.27
  -6   5   1  145.39   11.44
   6  -5  -1  155.97   18.70
   3  -1   6  240.04   24.31
   2  -1   7  861.60   41.15
   5  -1   3   12.95    4.96
   5  -1   3   12.06   11.25
  -5  -2   0   14.24   14.00
   6  -2   1   10.41   11.45
   6  -2   1   13.54    7.09
  -3  -2  -4    7.40   15.64
  -6   5   0   93.01   21.97
   6  -5   0   55.45   16.87
  -6   5   0   60.40    8.45
   2  -8   2   13.88   16.74
  -3  -4   8  177.69   14.59
   3   4  -8  214.38   15.60
   3   4  -8  226.25   14.82
   3  -3  -7  357.56   20.23
   3  -3  -7  397.00   20.59
   3  -3  -7  377.96   24.05
   2  -5  -5  146.09   22.08
   2  -8   3  167.99   32.17
   0   0  -8  297.38   26.45
   0   0   8  267.73   13.58
  -3   7  -5   52.41    2.22
   3  -7   5   84.09   24.85
  -2  -1  -6 1515.03   65.79
   6   1  -3  362.55   19.51
  -6  -1   3  354.02   20.72
  -6  -1   3  324.55   17.28
  -1  -5  -3    7.80   12.90
  -3  -5   7   73.59   10.12
   3   5  -7   77.10   13.28
  -3  -5   7   38.45   13.75
   3  -6   6  108.43   26.16
   3  -7  -2 2222.53   42.88
   3  -7  -2 2361.35   97.20
  -4   4   6   -0.12    8.62
   4  -4  -6   10.36    8.63
   4  -4  -6   13.28    7.89
   4  -4  -6   13.35   10.63
  -3  -3  -3  405.73   35.44
  -6  -1   4   82.54    8.92
  -6  -1   4   88.96   10.61
   6   1  -4   88.59   12.25
  -6   5   2   35.37    8.47
   6  -5  -2   58.65   16.18
  -6   5   2   37.17   17.84
  -5  -3   2  158.52   12.29
  -5  -3   2  154.55   17.80
  -5  -3   2  164.35   20.26
   2   5  -8  561.67   22.54
  -2  -5   8  511.73   30.05
   2   5  -8  540.36   32.42
   0  -5  -4  524.73   40.42
   1  -8   3   16.18   18.96
  -4   5   5   20.37   12.08
   4  -5  -5   28.73    8.54
   4  -5  -5   24.75   14.48
   4  -5  -5   37.85   12.10
   2  -7   6   96.94   27.04
   1  -1  -8   97.10   17.41
   1  -1  -8   91.32   15.68
  -2  -2   9  187.78   13.22
   2   2  -9  196.41   14.93
   2   2  -9  167.52   19.05
   2  -3  -7  922.84   38.62
   2  -3  -7 1021.80   29.61
   2  -3  -7 1144.38   48.33
   2  -7  -2    9.65   18.58
   1  -5   8 1008.81   49.63
  -6   4   4 1131.48   40.15
   6  -4  -4 1101.51   35.62
   6  -4  -4 1000.32   31.54
   6  -4  -4 1061.00   43.63
   5  -6   3  105.91   23.87
  -5   6  -3   76.95    6.80
   5  -4   4  120.05   19.25
   1  -8   2  379.67    7.87
   1  -8   2  428.25   44.27
  -3  -1  -5 1439.98   70.95
   4  -1  -8   31.25   10.90
   4  -1  -8   20.81    5.97
   4  -1  -8   39.71    9.61
  -1  -3   9 1291.29   45.91
   1   3  -9 1254.28   56.74
   1   3  -9 1319.00   39.35
   2  -8   1   17.17   21.01
   6  -3  -5  203.49   13.99
   6  -3  -5  187.60   17.24
   6  -3  -5  190.12   10.64
   2  -6   7  203.35   31.78
   5   2  -7  302.08   17.48
   3  -8   2  290.89   34.29
  -3  -5   0   58.31   17.81
  -3  -5   0   25.56    5.14
   6   1  -2  116.74   10.99
  -6  -1   2   89.33   12.82
   1  -8   4   -5.22   20.59
   2   3  -9    0.66    7.26
   2   3  -9   -1.26    7.90
  -2  -3   9   -2.22    7.40
  -1  -7   1 1109.00   56.70
   1   2  -9  477.72   31.01
  -1  -2   9  457.73   20.49
  -1  -2   9  507.46   25.21
   3  -6  -4  330.21   32.49
  -1  -7   6  187.85   26.72
   5  -3   4    3.07   13.76
   0  -2  -7  900.44   44.62
  -4  -4   7  515.67   24.30
   4   4  -7  511.26   20.06
   2   6  -7  735.44   39.11
  -2  -6   7  727.71   41.22
   2  -8   4 1335.92   72.88
  -1  -1  -7   27.00   17.53
   4  -6   5   14.91   15.63
   6  -5   1  393.44   31.12
  -6   5  -1  372.43   17.09
  -5  -3   6 1090.11   31.84
  -5  -3   6  985.58   22.02
   5  -2  -7  274.68   21.76
   5  -2  -7  308.52   17.87
   6   1  -5   24.30    8.24
  -6  -1   5   16.72    3.69
  -6  -1   5   19.20    4.06
   4  -3  -7   13.77    8.96
   4  -3  -7   12.45    6.94
   4  -3  -7   15.62    7.43
   4  -3  -7   -6.11    8.28
   2   1  -9   13.32    8.55
   2   1  -9   16.80    8.59
  -2  -1   9   18.99    8.24
   2   1  -9    6.47    9.80
   5  -6  -3  287.01   14.31
   5  -6  -3  264.76   26.34
  -5   6   3  242.59   25.65
   3  -8   1  125.88   29.81
   3   6  -4  579.93   32.65
  -3  -6   4  641.34   42.17
  -3  -6   4  615.93   25.11
  -4   7  -4  297.94    6.91
   4  -7   4  317.76   30.82
  -2  -6   0  130.95   23.69
   4  -1   5   58.82   17.38
   3  -8   3   62.64   25.15
   6  -1  -6  544.86   29.32
   6  -1  -6  550.49   26.43
  -1   1  -8   61.00   17.77
  -4  -3   8  548.28   13.52
   4   3  -8  591.93   26.96
   4   3  -8  548.22   14.45
   4  -7  -2  221.87   10.53
   4  -7  -2  214.99   30.58
  -6   0   0 1511.59   59.59
  -6   0   0 1634.44   61.15
   6   0   0 1623.26   40.73
  -2  -5  -2 1364.09   70.04
   6  -1   1  197.89   12.21
   2  -6  -4  842.00   49.48
   6   0  -6  374.06   21.01
   6   0  -6  373.22   20.98
   5  -7   1  604.22   44.19
   5  -5   4   88.61   19.65
   5  -7   0  315.40   32.93
  -3  -6   5  628.99   44.35
  -3  -6   5  610.32   26.55
   3   6  -5  621.51   33.72
   3   2  -9 1424.32   44.54
   3   2  -9 1457.90   35.36
   3   2  -9 1372.82   42.54
  -3  -4  -2  295.79    8.25
  -3  -4  -2  278.93   33.56
  -4  -5   4  173.54   22.17
   6  -5  -3    4.97    9.70
   6  -5  -3    5.78    5.04
  -6   5   3    2.26   10.77
  -3  -6   3  545.36   38.95
  -3  -6   3  628.24   26.02
  -1  -4   9  331.75   25.11
   1   4  -9  333.64   27.80
   1   4  -9  340.90   18.74
   1  -4  -6   40.96   17.66
   4  -6  -4   73.89    9.23
   4  -6  -4   85.35   21.11
   3   1  -9 1306.62   36.65
   3   1  -9 1438.74   45.06
   6  -3   2  746.08   40.63
   0   6  -8    2.48    5.45
   0  -6   8   23.82   14.92
   6  -4   2  371.07   30.38
   1  -8   1  559.39   56.83
   4   5  -5   41.57   10.67
  -4  -5   5   37.51   17.96
   1   1  -9   10.49   14.28
   1   1  -9   22.26   11.87
  -1  -1   9   21.95    7.95
  -4  -4   0   23.53    5.55
  -4  -4   0   28.73   16.66
   3  -4   7   46.64   17.84
   3  -2  -8  590.09   27.88
   3  -2  -8  494.97   23.47
   3  -2  -8  506.69   21.51
   3  -2  -8  491.02   23.59
   0  -7  -1  899.76   54.20
   0  -7   7  235.01   30.48
   0   7  -7  225.11   10.81
   6  -2  -6  675.58   32.88
   6  -2  -6  679.77   29.47
   5  -2   4  267.35   29.43
  -5  -3   1   16.98    6.44
  -5  -3   1    9.79   13.28
   1  -8   5   90.27   27.67
  -4  -5   3  475.89   34.61
   4   5  -3  415.82   27.19
   1  -5  -5  229.07   28.05
   0  -3   9  263.33   14.60
   0  -3   9  255.99   23.51
   0  -8   3  427.31   44.25
  -1  -6   8   57.19   17.28
   1   6  -8   39.91    7.71
   1   6  -8   26.16   16.35
  -5  -1  -2  285.51   29.67
   2   4  -9  152.06   13.91
   2   4  -9  161.75   19.76
  -2  -4   9  139.35   15.29
   0  -8   4  267.43   40.31
   0  -8   4  247.25    7.67
   3  -3   7    7.09   12.85
  -1   7  -7  816.28   19.58
   1  -7   7  724.17   52.20
   5  -7   2  367.94   36.12
  -5   7  -2  345.04   10.67
   1  -7  -2  721.20   46.41
   3  -8   0  -12.55   14.31
   3  -8   0    0.09    1.98
   2  -8   0  168.90   28.86
  -6  -1   1  178.24   17.69
   6   1  -1  195.98   12.51
  -6  -1   1  200.28   20.01
   2  -2  -8   -1.59    8.80
   2  -2  -8    4.90    6.37
   2  -2  -8   -2.72   10.02
   5  -7  -1  -11.82   16.05
  -2  -7   4  112.19   26.76
  -2  -7   4   86.41    9.55
   1  -3  -7   23.21   15.22
   1  -3  -7   16.25    4.98
   3   3  -9  329.47   20.14
  -3  -3   9  319.60   15.90
   0  -6  -3  119.45   26.94
   3  -8   4  530.22   51.65
   2  -8   5 1117.53   73.61
  -4  -2  -3    1.73   14.63
  -2   0  -7  793.15   45.01
   0  -4   9    3.77   11.22
  -5   4   6  781.80   30.71
   5  -4  -6  807.98   31.34
   5  -4  -6  886.23   35.95
  -5   0  -3  122.57   23.35
   4  -4   6  605.29   47.14
  -1  -6  -2   25.88   19.65
  -3   0  -6  208.89   26.54
   3   6  -6  356.76   25.38
  -3  -6   6  367.77   18.37
  -3  -6   6  371.66   33.71
   0  -2   9 1154.71   46.39
   0  -2   9 1089.56   33.14
   3  -5   7   82.30   23.80
   6  -6   0   43.98   17.15
  -6   6   0   36.11    8.28
   6  -2   2  565.89   35.28
   6  -2   2  556.91   22.39
   2   0  -9  372.84   24.28
   2   0  -9  434.80   23.57
  -2   0   9  401.98   22.28
   6   1  -6   22.20   10.71
   2  -4   8  735.36   46.93
  -2  -7   3  376.67   17.21
  -2  -7   3  385.27   37.19
  -5   5   5  201.87   18.85
   5  -5  -5  218.44   20.98
   5  -5  -5  216.42   22.34
   5  -5  -5  195.80   15.79
  -2  -7   5   20.26   20.48
  -2  -7   5   28.01    7.15
   6  -6  -1  363.69   31.10
  -6   6   1  338.74   17.08
  -5  -2  -1  248.29   23.84
  -4  -1  -4  423.57   34.11
  -3  -6   2   33.12    8.31
  -3  -6   2   66.53   20.06
   6  -5   2   82.26   16.82
  -6   5  -2   88.81    9.68
   2  -3   8  864.95   22.04
   2  -3   8 1053.71   53.15
   0  -8   2   -7.46   24.06
   1  -6   8 1371.06   68.16
  -1   6  -8 1275.25   31.42
   3   0  -9  491.25   22.17
   3   0  -9  403.66   20.93
   3   0  -9  433.76   23.16
   5   0  -8  158.34   14.79
   5   0  -8  176.16   15.03
   4   5  -6  260.99   17.20
  -4  -5   6  323.24   26.37
   5   1  -8   -7.71    9.94
   5   1  -8   -1.70    7.47
   4  -8   1 1012.28   58.96
   4  -3   6 1065.60   60.47
   0  -8   5  -14.91   22.37
   4  -8   2  252.87   34.34
  -6  -2   4  499.58   20.98
   4  -2  -8  184.76   16.47
   4  -2  -8  197.13   16.88
   4  -2  -8  203.90   15.52
   4  -2  -8  170.13   12.64
   3   5  -8  148.11   14.12
  -3  -5   8  157.38   19.13
   3   5  -8  154.10   14.28
  -6   4   5  712.31   29.85
   6  -4  -5  700.50   28.62
   6  -4  -5  701.57   36.17
   6  -4  -5  716.76   29.21
  -1  -7   0  174.73   29.97
   3  -7   6  131.92   31.39
  -1  -7   7   67.21   22.14
   4  -5   6   85.69   26.69
   0  -1  -8   52.33   17.73
  -4  -3  -2  617.20   42.60
   3  -7  -3  681.10   49.80
   3  -7  -3  647.20   21.69
  -4  -5   2 2054.87   80.50
  -4  -5   2 1988.14   49.87
  -6  -2   3 1074.00   37.12
   5  -6   4  358.74   33.38
  -6   6  -1  254.66   13.40
   6  -6   1  244.77   29.19
   3  -2   7   10.50    3.26
   3  -2   7   27.63   13.90
  -5  -4   4  660.79   35.05
   5   4  -4  575.87   28.60
   1   5  -9    1.25   13.10
   1   5  -9   -0.48    6.36
  -1  -5   9    0.20    9.57
   2  -5   8  826.85   47.65
   5  -3  -7  876.43   24.37
   5  -3  -7  963.37   36.42
   5  -3  -7  997.13   37.61
   5  -3  -7  959.16   33.29
   1  -6  -4   78.21   19.83
  -6  -2   5    4.54    4.68
  -6   6   2  777.13   46.74
   6  -6  -2  845.35   47.58
  -6   5   4  717.36   37.60
   6  -5  -4  741.86   36.51
   6  -5  -4  711.78   33.54
   6  -5  -4  749.74   27.55
  -5  -4   5 1347.44   50.58
   5   4  -5 1249.57   40.80
   4  -8   0 1293.92   75.93
   1  -8   0 1104.81   71.72
  -6   3   6   20.04    5.31
   6  -3  -6   29.73   13.10
   6  -3  -6   22.84   10.02
   5  -1  -8   51.95   11.97
   5  -1  -8   63.19   12.44
   4   1  -9   86.90    6.02
   4   1  -9   96.52    5.66
   4   1  -9  113.26   12.52
   5  -7   3   67.99   24.84
  -5   7  -3   68.32    5.49
  -7   2   3  436.28   24.40
   7  -2  -3  465.62   24.63
   7  -2  -3  463.12   19.68
  -2  -3  -5  294.36   29.53
  -7   3   2  223.63   25.48
   7  -3  -2  216.41   16.03
   7  -3  -2  215.96   19.93
   4  -8   3   25.74   22.89
   4   4  -8  648.35   27.99
  -4  -4   8  613.86   22.50
   4   4  -8  611.98   22.18
  -2  -7   2  723.42   49.83
   7  -2  -2   17.04    9.49
  -7   2   2  -11.55    9.81
   7  -2  -2    7.27    6.43
  -1   0  -8  177.45   25.46
  -1  -4  -5    4.76    1.29
  -1  -4  -5   11.39   17.18
   5  -7  -2   11.69   14.72
   5  -7  -2    7.87    5.55
  -2  -7   6  151.79   27.92
  -2  -7   6  139.58   11.04
   4  -7   5  121.27   25.87
   2  -7   7  103.53   28.51
  -2   7  -7   91.08    6.48
   5  -6  -4  864.07   49.01
  -5   6   4  782.92   44.04
   5  -6  -4  879.10   29.60
   2  -2   8   10.91   15.36
   2  -2   8    6.19    4.13
   1   0  -9   17.62   12.03
  -1   0   9    8.71    9.13
  -2  -6   8 1835.81   72.37
   2   6  -8 1676.85   66.28
   2   6  -8 1840.36   48.30
   0   5  -9  138.96   12.25
   0  -5   9  131.41   21.63
   2  -7  -3  151.83   28.33
  -5  -4   3   24.59   14.73
  -1  -3  -6  206.91   29.28
  -3  -5  -1   13.41    4.72
  -3  -5  -1   28.58   18.37
   6   0   1  696.08   21.11
  -6   0  -1  764.72   40.81
   5   2  -8   -6.29    9.42
   1  -8   6   90.05   29.00
   4  -7  -3  394.83   16.17
   4  -7  -3  372.24   38.26
   4   2  -9  475.62   25.47
   7  -3  -3  360.50   24.82
   7  -3  -3  355.41   18.82
  -7   3   3  312.24   25.10
   1  -2  -8    2.07    4.01
   1  -2  -8   34.61   10.72
   5  -1   4   67.80    5.39
   3   4  -9   49.70   11.93
  -3  -4   9   50.95    9.15
   3   4  -9   57.66   12.16
   3  -8  -1  433.17   40.56
   0  -1   9 1304.12   37.59
   0   1  -9 1333.46   58.50
  -2  -4  -4  348.40   33.74
  -4   0  -5   17.85   19.09
   6   0  -7   11.30   10.94
   6   0  -7   18.84   11.18
   3  -5  -6  835.56   35.54
   3  -5  -6  820.12   47.31
  -6  -2   2  544.41   33.11
  -6  -2   2  478.95   23.24
  -6  -2   2  470.10   25.99
   6  -1  -7  666.19   30.74
   6  -1  -7  611.24   27.45
   0  -8   1  317.89   41.70
  -7   3   1   74.78   19.10
   7  -3  -1  105.70   15.13
   4  -2   6  805.15   53.14
   3  -6   7   28.71   22.46
  -2  -6  -1  311.48   32.23
   3  -8   5   80.65   29.16
   3  -4  -7   15.98    9.01
  -3   4   7    8.73   13.66
   3  -4  -7   20.35   12.77
   4   0  -9    4.25    9.95
   4   0  -9    0.18    5.52
   4   0  -9    9.32    5.49
   4   0  -9   17.47    8.44
  -2  -2  -6    3.64   15.49
  -7   2   4 1672.66   49.14
   7  -2  -4 1666.88   57.72
  -7   1   3 1355.09   48.73
   7  -1  -3 1364.54   47.24
  -7   1   3 1378.15   41.30
   2   5  -9  232.61   16.26
   2   5  -9  228.66   25.49
  -2  -5   9  236.31   20.67
  -6  -1   0 1040.95   49.32
   2  -8  -1   -2.33   18.40
  -5  -3   0  111.73   22.35
  -5  -3   0   90.91    8.78
   3   6  -7  341.30   26.21
  -3  -6   7  343.40   29.73
  -6   1  -2   65.50   19.97
   6  -1   2   83.26    8.73
   0  -8   6  529.63   42.87
   6  -4   3   94.93   18.72
   7  -2  -1   70.38   12.81
  -7   2   1   62.80   17.02
   7  -2  -1   59.97   12.21
  -5  -4   6  343.09   24.22
   5   4  -6  340.70   16.93
   7  -4  -2  426.14   29.51
   7  -4  -2  443.04   23.84
  -7   4   2  437.42   32.97
  -4   5   6   85.60   15.30
   4  -5  -6   71.62   12.46
   4  -5  -6   80.54   16.18
   4  -5  -6   54.93   17.48
   4   5  -7 1019.31   38.13
  -4  -5   7 1050.00   45.04
   5  -4   5  110.46   21.25
  -3  -6   1    1.44   17.96
  -3  -6   1   21.77    6.18
   4  -6   6  321.57   39.98
   6  -6   2   35.94   18.63
  -6   6  -2   24.45    7.23
  -7   1   4  668.07   26.38
  -7   1   4  646.18   20.75
   7  -1  -4  617.56   31.46
   2  -8   6  119.14   26.17
  -1  -5  -4  303.58   30.70
  -7   1   2  239.20   17.83
   7  -1  -2  252.57   15.88
  -7   1   2  219.34   20.76
   1  -4   9  247.39   25.79
   1  -4   9  183.83   12.87
   7  -4  -1  831.11   37.66
  -7   4   1  808.52   49.74
   7  -4  -1  845.83   39.78
   1  -3   9    4.71    5.87
   1  -3   9   10.74   14.24
   3  -1  -9    9.48    8.90
   3  -1  -9   -7.21    8.78
   3  -1  -9   13.73    7.12
   6  -3   3  578.95   37.01
  -1  -8   4 1099.95   67.06
  -1  -8   4 1089.83   27.39
   4  -4  -7  183.29   17.85
  -4   4   7  157.61   18.53
   4  -4  -7  178.98   16.79
   0  -4  -6  233.24   30.21
   0  -4  -6  223.13    9.06
  -3  -3  -4  118.62   26.13
   7  -3  -4  516.36   30.41
   7  -3  -4  492.32   18.46
  -7   3   4  492.72   23.19
   6   1  -7   97.06   13.75
   6   1  -7  109.25   13.76
  -4  -4  -1  545.52   40.29
  -4  -4  -1  440.69   14.13
   3  -6  -5  790.06   47.20
  -1  -2  -7  108.58   22.84
   2  -5  -6  201.60   15.08
   2  -5  -6  192.94   26.65
  -3  -2  -5   96.68   23.05
   4  -8  -1  515.61   13.84
   4  -8  -1  582.50   49.96
   6  -6  -3  253.39   24.56
   6  -6  -3  239.41   15.33
  -6   6   3  199.80   24.43
   2  -1  -9  627.82   33.06
   2  -1  -9  604.94   33.00
   5  -5   5   77.51   19.15
   5  -3   5  150.64   27.55
  -5  -4   2   29.87   15.89
  -5  -4   2   20.46    8.07
  -1  -8   3  449.92   16.13
  -1  -8   3  509.31   50.30
   2  -4  -7 1569.10   42.19
   2  -4  -7 1628.51   68.72
   7  -4  -3    4.05    6.66
   7  -4  -3   17.59    9.74
  -7   4   3   13.50   11.27
  -4  -5   1  733.19   25.16
  -4  -5   1  803.56   48.15
   4   3  -9  672.65   28.34
   2  -6   8  204.04   27.34
   6  -5   3   80.01   22.04
   6  -2  -7  998.16   37.36
   6  -2  -7 1092.58   43.80
   4  -8   4   78.24   27.22
  -1  -8   5  968.18   65.14
  -1  -8   5  789.48   22.66
   0  -7  -2 1274.50   75.37
   0   7  -8   88.80    8.79
   0  -7   8   98.45   25.12
   0  -5  -5  854.55   51.37
   0  -5  -5  859.88   23.00
   5  -2  -8    8.03    5.50
   5  -2  -8   14.34   10.17
   5  -2  -8   -2.01    8.56
   4  -6  -5   39.08    9.86
   4  -6  -5   32.07   19.75
   7  -3   0  564.05   31.86
   7  -3   0  563.88   27.85
  -3   1  -7   16.49   16.60
   0  -3  -7  440.54   33.57
  -2  -5  -3   -4.85   19.59
   3  -3  -8  571.75   23.49
   3  -3  -8  608.14   32.73
   3  -3  -8  473.41   27.77
  -2  -7   1  351.68   39.57
  -2  -7   7  583.52   43.76
   1  -5   9  768.60   47.91
   7  -4   0  529.51   27.76
   7  -4   0  524.79   32.01
   1  -2   9   39.61   14.78
   1  -2   9   18.09    5.94
   7  -2  -5  329.34   25.13
  -3  -4  -3  341.02   33.31
   7  -1  -5   28.57   13.05
  -2   1  -8   75.69   18.82
   5   3  -8   -2.64    7.58
   7  -1  -1  186.18   15.56
  -7   1   1  153.85   18.82
  -7   1   1  161.22   21.08
   5  -7   4  530.30   43.12
  -1   7  -8  488.29   16.24
   1  -7   8  480.18   44.94
  -6  -2   1   10.77   13.47
   4  -1  -9   24.84   10.27
   4  -1  -9   31.34    8.32
   4  -1  -9   33.69    7.63
   1  -7  -3   92.14   28.48
  -7   0   3  335.79   19.92
   7   0  -3  344.52   21.03
  -7   0   3  337.94   21.51
   2  -6  -5  767.35   48.02
   7   0  -4  151.48   15.86
  -7   0   4  126.66   13.02
   5  -7  -3   58.19   22.84
   5  -7  -3   72.20    8.55
   6  -2   3  792.15   44.17
   6  -2   3  753.60   25.33
  -1  -7  -1    1.05   16.95
  -2  -1  -7  601.65   45.99
   5  -8   1    8.30   19.97
  -1  -7   8    2.98   14.81
   6  -7   0   41.60   19.96
  -5  -1  -3  619.13   46.06
   7  -2   0    7.47    8.35
   7  -2   0    6.55   10.60
  -1  -6   9  157.12   22.57
   1   6  -9  113.01   12.14
   4  -3  -8  -14.17    7.24
   4  -3  -8    6.34    8.09
   4  -3  -8    1.86    6.52
   4  -3  -8    4.90    8.94
   0  -6   9   26.24   16.49
   0   6  -9   19.96    8.30
   1  -8  -1 1002.52   66.52
   2   2 -10  320.72   20.53
   2   2 -10  281.03   25.04
   2   2 -10  303.97   22.11
  -1  -8   2   -5.39   20.36
  -2  -3  10   73.12   12.47
   2   3 -10   74.69   11.06
   2   3 -10   66.14   15.47
   6  -4  -6   34.46   10.46
  -6   4   6   49.62    8.36
   6  -4  -6   49.23   12.64
   6  -4  -6   44.51   11.82
  -3  -1  -6 1378.90   69.59
   6  -5  -5 1420.86   44.26
   6  -5  -5 1443.53   57.75
  -6   5   5 1373.43   51.39
   2  -9   3  740.22   60.25
   7  -5  -1  514.23   31.56
   2  -3  -8  348.45   28.69
   2  -3  -8  297.80   15.19
  -5  -4   7    1.74    7.46
  -5  -2  -2   25.48   15.57
   5  -8   0    8.23   14.80
   0  -8   0   34.12   21.55
   7  -5  -2  638.09   36.46
   7  -5  -2  597.83   31.73
  -7   5   2  573.54   44.14
  -1  -8   6  188.99   32.30
   5  -8   2   53.59   24.58
   6  -7   1  117.68   26.42
   0   0  -9  589.65   36.42
   7  -4  -4  200.59   21.30
  -7   4   4  208.53   19.72
  -4   1  -6  109.32   23.46
  -5   5   6  132.24   18.16
   5  -5  -6  138.25   20.28
   5  -5  -6  149.45   20.03
   5  -5  -6  149.63   15.03
   5  -6   5   87.20   22.63
   6  -7  -1  360.66   33.95
  -1  -3  10  604.05   32.25
   1   3 -10  597.95   27.68
   5  -2   5  448.64   38.93
   5  -2   5  417.46   13.83
   2  -9   2  156.62   36.02
   1  -8   7   71.95   25.25
   3  -8  -2 1833.77   95.92
   3  -8  -2 1675.29   36.68
  -6  -3   4  362.12   22.53
  -6  -3   4  445.60   25.52
   7  -3  -5  179.66   19.59
   7  -3  -5  213.30    8.81
  -7   0   2   14.65   10.74
  -7   0   2   11.05   11.24
   7   0  -2   30.37    9.53
   3   5  -9  181.28   19.06
  -3  -5   9  207.80   18.24
   3   5  -9  203.06   16.87
  -1  -6  -3  126.85   25.61
   1  -1  -9   28.53   15.32
   2  -9   4  785.08   67.01
   0  -8   7  789.76   61.37
   7   0  -5  101.84   15.71
   5  -4  -7  906.58   38.38
   5  -4  -7  794.12   31.69
  -5   4   7  769.42   33.77
   5  -4  -7  916.58   40.70
   6  -6   3  452.61   39.25
  -6   6  -3  401.55   16.61
   0  -6  -4  175.22   31.24
  -6  -3   5    1.23   10.32
  -6  -3   5    5.04    6.56
   3   2 -10  165.91   17.36
   3   2 -10  198.61   14.18
   3  -9   2  227.07   36.68
   7  -5   0  247.38   26.34
   3  -8   6  494.10   52.39
   3  -7  -4    5.90   18.23
   3  -9   3  224.84   33.06
   3   6  -8   38.53   11.61
  -3  -6   8   24.17   15.04
  -5   0  -4   19.22   19.82
   1  -9   3   98.88   36.75
   5   1  -9   -1.38    9.68
  -1  -4  10    6.07   11.42
   1   4 -10    7.18    9.15
   2   1 -10   26.19   12.63
   2   1 -10   15.09    9.42
   2   1 -10   12.50   10.94
   1  -9   4  174.82   30.68
   0  -2  -8  332.17   29.64
   4  -7   6   10.50   23.11
  -5  -4   1   12.21    7.20
  -5  -4   1   24.91   16.35
  -4  -6   5   30.16   19.83
  -4  -5   8  436.40   26.37
  -4  -2  -4   90.56   25.23
  -4  -6   4   67.49   22.31
   2   4 -10  341.82   19.78
  -2  -4  10  333.95   21.88
  -6   0  -2  -12.28   14.01
   6   0   2   -0.72    3.90
  -6  -3   3 1129.41   52.09
  -6  -3   3  989.48   41.46
   6  -3  -7  272.94   21.28
   6  -3  -7  295.13   22.17
  -1  -1  -8  162.54   27.21
   5  -6  -5  587.58   25.85
   5  -6  -5  580.74   40.56
   5  -6  -5  609.50   36.51
   4  -8  -2   14.67   20.69
   5   0  -9   91.23   12.64
   5   0  -9  100.48   16.35
  -6  -1  -1  507.70   39.30
  -3  -6   0   11.11   18.31
  -3  -6   0   19.45    5.35
   4  -7  -4  136.66   12.89
   4  -7  -4   94.40   30.75
   7  -5  -3  145.84   15.98
   7  -5  -3  130.62   19.48
   3  -4   8    2.86   14.13
  -4  -4   9  305.32   13.96
   4   4  -9  298.29   20.59
  -3  -7   4  474.30   44.01
   3   3 -10   18.48    9.39
  -3  -3  10   27.54    7.32
  -3  -7   5  266.18   37.38
   3   1 -10  563.46   25.43
   3   1 -10  541.51   28.48
   2  -8  -2   -2.14   18.75
   1  -5  -6   96.56    9.84
   1  -5  -6  137.21   21.03
   7  -4   1   11.68   14.07
   7  -4   1   10.87   10.38
   1  -4  -7    2.66    4.80
   1  -4  -7   10.02   16.28
   6  -6  -4  358.93   19.11
  -6   6   4  321.87   29.87
   6  -6  -4  336.10   28.49
   7  -3   1   34.56    9.67
   7  -3   1   14.53   14.79
   5  -8  -1   75.35   21.63
   6   0  -8  194.62   17.93
   6   0  -8  172.19   16.36
  -4  -3  -3  134.45   27.79
   3  -9   1  888.71   70.04
   4  -8   5   10.97   18.28
   2   6  -9  792.54   47.04
  -2  -6   9  988.71   46.31
   2   6  -9 1022.78   34.50
   6  -7   2   45.11   22.94
   1  -6   9  606.29   44.55
  -1   6  -9  606.22   22.97
   2  -9   1   74.08   31.91
  -5  -3  -1  206.75   29.95
   5  -8   3  237.18   36.63
   4  -4   7    2.95   15.54
  -1   1  -9    1.76   11.13
   7  -1  -6  260.91   23.68
   6  -7  -2  880.26   51.64
   1  -9   2   39.22   25.58
   3  -5   8   90.93   22.10
  -3  -5  -2   54.35   24.82
   2  -8   7   27.65   25.07
   5   2  -9   65.92   14.94
   7  -1   0  120.51   12.46
  -7   1   0   87.16   19.05
   3  -2  -9  107.09   11.74
   3  -2  -9  117.28   16.72
   3  -2  -9   94.69   14.44
   3  -9   4  171.36   39.92
  -4  -6   6   46.77   17.08
   4   6  -6   21.70   14.07
  -4  -5   0  141.87   28.06
   4  -5   7  180.50   30.06
   3  -3   8  312.28   36.60
  -4  -1  -5   87.52   24.15
   2  -7   8   14.62   14.52
  -2   7  -8   -1.06    4.63
   6  -1  -8   90.21   13.25
   6  -1  -8   80.46   16.52
   7  -2  -6   26.20   13.88
   7  -2  -6   19.20    9.20
  -4  -6   3   -1.48   15.04
   1  -9   5    7.23   23.37
   2  -9   5  501.94   56.16
   2  -7  -4  867.04   58.82
  -2  -6  -2  561.38   49.45
   6   1  -8  295.49   22.30
   6   1  -8  286.46   21.94
  -1  -8   1   94.35   29.95
  -3  -7   3  602.62   49.43
  -3  -7   6   -4.00   17.64
   6  -4   4   71.84   22.36
   7   0  -1   62.95   11.22
  -7   0   1   82.12   15.20
   5  -3  -8  774.03   33.87
   5  -3  -8  901.10   35.61
   5  -3  -8  853.07   38.77
   6  -1   3  323.65   13.63
  -6   1  -3  337.01   35.88
  -2  -7   0  103.53   24.86
   0  -3  10   10.40   14.08
  -7  -1   4   49.50   10.44
   7   1  -4   51.13   11.82
   7  -5   1    9.76   15.23
  -1  -1  10   38.49    9.90
   1   1 -10   27.38   13.82
  -2  -7   8  891.90   58.54
   4  -3   7   87.79   24.70
   7   0  -6 1122.97   45.49
   0  -4  10  193.21   24.52
   1  -6  -5   54.73   18.86
  -1  -8   7   -7.70   18.38
  -6  -2   0  392.72   33.03
  -5  -5   5  897.62   47.91
   2  -4   9  139.44   26.87
   5  -1  -9  633.08   29.54
   5  -1  -9  621.41   28.96
   6  -5   4  426.45   37.59
   7  -2   1  137.68   13.08
   7  -2   1  113.03   18.92
   1  -3  -8  115.84    7.89
   1  -3  -8   77.28   23.45
   4  -2  -9  316.29   20.64
   4  -2  -9  350.92   22.95
   4  -2  -9  326.76   20.85
  -5  -5   4  352.44   31.64
   2  -2  -9  455.21   18.90
   2  -2  -9  466.19   32.34
   7  -4  -5   69.39   16.63
   7  -4  -5   59.99   13.52
  -7  -1   3    4.76    8.47
   7   1  -3    3.21    8.31
  -7  -1   3    9.36   10.60
  -3   0  -7   36.81   22.37
   1   5 -10    8.14    7.83
  -1  -5  10   -2.98   11.78
   4  -9   2   -9.55   18.57
   6  -3   4   69.93    9.25
   6  -3   4   86.82   18.86
   7   1  -5  287.45   21.69
  -3  -4  10  194.05   15.07
   3   4 -10  180.25   18.30
  -7   6   1   83.76   11.30
   7  -6  -1   85.37   19.59
   3   0 -10   -0.94   11.12
   3   0 -10  297.57   16.88
  -2   0  -8  247.11   33.24
   4  -9   1  448.74   41.89
   5  -7   5  619.96   46.25
   0  -9   4   89.17   31.49
  -4  -4  -2  595.79   45.94
   2  -3   9  482.58   39.53
  -5   1  -5  498.90   40.19
   4   2 -10  346.52   23.75
   3  -9   0  462.47   52.64
   2  -5   9   31.88   20.71
  -2  -8   4   16.44    6.78
  -2  -8   4   24.80   20.59
   7  -5  -4   24.84   13.25
   4   1 -10   89.32   13.31
   2   0 -10  136.06   18.63
  -2  -8   5    8.36   23.50
  -2  -8   5   26.37    8.11
   3  -6   8   36.57   24.77
   4  -9   3  371.57   47.03
   7  -6   0   46.62   16.99
  -7   6   0   43.02    9.04
   0  -2  10  270.34   17.37
   0  -2  10  205.95   21.26
   1  -9   1  411.11   56.77
   5  -7  -4  284.67   33.80
   5  -7  -4  288.34   17.72
   4  -6   7  715.13   60.04
  -5  -5   6   63.54   18.12
   2   5 -10   68.14   23.67
  -2  -5  10   93.84   16.49
   2   5 -10   98.49   12.96
   0  -9   3   33.99   30.05
   7  -3  -6   25.26   11.96
   7  -3  -6   33.40   11.96
   7  -6  -2  607.82   37.15
   6  -2  -8  338.79   23.20
   6  -2  -8  315.94   23.54
   5  -4   6   42.23   19.92
   5  -8  -2   40.45    6.10
   5  -8  -2   57.96   22.43
  -4  -6   7   76.52   20.61
   0  -8  -1  345.66   44.12
  -5  -5   3  126.42   22.15
   0  -9   5   98.69   34.60
   0   5 -10  243.73   17.65
   0  -5  10  219.68   25.75
   2  -9   0  130.23   31.81
   3  -9   5  223.74   35.73
   3  -2   8  508.74   44.22
   6  -7   3  576.29   42.73
   0  -7  -3  513.21   41.32
   0   7  -9   -9.05    5.50
   0  -7   9    0.18   16.86
   5   3  -9   37.94   12.18
   5  -5   6   30.61   23.86
  -2  -4  -5   43.58   24.80
   1  -8  -2  106.67   32.37
   6   2  -8  776.29   33.41
   3  -5  -7   54.72   12.98
   3  -5  -7   68.46   18.63
  -2  -3  -6   26.85   21.93
  -4  -6   2  558.89   43.52
   5  -8   4  912.39   59.73
  -1  -4  -6  348.66   34.01
  -3  -7   2  176.43   26.65
   6  -7  -3  530.32   20.22
   6  -7  -3  551.83   40.50
   7   1  -2   13.44    8.33
  -7  -1   2  -10.09   10.89
  -7  -1   2   22.73   11.40
   1  -9   6   21.99   25.87
   4  -5  -7  178.48   18.61
   4  -5  -7  188.22   19.78
   4  -5  -7  193.58   24.28
  -3  -7   7  133.08   25.58
  -2  -8   3  132.36   29.91
  -2  -8   3   62.86    9.82
  -4   0  -6   -8.05   19.48
   6  -6   4 1089.87   66.02
  -1  -7  -2   -8.68   17.55
   6  -5  -6  498.17   27.31
   6  -5  -6  497.47   25.64
   6  -5  -6  507.80   33.47
  -2  -8   6   76.59   27.77
   7  -4   2   40.77   12.33
   7  -4   2   47.46   14.67
   0  -1  -9  240.47   29.52
   0  -8   8  303.80   34.51
   4   3 -10  417.80   23.32
  -1  -7   9  401.77   38.11
   1   7  -9  396.51   18.48
   4  -9   0  732.59   61.95
  -5  -4   0  408.54   38.84
   7   1  -6  633.78   32.93
   4  -2   7   72.77   25.61
   3  -8  -3 1094.93   31.42
   3  -8  -3 1089.97   71.89
   3  -6  -6  382.26   36.25
   3  -6  -6  338.14   25.92
   4   0 -10   41.37   10.81
   2  -9   6    9.21   23.96
   1  -8   8  170.72   35.00
   4  -6  -6  102.24   18.08
   4  -6  -6   84.57   23.11
   4  -6  -6   90.00   14.01
  -1  -5  -5   68.97   22.60
  -1  -3  -7  546.61   41.63
   7  -6   1   65.70   20.64
   3  -4  -8  153.59   14.77
   3  -4  -8  180.64   24.04
   5  -3   6   21.07   18.14
   0  -9   2  142.94   38.77
   6  -4  -7   27.90   12.47
   6  -4  -7   42.12   12.35
   7  -3   2  120.30   18.16
   7  -3   2   89.40   12.56
   4  -8  -3   48.36   24.03
   4  -8  -3   26.25    8.45
   6  -2   4  134.46    9.27
   6  -2   4  117.92   24.80
   7  -1  -7  262.94   21.84
   7  -1  -7  251.07   23.61
   4  -9   4  131.31   35.03
   4  -4  -8  165.97   26.06
   4  -4  -8  210.88   19.92
   4  -4  -8  196.57   19.12
   2  -2   9  260.70   30.09
   3   6  -9   15.11    8.92
  -3  -6   9   12.12   14.60
  -3  -3  -5   -5.40   16.19
   3  -8   7  868.41   67.70
   7   0   0  109.27   11.66
  -7   0   0  139.15   21.60
   7  -5   2  117.33   22.42
   2  -6   9  146.55   29.78
  -1   7  -9    4.73    4.51
   1  -7   9  105.29   21.15
   7  -6  -3  313.61   26.70
   7  -6  -3  300.45   23.06
  -7   6   3  304.26   31.16
  -7   1  -1  135.73   23.77
   7  -1   1  142.07   12.46
   1  -7  -4   44.19   20.65
   4   5  -9   22.53   11.02
  -4  -5   9   42.40   12.04
   6  -6  -5  796.97   41.73
   6  -6  -5  747.40   30.19
   6  -6  -5  725.55   42.02
  -6   6   5  741.60   43.14
  -2  -5  -4   68.17   24.23
  -1   0  -9  182.13   27.97
  -5  -5   7  107.55   17.75
   5  -6   6   56.69   21.66
   4  -8   6  156.54   40.39
   1   0 -10   30.29   15.69
   5  -2  -9  483.17   29.31
   5  -2  -9  522.03   28.72
   6  -8   0   27.99   21.42
  -1  -8   0   10.76   21.92
  -2  -2  -7   92.71   28.23
   0  -9   6 1164.06   79.78
   7   0  -7  636.05   31.10
  -6  -3   1   74.93   21.09
   6  -8   1  355.25   39.60
   1  -2  -9  114.75   19.61
  -5  -2  -3  696.04   54.45
  -3  -6  -1  138.85   25.57
   2  -5  -7  770.14   45.86
  -3  -4  -4  131.09   31.74
   0   1 -10  780.44   46.13
   7  -2  -7    6.49   10.80
   7  -2  -7   -2.47    7.11
  -3  -2  -6  497.71   43.79
  -5  -5   2  231.86   30.68
  -5  -1  -4  231.98   34.43
  -6  -1  -2   -5.71   13.82
   1  -4  10   40.49   19.04
  -1  -6  10  739.83   44.82
   1   6 -10  697.27   28.16
   0  -4  -7   81.47   25.67
   2  -8  -3    2.79   19.54
   0  -5  -6  430.28   40.49
  -1  -8   8   -1.53   17.69
  -2  -8   2  235.32   37.46
   3  -9  -1   71.66   28.61
   3  -9  -1   25.14    5.66
  -3  -5  10  247.21   19.05
   3   5 -10  227.26   19.32
   5  -5  -7  982.91   38.65
   5  -5  -7  996.66   47.51
   5  -5  -7 1077.37   53.12
   3  -1 -10    5.27    9.34
   3  -1 -10    1.75   10.44
  -6  -4   5  247.36   23.33
   1  -9   0  669.40   66.26
   4  -7   7  219.69   34.19
   2  -6  -6    3.40    9.15
   2  -6  -6   32.39   17.89
   3  -7   8   95.21   29.89
   1  -3  10  179.67   26.44
   6  -8  -1  317.86   32.63
  -6  -4   4   -3.13   11.07
   2  -4  -8  655.18   46.56
  -6   0  -3   93.03   21.98
  -4  -5  -1   85.68   27.54
   7  -5  -5   14.68   13.19
   7  -5  -5    5.34    9.02
   7  -5  -5    3.38   10.00
   7  -4  -6   73.31   18.31
   7  -4  -6   66.21   13.44
   0  -6  10   59.76   19.18
   0   6 -10   38.57   10.14
  -7  -1   1  151.23   22.66
  -2  -8   7  146.89   29.63
   6  -8   2   49.17   24.44
  -7  -2   4   -1.42   10.28
   4  -7  -5   47.54   24.01
   4  -7  -5   46.17   10.56
   5  -6  -6   21.04   15.10
   5  -6  -6    8.44   18.49
   5  -6  -6   24.48   10.38
   3  -7  -5  237.03   34.00
  -5  -3  -2   -2.22   14.50
  -4  -6   8   32.37   16.42
   7  -2   2  439.67   30.69
   7  -2   2  422.50   20.41
   2  -8   8   16.37   18.61
  -2  -7  -1   15.86   22.59
   1  -5  10   -1.57   14.95
   5  -9   1  -26.54   23.71
   6  -3  -8  429.38   29.05
   6  -3  -8  391.49   26.11
   6   0  -9  345.10   26.28
   6   0  -9  381.74   26.91
  -1  -6  -4  833.71   59.69
  -6  -2  -1  270.84   31.68
  -1  -2  -8   60.46   23.56
   4  -9  -1  380.34   48.00
   5  -9   2  160.51   29.24
   2   7  -9  204.72   13.36
  -2  -7   9  185.91   27.21
   4   4 -10  263.78   18.84
   3  -9   6  958.39   66.80
   3  -3  -9  159.30   23.05
   3  -3  -9  136.12   13.52
  -3  -7   1   -0.28   17.39
   2  -1 -10  580.39   38.98
  -4  -6   1  946.30   62.04
  -6  -4   6  306.22   27.38
   6   1  -9  793.68   38.82
   6   1  -9  781.83   36.20
   5  -2   6   29.36   21.52
   5  -4  -8  362.61   26.88
   5  -4  -8  298.13   23.11
   5  -4  -8  317.31   27.49
  -3   1  -8  456.65   39.96
   7   1  -7  592.97   30.51
   7  -6   2   82.95   22.38
  -3  -7   8   35.84   19.50
   2  -9  -1  374.63   47.32
   4  -1 -10   -9.23    8.21
   4  -1 -10   -0.58    8.65
   5  -8  -3    6.87   17.02
   5  -8  -3    9.64    6.41
   0  -9   1  573.34   60.94
   1  -9   7    0.74   16.60
  -2  -6  10   54.11   16.08
   2   6 -10   32.97   10.46
   5   1 -10   31.50   12.46
   4  -3  -9  460.44   26.67
   4  -3  -9  536.67   29.30
   8  -3  -3   34.01   10.30
   8  -3  -3   56.32   15.28
   6  -7   4  646.69   53.44
  -1  -9   4  800.98   68.91
   5   4  -9   45.63   13.46
  -7  -2   3   24.42   14.20
   0  -3  -8  150.20   27.97
   8  -3  -2  386.54   22.56
   8  -3  -2  401.82   25.08
  -1  -9   5  780.63   66.86
   7  -7   0  246.84   30.17
   0  -6  -5  733.04   51.92
   7  -7  -1   -5.59   16.00
   8  -2  -3    9.53    9.79
  -8   2   3   -4.31    8.35
   5  -8   5  561.55   48.59
  -6  -4   3  292.01   28.27
   6  -7  -4    2.45   14.88
   6  -7  -4    6.16    7.57
  -5   0  -5   97.71   29.16
   4  -9   5   -3.91   18.44
   5  -9   0   17.32   23.29
  -3  -5  -3  232.34   33.48
   6  -1  -9   -3.98   11.11
   6  -1  -9   -1.42   10.64
   7  -6  -4   67.29   14.22
   7  -6  -4   78.10   15.70
   2   3 -11  288.73   20.66
  -2  -3  11  305.86   21.28
   5   2 -10  280.20   20.57
   7  -3  -7   15.21   11.07
   7  -3  -7    8.56   13.07
   6  -4   5  178.01   26.84
   6  -5   5  427.83   42.03
   8  -2  -4  127.54   19.09
  -4   1  -7    8.90   22.10
   5  -9   3  285.09   35.30
   5   0 -10  136.17   20.44
   5   0 -10  138.52   17.32
  -2  -6  -3  125.27   33.81
   0  -9   7 1747.45  101.49
  -3  -1  -7  160.36   35.24
  -4  -3  -4    7.88   21.86
  -1   2 -10  316.39   31.88
   8  -4  -2  308.11   24.79
   8  -4  -2  324.57   26.47
   5  -7   6  271.94   34.66
  -8   2   2  417.11   25.21
   8  -2  -2  401.97   23.34
   8  -3  -4   58.34   16.10
  -2   1  -9    0.69   12.79
  -1  -9   3  315.82   43.78
  -4  -2  -5   34.70   20.26
   2   2 -11  562.40   29.75
   2   2 -11  571.52   31.08
   2  -9   7  141.67   38.36
  -2  -1  -8   57.93   23.09
  -6   1  -4  118.71   23.80
   2  -7   9  235.35   37.47
   6  -8  -2 1241.29   71.67
   8  -4  -3   27.29   14.07
   8  -4  -3   21.87   10.78
   5  -7  -5  557.76   25.66
   5  -7  -5  561.00   46.54
   7  -7   1  195.72   30.09
   2  -7  -5  717.51   56.74
   2  -3  -9   20.06    6.96
   2  -3  -9   21.27   18.48
   6  -8   3  192.50   29.75
   7  -7  -2  132.89   23.45
   3   2 -11   42.08   10.51
   3   2 -11   47.80   13.00
   6   2  -9  953.98   43.45
  -1  -9   6   18.74   25.76
   7  -4   3   20.60   16.94
   7  -4   3    6.43   10.23
   8  -3  -1  790.36   38.84
   8  -3  -1  797.91   37.91
   0  -8  -2 1124.01   76.62
  -2  -4  11  209.45   21.28
   2   4 -11  167.74   18.35
  -1  -3  11   17.11   12.98
   1   3 -11   15.18    9.17
   3   3 -11  400.15   25.95
  -1   6 -10   30.78    9.04
   1  -6  10    5.19   19.89
   8  -4  -1  463.97   29.92
   8  -4  -1  477.69   31.18
   7  -5   3   12.84   17.46
  -2  -8   1  434.58   42.31
  -5  -5   1   37.67   22.07
   8  -1  -4  261.77   20.89
   1   4 -11    4.80    7.68
  -1  -4  11    8.10   12.16
   8  -1  -3  145.84   18.06
   6  -3   5   -3.41   14.59
  -7   0  -1   43.96   19.68
   7   0   1   52.01    8.43
   4  -5   8  674.02   57.35
  -6  -3   0   19.95   19.52
  -5  -4  -1  574.53   51.25
  -7  -2   2  110.70   20.79
   6  -6   5  422.93   38.88
   4  -4   8  364.60   46.88
   2 -10   3  246.43   42.77
  -4  -7   5  507.33   44.44
   1  -5  -7   26.31   16.74
   3  -4   9   -1.04   17.93
   8  -2  -5   54.64   12.99
  -4  -4  -3   76.64   22.42
   1  -8  -3   99.02   25.29
   3  -5   9   39.69   19.01
   0   0 -10   96.83   23.48
   2 -10   4  116.33   37.37
   7  -1  -8   45.94   15.78
   7  -1  -8   41.81   13.96
   7   0  -8  128.47   19.37
   7   0  -8  105.16   18.51
   0  -8   9   85.20   28.43
   5  -3  -9    4.93    8.30
   5  -3  -9   -2.59   10.20
   5  -9  -1   97.62   30.64
   3 -10   3   38.88   27.06
  -2  -8   8  126.39   33.14
   7  -3   3   26.54    8.95
   7  -3   3   27.43   19.06
   8  -4  -4   13.73   14.43
   5   3 -10  295.29   23.87
   3   1 -11   14.35   12.40
   3   1 -11   31.88   10.04
   1   2 -11  164.72   21.99
  -4  -7   4  468.91   45.56
  -8   2   1  314.39   25.13
   8  -2  -1  316.99   22.11
  -4  -1  -6  -14.39   21.26
   7  -1   2  670.59   22.98
  -7   1  -2  618.10   44.85
   1  -1 -10   68.02   20.79
  -6  -4   2  406.11   36.15
  -4  -7   6   45.27   26.69
  -1  -8  -1   85.09   31.74
  -7  -1   0  196.07   28.70
   3 -10   2  222.17   48.34
   2   1 -11  160.37   14.33
   2   1 -11  179.17   21.18
   1  -4  -8   29.69   21.85
   4  -8  -4   -8.59    7.52
   4  -8  -4    3.74   21.62
   3  -9  -2  330.00   49.04
   3  -9  -2  324.99   13.95
   8  -5  -2  117.92   20.79
   8  -5  -2   86.31   16.65
   8  -1  -5  214.65   22.55
   8  -3  -5   54.66   17.18
   3  -8  -4   54.46   26.62
   2 -10   2  138.83   45.19
   6  -5  -7   42.85   14.07
   6  -5  -7   56.88   16.81
   1  -6  -6   44.75   24.13
  -1  -9   2   -7.77   25.23
   5  -1 -10  824.55   37.47
   5  -1 -10  857.89   35.20
  -8   1   2   34.22   12.73
   8  -1  -2   10.41   11.60
   6  -2  -9  184.70   20.83
   6  -2  -9  174.82   20.90
   5  -9   4  589.95   51.42
   1  -9  -1   64.78   33.58
   0  -2  -9   76.78   23.75
  -3  -8   5   38.37   28.60
   1  -8   9   36.32   21.02
   3 -10   4  104.30   40.53
   4  -9  -2    2.74   21.17
  -5  -6   5   31.73   21.33
   3   4 -11  665.68   32.89
  -3  -4  11  676.94   28.75
   8  -5  -1  160.19   22.27
   8  -5  -1  144.96   20.32
   4  -6   8  552.86   55.87
  -1  -7  -3  130.17   31.58
   0  -7  -4   40.30   22.58
  -1  -1  -9  266.67   35.74
   0   7 -10   10.85    7.18
   0  -7  10    5.10   18.87
   6  -6  -6  247.10   28.50
   6  -6  -6  262.69   20.07
   6  -6  -6  229.18   27.82
   7  -7   2  271.83   29.93
   4  -8   7  286.95   47.01
  -1  -7  10 1024.78   58.13
   1   7 -10  928.21   34.66
   1 -10   4  532.47   65.49
   3   6 -10   41.87   12.35
  -3  -6  10   37.58   16.71
   3  -3   9  114.73   30.43
   7  -6   3    1.51   12.79
   0  -9   0  145.26   38.15
   1   5 -11   67.19   13.61
  -1  -5  11   65.35   17.59
   4  -3   8  101.08   24.81
   8  -4   0    8.16   11.82
   8  -4   0   13.24   14.29
  -3  -8   4   89.55   31.00
   3  -2 -10   77.31   14.99
   3  -2 -10   80.71   11.40
   7  -5  -6   20.43   11.73
   7  -5  -6    5.76   10.28
   4   5 -10    5.22    9.56
   7  -7  -3  133.79   23.93
  -1  -8   9  230.45   36.85
   2 -10   5    2.49   24.54
  -4  -6   9  176.12   19.98
   8  -5  -3   19.74   13.57
   8  -5  -3    5.39    7.99
   3  -8   8  250.68   42.66
   7  -2  -8   26.25   13.11
   7  -2  -8   36.03   11.70
  -5   1  -6  287.69   41.72
  -5  -6   6   38.92   20.71
   5  -5   7  826.68   61.28
   7   1  -8   74.79   17.85
   3  -6   9   15.15   22.46
  -3  -8   6  233.01   41.62
   1 -10   3  559.40   65.63
  -1  -9   7  163.49   38.51
   8  -3   0  432.99   27.08
   8  -3   0  462.32   31.98
   2   5 -11   32.16   11.93
  -2  -5  11   50.94   13.83
   4   2 -11   17.27   12.90
   5  -4   7  753.98   54.69
  -3  -7   0   37.12   23.98
   4  -2 -10   88.68   13.11
   4  -2 -10   84.83   16.88
  -1   1 -10   68.19   23.22
  -4  -6   0  251.22   38.68
   3  -9   7 1098.34   85.72
   6  -4  -8  201.65   23.65
   6  -4  -8  170.09   16.98
  -3  -6  -2  101.71   26.79
   3 -10   1  744.29   67.16
  -3  -7   9   66.88   19.34
   0  -4  11  457.20   37.00
  -4  -7   3    6.90   20.03
   7  -4  -7   38.93   13.27
   7  -4  -7   26.58   12.86
   1 -10   5   39.29   24.91
   4  -9   6   78.39   37.13
  -4  -7   7    1.55   16.41
   6  -8  -3  496.91   20.07
   6  -8  -3  482.80   45.71
   8   0  -4  427.03   26.50
   2  -4  10    8.09   19.54
   1  -9   8  125.08   35.65
   4   1 -11   23.92   13.45
   7  -6  -5   18.14   14.89
   7  -6  -5   24.40    9.55
   7  -6  -5   10.34   12.30
   0  -3  11  555.25   38.19
   2  -9  -2  318.35   50.75
   4 -10   2  201.22   42.01
   2  -5  10  105.20   24.79
   6  -8   4  141.31   33.70
   6  -2   5   16.45   12.47
   8  -5   0   32.15   17.25
   8  -5   0   34.77   15.43
   5  -8  -4  133.73   32.61
   5  -8  -4  127.77   12.65
   4   3 -11   55.08   15.14
  -3   0  -8   49.11   26.75
   0  -9   8  178.42   38.76
   4 -10   3 1036.45   73.75
   4  -6  -7  263.92   25.11
   4  -6  -7  270.56   33.10
   4  -6  -7  287.36   22.75
   8  -2  -6   49.76   16.65
  -8   0   3  343.74   23.41
   8   0  -3  317.96   22.34
   5  -6   7  107.60   34.39
   6  -7   5   77.91   24.50
   4  -5  -8   19.08   12.57
   4  -5  -8    2.87   16.62
   4  -5  -8   33.56   12.57
  -6  -1  -3   21.06   20.29
   2 -10   1   59.38   29.94
   8   0  -5  178.13   18.70
   8  -4  -5   -1.31   10.43
   1  -3  -9  473.32   43.96
   1   1 -11    6.24   14.26
   3 -10   5  139.00   41.16
   8  -1  -6    7.60    9.97
   2  -8  -4  164.13   33.22
  -3  -8   3  186.15   35.77
  -7  -2   1  272.46   30.36
   3   0 -11   -8.68   10.05
   3   0 -11  106.89   13.59
  -4  -5  -2  153.79   29.36
  -8   1   1  410.23   32.09
   8  -1  -1  449.59   25.10
   1 -10   2  202.02   39.85
   5  -8   6    0.58   15.50
  -7  -3   4   14.51   13.54
   6  -7  -5  138.93   14.20
   6  -7  -5  129.96   24.91
   6  -7  -5  169.33   28.75
  -2  -4  -6   10.38   24.41
   3  -5  -8   11.46    9.44
   3  -5  -8   21.22   17.23
   0   5 -11  234.37   19.60
   0  -5  11  196.98   26.79
   1  -7  10   11.29   19.07
  -1   7 -10    7.28    6.77
   3  -6  -7   33.03   22.61
   3  -6  -7   66.31   13.99
  -6  -2  -2    0.54   15.94
  -5  -6   7  605.08   42.16
  -2  -7  -2   85.21   29.47
   1  -7  -5  -29.18   23.41
   6  -9   1  379.37   47.00
   8  -2   0   48.09   11.65
  -8   2   0   17.32   16.72
  -5  -6   3   12.39   19.66
   8  -5  -4  163.79   22.97
   4 -10   1  105.69   28.62
  -3  -8   7  735.60   58.85
   2  -3  10   86.45   25.00
   2   7 -10    7.86    7.75
  -2  -7  10  -15.53   14.76
  -5  -2  -4  672.74   53.82
   5  -9  -2  270.09   36.98
   5  -3   7  154.93   35.19
  -2   0  -9    1.75   14.81
   6  -9   0  231.64   38.43
   5   4 -10   59.26   11.54
  -4   0  -7   63.67   31.30
  -1  -4  -7  830.27   58.84
  -2  -3  -7    3.11   20.74
   4  -7   8  207.52   36.36
   2  -8   9   75.37   26.74
   2   0 -11    1.80   11.40
   8  -3  -6  188.29   24.11
   2 -10   6  171.59   35.52
   2  -9   8   55.97   32.89
  -6   0  -4   93.54   23.11
  -1  -5  -6   64.61   30.30
   6  -9   2  145.08   34.61
   7  -8   0  766.88   54.95
  -2  -8   0  630.82   60.45
  -1  -9   1   60.84   33.02
  -2  -5  -5    9.03   22.50
   1 -10   6  -15.58   26.88
  -6  -4   1  126.84   27.65
   4 -10   4  382.27   46.02
  -5  -3  -3  251.34   40.04
  -3   2  -9  910.54   65.39
   3   5 -11  435.01   26.12
   8  -6  -1    0.21   11.10
   0   2 -11   58.33   19.26
   2  -6  10  728.77   56.65
  -2  -9   5   19.81   21.99
   4  -7  -6   -5.48   24.68
   4  -7  -6   19.08   13.40
   4  -7  -6   39.77   11.64
   8  -6  -2    1.39   13.74
   8  -6  -2    1.91   12.78
  -5  -5   0  830.00   60.72
   4   0 -11   70.28   13.13
   5  -6  -7   51.81   14.58
   5  -6  -7   92.68   19.04
   5  -6  -7   78.51   23.50
   7  -3  -8   73.11   16.20
   7  -3  -8   76.08   15.60
   6   1 -10  279.30   25.94
   5  -9   5  110.00   31.33
  -8   0   2   77.60   17.22
   8   0  -2   75.38   13.21
  -6  -5   5  243.57   29.39
   4  -4  -9  108.79   21.45
   4  -4  -9   58.10   14.92
   4  -4  -9   74.07   14.39
  -5  -1  -5   42.60   26.80
   5  -2 -10  659.33   35.14
   5  -2 -10  690.71   33.81
   8  -4   1  290.33   31.96
   8  -4   1  309.88   23.36
   5  -5  -8  642.55   41.92
   5  -5  -8  635.47   39.43
   5  -5  -8  659.29   35.64
  -7  -3   3   11.69   17.53
  -3  -3  -6   58.64   31.33
   7  -8  -1  107.16   29.12
   3  -7   9   31.40   22.38
   6   0 -10   82.98   17.24
   6   0 -10  105.50   18.73
  -1  -6  11  665.66   42.49
   1   6 -11  629.54   29.84
   7  -7   3   25.86   17.58
  -3  -4  -5  192.13   44.24
  -2  -9   4   49.63   32.84
   8   0  -6   31.26   11.28
   7  -8   1  575.94   49.45
   0 -10   4    5.74   28.05
   3 -10   0  627.69   58.99
   3  -4  -9  227.35   17.93
   3  -4  -9  276.00   30.82
   6  -3  -9  126.24   16.01
   6  -3  -9  120.68   20.20
   3  -7  -6  145.89   22.42
   3  -7  -6  117.02   30.47
   0 -10   5  127.61   35.91
  -2  -8   9   44.09   23.06
   7  -7  -4    5.08    8.63
   7  -7  -4    8.20   16.04
   7  -7  -4   30.84   13.77
  -4  -7   2  164.49   33.90
   4   4 -11   25.88   10.81
  -2  -9   6   10.00   24.39
   7  -5   4  171.31   25.55
  -6  -5   4   71.14   22.13
   8  -6   0   96.25   21.72
   7  -4   4  138.17   31.79
   7  -4   4  145.32   15.10
   8  -5   1  566.73   40.52
   8  -5   1  643.28   37.89
  -6  -3  -1    2.85   17.37
  -1  -9   8  123.20   32.20
   8  -3   1   11.18    9.78
   8  -3   1    3.61   13.90
  -1  -3  -8  226.04   34.43
   6  -9  -1   16.33   19.64
  -7   0  -2  396.08   35.28
   5  -7   7   12.81   27.22
   4 -10   0  415.73   58.56
   0 -10   3   -2.91   24.65
   8  -6  -3   94.62   20.01
   8  -6  -3   75.58   17.50
   6  -5   6   34.73   20.55
  -7  -1  -1   14.16   18.69
   2   6 -11   40.98   12.49
   6   2 -10  113.25   15.66
   2  -5  -8  538.91   46.86
   0  -1 -10   38.25   21.00
   1 -10   1   47.29   30.82
   0   6 -11   22.09    9.57
   0  -6  11   23.05   17.88
  -3  -8   2  -16.40   21.58
  -1  -6  -5  261.35   42.89
   5  -7  -6  409.01   31.45
   5  -7  -6  371.55   43.92
   5  -7  -6  351.42   22.76
   2  -6  -7  106.66   29.94
   2  -6  -7   96.71   12.43
   6  -9   3   69.00   31.05
   7   0  -9   -5.05    9.63
   7   0  -9    0.14   10.44
   0  -8  -3 1327.42   83.25
   6  -4   6    0.54   18.27
   2 -10   0   63.72   29.94
   4  -9  -3   -4.89   24.55
   3 -10   6  756.75   67.16
  -2   2 -10  176.47   32.05
   0  -5  -7  172.08   35.88
  -3  -2  -7  996.50   69.89
  -2  -9   3    7.96   23.89
  -2  -2  -8   23.20   20.50
   6  -1 -10   14.60   12.56
   6  -1 -10    0.21    9.32
   7  -8  -2    3.11   16.09
   3  -9  -3  288.94   48.29
   3  -9  -3  247.18   14.85
  -3  -5  -4  481.64   57.59
   0 -10   6  626.31   66.98
   5  -4  -9   54.43   15.81
   5  -4  -9   46.84   15.26
  -5  -4  -2   88.48   32.84
  -5  -6   2   97.08   27.40
   8   1  -4   66.32   14.80
   5   1 -11   63.96   17.52
   0  -9  -1   16.32   28.93
   7  -1  -9   24.11   14.33
   7  -1  -9   15.62   11.48
   7  -6   4   -0.04   15.32
   8  -1  -7   -5.30   13.26
  -3  -8   8  320.31   38.21
   7  -8   2   70.31   28.41
   1  -9  -2    8.90   27.05
   5   2 -11  331.95   26.79
   8   1  -5   24.82   13.30
   8  -5  -5   61.77   15.40
   5 -10   2  218.23   43.33
   8  -1   0  191.38   15.67
  -8   1   0  178.77   27.35
   6  -6   6    6.99   17.32
  -2  -6  -4   99.68   35.18
   4 -10   5    2.76   19.45
   8  -4  -6  184.64   25.72
   8  -2  -7  100.23   20.72
   1  -4  11  129.15   27.71
   0  -4  -8  127.97   31.79
  -5   2  -7   -0.12   17.03
  -1  -8  -2   97.78   30.99
   7  -3   4  102.48   25.52
   6  -8  -4   26.87    9.66
   6  -8  -4   35.90   21.42
  -7   1  -3  393.36   42.98
  -1   0 -10   43.56   23.21
  -6   1  -5   55.98   27.60
   7   1  -9   34.47   13.32
   7   1  -9   23.64   15.08
  -2  -9   7    6.10   21.28
   5 -10   1   18.36   27.26
   1   0 -11  144.29   25.92
  -6  -5   3   42.94   19.99
   0  -8  10  -23.93   23.69
  -5   0  -6  342.88   42.22
   0  -6  -6  207.58   39.78
  -7  -3   2   15.81   20.52
   1  -5  11   32.96   20.34
   3  -1 -11    0.96   12.73
   3  -1 -11   12.14    8.55
   6  -8   5   -6.47   18.35
   2  -4  -9   56.74   22.90
   1 -10   7   94.53   36.41
   8   0  -1   -0.97    7.91
  -8   0   1  -10.35   12.80
   8  -6   1  481.29   40.29
   5 -10   3  107.91   29.13
   7  -5  -7   28.03   12.70
   7  -5  -7   22.85   17.09
   2  -7  10  629.47   48.78
  -7  -2   0  249.93   32.49
   1  -8  -4   45.08   26.05
  -4  -3  -5    5.90   23.11
   4  -9   7   -1.01   23.73
   0   1 -11   -1.84   15.71
   4  -8  -5  112.30   31.58
   4  -8  -5   88.21   14.45
  -8   2  -1    5.48   16.24
   8  -2   1   19.35    9.31
   8   0  -7    5.48    9.60
  -3  -7  -1  205.25   39.50
   0 -10   2  215.74   50.82
   2  -7  -6  168.20   17.53
   2  -7  -6  149.27   38.63
   7  -6  -6    8.50   10.15
   7  -6  -6    5.73   11.86
   2 -10   7  373.60   55.64
   5   0 -11   27.34   11.57
   1  -3  11  311.99   32.44
  -4  -6  -1    3.44   17.77
   4  -1 -11  214.25   22.03
   4  -3 -10  678.09   37.11
   4  -3 -10  682.38   31.89
   8   1  -6   10.59   12.94
  -3  -7  10   68.49   18.54
  -1  -8  10  523.31   49.08
   3  -9   8  257.31   46.30
   6  -3   6   91.24   24.20
   3  -3 -10    2.70    7.25
   3  -3 -10   17.61   13.82
   3  -3 -10   -1.64    9.49
   5  -9  -3  320.91   47.55
   8  -6  -4  277.40   25.24
   0  -9   9    3.11   22.48
   5   3 -11  109.93   19.04
   6  -9  -2  240.77   34.40
   3  -8  -5    5.84   22.40
   6  -6  -7    6.26   14.57
   6  -6  -7    3.08   10.47
   4  -8   8    2.61   18.53
   1  -9   9  611.37   61.53
  -4  -2  -6   20.74   23.81
  -4  -4  -4   23.02   28.39
   7  -2  -9  140.30   17.52
   7  -2  -9  154.12   19.61
   8  -3  -7  386.69   30.43
  -3   1  -9  786.37   66.86
   6   3 -10   -5.32   10.00
  -1  -2  -9  144.64   27.86
   6  -5  -8  -15.08   11.62
   6  -5  -8    0.45   14.58
   5 -10   0   10.04   20.55
  -1  -9   0   50.64   27.09
   3 -10  -1   29.40   32.12
   1  -8  10  197.04   35.25
   2  -9  -3  177.06   33.99
   7  -4  -8   -4.10   10.40
   7  -4  -8    7.15   12.15
   8  -7  -1    1.68   13.39
   2  -1 -11  252.80   28.24
   4 -10  -1   91.15   38.60
   3   6 -11   45.72   13.14
   4   5 -11   76.33   15.85
  -4   1  -8   50.36   30.53
   8  -4   2  409.57   36.23
   8  -4   2  400.98   26.03
   2   3 -12  117.68   18.07
   2   3 -12  109.00   18.71
   0 -10   7  493.98   59.90
   6  -9   4   63.70   31.93
  -2  -9   2   13.65   22.92
  -6  -4   0   21.78   22.78
   5  -8  -5  152.43   15.17
   5  -8  -5  153.65   36.68
  -4  -7   1  284.14   35.33
   0  -3  -9  104.93   30.10
   8  -5   2  608.31   36.83
   8  -5   2  608.48   45.99
   3  -8   9    5.60   20.00
   6  -7   6   52.61   26.60
   1  -6  11   76.80   26.49
  -1   6 -11   64.42   13.09
   7  -8  -3   45.96   23.10
   5  -9   6   13.29   25.99
   7  -7   4   11.19   17.67
  -1  -7  -4  550.21   59.74
   8  -7   0   66.64   21.27
   1   7 -11  575.22   27.56
  -1  -7  11  633.84   46.32
   6  -2 -10   58.51   16.32
   6  -2 -10   50.75   16.44
   5 -10   4   51.13   32.21
   4  -5   9  313.66   42.70
   7  -8   3   25.98   24.06
  -3  -1  -8  135.73   36.92
   2   4 -12   20.95   11.68
  -2  -4  12   -8.11   11.12
   8  -7  -2   18.94   17.42
   3   3 -12  426.63   28.47
   5  -8   7  115.79   37.27
   1 -10   0  436.92   65.16
   6  -7  -6   17.02   18.41
   6  -7  -6   14.45   21.62
   6  -7  -6   28.40   11.72
  -8  -1   2  339.94   32.31
  -3  -6  -3  121.54   36.94
   7  -7  -5   21.36   10.36
   7  -7  -5   25.66   13.35
   3   2 -12  150.55   17.38
  -2  -8  -1   96.74   30.90
  -3  -8   1  148.31   38.64
   5  -3 -10  303.00   26.85
   5  -3 -10  298.86   25.13
   0  -7  -5  174.98   39.21
   0  -7  11   42.41   23.28
   0   7 -11   51.81   11.00
   2   2 -12  249.09   22.51
  -7   2  -4   12.83   22.50
  -1 -10   5    9.33   28.52
   4  -4   9  105.61   31.75
  -2  -9   8  105.92   34.51
  -6  -5   2   56.61   24.84
  -1  -9   9   29.54   27.44
   8  -3   2  199.71   29.45
   8  -3   2  244.12   19.82
  -2  -1  -9   23.65   24.46
  -1 -10   4  142.32   42.82
  -2   1 -10   58.38   25.37
  -5  -5  -1  679.53   61.02
  -1   2 -11  391.40   36.81
   4  -6   9  297.41   43.13
   3  -5  10  131.84   34.83
   8   1  -7   46.47   15.77
   1   4 -12  164.22   17.16
  -1  -4  12  171.75   24.69
   2  -3 -10  334.63   39.37
   4 -10   6   48.41   29.06
   3 -10   7  585.63   67.01
   6  -4  -9   78.22   18.30
   6  -4  -9   63.20   16.59
   1  -5  -8   13.52   22.00
   2 -10  -1   11.24   33.81
  -5  -6   1  130.59   33.04
   1   3 -12   -0.52   10.70
   2  -9   9   -0.81   22.72
  -6  -2  -3  195.53   31.06
   5  -1 -11  228.26   21.55
   5  -1 -11  203.49   19.52
  -3  -8   9   79.56   25.93
   3   4 -12  766.00   38.67
   5  -5   8  462.68   57.13
   3  -4  10   38.58   25.59
   1  -6  -7  213.08   32.11
   8  -6   2  198.77   31.47
  -4  -1  -7  131.81   33.78
  -4  -5  -3    2.38   22.78
  -1 -10   6  147.01   39.54
  -6  -1  -4    1.14   20.32
  -2  -7  -3   44.96   31.16
   8  -5  -6    8.92    9.92
   8  -5  -6   37.22   14.72
  -2  -8  10  395.23   41.10
   0 -10   1  681.51   76.25
  -7  -3   1   60.11   24.98
   8  -7   1  199.10   32.79
  -4  -8   5  609.71   63.04
  -2  -7  11  193.86   29.33
   2   7 -11  169.40   17.10
   8  -1  -8   96.86   20.15
   2  -8  -5  341.45   49.08
   5   4 -11   45.51   14.73
  -4  -8   6  120.25   33.12
   5 -10  -1   20.16   28.26
   8  -7  -3    3.92   14.00
   8  -7  -3  -10.98   13.83
  -8   1  -1   19.39   19.97
  -8   0   0   38.96   18.86
   3  -6  10   52.41   30.71
   5  -6   8   32.90   33.19
  -6   2  -6  -17.02   25.41
  -2  -5  12   50.45   18.35
   2   5 -12   53.32   14.66
   5  -4   8  392.80   53.39
  -5  -7   5   -1.83   19.49
  -5   1  -7  189.66   42.04
   3   1 -12    4.98   10.38
  -5  -7   6   87.75   31.02
   1 -10   8  274.87   47.29
   8  -4  -7  592.97   41.91
   8  -4  -7  596.20   33.63
   1   5 -12  100.00   16.42
  -1  -5  12   89.50   22.06
   8  -6  -5  142.68   19.79
  -1 -10   3  235.34   52.94
   8   0  -8   41.00   15.63
   7  -3  -9  250.10   24.44
   7  -3  -9  250.65   27.37
   7  -9   0  613.85   55.27
   4   2 -12   -8.98   12.94
   8  -2  -8   30.68   13.51
   8  -2  -8   39.16   16.96
   7  -5   5  144.77   33.24
   1  -4  -9  292.52   35.73
  -7  -1  -2   93.29   29.21
   7  -9   1  351.16   46.40
  -6  -3  -2   22.86   25.82
   4  -3   9    5.83   23.56
   3 -11   3   37.41   33.93
  -4  -8   4  586.85   62.03
   2 -11   4  137.83   42.50
   6  -9  -3  194.36   36.63
   4  -6  -8  239.49   23.54
   4  -6  -8  230.95   34.08
   4  -6  -8  258.86   25.58
   1   2 -12   -0.22   12.14
   2  -8  10  651.37   56.56
   4   3 -12   38.72   14.41
   0   0 -11   20.26   21.33
   9  -3  -3    3.08   11.69
   2   1 -12  199.04   19.61
   2   1 -12  199.59   24.44
   4  -9  -4  100.07   40.28
  -7   0  -3  390.13   43.83
   2 -11   3   15.68   30.44
   3 -11   4   20.06   28.68
  -4  -8   7   19.35   23.77
   7  -4   5  457.84   47.88
   5 -10   5   26.56   31.24
   1  -7  11  126.37   27.38
   1  -1 -11  110.32   27.40
  -5  -3  -4  430.78   51.65
  -5  -7   4   63.03   29.10
   3  -3  10   18.94   18.78
   1  -7  -6   10.95   18.28
   6  -8  -5   -4.05   19.92
  -5  -2  -5  187.47   40.76
   4  -7   9   86.81   30.16
   2 -10   8  169.99   44.28
   0  -9  -2  162.24   46.78
   9  -3  -4   79.02   15.31
   0 -10   8   11.35   27.94
   7  -6   5   18.57   23.90
   6   1 -11   20.44   14.96
  -6   0  -5   92.59   32.21
   6 -10   1  385.92   46.58
  -1 -10   7  253.31   46.96
   4  -2 -11   35.91   12.84
   4  -2 -11   56.04   15.91
   9  -4  -3   72.96   19.52
   7  -9  -1  126.37   31.46
  -2  -9   1   95.34   38.79
   4   1 -12  209.22   22.11
   4  -5  -9   48.65   14.41
   4  -5  -9   67.82   17.94
   4  -5  -9   74.51   22.13
   3  -2 -11   22.52    9.77
   3 -11   2   37.74   37.49
  -3  -9   5  171.30   42.93
   6 -10   2  286.43   40.84
   0  -2 -10    5.61   15.95
  -8   2  -2   73.77   23.23
  -8  -1   1   68.74   21.02
  -7  -4   3   74.01   24.85
   7   0 -10    1.43   10.47
   7   0 -10  -10.78   12.76
   2 -11   5  361.24   64.06
   9  -3  -2   39.15   16.70
   4  -7  -7  137.62   21.91
   4  -7  -7  111.17   18.88
   4  -7  -7  168.33   36.37
   9  -4  -2    7.45   14.19
  -7  -2  -1  135.23   30.60
   6  -8   6  227.16   43.17
   9  -2  -4   31.68   15.29
  -3  -9   6  617.79   65.40
   3  -9  -4   60.37   27.62
   6  -9   5   37.55   29.39
   7  -9   2   21.76   25.86
   9  -2  -3    4.88   11.93
   3  -6  -8    2.68    8.32
   3  -6  -8    0.57   18.64
   7  -8  -4   17.06   19.32
   4 -10  -2   -3.08   27.08
   5  -6  -8   92.47   21.73
   5  -6  -8   90.35   18.64
  -1  -1 -10  363.65   44.99
   1  -9  -3   91.52   36.74
   3   5 -12  244.60   23.25
   6   0 -11   78.22   16.95
   2  -5  11  174.47   28.27
   0  -4  12  366.73   37.10
   0   4 -12  390.91   25.57
   7   1 -10    2.57   12.05
   6   2 -11   21.40   15.51
   7  -8   4   51.28   27.89
   5  -7   8  238.01   50.05
   3 -10  -2   58.32   38.63
   2  -4  11  -12.44   21.28
   6 -10   0  307.24   48.82
   5  -3   8  187.38   40.42
   9  -4  -4  199.60   22.61
   5  -9  -4   78.19   35.04
   2 -11   2   60.73   35.93
   3  -5  -9   30.78   21.38
   3 -11   5   30.25   28.25
   8  -7   2   76.30   25.80
  -2  -4  -7   21.71   29.95
   3  -7  10    7.24   24.58
  -3  -9   4   -3.45   26.22
   4 -11   3  862.54   83.11
   8   1  -8    0.90    8.83
   7  -1 -10    4.06   11.22
   7  -1 -10   17.68   13.93
   6  -3 -10   15.65   14.34
   6  -3 -10   34.03   14.71
   1 -11   4  424.67   67.70
   4  -9   8  107.88   39.21
   5  -7  -7   51.99   20.72
   5  -7  -7   45.68   14.49
   5  -7  -7   29.33   27.86
   8  -3  -8  100.25   18.94
   8  -3  -8  143.96   21.28
   5  -5  -9   68.94   19.82
   5  -5  -9  109.95   19.13
   0   5 -12  354.50   26.20
   0  -5  12  350.46   38.02
   4   4 -12    9.65   12.37
   8  -5   3   31.96   22.14
   8  -5   3   44.30   14.62
   0  -8  -4  140.78   43.85
  -2  -5  -6   66.44   35.65
   6  -5   7    6.79   24.77
  -5  -4  -3   77.54   35.75
   4   6 -11  275.01   23.25
   9  -2  -5    4.89   12.53
  -1  -9  -1  112.02   35.41
   8  -7  -4  194.34   25.97
   4 -11   2  358.62   55.79
  -4  -7   0  157.26   37.51
   9  -3  -5   29.03   17.07
   3  -7  -7   57.74   14.56
   3  -7  -7   94.76   29.26
  -1   1 -11  116.13   32.22
   7  -6  -7  139.37   21.35
   7  -6  -7  126.45   17.52
  -3   0  -9  367.87   51.09
  -6  -5   1    5.63   21.75
   0   3 -12  722.56   50.88
  -5  -1  -6  173.66   42.69
  -1  -8  -3    5.06   21.63
   6 -10   3   -9.28   24.48
  -2  -9   9  257.89   40.82
  -4  -8   3  115.54   36.06
   1 -11   5   29.99   33.87
  -1 -10   2   32.14   33.87
   8  -4   3   67.60   24.93
  -7   1  -4   -0.87   16.35
   1   6 -12  120.63   16.66
  -1  -6  12   88.40   23.78
  -3  -9   7  854.69   76.82
   9  -2  -2   37.25   13.96
   9  -4  -1   20.68   15.09
   9  -5  -2   68.38   19.94
   7  -3   5  439.75   40.79
   1 -10  -1   94.01   35.61
  -3  -7  -2  341.46   45.32
   7  -5  -8   43.71   18.83
   7  -5  -8   41.54   12.19
   2  -6  11  336.78   40.50
   6  -6   7   16.67   21.40
  -1  -5  -7  352.24   53.82
   0  -9  10   84.91   25.93
   3   0 -12   42.23   12.63
  -3  -4  -6    4.53   25.94
   9  -5  -3   17.56   14.26
   4 -11   4  261.61   42.01
  -4   0  -8   61.60   32.64
  -4  -6  -2   22.62   28.87
   1 -11   3 1017.79   99.16
   2   6 -12   28.35   12.07
  -5  -7   3  235.61   40.47
   8  -8  -1   16.79   20.07
   5  -2 -11  374.29   26.43
   5  -2 -11  356.60   29.17
   1  -3 -10  324.88   41.76
   3   7 -11   61.12   13.52
   8  -8   0  -19.60   22.24
  -3  -8   0  -15.85   28.89
   3 -11   1  311.28   58.84
   9  -3  -1    8.82   13.47
  -6  -4  -1   -0.84   21.21
   7  -7   5   37.34   27.14
   9  -1  -4    7.26   10.38
   7  -9  -2   15.63   22.78
   5 -10  -2  108.32   37.34
   3  -9   9   75.50   35.98
   2 -11   6  327.68   60.23
   6  -4   7   -5.17   23.78
   2  -2 -11  343.61   37.70
   5  -9   7  100.50   35.69
  -1  -4  -8  494.32   56.15
   4  -4 -10   82.48   18.65
   4  -4 -10   55.13   13.04
   1   1 -12  133.10   25.59
   4 -10   7   21.23   26.91
   8  -6   3   26.22   23.37
  -2  -3  -8   66.26   34.17
   0 -10   0  332.35   64.10
   2  -3  11   44.65   20.00
  -6  -6   4  194.69   36.57
  -3  -3  -7   99.01   35.73
   0  -8  11   98.08   28.60
   1  -9  10  324.52   47.23
   4   0 -12  257.31   24.49
   7   2 -10  162.39   19.56
   9  -5  -1   51.14   18.60
   7  -7  -6   12.44   10.65
   7  -7  -6    4.51   13.65
   6  -1 -11   12.10   13.68
   6  -1 -11   31.61   15.18
   9  -1  -5  129.74   19.91
  -4   2  -9   36.72   23.52
  -1  -8  11  164.87   32.08
   4  -8  -6   45.27   14.05
   4  -8  -6   67.79   22.12
   4  -8  -6   40.36   29.85
   9  -1  -3    1.02   10.40
   4 -11   1   26.16   30.71
   7  -9   3  150.60   37.34
   5   5 -11   11.32   11.95
   9  -4  -5  375.08   33.49
   6   3 -11  302.22   23.93
  -5  -6   0   29.03   22.30
  -1  -6  -6    1.64   20.16
   6 -10  -1   93.52   33.25
   1 -11   6  152.59   45.89
  -2   0 -10   47.28   29.52
   3 -10   8   18.55   33.06
  -7  -3   0  102.54   31.18
  -1 -10   8  213.87   45.07
  -3   2 -10  199.21   40.92
   8  -8  -2   25.77   19.34
   5   2 -12  292.43   24.59
  -3  -9   3  -11.80   28.16
   2 -10  -2  250.07   44.97
  -7  -4   2  158.71   30.68
;
_shelx_hkl_checksum              24417
loop_
_symmetry_equiv_pos_site_id
_space_group_symop_operation_xyz
1 +X,+Y,+Z
2 -X,-Y,-Z
loop_
_atom_site_label
_atom_site_type_symbol
_atom_site_fract_x
_atom_site_fract_y
_atom_site_fract_z
_atom_site_U_iso_or_equiv
_atom_site_adp_type
_atom_site_occupancy
_atom_site_site_symmetry_multiplicity
_atom_site_calc_flag
_atom_site_refinement_flags
Se1 Se 0.33565(5) 0.85913(4) 0.53840(3) 0.02320(11) Uani 1 2 d .
Se2 Se 0.00392(4) 0.95468(4) 0.66117(3) 0.02357(11) Uani 1 2 d .
P1 P 0.31501(12) 1.07371(10) 0.68501(9) 0.0208(2) Uani 1 2 d .
C1 C 0.2608(4) 0.7008(4) 0.6178(3) 0.0150(7) Uani 1 2 d .
C2 C 0.3573(4) 0.5974(4) 0.5990(3) 0.0207(8) Uani 1 2 d .
C3 C 0.3166(4) 0.4651(4) 0.6368(3) 0.0210(8) Uani 1 2 d .
C4 C 0.1806(4) 0.4378(4) 0.6984(3) 0.0212(8) Uani 1 2 d .
C5 C 0.0811(4) 0.5423(4) 0.7233(3) 0.0179(8) Uani 1 2 d .
C6 C -0.0585(4) 0.5072(4) 0.7887(3) 0.0242(8) Uani 1 2 d .
C7 C -0.1598(5) 0.6011(4) 0.8138(4) 0.0281(9) Uani 1 2 d .
C8 C -0.1254(4) 0.7370(4) 0.7776(3) 0.0231(9) Uani 1 2 d .
C9 C 0.0068(4) 0.7756(4) 0.7128(3) 0.0178(8) Uani 1 2 d .
C10 C 0.1167(4) 0.6766(4) 0.6827(3) 0.0142(7) Uani 1 2 d .
C11 C 0.4521(4) 1.0895(4) 0.8648(3) 0.0191(8) Uani 1 2 d .
C12 C 0.4170(5) 1.2127(4) 0.9753(3) 0.0343(10) Uani 1 2 d .
C13 C 0.6686(4) 1.1414(4) 0.8873(3) 0.0344(10) Uani 1 2 d .
H2 H 0.45513 0.61744 0.55875 0.0248 Uiso 1 2 calc R
H3 H 0.3829 0.39428 0.61995 0.0252 Uiso 1 2 calc R
H4 H 0.15253 0.34764 0.72483 0.0254 Uiso 1 2 calc R
H6 H -0.08026 0.41665 0.81482 0.0290 Uiso 1 2 calc R
H7 H -0.25437 0.57578 0.85593 0.0338 Uiso 1 2 calc R
H8 H -0.1952 0.80399 0.7984 0.0277 Uiso 1 2 calc R
H11 H 0.40494 0.98296 0.87281 0.0230 Uiso 1 2 calc R
H12A H 0.27756 1.17747 0.95934 0.0411 Uiso 1 2 calc R
H12B H 0.48958 1.22318 1.07125 0.0411 Uiso 1 2 calc R
H12C H 0.46129 1.31656 0.96629 0.0411 Uiso 1 2 calc R
H13A H 0.68836 1.06109 0.81558 0.0413 Uiso 1 2 calc R
H13B H 0.71397 1.24498 0.87788 0.0413 Uiso 1 2 calc R
H13C H 0.74226 1.15161 0.98283 0.0413 Uiso 1 2 calc R
loop_
_atom_site_aniso_label
_atom_site_aniso_U_11
_atom_site_aniso_U_22
_atom_site_aniso_U_33
_atom_site_aniso_U_12
_atom_site_aniso_U_13
_atom_site_aniso_U_23
Se1 0.0337(2) 0.0168(2) 0.0213(2) 0.00743(17) 0.01487(18) 0.00803(17)
Se2 0.02229(19) 0.0215(3) 0.0282(2) 0.01175(17) 0.00519(17) 0.01127(18)
P1 0.0269(5) 0.0150(6) 0.0200(5) 0.0074(4) 0.0075(4) 0.0073(4)
C1 0.0159(16) 0.009(2) 0.0152(18) 0.0003(15) 0.0034(15) 0.0044(15)
C2 0.0166(17) 0.020(2) 0.0222(19) 0.0050(17) 0.0089(16) 0.0036(17)
C3 0.0228(18) 0.018(2) 0.025(2) 0.0128(17) 0.0086(17) 0.0079(17)
C4 0.0260(18) 0.010(2) 0.0191(19) 0.0033(17) 0.0002(17) 0.0037(16)
C5 0.0177(17) 0.011(2) 0.0175(18) -0.0000(16) 0.0022(16) 0.0037(16)
C6 0.0271(19) 0.016(2) 0.026(2) 0.0030(17) 0.0101(18) 0.0085(17)
C7 0.0224(19) 0.032(3) 0.030(2) 0.0049(18) 0.0159(18) 0.0116(19)
C8 0.0161(18) 0.025(2) 0.023(2) 0.0078(17) 0.0073(17) 0.0023(18)
C9 0.0162(17) 0.015(2) 0.0156(17) 0.0016(16) 0.0028(16) 0.0031(16)
C10 0.0123(16) 0.011(2) 0.0114(17) 0.0003(15) -0.0002(15) 0.0006(15)
C11 0.0201(17) 0.015(2) 0.0205(19) 0.0050(16) 0.0057(16) 0.0068(16)
C12 0.041(2) 0.029(3) 0.023(2) 0.012(2) 0.005(2) 0.0031(19)
C13 0.027(2) 0.039(3) 0.030(2) 0.006(2) 0.0078(19) 0.013(2)
loop_
_atom_type_symbol
_atom_type_description
_atom_type_scat_dispersion_real
_atom_type_scat_dispersion_imag
_atom_type_scat_source
C C 0.0033 0.0016
;
International Tables for Crystallography
(Vol. C, Tables 4.2.6.8 and 6.1.1.4)
;
H H 0.0000 0.0000
;
International Tables for Crystallography
(Vol. C, Table 6.1.1.4)
;
P P 0.1023 0.0942
;
International Tables for Crystallography
(Vol. C, Tables 4.2.6.8 and 6.1.1.4)
;
Se Se -0.0929 2.2259
;
International Tables for Crystallography
(Vol. C, Tables 4.2.6.8 and 6.1.1.4)
;
loop_
_geom_angle_atom_site_label_1
_geom_angle_atom_site_label_2
_geom_angle_atom_site_label_3
_geom_angle
_geom_angle_publ_flag
P1 Se1 C1 102.69(10) yes
P1 Se2 C9 102.86(10) yes
Se1 P1 Se2 96.70(3) yes
Se1 P1 C11 103.49(12) yes
Se2 P1 C11 102.51(11) yes
Se1 C1 C2 111.5(3) yes
Se1 C1 C10 128.3(3) yes
C2 C1 C10 120.1(3) yes
C1 C2 C3 122.3(3) yes
C2 C3 C4 119.3(4) yes
C3 C4 C5 120.6(4) yes
C4 C5 C6 117.7(3) yes
C4 C5 C10 121.3(3) yes
C6 C5 C10 121.0(3) yes
C5 C6 C7 120.6(4) yes
C6 C7 C8 119.9(4) yes
C7 C8 C9 121.9(4) yes
Se2 C9 C8 112.1(3) yes
Se2 C9 C10 127.9(3) yes
C8 C9 C10 119.8(3) yes
C1 C10 C5 116.3(3) yes
C1 C10 C9 126.9(3) yes
C5 C10 C9 116.8(3) yes
P1 C11 C12 108.5(3) yes
P1 C11 C13 109.0(3) yes
C12 C11 C13 110.6(2) yes
C1 C2 H2 118.849 no
C3 C2 H2 118.844 no
C2 C3 H3 120.333 no
C4 C3 H3 120.333 no
C3 C4 H4 119.688 no
C5 C4 H4 119.700 no
C5 C6 H6 119.712 no
C7 C6 H6 119.715 no
C6 C7 H7 120.063 no
C8 C7 H7 120.063 no
C7 C8 H8 119.048 no
C9 C8 H8 119.046 no
P1 C11 H11 109.589 no
C12 C11 H11 109.591 no
C13 C11 H11 109.589 no
C11 C12 H12A 109.470 no
C11 C12 H12B 109.469 no
C11 C12 H12C 109.471 no
H12A C12 H12B 109.463 no
H12A C12 H12C 109.478 no
H12B C12 H12C 109.477 no
C11 C13 H13A 109.473 no
C11 C13 H13B 109.470 no
C11 C13 H13C 109.472 no
H13A C13 H13B 109.474 no
H13A C13 H13C 109.470 no
H13B C13 H13C 109.468 no
loop_
_geom_bond_atom_site_label_1
_geom_bond_atom_site_label_2
_geom_bond_distance
_geom_bond_publ_flag
Se1 P1 2.2380(11) yes
Se1 C1 1.924(4) yes
Se2 P1 2.2471(11) yes
Se2 C9 1.913(4) yes
P1 C11 1.852(3) yes
C1 C2 1.379(5) yes
C1 C10 1.437(5) yes
C2 C3 1.388(6) yes
C3 C4 1.362(5) yes
C4 C5 1.412(5) yes
C5 C6 1.424(5) yes
C5 C10 1.422(5) yes
C6 C7 1.346(6) yes
C7 C8 1.408(6) yes
C8 C9 1.380(5) yes
C9 C10 1.444(5) yes
C11 C12 1.527(5) yes
C11 C13 1.527(5) yes
C2 H2 0.950 no
C3 H3 0.950 no
C4 H4 0.950 no
C6 H6 0.950 no
C7 H7 0.950 no
C8 H8 0.950 no
C11 H11 1.000 no
C12 H12A 0.980 no
C12 H12B 0.980 no
C12 H12C 0.980 no
C13 H13A 0.980 no
C13 H13B 0.980 no
C13 H13C 0.980 no
loop_
_geom_contact_atom_site_label_1
_geom_contact_atom_site_label_2
_geom_contact_distance
_geom_contact_publ_flag
_geom_contact_site_symmetry_2
Se1 C9 3.516(4) no .
Se1 C13 3.594(3) no .
Se2 C1 3.503(4) no .
Se2 C12 3.556(3) no .
C1 C4 2.793(5) no .
C1 C11 3.454(4) no .
C2 C5 2.761(5) no .
C3 C10 2.844(5) no .
C5 C8 2.772(5) no .
C6 C9 2.808(6) no .
C7 C10 2.842(5) no .
C9 C11 3.440(4) no .
Se1 Se1 3.5369(8) no 2_676
C1 C5 3.485(3) no 2_566
C2 C8 3.590(4) no 1_655
C3 C9 3.501(4) no 2_566
C5 C1 3.485(3) no 2_566
C8 C2 3.590(4) no 1_455
C9 C3 3.501(4) no 2_566
Se1 H2 2.7196 no .
Se1 H11 3.2140 no .
Se1 H13A 3.0624 no .
Se2 H8 2.7318 no .
Se2 H11 3.1941 no .
Se2 H12A 3.0112 no .
P1 H12A 2.8804 no .
P1 H12C 2.8716 no .
P1 H13A 2.8956 no .
P1 H13B 2.8811 no .
C1 H3 3.2752 no .
C1 H11 2.8731 no .
C1 H13A 3.5882 no .
C2 H4 3.2335 no .
C4 H2 3.2242 no .
C4 H6 2.5860 no .
C5 H3 3.2710 no .
C5 H7 3.2676 no .
C6 H4 2.5814 no .
C6 H8 3.2311 no .
C8 H6 3.2445 no .
C9 H7 3.2866 no .
C9 H11 2.8554 no .
C9 H12A 3.5532 no .
C10 H2 3.2943 no .
C10 H4 3.3212 no .
C10 H6 3.3286 no .
C10 H8 3.3000 no .
C10 H11 2.8461 no .
C12 H13A 3.3551 no .
C12 H13B 2.7006 no .
C12 H13C 2.7006 no .
C13 H12A 3.3551 no .
C13 H12B 2.7006 no .
C13 H12C 2.7006 no .
H2 H3 2.3262 no .
H3 H4 2.3124 no .
H4 H6 2.3789 no .
H6 H7 2.2932 no .
H7 H8 2.3450 no .
H11 H12A 2.3746 no .
H11 H12B 2.3848 no .
H11 H12C 2.8765 no .
H11 H13A 2.3749 no .
H11 H13B 2.8767 no .
H11 H13C 2.3851 no .
H12A H13B 3.5920 no .
H12A H13C 3.5920 no .
H12B H13A 3.5919 no .
H12B H13B 2.9869 no .
H12B H13C 2.5220 no .
H12C H13A 3.5919 no .
H12C H13B 2.5220 no .
H12C H13C 2.9869 no .
Se1 H6 3.5093 no 2_566
Se2 H3 3.5900 no 2_566
Se2 H4 3.3548 no 1_565
Se2 H13A 3.4516 no 1_455
P1 H3 3.2071 no 1_565
P1 H4 3.1341 no 1_565
C1 H12B 3.0909 no 2_677
C2 H2 3.1362 no 2_666
C2 H3 3.4029 no 2_666
C2 H7 3.5707 no 1_655
C2 H8 3.2010 no 1_655
C2 H12B 3.1159 no 2_677
C3 H2 3.0915 no 2_666
C3 H7 3.1750 no 1_655
C3 H12B 3.2161 no 2_677
C4 H12B 3.2272 no 2_677
C4 H12C 3.4910 no 2_677
C5 H12B 3.1603 no 2_677
C5 H13C 3.2083 no 2_677
C6 H13B 3.1168 no 1_445
C6 H13B 3.4474 no 2_677
C6 H13C 3.2022 no 2_677
C7 H2 3.5186 no 1_455
C7 H3 3.2459 no 1_455
C7 H12A 3.1863 no 2_577
C7 H13B 3.5192 no 1_445
C7 H13C 3.1246 no 2_677
C8 H2 3.1061 no 1_455
C8 H12A 3.2436 no 2_577
C8 H12B 3.5990 no 2_577
C8 H13C 3.0138 no 2_677
C9 H3 3.5404 no 2_566
C9 H13C 3.0445 no 2_677
C10 H12B 3.1207 no 2_677
C10 H13C 3.1570 no 2_677
C11 H11 3.0301 no 2_677
C11 H12B 3.3157 no 2_677
C11 H13C 3.3570 no 2_677
C12 H7 3.0274 no 2_577
C12 H8 3.2642 no 2_577
C12 H11 3.1228 no 2_677
C12 H13C 3.4920 no 2_677
C13 H6 3.1688 no 1_665
C13 H8 3.5658 no 1_655
C13 H11 3.1662 no 2_677
C13 H12B 3.4917 no 2_677
H2 C2 3.1362 no 2_666
H2 C3 3.0915 no 2_666
H2 C7 3.5186 no 1_655
H2 C8 3.1061 no 1_655
H2 H2 2.5721 no 2_666
H2 H3 2.4913 no 2_666
H2 H7 3.5336 no 1_655
H2 H8 2.8341 no 1_655
H3 Se2 3.5900 no 2_566
H3 P1 3.2071 no 1_545
H3 C2 3.4029 no 2_666
H3 C7 3.2459 no 1_655
H3 C9 3.5404 no 2_566
H3 H2 2.4913 no 2_666
H3 H7 2.8689 no 1_655
H4 Se2 3.3548 no 1_545
H4 P1 3.1341 no 1_545
H4 H12A 3.3788 no 1_545
H4 H12C 3.1416 no 1_545
H6 Se1 3.5093 no 2_566
H6 C13 3.1688 no 1_445
H6 H6 3.4786 no 2_567
H6 H13A 3.3196 no 1_445
H6 H13B 2.2883 no 1_445
H7 C2 3.5707 no 1_455
H7 C3 3.1750 no 1_455
H7 C12 3.0274 no 2_577
H7 H2 3.5336 no 1_455
H7 H3 2.8689 no 1_455
H7 H12A 2.6519 no 2_577
H7 H12B 3.0349 no 2_577
H7 H12C 3.4536 no 1_445
H7 H12C 2.8904 no 2_577
H7 H13B 3.1302 no 1_445
H8 C2 3.2010 no 1_455
H8 C12 3.2642 no 2_577
H8 C13 3.5658 no 1_455
H8 H2 2.8341 no 1_455
H8 H12A 2.7397 no 2_577
H8 H12B 2.9105 no 2_577
H8 H13A 2.7792 no 1_455
H8 H13C 3.5260 no 1_455
H8 H13C 3.4798 no 2_677
H11 C11 3.0301 no 2_677
H11 C12 3.1228 no 2_677
H11 C13 3.1662 no 2_677
H11 H11 2.5737 no 2_677
H11 H12A 3.5631 no 2_677
H11 H12B 2.4575 no 2_677
H11 H13C 2.5128 no 2_677
H12A C7 3.1863 no 2_577
H12A C8 3.2436 no 2_577
H12A H4 3.3788 no 1_565
H12A H7 2.6519 no 2_577
H12A H8 2.7397 no 2_577
H12A H11 3.5631 no 2_677
H12A H13C 3.2880 no 2_677
H12B C1 3.0909 no 2_677
H12B C2 3.1159 no 2_677
H12B C3 3.2161 no 2_677
H12B C4 3.2272 no 2_677
H12B C5 3.1603 no 2_677
H12B C8 3.5990 no 2_577
H12B C10 3.1207 no 2_677
H12B C11 3.3157 no 2_677
H12B C13 3.4917 no 2_677
H12B H7 3.0349 no 2_577
H12B H8 2.9105 no 2_577
H12B H11 2.4575 no 2_677
H12B H13A 3.3140 no 2_677
H12B H13C 3.2779 no 2_677
H12C C4 3.4910 no 2_677
H12C H4 3.1416 no 1_565
H12C H7 3.4536 no 1_665
H12C H7 2.8904 no 2_577
H12C H12C 3.1644 no 2_687
H13A Se2 3.4516 no 1_655
H13A H6 3.3196 no 1_665
H13A H8 2.7792 no 1_655
H13A H12B 3.3140 no 2_677
H13B C6 3.1168 no 1_665
H13B C6 3.4474 no 2_677
H13B C7 3.5192 no 1_665
H13B H6 2.2883 no 1_665
H13B H7 3.1302 no 1_665
H13C C5 3.2083 no 2_677
H13C C6 3.2022 no 2_677
H13C C7 3.1246 no 2_677
H13C C8 3.0138 no 2_677
H13C C9 3.0445 no 2_677
H13C C10 3.1570 no 2_677
H13C C11 3.3570 no 2_677
H13C C12 3.4920 no 2_677
H13C H8 3.5260 no 1_655
H13C H8 3.4798 no 2_677
H13C H11 2.5128 no 2_677
H13C H12A 3.2880 no 2_677
H13C H12B 3.2779 no 2_677
loop_
_geom_torsion_atom_site_label_1
_geom_torsion_atom_site_label_2
_geom_torsion_atom_site_label_3
_geom_torsion_atom_site_label_4
_geom_torsion
_geom_torsion_publ_flag
P1 Se1 C1 C2 -147.30(12) no
P1 Se1 C1 C10 36.26(18) no
C1 Se1 P1 Se2 -55.27(9) no
C1 Se1 P1 C11 49.35(9) no
P1 Se2 C9 C8 147.83(12) no
P1 Se2 C9 C10 -36.83(19) no
C9 Se2 P1 Se1 55.76(10) no
C9 Se2 P1 C11 -49.71(10) no
Se1 P1 C11 C12 -169.60(14) no
Se1 P1 C11 C13 69.94(19) no
Se2 P1 C11 C12 -69.46(17) no
Se2 P1 C11 C13 170.08(15) no
Se1 C1 C2 C3 -174.71(16) no
Se1 C1 C10 C5 175.57(14) no
Se1 C1 C10 C9 -5.4(3) no
C2 C1 C10 C5 -0.6(3) no
C2 C1 C10 C9 178.5(2) no
C10 C1 C2 C3 2.1(3) no
C1 C2 C3 C4 -1.9(4) no
C2 C3 C4 C5 0.2(4) no
C3 C4 C5 C6 -179.7(2) no
C3 C4 C5 C10 1.2(4) no
C4 C5 C6 C7 -179.2(2) no
C4 C5 C10 C1 -1.0(3) no
C4 C5 C10 C9 179.86(19) no
C6 C5 C10 C1 179.92(19) no
C6 C5 C10 C9 0.8(3) no
C10 C5 C6 C7 -0.1(3) no
C5 C6 C7 C8 -1.1(4) no
C6 C7 C8 C9 1.8(4) no
C7 C8 C9 Se2 174.63(19) no
C7 C8 C9 C10 -1.1(3) no
Se2 C9 C10 C1 5.8(3) no
Se2 C9 C10 C5 -175.16(14) no
C8 C9 C10 C1 -179.2(2) no
C8 C9 C10 C5 -0.1(3) no
