#------------------------------------------------------------------------------
#$Date: 2016-03-22 22:15:30 +0200 (Tue, 22 Mar 2016) $
#$Revision: 179036 $
#$URL: svn://www.crystallography.net/cod/cif/4/12/34/4123415.cif $
#------------------------------------------------------------------------------
#
# This file is available in the Crystallography Open Database (COD),
# http://www.crystallography.net/
#
# All data on this site have been placed in the public domain by the
# contributors.
#
data_4123415
loop_
_publ_author_name
'Wang, Sinan'
'Li, Xiangmin'
'Liu, Hongwei'
'Xu, Li'
'Zhuang, Jinchen'
'Li, Jian'
'Li, Hao'
'Wang, Wei'
_publ_section_title
;
 Organocatalytic enantioselective direct additions of aldehydes to
 4-vinylpyridines and electron-deficient vinylarenes and their synthetic
 applications.
;
_journal_issue                   6
_journal_name_full               'Journal of the American Chemical Society'
_journal_page_first              2303
_journal_page_last               2310
_journal_paper_doi               10.1021/ja511143b
_journal_volume                  137
_journal_year                    2015
_chemical_absolute_configuration rmad
_chemical_formula_moiety         'C22 H22 Br N O3 S'
_chemical_formula_sum            'C22 H22 Br N O3 S'
_chemical_formula_weight         460.37
_chemical_name_systematic
;
 ?
;
_space_group_crystal_system      triclinic
_space_group_IT_number           1
_space_group_name_Hall           'P 1'
_space_group_name_H-M_alt        'P 1'
_symmetry_space_group_name_Hall  'P 1'
_symmetry_space_group_name_H-M   'P 1'
_atom_sites_solution_hydrogens   geom
_atom_sites_solution_primary     direct
_audit_creation_date             2014-08-15
_audit_creation_method
;
Olex2 1.2
(compiled 2014.07.22 svn.r2960 for OlexSys, GUI svn.r4862)
;
_cell_angle_alpha                74.143(3)
_cell_angle_beta                 74.315(3)
_cell_angle_gamma                83.209(3)
_cell_formula_units_Z            1
_cell_length_a                   7.4326(13)
_cell_length_b                   8.4705(15)
_cell_length_c                   8.8458(15)
_cell_measurement_reflns_used    2202
_cell_measurement_temperature    130
_cell_measurement_theta_max      29.23
_cell_measurement_theta_min      2.47
_cell_volume                     515.18(16)
_computing_cell_refinement       'SAINT v7.68A (Bruker, 2009)'
_computing_data_reduction        'SAINT v7.68A (Bruker, 2009)'
_computing_molecular_graphics    'Olex2 (Dolomanov et al., 2009)'
_computing_publication_material  'Olex2 (Dolomanov et al., 2009)'
_computing_structure_refinement  'XL (Sheldrick, 2008)'
_computing_structure_solution    'ShelXS (Sheldrick, 2008)'
_diffrn_ambient_temperature      130
_diffrn_measured_fraction_theta_full 0.999
_diffrn_measured_fraction_theta_max 0.983
_diffrn_measurement_device_type  'Bruker APEX-II CCD'
_diffrn_measurement_method       '\f and \w scans'
_diffrn_radiation_monochromator  graphite
_diffrn_radiation_type           MoK\a
_diffrn_radiation_wavelength     0.71073
_diffrn_reflns_av_R_equivalents  0.0209
_diffrn_reflns_av_unetI/netI     0.0767
_diffrn_reflns_Laue_measured_fraction_full 0.999
_diffrn_reflns_Laue_measured_fraction_max 0.983
_diffrn_reflns_limit_h_max       10
_diffrn_reflns_limit_h_min       -10
_diffrn_reflns_limit_k_max       12
_diffrn_reflns_limit_k_min       -8
_diffrn_reflns_limit_l_max       12
_diffrn_reflns_limit_l_min       -12
_diffrn_reflns_number            5139
_diffrn_reflns_point_group_measured_fraction_full 0.668
_diffrn_reflns_point_group_measured_fraction_max 0.637
_diffrn_reflns_theta_full        26.000
_diffrn_reflns_theta_max         30.640
_diffrn_reflns_theta_min         2.472
_diffrn_standards_number         0
_exptl_absorpt_coefficient_mu    2.119
_exptl_absorpt_correction_T_max  0.7461
_exptl_absorpt_correction_T_min  0.5172
_exptl_absorpt_correction_type   multi-scan
_exptl_absorpt_process_details
;
SADABS-2008/1 (Bruker,2008) was used for absorption correction.
wR2(int) was 0.0882 before and 0.0519 after correction.
The Ratio of minimum to maximum transmission is 0.6932.
The \l/2 correction factor is 0.0015.
;
_exptl_crystal_colour            'clear light colourless'
_exptl_crystal_colour_lustre     clear
_exptl_crystal_colour_modifier   light
_exptl_crystal_colour_primary    colourless
_exptl_crystal_density_diffrn    1.484
_exptl_crystal_description       block
_exptl_crystal_F_000             236
_exptl_crystal_size_max          0.25
_exptl_crystal_size_mid          0.22
_exptl_crystal_size_min          0.16
_refine_diff_density_max         0.657
_refine_diff_density_min         -0.296
_refine_diff_density_rms         0.062
_refine_ls_abs_structure_details
;
 Classical Flack method preferred over Parsons because s.u. lower.
;
_refine_ls_abs_structure_Flack   0.011(6)
_refine_ls_extinction_method     none
_refine_ls_goodness_of_fit_ref   0.806
_refine_ls_hydrogen_treatment    constr
_refine_ls_matrix_type           full
_refine_ls_number_parameters     253
_refine_ls_number_reflns         4052
_refine_ls_number_restraints     3
_refine_ls_restrained_S_all      0.806
_refine_ls_R_factor_all          0.0409
_refine_ls_R_factor_gt           0.0311
_refine_ls_shift/su_max          0.000
_refine_ls_shift/su_mean         0.000
_refine_ls_structure_factor_coef Fsqd
_refine_ls_weighting_details     'w=1/[\s^2^(Fo^2^)] where P=(Fo^2^+2Fc^2^)/3'
_refine_ls_weighting_scheme      calc
_refine_ls_wR_factor_gt          0.0620
_refine_ls_wR_factor_ref         0.0650
_reflns_Friedel_coverage         0.295
_reflns_Friedel_fraction_full    0.337
_reflns_Friedel_fraction_max     0.290
_reflns_number_gt                3406
_reflns_number_total             4052
_reflns_threshold_expression     'I > 2\s(I)'
_cod_data_source_file            ja511143b_si_002.cif
_cod_data_source_block           compound4
_cod_depositor_comments
'Adding full bibliography for 4123414--4123415.cif.'
_cod_database_code               4123415
#BEGIN Tags that were not found in dictionaries:
_shelxl_version_number           2014-3
_shelx_space_group_comment
;
The symmetry employed for this shelxl refinement is uniquely defined
by the following loop, which should always be used as a source of
symmetry information in preference to the above space-group names.
They are only intended as comments.
;
_shelx_estimated_absorpt_t_max   0.728
_shelx_estimated_absorpt_t_min   0.619
_olex2_refinement_description
;
1. Fixed Uiso
 At 1.2 times of:
  All C(H) groups, All C(H,H) groups
2.a Ternary CH refined with riding coordinates:
 C2(H2)
2.b Secondary CH2 refined with riding coordinates:
 C1(H1A,H1B), C3(H3A,H3B), C4(H4A,H4B), C5(H5A,H5B)
2.c Aromatic/amide H refined with riding coordinates:
 C7(H7), C8(H8), C9(H9), C10(H10), C12(H12), C13(H13), C14(H14), C15(H15),
 C16(H16), C18(H18), C19(H19), C21(H21), C22(H22)
;
_shelx_res_file
;
TITL mo_dm14458_0m in P1
CELL 0.71073 7.4326 8.4705 8.8458 74.143 74.315 83.209
ZERR 1 0.0013 0.0015 0.0015 0.003 0.003 0.003
LATT -1

SFAC C H Br N O S
UNIT 22 22 1 1 3 1
EQIV $1 +X,-1+Y,+Z
EQIV $2 1+X,+Y,+Z

L.S. 4
PLAN  -5 0 0
SIZE 0.16 0.22 0.25
TEMP -143.15
HTAB C10 O3_$1
HTAB C19 O1_$2
HTAB C19 O3_$2
BOND $H
fmap 2
MORE -1
ACTA 52
CONF
REM <HKL>D:/data/guest/dm14458/work/mo_dm14458_0m.hkl</HKL>

WGHT    0.000000
FVAR       0.31112
BR1   3    0.886040    0.606280   -0.246770    11.00000    0.02246    0.04616 =
         0.03332   -0.00281   -0.00196   -0.00437
S1    6    0.106239    0.394892    0.256091    11.00000    0.01855    0.03468 =
         0.03286   -0.01423   -0.00202   -0.00220
O1    5    0.045274    0.262512    0.187280    11.00000    0.02102    0.02990 =
         0.03185   -0.00940   -0.00896   -0.00052
O2    5    0.137580    0.319853    0.412442    11.00000    0.03121    0.05717 =
         0.02658   -0.01733   -0.00062   -0.01232
O3    5   -0.029437    0.526461    0.235796    11.00000    0.02350    0.04104 =
         0.06456   -0.02603   -0.00155    0.00343
N1    4   -0.762980   -0.235546    0.524854    11.00000    0.02284    0.04675 =
         0.02955   -0.00787   -0.00536   -0.00115
C1    1    0.150983    0.104400    0.206596    11.00000    0.02252    0.02824 =
         0.02363   -0.00468   -0.00748   -0.00305
AFIX  23
H1A   2    0.128994    0.046613    0.323069    11.00000   -1.20000
H1B   2    0.286527    0.121793    0.162440    11.00000   -1.20000
AFIX   0
C2    1    0.086880    0.002111    0.115941    11.00000    0.02358    0.03253 =
         0.02570   -0.00888   -0.00553   -0.00382
AFIX  13
H2    2    0.155839   -0.107262    0.136405    11.00000   -1.20000
AFIX   0
C3    1    0.138417    0.075521   -0.067922    11.00000    0.02417    0.04715 =
         0.02707   -0.01085   -0.00662   -0.00672
AFIX  23
H3A   2    0.101196   -0.000817   -0.119939    11.00000   -1.20000
H3B   2    0.063262    0.179637   -0.091891    11.00000   -1.20000
AFIX   0
C4    1   -0.122398   -0.030158    0.178152    11.00000    0.02345    0.03812 =
         0.02576   -0.00811   -0.00762   -0.00768
AFIX  23
H4A   2   -0.194644    0.074830    0.149803    11.00000   -1.20000
H4B   2   -0.152101   -0.105569    0.121185    11.00000   -1.20000
AFIX   0
C5    1   -0.186088   -0.103707    0.359748    11.00000    0.02728    0.04363 =
         0.02767   -0.00626   -0.00522   -0.00994
AFIX  23
H5A   2   -0.107319   -0.204019    0.390272    11.00000   -1.20000
H5B   2   -0.167825   -0.024189    0.417489    11.00000   -1.20000
AFIX   0
C6    1   -0.387811   -0.146762    0.413275    11.00000    0.02405    0.03067 =
         0.01960   -0.00128   -0.00475   -0.00434
C7    1   -0.523937   -0.056557    0.499430    11.00000    0.03534    0.02841 =
         0.02247   -0.00588   -0.00971    0.00011
AFIX  43
H7    2   -0.492161    0.038413    0.522179    11.00000   -1.20000
AFIX   0
C8    1   -0.705972   -0.104590    0.552339    11.00000    0.02552    0.04230 =
         0.02594   -0.01108   -0.00802    0.01057
AFIX  43
H8    2   -0.796443   -0.040634    0.612014    11.00000   -1.20000
AFIX   0
C9    1   -0.631257   -0.320315    0.438513    11.00000    0.02753    0.03648 =
         0.04057   -0.01262   -0.00616   -0.00913
AFIX  43
H9    2   -0.667308   -0.413806    0.416150    11.00000   -1.20000
AFIX   0
C10   1   -0.447032   -0.280652    0.380119    11.00000    0.02421    0.03314 =
         0.03850   -0.01586   -0.00165   -0.00093
AFIX  43
H10   2   -0.360399   -0.344372    0.317350    11.00000   -1.20000
AFIX   0
C11   1    0.341985    0.110172   -0.145992    11.00000    0.02526    0.03791 =
         0.02562   -0.01733   -0.00011   -0.00540
C12   1    0.391340    0.254206   -0.261533    11.00000    0.03323    0.03395 =
         0.03910   -0.01058   -0.00221    0.00294
AFIX  43
H12   2    0.296149    0.333120   -0.289824    11.00000   -1.20000
AFIX   0
C13   1    0.578225    0.286914   -0.338093    11.00000    0.04536    0.03297 =
         0.04168   -0.00927    0.00721   -0.01330
AFIX  43
H13   2    0.608940    0.387076   -0.418013    11.00000   -1.20000
AFIX   0
C14   1    0.717438    0.175334   -0.298544    11.00000    0.02750    0.05267 =
         0.03896   -0.02009    0.00171   -0.01170
AFIX  43
H14   2    0.844890    0.197560   -0.350110    11.00000   -1.20000
AFIX   0
C15   1    0.670700    0.030711   -0.183330    11.00000    0.02546    0.05513 =
         0.03657   -0.01735   -0.00836    0.00429
AFIX  43
H15   2    0.766612   -0.047751   -0.155819    11.00000   -1.20000
AFIX   0
C16   1    0.485204   -0.001923   -0.106844    11.00000    0.03090    0.03834 =
         0.02873   -0.00668   -0.00509   -0.00390
AFIX  43
H16   2    0.455420   -0.102083   -0.026668    11.00000   -1.20000
AFIX   0
C17   1    0.321144    0.454713    0.119664    11.00000    0.01745    0.02560 =
         0.02817   -0.01090   -0.00417    0.00065
C18   1    0.486118    0.397192    0.165193    11.00000    0.02425    0.03257 =
         0.02634   -0.00106   -0.00747   -0.00288
AFIX  43
H18   2    0.483148    0.327804    0.270209    11.00000   -1.20000
AFIX   0
C19   1    0.656563    0.442470    0.054870    11.00000    0.01850    0.03709 =
         0.03404   -0.00524   -0.00994    0.00228
AFIX  43
H19   2    0.771180    0.404995    0.083939    11.00000   -1.20000
AFIX   0
C20   1    0.656193    0.542138   -0.096553    11.00000    0.02070    0.03001 =
         0.03214   -0.00816   -0.00266   -0.00154
C21   1    0.490977    0.598901   -0.141444    11.00000    0.02627    0.03614 =
         0.02805    0.00033   -0.01002    0.00096
AFIX  43
H21   2    0.493821    0.668050   -0.246539    11.00000   -1.20000
AFIX   0
C22   1    0.322882    0.554612   -0.033071    11.00000    0.02130    0.03283 =
         0.03778   -0.00496   -0.01247    0.00239
AFIX  43
H22   2    0.208725    0.592364   -0.062889    11.00000   -1.20000
AFIX   0
HKLF 4

REM  mo_dm14458_0m in P1
REM R1 =  0.0311 for    3406 Fo > 4sig(Fo)  and  0.0409 for all    4052 data
REM    253 parameters refined using      3 restraints

END

WGHT      0.0000      0.0000

REM Highest difference peak  0.657,  deepest hole -0.296,  1-sigma level  0.062
Q1    1   0.9725  0.5815 -0.3356  11.00000  0.05    0.66
Q2    1   0.8067  0.6254 -0.1549  11.00000  0.05    0.66
Q3    1   0.9154  0.7066 -0.3150  11.00000  0.05    0.53
Q4    1   0.8616  0.4995 -0.1863  11.00000  0.05    0.51
Q5    1   0.1847  0.3779  0.1651  11.00000  0.05    0.35
;
_shelx_res_checksum              10805
_shelx_hkl_file
;
   1   0   0   24.04    1.45
   2   0   0   18.64    1.20
  -3   0   0   35.17    2.06
   3   0   0   29.91    2.04
  -4   0   0  130.12    7.53
   4   0   0  121.26    7.54
  -5   0   0  100.24    6.33
   5   0   0  108.52    6.36
  -6   0   0    2.81    0.38
  -6   0   0    3.13    0.63
   6   0   0    1.07    0.47
  -7   0   0    5.67    0.55
  -7   0   0    4.76    0.80
   7   0   0    4.91    0.77
  -8   0   0   17.55    1.52
   8   0   0   13.00    1.36
  -9   0   0   10.81    1.42
   9   0   0   11.90    1.31
 -10   0   0    3.74    1.05
  10   0   0    5.35    1.03
  10  -1   0    1.22    0.80
 -10   1   0    0.96    0.89
   9  -1   0   12.85    1.40
  -9   1   0   13.86    1.54
   8  -1   0    9.94    1.16
  -8   1   0    9.40    1.28
   7  -1   0    6.34    0.86
  -7   1   0    6.40    0.63
  -7   1   0    6.66    0.92
   6  -1   0    9.29    0.95
  -6   1   0   10.26    1.06
  -6   1   0    9.79    0.81
  -5   1   0    3.36    0.57
  -5   1   0    3.62    0.40
   4  -1   0   47.29    2.62
  -4   1   0   37.89    2.59
  -4   1   0   38.51    1.95
   3  -1   0  101.03    6.07
  -3   1   0   99.88    6.05
  -3   1   0  103.54    4.59
   2  -1   0   74.58    4.68
  -2   1   0   81.22    3.55
  -2   1   0   80.17    4.67
   1  -1   0    3.54    0.28
   0   1   0   54.63    3.03
   0   1   0   47.68    2.30
   1   1   0  166.63    9.77
   1   1   0  164.78    7.37
   2   1   0  349.44   20.19
   2   1   0  336.63   15.22
   3   1   0  273.00   16.13
   4   1   0   14.42    1.08
  -5  -1   0   55.16    3.50
   5   1   0   55.63    3.51
  -6  -1   0   19.43    1.62
   6   1   0   22.04    1.60
  -7  -1   0    5.98    0.88
  -8  -1   0    5.32    0.89
   8   1   0    4.07    0.83
  -9  -1   0   14.44    1.49
   9   1   0   12.86    1.43
 -10  -1   0    6.74    1.17
  10   1   0    6.10    1.10
 -10   2   0    0.17    0.89
   9  -2   0   11.91    1.35
  -9   2   0    9.70    1.33
   8  -2   0   12.48    1.29
  -8   2   0   12.38    1.42
   7  -2   0    9.81    1.04
  -7   2   0   10.51    0.98
  -7   2   0   11.53    1.23
   6  -2   0   75.95    5.44
  -6   2   0   95.31    4.18
  -6   2   0   96.39    5.51
   5  -2   0   41.62    2.35
  -5   2   0   33.81    1.82
  -5   2   0   31.57    2.34
   4  -2   0   44.98    2.45
  -4   2   0   34.17    1.87
  -4   2   0   35.88    2.43
   3  -2   0   48.47    2.65
  -3   2   0   39.57    2.63
  -3   2   0   40.48    2.03
   2  -2   0  105.49    6.56
  -2   2   0  113.62    6.53
  -2   2   0  112.77    4.99
   1  -2   0   61.68    3.64
  -1   2   0   61.53    3.63
  -1   2   0   60.36    2.79
   0   2   0   85.94    4.01
   0   2   0   92.78    5.30
   1   2   0   64.70    3.77
   1   2   0   61.10    2.83
   2   2   0  149.38    8.68
   2   2   0  142.81    6.52
   3   2   0   41.68    2.54
   3   2   0   38.69    1.85
   4   2   0   41.01    1.91
   4   2   0   40.86    2.62
   5   2   0   25.00    1.77
  -6  -2   0   16.91    1.52
   6   2   0   23.20    1.60
  -7  -2   0   27.38    2.08
   7   2   0   28.18    2.05
  -8  -2   0    4.44    0.89
   8   2   0    5.32    0.89
  -9  -2   0    4.05    0.91
   9   2   0    1.36    0.75
 -10  -2   0    8.93    1.23
  10   2   0    5.10    1.07
  -9   3   0    3.18    0.99
   8  -3   0    1.04    0.64
  -8   3   0    1.63    0.76
  -8   3   0    0.93    0.57
   7  -3   0   25.25    1.76
  -7   3   0   20.70    1.45
  -7   3   0   19.93    1.76
   6  -3   0   29.66    2.09
  -6   3   0   31.40    1.69
  -6   3   0   30.35    2.14
   5  -3   0   45.88    3.23
  -5   3   0   55.62    3.28
  -5   3   0   53.45    2.54
  -4   3   0   12.89    0.87
  -4   3   0   12.29    1.00
  -3   3   0    3.32    0.41
  -3   3   0    3.49    0.38
   2  -3   0  260.73   15.03
  -2   3   0  253.25   11.42
  -2   3   0  251.80   14.97
   1  -3   0  111.45    6.84
  -1   3   0  118.34    6.83
  -1   3   0  116.95    5.22
   0   3   0  101.68    4.75
   0   3   0  108.83    6.26
   1   3   0   45.76    2.20
   1   3   0   50.28    2.94
   2   3   0   56.13    3.45
   2   3   0   56.60    2.57
   3   3   0  186.57   11.06
   3   3   0  184.71    8.29
   4   3   0   31.95    2.07
   4   3   0   29.84    1.47
   5   3   0    6.09    0.76
   5   3   0    6.28    0.50
   6   3   0   14.86    1.29
  -7  -3   0   26.67    1.97
   7   3   0   24.79    1.97
  -8  -3   0   16.22    1.60
   8   3   0   18.19    1.61
  -9  -3   0    0.14    0.72
   9   3   0    1.79    0.78
 -10  -3   0    9.46    1.33
  10   3   0    9.49    1.34
  -8   4   0    2.82    0.83
  -8   4   0    2.80    0.71
   7  -4   0    7.82    1.00
  -7   4   0    8.23    1.01
  -7   4   0    7.49    0.84
   6  -4   0    3.79    0.61
  -6   4   0    1.70    0.54
  -6   4   0    2.43    0.62
   5  -4   0   22.64    1.59
  -5   4   0   23.59    1.39
  -5   4   0   21.89    1.65
   4  -4   0   22.23    1.58
  -4   4   0   25.12    1.37
  -4   4   0   23.36    1.61
  -3   4   0   11.25    0.90
  -3   4   0   11.62    0.82
  -2   4   0   14.64    0.89
  -2   4   0   14.87    1.05
  -1   4   0   19.24    1.25
  -1   4   0   18.60    1.03
  -1   4   0   18.47    1.27
   0   4   0   39.51    2.41
   0   4   0   38.12    1.85
   1   4   0   48.57    2.36
   1   4   0   52.93    3.13
   2   4   0   24.56    1.22
   2   4   0   24.39    1.64
   3   4   0   81.03    3.73
   3   4   0   82.37    5.02
   4   4   0   65.94    3.05
   4   4   0   66.63    4.18
   5   4   0   28.88    2.08
   5   4   0   29.36    1.44
   6   4   0    0.35    0.52
   7   4   0    7.68    1.02
  -8  -4   0   18.67    1.67
   8   4   0   17.63    1.66
  -9  -4   0    3.49    0.95
   9   4   0    4.37    0.99
  -8   5   0   14.84    1.28
  -7   5   0    1.04    0.63
  -6   5   0    5.51    0.80
  -6   5   0    5.25    0.73
   5  -5   0   30.57    2.01
  -5   5   0   29.17    2.04
  -5   5   0   28.14    1.70
   4  -5   0    5.37    0.67
  -4   5   0    6.93    0.68
  -4   5   0    7.07    0.82
   3  -5   0   18.23    1.30
  -3   5   0   20.17    1.37
  -3   5   0   19.09    1.18
   2  -5   0   13.70    0.88
  -2   5   0   10.63    0.96
  -2   5   0   10.45    0.88
  -1   5   0   22.91    1.50
  -1   5   0   22.51    1.24
   0   5   0   24.71    1.59
   0   5   0   22.96    1.26
   1   5   0   45.25    2.82
   1   5   0   44.16    2.15
   2   5   0   12.55    1.02
   2   5   0   12.21    0.77
   3   5   0   15.29    1.25
   3   5   0   15.69    0.91
   4   5   0   38.02    1.83
   4   5   0   36.47    2.54
   5   5   0   74.45    4.85
   5   5   0   78.27    3.54
   6   5   0   16.02    1.44
   7   5   0    4.56    0.87
  -8  -5   0    4.46    0.89
   8   5   0    2.74    0.86
  -9  -5   0    8.14    1.22
   9   5   0    5.57    1.14
  -8   6   0    2.83    0.81
  -7   6   0    9.43    1.08
  -6   6   0    6.87    0.88
  -5   6   0    5.81    0.75
  -4   6   0   12.95    1.12
  -4   6   0   12.17    1.04
   3  -6   0   24.36    1.67
  -3   6   0   26.14    1.51
  -3   6   0   25.37    1.75
  -2   6   0   20.56    1.29
  -2   6   0   20.98    1.45
  -1   6   0    0.80    0.36
  -1   6   0    1.12    0.37
   0   6   0   33.51    2.17
   0   6   0   33.22    1.72
   1   6   0   19.57    1.11
   1   6   0   18.65    1.40
   2   6   0   28.69    2.00
   2   6   0   29.06    1.52
   3   6   0   12.21    1.17
   3   6   0   14.24    0.90
   4   6   0    2.87    0.40
   4   6   0    3.35    0.69
   5   6   0   13.29    0.87
   5   6   0   11.13    1.23
   6   6   0   12.08    1.28
   7   6   0   11.70    1.32
   8   6   0    6.22    1.13
  -9  -6   0    1.66    0.93
   9   6   0    1.79    0.91
  -7   7   0    1.53    0.78
  -6   7   0    3.33    0.82
  -5   7   0    4.45    0.80
  -4   7   0    3.75    0.68
  -3   7   0    9.98    0.95
  -2   7   0   14.92    1.10
  -1   7   0   24.77    1.70
  -1   7   0   23.79    1.43
   0   7   0    4.64    0.56
   0   7   0    4.52    0.65
   1   7   0    4.80    0.68
   1   7   0    3.85    0.52
   2   7   0   19.69    1.18
   2   7   0   18.18    1.48
   3   7   0   32.30    1.69
   3   7   0   30.67    2.25
   4   7   0    1.25    0.40
   4   7   0    0.80    0.61
   5   7   0    5.53    0.93
   6   7   0    5.50    0.99
   7   7   0    6.94    1.13
   8   7   0    3.26    1.02
  -7   8   0    3.47    0.91
  -6   8   0    7.90    1.03
  -5   8   0    1.65    0.67
  -4   8   0    1.69    0.63
  -3   8   0    4.40    0.70
  -2   8   0   13.07    1.08
  -1   8   0   11.75    1.02
   0   8   0    6.17    0.69
   1   8   0    1.90    0.50
   1   8   0    1.05    0.55
   2   8   0    2.95    0.56
   2   8   0    3.70    0.71
   3   8   0   17.07    1.60
   3   8   0   20.93    1.28
   4   8   0    7.66    0.76
   4   8   0    7.37    1.07
   5   8   0    6.91    1.08
   6   8   0    0.51    0.78
   7   8   0    4.58    1.07
  -6   9   0    5.73    0.96
  -5   9   0    1.53    0.75
  -4   9   0    1.78    0.69
  -3   9   0    3.92    0.76
  -2   9   0    8.92    0.94
  -1   9   0    6.89    0.80
   0   9   0    4.07    0.67
   1   9   0    4.23    0.68
   2   9   0    0.62    0.53
   3   9   0    5.64    0.73
   3   9   0    5.03    0.94
   4   9   0    1.18    0.56
   4   9   0    1.25    0.79
   5   9   0    2.33    0.89
   6   9   0    2.37    0.94
  -4  10   0    2.58    0.82
  -3  10   0    7.75    0.98
  -2  10   0   -0.11    0.62
  -1  10   0    0.81    0.66
   0  10   0    3.48    0.71
   1  10   0    5.10    0.80
   2  10   0    0.62    0.60
   3  10   0    2.03    0.64
   5  10   0    4.99    1.11
  -2  11   0    1.21    0.78
  -1  11   0    2.07    0.77
   0  11   0    0.04    0.67
   1  11   0    2.22    0.75
   2  11   0    4.82    0.83
   3  11   0    0.86    0.68
   2  11  -1    0.21    0.70
   1  11  -1    0.48    0.69
   0  11  -1    3.05    0.80
  -1  11  -1    1.36    0.78
  -2  11  -1    0.58    0.74
   4  10  -1    1.81    1.00
   2  10  -1    6.43    0.87
   1  10  -1    0.33    0.63
   0  10  -1    0.53    0.63
  -1  10  -1    4.45    0.81
  -2  10  -1    1.44    0.71
  -3  10  -1    4.40    0.86
  -4  10  -1    0.46    0.76
   6   9  -1    1.24    0.96
   5   9  -1   -0.08    0.85
   4   9  -1    5.47    1.08
   3   9  -1    1.91    0.59
   3   9  -1    1.08    0.78
   2   9  -1   10.58    1.05
   2   9  -1    8.76    1.18
   1   9  -1   10.78    1.08
   0   9  -1    1.12    0.55
  -1   9  -1    0.66    0.56
  -2   9  -1    5.08    0.79
  -3   9  -1    5.83    0.86
  -4   9  -1    0.92    0.72
  -5   9  -1    0.37    0.74
  -6   9  -1    0.61    0.79
   7   8  -1    2.93    1.02
   6   8  -1    3.40    1.00
   5   8  -1    6.83    1.17
   4   8  -1    2.15    0.84
   3   8  -1    0.69    0.47
   3   8  -1    0.48    0.66
   2   8  -1   25.53    1.52
   2   8  -1   24.06    1.95
   1   8  -1   17.88    1.53
   1   8  -1   18.78    1.23
   0   8  -1    5.98    0.69
   0   8  -1    5.86    0.86
  -1   8  -1    1.14    0.52
  -2   8  -1    4.26    0.69
  -3   8  -1   16.88    1.29
  -4   8  -1    2.44    0.72
  -5   8  -1    1.63    0.75
  -6   8  -1    0.69    0.79
  -7   8  -1   -0.36    0.82
   8   7  -1    2.54    0.98
  -8  -7   1    3.32    0.95
   7   7  -1    4.49    1.06
   6   7  -1    6.32    1.12
   5   7  -1    8.81    1.21
   4   7  -1   17.59    1.63
   3   7  -1   10.25    1.18
   3   7  -1   12.16    0.92
   2   7  -1    2.70    0.48
   2   7  -1    2.71    0.69
   1   7  -1   14.95    1.03
   1   7  -1   14.74    1.31
   0   7  -1   22.63    1.72
   0   7  -1   23.34    1.36
  -1   7  -1   37.66    1.98
  -1   7  -1   36.77    2.50
  -2   7  -1    5.03    0.67
  -2   7  -1    5.74    0.76
  -3   7  -1   12.12    1.09
  -4   7  -1    3.30    0.70
  -5   7  -1    2.71    0.72
  -6   7  -1    4.31    0.88
  -7   7  -1    1.42    0.82
   8   6  -1    6.45    1.19
  -8  -6   1    9.22    1.23
   7   6  -1    2.24    0.84
   6   6  -1    3.33    0.87
   5   6  -1    7.33    1.06
   4   6  -1   11.16    1.23
   4   6  -1   12.46    0.85
   3   6  -1   50.22    3.40
   3   6  -1   53.14    2.51
   2   6  -1   14.70    1.30
   2   6  -1   16.83    1.01
   1   6  -1    6.12    0.84
   1   6  -1    7.26    0.68
   0   6  -1   16.41    1.30
   0   6  -1   16.40    1.03
  -1   6  -1   16.13    1.28
  -1   6  -1   16.68    1.07
  -2   6  -1   47.63    2.45
  -2   6  -1   49.01    3.10
  -3   6  -1    2.70    0.55
   3  -6   1    3.29    0.50
  -4   6  -1    3.74    0.65
   4  -6   1    5.27    0.65
  -5   6  -1    3.94    0.71
  -6   6  -1   13.63    1.30
  -7   6  -1    0.81    0.71
  -8   6  -1    0.02    0.75
   9   5  -1    4.44    1.08
  -9  -5   1    1.93    0.91
   8   5  -1    9.91    1.30
  -8  -5   1    8.69    1.22
   7   5  -1   13.82    1.48
  -7  -5   1   18.51    1.54
   6   5  -1    5.51    0.93
   5   5  -1    3.32    0.76
   4   5  -1   26.61    1.96
   4   5  -1   25.72    1.33
   3   5  -1   29.88    1.48
   3   5  -1   28.69    2.07
   2   5  -1   23.45    1.74
   2   5  -1   25.73    1.29
   1   5  -1   19.76    1.07
   1   5  -1   19.41    1.45
   0   5  -1   34.28    2.20
   0   5  -1   32.26    1.67
  -1   5  -1   49.70    3.13
  -1   5  -1   49.74    2.42
  -2   5  -1   18.93    1.12
   2  -5   1   17.46    1.26
  -3   5  -1   25.20    1.68
  -3   5  -1   27.25    1.50
   3  -5   1   24.49    1.71
  -4   5  -1    5.98    0.70
  -4   5  -1    6.31    0.75
   4  -5   1    7.90    0.78
  -5   5  -1    5.41    0.73
   5  -5   1    6.71    0.81
  -6   5  -1   17.37    1.30
   6  -5   1   13.51    1.30
  -7   5  -1    1.21    0.65
  -8   5  -1    1.24    0.74
  -9   5  -1    0.45    0.75
   9   4  -1   11.84    1.50
  -9  -4   1   14.86    1.57
   8   4  -1    0.97    0.73
  -8  -4   1    1.44    0.74
   7   4  -1   20.57    1.71
  -7  -4   1   18.94    1.69
   6   4  -1   24.69    1.92
   5   4  -1   21.56    1.72
   4   4  -1    6.98    0.82
   4   4  -1    5.77    0.46
   3   4  -1   25.55    1.23
   3   4  -1   23.30    1.74
   2   4  -1   48.10    3.06
   2   4  -1   48.41    2.26
   1   4  -1   58.27    2.70
   1   4  -1   58.31    3.62
   0   4  -1   17.79    1.25
   0   4  -1   17.47    0.97
  -1   4  -1   90.72    5.46
  -1   4  -1   89.91    4.16
  -2   4  -1   48.02    2.96
  -2   4  -1   48.60    2.36
   2  -4   1   50.16    3.02
  -3   4  -1   95.32    4.49
  -3   4  -1   94.09    5.76
   3  -4   1  101.07    5.84
  -4   4  -1   10.75    0.88
  -4   4  -1    8.99    0.85
   4  -4   1   11.60    0.91
  -5   4  -1    5.09    0.62
  -5   4  -1    5.13    0.64
   5  -4   1    5.19    0.67
  -6   4  -1   22.71    1.47
  -6   4  -1   22.37    1.64
   6  -4   1   21.38    1.67
  -7   4  -1   12.79    1.10
   7  -4   1   12.10    1.25
  -8   4  -1    5.98    0.86
  -9   4  -1    1.66    0.76
   9   3  -1    1.64    0.86
  -9  -3   1    4.20    0.95
   8   3  -1    3.93    0.90
  -8  -3   1    5.28    0.93
   7   3  -1    7.17    0.97
  -7  -3   1    6.89    0.98
   6   3  -1   13.60    1.30
  -6  -3   1   17.21    1.36
   5   3  -1   39.22    2.65
   4   3  -1   18.34    0.94
   4   3  -1   19.62    1.44
   3   3  -1   20.27    1.42
   3   3  -1   19.65    0.97
   2   3  -1   46.57    2.91
   2   3  -1   46.16    2.13
   1   3  -1   53.81    2.53
   1   3  -1   56.73    3.41
   0   3  -1  101.61    4.70
   0   3  -1  106.63    6.24
   1  -3   1    5.27    0.47
  -2   3  -1   15.73    0.86
  -2   3  -1   14.86    0.96
   2  -3   1   13.44    1.00
  -3   3  -1  114.83    5.10
  -3   3  -1  110.48    6.59
   3  -3   1  108.79    6.67
  -4   3  -1   42.58    2.10
  -4   3  -1   39.68    2.58
   4  -3   1   42.59    2.64
  -5   3  -1   41.13    2.12
  -5   3  -1   36.63    2.58
   5  -3   1   44.63    2.66
  -6   3  -1   16.74    1.18
  -6   3  -1   14.63    1.28
  -7   3  -1    8.37    1.05
  -7   3  -1    8.81    0.85
   7  -3   1    6.34    0.89
  -8   3  -1   17.76    1.61
  -8   3  -1   17.13    1.42
   8  -3   1   17.04    1.56
   9  -3   1    4.30    0.91
   9   2  -1   10.13    1.28
  -9  -2   1    8.90    1.23
   8   2  -1   17.56    1.61
  -8  -2   1   17.79    1.63
   7   2  -1   12.33    1.24
  -7  -2   1   13.53    1.32
   6   2  -1    9.98    0.98
  -6  -2   1    6.90    0.97
   5   2  -1   47.41    3.08
  -5  -2   1   46.90    3.05
   4   2  -1   25.27    1.77
   3   2  -1   52.55    2.40
   3   2  -1   53.50    3.31
   2   2  -1  104.74    6.19
   2   2  -1  101.49    4.60
   1   2  -1  151.67    6.95
   1   2  -1  160.51    9.27
   0   2  -1   67.34    3.92
   0   2  -1   62.61    2.94
  -1   2  -1  124.92    5.50
   1  -2   1  119.66    7.25
  -2   2  -1   61.17    2.80
  -2   2  -1   64.01    3.60
   2  -2   1   57.20    3.67
  -3   2  -1   29.09    1.46
  -3   2  -1   29.42    1.82
  -4   2  -1   42.82    2.09
  -4   2  -1   44.37    2.67
   4  -2   1   40.95    2.70
  -5   2  -1   71.33    4.35
  -5   2  -1   68.40    3.35
   5  -2   1   72.66    4.39
  -6   2  -1   18.32    1.20
  -6   2  -1   18.17    1.44
   6  -2   1   17.28    1.41
  -7   2  -1   11.09    1.20
  -7   2  -1    9.97    0.89
   7  -2   1   13.21    1.19
  -8   2  -1    2.70    0.79
  -8   2  -1    1.51    0.59
   8  -2   1    1.09    0.62
  -9   2  -1    1.21    0.79
   9  -2   1    1.06    0.74
  10  -2   1    6.01    1.15
   9   1  -1    1.79    0.79
  -9  -1   1    1.46    0.83
   8   1  -1   29.56    2.19
  -8  -1   1   27.22    2.19
   7   1  -1   23.52    1.90
  -7  -1   1   27.11    1.98
   6   1  -1   13.65    1.22
  -6  -1   1   14.18    1.28
   5   1  -1   22.49    1.52
  -5  -1   1   17.96    1.50
   4   1  -1   78.59    4.79
  -4  -1   1   77.51    4.77
   3   1  -1  269.48   16.08
  -3  -1   1  274.24   16.00
   2   1  -1    5.63    0.30
   2   1  -1    5.37    0.49
   1   1  -1   46.19    2.13
   1   1  -1   49.08    2.89
   0   1  -1   41.39    1.93
   0   1  -1   44.24    2.60
  -1   1  -1  799.21   35.64
   1  -1   1  803.36   47.23
  -2   1  -1  149.11    9.38
   2  -1   1  171.03    9.47
  -3   1  -1   51.73    2.77
   3  -1   1   38.71    2.77
  -4   1  -1   59.22    2.74
  -4   1  -1   57.94    3.59
   4  -1   1   58.70    3.61
  -5   1  -1   66.91    4.05
  -5   1  -1   68.03    3.08
   5  -1   1   61.48    4.05
  -6   1  -1   43.18    2.90
  -6   1  -1   46.83    2.25
   6  -1   1   43.64    2.90
  -7   1  -1   22.77    1.40
  -7   1  -1   22.40    1.78
   7  -1   1   23.67    1.73
  -8   1  -1    5.66    0.92
  -8   1  -1    5.98    0.69
   8  -1   1    6.44    0.93
  -9   1  -1    6.64    1.09
   9  -1   1    7.34    1.09
 -10   1  -1    3.53    1.02
  10  -1   1    4.20    0.99
 -10   0   1    2.17    0.96
   9   0  -1   -0.18    0.66
  -9   0   1    0.94    0.81
   8   0  -1   15.01    1.40
  -8   0   1   12.28    1.41
   7   0  -1   37.31    2.57
  -7   0   1   36.77    2.62
   6   0  -1   15.93    1.32
  -6   0   1   16.49    1.37
  -6   0   1   15.96    0.94
   5   0  -1   31.06    2.40
  -5   0   1   39.29    1.77
  -5   0   1   40.49    2.48
   4   0  -1   34.24    1.98
  -4   0   1   27.59    1.42
  -4   0   1   28.23    1.98
   3   0  -1  138.56    7.38
  -3   0   1  117.82    5.51
  -3   0   1  113.94    7.33
   2   0  -1  205.18   12.66
  -2   0   1  216.27    9.52
  -2   0   1  221.99   12.61
   1   0  -1  189.27   11.85
  -1   0   1  213.42   11.80
   0   0   1    8.85    0.59
   0   0   1    8.65    0.57
   0   0   1    9.21    0.43
   1   0   1  110.51    6.53
   2   0   1  158.03    9.35
   3   0   1   51.64    3.17
   4   0   1   50.79    3.16
  -5   0  -1   20.69    1.60
   5   0   1   24.44    1.60
  -6   0  -1   89.32    5.22
   6   0   1   79.05    5.20
  -7   0  -1   11.11    1.24
  -7   0  -1   14.76    1.00
   7   0   1   13.01    1.19
  -8   0  -1    6.49    0.97
  -8   0  -1    6.53    0.70
   8   0   1    7.92    1.04
  -9   0  -1    5.97    1.05
   9   0   1    7.74    1.08
 -10   0  -1    4.92    1.05
  10   0   1    5.26    1.04
   9  -1  -1    0.91    0.71
  -9   1   1    2.84    0.94
   8  -1  -1    9.62    1.13
  -8   1   1    7.40    1.12
   7  -1  -1   31.55    2.16
  -7   1   1   27.44    2.19
   6  -1  -1   27.10    1.75
  -6   1   1   23.38    1.81
  -6   1   1   20.54    1.29
   5  -1  -1  106.07    6.96
  -5   1   1  118.26    5.22
  -5   1   1  120.89    6.98
   4  -1  -1   24.94    1.66
  -4   1   1   24.78    1.23
  -4   1   1   24.15    1.69
   3  -1  -1  104.37    5.74
  -3   1   1   91.66    5.73
  -3   1   1   91.19    4.31
   2  -1  -1  139.69    7.98
  -2   1   1  132.48    6.02
  -2   1   1  132.35    7.97
   1  -1  -1  140.75    8.02
  -1   1   1  133.30    8.01
  -1   1   1  134.42    6.07
   0  -1  -1  147.36    9.22
   0   1   1  161.89    9.22
   0   1   1  160.16    6.99
   0   1   1  159.11    9.23
   1   1   1   14.31    0.90
   1   1   1   14.35    0.68
   3   1   1  152.98    6.81
   3   1   1  151.17    9.05
   4   1   1   14.84    1.10
   5   1   1   32.83    2.19
  -6  -1  -1   41.99    2.59
   6   1   1   35.12    2.56
  -7  -1  -1   19.46    1.70
   7   1   1   23.68    1.70
  -8  -1  -1   15.22    1.53
   8   1   1   18.16    1.52
  -9  -1  -1    6.50    1.06
   9   1   1    7.60    1.08
 -10  -1  -1    0.34    0.75
  10   1   1    0.22    0.72
   9  -2  -1   12.38    1.38
  -9   2   1   11.82    1.56
   8  -2  -1    2.27    0.68
  -8   2   1    3.68    0.88
   7  -2  -1    4.48    0.71
  -7   2   1    1.97    0.73
   6  -2  -1   22.02    1.56
  -6   2   1   19.10    1.20
  -6   2   1   20.44    1.64
   5  -2  -1  111.03    6.63
  -5   2   1  106.79    5.01
  -5   2   1  111.00    6.66
   4  -2  -1   68.84    4.52
  -4   2   1   76.01    3.44
  -4   2   1   78.85    4.57
   3  -2  -1   23.57    1.73
  -3   2   1   29.51    1.79
  -3   2   1   30.02    1.36
  -2   2   1    1.30    0.25
  -2   2   1    1.19    0.19
   1  -2  -1  100.37    6.14
  -1   2   1  106.99    6.17
  -1   2   1  105.97    4.69
   0   2   1 1000.00   58.50
   0   2   1  996.32   44.55
   1   2   1    3.65    0.32
   1   2   1    3.33    0.26
   2   2   1   20.80    1.34
   2   2   1   20.56    1.00
   3   2   1   40.35    2.58
   3   2   1   42.54    1.93
   4   2   1  143.06    6.39
   4   2   1  141.21    8.53
   5   2   1   68.33    4.27
   6   2   1    9.72    1.00
   7   2   1    9.36    1.03
  -8  -2  -1   32.95    2.34
   8   2   1   29.55    2.29
  -9  -2  -1   21.43    1.88
   9   2   1   22.69    1.89
 -10  -2  -1    1.05    0.80
  10   2   1    2.16    0.84
  -9   3   1    8.15    1.30
   8  -3  -1    9.14    1.14
  -8   3   1    9.24    1.25
   7  -3  -1    6.33    0.83
  -7   3   1    6.53    0.96
  -7   3   1    6.14    0.69
   6  -3  -1    4.68    0.68
  -6   3   1    6.52    0.86
  -6   3   1    6.39    0.63
   5  -3  -1   24.41    1.46
  -5   3   1   17.88    1.18
  -5   3   1   18.12    1.55
   4  -3  -1   87.43    5.16
  -4   3   1   85.14    5.22
  -4   3   1   84.06    3.96
   3  -3  -1  104.27    6.32
  -3   3   1  106.80    6.35
  -3   3   1  107.17    4.84
   2  -3  -1   40.08    2.63
  -2   3   1   46.35    2.08
  -2   3   1   45.86    2.71
  -1   3   1   17.22    1.14
  -1   3   1   16.47    0.87
   0   3   1  174.74   10.31
   0   3   1  178.61   10.27
   0   3   1  170.63    7.81
   1   3   1   20.90    1.04
   1   3   1   21.52    1.34
   2   3   1   39.01    1.83
   2   3   1   39.57    2.44
   3   3   1   18.09    0.95
   3   3   1   18.96    1.29
   4   3   1   41.66    1.91
   4   3   1   39.10    2.59
   5   3   1   64.12    2.94
   5   3   1   62.63    4.00
   6   3   1   16.78    1.39
   7   3   1    1.75    0.62
  -8  -3  -1    7.04    0.97
   8   3   1    5.53    0.94
  -9  -3  -1   13.87    1.48
   9   3   1   12.83    1.41
 -10  -3  -1    5.65    1.06
  10   3   1    5.57    1.08
  -9   4   1    3.53    1.07
  -8   4   1    1.37    0.80
  -7   4   1    9.50    1.15
  -7   4   1    9.06    0.87
   6  -4  -1   14.14    1.29
  -6   4   1   17.93    1.46
  -6   4   1   17.05    1.16
   5  -4  -1   29.56    1.87
  -5   4   1   24.13    1.52
  -5   4   1   27.86    1.95
   4  -4  -1   28.65    1.78
  -4   4   1   26.34    1.89
  -4   4   1   26.50    1.48
   3  -4  -1   23.55    1.39
  -3   4   1   19.40    1.19
  -3   4   1   20.38    1.49
   2  -4  -1   89.56    5.69
  -2   4   1   98.70    4.41
  -2   4   1  100.43    5.77
  -1   4   1   62.82    3.86
  -1   4   1   64.46    3.78
  -1   4   1   62.83    2.94
   0   4   1   79.70    4.68
   0   4   1   77.36    3.59
   1   4   1   20.25    1.01
   1   4   1   18.85    1.26
   2   4   1  125.32    7.27
   2   4   1  117.54    5.48
   3   4   1   35.33    1.71
   3   4   1   35.79    2.30
   4   4   1   23.16    1.65
   4   4   1   24.11    1.21
   5   4   1   23.53    1.75
   5   4   1   24.48    1.26
   6   4   1   29.28    2.14
   6   4   1   29.62    1.51
   7   4   1   24.44    1.90
   8   4   1    2.41    0.76
  -9  -4  -1    7.20    1.09
   9   4   1    4.28    0.99
 -10  -4  -1    7.87    1.26
  10   4   1    6.41    1.14
  -7   5   1    4.93    0.92
  -7   5   1    4.47    0.74
  -6   5   1   12.18    1.27
  -6   5   1   10.62    0.94
  -5   5   1    5.37    0.65
  -5   5   1    5.29    0.76
   4  -5  -1    7.51    0.70
  -4   5   1    7.94    0.72
  -4   5   1    6.70    0.79
   3  -5  -1    8.28    0.67
  -3   5   1    8.46    0.81
  -3   5   1    8.32    0.86
   2  -5  -1   82.98    5.16
  -2   5   1   88.16    5.27
  -2   5   1   90.13    4.05
  -1   5   1   36.22    1.77
  -1   5   1   36.06    2.19
  -1   5   1   34.89    2.31
   0   5   1   33.63    1.64
   0   5   1   32.78    2.06
   1   5   1   51.62    2.46
   1   5   1   52.39    3.19
   2   5   1   25.11    1.31
   2   5   1   25.78    1.71
   3   5   1   91.82    4.25
   3   5   1   93.55    5.67
   4   5   1   19.99    1.49
   4   5   1   19.04    1.08
   5   5   1    0.67    0.49
   5   5   1    0.87    0.28
   6   5   1    9.70    1.07
   6   5   1    9.12    0.74
   7   5   1   21.43    1.79
   8   5   1   11.20    1.33
  -9  -5  -1   -0.62    0.72
   9   5   1    1.08    0.78
  -7   6   1    1.06    0.65
  -6   6   1    3.84    0.73
  -6   6   1    3.39    0.78
  -5   6   1    5.75    0.74
  -5   6   1    5.22    0.79
  -4   6   1    3.40    0.59
  -4   6   1    3.70    0.65
  -3   6   1    3.86    0.55
  -3   6   1    3.57    0.60
  -2   6   1   33.10    1.76
  -2   6   1   33.83    2.25
  -1   6   1   13.58    0.94
  -1   6   1   12.63    0.88
   0   6   1   33.12    1.69
   0   6   1   32.77    2.08
   1   6   1    6.57    0.69
   1   6   1    7.52    0.66
   2   6   1    9.13    0.72
   2   6   1    9.81    0.89
   3   6   1   30.94    2.11
   3   6   1   30.16    1.58
   4   6   1   47.51    3.14
   4   6   1   47.97    2.33
   5   6   1    2.86    0.41
   5   6   1    2.43    0.65
   6   6   1    2.99    0.43
   6   6   1    2.80    0.74
   7   6   1    2.68    0.80
   8   6   1   10.63    1.35
   9   6   1    1.11    0.83
  -7   7   1    1.66    0.70
  -6   7   1    1.63    0.66
  -5   7   1   19.48    1.41
  -4   7   1    2.54    0.58
  -4   7   1    2.26    0.62
  -3   7   1    1.45    0.51
  -3   7   1    2.36    0.59
  -2   7   1    7.91    0.80
  -1   7   1   17.02    1.13
   0   7   1   52.72    2.51
   0   7   1   48.62    3.14
   1   7   1   21.90    1.54
   1   7   1   22.01    1.28
   2   7   1    4.54    0.66
   2   7   1    4.31    0.53
   3   7   1    8.72    0.77
   3   7   1    7.72    0.96
   4   7   1    8.44    1.06
   4   7   1   10.54    0.85
   5   7   1   36.48    1.88
   5   7   1   34.53    2.53
   6   7   1    3.59    0.81
   7   7   1    0.94    0.76
   8   7   1    3.85    0.98
  -7   8   1    0.19    0.72
  -6   8   1   -0.29    0.65
  -5   8   1    1.47    0.65
  -4   8   1    3.40    0.68
  -3   8   1    3.60    0.67
  -2   8   1   15.62    1.14
  -1   8   1    5.83    0.67
   0   8   1    6.81    0.71
   1   8   1    9.40    0.91
   2   8   1   27.52    1.57
   2   8   1   26.19    1.93
   3   8   1    5.03    0.62
   3   8   1    5.59    0.83
   4   8   1    2.86    0.52
   4   8   1    1.27    0.65
   5   8   1    2.39    0.52
   5   8   1    2.38    0.75
   6   8   1    3.75    0.88
   7   8   1    1.98    0.89
   8   8   1    1.07    0.91
  -6   9   1    2.35    0.81
  -5   9   1   -0.08    0.66
  -4   9   1    2.46    0.71
  -3   9   1    2.80    0.68
  -2   9   1    2.30    0.64
  -1   9   1    4.67    0.71
   0   9   1    5.46    0.71
   1   9   1    2.24    0.59
   2   9   1    7.94    0.82
   3   9   1    6.60    0.74
   4   9   1    2.12    0.75
   4   9   1    2.56    0.61
   5   9   1    2.12    0.58
   5   9   1    1.83    0.78
   6   9   1    3.42    0.94
   7   9   1    4.40    1.10
  -4  10   1    0.22    0.70
  -3  10   1    1.21    0.68
  -2  10   1    5.52    0.84
  -1  10   1    3.01    0.71
   0  10   1    0.88    0.60
   1  10   1    0.34    0.59
   2  10   1    2.19    0.67
   3  10   1    9.47    0.96
   4  10   1   -0.27    0.58
  -3  11   1    0.02    0.76
  -2  11   1    1.49    0.75
  -1  11   1    0.69    0.70
   0  11   1   -0.06    0.66
   1  11   1    1.66    0.71
   2  11   1    0.46    0.65
   3  11   1    2.72    0.73
   4  11   1    0.64    0.68
   0  11  -2    0.55    0.73
   4  10  -2    0.90    1.00
   1  10  -2    1.52    0.69
   0  10  -2    5.50    0.84
  -1  10  -2    0.90    0.69
  -2  10  -2    0.59    0.68
  -3  10  -2    3.30    0.87
  -4  10  -2    1.20    0.83
   5   9  -2    1.62    1.05
   4   9  -2    5.06    1.17
   3   9  -2    1.07    0.84
   2   9  -2    0.75    0.81
   2   9  -2    0.70    0.54
   1   9  -2    3.62    0.67
   1   9  -2    3.47    0.91
   0   9  -2   10.37    1.07
  -1   9  -2    1.87    0.63
  -2   9  -2    0.39    0.62
  -3   9  -2    0.35    0.68
  -4   9  -2    3.26    0.85
  -5   9  -2    3.23    0.92
   6   8  -2    3.95    1.13
   5   8  -2    2.94    1.01
   4   8  -2    9.99    1.37
   3   8  -2    8.96    1.24
   2   8  -2   16.49    1.19
   2   8  -2   13.93    1.51
   1   8  -2   -0.21    0.45
   1   8  -2    0.00    0.64
   0   8  -2    6.40    0.98
   0   8  -2    6.54    0.73
  -1   8  -2   13.66    1.13
  -1   8  -2   13.37    1.36
  -2   8  -2   12.73    1.15
  -3   8  -2    4.54    0.81
  -4   8  -2    6.26    0.95
  -5   8  -2    4.28    0.93
  -6   8  -2    0.52    0.82
   7   7  -2    2.42    1.03
  -7  -7   2    2.91    0.91
   6   7  -2    6.84    1.23
   5   7  -2    1.63    0.83
   4   7  -2    7.30    1.10
   3   7  -2    0.52    0.66
   2   7  -2   25.62    2.06
   2   7  -2   28.69    1.55
   1   7  -2   18.54    1.59
   1   7  -2   18.86    1.20
   0   7  -2    0.44    0.41
   0   7  -2    0.31    0.56
  -1   7  -2    8.04    1.01
  -1   7  -2    7.39    0.76
  -2   7  -2    5.29    0.83
  -2   7  -2    4.63    0.71
  -3   7  -2   22.71    1.79
  -3   7  -2   22.67    1.53
  -4   7  -2    1.54    0.64
  -5   7  -2    4.74    0.84
  -6   7  -2    3.65    0.88
  -7   7  -2    4.12    1.01
   8   6  -2    2.32    0.96
  -8  -6   2    0.84    0.83
   7   6  -2   12.85    1.52
  -7  -6   2   11.42    1.40
   6   6  -2   10.89    1.37
  -6  -6   2   10.18    1.20
   5   6  -2    9.47    1.25
   4   6  -2    9.73    1.16
   3   6  -2    1.12    0.62
   3   6  -2    1.07    0.35
   2   6  -2   34.74    1.74
   2   6  -2   32.16    2.39
   1   6  -2   20.24    1.63
   1   6  -2   20.54    1.19
   0   6  -2    8.82    1.04
   0   6  -2   11.06    0.83
  -1   6  -2    1.65    0.56
  -1   6  -2    1.24    0.44
  -2   6  -2    5.92    0.79
  -2   6  -2    5.42    0.65
  -3   6  -2   35.13    1.91
   3  -6   2   33.32    2.28
  -4   6  -2    9.06    0.88
   4  -6   2    7.00    0.86
  -5   6  -2    1.38    0.63
   5  -6   2    1.20    0.53
  -6   6  -2    2.66    0.77
  -7   6  -2    7.13    1.04
  -8   6  -2   12.49    1.35
   8   5  -2    7.22    1.24
  -8  -5   2    9.92    1.30
   7   5  -2    1.75    0.82
  -7  -5   2    3.65    0.85
   6   5  -2   13.43    1.44
  -6  -5   2   12.62    1.30
   5   5  -2   23.80    1.93
   4   5  -2   33.56    2.41
   3   5  -2   22.55    1.77
   3   5  -2   22.59    1.20
   2   5  -2   18.12    1.03
   2   5  -2   18.25    1.48
   1   5  -2   18.29    1.49
   1   5  -2   20.38    1.09
   0   5  -2   33.28    2.25
   0   5  -2   33.03    1.70
  -1   5  -2   27.11    1.88
  -1   5  -2   26.60    1.48
  -2   5  -2    9.31    0.81
   2  -5   2    7.35    0.76
  -3   5  -2   13.33    1.01
   3  -5   2   11.65    1.01
  -4   5  -2   16.07    1.18
   4  -5   2   16.21    1.29
  -5   5  -2   14.85    1.24
   5  -5   2   15.21    1.27
  -6   5  -2    2.39    0.71
   6  -5   2    3.85    0.71
  -7   5  -2    3.06    0.76
  -8   5  -2    8.10    1.08
  -9   5  -2    3.96    1.03
   9   4  -2    3.97    1.08
  -9  -4   2    3.54    0.98
   8   4  -2    4.21    0.98
  -8  -4   2    5.91    1.03
   7   4  -2    5.59    0.98
  -7  -4   2    5.70    0.94
   6   4  -2    9.30    1.13
  -6  -4   2    7.55    1.02
   5   4  -2    5.24    0.82
  -5  -4   2    2.56    0.62
   4   4  -2   10.72    1.10
   3   4  -2   62.03    2.82
   3   4  -2   60.58    3.93
   2   4  -2   34.07    2.28
   2   4  -2   32.94    1.61
   1   4  -2   26.81    1.30
   1   4  -2   25.02    1.81
   0   4  -2   23.97    1.24
   0   4  -2   22.92    1.64
  -1   4  -2   39.64    2.58
  -1   4  -2   40.48    1.98
  -2   4  -2   20.08    1.31
   2  -4   2   27.50    1.64
   3  -4   2   13.53    1.07
  -4   4  -2   13.54    1.04
  -4   4  -2   13.17    0.95
   4  -4   2   12.72    1.09
  -5   4  -2   22.02    1.37
   5  -4   2   19.56    1.55
  -6   4  -2   24.77    1.64
   6  -4   2   27.60    1.96
  -7   4  -2    0.18    0.62
   7  -4   2    2.56    0.65
  -8   4  -2    2.07    0.75
   8  -4   2    2.12    0.73
  -9   4  -2    3.17    0.88
   9   3  -2    7.84    1.24
  -9  -3   2    6.10    1.10
   8   3  -2    9.95    1.26
  -8  -3   2    9.09    1.20
   7   3  -2   11.52    1.29
  -7  -3   2   12.90    1.33
   6   3  -2   14.99    1.41
  -6  -3   2   15.09    1.40
   5   3  -2    9.63    1.02
  -5  -3   2    8.23    1.01
   4   3  -2   65.51    3.99
  -4  -3   2   59.51    3.89
   3   3  -2   26.32    1.25
   3   3  -2   26.96    1.87
   2   3  -2   37.20    1.76
   2   3  -2   38.64    2.48
   1   3  -2   23.26    1.59
   1   3  -2   22.55    1.12
   0   3  -2   46.92    2.19
   0   3  -2   46.57    2.95
  -1   3  -2   65.08    3.07
   1  -3   2   67.53    4.05
  -2   3  -2   62.40    3.02
   2  -3   2   66.36    3.95
  -3   3  -2   43.81    2.78
  -3   3  -2   46.35    2.27
   3  -3   2   50.10    2.93
  -4   3  -2    1.15    0.39
  -4   3  -2    1.03    0.26
   4  -3   2   -0.07    0.30
  -5   3  -2   13.94    1.02
  -5   3  -2   14.65    1.02
   5  -3   2   10.43    1.07
  -6   3  -2   56.92    3.71
  -6   3  -2   61.74    3.01
   6  -3   2   61.66    3.85
  -7   3  -2    5.01    0.75
   7  -3   2    4.06    0.75
  -8   3  -2   11.55    1.13
   8  -3   2   13.63    1.36
  -9   3  -2    2.00    0.79
   9  -3   2    1.17    0.74
   9   2  -2    4.44    1.04
  -9  -2   2    8.05    1.18
   8   2  -2    2.97    0.83
  -8  -2   2    1.79    0.78
   7   2  -2   24.83    1.96
  -7  -2   2   25.12    1.97
   6   2  -2   11.65    1.19
  -6  -2   2   12.64    1.23
   5   2  -2   19.50    1.59
  -5  -2   2   21.18    1.60
   4   2  -2   32.32    2.09
  -4  -2   2   28.36    2.05
   3   2  -2  105.62    6.44
  -3  -2   2  106.40    6.37
   2   2  -2   84.56    3.80
   2   2  -2   85.86    5.20
   1   2  -2   79.53    3.67
   1   2  -2   83.97    4.97
   0   2  -2   76.88    4.50
   0   2  -2   70.96    3.34
  -1   2  -2   32.22    1.46
   1  -2   2   28.60    1.92
  -2   2  -2   75.69    3.42
   2  -2   2   72.71    4.49
  -3   2  -2   67.49    4.44
  -3   2  -2   73.40    3.49
   3  -2   2   85.19    4.59
  -4   2  -2   24.25    1.33
  -4   2  -2   23.47    1.58
   4  -2   2   25.86    1.68
  -5   2  -2   10.19    0.97
  -5   2  -2   11.05    0.94
   5  -2   2   14.22    1.06
  -6   2  -2   20.03    1.49
  -6   2  -2   20.69    1.31
   6  -2   2   18.75    1.53
  -7   2  -2   18.97    1.34
  -7   2  -2   20.50    1.57
   7  -2   2   18.43    1.59
  -8   2  -2   15.46    1.31
  -8   2  -2   16.84    1.52
   8  -2   2   17.27    1.53
  -9   2  -2    1.59    0.72
   9  -2   2    2.22    0.80
  10  -2   2    5.02    1.05
   9   1  -2    2.20    0.82
  -9  -1   2    1.52    0.86
   8   1  -2    0.31    0.65
  -8  -1   2    2.56    0.81
   7   1  -2   12.44    1.20
  -7  -1   2    9.42    1.20
   6   1  -2   22.72    1.76
  -6  -1   2   24.40    1.82
   5   1  -2   19.46    1.56
  -5  -1   2   22.56    1.62
   4   1  -2    1.78    0.46
  -4  -1   2    1.58    0.44
   3   1  -2   36.95    2.41
  -3  -1   2   38.26    2.40
   2   1  -2  246.56   14.09
  -2  -1   2  229.35   13.99
   1   1  -2  151.49    9.21
  -1  -1   2  157.81    9.12
   0   1  -2  267.73   16.31
   0   1  -2  257.25   12.27
   0  -1   2  303.67   16.15
   1  -1   2  109.79    6.54
   2  -1   2   61.77    3.74
  -3   1  -2  119.50    7.08
   3  -1   2  120.43    7.18
  -4   1  -2   29.94    1.82
   4  -1   2   26.17    1.87
  -5   1  -2   21.54    1.56
   5  -1   2   23.31    1.61
  -6   1  -2    1.92    0.43
  -6   1  -2    1.92    0.52
  -7   1  -2   13.63    1.26
  -7   1  -2   13.69    1.07
   7  -1   2   12.91    1.25
  -8   1  -2   17.12    1.27
  -8   1  -2   17.57    1.54
   8  -1   2   15.66    1.49
  -9   1  -2    4.42    0.70
  -9   1  -2    3.31    0.89
   9  -1   2    2.97    0.85
  10  -1   2    5.19    1.09
   9   0  -2   11.21    1.41
  -9   0   2   12.34    1.54
   8   0  -2    7.62    1.09
  -8   0   2    8.53    1.18
   7   0  -2    6.43    0.91
  -7   0   2    6.16    0.95
   6   0  -2   20.05    1.50
  -6   0   2   17.58    1.54
   5   0  -2   49.41    3.08
  -5   0   2   45.82    3.09
   4   0  -2   61.40    3.82
  -4   0   2   62.21    2.78
  -4   0   2   60.15    3.81
   3   0  -2    8.27    0.72
   2   0  -2   93.03    5.05
  -2   0   2   74.59    5.00
   1   0  -2  184.55   10.29
  -1   0   2  163.34   10.22
   0   0   2  199.19   11.65
   0   0   2  205.45    8.77
   0   0   2  187.15   11.55
   1   0   2  464.66   26.58
   1   0   2  440.24   26.47
   2   0   2   65.11    3.93
   3   0   2   42.61    2.65
   4   0   2   68.26    4.19
   5   0   2   21.03    1.50
  -6   0  -2   42.36    2.75
   6   0   2   41.05    2.74
   7   0   2    6.67    0.88
  -8   0  -2    9.68    1.20
  -8   0  -2   10.83    0.99
   8   0   2    9.94    1.14
  -9   0  -2    2.61    0.80
   9   0   2    1.76    0.74
 -10   0  -2    6.50    1.11
  10   0   2    7.41    1.19
   9  -1  -2    4.36    0.94
  -9   1   2    4.05    1.08
   8  -1  -2   29.12    2.26
  -8   1   2   30.95    2.38
   7  -1  -2   10.54    1.18
  -7   1   2   13.29    1.35
   6  -1  -2    1.00    0.48
  -6   1   2    0.56    0.54
   5  -1  -2   28.37    1.87
  -5   1   2   26.93    1.94
  -5   1   2   25.99    1.36
   4  -1  -2   39.97    2.46
  -4   1   2   37.81    2.50
  -4   1   2   37.09    1.80
   3  -1  -2  126.51    8.09
  -3   1   2  138.11    8.09
  -3   1   2  142.49    6.07
   2  -1  -2   38.01    2.08
  -2   1   2   32.00    1.53
  -2   1   2   30.15    2.08
  -1   1   2   50.15    2.28
  -1   1   2   51.04    3.05
   0   1   2   44.94    1.99
   0   1   2   43.70    2.64
   0   1   2   42.90    2.64
   1   1   2  678.95   40.23
   1   1   2  682.39   30.38
   2   1   2  134.07    5.88
   2   1   2  128.06    7.77
   3   1   2   67.70    3.04
   3   1   2   64.88    4.03
   4   1   2   63.43    3.91
   5   1   2   63.51    3.97
   6   1   2   45.45    2.97
  -7  -1  -2    7.45    0.92
   7   1   2    6.15    0.85
  -8  -1  -2    3.00    0.73
   8   1   2    1.10    0.61
  -9  -1  -2   14.15    1.44
   9   1   2   13.28    1.39
 -10  -1  -2   13.36    1.53
  10   1   2   13.60    1.50
  -9   2   2    0.89    0.90
   8  -2  -2   17.60    1.57
  -8   2   2   17.48    1.72
   7  -2  -2   32.55    2.38
  -7   2   2   36.03    2.52
   6  -2  -2    3.06    0.62
  -6   2   2    5.06    0.79
   5  -2  -2   21.14    1.77
  -5   2   2   29.88    1.93
  -5   2   2   28.26    1.36
  -4   2   2   28.33    1.41
  -4   2   2   28.45    1.94
   3  -2  -2  112.13    6.50
  -3   2   2  108.05    4.92
  -3   2   2  106.32    6.53
   2  -2  -2   65.35    4.36
  -2   2   2   77.61    3.32
  -2   2   2   77.15    4.42
  -1   2   2   22.03    1.40
  -1   2   2   21.16    1.03
   0   2   2  112.27    6.78
   0   2   2  115.40    6.74
   0   2   2  115.43    5.12
   1   2   2  522.02   22.95
   1   2   2  512.74   30.35
   2   2   2   25.57    1.23
   2   2   2   25.82    1.62
   3   2   2   25.18    1.21
   3   2   2   23.83    1.60
   4   2   2   29.45    1.46
   4   2   2   29.71    1.96
   5   2   2   20.89    1.13
   5   2   2   21.12    1.53
   6   2   2   46.33    3.03
   7   2   2   13.91    1.27
  -8  -2  -2    2.67    0.73
   8   2   2    4.74    0.80
  -9  -2  -2   -0.03    0.66
   9   2   2    0.46    0.65
 -10  -2  -2    5.19    1.03
  10   2   2    4.26    0.98
  -9   3   2    2.47    1.02
  -8   3   2    4.97    1.06
   7  -3  -2   17.63    1.45
  -7   3   2   17.30    1.67
   6  -3  -2   33.62    2.09
  -6   3   2   26.71    1.61
  -6   3   2   29.95    2.25
   5  -3  -2   50.16    3.68
  -5   3   2   64.17    2.85
  -5   3   2   66.03    3.84
   4  -3  -2   14.63    1.11
  -4   3   2   16.56    0.94
  -4   3   2   15.78    1.28
   3  -3  -2   32.97    1.91
  -3   3   2   29.39    1.51
  -3   3   2   28.18    2.00
   2  -3  -2   33.61    1.87
  -2   3   2   28.89    1.48
  -2   3   2   28.80    1.97
  -1   3   2   68.48    4.18
  -1   3   2   69.71    3.15
   0   3   2   35.07    2.21
   0   3   2   35.17    1.65
   1   3   2  204.97    9.38
   1   3   2  215.06   12.37
   2   3   2  136.43    7.99
   2   3   2  132.72    6.05
   3   3   2  139.74    8.44
   3   3   2  143.11    6.37
   4   3   2   26.59    1.78
   4   3   2   25.64    1.32
   5   3   2   11.88    1.01
   5   3   2   11.58    0.77
   6   3   2   47.61    3.14
   6   3   2   47.97    2.31
   7   3   2    9.90    1.10
   8   3   2   12.26    1.27
  -9  -3  -2    4.14    0.91
   9   3   2    4.35    0.90
 -10  -3  -2    0.68    0.81
  10   3   2    0.05    0.74
  -9   4   2    7.45    1.36
  -8   4   2    1.83    0.93
  -7   4   2    5.66    1.00
  -6   4   2    3.02    0.54
  -6   4   2    3.46    0.78
   5  -4  -2   59.64    3.78
  -5   4   2   62.11    3.93
  -5   4   2   61.55    2.95
   4  -4  -2    7.35    0.69
  -4   4   2    8.72    0.96
  -4   4   2    8.38    0.74
   3  -4  -2    7.49    0.64
  -3   4   2    9.43    0.69
  -3   4   2    9.99    0.89
  -2   4   2    0.49    0.31
  -2   4   2    0.59    0.25
  -1   4   2   63.38    3.97
  -1   4   2   66.23    3.00
   0   4   2  115.80    6.87
   0   4   2  113.43    5.19
   1   4   2    5.83    0.47
   1   4   2    6.16    0.48
   2   4   2   53.86    2.53
   2   4   2   54.68    3.31
   3   4   2   83.75    5.11
   3   4   2   84.50    3.85
   4   4   2  131.88    7.87
   4   4   2  129.01    5.91
   5   4   2   65.34    4.06
   5   4   2   62.84    3.00
   6   4   2    1.35    0.34
   6   4   2    1.36    0.55
   7   4   2    6.70    0.93
   8   4   2   29.66    2.27
   9   4   2   11.48    1.34
 -10  -4  -2    0.16    0.84
  10   4   2   -0.07    0.71
  -8   5   2    4.49    1.11
  -7   5   2    5.04    1.01
  -6   5   2    1.48    0.70
  -6   5   2    1.00    0.50
  -5   5   2   15.27    1.13
  -5   5   2   15.35    1.41
  -4   5   2   24.69    1.43
  -4   5   2   26.00    1.88
  -3   5   2   10.79    1.06
  -3   5   2   12.98    0.85
  -2   5   2   10.86    1.01
  -2   5   2   11.87    0.80
  -1   5   2   17.38    1.32
  -1   5   2   17.52    0.99
   0   5   2   68.65    3.20
   1   5   2   10.77    0.69
   1   5   2   10.19    0.75
   2   5   2    7.93    0.61
   2   5   2    9.21    0.73
   3   5   2    1.79    0.40
   3   5   2    2.03    0.32
   4   5   2   36.84    1.78
   4   5   2   34.55    2.37
   5   5   2   82.42    5.22
   5   5   2   84.89    3.89
   6   5   2    8.02    0.71
   6   5   2    7.72    0.97
   7   5   2    4.12    0.84
   7   5   2    5.84    0.55
   8   5   2    1.03    0.71
   9   5   2    8.94    1.25
  -7   6   2    5.30    0.75
  -7   6   2    5.73    1.10
  -6   6   2    6.22    1.01
  -6   6   2    5.80    0.73
  -5   6   2    3.59    0.59
  -5   6   2    4.07    0.80
  -4   6   2   26.11    1.49
  -4   6   2   26.94    1.98
  -3   6   2   17.89    1.46
  -3   6   2   17.44    1.11
  -2   6   2   17.23    1.05
  -2   6   2   16.09    1.35
  -1   6   2    8.39    0.72
  -1   6   2    8.21    0.92
   0   6   2   32.28    2.01
   0   6   2   34.00    1.70
   1   6   2   23.70    1.29
   1   6   2   23.91    1.55
   2   6   2   48.95    3.09
   2   6   2   50.29    2.41
   3   6   2    9.56    0.90
   3   6   2   11.11    0.79
   4   6   2   40.25    2.00
   4   6   2   39.63    2.64
   5   6   2    4.15    0.48
   5   6   2    3.52    0.68
   6   6   2   23.08    1.82
   6   6   2   22.95    1.32
   7   6   2   11.44    0.94
   7   6   2   11.25    1.28
   8   6   2    2.10    0.79
   9   6   2    4.57    1.04
  -7   7   2    4.90    0.79
  -6   7   2    3.06    0.90
  -6   7   2    3.62    0.70
  -5   7   2    1.34    0.71
  -5   7   2    0.20    0.52
  -4   7   2    2.71    0.56
  -4   7   2    3.25    0.73
  -3   7   2    5.86    0.67
  -3   7   2    7.14    0.89
  -2   7   2   30.22    1.70
  -2   7   2   31.90    2.21
  -1   7   2   39.91    2.06
   0   7   2   -0.10    0.35
   1   7   2   10.72    0.87
   1   7   2   11.42    0.86
   2   7   2   13.60    1.08
   2   7   2   14.25    0.96
   3   7   2   37.09    1.88
   3   7   2   35.52    2.40
   4   7   2    2.98    0.46
   4   7   2    2.83    0.61
   5   7   2    5.08    0.57
   5   7   2    4.16    0.77
   6   7   2   11.78    1.29
   6   7   2   12.77    0.98
   7   7   2   11.54    1.35
   8   7   2    1.62    0.85
   9   7   2   -0.20    0.83
  -6   8   2    3.42    0.77
  -5   8   2    4.09    0.71
  -4   8   2    2.18    0.74
  -4   8   2    1.64    0.58
  -3   8   2    1.07    0.64
  -3   8   2    1.85    0.55
  -2   8   2   20.37    1.33
  -1   8   2    3.19    0.57
   0   8   2   22.64    1.39
   1   8   2    1.99    0.48
   2   8   2    0.29    0.41
   3   8   2   12.90    1.01
   3   8   2   12.30    1.14
   4   8   2   11.22    0.95
   4   8   2   10.88    1.14
   5   8   2    1.52    0.49
   5   8   2    0.94    0.63
   6   8   2    3.35    0.58
   6   8   2    3.40    0.85
   7   8   2    2.50    0.88
  -6   9   2    3.77    0.84
  -5   9   2    6.87    0.90
  -4   9   2    0.77    0.61
  -3   9   2    1.14    0.60
  -2   9   2    2.88    0.65
  -1   9   2    6.17    0.76
   0   9   2   13.43    1.13
   1   9   2    1.21    0.54
   2   9   2    1.92    0.55
   3   9   2    1.83    0.54
   4   9   2    5.07    0.68
   5   9   2    2.55    0.79
   5   9   2    3.73    0.65
   6   9   2    1.51    0.83
   7   9   2    0.50    0.86
  -4  10   2    1.74    0.72
  -3  10   2    3.11    0.78
  -2  10   2    1.96    0.67
  -1  10   2    1.82    0.66
   0  10   2    3.20    0.69
   1  10   2    0.87    0.60
   2  10   2    4.62    0.74
   3  10   2    0.67    0.57
   4  10   2    1.90    0.64
   5  10   2    1.95    0.65
  -3  11   2   -0.26    0.71
  -2  11   2    3.26    0.83
  -1  11   2    0.42    0.71
   0  11   2    1.82    0.74
   1  11   2    1.05    0.69
   2  11   2    1.70    0.68
   3  11   2    2.37    0.71
   4  11   2    0.89    0.68
   1  12   2    0.51    0.75
   0  10  -3   -0.31    0.64
  -1  10  -3    3.22    0.79
  -2  10  -3    0.90    0.74
  -3  10  -3    0.45    0.76
   4   9  -3    1.22    1.02
   3   9  -3    4.57    1.17
   2   9  -3    8.55    1.33
   1   9  -3    3.33    0.67
   1   9  -3    2.92    0.99
   0   9  -3    1.31    0.61
   0   9  -3    1.90    0.87
  -1   9  -3    1.33    0.64
  -2   9  -3    3.54    0.78
  -3   9  -3    7.12    0.98
  -4   9  -3    0.37    0.79
  -5   9  -3    0.24    0.88
   5   8  -3    6.49    1.36
  -5  -8   3   10.28    1.26
   4   8  -3    0.85    0.88
   3   8  -3    4.36    1.10
   2   8  -3    2.05    0.87
   1   8  -3    8.98    1.26
   1   8  -3    8.31    0.82
   0   8  -3   13.46    1.09
   0   8  -3   12.93    1.45
  -1   8  -3    1.05    0.56
  -1   8  -3    0.33    0.71
  -2   8  -3    0.76    0.70
  -2   8  -3    0.78    0.63
  -3   8  -3    2.46    0.77
  -4   8  -3    5.00    0.93
  -5   8  -3   -0.48    0.75
  -6   8  -3    1.57    0.90
   6   7  -3    2.08    1.05
  -6  -7   3    1.72    0.78
   5   7  -3    7.07    1.27
  -5  -7   3    6.57    0.98
   4   7  -3    9.37    1.30
   3   7  -3   10.98    1.38
   2   7  -3    2.44    0.81
   2   7  -3    1.59    0.46
   1   7  -3   13.82    1.01
   1   7  -3   12.15    1.40
   0   7  -3   25.41    1.48
   0   7  -3   24.38    1.97
  -1   7  -3    8.87    0.84
  -1   7  -3    7.74    1.06
  -2   7  -3    2.20    0.74
  -2   7  -3    2.20    0.63
  -3   7  -3    1.66    0.71
  -3   7  -3    1.37    0.65
  -4   7  -3    9.58    1.04
  -4   7  -3   10.83    1.25
   4  -7   3   10.92    1.11
  -5   7  -3    3.37    0.84
  -6   7  -3   -0.81    0.75
  -7   7  -3    2.21    0.93
   7   6  -3    5.40    1.19
  -7  -6   3    5.30    1.00
   6   6  -3    0.58    0.87
  -6  -6   3    3.83    0.83
   5   6  -3    4.32    1.03
  -5  -6   3    3.65    0.79
   4   6  -3   19.40    1.70
  -4  -6   3   16.04    1.43
   3   6  -3    7.59    1.10
   2   6  -3   31.61    1.62
   2   6  -3   28.78    2.28
   1   6  -3    5.42    0.57
   1   6  -3    6.80    0.97
   0   6  -3   13.19    0.93
   0   6  -3   11.97    1.27
  -1   6  -3   27.76    2.06
  -1   6  -3   27.26    1.60
  -2   6  -3   22.01    1.39
  -2   6  -3   20.98    1.70
  -3   6  -3    8.93    1.12
  -3   6  -3    9.34    0.93
   3  -6   3   12.54    1.06
  -4   6  -3   11.69    1.13
   4  -6   3    9.99    1.05
  -5   6  -3   10.63    1.04
   5  -6   3    9.18    1.08
  -6   6  -3    6.11    0.96
   6  -6   3    6.41    0.94
  -7   6  -3    0.34    0.79
  -8   6  -3    0.74    0.88
   8   5  -3    4.21    1.07
  -8  -5   3    2.63    0.90
   7   5  -3    6.79    1.21
  -7  -5   3    6.51    1.05
   6   5  -3   10.28    1.42
  -6  -5   3   13.04    1.32
   5   5  -3    5.10    1.00
  -5  -5   3    5.10    0.83
   4   5  -3   10.90    1.22
  -4  -5   3    8.09    1.00
   3   5  -3    3.23    0.76
   2   5  -3   35.76    1.78
   2   5  -3   35.81    2.56
   1   5  -3   15.76    0.95
   1   5  -3   15.35    1.38
   0   5  -3   10.75    1.11
   0   5  -3   12.00    0.90
  -1   5  -3   28.58    2.06
  -1   5  -3   28.43    1.56
  -2   5  -3   12.56    1.00
  -2   5  -3   11.49    1.10
   2  -5   3    9.44    0.99
  -3   5  -3   41.15    2.34
   3  -5   3   48.74    2.96
  -4   5  -3   10.59    1.00
   4  -5   3    7.42    0.94
  -5   5  -3    3.68    0.71
   5  -5   3    5.80    0.81
  -6   5  -3    5.19    0.84
   6  -5   3    4.85    0.80
  -7   5  -3   12.77    1.23
   7  -5   3   11.59    1.38
  -8   5  -3    1.91    0.88
   8   4  -3    3.58    1.01
  -8  -4   3    3.19    0.92
   7   4  -3   13.66    1.51
  -7  -4   3   13.18    1.42
   6   4  -3   13.94    1.46
  -6  -4   3   13.01    1.33
   5   4  -3   14.96    1.51
  -5  -4   3   18.06    1.46
   4   4  -3    4.90    0.86
  -4  -4   3    6.00    0.77
   3   4  -3   17.93    1.49
  -3  -4   3   17.31    1.35
   2   4  -3   64.48    2.97
   2   4  -3   63.90    4.14
   1   4  -3   27.74    1.37
   1   4  -3   26.57    1.96
   0   4  -3   11.83    1.09
   0   4  -3   12.41    0.82
  -1   4  -3   14.74    1.24
  -1   4  -3   15.45    0.98
  -2   4  -3   47.12    2.29
   2  -4   3   45.03    2.95
  -3   4  -3   80.81    3.84
   3  -4   3   79.93    4.97
  -4   4  -3   15.07    1.18
   4  -4   3   16.72    1.33
  -5   4  -3    0.56    0.53
   5  -4   3    1.11    0.49
  -6   4  -3    2.45    0.66
   6  -4   3    1.03    0.54
  -7   4  -3   30.48    1.89
   7  -4   3   27.74    2.20
  -8   4  -3    5.36    0.95
   8  -4   3    4.89    0.92
  -9   4  -3   -0.65    0.74
   9  -4   3    0.33    0.74
   8   3  -3    6.54    1.18
  -8  -3   3   11.22    1.33
   7   3  -3    2.71    0.84
  -7  -3   3    3.52    0.82
   6   3  -3   16.88    1.61
  -6  -3   3   17.62    1.54
   5   3  -3   13.06    1.36
  -5  -3   3   15.70    1.32
   4   3  -3   43.91    3.03
  -4  -3   3   45.88    2.94
   3   3  -3    7.92    0.89
   2   3  -3   51.96    3.46
   2   3  -3   54.29    2.46
  -2  -3   3   54.60    3.33
   1   3  -3   30.62    2.07
   1   3  -3   29.55    1.45
  -1  -3   3   29.49    1.89
   0   3  -3   79.38    3.65
   0   3  -3   79.10    4.94
   0  -3   3   80.51    4.73
  -1   3  -3   74.03    3.57
  -1   3  -3   72.15    4.77
   1  -3   3   85.62    4.76
   2  -3   3    5.42    0.63
  -3   3  -3   79.43    3.53
   3  -3   3   70.25    4.60
  -4   3  -3   51.70    2.58
   4  -3   3   52.57    3.33
  -5   3  -3   37.21    2.10
   5  -3   3   42.61    2.69
  -6   3  -3    4.51    0.68
   6  -3   3    6.06    0.81
  -7   3  -3    0.08    0.59
   7  -3   3    1.61    0.62
  -8   3  -3   13.90    1.37
   8  -3   3   12.99    1.39
  -9   3  -3    3.26    0.87
   9  -3   3    2.80    0.90
   9   2  -3    6.27    1.18
  -9  -2   3    6.88    1.19
   8   2  -3    8.59    1.18
  -8  -2   3    8.10    1.19
   7   2  -3    4.52    0.89
  -7  -2   3    4.83    0.89
   6   2  -3   23.39    1.85
  -6  -2   3   22.46    1.81
   5   2  -3   11.69    1.19
  -5  -2   3   12.80    1.18
   4   2  -3    8.74    0.96
   3   2  -3   13.82    1.17
  -3  -2   3   13.90    1.10
   2   2  -3   19.15    1.49
  -2  -2   3   21.02    1.39
   1   2  -3   47.16    2.78
   1   2  -3   43.33    1.97
  -1  -2   3   38.66    2.61
   0   2  -3   11.06    0.94
   0   2  -3   11.42    0.65
  -1   2  -3  137.17    6.68
   1  -2   3  160.21    8.89
  -2   2  -3   68.69    3.04
   2  -2   3   61.29    3.99
  -3   2  -3    5.91    0.59
   3  -2   3    6.19    0.66
  -4   2  -3   25.68    1.57
  -4   2  -3   25.48    1.37
   4  -2   3   23.36    1.73
  -5   2  -3   52.38    3.27
  -5   2  -3   55.54    2.66
   5  -2   3   52.53    3.43
  -6   2  -3   47.13    3.10
  -6   2  -3   47.06    2.51
   6  -2   3   54.12    3.27
  -7   2  -3   -0.21    0.51
   7  -2   3    0.38    0.52
  -8   2  -3    2.16    0.67
   8  -2   3    1.95    0.71
  -9   2  -3    4.52    0.85
   9  -2   3    5.03    0.98
 -10   2  -3    2.08    0.83
  10  -2   3    3.84    0.96
   9   1  -3   12.05    1.43
  -9  -1   3    7.86    1.28
   8   1  -3   14.14    1.55
  -8  -1   3   16.48    1.61
   7   1  -3   13.13    1.35
  -7  -1   3   14.60    1.44
   6   1  -3   10.02    1.11
   5   1  -3   26.88    1.84
  -5  -1   3   21.83    1.78
   4   1  -3   95.48    5.91
  -4  -1   3   97.23    5.88
   3   1  -3   67.27    4.29
  -3  -1   3   70.89    4.25
   2   1  -3   24.88    1.95
  -2  -1   3   34.31    1.93
   1   1  -3   14.36    0.70
   1   1  -3   14.83    1.10
   0   1  -3  116.54    6.65
   0  -1   3  104.02    6.48
   1  -1   3   30.39    1.95
   1  -1   3   30.07    1.83
   2  -1   3  125.47    7.51
   3  -1   3   84.06    5.11
   4  -1   3   12.91    1.05
  -5   1  -3   33.24    2.19
   5  -1   3   34.52    2.29
  -6   1  -3   28.70    2.06
   6  -1   3   32.04    2.16
  -7   1  -3   23.60    1.79
  -7   1  -3   24.50    1.50
   7  -1   3   25.45    1.90
  -8   1  -3   10.53    0.97
  -8   1  -3    9.19    1.17
   8  -1   3   11.65    1.24
  -9   1  -3    5.08    0.80
   9  -1   3    4.05    0.91
  10  -1   3    3.94    1.00
   9   0  -3    2.00    0.83
  -9   0   3    0.75    0.89
   8   0  -3    4.12    0.87
  -8   0   3    2.43    0.89
   7   0  -3   28.78    2.14
  -7   0   3   28.09    2.20
   6   0  -3   18.03    1.51
  -6   0   3   19.71    1.59
   5   0  -3    8.92    0.97
   4   0  -3   51.76    3.28
  -4   0   3   51.02    3.27
   3   0  -3   32.60    2.01
  -3   0   3   27.78    1.99
   2   0  -3  132.82    8.12
  -2   0   3  138.76    8.07
   1   0  -3  114.91    6.93
  -1   0   3  116.22    6.85
   0   0   3  111.13    6.46
   0   0   3  104.33    6.36
   1   0   3   94.47    5.79
   1   0   3  101.55    5.88
   2   0   3   57.00    3.49
   3   0   3   55.52    3.43
   4   0   3   44.84    2.86
   5   0   3   23.06    1.65
   6   0   3   68.78    4.36
  -7   0  -3    6.57    0.87
   7   0   3    8.61    0.96
  -8   0  -3   14.83    1.43
   8   0   3   16.74    1.48
  -9   0  -3    1.51    0.59
  -9   0  -3    1.54    0.72
   9   0   3    0.17    0.67
  10   0   3    6.56    1.17
   9  -1  -3    1.16    0.76
  -9   1   3   -0.07    0.86
   8  -1  -3    3.38    0.81
  -8   1   3    0.14    0.74
   7  -1  -3   26.13    1.91
  -7   1   3   21.56    1.94
   6  -1  -3   36.04    2.53
  -6   1   3   38.21    2.62
   5  -1  -3   10.64    0.97
  -5   1   3    7.76    1.03
   4  -1  -3   13.89    1.25
  -4   1   3   18.43    0.84
  -4   1   3   16.84    1.33
   3  -1  -3   23.56    1.75
  -3   1   3   28.14    1.81
  -3   1   3   28.39    1.25
   2  -1  -3  156.43    8.75
  -2   1   3  142.43    8.72
  -2   1   3  142.36    6.54
   1  -1  -3   37.19    2.56
  -1   1   3   43.02    2.57
  -1   1   3   44.64    1.90
   0   1   3   17.43    1.18
   0   1   3   18.88    0.88
   0   1   3   17.85    1.20
   1   1   3  108.66    4.78
   1   1   3  102.99    6.33
   1   1   3  106.85    6.32
   2   1   3   31.70    1.53
   2   1   3   32.48    2.02
   3   1   3   81.70    3.78
   3   1   3   83.72    5.02
   4   1   3   41.53    2.66
   5   1   3   12.58    1.06
   6   1   3    4.15    0.66
   7   1   3   30.81    2.21
  -8  -1  -3   30.75    2.30
   8   1   3   33.55    2.37
  -9  -1  -3    1.80    0.75
   9   1   3    4.00    0.86
 -10  -1  -3   -0.13    0.72
  10   1   3    0.51    0.77
  -9   2   3   10.81    1.52
   8  -2  -3    3.04    0.80
  -8   2   3    5.48    1.08
   7  -2  -3    3.34    0.70
  -7   2   3    1.87    0.78
   6  -2  -3   29.89    1.98
  -6   2   3   23.78    2.03
   5  -2  -3   97.01    5.68
  -5   2   3   87.72    5.71
  -4   2   3   38.28    1.81
  -4   2   3   38.46    2.55
   3  -2  -3   14.55    1.15
  -3   2   3   17.49    1.28
  -3   2   3   17.44    0.85
   2  -2  -3   97.23    5.62
  -2   2   3   93.07    4.24
  -2   2   3   92.07    5.66
   1  -2  -3   35.74    2.29
  -1   2   3   38.79    1.75
  -1   2   3   38.95    2.36
   0   2   3  141.04    8.62
   0   2   3  151.24    6.52
   0   2   3  144.74    8.63
   1   2   3   85.79    4.99
   1   2   3   80.98    4.94
   1   2   3   81.66    3.74
   2   2   3   50.99    2.41
   2   2   3   53.26    3.19
   3   2   3   71.55    3.26
   3   2   3   70.22    4.31
   4   2   3   34.93    1.72
   4   2   3   35.18    2.27
   5   2   3   37.04    2.43
   5   2   3   36.51    1.82
   6   2   3   36.64    2.49
   7   2   3   17.74    1.48
   8   2   3    8.76    1.07
  -9  -2  -3    9.03    1.16
   9   2   3    8.99    1.16
 -10  -2  -3   15.55    1.62
  10   2   3   16.51    1.65
  -8   3   3   17.93    1.89
  -7   3   3    5.23    1.04
   6  -3  -3    6.78    0.81
  -6   3   3    4.82    0.91
   5  -3  -3    4.04    0.57
  -5   3   3    2.76    0.69
  -5   3   3    3.06    0.41
   4  -3  -3   66.22    4.02
  -4   3   3   66.00    4.13
  -4   3   3   64.35    3.04
   3  -3  -3   48.73    3.04
  -3   3   3   49.48    2.33
  -3   3   3   51.32    3.17
   2  -3  -3   37.78    2.28
  -2   3   3   36.67    2.40
  -2   3   3   37.79    1.78
  -1   3   3   49.11    2.30
  -1   3   3   50.27    3.09
   0   3   3   36.25    2.22
   0   3   3   35.72    1.64
   0   3   3   32.41    2.09
   1   3   3  189.48   11.47
   1   3   3  192.47    8.71
   1   3   3  202.57   11.55
   2   3   3   14.14    0.98
   2   3   3   15.19    0.80
   3   3   3   40.34    1.88
   3   3   3   38.15    2.46
   4   3   3   56.72    3.54
   4   3   3   56.82    2.67
   5   3   3   29.70    1.55
   5   3   3   30.38    2.06
   6   3   3   40.45    2.02
   6   3   3   40.87    2.73
   7   3   3    2.45    0.64
   8   3   3    3.01    0.73
   9   3   3   11.67    1.33
 -10  -3  -3    9.49    1.32
  10   3   3   10.56    1.32
  -8   4   3    6.92    1.28
  -7   4   3    6.71    1.15
  -6   4   3    0.95    0.71
  -5   4   3   10.15    1.21
  -5   4   3    9.25    0.78
   4  -4  -3   31.13    1.87
  -4   4   3   27.28    2.07
  -4   4   3   27.73    1.50
   3  -4  -3   56.33    3.47
  -3   4   3   58.45    3.65
  -3   4   3   58.52    2.72
  -2   4   3   17.86    0.95
  -2   4   3   16.21    1.31
  -1   4   3   32.69    2.17
  -1   4   3   33.13    1.61
   0   4   3   14.68    1.15
   0   4   3   15.04    0.83
   1   4   3  302.30   17.53
   1   4   3  294.11   13.31
   2   4   3   25.52    1.30
   2   4   3   26.04    1.64
   3   4   3   13.95    0.79
   3   4   3   12.82    0.98
   4   4   3    2.90    0.36
   4   4   3    3.02    0.49
   5   4   3   39.29    1.91
   5   4   3   37.17    2.54
   6   4   3   56.48    3.64
   6   4   3   55.90    2.71
   7   4   3    5.85    0.88
   7   4   3    6.68    0.62
   8   4   3    2.61    0.74
   9   4   3    0.14    0.66
 -10  -4  -3    4.96    1.01
  10   4   3    4.95    1.02
  -8   5   3    0.58    0.93
  -7   5   3   10.15    1.36
  -6   5   3    2.57    0.85
  -5   5   3    6.69    0.97
  -5   5   3    7.06    0.67
  -4   5   3    8.05    1.05
  -4   5   3    7.01    0.70
  -3   5   3   36.10    2.44
  -3   5   3   35.37    1.81
  -2   5   3   49.25    2.36
  -2   5   3   48.51    3.15
  -1   5   3    6.45    0.82
  -1   5   3    6.77    0.60
   0   5   3   39.99    2.66
   0   5   3   41.10    1.98
   1   5   3   78.83    4.86
   1   5   3   85.06    3.78
   2   5   3   22.85    1.26
   2   5   3   24.75    1.56
   3   5   3   53.89    2.56
   3   5   3   53.58    3.34
   4   5   3   32.39    1.69
   4   5   3   34.29    2.22
   5   5   3   18.21    1.08
   5   5   3   18.07    1.43
   6   5   3    8.56    1.00
   6   5   3    8.70    0.77
   7   5   3    3.89    0.80
   7   5   3    4.95    0.55
   8   5   3   14.62    1.45
   9   5   3    2.29    0.83
  10   5   3    2.25    0.90
  -7   6   3    1.48    0.95
  -6   6   3    2.70    0.91
  -6   6   3    2.97    0.60
  -5   6   3   27.78    2.11
  -5   6   3   23.24    1.46
  -4   6   3    0.31    0.57
  -4   6   3    0.15    0.40
  -3   6   3    6.78    0.90
  -3   6   3    6.43    0.63
  -2   6   3   12.27    0.90
  -2   6   3   13.54    1.23
  -1   6   3   70.28    4.45
  -1   6   3   71.42    3.35
   0   6   3   46.74    3.09
   0   6   3   46.86    2.30
   1   6   3    2.41    0.38
   1   6   3    2.61    0.34
   2   6   3   21.41    1.20
   2   6   3   21.66    1.44
   3   6   3   25.10    1.71
   3   6   3   25.11    1.36
   4   6   3   28.80    1.98
   4   6   3   28.50    1.53
   5   6   3    7.76    0.74
   5   6   3    7.45    0.93
   6   6   3    2.94    0.69
   6   6   3    2.82    0.47
   7   6   3    5.88    0.62
   7   6   3    4.93    0.90
   8   6   3   11.91    1.35
   9   6   3    1.83    0.85
  -7   7   3    0.29    0.90
  -6   7   3    0.22    0.55
  -6   7   3    0.08    0.83
  -5   7   3   10.41    0.97
  -5   7   3   11.09    1.43
  -4   7   3   13.65    1.41
  -4   7   3   12.35    1.00
  -3   7   3    2.83    0.72
  -3   7   3    2.70    0.54
  -2   7   3    0.26    0.53
  -2   7   3    0.05    0.41
  -1   7   3   38.86    2.05
  -1   7   3   40.52    2.75
   0   7   3   41.17    2.11
   1   7   3   34.00    1.79
   2   7   3    2.93    0.46
   2   7   3    2.98    0.44
   3   7   3    1.28    0.41
   3   7   3    1.16    0.42
   4   7   3   18.78    1.48
   4   7   3   19.56    1.19
   5   7   3   28.45    1.59
   6   7   3   -0.17    0.37
   6   7   3   -0.21    0.53
   7   7   3    0.78    0.69
   7   7   3    1.53    0.49
   8   7   3    1.71    0.82
   9   7   3    5.15    1.09
  -6   8   3    0.16    0.62
  -5   8   3    1.69    0.85
  -5   8   3    1.25    0.60
  -4   8   3    6.02    1.02
  -4   8   3    6.37    0.77
  -3   8   3    2.36    0.60
  -3   8   3    3.15    0.79
  -2   8   3    2.48    0.56
  -2   8   3    3.80    0.80
  -1   8   3    3.11    0.56
   0   8   3    6.73    0.71
   1   8   3   13.41    1.03
   2   8   3   15.51    1.11
   3   8   3   10.49    0.94
   4   8   3    8.47    0.87
   4   8   3    8.93    0.98
   5   8   3    2.97    0.73
   5   8   3    3.60    0.57
   6   8   3    6.47    0.71
   6   8   3    6.31    0.97
   7   8   3    2.95    0.87
   7   8   3    3.12    0.62
   8   8   3    0.40    0.83
  -5   9   3    0.69    0.65
  -4   9   3    2.61    0.90
  -4   9   3    1.84    0.67
  -3   9   3    3.12    0.67
  -3   9   3    2.85    0.88
  -2   9   3    5.66    0.75
  -1   9   3    3.38    0.64
   0   9   3    4.70    0.69
   1   9   3    5.60    0.72
   2   9   3    2.74    0.58
   3   9   3    9.84    1.00
   4   9   3    0.65    0.48
   5   9   3    5.59    0.73
   6   9   3    6.29    0.79
   6   9   3    6.06    1.02
   7   9   3    3.19    0.92
  -4  10   3    0.53    0.70
  -3  10   3    0.97    0.66
  -2  10   3    1.74    0.69
  -1  10   3    3.99    0.76
   0  10   3    1.13    0.61
   1  10   3    1.29    0.61
   2  10   3    3.12    0.66
   3  10   3    7.55    0.86
   4  10   3    1.23    0.59
   5  10   3    0.01    0.56
   6  10   3    3.77    0.74
  -3  11   3    0.87    0.75
  -2  11   3    0.56    0.73
  -1  11   3    1.99    0.76
   0  11   3    2.47    0.75
   1  11   3    0.97    0.66
   2  11   3    0.37    0.62
   3  11   3    2.46    0.73
   4  11   3    4.66    0.83
   5  11   3    1.07    0.71
   0  12   3    1.83    0.80
   1  12   3    0.03    0.70
   2  12   3    0.59    0.73
   3   9  -4   -0.28    1.00
   2   9  -4    1.42    1.00
   1   9  -4    2.49    1.05
   0   9  -4    2.69    0.67
   0   9  -4    1.85    1.00
  -1   9  -4    3.22    0.75
  -2   9  -4    1.91    0.75
  -3   9  -4    0.30    0.77
  -4   9  -4    1.17    0.88
   5   8  -4    1.33    1.11
   3   8  -4    3.91    1.16
   2   8  -4    5.84    1.16
   1   8  -4    2.42    0.98
   0   8  -4    1.52    0.89
   0   8  -4    1.97    0.59
  -1   8  -4    9.77    1.35
  -1   8  -4   11.00    1.09
  -2   8  -4    1.08    0.69
  -2   8  -4    2.55    0.88
  -3   8  -4    4.51    0.90
  -4   8  -4    3.75    0.92
  -5   8  -4    1.25    0.86
  -6   8  -4    2.75    0.98
   6   7  -4    1.35    1.09
  -6  -7   4    2.61    0.83
   5   7  -4    2.03    1.07
  -5  -7   4    3.19    0.79
   4   7  -4    0.65    0.93
   3   7  -4   14.19    1.60
   2   7  -4    5.20    1.09
   1   7  -4    7.59    1.19
   1   7  -4    9.17    0.90
   0   7  -4    2.37    0.84
   0   7  -4    1.91    0.53
  -1   7  -4    4.26    0.68
  -1   7  -4    3.91    0.92
  -2   7  -4   12.80    1.21
  -2   7  -4   10.17    1.30
  -3   7  -4    6.51    0.87
  -3   7  -4    5.41    0.99
  -4   7  -4    2.22    0.84
  -4   7  -4    0.59    0.73
  -5   7  -4    2.17    0.83
  -6   7  -4    9.24    1.21
  -7   7  -4    3.33    0.99
   6   6  -4    5.19    1.23
  -6  -6   4    5.50    0.96
   5   6  -4   10.55    1.53
  -5  -6   4   15.46    1.38
   4   6  -4    3.89    1.05
  -4  -6   4    4.13    0.76
   3   6  -4    9.05    1.24
  -3  -6   4    7.70    1.01
   2   6  -4    4.27    0.96
   1   6  -4   11.85    1.39
   1   6  -4   14.03    0.97
   0   6  -4   13.23    1.02
   0   6  -4    9.92    1.28
  -1   6  -4    3.51    0.59
  -1   6  -4    4.44    0.86
  -2   6  -4    4.67    0.86
  -2   6  -4    4.18    0.66
  -3   6  -4    6.03    0.79
  -3   6  -4    5.21    0.92
  -4   6  -4   12.87    1.22
   4  -6   4   14.03    1.30
  -5   6  -4    0.65    0.69
   5  -6   4    1.43    0.59
  -6   6  -4    1.87    0.78
   6  -6   4    1.69    0.70
  -7   6  -4    0.22    0.81
  -8   6  -4    6.17    1.17
   7   5  -4   -0.21    0.92
  -7  -5   4    1.49    0.79
   6   5  -4    6.10    1.18
  -6  -5   4    4.76    0.91
   5   5  -4   15.60    1.65
  -5  -5   4   16.39    1.49
   4   5  -4   15.65    1.68
  -4  -5   4   18.22    1.47
   3   5  -4    9.04    1.19
  -3  -5   4    7.88    0.97
   2   5  -4    6.34    1.03
  -2  -5   4    6.47    0.81
   1   5  -4   37.63    2.69
   1   5  -4   39.29    1.89
  -1  -5   4   35.90    2.39
   0   5  -4   22.05    1.84
   0   5  -4   24.70    1.37
  -1   5  -4    8.61    0.88
  -1   5  -4    8.70    1.07
  -2   5  -4   19.85    1.67
  -2   5  -4   22.37    1.38
  -3   5  -4    7.76    0.83
   3  -5   4    9.73    0.98
  -4   5  -4   22.72    1.52
   4  -5   4   23.40    1.78
  -5   5  -4    6.31    0.90
   5  -5   4    8.35    1.05
  -6   5  -4    3.30    0.81
   6  -5   4    1.80    0.69
  -7   5  -4    2.77    0.82
   7  -5   4    1.17    0.69
  -8   5  -4    1.76    0.89
   8  -5   4    2.24    0.82
   7   4  -4    7.55    1.28
  -7  -4   4    8.32    1.15
   6   4  -4    0.00    0.77
  -6  -4   4    1.65    0.67
   5   4  -4   11.82    1.35
  -5  -4   4   10.34    1.17
   4   4  -4   15.48    1.59
  -4  -4   4   17.63    1.44
   3   4  -4   27.50    2.21
  -3  -4   4   30.26    2.02
  -2  -4   4   23.01    1.62
   1   4  -4   25.11    1.24
   1   4  -4   24.49    1.82
  -1  -4   4   19.94    1.53
   0   4  -4   38.72    1.90
   0   4  -4   38.17    2.63
   0  -4   4   36.84    2.32
  -1   4  -4   38.09    1.96
  -1   4  -4   37.58    2.61
  -2   4  -4   34.15    2.00
   2  -4   4   42.12    2.58
  -3   4  -4    1.88    0.53
   3  -4   4    2.38    0.53
  -4   4  -4   57.71    2.69
   4  -4   4   46.58    3.36
  -5   4  -4   21.57    1.49
   5  -4   4   22.24    1.73
  -6   4  -4   11.34    1.10
   6  -4   4   13.01    1.33
  -7   4  -4    3.16    0.83
   7  -4   4    3.80    0.82
  -8   4  -4    0.65    0.77
   8  -4   4    1.73    0.75
  -9   4  -4    9.36    1.25
   9  -4   4    8.83    1.31
   8   3  -4    2.04    0.93
  -8  -3   4    2.18    0.89
   7   3  -4    7.12    1.20
  -7  -3   4    7.68    1.09
   6   3  -4    7.63    1.18
  -6  -3   4    9.66    1.15
   5   3  -4   15.20    1.47
  -5  -3   4   15.85    1.39
   4   3  -4   28.70    2.10
  -4  -3   4   24.87    1.89
   3   3  -4    9.25    0.99
  -3  -3   4    5.46    0.71
   2   3  -4   50.61    3.37
  -2  -3   4   50.42    3.15
   1   3  -4   16.97    0.96
   1   3  -4   15.55    1.46
  -1  -3   4   19.66    1.25
   0   3  -4   18.28    1.47
   0   3  -4   19.94    1.04
   0  -3   4   17.12    1.19
  -1   3  -4   34.75    2.44
  -1   3  -4   36.96    1.81
  -2   3  -4   31.89    1.69
   2  -3   4   34.20    2.22
  -3   3  -4   40.79    2.25
   3  -3   4   49.30    2.97
  -4   3  -4    7.40    0.68
   4  -3   4    4.25    0.69
  -5   3  -4    2.70    0.55
   5  -3   4    1.00    0.49
  -6   3  -4   15.93    1.23
   6  -3   4   15.36    1.45
  -7   3  -4   20.14    1.53
   7  -3   4   24.15    1.87
  -8   3  -4    0.84    0.68
   8  -3   4    1.40    0.72
  -9   3  -4    9.14    1.13
   9  -3   4    6.61    1.15
   8   2  -4    2.14    0.86
  -8  -2   4    1.35    0.83
   7   2  -4   16.00    1.61
  -7  -2   4   15.89    1.58
   6   2  -4    9.67    1.26
  -6  -2   4   11.93    1.25
   5   2  -4    5.32    0.90
  -5  -2   4    6.32    0.85
   4   2  -4    9.67    1.09
  -4  -2   4    8.55    0.96
   3   2  -4   60.62    3.98
  -3  -2   4   62.86    3.86
   2   2  -4  143.28    8.69
  -2  -2   4  142.18    8.50
   1   2  -4   34.69    1.75
   1   2  -4   36.74    2.52
  -1  -2   4   40.85    2.35
   0   2  -4    7.55    0.55
   0   2  -4    7.97    0.82
  -1   2  -4   76.57    3.48
   1  -2   4   74.24    4.66
  -2   2  -4   22.02    1.08
   2  -2   4   16.15    1.37
  -3   2  -4   96.65    4.56
   3  -2   4  100.59    6.04
  -4   2  -4   19.47    1.21
   4  -2   4   20.63    1.52
  -5   2  -4    2.25    0.49
   5  -2   4    2.00    0.55
  -6   2  -4    5.98    0.68
   6  -2   4    3.57    0.71
  -7   2  -4   26.05    1.61
   7  -2   4   22.51    1.90
  -8   2  -4    8.41    0.94
   8  -2   4    7.43    1.08
  -9   2  -4    1.28    0.75
   9  -2   4    0.55    0.73
 -10   2  -4    1.99    0.86
  10  -2   4    0.63    0.86
   8   1  -4    0.74    0.73
  -8  -1   4    1.69    0.85
   7   1  -4    2.23    0.76
  -7  -1   4    1.72    0.76
   6   1  -4   20.35    1.72
  -6  -1   4   20.55    1.73
   5   1  -4   23.88    1.89
  -5  -1   4   25.53    1.87
   4   1  -4    9.52    1.03
   3   1  -4    0.81    0.45
  -3  -1   4    0.12    0.35
   2   1  -4   56.41    3.47
  -2  -1   4   51.91    3.34
   1   1  -4   85.23    5.25
  -1  -1   4   84.56    5.09
   0   1  -4  133.59    8.62
   0  -1   4  151.86    8.44
   1  -1   4  148.79    9.17
   1  -1   4  157.27    9.01
   2  -1   4   21.09    1.48
   3  -1   4   81.63    5.00
   4  -1   4   26.50    1.86
   5  -1   4   22.31    1.66
  -6   1  -4    2.29    0.52
   6  -1   4    3.69    0.66
   7  -1   4   14.94    1.40
  -8   1  -4    5.87    0.76
   8  -1   4    6.02    0.97
  -9   1  -4    4.82    0.85
   9  -1   4    3.87    0.93
 -10   1  -4    0.32    0.72
  10  -1   4    0.11    0.75
   8   0  -4   10.57    1.38
  -8   0   4   11.95    1.44
   7   0  -4    3.55    0.79
  -7   0   4    2.34    0.81
   6   0  -4   19.39    1.51
  -6   0   4   13.98    1.48
   5   0  -4   11.13    1.14
  -5   0   4   12.80    1.22
   4   0  -4   35.60    2.29
  -4   0   4   31.25    2.28
   3   0  -4   25.51    1.80
  -3   0   4   25.79    1.77
   2   0  -4    9.86    0.94
  -2   0   4   12.36    0.93
   1   0  -4   52.79    3.04
  -1   0   4   42.92    2.92
   0   0  -4   61.79    3.48
   0   0   4   49.07    3.31
   1   0   4  126.85    7.56
   1   0   4  124.59    7.44
   2   0   4   98.28    5.94
   3   0   4    5.79    0.65
   4   0   4   29.38    1.98
   5   0   4   51.70    3.34
   6   0   4   16.43    1.39
  -7   0  -4   11.71    1.07
   7   0   4    8.55    1.11
  -8   0  -4   11.01    1.18
   8   0   4    9.83    1.20
  -9   0  -4   14.69    1.25
   9   0   4   14.41    1.53
 -10   0  -4    2.44    0.74
  10   0   4    3.26    0.93
   8  -1  -4   12.32    1.44
  -8   1   4   13.87    1.57
   7  -1  -4    6.96    1.04
  -7   1   4   10.13    1.26
   6  -1  -4    4.52    0.77
  -6   1   4    3.23    0.77
   5  -1  -4    9.25    0.98
  -5   1   4    9.01    1.06
   4  -1  -4   80.68    4.79
  -4   1   4   73.12    4.77
   3  -1  -4   23.63    1.75
  -3   1   4   27.99    1.80
   2  -1  -4   37.05    2.28
  -2   1   4   34.63    1.61
  -2   1   4   33.87    2.27
   1  -1  -4   91.37    5.18
  -1   1   4   83.74    3.82
  -1   1   4   80.40    5.11
   0  -1  -4   30.37    1.97
   0   1   4   29.95    1.91
   0   1   4   30.76    1.42
   0   1   4   28.82    1.94
   1   1   4   98.68    5.84
   1   1   4   95.46    4.38
   1   1   4   96.18    5.79
   2   1   4   80.21    3.54
   2   1   4   74.14    4.68
   3   1   4   99.83    5.90
   3   1   4   94.75    4.44
   4   1   4   37.56    2.45
   5   1   4   30.40    2.10
   6   1   4   29.60    2.11
   7   1   4   28.61    2.13
   8   1   4    2.92    0.76
  -9  -1  -4   10.63    1.27
   9   1   4    9.32    1.27
 -10  -1  -4    9.75    0.94
  10   1   4    7.28    1.23
  -8   2   4    2.71    0.98
   7  -2  -4   31.08    2.25
  -7   2   4   29.03    2.36
   6  -2  -4   11.95    1.21
  -6   2   4   13.90    1.38
   5  -2  -4    0.32    0.42
  -5   2   4    2.13    0.65
   4  -2  -4   18.74    1.37
  -4   2   4   18.02    1.47
   3  -2  -4   18.45    1.19
  -3   2   4   14.63    1.28
  -3   2   4   14.97    0.83
   2  -2  -4   26.53    1.84
  -2   2   4   30.45    1.94
  -2   2   4   29.57    1.37
   1  -2  -4   38.56    2.37
  -1   2   4   36.74    1.76
  -1   2   4   38.53    2.42
   0  -2  -4   59.31    3.52
   0   2   4   54.15    3.49
   0   2   4   56.48    3.51
   0   2   4   58.73    2.62
   1   2   4  138.61    6.27
   1   2   4  137.94    8.32
   1   2   4  142.24    8.32
   2   2   4   19.86    1.36
   2   2   4   20.95    1.06
   3   2   4   36.27    1.75
   3   2   4   35.33    2.29
   4   2   4   27.84    1.82
   4   2   4   25.11    1.37
   5   2   4   20.98    1.55
   5   2   4   20.36    1.19
   6   2   4   30.99    2.19
   7   2   4    7.35    0.98
   8   2   4   11.93    1.28
   9   2   4    0.18    0.66
 -10  -2  -4    0.78    0.79
  10   2   4    1.63    0.82
  -8   3   4    2.46    1.02
  -7   3   4   12.01    1.50
  -6   3   4   14.89    1.54
   5  -3  -4    8.14    0.86
  -5   3   4    7.19    0.98
   4  -3  -4    9.10    0.92
  -4   3   4   12.63    0.72
  -4   3   4   11.97    1.15
   3  -3  -4    7.61    0.68
  -3   3   4    6.59    0.54
  -3   3   4    7.55    0.88
   2  -3  -4   91.99    5.36
  -2   3   4   88.06    5.47
  -2   3   4   88.61    4.08
   1  -3  -4    2.05    0.29
  -1   3   4    3.35    0.30
  -1   3   4    2.93    0.45
   0   3   4   23.08    1.16
   0   3   4   23.51    1.62
   1   3   4    2.37    0.28
   1   3   4    2.57    0.45
   1   3   4    2.65    0.32
   2   3   4  271.54   15.90
   2   3   4  267.08   12.04
   3   3   4   99.36    4.52
   3   3   4   98.11    5.96
   4   3   4   17.17    1.29
   4   3   4   18.01    1.02
   5   3   4   14.24    0.95
   5   3   4   14.65    1.19
   6   3   4   16.79    1.37
   6   3   4   17.45    1.09
   7   3   4   34.38    2.43
   8   3   4   12.13    1.27
   9   3   4    1.70    0.74
 -10  -3  -4   -0.23    0.70
  10   3   4    0.60    0.78
  -8   4   4    1.16    1.01
  -7   4   4    2.95    0.99
  -6   4   4   24.14    2.06
  -5   4   4   25.42    2.05
  -4   4   4    6.63    0.63
  -4   4   4    6.00    0.86
   3  -4  -4    3.99    0.43
  -3   4   4    3.25    0.41
  -3   4   4    3.74    0.65
   2  -4  -4   40.84    2.41
  -2   4   4   38.32    1.92
  -2   4   4   40.06    2.64
  -1   4   4   33.68    2.25
  -1   4   4   33.25    1.65
   0   4   4   12.88    1.09
   0   4   4   13.06    0.76
   1   4   4   30.63    1.94
   1   4   4   31.25    1.54
   1   4   4   31.98    2.13
   2   4   4    2.64    0.35
   2   4   4    2.82    0.34
   3   4   4   58.28    3.63
   3   4   4   59.92    2.78
   4   4   4   37.22    2.46
   4   4   4   38.99    1.89
   5   4   4   62.78    3.00
   5   4   4   63.04    3.97
   6   4   4   24.77    1.38
   6   4   4   23.82    1.81
   7   4   4    3.49    0.52
   7   4   4    3.29    0.71
   8   4   4    7.31    1.03
   9   4   4    7.74    1.12
  10   4   4    7.29    1.19
  -8   5   4    8.94    1.48
  -7   5   4    0.40    0.86
  -6   5   4    7.48    1.19
  -5   5   4    2.59    0.82
  -5   5   4    1.50    0.44
  -4   5   4   56.57    2.79
  -4   5   4   59.26    3.82
  -3   5   4    6.68    0.59
  -3   5   4    5.64    0.82
  -2   5   4    8.38    0.68
  -2   5   4    7.27    0.98
  -1   5   4   15.66    1.31
  -1   5   4   16.33    0.96
   0   5   4   27.65    1.46
   0   5   4   29.25    2.02
   1   5   4   31.68    2.01
   1   5   4   34.20    1.65
   2   5   4    4.18    0.47
   2   5   4    4.57    0.44
   3   5   4   21.04    1.15
   3   5   4   20.70    1.43
   4   5   4   22.68    1.25
   4   5   4   22.10    1.57
   5   5   4    0.84    0.43
   5   5   4    0.75    0.35
   6   5   4   33.70    1.73
   6   5   4   30.31    2.25
   7   5   4    5.05    0.59
   7   5   4    4.40    0.81
   8   5   4    2.09    0.75
   9   5   4    5.02    0.98
  10   5   4    3.00    0.93
  -7   6   4    3.19    1.12
  -6   6   4    1.61    0.92
  -5   6   4    2.71    0.87
  -5   6   4    1.59    0.50
  -4   6   4   23.31    1.36
  -4   6   4   21.93    1.88
  -3   6   4   36.62    2.57
  -3   6   4   35.14    1.86
  -2   6   4    8.15    1.07
  -2   6   4    8.61    0.76
  -1   6   4    1.55    0.57
  -1   6   4    1.99    0.40
   0   6   4   21.70    1.74
   0   6   4   21.99    1.24
   1   6   4   70.82    3.34
   2   6   4   18.61    1.06
   2   6   4   16.99    1.19
   3   6   4    3.98    0.46
   3   6   4    4.55    0.57
   4   6   4    5.34    0.69
   4   6   4    4.71    0.53
   5   6   4   27.13    1.52
   5   6   4   28.19    1.99
   6   6   4   28.26    1.59
   7   6   4    0.48    0.42
   7   6   4    0.14    0.57
   8   6   4    5.36    0.67
   8   6   4    4.99    0.97
   9   6   4    1.46    0.82
  -7   7   4    3.25    1.12
  -6   7   4    2.44    0.99
  -5   7   4    2.80    0.63
  -5   7   4    4.58    1.05
  -4   7   4    5.35    1.00
  -4   7   4    4.77    0.65
  -3   7   4   11.26    0.94
  -3   7   4   12.71    1.38
  -2   7   4   20.40    1.26
  -2   7   4   20.17    1.72
  -1   7   4    5.49    0.61
  -1   7   4    4.86    0.83
   0   7   4   24.70    1.42
   1   7   4   20.02    1.21
   2   7   4    3.65    0.50
   3   7   4   12.67    1.02
   3   7   4   12.77    0.92
   4   7   4    7.69    0.79
   4   7   4    8.20    0.86
   5   7   4   10.18    1.05
   5   7   4    9.79    0.88
   6   7   4   16.24    1.12
   6   7   4   14.85    1.42
   7   7   4    2.44    0.75
   7   7   4    2.69    0.55
   8   7   4    5.39    1.00
   8   7   4    6.85    0.77
   9   7   4    0.20    0.78
  -6   8   4    3.65    1.16
  -5   8   4    5.30    1.12
  -5   8   4    4.52    0.75
  -4   8   4    0.06    0.76
  -4   8   4    0.22    0.53
  -3   8   4    4.27    0.92
  -3   8   4    4.07    0.67
  -2   8   4    3.97    0.64
  -2   8   4    4.77    0.91
  -1   8   4   18.78    1.27
  -1   8   4   20.27    1.79
   0   8   4    4.16    0.62
   1   8   4    3.15    0.53
   2   8   4    5.42    0.62
   3   8   4    3.29    0.53
   4   8   4    8.56    0.91
   4   8   4    7.26    0.74
   5   8   4    2.53    0.53
   5   8   4    2.79    0.63
   6   8   4    1.69    0.67
   6   8   4    2.48    0.54
   7   8   4    5.34    0.98
   7   8   4    5.66    0.74
   8   8   4    6.19    1.09
  -5   9   4    7.46    1.30
  -5   9   4    7.19    0.91
  -4   9   4    5.71    1.13
  -4   9   4    5.71    0.83
  -3   9   4    1.60    0.61
  -3   9   4    0.48    0.78
  -2   9   4    0.86    0.57
  -2   9   4    0.53    0.78
  -1   9   4   10.48    1.01
   0   9   4   16.95    1.26
   1   9   4    1.38    0.52
   2   9   4   -0.39    0.44
   3   9   4    3.67    0.61
   4   9   4    8.43    0.83
   5   9   4    3.59    0.64
   6   9   4    0.19    0.52
   7   9   4    2.05    0.82
   7   9   4    0.76    0.62
  -4  10   4    0.76    0.71
  -3  10   4    2.29    0.73
  -2  10   4    2.62    0.74
  -1  10   4    2.66    0.71
   0  10   4    0.29    0.61
   1  10   4    7.76    0.86
   2  10   4    1.05    0.59
   3  10   4   -0.09    0.54
   4  10   4    2.82    0.66
   5  10   4    3.47    0.71
   6  10   4    2.17    0.67
  -2  11   4    0.05    0.70
  -1  11   4    0.31    0.70
   0  11   4    1.04    0.71
   1  11   4    2.24    0.70
   2  11   4    1.76    0.68
   3  11   4    0.50    0.63
   4  11   4   -0.10    0.60
   5  11   4    0.67    0.67
   0  12   4    0.31    0.74
   1  12   4    0.43    0.72
   2  12   4    0.34    0.71
   1   9  -5    1.66    1.09
   0   9  -5    1.02    1.02
  -1   9  -5    1.53    1.02
  -1   9  -5    1.42    0.70
  -2   9  -5    1.66    0.76
  -3   9  -5   -0.42    0.78
   3   8  -5    1.12    1.04
   2   8  -5    5.06    1.25
   1   8  -5    4.77    1.22
   0   8  -5    2.41    1.02
  -1   8  -5    3.24    0.72
  -1   8  -5    2.66    1.03
  -2   8  -5    2.56    0.80
  -2   8  -5    1.45    0.93
  -3   8  -5    0.59    0.80
  -3   8  -5    1.01    0.87
  -4   8  -5    3.05    0.95
  -5   8  -5   -0.77    0.83
   5   7  -5    1.80    1.12
   4   7  -5    6.16    1.33
   3   7  -5    1.10    0.94
   2   7  -5    3.31    1.06
   1   7  -5    6.64    1.24
   0   7  -5    6.23    1.14
   0   7  -5    6.14    0.72
  -1   7  -5    7.52    0.85
  -1   7  -5    6.94    1.16
  -2   7  -5    1.71    0.69
  -2   7  -5    2.33    0.88
  -3   7  -5    1.99    0.74
  -3   7  -5    2.08    0.89
  -4   7  -5    5.50    0.96
  -4   7  -5    4.64    1.07
  -5   7  -5    2.73    0.98
  -5   7  -5    2.13    0.86
   5  -7   5    3.07    0.80
  -6   7  -5    0.44    0.87
   6   6  -5    0.76    1.07
  -6  -6   5    0.27    0.72
   5   6  -5    1.08    1.01
  -5  -6   5    1.18    0.68
   4   6  -5   12.53    1.66
   3   6  -5    3.97    1.06
   2   6  -5    4.76    1.08
   1   6  -5    9.84    1.34
   0   6  -5    6.11    1.08
   0   6  -5    6.17    0.67
  -1   6  -5    9.69    1.30
  -1   6  -5   12.66    1.08
  -2   6  -5    6.84    0.81
  -2   6  -5    7.32    1.12
  -3   6  -5    4.16    0.79
  -3   6  -5    4.22    0.93
  -4   6  -5    8.69    1.03
   4  -6   5   10.58    1.16
  -5   6  -5    2.02    0.78
   5  -6   5    1.10    0.65
  -6   6  -5    8.91    1.17
   6  -6   5    8.33    1.16
  -7   6  -5    0.50    0.86
   7  -6   5    0.28    0.71
   6   5  -5    5.32    1.27
  -6  -5   5    6.71    1.04
   5   5  -5    1.56    0.93
  -5  -5   5    3.05    0.75
   4   5  -5    6.31    1.21
  -4  -5   5    5.48    0.84
   3   5  -5   18.24    1.83
  -3  -5   5   20.09    1.55
   2   5  -5    5.69    1.07
   1   5  -5    0.89    0.72
   0   5  -5   12.22    1.34
   0   5  -5   12.03    0.99
  -1   5  -5   26.03    2.11
  -1   5  -5   27.62    1.60
  -2   5  -5   16.00    1.19
  -2   5  -5   13.03    1.40
  -3   5  -5    3.61    0.68
   3  -5   5    6.13    0.83
  -4   5  -5    2.84    0.71
   4  -5   5    4.83    0.78
  -5   5  -5    8.46    0.98
   5  -5   5    6.73    1.01
  -6   5  -5   12.26    1.22
   6  -5   5   12.10    1.38
  -7   5  -5    2.17    0.87
   7  -5   5    3.50    0.88
  -8   5  -5    0.98    0.90
   8  -5   5    0.71    0.78
   7   4  -5    6.19    1.27
  -7  -4   5    3.49    0.96
   6   4  -5    5.90    1.24
  -6  -4   5    6.60    1.03
   5   4  -5    8.87    1.32
  -5  -4   5    9.73    1.16
   4   4  -5    5.10    1.09
  -4  -4   5    6.72    0.86
   3   4  -5   16.89    1.59
  -3  -4   5   14.13    1.28
   2   4  -5   12.88    1.41
  -2  -4   5   13.21    1.11
   1   4  -5   32.90    1.63
   1   4  -5   29.06    2.36
  -1  -4   5   32.08    2.05
   0   4  -5    6.69    0.59
   0   4  -5    5.70    0.95
  -1   4  -5   11.90    1.26
  -1   4  -5   13.41    1.01
  -2   4  -5   29.63    1.59
  -2   4  -5   25.62    2.03
   2  -4   5   24.83    1.93
  -3   4  -5   31.23    1.80
   3  -4   5   30.96    2.21
  -4   4  -5   15.46    1.29
   4  -4   5   20.26    1.55
  -5   4  -5    2.25    0.65
   5  -4   5    1.84    0.64
  -6   4  -5    2.30    0.71
   6  -4   5    1.62    0.70
  -7   4  -5    0.70    0.72
   7  -4   5    0.28    0.65
  -8   4  -5   10.54    1.22
   8  -4   5    9.51    1.31
  -9   4  -5   -0.17    0.85
   9  -4   5    1.51    0.87
   7   3  -5    0.60    0.91
  -7  -3   5    0.78    0.77
   6   3  -5   10.94    1.48
  -6  -3   5   12.50    1.36
   5   3  -5   14.83    1.59
  -5  -3   5   16.59    1.49
   4   3  -5   11.12    1.38
  -4  -3   5   12.75    1.20
   3   3  -5    9.69    1.13
  -3  -3   5    5.57    0.76
   2   3  -5    4.21    0.89
  -2  -3   5    7.47    0.79
   1   3  -5   67.05    4.48
   1   3  -5   67.14    3.18
  -1  -3   5   71.60    4.19
   0   3  -5   32.74    1.75
   0   3  -5   31.50    2.46
   0  -3   5   39.16    2.19
  -1   3  -5    5.70    0.87
  -1   3  -5    7.34    0.71
  -2   3  -5   45.57    2.23
   2  -3   5   43.17    2.94
  -3   3  -5    3.01    0.51
   3  -3   5    1.30    0.49
  -4   3  -5   75.61    3.68
   4  -3   5   76.74    4.84
  -5   3  -5   13.60    1.15
   5  -3   5   14.87    1.34
  -6   3  -5    8.09    0.88
   6  -3   5    6.85    0.98
  -7   3  -5    4.66    0.81
   7  -3   5    2.34    0.77
  -8   3  -5    3.54    0.81
   8  -3   5    3.35    0.91
  -9   3  -5    7.78    1.13
   9  -3   5    7.91    1.24
   7   2  -5    4.16    1.04
  -7  -2   5    5.45    1.01
   6   2  -5    3.32    0.90
  -6  -2   5    1.55    0.72
   5   2  -5   25.26    2.02
  -5  -2   5   24.02    1.90
   4   2  -5   22.85    1.99
  -4  -2   5   27.05    1.88
   3   2  -5   17.08    1.67
  -3  -2   5   22.72    1.55
   2   2  -5    1.33    0.63
  -2  -2   5    2.43    0.46
   1   2  -5   37.36    1.73
   1   2  -5   37.44    2.55
  -1  -2   5   34.02    2.29
   0   2  -5   42.83    2.88
   0   2  -5   42.14    2.02
   0  -2   5   42.00    2.60
  -1   2  -5   23.87    1.27
  -1   2  -5   21.59    1.77
   1  -2   5   24.31    1.50
   1  -2   5   24.31    1.73
  -2   2  -5   34.37    1.93
   2  -2   5   43.88    2.61
  -3   2  -5    8.03    0.78
   3  -2   5    8.27    0.87
  -4   2  -5   58.25    2.82
   4  -2   5   56.71    3.71
  -5   2  -5   13.09    1.04
   5  -2   5   14.23    1.28
  -6   2  -5    9.76    0.99
   6  -2   5   12.31    1.23
  -7   2  -5    7.83    0.91
   7  -2   5    9.35    1.18
  -8   2  -5    5.17    0.85
   8  -2   5    3.07    0.86
  -9   2  -5    9.72    1.08
   9  -2   5    7.23    1.22
   8   1  -5    1.51    0.84
  -8  -1   5    0.91    0.82
   7   1  -5   17.92    1.78
  -7  -1   5   19.29    1.77
   6   1  -5    7.67    1.16
  -6  -1   5   10.31    1.20
   5   1  -5   10.23    1.16
  -5  -1   5    8.38    1.11
   4   1  -5   30.37    2.29
  -4  -1   5   32.14    2.21
   3   1  -5   47.69    3.04
  -3  -1   5   41.97    2.88
   2   1  -5   76.03    5.20
  -2  -1   5   89.23    5.07
   1   1  -5    3.59    0.28
   1   1  -5    2.70    0.63
   0   1  -5   27.26    1.79
   0  -1   5   20.89    1.52
   1  -1   5   87.61    5.34
   1  -1   5   85.07    5.15
   2  -1   5   19.96    1.49
   3  -1   5   42.35    2.77
   4  -1   5   25.68    1.84
   5  -1   5    4.34    0.71
   6  -1   5   25.43    1.94
   7  -1   5   11.23    1.25
  -8   1  -5    3.36    0.70
   8  -1   5    3.31    0.83
  -9   1  -5   12.68    1.17
   9  -1   5   10.83    1.44
 -10   1  -5    0.90    0.77
  10  -1   5    2.39    0.96
   8   0  -5    7.78    1.18
  -8   0   5    5.52    1.12
   7   0  -5    8.97    1.21
  -7   0   5    8.98    1.21
   6   0  -5    9.88    1.23
  -6   0   5   11.11    1.26
   5   0  -5   11.39    1.21
  -5   0   5   10.42    1.18
   4   0  -5    2.30    0.62
  -4   0   5    4.92    0.71
   3   0  -5   41.80    2.83
  -3   0   5   42.82    2.76
   2   0  -5   74.51    4.65
  -2   0   5   73.33    4.53
   1   0  -5   31.47    2.32
  -1   0   5   37.12    2.23
   0   0  -5   25.15    1.79
   0   0   5   24.00    1.60
   1   0   5   26.95    1.85
   1   0   5   27.04    1.75
   2   0   5   74.54    4.62
   3   0   5   43.27    2.79
   4   0   5   14.78    1.23
   5   0   5   24.39    1.80
   6   0   5   28.43    2.08
   7   0   5   36.26    2.59
   8   0   5    8.70    1.15
   9   0   5    0.27    0.68
 -10   0  -5    2.82    0.78
  10   0   5    2.21    0.88
  -8   1   5   -0.11    0.83
   7  -1  -5    8.90    1.10
  -7   1   5    5.61    1.10
   6  -1  -5   23.11    1.82
  -6   1   5   21.75    1.88
   5  -1  -5   30.21    2.20
  -5   1   5   30.81    2.25
   4  -1  -5    0.49    0.44
  -4   1   5    0.40    0.49
   3  -1  -5    9.37    0.99
  -3   1   5   12.43    1.08
   2  -1  -5   37.69    2.40
  -2   1   5   34.60    2.37
   1  -1  -5   26.92    1.84
  -1   1   5   26.53    1.27
  -1   1   5   26.68    1.80
   0  -1  -5   39.54    2.99
   0   1   5   49.77    2.18
   0   1   5   50.89    2.94
   1   1   5   20.34    1.05
   1   1   5   20.88    1.44
   1   1   5   20.45    1.46
   2   1   5   15.81    1.17
   2   1   5   15.87    0.88
   3   1   5   80.28    4.94
   4   1   5   21.39    1.57
   5   1   5   11.41    1.08
   6   1   5    1.99    0.58
   7   1   5   34.99    2.49
   8   1   5   13.16    1.37
   9   1   5   10.15    1.29
  10   1   5    0.25    0.76
  -8   2   5    5.16    1.16
  -7   2   5    1.29    0.82
   6  -2  -5   16.47    1.38
  -6   2   5   13.16    1.52
   5  -2  -5   11.86    1.12
  -5   2   5    9.56    1.18
   4  -2  -5   51.82    3.26
  -4   2   5   49.20    3.32
   3  -2  -5   25.66    1.75
  -3   2   5   24.16    1.80
  -2   2   5    9.74    0.95
  -2   2   5    9.72    0.58
   1  -2  -5   86.06    5.22
  -1   2   5   86.07    3.89
  -1   2   5   85.13    5.22
   0  -2  -5   10.51    0.95
   0   2   5   11.49    0.95
   0   2   5   11.52    0.66
   1   2   5   63.04    3.85
   1   2   5   61.75    3.84
   1   2   5   61.06    2.87
   2   2   5    4.82    0.56
   2   2   5    4.92    0.43
   3   2   5   27.76    1.83
   3   2   5   26.21    1.39
   4   2   5   39.10    1.97
   4   2   5   40.56    2.61
   5   2   5   19.56    1.51
   6   2   5   27.83    2.05
   7   2   5   19.99    1.69
   8   2   5    9.14    1.18
   9   2   5   15.83    1.60
  10   2   5    4.30    1.01
  -8   3   5    2.29    1.06
  -7   3   5    1.82    0.91
  -6   3   5    1.27    0.75
  -5   3   5    9.06    1.20
   4  -3  -5   29.88    2.03
   3  -3  -5   13.61    1.14
  -3   3   5   15.30    0.85
  -3   3   5   16.42    1.34
   2  -3  -5   25.45    1.63
  -2   3   5   24.37    1.78
  -2   3   5   23.89    1.23
   1  -3  -5   48.42    2.90
  -1   3   5   45.46    3.00
  -1   3   5   46.39    2.20
   0  -3  -5   41.34    2.61
   0   3   5   41.18    2.69
   0   3   5   41.76    1.97
   1   3   5   76.15    3.49
   1   3   5   73.52    4.61
   1   3   5   77.77    4.69
   2   3   5   38.56    1.85
   2   3   5   37.07    2.40
   3   3   5    6.60    0.67
   3   3   5    7.06    0.59
   4   3   5   43.90    2.20
   4   3   5   45.81    2.89
   5   3   5   30.61    1.71
   5   3   5   34.24    2.25
   6   3   5   22.74    1.71
   6   3   5   20.89    1.28
   7   3   5   12.68    1.27
   8   3   5    1.47    0.69
   9   3   5    7.38    1.12
  10   3   5    4.88    1.04
  -7   4   5   11.04    1.53
  -6   4   5   -0.03    0.75
  -5   4   5    4.10    0.89
  -4   4   5   14.89    1.45
  -3   4   5   15.48    0.92
  -3   4   5   14.50    1.40
   2  -4  -5   18.78    1.32
  -2   4   5   20.30    1.09
  -2   4   5   21.77    1.61
   1  -4  -5   15.04    0.97
  -1   4   5   13.24    0.83
  -1   4   5   13.88    1.23
   0  -4  -5   11.69    0.91
   0   4   5   13.39    0.79
   0   4   5   14.90    1.17
   1   4   5   84.13    3.94
   1   4   5   89.35    5.31
   1   4   5   83.99    5.17
   2   4   5   21.97    1.18
   2   4   5   21.61    1.47
   3   4   5   27.14    1.43
   3   4   5   28.07    1.84
   4   4   5    1.41    0.35
   4   4   5    1.21    0.40
   5   4   5   12.52    1.11
   5   4   5   12.07    0.89
   6   4   5   13.81    1.26
   6   4   5   13.02    1.00
   7   4   5   16.16    1.46
   7   4   5   16.21    1.14
   8   4   5    3.15    0.81
   9   4   5    1.45    0.78
  10   4   5    2.05    0.88
  -7   5   5    6.93    1.33
  -6   5   5    7.06    1.22
  -5   5   5   -0.27    0.75
  -4   5   5    6.32    1.00
  -4   5   5    7.39    0.74
  -3   5   5   21.73    1.80
  -3   5   5   21.67    1.24
  -2   5   5   49.34    2.41
  -2   5   5   49.84    3.30
  -1   5   5    9.87    1.07
  -1   5   5   10.07    0.73
   0   5   5    2.64    0.60
   0   5   5    2.80    0.38
   1   5   5    9.64    0.80
   1   5   5   11.08    1.11
   1   5   5   11.29    0.76
   2   5   5   62.55    2.94
   2   5   5   61.89    3.80
   3   5   5   31.33    2.03
   3   5   5   30.43    1.60
   4   5   5   15.53    1.22
   4   5   5   15.34    0.98
   5   5   5    8.37    0.93
   5   5   5    7.84    0.76
   6   5   5   12.71    0.96
   6   5   5   12.46    1.19
   7   5   5   16.14    1.44
   7   5   5   15.29    1.13
   8   5   5    2.23    0.76
   8   5   5    3.55    0.59
   9   5   5    4.29    0.98
  10   5   5    0.45    0.83
  -7   6   5    1.54    1.07
  -6   6   5    8.28    1.35
  -5   6   5    8.41    1.26
  -4   6   5    2.51    0.82
  -4   6   5    1.65    0.50
  -3   6   5    2.10    0.75
  -3   6   5    2.39    0.49
  -2   6   5   26.89    2.11
  -2   6   5   27.58    1.50
  -1   6   5   35.91    1.88
  -1   6   5   37.53    2.60
   0   6   5   15.71    1.47
   0   6   5   16.20    1.01
   1   6   5   17.41    1.07
   2   6   5   12.59    0.86
   2   6   5   11.69    0.90
   3   6   5   15.62    1.05
   3   6   5   17.25    1.23
   4   6   5    5.65    0.71
   4   6   5    4.91    0.54
   5   6   5   10.10    0.85
   5   6   5   10.03    1.01
   6   6   5    5.65    0.63
   6   6   5    5.00    0.78
   7   6   5    5.16    0.86
   7   6   5    5.55    0.68
   8   6   5    2.49    0.57
   8   6   5    2.22    0.77
   9   6   5    3.84    0.94
  -6   7   5    3.30    1.12
  -5   7   5    0.82    0.91
  -4   7   5   13.03    1.07
  -4   7   5   14.11    1.62
  -3   7   5    1.31    0.52
  -3   7   5    1.41    0.77
  -2   7   5    2.57    0.78
  -2   7   5    2.34    0.52
  -1   7   5    4.50    0.59
  -1   7   5    4.73    0.86
   0   7   5   23.28    1.94
   0   7   5   23.29    1.36
   1   7   5   17.94    1.14
   2   7   5    7.23    0.74
   3   7   5    9.70    0.84
   4   7   5    6.46    0.74
   4   7   5    5.29    0.61
   5   7   5    5.95    0.64
   5   7   5    5.29    0.73
   6   7   5    0.58    0.45
   6   7   5    0.35    0.54
   7   7   5    2.59    0.58
   7   7   5    2.29    0.74
   8   7   5    0.72    0.72
   8   7   5    1.01    0.55
   9   7   5    1.84    0.87
   9   7   5    3.02    0.67
  -5   8   5   -0.25    0.94
  -4   8   5    7.48    1.28
  -4   8   5    9.15    0.91
  -3   8   5    5.89    1.11
  -3   8   5    7.25    0.80
  -2   8   5   -0.05    0.48
  -2   8   5    0.31    0.70
  -1   8   5    0.26    0.67
  -1   8   5    0.66    0.49
   0   8   5    6.83    0.71
   1   8   5   20.88    1.30
   2   8   5    2.92    0.54
   3   8   5    3.30    0.53
   4   8   5    7.49    0.75
   5   8   5    9.22    0.94
   5   8   5    9.21    1.01
   6   8   5   16.75    1.24
   6   8   5   16.29    1.49
   7   8   5    0.25    0.50
   7   8   5   -0.02    0.63
   8   8   5    0.18    0.58
   8   8   5    0.25    0.74
  -5   9   5    0.99    1.06
  -4   9   5    1.87    1.02
  -4   9   5    2.22    0.70
  -3   9   5    2.26    0.65
  -3   9   5    1.53    0.94
  -2   9   5    1.22    0.60
  -2   9   5    2.81    0.93
  -1   9   5    1.38    0.60
   0   9   5    0.23    0.52
   1   9   5    6.50    0.75
   2   9   5    2.96    0.61
   3   9   5    0.85    0.49
   4   9   5    1.19    0.52
   5   9   5    2.22    0.61
   6   9   5    7.53    0.87
   7   9   5    0.65    0.59
  -4  10   5   -0.49    0.99
  -3  10   5    0.44    0.96
  -3  10   5    0.35    0.67
  -2  10   5    1.74    0.69
  -1  10   5    1.04    0.66
   0  10   5   -0.05    0.58
   1  10   5    4.70    0.75
   2  10   5    3.22    0.68
   3  10   5    5.82    0.77
   4  10   5    1.63    0.60
   5  10   5    1.60    0.62
   6  10   5    0.56    0.62
  -2  11   5    0.61    0.71
  -1  11   5    1.95    0.78
   0  11   5    3.59    0.81
   1  11   5    0.36    0.66
   2  11   5    0.19    0.63
   3  11   5    1.09    0.65
   4  11   5   10.01    1.06
   5  11   5    1.46    0.70
   1  12   5    1.81    0.77
   2  12   5   -0.25    0.70
   2   8  -6    1.17    1.11
   1   8  -6    3.00    1.20
   0   8  -6    1.58    1.06
  -1   8  -6    3.02    1.12
  -2   8  -6    1.24    0.98
  -2   8  -6    0.41    0.72
  -3   8  -6    0.94    0.94
  -3   8  -6   -0.22    0.81
  -4   8  -6    1.62    0.99
  -4   8  -6   -0.23    0.84
   3   7  -6    6.49    1.41
   2   7  -6    6.01    1.30
   1   7  -6    2.13    1.03
   0   7  -6    0.77    0.93
  -1   7  -6    3.21    0.71
  -1   7  -6    2.56    1.00
  -2   7  -6    3.32    1.02
  -2   7  -6    2.75    0.78
  -3   7  -6    4.13    1.08
  -3   7  -6    3.00    0.83
  -4   7  -6    0.39    0.78
  -4   7  -6    0.79    0.89
  -5   7  -6    2.37    1.02
  -5   7  -6    2.70    0.92
   5   6  -6    3.27    1.21
   4   6  -6    0.54    1.09
   3   6  -6    3.23    1.14
   2   6  -6    5.14    1.20
   1   6  -6    6.66    1.23
   0   6  -6    0.89    0.86
  -1   6  -6    4.80    1.04
  -1   6  -6    5.39    0.73
  -2   6  -6    6.66    0.85
  -2   6  -6    6.98    1.18
  -3   6  -6    2.28    0.73
  -3   6  -6    1.94    0.87
  -4   6  -6    3.89    0.85
  -4   6  -6    4.40    1.02
   4  -6   6    4.84    0.90
  -5   6  -6   -0.41    0.77
   5  -6   6    0.46    0.64
  -6   6  -6   -0.08    0.84
   6  -6   6    1.24    0.74
  -7   6  -6    3.25    1.00
   7  -6   6    2.49    0.87
   5   5  -6    5.95    1.32
  -5  -5   6    5.88    0.96
   4   5  -6    1.60    1.02
   3   5  -6    4.88    1.16
   2   5  -6    6.29    1.20
   1   5  -6   16.20    1.67
   0   5  -6    9.96    1.33
  -1   5  -6    3.81    0.92
  -1   5  -6    3.91    0.62
  -2   5  -6    6.53    1.09
  -2   5  -6    6.66    0.79
  -3   5  -6    5.90    1.05
  -3   5  -6    7.32    0.86
  -4   5  -6   14.96    1.35
   4  -5   6   13.63    1.39
  -5   5  -6    3.53    0.83
   5  -5   6    3.33    0.79
  -6   5  -6    2.55    0.85
   6  -5   6    2.09    0.79
  -7   5  -6    2.23    0.90
   7  -5   6    2.53    0.90
  -8   5  -6    1.22    0.94
   6   4  -6    1.81    1.12
  -6  -4   6    2.51    0.83
   5   4  -6    2.77    1.07
  -5  -4   6    2.95    0.78
   4   4  -6   23.41    2.24
  -4  -4   6   25.52    1.94
   3   4  -6    7.65    1.31
  -3  -4   6    9.79    1.08
   2   4  -6    4.54    1.05
   1   4  -6    7.71    1.19
   0   4  -6   16.38    1.57
   0   4  -6   14.58    1.05
  -1   4  -6   27.86    1.59
  -1   4  -6   27.44    2.19
  -2   4  -6    2.85    0.59
  -2   4  -6    2.85    0.78
  -3   4  -6   12.15    1.15
   3  -4   6   12.86    1.25
  -4   4  -6    4.06    0.72
   4  -4   6    2.79    0.70
  -5   4  -6   10.96    1.03
   5  -4   6    8.53    1.18
  -6   4  -6    9.77    1.10
   6  -4   6   10.97    1.30
  -7   4  -6    2.38    0.83
   7  -4   6    2.81    0.89
  -8   4  -6    3.02    0.95
   8  -4   6    3.41    0.97
   6   3  -6    3.38    1.13
  -6  -3   6    4.31    0.92
   5   3  -6    0.48    0.85
  -5  -3   6    0.85    0.66
   4   3  -6   17.10    1.77
  -4  -3   6   17.46    1.52
   3   3  -6   20.47    1.95
  -3  -3   6   21.64    1.65
   2   3  -6   11.49    1.45
  -2  -3   6   14.35    1.17
   1   3  -6    1.83    0.77
  -1  -3   6    1.11    0.38
   0   3  -6   13.28    0.89
   0   3  -6   11.35    1.32
  -1   3  -6   29.30    2.30
  -1   3  -6   31.74    1.66
  -2   3  -6   22.33    1.83
  -2   3  -6   23.84    1.36
   2  -3   6   21.66    1.75
  -3   3  -6    6.14    0.70
   3  -3   6    8.89    0.98
  -4   3  -6    3.08    0.63
   4  -3   6    5.66    0.85
  -5   3  -6   12.21    1.12
   5  -3   6    9.40    1.20
  -6   3  -6    9.33    0.99
   6  -3   6   10.64    1.26
  -7   3  -6    1.13    0.67
   7  -3   6    1.32    0.74
  -8   3  -6    1.78    0.76
   8  -3   6    2.72    0.89
  -9   3  -6    0.42    0.81
   9  -3   6    1.25    0.90
   7   2  -6    5.13    1.17
  -7  -2   6    4.57    1.01
   6   2  -6    7.49    1.29
  -6  -2   6    9.76    1.26
   5   2  -6    3.07    0.92
  -5  -2   6    6.31    0.93
   4   2  -6    4.21    0.96
  -4  -2   6    2.46    0.67
   3   2  -6   35.89    2.72
  -3  -2   6   36.59    2.47
   2   2  -6   29.50    2.35
  -2  -2   6   30.66    2.06
   1   2  -6   44.56    3.36
  -1  -2   6   52.59    3.10
   0   2  -6    3.09    0.40
   0   2  -6    3.20    0.77
   0  -2   6    4.95    0.60
  -1   2  -6   12.35    0.88
  -1   2  -6   11.39    1.23
  -2   2  -6   53.47    2.57
   2  -2   6   52.18    3.46
  -3   2  -6   12.03    0.94
   3  -2   6   11.25    1.15
  -4   2  -6   16.52    1.20
   4  -2   6   19.65    1.53
  -5   2  -6   12.92    1.05
   5  -2   6   10.67    1.20
  -6   2  -6    4.78    0.69
   6  -2   6    2.37    0.73
  -7   2  -6    6.81    0.88
   7  -2   6    5.82    1.01
  -8   2  -6    4.69    0.88
   8  -2   6    4.19    0.99
  -9   2  -6    1.21    0.79
   9  -2   6    1.68    0.90
   7   1  -6    1.30    0.85
  -7  -1   6    0.66    0.80
   6   1  -6    8.15    1.24
  -6  -1   6    7.56    1.09
   5   1  -6   19.40    1.78
  -5  -1   6   20.76    1.71
   4   1  -6   16.37    1.62
  -4  -1   6   18.73    1.51
  -3  -1   6    4.41    0.68
   2   1  -6    2.33    0.73
  -2  -1   6    3.24    0.55
   1   1  -6   84.39    5.46
  -1  -1   6   86.97    5.21
   0   1  -6   37.15    2.86
   0  -1   6   45.70    2.65
  -1   1  -6   11.24    1.14
   1  -1   6    9.69    1.04
   1  -1   6   10.19    0.86
   2  -1   6   31.65    2.20
   3  -1   6   12.55    1.17
   4  -1   6   55.33    3.61
   5  -1   6    2.07    0.60
   6  -1   6   15.20    1.42
   7  -1   6    6.45    1.00
  -8   1  -6    9.09    0.98
   8  -1   6    7.65    1.18
  -9   1  -6    5.05    0.87
   9  -1   6    4.50    1.02
   7   0  -6    1.26    0.79
  -7   0   6    1.99    0.87
   6   0  -6    6.07    1.03
  -6   0   6    3.25    0.88
   5   0  -6   11.79    1.32
  -5   0   6   12.36    1.31
   4   0  -6   28.91    2.25
  -4   0   6   31.28    2.19
   3   0  -6    5.97    0.87
  -3   0   6    4.56    0.72
   2   0  -6    1.99    0.65
  -2   0   6    2.00    0.49
   1   0  -6   40.25    2.73
  -1   0   6   38.71    2.54
   0   0  -6   50.93    3.23
   0   0   6   45.59    3.00
   1   0   6   27.86    1.83
   1   0   6   26.78    1.93
   2   0   6    5.00    0.57
   2   0   6    4.90    0.70
   3   0   6    7.27    0.83
   4   0   6   81.10    5.07
   5   0   6   12.76    1.24
   6   0   6    6.00    0.90
   7   0   6    0.81    0.62
   8   0   6   13.44    1.45
   9   0   6    8.30    1.24
 -10   0  -6    1.16    0.70
  10   0   6    0.83    0.86
  -7   1   6   16.93    1.77
   6  -1  -6    1.47    0.71
  -6   1   6    2.00    0.81
   5  -1  -6   13.69    1.29
  -5   1   6   10.40    1.32
   4  -1  -6    5.88    0.84
  -4   1   6    6.78    0.91
   3  -1  -6   44.31    2.85
  -3   1   6   40.46    2.82
   2  -1  -6   31.26    2.35
  -2   1   6   37.91    2.36
   1  -1  -6    9.02    0.96
  -1   1   6    7.44    0.51
  -1   1   6    7.37    0.84
   0  -1  -6   61.69    3.91
   0   1   6   58.50    2.80
   0   1   6   62.34    3.78
   1   1   6   43.25    2.02
   1   1   6   41.59    2.71
   1   1   6   41.85    2.79
   2   1   6   50.48    3.35
   2   1   6   56.29    3.43
   3   1   6   14.23    1.19
   4   1   6   36.80    2.48
   5   1   6   16.08    1.38
   6   1   6   21.89    1.77
   7   1   6   20.52    1.74
   8   1   6    0.89    0.65
   9   1   6    7.73    1.15
  10   1   6    1.58    0.86
  -7   2   6    5.56    1.11
  -6   2   6   10.81    1.37
   5  -2  -6    1.58    0.62
  -5   2   6    1.79    0.72
   4  -2  -6    1.40    0.54
  -4   2   6    1.79    0.64
   3  -2  -6   17.38    1.37
  -3   2   6   16.08    1.45
   2  -2  -6   17.76    1.45
  -2   2   6   21.39    1.55
   1  -2  -6    8.47    0.88
  -1   2   6    8.62    0.58
  -1   2   6    8.33    0.93
   0  -2  -6   21.12    1.54
   0   2   6   20.00    1.50
   0   2   6   20.27    1.07
   1   2   6   29.75    2.01
   1   2   6   28.83    2.02
   1   2   6   30.10    1.49
   2   2   6   76.58    4.94
   2   2   6   80.95    3.71
   2   2   6   82.44    4.95
   3   2   6   25.10    1.37
   3   2   6   26.28    1.80
   4   2   6    6.77    0.82
   4   2   6    6.09    0.59
   5   2   6   17.08    1.42
   6   2   6   39.05    2.70
   7   2   6   14.51    1.40
   8   2   6    3.22    0.80
   9   2   6    1.17    0.75
  10   2   6   -0.06    0.75
  -7   3   6    5.14    1.15
  -6   3   6   12.06    1.51
  -5   3   6    7.20    1.10
  -4   3   6    1.89    0.70
   3  -3  -6    8.63    0.86
  -3   3   6    7.92    1.07
   2  -3  -6   29.11    1.91
  -2   3   6   28.58    1.42
  -2   3   6   27.84    2.07
   1  -3  -6   19.22    1.31
  -1   3   6   17.68    0.98
  -1   3   6   16.39    1.41
   0   3   6    1.97    0.52
   0   3   6    2.60    0.33
   1   3   6    2.63    0.56
   1   3   6    2.88    0.47
   1   3   6    2.98    0.36
   2   3   6   70.75    3.35
   2   3   6   72.12    4.52
   2   3   6   72.45    4.44
   3   3   6   86.97    5.43
   3   3   6   90.78    4.13
   4   3   6   27.05    1.86
   4   3   6   25.50    1.44
   5   3   6    1.11    0.47
   5   3   6    1.07    0.39
   6   3   6    7.38    0.98
   6   3   6    8.70    0.77
   7   3   6   18.07    1.59
   8   3   6   10.35    1.27
   9   3   6    2.89    0.88
  10   3   6    1.29    0.84
  -7   4   6    2.84    1.06
  -6   4   6    8.63    1.30
  -5   4   6    9.27    1.25
  -4   4   6    8.36    1.12
  -3   4   6   13.07    1.37
  -2   4   6    1.56    0.34
  -2   4   6    2.03    0.61
   1  -4  -6   33.86    2.15
  -1   4   6   33.61    1.68
  -1   4   6   33.83    2.37
   0  -4  -6   26.36    1.79
   0   4   6   27.53    1.96
   0   4   6   27.52    1.40
   1   4   6   28.77    2.02
   1   4   6   25.46    1.82
   1   4   6   28.19    1.43
   2   4   6    5.45    0.51
   2   4   6    6.45    0.69
   3   4   6   10.33    0.78
   3   4   6   10.52    0.93
   4   4   6   44.10    2.86
   4   4   6   44.22    2.21
   5   4   6   30.41    2.13
   5   4   6   30.32    1.65
   6   4   6   18.08    1.20
   6   4   6   18.03    1.52
   7   4   6   15.21    1.15
   7   4   6   16.41    1.50
   8   4   6    6.20    1.03
   9   4   6    7.82    1.22
  10   4   6    1.10    0.84
  -7   5   6    0.10    1.00
  -6   5   6    4.11    1.13
  -5   5   6    7.69    1.25
  -4   5   6   14.97    1.59
  -3   5   6    5.97    0.58
  -3   5   6    6.80    1.00
  -2   5   6    1.00    0.62
  -2   5   6    0.98    0.36
  -1   5   6   18.92    1.11
  -1   5   6   18.63    1.59
   0   5   6   15.09    1.44
   0   5   6   16.41    0.98
   1   5   6    9.16    1.11
   1   5   6    9.05    0.79
   1   5   6    9.69    0.72
   2   5   6   19.04    1.34
   2   5   6   18.68    1.10
   3   5   6    1.55    0.36
   3   5   6    1.57    0.38
   4   5   6   24.40    1.69
   4   5   6   22.33    1.33
   5   5   6    8.20    0.92
   5   5   6    8.21    0.81
   6   5   6    9.60    1.09
   6   5   6    8.47    0.80
   7   5   6    6.92    0.72
   7   5   6    5.14    0.90
   8   5   6    0.91    0.70
   8   5   6    0.33    0.51
   9   5   6    4.73    1.02
  -6   6   6    0.97    1.00
  -5   6   6    4.63    1.12
  -4   6   6   17.25    1.75
  -3   6   6    9.35    1.21
  -3   6   6    8.62    0.83
  -2   6   6   14.44    1.49
  -2   6   6   13.51    0.98
  -1   6   6    2.36    0.44
  -1   6   6    1.16    0.62
   0   6   6    2.71    0.45
   0   6   6    1.93    0.66
   1   6   6   30.02    1.64
   1   6   6   33.42    2.38
   2   6   6    6.98    0.71
   3   6   6    4.13    0.53
   3   6   6    3.62    0.49
   4   6   6    6.00    0.75
   4   6   6    5.42    0.59
   5   6   6    8.99    0.87
   5   6   6    8.76    0.95
   6   6   6    7.91    1.01
   6   6   6    8.73    0.79
   7   6   6    3.00    0.60
   7   6   6    4.05    0.82
   8   6   6    1.80    0.56
   8   6   6    1.93    0.77
   9   6   6    3.27    0.96
  -6   7   6    1.60    1.14
  -5   7   6    3.95    1.18
  -4   7   6    1.20    0.90
  -3   7   6    8.97    0.84
  -3   7   6    8.99    1.26
  -2   7   6   18.47    1.78
  -2   7   6   17.30    1.19
  -1   7   6    6.17    0.99
  -1   7   6    6.14    0.65
   0   7   6    1.15    0.66
   0   7   6    0.01    0.40
   1   7   6    3.73    0.55
   2   7   6   11.48    0.89
   3   7   6    5.05    0.59
   4   7   6    2.07    0.47
   4   7   6    1.07    0.43
   5   7   6    2.30    0.51
   5   7   6    2.91    0.61
   6   7   6    9.12    1.09
   6   7   6    7.89    0.81
   7   7   6   22.91    1.91
   7   7   6   22.61    1.51
   8   7   6    0.21    0.72
   8   7   6    0.38    0.55
   9   7   6    0.52    0.61
   9   7   6    0.57    0.82
  -5   8   6    1.52    1.14
  -4   8   6   -0.36    0.93
  -3   8   6    2.76    0.65
  -3   8   6    3.66    1.02
  -2   8   6    7.34    1.17
  -2   8   6    6.96    0.78
  -1   8   6    4.59    0.96
  -1   8   6    4.27    0.64
   0   8   6    3.89    0.61
   0   8   6    3.87    0.92
   1   8   6    1.25    0.49
   2   8   6    4.87    0.63
   3   8   6    5.31    0.64
   4   8   6   -0.18    0.42
   5   8   6    1.22    0.50
   6   8   6    0.19    0.48
   6   8   6   -0.36    0.52
   7   8   6    5.66    0.96
   7   8   6    5.86    0.80
   8   8   6    2.06    0.69
   8   8   6    2.63    0.87
  -4   9   6    4.72    1.29
  -4   9   6    4.91    0.83
  -3   9   6    0.59    0.93
  -3   9   6    0.73    0.64
  -2   9   6    1.54    0.97
  -2   9   6    1.54    0.63
  -1   9   6    5.58    1.12
  -1   9   6    5.30    0.75
   0   9   6    3.40    0.65
   1   9   6    3.45    0.65
   2   9   6    7.02    0.79
   3   9   6    2.47    0.57
   4   9   6    3.31    0.61
   5   9   6    2.48    0.61
   6   9   6    2.42    0.64
   7   9   6    0.85    0.63
  -3  10   6    1.85    0.74
  -3  10   6    2.00    1.13
  -2  10   6    1.27    1.02
  -2  10   6    1.42    0.67
  -1  10   6    0.81    0.63
   0  10   6    2.79    0.71
   1  10   6   11.94    1.15
   2  10   6    1.01    0.61
   3  10   6    0.02    0.55
   4  10   6    0.77    0.59
   5  10   6    7.84    0.92
   6  10   6    3.87    0.74
  -1  11   6   -0.13    0.67
   0  11   6    1.92    0.76
   1  11   6    2.07    0.75
   2  11   6    2.06    0.72
   3  11   6    0.85    0.65
   4  11   6    0.75    0.66
   5  11   6    0.86    0.68
   2   7  -7    0.83    1.10
   1   7  -7    2.72    1.17
   0   7  -7    1.16    1.02
  -1   7  -7    3.22    1.13
  -2   7  -7    1.24    1.02
  -3   7  -7    1.99    0.81
  -3   7  -7    1.83    1.03
  -4   7  -7    0.75    0.95
  -4   7  -7    1.18    0.89
   3   6  -7    1.81    1.16
   2   6  -7    4.52    1.27
   1   6  -7    2.72    1.10
   0   6  -7    4.95    1.19
  -1   6  -7    5.52    1.19
  -2   6  -7    1.60    0.90
  -2   6  -7    1.70    0.68
  -3   6  -7    1.14    0.89
  -3   6  -7    2.18    0.77
  -4   6  -7    1.33    0.91
  -4   6  -7    1.23    0.79
  -5   6  -7    6.24    1.27
  -5   6  -7    7.16    1.10
   5  -6   7    5.97    1.08
  -6   6  -7    0.60    0.88
   6  -6   7    1.01    0.78
   4   5  -7    1.12    1.13
   3   5  -7   14.28    1.81
   2   5  -7    2.92    1.12
   1   5  -7    1.25    0.95
   0   5  -7    3.98    1.05
  -1   5  -7    8.77    1.30
  -2   5  -7   12.41    1.03
  -2   5  -7   10.12    1.40
  -3   5  -7    0.95    0.67
  -3   5  -7    1.43    0.85
  -4   5  -7    0.75    0.70
  -4   5  -7    1.09    0.83
   4  -5   7    2.16    0.75
  -5   5  -7    3.39    0.89
   5  -5   7    4.42    0.95
  -6   5  -7    2.23    0.89
   6  -5   7    1.75    0.78
  -7   5  -7    2.93    0.97
   7  -5   7    3.50    1.00
   5   4  -7    1.62    1.16
  -5  -4   7    3.20    0.83
   4   4  -7    1.93    1.04
   3   4  -7    3.44    1.11
   2   4  -7    4.08    1.09
   1   4  -7   15.47    1.71
   0   4  -7    1.89    0.84
  -1   4  -7    1.17    0.50
  -1   4  -7    1.46    0.79
  -2   4  -7   10.89    0.94
  -2   4  -7    9.72    1.34
  -3   4  -7   16.04    1.35
  -3   4  -7   15.22    1.59
   3  -4   7   15.85    1.48
  -4   4  -7    5.25    0.82
   4  -4   7    7.18    1.03
  -5   4  -7    0.94    0.69
   5  -4   7    0.53    0.64
  -6   4  -7    0.19    0.67
   6  -4   7    0.69    0.75
  -7   4  -7    3.95    0.94
   7  -4   7    5.15    1.08
  -8   4  -7   -0.66    0.84
   8  -4   7    0.08    0.83
   6   3  -7    9.08    1.57
  -6  -3   7    8.24    1.18
   5   3  -7    4.08    1.20
  -5  -3   7    5.60    0.94
   4   3  -7    1.24    1.00
  -4  -3   7    3.69    0.76
   3   3  -7    6.04    1.23
  -3  -3   7    5.02    0.78
   2   3  -7   10.91    1.50
  -2  -3   7    9.70    1.08
   1   3  -7    9.65    1.37
   0   3  -7   16.13    1.65
  -1   3  -7    7.05    1.11
  -1   3  -7    7.09    0.68
  -2   3  -7    5.01    0.60
  -2   3  -7    4.17    0.88
  -3   3  -7   11.24    1.04
   3  -3   7   10.37    1.20
  -4   3  -7   13.77    1.19
   4  -3   7   13.68    1.37
  -5   3  -7    9.37    0.96
   5  -3   7    9.24    1.23
  -6   3  -7    5.16    0.87
   6  -3   7    7.55    1.12
  -7   3  -7    6.25    0.95
  -8   3  -7    4.78    0.95
   8  -3   7    3.26    0.99
   6   2  -7    7.07    1.33
  -6  -2   7    4.66    0.98
   5   2  -7    6.12    1.24
  -5  -2   7    6.80    1.01
   4   2  -7   22.47    2.20
  -4  -2   7   26.60    1.97
   3   2  -7   15.88    1.80
  -3  -2   7   19.51    1.54
   2   2  -7    4.71    1.03
  -2  -2   7    3.13    0.62
   1   2  -7   10.39    1.30
  -1  -2   7    6.14    0.84
   0   2  -7   16.88    1.60
  -1   2  -7   18.29    1.12
  -1   2  -7   16.08    1.58
   2  -2   7    2.66    0.64
  -3   2  -7   24.08    1.50
   3  -2   7   28.39    2.02
  -4   2  -7    3.47    0.58
   4  -2   7    1.98    0.67
  -5   2  -7   10.03    0.93
   5  -2   7    9.97    1.21
  -6   2  -7    4.53    0.76
   6  -2   7    6.17    1.00
  -7   2  -7    7.52    0.94
   7  -2   7    7.56    1.18
  -8   2  -7    3.27    0.86
   8  -2   7    4.00    1.03
  -9   2  -7    3.01    0.92
   9  -2   7    1.55    0.93
   6   1  -7    4.28    1.09
  -6  -1   7    3.71    0.96
   5   1  -7    0.95    0.81
  -5  -1   7    0.57    0.70
   4   1  -7   16.32    1.64
  -4  -1   7   13.32    1.40
   3   1  -7   27.57    2.33
  -3  -1   7   30.36    2.14
   2   1  -7    4.25    0.98
  -2  -1   7    6.04    0.75
   1   1  -7    2.87    0.85
  -1  -1   7    5.76    0.67
   0   1  -7   13.71    1.35
   0   1  -7   12.65    0.82
   0  -1   7   11.99    1.08
  -1   1  -7   33.34    2.45
   1  -1   7   32.69    2.15
   2  -1   7   16.40    1.41
   3  -1   7    1.63    0.56
   4  -1   7    8.35    1.05
   5  -1   7   35.17    2.56
   6  -1   7    6.74    1.02
   7  -1   7   -0.20    0.64
  -8   1  -7    1.01    0.63
   8  -1   7    0.09    0.72
  -9   1  -7    3.70    0.85
   9  -1   7    4.00    1.06
   6   0  -7    8.45    1.31
  -6   0   7    9.45    1.27
   5   0  -7    1.86    0.80
  -5   0   7    3.16    0.84
   4   0  -7   13.17    1.43
  -4   0   7   10.81    1.29
   3   0  -7    9.34    1.25
  -3   0   7   13.13    1.21
   2   0  -7   39.03    2.70
  -2   0   7   34.93    2.47
   1   0  -7   25.29    2.19
  -1   0   7   30.95    2.00
   0   0  -7    2.35    0.73
   0   0   7    1.91    0.45
  -1   0  -7   20.98    1.73
   1   0   7   20.24    1.67
   1   0   7   21.44    1.53
   2   0   7   30.44    2.03
   2   0   7   29.45    2.14
   3   0   7   22.22    1.73
   4   0   7    9.84    1.08
   5   0   7   20.85    1.71
   6   0   7   18.83    1.65
   7   0   7   17.06    1.62
   8   0   7    6.19    1.07
   9   0   7    1.11    0.83
   6  -1  -7    9.24    1.24
  -6   1   7    9.53    1.28
   5  -1  -7   13.84    1.50
  -5   1   7   16.97    1.57
   4  -1  -7    7.41    1.02
  -4   1   7    7.43    1.01
   3  -1  -7   12.36    1.21
  -3   1   7    9.34    1.17
   2  -1  -7    3.46    0.75
  -2   1   7    4.53    0.72
   1  -1  -7   43.79    3.21
  -1   1   7   51.61    3.12
   0  -1  -7    3.92    0.78
   0   1   7    3.96    0.60
  -1  -1  -7   15.30    1.28
   1   1   7   10.84    1.07
   1   1   7   11.64    1.16
   2   1   7    9.43    0.96
   2   1   7    7.63    0.93
   3   1   7   18.86    1.50
   4   1   7   35.76    2.48
   5   1   7    0.33    0.49
   6   1   7    3.78    0.77
   7   1   7    8.47    1.15
   8   1   7   13.11    1.42
   9   1   7    6.65    1.13
  10   1   7    1.91    0.92
  -6   2   7    3.44    0.99
  -5   2   7   10.55    1.36
   4  -2  -7   14.48    1.35
  -4   2   7   15.24    1.50
   3  -2  -7    5.77    0.79
  -3   2   7    3.25    0.75
   2  -2  -7    7.91    0.91
  -2   2   7    4.96    0.79
   1  -2  -7   57.63    3.69
  -1   2   7   58.25    3.65
  -1   2   7   54.58    2.64
   0  -2  -7   40.41    2.82
   0   2   7   42.57    2.00
   0   2   7   41.36    2.76
   1   2   7    5.22    0.75
   1   2   7    5.84    0.58
   1   2   7    6.29    0.77
   2   2   7    5.64    0.75
   2   2   7    4.75    0.50
   2   2   7    4.87    0.74
   3   2   7   20.50    1.19
   3   2   7   20.20    1.55
   4   2   7   65.42    4.17
   5   2   7    4.27    0.72
   6   2   7    0.03    0.50
   7   2   7    4.85    0.90
   8   2   7    4.77    0.95
   9   2   7    6.56    1.13
  10   2   7    0.57    0.80
  -6   3   7    2.07    0.94
  -5   3   7    4.69    0.99
  -4   3   7   10.07    1.28
  -3   3   7   14.66    1.42
   2  -3  -7   19.24    1.51
  -2   3   7   21.61    1.67
  -1   3   7    8.71    1.01
  -1   3   7    8.14    0.64
   0  -3  -7   34.81    2.37
   0   3   7   34.72    2.41
   0   3   7   34.73    1.73
   1   3   7   53.62    3.40
   1   3   7   52.33    2.49
   1   3   7   50.12    3.35
   2   3   7   59.98    2.93
   2   3   7   63.35    4.00
   2   3   7   62.12    3.92
   3   3   7   -0.12    0.34
   3   3   7    0.26    0.36
   4   3   7   25.61    1.47
   4   3   7   27.03    1.91
   5   3   7   18.06    1.19
   5   3   7   17.94    1.50
   6   3   7   20.41    1.70
   7   3   7   13.19    1.36
   8   3   7   12.12    1.36
   9   3   7    5.25    1.05
  10   3   7    0.89    0.82
  -6   4   7    3.34    1.07
  -5   4   7    3.08    0.95
  -4   4   7    5.21    1.00
  -3   4   7    8.53    1.12
  -2   4   7    7.40    1.01
  -1   4   7    8.32    0.66
  -1   4   7    6.73    0.93
   0  -4  -7    9.59    0.88
   0   4   7    8.56    1.08
   0   4   7    8.92    0.71
   1   4   7    8.68    1.09
   1   4   7    9.21    0.93
   1   4   7    9.71    0.74
   2   4   7   21.03    1.56
   2   4   7   19.97    1.75
   2   4   7   21.88    1.22
   3   4   7   23.83    1.69
   3   4   7   23.18    1.32
   4   4   7    2.79    0.56
   4   4   7    3.44    0.51
   5   4   7    4.26    0.58
   5   4   7    4.31    0.71
   6   4   7   18.27    1.21
   6   4   7   15.54    1.44
   7   4   7    4.96    0.87
   8   4   7    0.63    0.67
   9   4   7    1.09    0.78
  -6   5   7    5.57    1.23
  -5   5   7    0.02    0.85
  -4   5   7    0.54    0.77
  -2   5   7   19.18    1.77
  -2   5   7   20.01    1.17
  -1   5   7   10.92    1.29
  -1   5   7   11.78    0.84
   0   5   7    5.65    0.55
   0   5   7    6.68    0.93
   1   5   7    6.28    0.60
   1   5   7    7.27    0.95
   2   5   7   51.31    3.18
   2   5   7   48.18    2.44
   3   5   7   15.42    1.05
   3   5   7   16.97    1.29
   4   5   7    4.54    0.57
   4   5   7    4.80    0.67
   5   5   7    0.48    0.45
   5   5   7    0.80    0.42
   6   5   7    3.33    0.58
   6   5   7    3.49    0.71
   7   5   7   10.47    1.21
   7   5   7    9.95    0.91
   8   5   7    3.19    0.85
   9   5   7    0.75    0.79
  -5   6   7    2.75    1.07
  -4   6   7    4.12    1.05
  -3   6   7    1.14    0.82
  -2   6   7    3.07    0.52
  -2   6   7    1.82    0.79
  -1   6   7   22.01    1.31
  -1   6   7   22.72    1.93
   0   6   7   26.87    2.08
   0   6   7   24.68    1.42
   1   6   7    9.57    0.82
   1   6   7   11.11    1.32
   2   6   7    1.53    0.43
   3   6   7    7.71    0.85
   3   6   7    8.11    0.77
   4   6   7   17.87    1.38
   4   6   7   16.19    1.11
   5   6   7    4.64    0.70
   5   6   7    4.40    0.61
   6   6   7    0.51    0.47
   6   6   7    0.13    0.52
   7   6   7    4.54    0.86
   7   6   7    4.52    0.68
   8   6   7    7.45    0.85
   8   6   7    6.49    1.07
   9   6   7    0.72    0.79
  -5   7   7    1.54    1.12
  -4   7   7    3.15    1.12
  -3   7   7    2.29    0.95
  -2   7   7    0.39    0.74
  -2   7   7    0.31    0.49
  -1   7   7    6.08    0.68
  -1   7   7    6.03    1.04
   0   7   7   -0.20    0.64
   0   7   7    0.20    0.43
   1   7   7   10.11    0.87
   2   7   7    3.54    0.54
   3   7   7    1.65    0.48
   4   7   7   17.53    1.17
   5   7   7    1.47    0.53
   5   7   7    1.43    0.50
   6   7   7    5.56    0.71
   6   7   7    6.33    0.88
   7   7   7    1.16    0.69
   7   7   7    0.79    0.56
   8   7   7    1.67    0.82
   8   7   7    3.30    0.69
   9   7   7    5.31    0.83
  -4   8   7    2.06    1.16
  -3   8   7    2.52    1.04
  -2   8   7    1.22    0.58
  -2   8   7    0.92    0.90
  -1   8   7    0.42    0.79
  -1   8   7    1.39    0.55
   0   8   7    7.26    1.17
   0   8   7    6.19    0.73
   1   8   7    2.65    0.57
   2   8   7    4.58    0.64
   3   8   7    3.22    0.57
   4   8   7    1.68    0.52
   5   8   7    4.00    0.64
   6   8   7    5.08    0.74
   7   8   7    4.10    0.72
   8   8   7    0.27    0.60
   8   8   7   -0.23    0.71
  -3   9   7    2.14    0.68
  -3   9   7    2.21    1.14
  -2   9   7    4.39    1.18
  -2   9   7    5.03    0.79
  -1   9   7    1.11    0.92
  -1   9   7    0.48    0.58
   0   9   7    0.88    0.60
   1   9   7    3.58    0.68
   2   9   7    6.23    0.76
   3   9   7    1.19    0.54
   4   9   7    0.24    0.53
   5   9   7    0.44    0.53
   6   9   7    3.40    0.70
   7   9   7    3.70    0.74
  -2  10   7    1.15    1.11
  -2  10   7    0.95    0.69
  -1  10   7    1.02    0.66
   0  10   7    0.25    0.63
   1  10   7    0.66    0.63
   2  10   7    5.95    0.81
   3  10   7    3.49    0.72
   4  10   7    1.34    0.62
   5  10   7    0.58    0.60
   6  10   7    1.31    0.65
   0  11   7    1.25    0.73
   1  11   7    1.22    0.72
   2  11   7    0.79    0.67
   3  11   7    1.00    0.67
   4  11   7    0.67    0.65
   2   6  -8    4.61    1.36
   1   6  -8    1.57    1.12
   0   6  -8    2.33    1.12
  -1   6  -8    0.55    0.96
  -2   6  -8    7.20    1.37
  -3   6  -8    2.07    1.07
  -3   6  -8    2.62    0.84
  -4   6  -8    1.21    0.83
  -4   6  -8    1.73    1.03
  -5   6  -8    0.89    0.85
   3   5  -8    0.08    1.14
   2   5  -8    2.64    1.20
   1   5  -8    3.89    1.22
   0   5  -8    7.52    1.39
  -1   5  -8    1.97    1.00
  -2   5  -8    0.73    0.88
  -3   5  -8    3.97    0.82
  -3   5  -8    2.98    1.04
  -4   5  -8    3.55    0.87
  -4   5  -8    2.22    0.99
  -5   5  -8    4.88    0.99
   5  -5   8    6.48    1.12
  -6   5  -8   -0.15    0.81
   6  -5   8    1.03    0.83
   4   4  -8    5.28    1.45
   3   4  -8    4.36    1.32
   2   4  -8    6.46    1.38
   1   4  -8    4.86    1.20
   0   4  -8    4.98    1.15
  -1   4  -8    9.95    1.41
  -2   4  -8    7.65    0.86
  -2   4  -8    7.57    1.25
  -3   4  -8   -0.23    0.59
  -3   4  -8    0.88    0.81
  -4   4  -8    1.56    0.71
   4  -4   8    1.17    0.71
  -5   4  -8    7.12    0.96
   5  -4   8    6.31    1.10
  -6   4  -8    0.66    0.78
   6  -4   8    1.03    0.79
  -7   4  -8    1.59    0.88
   7  -4   8    1.42    0.88
   4   3  -8    4.04    1.27
   3   3  -8   11.80    1.71
   2   3  -8    4.49    1.19
   1   3  -8    3.45    1.07
   0   3  -8    9.59    1.40
  -1   3  -8    5.69    1.10
  -2   3  -8   14.12    1.54
  -2   3  -8   15.18    1.18
  -3   3  -8    5.62    1.04
  -3   3  -8    5.09    0.70
   3  -3   8    4.30    0.87
  -4   3  -8    7.47    0.88
   4  -3   8    9.67    1.21
  -5   3  -8    3.13    0.74
   5  -3   8    3.15    0.84
  -6   3  -8    4.49    0.83
   6  -3   8    4.03    1.00
  -7   3  -8    2.54    0.83
   7  -3   8    4.91    1.11
  -8   3  -8    1.14    0.82
   8  -3   8    0.72    0.90
   5   2  -8    1.18    1.08
  -5  -2   8    1.32    0.80
   4   2  -8    0.98    1.05
  -4  -2   8    0.29    0.67
   3   2  -8   12.21    1.64
  -3  -2   8    9.90    1.29
   2   2  -8   11.77    1.59
   1   2  -8   10.33    1.47
   0   2  -8    4.25    1.02
  -1   2  -8    3.12    0.88
  -2   2  -8    6.34    1.06
  -2   2  -8    7.17    0.70
  -3   2  -8   18.47    1.26
   3  -2   8   18.42    1.65
  -4   2  -8    2.80    0.60
   4  -2   8    1.68    0.64
  -5   2  -8    4.92    0.73
   5  -2   8    3.72    0.88
  -6   2  -8    4.88    0.77
   6  -2   8    3.95    0.94
  -7   2  -8    3.88    0.83
   7  -2   8    3.11    0.96
  -8   2  -8    1.07    0.78
   8  -2   8   -0.25    0.79
   5   1  -8    6.86    1.26
  -5  -1   8    5.65    1.05
   4   1  -8    3.38    1.06
  -4  -1   8    4.38    0.88
   3   1  -8   16.12    1.75
  -3  -1   8   14.03    1.45
   2   1  -8    1.31    0.88
  -2  -1   8    2.15    0.61
   1   1  -8   19.45    1.87
  -1  -1   8   18.55    1.52
   0   1  -8   14.94    1.59
  -1   1  -8    3.20    0.86
  -2   1  -8   15.66    1.53
   2  -1   8   14.82    1.42
   3  -1   8    8.00    1.03
   4  -1   8   16.76    1.56
   5  -1   8    2.63    0.74
   6  -1   8    2.85    0.80
   7  -1   8   14.18    1.54
  -8   1  -8    5.31    0.88
   8  -1   8    4.65    1.08
  -9   1  -8    2.34    0.83
   9  -1   8    4.12    1.11
  -6   0   8    2.78    0.95
   5   0  -8    2.12    0.93
  -5   0   8    2.72    0.86
   4   0  -8    5.80    1.14
  -4   0   8    8.59    1.10
   3   0  -8   10.71    1.44
  -3   0   8   14.48    1.41
   2   0  -8   20.61    1.87
  -2   0   8   18.94    1.64
   1   0  -8    4.59    0.96
  -1   0   8    4.02    0.69
   0   0  -8   17.81    1.69
   0   0   8   18.46    1.45
  -1   0  -8    6.68    1.08
   1   0   8    8.96    0.93
   2   0   8    8.00    1.01
   3   0   8    8.56    1.04
   4   0   8    3.35    0.72
   5   0   8   21.79    1.82
   6   0   8    3.33    0.85
   7   0   8    0.54    0.70
   8   0   8   -0.17    0.73
   9   0   8    4.25    1.09
  -6   1   8    0.88    0.89
   5  -1  -8    4.92    1.01
  -5   1   8    2.10    0.86
   4  -1  -8   14.77    1.51
  -4   1   8   12.66    1.47
   3  -1  -8    8.39    1.16
  -3   1   8    9.03    1.10
   2  -1  -8    1.99    0.73
  -2   1   8    0.59    0.57
   1  -1  -8    9.54    1.22
  -1   1   8    8.06    1.07
   0  -1  -8   22.71    1.89
   0   1   8   22.07    1.69
  -1  -1  -8   40.78    2.86
   1   1   8   39.74    2.68
   2   1   8    0.82    0.49
   2   1   8    0.93    0.51
   3   1   8   11.76    1.19
   4   1   8    5.68    0.84
   5   1   8   28.39    2.17
   6   1   8    5.87    0.96
   7   1   8    1.17    0.74
   8   1   8    1.14    0.81
   9   1   8    0.07    0.75
  -6   2   8    4.97    1.16
  -5   2   8    0.44    0.84
  -4   2   8    4.71    0.94
   3  -2  -8   13.99    1.32
  -3   2   8   12.10    1.39
   2  -2  -8    9.24    1.15
  -2   2   8    9.71    1.19
   1  -2  -8    8.91    1.12
   0   2   8   11.83    0.80
   0   2   8   11.26    1.18
  -1  -2  -8   26.64    1.96
   1   2   8   23.93    1.33
   1   2   8   24.01    1.86
   2   2   8   45.20    2.14
   2   2   8   42.17    2.91
   2   2   8   41.87    2.91
   3   2   8   18.23    1.51
   4   2   8    3.35    0.66
   5   2   8   25.25    1.97
   6   2   8   10.93    1.26
   7   2   8   16.02    1.56
   8   2   8    2.50    0.83
   9   2   8    1.57    0.82
  -6   3   8    3.41    1.05
  -5   3   8    8.98    1.31
  -4   3   8    2.05    0.84
  -3   3   8    3.03    0.84
   2  -3  -8    9.35    1.02
  -2   3   8    7.42    1.04
   1  -3  -8   16.71    1.48
  -1   3   8   20.69    1.61
   0  -3  -8    1.05    0.54
   0   3   8    2.94    0.40
   0   3   8    2.18    0.64
  -1  -3  -8    8.94    1.01
   1   3   8    6.69    0.70
   1   3   8    7.48    0.96
   2   3   8    4.90    0.74
   2   3   8    4.55    0.80
   2   3   8    4.35    0.54
   3   3   8   12.10    0.90
   3   3   8   12.39    1.16
   4   3   8   31.33    1.77
   4   3   8   34.58    2.36
   5   3   8   -0.13    0.45
   5   3   8    0.40    0.50
   6   3   8    0.51    0.55
   7   3   8    9.14    1.20
   8   3   8    5.01    0.99
   9   3   8    0.51    0.78
  -5   4   8    5.12    1.14
  -4   4   8    3.61    0.97
  -3   4   8    0.28    0.72
  -2   4   8    5.48    0.93
  -1   4   8   30.97    2.31
   0  -4  -8    8.17    0.96
   0   4   8    9.66    0.76
   0   4   8    9.79    1.14
  -1  -4  -8    7.36    0.91
   1   4   8    7.39    0.99
   1   4   8    7.90    0.71
   2   4   8    6.65    0.63
   2   4   8    6.65    0.86
   2   4   8    7.36    0.99
   3   4   8   13.41    1.01
   3   4   8   15.57    1.27
   4   4   8   24.54    1.86
   4   4   8   26.43    1.49
   5   4   8    2.46    0.63
   5   4   8    2.39    0.55
   6   4   8    3.05    0.61
   6   4   8    2.50    0.69
   7   4   8    2.96    0.80
   8   4   8    4.17    0.93
   9   4   8    4.03    1.01
  -5   5   8    7.99    1.36
  -4   5   8    6.38    1.19
  -3   5   8    7.82    1.17
  -2   5   8    5.15    0.98
  -1   5   8    8.90    1.17
  -1   5   8    7.67    0.78
   0   5   8   12.69    1.40
   0   5   8   13.77    0.93
   1   5   8   18.86    1.13
   1   5   8   17.77    1.64
   2   5   8   15.54    1.04
   2   5   8   15.80    1.29
   3   5   8    5.16    0.71
   3   5   8    4.26    0.58
   4   5   8   12.28    0.98
   4   5   8   12.24    1.20
   5   5   8   10.73    1.14
   5   5   8    9.27    0.96
   6   5   8    5.52    0.72
   6   5   8    7.03    0.94
   7   5   8    0.32    0.54
   7   5   8    1.15    0.65
   8   5   8    7.69    1.12
   9   5   8    4.59    1.05
  -5   6   8    0.38    0.99
  -4   6   8    6.29    1.27
  -3   6   8    4.10    1.06
  -2   6   8    5.13    1.01
  -1   6   8    2.32    0.49
  -1   6   8    0.60    0.69
   0   6   8    4.87    0.59
   0   6   8    5.14    0.94
   1   6   8   -0.20    0.65
   1   6   8    0.72    0.42
   2   6   8    9.69    0.84
   3   6   8    2.10    0.49
   4   6   8    0.98    0.46
   4   6   8    1.40    0.50
   5   6   8   10.08    0.93
   5   6   8   10.42    1.12
   6   6   8    3.75    0.74
   6   6   8    3.52    0.64
   7   6   8    3.75    0.81
   7   6   8    3.13    0.68
   8   6   8    1.11    0.78
   8   6   8    2.23    0.65
   9   6   8    1.65    0.86
  -4   7   8    1.02    1.06
  -2   7   8    2.29    0.94
  -1   7   8    6.28    0.69
  -1   7   8    5.16    1.06
   0   7   8    0.69    0.49
   0   7   8    0.88    0.73
   1   7   8    2.12    0.83
   1   7   8    2.01    0.51
   2   7   8   12.16    0.98
   3   7   8    3.39    0.57
   4   7   8    0.53    0.47
   5   7   8    2.50    0.58
   6   7   8    5.43    0.72
   6   7   8    4.71    0.83
   7   7   8    8.15    1.12
   7   7   8    9.14    0.94
   8   7   8    1.50    0.65
   8   7   8    1.61    0.80
  -3   8   8    0.13    1.01
  -2   8   8    2.87    1.09
  -2   8   8    2.50    0.64
  -1   8   8    7.74    1.25
  -1   8   8    5.70    0.75
   0   8   8    3.49    0.99
   0   8   8    2.82    0.60
   1   8   8    0.99    0.52
   2   8   8    2.72    0.60
   3   8   8    2.73    0.59
   4   8   8    4.35    0.65
   5   8   8    0.38    0.51
   6   8   8    0.38    0.55
   7   8   8    1.35    0.64
   8   8   8    4.32    0.80
  -3   9   8    0.85    1.10
  -2   9   8    1.20    1.09
  -2   9   8    1.30    0.66
  -1   9   8    2.52    1.11
  -1   9   8    2.54    0.69
   0   9   8    0.68    0.60
   1   9   8    0.45    0.57
   2   9   8   -0.05    0.53
   3   9   8    1.35    0.58
   4   9   8    4.71    0.73
   5   9   8    1.07    0.60
   6   9   8   -0.16    0.59
   7   9   8    0.62    0.64
  -1  10   8    2.67    0.75
   0  10   8    3.06    0.77
   1  10   8    2.26    0.69
   2  10   8    4.54    0.79
   3  10   8    0.18    0.59
   4  10   8    1.41    0.64
   5  10   8    0.34    0.60
   1  11   8    0.90    0.70
   2  11   8    0.98    0.70
   3  11   8    0.13    0.66
   1   5  -9    2.78    1.28
   0   5  -9    1.43    1.11
  -1   5  -9    1.11    1.01
  -2   5  -9    7.73    1.41
  -3   5  -9    6.69    1.37
  -4   5  -9   -0.13    0.96
  -4   5  -9   -0.63    0.75
   2   4  -9    3.20    1.28
   1   4  -9    1.53    1.12
   0   4  -9    2.91    1.11
  -1   4  -9    0.31    0.88
  -2   4  -9    6.87    1.28
  -3   4  -9    3.53    0.79
  -3   4  -9    3.33    1.06
  -4   4  -9    3.14    0.81
  -4   4  -9    2.73    1.05
  -5   4  -9    1.12    0.79
   5  -4   9    1.51    0.83
  -6   4  -9   -0.74    0.80
   6  -4   9    0.25    0.81
   3   3  -9    1.27    1.21
   2   3  -9   10.42    1.69
   1   3  -9    3.71    1.17
   0   3  -9    5.66    1.24
  -1   3  -9    2.82    0.98
  -2   3  -9    2.17    0.93
  -3   3  -9    1.16    0.59
  -3   3  -9    1.40    0.86
  -4   3  -9    5.09    0.79
   4  -3   9    5.69    1.04
  -5   3  -9    3.37    0.80
   5  -3   9    4.63    1.00
  -6   3  -9    0.99    0.75
   6  -3   9    1.83    0.85
  -7   3  -9    1.02    0.78
   7  -3   9    1.35    0.92
   4   2  -9    6.96    1.48
   3   2  -9    4.29    1.26
   2   2  -9    8.94    1.52
   1   2  -9    0.38    0.95
   0   2  -9    6.46    1.24
  -1   2  -9    8.10    1.30
  -2   2  -9    4.16    1.03
  -3   2  -9    5.23    1.09
  -3   2  -9    7.29    0.77
   3  -2   9    5.35    0.99
  -4   2  -9    2.44    0.64
   4  -2   9    2.98    0.81
  -5   2  -9    6.04    0.84
   5  -2   9    6.22    1.09
  -6   2  -9    1.26    0.71
   6  -2   9    0.72    0.78
  -7   2  -9    0.67    0.74
   7  -2   9    1.82    0.92
   4   1  -9    2.76    1.14
  -4  -1   9    2.24    0.87
   3   1  -9    1.76    1.07
  -3  -1   9    3.57    0.83
   2   1  -9    4.39    1.15
   1   1  -9    1.40    0.98
   0   1  -9    7.17    1.23
  -1   1  -9    5.76    1.11
  -2   1  -9    6.81    1.11
   3  -1   9    1.80    0.69
   4  -1   9    0.60    0.59
   5  -1   9    7.78    1.14
   6  -1   9    6.17    1.11
   7  -1   9    1.68    0.83
  -8   1  -9    0.44    0.72
   8  -1   9    0.16    0.81
   4   0  -9    1.99    0.98
  -4   0   9    1.03    0.79
   3   0  -9   13.03    1.62
  -3   0   9   11.59    1.41
   2   0  -9    8.02    1.31
  -2   0   9    8.15    1.03
   1   0  -9    2.66    0.94
  -1   0   9    2.00    0.66
   0   0  -9    7.72    1.25
  -1   0  -9    0.82    0.70
  -2   0  -9   15.53    1.60
   2   0   9   16.88    1.54
   3   0   9    5.51    0.90
   4   0   9    5.17    0.92
   5   0   9    0.78    0.64
   6   0   9    3.98    0.89
   7   0   9   11.76    1.43
   8   0   9    1.35    0.90
  -5   1   9    3.12    0.98
   4  -1  -9    1.51    0.87
  -4   1   9    1.43    0.82
   3  -1  -9   15.50    1.59
  -3   1   9   12.51    1.49
   2  -1  -9    4.86    1.02
  -2   1   9    4.82    0.90
   1  -1  -9   11.58    1.47
  -1   1   9   12.52    1.35
   0  -1  -9    4.86    0.98
   0   1   9    4.54    0.77
  -1  -1  -9    7.48    1.09
   1   1   9    5.03    0.80
  -2  -1  -9   11.87    1.33
   2   1   9   11.23    1.25
   3   1   9    6.18    0.91
   4   1   9    8.09    1.07
   5   1   9    2.87    0.74
   6   1   9    1.53    0.70
   7   1   9    4.60    1.01
   8   1   9    5.08    1.10
   9   1   9    3.92    1.10
  -5   2   9    1.66    0.92
  -4   2   9    7.52    1.19
  -3   2   9   -0.12    0.70
   2  -2  -9   16.94    1.56
  -2   2   9   13.86    1.57
   1  -2  -9   10.82    1.25
  -1   2   9    7.34    1.02
   0  -2  -9   16.43    1.62
   0   2   9   19.59    1.60
  -1  -2  -9    3.71    0.85
   1   2   9    6.62    0.88
   2   2   9    3.25    0.72
   2   2   9    3.88    0.75
   3   2   9    8.87    1.05
   4   2   9    1.30    0.58
   5   2   9   15.64    1.45
   6   2   9    1.10    0.68
   7   2   9    1.33    0.75
   8   2   9    0.43    0.80
   9   2   9    0.28    0.85
  -5   3   9    6.41    1.25
  -4   3   9    7.63    1.23
  -3   3   9    4.52    0.99
  -2   3   9   -0.28    0.61
   1  -3  -9    3.30    0.72
  -1   3   9    2.75    0.76
   0  -3  -9   18.75    1.64
   0   3   9   18.78    1.65
  -1  -3  -9   16.65    1.49
   1   3   9   16.33    1.03
   1   3   9   13.94    1.44
   2   3   9    7.06    0.99
   2   3   9    5.54    0.89
   2   3   9    6.93    0.66
   3   3   9    2.25    0.62
   3   3   9    3.19    0.54
   4   3   9    5.11    0.66
   4   3   9    4.53    0.78
   5   3   9   13.65    1.31
   6   3   9    1.77    0.66
   7   3   9    4.41    0.94
   8   3   9    2.86    0.87
   9   3   9    2.54    0.95
  -4   4   9    5.40    1.14
  -3   4   9   11.82    1.45
  -2   4   9    0.68    0.74
  -1   4   9    5.97    1.00
   0   4   9   10.55    1.26
  -1  -4  -9   14.25    1.30
   1   4   9   12.85    0.97
   1   4   9   12.60    1.38
   2   4   9   12.39    0.93
   2   4   9   11.05    1.16
   2   4   9   10.87    1.34
   3   4   9    5.64    0.65
   3   4   9    4.52    0.78
   4   4   9    2.38    0.63
   4   4   9    1.79    0.53
   5   4   9   10.73    0.96
   5   4   9   10.86    1.25
   6   4   9    2.62    0.71
   7   4   9    6.99    1.06
   8   4   9   -0.09    0.70
   9   4   9    1.33    0.85
  -4   5   9    0.79    0.88
  -3   5   9    3.29    0.96
  -2   5   9    9.57    1.30
  -1   5   9   10.41    1.34
   0   5   9   -0.21    0.62
   0   5   9    0.59    0.42
   1   5   9   10.13    0.90
   1   5   9   11.32    1.33
   2   5   9    0.83    0.45
   3   5   9   10.83    0.91
   3   5   9    9.73    1.08
   4   5   9    3.71    0.70
   4   5   9    4.03    0.65
   5   5   9    4.19    0.67
   5   5   9    3.86    0.73
   6   5   9    1.53    0.59
   6   5   9    1.13    0.62
   7   5   9    0.76    0.67
   7   5   9    0.57    0.59
   8   5   9    2.98    0.87
  -4   6   9   -0.48    0.88
  -3   6   9   -0.19    0.84
  -2   6   9    1.80    0.89
  -1   6   9    7.57    1.17
   0   6   9    4.17    0.94
   0   6   9    5.02    0.62
   1   6   9    3.75    0.93
   1   6   9    4.47    0.60
   2   6   9   10.32    0.90
   3   6   9   12.48    1.00
   4   6   9   13.63    1.06
   5   6   9   -0.15    0.50
   5   6   9    0.40    0.50
   6   6   9    1.67    0.66
   6   6   9    2.79    0.65
   7   6   9    5.46    0.97
   7   6   9    6.29    0.83
   8   6   9    2.54    0.72
   8   6   9    2.65    0.87
  -3   7   9    2.75    1.06
  -2   7   9   -0.24    0.84
  -1   7   9    4.15    1.04
   0   7   9    2.86    0.91
   0   7   9    2.95    0.60
   1   7   9    0.66    0.81
   1   7   9    1.92    0.53
   2   7   9    3.28    0.59
   3   7   9    6.10    0.73
   4   7   9    5.57    0.74
   5   7   9    9.38    0.96
   6   7   9    4.89    0.77
   7   7   9    0.43    0.60
   8   7   9    3.66    0.93
   8   7   9    4.24    0.80
  -2   8   9    0.22    0.99
  -1   8   9    0.95    0.94
  -1   8   9    0.78    0.58
   0   8   9    4.19    1.09
   0   8   9    3.59    0.67
   1   8   9    1.96    0.60
   2   8   9    1.04    0.56
   3   8   9   -0.02    0.51
   4   8   9    1.75    0.59
   5   8   9    2.49    0.66
   6   8   9    1.46    0.65
   7   8   9    1.38    0.69
  -1   9   9    1.36    1.05
  -1   9   9    0.76    0.63
   0   9   9    2.38    0.68
   1   9   9    2.79    0.69
   2   9   9    7.06    0.87
   3   9   9    2.00    0.63
   4   9   9   -0.01    0.55
   5   9   9    4.66    0.79
   6   9   9    0.68    0.64
   0  10   9    0.27    0.68
   1  10   9    0.98    0.70
   2  10   9    1.89    0.72
   3  10   9    3.06    0.76
   4  10   9    1.20    0.66
   0   4 -10    7.53    1.52
  -1   4 -10    1.76    1.09
  -2   4 -10    3.01    1.13
  -3   4 -10    1.07    1.02
  -4   4 -10    1.29    1.06
   1   3 -10    2.82    1.27
   0   3 -10    1.77    1.14
  -1   3 -10    1.51    1.04
  -2   3 -10    5.00    1.20
  -3   3 -10    5.63    1.23
  -4   3 -10    1.21    0.70
  -4   3 -10    0.90    0.94
  -5   3 -10    0.02    0.66
   5  -3  10    1.02    0.81
   2   2 -10    3.14    1.29
   1   2 -10    3.43    1.22
   0   2 -10    0.91    1.00
  -1   2 -10    1.23    0.99
  -2   2 -10    5.64    1.19
  -3   2 -10    0.04    0.86
  -4   2 -10    2.39    0.69
   4  -2  10    2.11    0.80
  -5   2 -10    0.20    0.66
   5  -2  10    0.37    0.73
  -6   2 -10    2.91    0.80
   6  -2  10    1.50    0.83
   3   1 -10    0.67    1.13
   2   1 -10   14.41    1.90
   1   1 -10    3.52    1.20
   0   1 -10    7.12    1.34
  -1   1 -10    5.31    1.16
  -2   1 -10    3.39    0.98
  -3   1 -10    9.53    1.38
  -3   1 -10   11.87    1.04
   3  -1  10    8.99    1.25
   4  -1  10    4.18    0.92
   5  -1  10    4.40    0.94
  -6   1 -10    2.28    0.70
   6  -1  10    0.67    0.73
  -7   1 -10    3.08    0.80
   7  -1  10    2.00    0.93
   3   0 -10    1.55    1.00
  -3   0  10    1.54    0.83
   2   0 -10    9.29    1.55
   1   0 -10    1.11    0.90
   0   0 -10    6.64    1.25
  -1   0 -10    6.63    1.21
  -2   0 -10    2.81    0.91
   3   0  10    3.97    0.85
   4   0  10    6.40    1.01
   5   0  10    5.83    1.03
   6   0  10    2.00    0.81
   7   0  10    0.83    0.77
   3  -1 -10    1.78    0.92
  -3   1  10    1.87    0.86
   2  -1 -10    1.20    0.89
  -2   1  10    0.54    0.73
   1  -1 -10    4.58    1.06
  -1   1  10    3.65    0.82
   0  -1 -10   12.61    1.54
  -1  -1 -10    3.80    0.97
  -2  -1 -10    3.69    0.91
   3   1  10    1.69    0.67
   4   1  10    2.43    0.72
   5   1  10    4.21    0.90
   6   1  10    3.19    0.85
   7   1  10    3.99    0.95
   8   1  10    1.00    0.78
  -4   2  10    1.90    0.95
  -3   2  10    5.55    1.11
  -2   2  10   11.84    1.40
   1  -2 -10    0.61    0.71
  -1   2  10    0.01    0.64
   0  -2 -10    2.51    0.83
   0   2  10    1.49    0.70
  -1  -2 -10    8.36    1.16
   1   2  10    5.06    0.91
  -2  -2 -10   15.45    1.58
   3   2  10    4.89    0.90
   4   2  10    1.93    0.66
   5   2  10    1.30    0.64
   6   2  10    3.98    0.86
   7   2  10    4.63    0.95
   8   2  10    4.57    1.14
  -4   3  10    0.83    0.96
  -3   3  10    2.54    0.88
  -2   3  10    3.43    0.91
  -1   3  10    3.19    0.84
   0  -3 -10    2.05    0.74
   0   3  10    2.63    0.79
  -1  -3 -10    2.21    0.74
   1   3  10    3.49    0.81
  -2  -3 -10   11.99    1.31
   2   3  10    9.45    1.30
   3   3  10    3.72    0.78
   4   3  10    4.02    0.81
   5   3  10    1.23    0.62
   6   3  10    1.84    0.69
   7   3  10    1.61    0.82
   8   3  10    4.43    1.04
  -3   4  10    1.32    0.84
  -2   4  10    4.09    1.00
  -1   4  10    2.99    0.86
   0   4  10    6.64    1.07
   1   4  10    0.31    0.67
   1   4  10    0.70    0.46
  -2  -4 -10   10.73    1.25
   2   4  10   11.17    0.95
   2   4  10   10.13    1.37
   3   4  10    1.57    0.60
   3   4  10    2.14    0.56
   4   4  10    1.27    0.60
   4   4  10    2.11    0.59
   5   4  10   10.07    0.97
   5   4  10    9.69    1.16
   6   4  10    1.69    0.73
   7   4  10    1.08    0.72
   8   4  10    0.04    0.76
  -3   5  10    2.00    0.95
  -2   5  10    0.07    0.78
  -1   5  10    0.70    0.76
   0   5  10    7.20    1.11
   1   5  10    2.09    0.53
   1   5  10    1.99    0.80
   2   5  10    1.65    0.55
   3   5  10    8.13    0.84
   4   5  10    3.86    0.78
   4   5  10    4.56    0.70
   5   5  10    6.40    0.95
   5   5  10    7.58    0.86
   6   5  10    0.28    0.60
   6   5  10    0.70    0.63
   7   5  10    1.99    0.80
   8   5  10    4.54    1.04
  -3   6  10    2.00    1.04
  -2   6  10    0.42    0.88
  -1   6  10    2.67    0.95
   0   6  10    7.09    1.17
   1   6  10    5.80    1.11
   1   6  10    6.25    0.74
   2   6  10    1.55    0.54
   3   6  10    1.90    0.60
   4   6  10    0.87    0.59
   5   6  10    8.74    0.93
   6   6  10    4.05    0.85
   6   6  10    4.98    0.79
   7   6  10    1.42    0.73
   7   6  10    1.36    0.70
  -2   7  10    2.14    1.02
  -1   7  10    1.54    0.94
   0   7  10    0.79    0.85
   1   7  10    2.78    0.61
   1   7  10    2.45    0.96
   2   7  10    2.18    0.61
   3   7  10    5.24    0.75
   4   7  10    1.28    0.58
   5   7  10    4.14    0.76
   6   7  10    1.89    0.68
   7   7  10    2.86    0.73
  -1   8  10    2.33    1.03
   0   8  10    2.10    1.02
   1   8  10    0.72    0.59
   2   8  10    2.32    0.63
   3   8  10    4.81    0.76
   4   8  10    2.31    0.67
   5   8  10   -0.25    0.60
   6   8  10    2.89    0.77
   0   9  10    2.12    0.72
   1   9  10    1.68    0.69
   2   9  10    2.38    0.70
   3   9  10    2.46    0.71
   4   9  10    2.80    0.71
   5   9  10    0.91    0.66
   0   2 -11    4.34    1.30
  -1   2 -11    0.37    1.02
  -2   2 -11    2.22    1.10
  -3   2 -11    6.07    1.29
  -4   2 -11    5.51    1.24
  -5   2 -11    1.73    0.77
   1   1 -11    1.45    1.24
   0   1 -11    0.60    1.07
  -1   1 -11    4.79    1.23
  -2   1 -11    7.39    1.35
  -3   1 -11    0.62    0.95
  -4   1 -11   -0.03    0.58
  -4   1 -11    0.22    0.88
   4  -1  11   -0.12    0.66
  -5   1 -11    3.96    0.77
   5  -1  11    3.25    0.95
  -6   1 -11    5.14    0.87
   6  -1  11    5.23    1.07
   1   0 -11    2.12    1.12
   0   0 -11    1.25    1.05
  -1   0 -11    2.61    1.01
  -2   0 -11    1.65    0.97
  -3   0 -11    1.88    0.94
   4   0  11    1.24    0.73
   5   0  11    0.16    0.64
   6   0  11    1.71    0.81
   2  -1 -11    8.64    1.45
   1  -1 -11    8.19    1.43
   0  -1 -11    1.83    0.98
  -1  -1 -11    2.51    0.95
  -2  -1 -11    6.83    1.18
  -3  -1 -11    7.07    1.19
   3   1  11    5.53    0.99
   4   1  11    0.81    0.67
   5   1  11    2.78    0.80
   6   1  11    1.51    0.77
   7   1  11    1.00    0.81
  -2   2  11    1.15    0.84
  -1   2  11    1.20    0.78
   0  -2 -11    6.98    1.24
  -1  -2 -11    3.09    0.94
  -2  -2 -11    3.53    0.96
  -3  -2 -11    3.52    0.94
   3   2  11    2.59    0.78
   4   2  11    5.14    0.94
   5   2  11    2.31    0.76
   6   2  11    0.99    0.72
   7   2  11    0.42    0.69
  -2   3  11    1.68    0.88
  -1   3  11    1.09    0.81
   0   3  11    4.21    0.93
  -1  -3 -11    3.83    0.95
   1   3  11    3.25    0.86
  -2  -3 -11    0.35    0.67
   3   3  11    3.43    0.82
   4   3  11    0.15    0.55
   5   3  11    2.22    0.75
   6   3  11    2.15    0.75
   7   3  11    0.74    0.73
  -2   4  11    3.36    1.00
  -1   4  11    0.53    0.78
   0   4  11    1.50    0.84
   1   4  11    2.57    0.86
   3   4  11    1.46    0.60
   3   4  11    1.54    0.66
   4   4  11    1.33    0.62
   5   4  11    0.63    0.61
   6   4  11    1.18    0.70
   7   4  11    1.18    0.74
  -2   5  11    2.32    1.00
  -1   5  11    1.41    0.87
   0   5  11    0.54    0.82
   1   5  11    0.68    0.80
   2   5  11    8.56    0.88
   3   5  11    0.48    0.57
   4   5  11    0.21    0.57
   5   5  11    0.46    0.59
   5   5  11    0.62    0.60
   6   5  11    1.40    0.68
   7   5  11    1.02    0.70
  -1   6  11    1.18    0.92
   0   6  11    1.71    0.93
   1   6  11    0.72    0.85
   2   6  11    3.51    0.69
   3   6  11    2.98    0.70
   4   6  11    2.66    0.69
   5   6  11    4.87    0.79
   6   6  11    3.33    0.77
   0   7  11    1.37    0.96
   1   7  11    0.32    0.89
   2   7  11    0.35    0.57
   3   7  11    1.83    0.69
   4   7  11   -0.14    0.59
   5   7  11    3.54    0.77
   6   7  11   -0.01    0.63
   2   8  11    0.08    0.65
   3   8  11    2.42    0.70
   4   8  11    0.59    0.63
   5   8  11    3.61    0.80
  -1   0 -12    0.49    1.02
  -2   0 -12    1.43    1.04
  -3   0 -12    4.02    1.13
  -4   0 -12    4.47    1.15
  -1  -1 -12    6.74    1.33
  -2  -1 -12    2.14    0.99
  -3  -1 -12    0.47    0.90
  -4  -1 -12    0.81    0.91
   4   1  12    0.00    0.69
   5   1  12    2.87    0.89
  -1  -2 -12    1.81    0.93
  -2  -2 -12    7.85    1.31
  -3  -2 -12    1.16    0.87
   4   2  12    1.48    0.77
   5   2  12    0.17    0.65
  -3  -3 -12    4.09    0.99
   4   3  12    0.83    0.66
   5   3  12    1.66    0.73
   0   4  12    1.12    0.84
   1   4  12    1.20    0.85
   5   4  12    0.64    0.62
   0   5  12    1.82    0.95
   1   5  12    0.46    0.86
   3   5  12    0.86    0.62
   1   6  12    1.50    0.98
   3   6  12   -0.27    0.59
   4   6  12   -0.05    0.62
   0   0   0    0.00    0.00
;
_shelx_hkl_checksum              89275
_olex2_submission_special_instructions 'No special instructions were received'
#END Tags that were not found in dictionaries
loop_
_space_group_symop_operation_xyz
'x, y, z'
loop_
_atom_site_label
_atom_site_type_symbol
_atom_site_fract_x
_atom_site_fract_y
_atom_site_fract_z
_atom_site_U_iso_or_equiv
_atom_site_adp_type
_atom_site_occupancy
_atom_site_site_symmetry_order
_atom_site_calc_flag
_atom_site_refinement_flags_posn
Br1 Br 0.88604(3) 0.60628(3) -0.24677(3) 0.03622(11) Uani 1 1 d .
S1 S 0.10624(10) 0.39489(10) 0.25609(10) 0.02834(19) Uani 1 1 d .
O1 O 0.0453(3) 0.2625(3) 0.1873(3) 0.0268(5) Uani 1 1 d .
O2 O 0.1376(3) 0.3199(3) 0.4124(3) 0.0374(6) Uani 1 1 d .
O3 O -0.0294(3) 0.5265(3) 0.2358(4) 0.0428(7) Uani 1 1 d .
N1 N -0.7630(4) -0.2355(4) 0.5249(4) 0.0337(7) Uani 1 1 d .
C1 C 0.1510(4) 0.1044(4) 0.2066(4) 0.0247(6) Uani 1 1 d .
H1A H 0.1290 0.0466 0.3231 0.030 Uiso 1 1 calc R
H1B H 0.2865 0.1218 0.1624 0.030 Uiso 1 1 calc R
C2 C 0.0869(4) 0.0021(4) 0.1159(4) 0.0269(7) Uani 1 1 d .
H2 H 0.1558 -0.1073 0.1364 0.032 Uiso 1 1 calc R
C3 C 0.1384(5) 0.0755(5) -0.0679(4) 0.0320(7) Uani 1 1 d .
H3A H 0.1012 -0.0008 -0.1199 0.038 Uiso 1 1 calc R
H3B H 0.0633 0.1796 -0.0919 0.038 Uiso 1 1 calc R
C4 C -0.1224(4) -0.0302(4) 0.1782(4) 0.0283(7) Uani 1 1 d .
H4A H -0.1946 0.0748 0.1498 0.034 Uiso 1 1 calc R
H4B H -0.1521 -0.1056 0.1212 0.034 Uiso 1 1 calc R
C5 C -0.1861(5) -0.1037(5) 0.3597(4) 0.0330(7) Uani 1 1 d .
H5A H -0.1073 -0.2040 0.3903 0.040 Uiso 1 1 calc R
H5B H -0.1678 -0.0242 0.4175 0.040 Uiso 1 1 calc R
C6 C -0.3878(4) -0.1468(4) 0.4133(4) 0.0257(6) Uani 1 1 d .
C7 C -0.5239(5) -0.0566(4) 0.4994(4) 0.0285(7) Uani 1 1 d .
H7 H -0.4922 0.0384 0.5222 0.034 Uiso 1 1 calc R
C8 C -0.7060(5) -0.1046(4) 0.5523(4) 0.0315(7) Uani 1 1 d .
H8 H -0.7964 -0.0406 0.6120 0.038 Uiso 1 1 calc R
C9 C -0.6313(5) -0.3203(5) 0.4385(5) 0.0341(8) Uani 1 1 d .
H9 H -0.6673 -0.4138 0.4162 0.041 Uiso 1 1 calc R
C10 C -0.4470(5) -0.2807(4) 0.3801(5) 0.0318(7) Uani 1 1 d .
H10 H -0.3604 -0.3444 0.3173 0.038 Uiso 1 1 calc R
C11 C 0.3420(4) 0.1102(4) -0.1460(4) 0.0286(7) Uani 1 1 d .
C12 C 0.3913(5) 0.2542(4) -0.2615(5) 0.0369(8) Uani 1 1 d .
H12 H 0.2961 0.3331 -0.2898 0.044 Uiso 1 1 calc R
C13 C 0.5782(6) 0.2869(5) -0.3381(5) 0.0427(10) Uani 1 1 d .
H13 H 0.6089 0.3871 -0.4180 0.051 Uiso 1 1 calc R
C14 C 0.7174(5) 0.1753(5) -0.2985(5) 0.0391(9) Uani 1 1 d .
H14 H 0.8449 0.1976 -0.3501 0.047 Uiso 1 1 calc R
C15 C 0.6707(5) 0.0307(5) -0.1833(5) 0.0383(8) Uani 1 1 d .
H15 H 0.7666 -0.0478 -0.1558 0.046 Uiso 1 1 calc R
C16 C 0.4852(5) -0.0019(4) -0.1068(4) 0.0333(7) Uani 1 1 d .
H16 H 0.4554 -0.1021 -0.0267 0.040 Uiso 1 1 calc R
C17 C 0.3211(5) 0.4547(4) 0.1197(4) 0.0234(7) Uani 1 1 d .
C18 C 0.4861(5) 0.3972(4) 0.1652(4) 0.0287(8) Uani 1 1 d .
H18 H 0.4831 0.3278 0.2702 0.034 Uiso 1 1 calc R
C19 C 0.6566(5) 0.4425(4) 0.0549(4) 0.0303(8) Uani 1 1 d .
H19 H 0.7712 0.4050 0.0839 0.036 Uiso 1 1 calc R
C20 C 0.6562(5) 0.5421(4) -0.0966(5) 0.0283(8) Uani 1 1 d .
C21 C 0.4910(5) 0.5989(4) -0.1414(5) 0.0314(8) Uani 1 1 d .
H21 H 0.4938 0.6681 -0.2465 0.038 Uiso 1 1 calc R
C22 C 0.3229(5) 0.5546(4) -0.0331(5) 0.0307(8) Uani 1 1 d .
H22 H 0.2087 0.5924 -0.0629 0.037 Uiso 1 1 calc R
loop_
_atom_site_aniso_label
_atom_site_aniso_U_11
_atom_site_aniso_U_22
_atom_site_aniso_U_33
_atom_site_aniso_U_23
_atom_site_aniso_U_13
_atom_site_aniso_U_12
Br1 0.02246(15) 0.0462(2) 0.03332(19) -0.00281(14) -0.00196(13) -0.00437(13)
S1 0.0185(4) 0.0347(5) 0.0329(5) -0.0142(4) -0.0020(4) -0.0022(3)
O1 0.0210(11) 0.0299(12) 0.0318(13) -0.0094(10) -0.0090(10) -0.0005(9)
O2 0.0312(12) 0.0572(17) 0.0266(13) -0.0173(12) -0.0006(10) -0.0123(11)
O3 0.0235(12) 0.0410(15) 0.0646(18) -0.0260(13) -0.0015(12) 0.0034(10)
N1 0.0228(13) 0.0467(18) 0.0296(16) -0.0079(14) -0.0054(12) -0.0011(13)
C1 0.0225(14) 0.0282(16) 0.0236(16) -0.0047(12) -0.0075(12) -0.0030(12)
C2 0.0236(15) 0.0325(17) 0.0257(17) -0.0089(14) -0.0055(13) -0.0038(12)
C3 0.0242(15) 0.047(2) 0.0271(17) -0.0109(16) -0.0066(14) -0.0067(14)
C4 0.0234(14) 0.0381(19) 0.0258(16) -0.0081(14) -0.0076(13) -0.0077(13)
C5 0.0273(16) 0.044(2) 0.0277(18) -0.0063(15) -0.0052(14) -0.0099(14)
C6 0.0240(15) 0.0307(17) 0.0196(15) -0.0013(13) -0.0047(12) -0.0043(12)
C7 0.0353(17) 0.0284(17) 0.0225(17) -0.0059(13) -0.0097(14) 0.0001(13)
C8 0.0255(16) 0.042(2) 0.0259(17) -0.0111(15) -0.0080(13) 0.0106(14)
C9 0.0275(17) 0.036(2) 0.041(2) -0.0126(17) -0.0062(16) -0.0091(15)
C10 0.0242(16) 0.0331(19) 0.039(2) -0.0159(16) -0.0017(15) -0.0009(14)
C11 0.0253(15) 0.0379(19) 0.0256(17) -0.0173(14) -0.0001(13) -0.0054(13)
C12 0.0332(18) 0.034(2) 0.039(2) -0.0106(16) -0.0022(16) 0.0029(15)
C13 0.045(2) 0.033(2) 0.042(2) -0.0093(17) 0.0072(18) -0.0133(17)
C14 0.0275(17) 0.053(2) 0.039(2) -0.0201(18) 0.0017(16) -0.0117(16)
C15 0.0255(16) 0.055(2) 0.037(2) -0.0174(18) -0.0084(15) 0.0043(15)
C16 0.0309(17) 0.038(2) 0.0287(18) -0.0067(15) -0.0051(14) -0.0039(14)
C17 0.0175(15) 0.0256(19) 0.0282(19) -0.0109(15) -0.0042(14) 0.0006(14)
C18 0.0243(16) 0.033(2) 0.0263(18) -0.0011(14) -0.0075(14) -0.0029(14)
C19 0.0185(15) 0.037(2) 0.034(2) -0.0052(16) -0.0099(14) 0.0023(14)
C20 0.0207(15) 0.030(2) 0.032(2) -0.0082(16) -0.0027(14) -0.0015(14)
C21 0.0263(17) 0.036(2) 0.0281(19) 0.0003(15) -0.0100(15) 0.0010(15)
C22 0.0213(16) 0.033(2) 0.038(2) -0.0050(16) -0.0125(15) 0.0024(14)
loop_
_atom_type_symbol
_atom_type_description
_atom_type_scat_dispersion_real
_atom_type_scat_dispersion_imag
_atom_type_scat_source
C C 0.0033 0.0016 'International Tables Vol C Tables 4.2.6.8 and 6.1.1.4'
H H 0.0000 0.0000 'International Tables Vol C Tables 4.2.6.8 and 6.1.1.4'
Br Br -0.2901 2.4595 'International Tables Vol C Tables 4.2.6.8 and 6.1.1.4'
N N 0.0061 0.0033 'International Tables Vol C Tables 4.2.6.8 and 6.1.1.4'
O O 0.0106 0.0060 'International Tables Vol C Tables 4.2.6.8 and 6.1.1.4'
S S 0.1246 0.1234 'International Tables Vol C Tables 4.2.6.8 and 6.1.1.4'
loop_
_geom_angle_atom_site_label_1
_geom_angle_atom_site_label_2
_geom_angle_atom_site_label_3
_geom_angle
O1 S1 C17 103.10(15)
O2 S1 O1 109.74(14)
O2 S1 C17 108.73(16)
O3 S1 O1 104.31(15)
O3 S1 O2 120.33(16)
O3 S1 C17 109.23(17)
C1 O1 S1 116.6(2)
C8 N1 C9 115.8(3)
O1 C1 H1A 110.0
O1 C1 H1B 110.0
O1 C1 C2 108.5(3)
H1A C1 H1B 108.4
C2 C1 H1A 110.0
C2 C1 H1B 110.0
C1 C2 H2 106.8
C1 C2 C3 112.3(3)
C1 C2 C4 112.9(3)
C3 C2 H2 106.8
C3 C2 C4 110.7(3)
C4 C2 H2 106.8
C2 C3 H3A 108.2
C2 C3 H3B 108.2
H3A C3 H3B 107.4
C11 C3 C2 116.3(3)
C11 C3 H3A 108.2
C11 C3 H3B 108.2
C2 C4 H4A 108.7
C2 C4 H4B 108.7
H4A C4 H4B 107.6
C5 C4 C2 114.4(3)
C5 C4 H4A 108.7
C5 C4 H4B 108.7
C4 C5 H5A 109.1
C4 C5 H5B 109.1
H5A C5 H5B 107.8
C6 C5 C4 112.6(3)
C6 C5 H5A 109.1
C6 C5 H5B 109.1
C7 C6 C5 121.8(3)
C7 C6 C10 116.5(3)
C10 C6 C5 121.8(3)
C6 C7 H7 120.1
C8 C7 C6 119.9(3)
C8 C7 H7 120.1
N1 C8 C7 124.0(3)
N1 C8 H8 118.0
C7 C8 H8 118.0
N1 C9 H9 118.0
N1 C9 C10 124.1(3)
C10 C9 H9 118.0
C6 C10 H10 120.1
C9 C10 C6 119.7(3)
C9 C10 H10 120.1
C12 C11 C3 120.4(3)
C12 C11 C16 117.7(3)
C16 C11 C3 121.9(3)
C11 C12 H12 119.3
C11 C12 C13 121.4(3)
C13 C12 H12 119.3
C12 C13 H13 119.9
C14 C13 C12 120.2(4)
C14 C13 H13 119.9
C13 C14 H14 120.4
C13 C14 C15 119.2(3)
C15 C14 H14 120.4
C14 C15 H15 119.7
C14 C15 C16 120.7(4)
C16 C15 H15 119.7
C11 C16 H16 119.6
C15 C16 C11 120.8(3)
C15 C16 H16 119.6
C18 C17 S1 119.5(3)
C22 C17 S1 119.3(3)
C22 C17 C18 121.2(3)
C17 C18 H18 120.4
C17 C18 C19 119.2(3)
C19 C18 H18 120.4
C18 C19 H19 120.5
C20 C19 C18 119.0(3)
C20 C19 H19 120.5
C19 C20 Br1 119.5(3)
C19 C20 C21 121.5(3)
C21 C20 Br1 118.9(3)
C20 C21 H21 120.2
C22 C21 C20 119.6(3)
C22 C21 H21 120.2
C17 C22 H22 120.3
C21 C22 C17 119.5(3)
C21 C22 H22 120.3
loop_
_geom_bond_atom_site_label_1
_geom_bond_atom_site_label_2
_geom_bond_distance
Br1 C20 1.891(4)
S1 O1 1.573(2)
S1 O2 1.425(3)
S1 O3 1.419(3)
S1 C17 1.755(4)
O1 C1 1.462(4)
N1 C8 1.335(5)
N1 C9 1.337(5)
C1 H1A 0.9900
C1 H1B 0.9900
C1 C2 1.518(4)
C2 H2 1.0000
C2 C3 1.531(5)
C2 C4 1.534(4)
C3 H3A 0.9900
C3 H3B 0.9900
C3 C11 1.511(4)
C4 H4A 0.9900
C4 H4B 0.9900
C4 C5 1.518(5)
C5 H5A 0.9900
C5 H5B 0.9900
C5 C6 1.502(4)
C6 C7 1.381(5)
C6 C10 1.391(5)
C7 H7 0.9500
C7 C8 1.378(5)
C8 H8 0.9500
C9 H9 0.9500
C9 C10 1.373(5)
C10 H10 0.9500
C11 C12 1.375(5)
C11 C16 1.391(5)
C12 H12 0.9500
C12 C13 1.395(5)
C13 H13 0.9500
C13 C14 1.368(6)
C14 H14 0.9500
C14 C15 1.374(6)
C15 H15 0.9500
C15 C16 1.385(5)
C16 H16 0.9500
C17 C18 1.386(5)
C17 C22 1.382(5)
C18 H18 0.9500
C18 C19 1.395(5)
C19 H19 0.9500
C19 C20 1.375(5)
C20 C21 1.384(5)
C21 H21 0.9500
C21 C22 1.374(5)
C22 H22 0.9500
loop_
_geom_hbond_atom_site_label_D
_geom_hbond_atom_site_label_H
_geom_hbond_atom_site_label_A
_geom_hbond_distance_DH
_geom_hbond_distance_HA
_geom_hbond_distance_DA
_geom_hbond_angle_DHA
_geom_hbond_site_symmetry_A
C10 H10 O3 0.95 2.57 3.425(4) 149.9 1_545
C19 H19 O1 0.95 2.50 3.443(4) 170.3 1_655
C19 H19 O3 0.95 2.69 3.398(5) 131.6 1_655
loop_
_geom_torsion_atom_site_label_1
_geom_torsion_atom_site_label_2
_geom_torsion_atom_site_label_3
_geom_torsion_atom_site_label_4
_geom_torsion
Br1 C20 C21 C22 -179.4(3)
S1 O1 C1 C2 -173.4(2)
S1 C17 C18 C19 178.7(3)
S1 C17 C22 C21 -178.6(3)
O1 S1 C17 C18 -103.8(3)
O1 S1 C17 C22 74.3(3)
O1 C1 C2 C3 66.4(3)
O1 C1 C2 C4 -59.7(3)
O2 S1 O1 C1 -44.2(2)
O2 S1 C17 C18 12.6(3)
O2 S1 C17 C22 -169.2(3)
O3 S1 O1 C1 -174.3(2)
O3 S1 C17 C18 145.7(3)
O3 S1 C17 C22 -36.1(3)
N1 C9 C10 C6 1.4(6)
C1 C2 C3 C11 53.9(4)
C1 C2 C4 C5 -53.2(4)
C2 C3 C11 C12 -136.9(3)
C2 C3 C11 C16 44.3(4)
C2 C4 C5 C6 -175.0(3)
C3 C2 C4 C5 179.8(3)
C3 C11 C12 C13 -178.4(3)
C3 C11 C16 C15 178.2(3)
C4 C2 C3 C11 -178.8(3)
C4 C5 C6 C7 -107.8(4)
C4 C5 C6 C10 72.9(4)
C5 C6 C7 C8 -177.1(3)
C5 C6 C10 C9 176.7(3)
C6 C7 C8 N1 -0.5(5)
C7 C6 C10 C9 -2.6(5)
C8 N1 C9 C10 0.4(6)
C9 N1 C8 C7 -0.9(5)
C10 C6 C7 C8 2.2(5)
C11 C12 C13 C14 -0.3(6)
C12 C11 C16 C15 -0.6(5)
C12 C13 C14 C15 0.3(6)
C13 C14 C15 C16 -0.5(6)
C14 C15 C16 C11 0.6(5)
C16 C11 C12 C13 0.5(5)
C17 S1 O1 C1 71.6(2)
C17 C18 C19 C20 -0.4(5)
C18 C17 C22 C21 -0.5(5)
C18 C19 C20 Br1 179.4(3)
C18 C19 C20 C21 0.3(5)
C19 C20 C21 C22 -0.3(6)
C20 C21 C22 C17 0.4(5)
C22 C17 C18 C19 0.6(5)
