#------------------------------------------------------------------------------
#$Date: 2016-03-22 22:13:18 +0200 (Tue, 22 Mar 2016) $
#$Revision: 179035 $
#$URL: svn://www.crystallography.net/cod/cif/4/12/33/4123378.cif $
#------------------------------------------------------------------------------
#
# This file is available in the Crystallography Open Database (COD),
# http://www.crystallography.net/
#
# All data on this site have been placed in the public domain by the
# contributors.
#
data_4123378
loop_
_publ_author_name
'Panda, Manas K.'
'Run\<cevski, Tom\<ce'
'Husain, Ahmad'
'Dinnebier, Robert E.'
'Naumov, Pan\<ce'
_publ_section_title
;
 Perpetually self-propelling chiral single crystals.
;
_journal_issue                   5
_journal_name_full               'Journal of the American Chemical Society'
_journal_page_first              1895
_journal_page_last               1902
_journal_paper_doi               10.1021/ja5111927
_journal_volume                  137
_journal_year                    2015
_chemical_absolute_configuration L
_chemical_formula_moiety         'C5 H7 N O3'
_chemical_formula_sum            'C5 H7 N O3'
_chemical_formula_weight         129.12
_chemical_name_common            'L-pyroglutamic acid'
_chemical_name_systematic
;
 ?
;
_space_group_crystal_system      orthorhombic
_space_group_IT_number           19
_space_group_name_Hall           'P 2ac 2ab'
_space_group_name_H-M_alt        'P 21 21 21'
_symmetry_space_group_name_Hall  'P 2ac 2ab'
_symmetry_space_group_name_H-M   'P 21 21 21'
_atom_sites_solution_hydrogens   geom
_audit_creation_method           SHELXL-2013
_cell_angle_alpha                90
_cell_angle_beta                 90
_cell_angle_gamma                90
_cell_formula_units_Z            4
_cell_length_a                   4.4135(7)
_cell_length_b                   9.1662(14)
_cell_length_c                   14.753(2)
_cell_measurement_reflns_used    1883
_cell_measurement_temperature    353(2)
_cell_measurement_theta_max      28.90
_cell_measurement_theta_min      2.76
_cell_volume                     596.83(15)
_computing_cell_refinement       'Bruker SAINT'
_computing_data_collection       'Bruker APEX2'
_computing_data_reduction        'Bruker SAINT'
_computing_structure_refinement  'SHELXL-2013 (Sheldrick, 2013)'
_computing_structure_solution    'SHELXS-97 (Sheldrick, 2008)'
_diffrn_ambient_temperature      353(2)
_diffrn_measured_fraction_theta_full 1.000
_diffrn_measured_fraction_theta_max 0.975
_diffrn_measurement_device_type  'Bruker APEX-II CCD'
_diffrn_measurement_method       '\f and \w scans'
_diffrn_radiation_source         'sealed tube'
_diffrn_radiation_type           MoK\a
_diffrn_radiation_wavelength     0.71073
_diffrn_reflns_av_R_equivalents  0.0120
_diffrn_reflns_av_unetI/netI     0.0156
_diffrn_reflns_Laue_measured_fraction_full 1.000
_diffrn_reflns_Laue_measured_fraction_max 0.975
_diffrn_reflns_limit_h_max       6
_diffrn_reflns_limit_h_min       -6
_diffrn_reflns_limit_k_max       13
_diffrn_reflns_limit_k_min       -13
_diffrn_reflns_limit_l_max       21
_diffrn_reflns_limit_l_min       -21
_diffrn_reflns_number            4978
_diffrn_reflns_point_group_measured_fraction_full 1.000
_diffrn_reflns_point_group_measured_fraction_max 0.956
_diffrn_reflns_theta_full        25.242
_diffrn_reflns_theta_max         32.277
_diffrn_reflns_theta_min         2.616
_exptl_absorpt_coefficient_mu    0.120
_exptl_absorpt_correction_type   multi-scan
_exptl_absorpt_process_details   sadabs
_exptl_crystal_colour            colourless
_exptl_crystal_density_diffrn    1.437
_exptl_crystal_description       rod
_exptl_crystal_F_000             272
_exptl_crystal_size_max          0.235
_exptl_crystal_size_mid          0.085
_exptl_crystal_size_min          0.059
_exptl_transmission_factor_max   0.7464
_exptl_transmission_factor_min   0.7002
_refine_diff_density_max         0.310
_refine_diff_density_min         -0.192
_refine_diff_density_rms         0.039
_refine_ls_abs_structure_details
;
 Flack x determined using 452 quotients [(I+)-(I-)]/[(I+)+(I-)]
 (Parsons and Flack (2004), Acta Cryst. A60, s61).
;
_refine_ls_extinction_method     none
_refine_ls_goodness_of_fit_ref   1.064
_refine_ls_hydrogen_treatment    constr
_refine_ls_matrix_type           full
_refine_ls_number_parameters     82
_refine_ls_number_reflns         2028
_refine_ls_number_restraints     0
_refine_ls_restrained_S_all      1.064
_refine_ls_R_factor_all          0.0820
_refine_ls_R_factor_gt           0.0576
_refine_ls_shift/su_max          0.000
_refine_ls_shift/su_mean         0.000
_refine_ls_structure_factor_coef Fsqd
_refine_ls_weighting_details
'w=1/[\s^2^(Fo^2^)+(0.0822P)^2^+0.1066P] where P=(Fo^2^+2Fc^2^)/3'
_refine_ls_weighting_scheme      calc
_refine_ls_wR_factor_gt          0.1644
_refine_ls_wR_factor_ref         0.1797
_reflns_Friedel_coverage         0.647
_reflns_Friedel_fraction_full    1.000
_reflns_Friedel_fraction_max     0.929
_reflns_number_gt                1403
_reflns_number_total             2028
_reflns_threshold_expression     'I > 2\s(I)'
_cod_data_source_file            ja5111927_si_018.cif
_cod_data_source_block           LPGA353K
_cod_depositor_comments
'Adding full bibliography for 4123369--4123385.cif.'
_cod_original_cell_volume        596.85(16)
_cod_database_code               4123378
#BEGIN Tags that were not found in dictionaries:
_shelx_space_group_comment
;
The symmetry employed for this shelxl refinement is uniquely defined
by the following loop, which should always be used as a source of
symmetry information in preference to the above space-group names.
They are only intended as comments.
;
_shelx_estimated_absorpt_t_min   0.972
_shelx_estimated_absorpt_t_max   0.993
_shelxl_version_number           2013-4
_shelx_res_file
;
TITL LPGA353K in P2(1)2(1)2(1)
CELL 0.71073 4.4135 9.1662 14.7534 90.000 90.000 90.000
ZERR 4.0000 0.0007 0.0014 0.0024 0.000 0.000 0.000
LATT -1
SYMM 0.5-X, -Y, 0.5+Z
SYMM 0.5+X, 0.5-Y, -Z
SYMM -X, 0.5+Y, 0.5-Z
SFAC C H N O
UNIT 20 28 4 12
MERG 2
OMIT -1 180
FMAP 2
GRID
PLAN 2 0 0
TEMP 80
SIZE 0.059 0.085 0.235
HTAB
BOND $H
CONF
EQIV $1 -x+3/2, -y+1, z+1/2
HTAB O1 O3_$1
EQIV $2 -x+1, y+1/2, -z+3/2
HTAB C4 O3_$2
EQIV $3 x-1/2, -y+3/2, -z+2
HTAB C3 O1_$3
HTAB O1 O3_$1
HTAB C4 O3_$2
HTAB O1 O3_$1
HTAB C4 O3_$2
HTAB O1 O3_$1
HTAB C4 O3_$2
EQIV $4 x+1/2, -y+1/2, -z+2
HTAB N1 O2_$4
HTAB O1 O3_$1
HTAB C4 O3_$2
HTAB N1 O2_$4
L.S. 4
ACTA
WGHT    0.082200    0.106600
FVAR       0.41307
O1    4    1.047866    0.569737    1.082048    11.00000    0.11698    0.12891 =
         0.05041   -0.01341    0.00696   -0.04759
AFIX  83
H1    2    0.982938    0.566760    1.134091    11.00000   -1.20000
AFIX   0
O3    4    0.619199    0.367144    0.743213    11.00000    0.13670    0.07427 =
         0.04559   -0.00218   -0.00408   -0.02799
O2    4    0.729986    0.387481    1.061887    11.00000    0.18914    0.08531 =
         0.05768   -0.00431    0.03168   -0.05668
C4    1    0.889282    0.582866    0.795483    11.00000    0.08706    0.06105 =
         0.05445    0.01590   -0.00363   -0.00763
AFIX  23
H4A   2    0.733669    0.650576    0.775836    11.00000   -1.20000
H4B   2    1.057919    0.587536    0.753420    11.00000   -1.20000
AFIX   0
C3    1    0.991821    0.617478    0.890647    11.00000    0.10727    0.06461 =
         0.05568    0.01167   -0.00592   -0.02556
AFIX  23
H3A   2    0.841858    0.676291    0.921872    11.00000   -1.20000
H3B   2    1.182717    0.669906    0.889901    11.00000   -1.20000
AFIX   0
C2    1    1.028262    0.469187    0.936847    11.00000    0.06134    0.07323 =
         0.04384    0.00381    0.00279    0.01258
AFIX  13
H2    2    1.241286    0.439177    0.934940    11.00000   -1.20000
AFIX   0
C1    1    0.917295    0.469213    1.033928    11.00000    0.07594    0.05124 =
         0.04278    0.00595   -0.00026    0.00707
C5    1    0.767295    0.432057    0.801283    11.00000    0.07785    0.05161 =
         0.04010    0.00178    0.00822    0.00413
N1    3    0.851531    0.375448    0.880108    11.00000    0.12337    0.04454 =
         0.04152    0.00375    0.00132    0.00357
AFIX  43
H1A   2    0.803159    0.288254    0.896038    11.00000   -1.20000
AFIX   0
HKLF 4

REM  LPGA353K in P2(1)2(1)2(1)
REM R1 =  0.0576 for    1403 Fo > 4sig(Fo)  and  0.0820 for all    2028 data
REM     82 parameters refined using      0 restraints

END

WGHT      0.0825      0.1059

REM Instructions for potential hydrogen bonds
HTAB O1 O3_$1
HTAB C4 O3_$2
HTAB N1 O2_$4

REM Highest difference peak  0.310,  deepest hole -0.192,  1-sigma level  0.039
Q1    1   0.9094  0.3809  1.0761  11.00000  0.05    0.31
Q2    1   1.0785  0.4765  1.0914  11.00000  0.05    0.26
;
_shelx_res_checksum              54543
_shelx_hkl_file
;
   1   0   0   -0.02    0.02
   2   0   0   25.32    0.31
  -2   0   0   24.96    0.29
  -2   0   0   25.06    0.29
  -3   0   0   -0.01    0.03
  -3   0   0    0.00    0.03
  -4   0   0    0.16    0.05
  -4   0   0    0.21    0.05
  -5   0   0    0.08    0.06
  -6   0   0    0.09    0.07
   0   1   0   -1.02    0.01
   1  -1   0  668.33    6.14
  -2  -1   0    1.54    0.07
  -2  -1   0    1.61    0.06
  -2   1   0    1.41    0.06
  -2   1   0    1.56    0.07
   2  -1   0    1.49    0.06
   2   1   0    1.46    0.07
  -3   1   0    0.09    0.04
  -3  -1   0    0.03    0.03
  -3  -1   0    0.07    0.04
  -3   1   0    0.12    0.04
  -4   1   0   -0.05    0.04
  -4  -1   0   -0.10    0.04
   4  -1   0   -0.03    0.04
  -4   1   0    0.06    0.05
  -5  -1   0    0.08    0.06
  -5   1   0    0.18    0.06
  -6  -1   0   -0.09    0.06
   0   2   0 1000.00    9.76
   1   2   0  241.87    2.20
  -1  -2   0  240.80    2.08
  -1   2   0  235.82    2.19
   1  -2   0  240.11    2.21
   1  -2   0  241.24    2.19
  -2  -2   0   34.55    0.39
   2  -2   0   34.59    0.41
  -2   2   0   34.71    0.36
  -2   2   0   35.48    0.41
   2  -2   0   34.78    0.38
  -2  -2   0   35.34    0.38
  -3  -2   0    2.01    0.08
  -3   2   0    2.03    0.09
  -3  -2   0    2.03    0.09
  -3   2   0    2.09    0.08
   3  -2   0    2.00    0.09
  -4   2   0    0.41    0.06
  -4  -2   0    0.32    0.06
   4  -2   0    0.32    0.07
  -4   2   0    0.32    0.06
  -5  -2   0    0.02    0.06
   5  -2   0    0.06    0.06
  -6  -2   0    0.03    0.07
   0   3   0   -0.03    0.01
   0   3   0   -0.06    0.02
   0  -3   0   -0.02    0.02
   1  -3   0  140.80    1.34
  -1   3   0  140.68    1.38
  -1  -3   0  141.76    1.31
  -1  -3   0  143.03    1.26
  -2  -3   0    0.16    0.04
   2  -3   0    0.23    0.03
   2  -3   0    0.19    0.04
  -2   3   0    0.23    0.04
  -2   3   0    0.19    0.03
  -2  -3   0    0.31    0.03
   3  -3   0    1.77    0.09
  -3   3   0    1.68    0.09
  -3   3   0    1.67    0.07
   3  -3   0    1.56    0.07
  -3  -3   0    1.52    0.09
  -4   3   0    0.03    0.05
  -4  -3   0   -0.04    0.05
   4  -3   0   -0.03    0.05
  -5  -3   0   -0.02    0.06
  -5   3   0    0.11    0.07
   5  -3   0    0.05    0.06
  -6  -3   0   -0.02    0.08
   0   4   0  470.63    4.68
   0  -4   0  483.27    4.40
   0   4   0  482.70    4.40
  -1  -4   0   10.47    0.15
   1  -4   0   10.58    0.18
  -1   4   0   10.69    0.18
  -1  -4   0   10.42    0.15
   2  -4   0    9.82    0.13
  -2   4   0    9.94    0.19
  -2  -4   0    9.87    0.17
  -2  -4   0   10.03    0.16
   2  -4   0    9.92    0.19
  -3  -4   0    0.00    0.04
   3  -4   0   -0.01    0.04
  -3   4   0    0.01    0.04
  -4   4   0    0.00    0.06
   4  -4   0   -0.05    0.05
  -4  -4   0    0.03    0.06
  -5  -4   0    0.09    0.07
  -5   4   0    0.07    0.07
   5  -4   0    0.21    0.08
  -6  -4   0   -0.07    0.07
   0   5   0    0.01    0.03
   0  -5   0    0.03    0.03
   0   5   0    0.00    0.01
   1   5   0   83.29    0.83
  -1  -5   0   82.90    0.82
   1  -5   0   83.45    0.86
  -1  -5   0   83.41    0.78
  -1   5   0   80.94    0.89
  -2  -5   0    3.51    0.09
  -2  -5   0    3.59    0.11
   3  -5   0   -0.01    0.05
  -3  -5   0   -0.05    0.04
  -4  -5   0    0.31    0.07
   4  -5   0    0.25    0.07
  -5  -5   0    0.11    0.07
   5  -5   0   -0.05    0.07
   0   6   0   32.35    0.43
   0  -6   0   32.69    0.40
  -1  -6   0   21.14    0.26
   1  -6   0   20.99    0.31
   1   6   0   21.26    0.28
  -1  -6   0   20.51    0.28
  -1   6   0   20.76    0.32
  -2  -6   0    0.00    0.04
   2  -6   0   -0.02    0.04
   3  -6   0    2.25    0.13
  -3  -6   0    2.16    0.12
  -4  -6   0    0.26    0.07
   4  -6   0    0.26    0.08
  -5  -6   0   -0.02    0.07
   5  -6   0    0.04    0.07
   0   7   0    0.04    0.04
   0  -7   0   -0.04    0.04
  -1  -7   0    1.36    0.07
  -1  -7   0    1.16    0.07
  -1   7   0    1.44    0.09
   1  -7   0    1.22    0.09
   2  -7   0    2.14    0.12
  -2  -7   0    2.08    0.10
  -3  -7   0    0.70    0.08
   3  -7   0    0.76    0.09
  -4  -7   0    0.02    0.06
   4  -7   0    0.04    0.07
  -5  -7   0    0.01    0.07
   5  -7   0    0.00    0.08
   0  -8   0    8.12    0.19
   0   8   0    7.87    0.21
  -1   8   0   13.40    0.28
  -1  -8   0   13.30    0.24
   1  -8   0   13.31    0.26
   1   8   0   12.92    0.28
  -2  -8   0    0.11    0.05
   2  -8   0    0.02    0.06
   3  -8   0    0.22    0.07
  -3  -8   0    0.44    0.08
  -4  -8   0    0.11    0.06
   4  -8   0    0.15    0.08
  -5  -8   0    0.02    0.07
   5  -8   0    0.03    0.08
   0  -9   0   -0.08    0.04
   0   9   0    0.03    0.06
   1  -9   0    0.52    0.08
   1   9   0    0.52    0.08
  -1   9   0    0.62    0.09
   2  -9   0    0.97    0.10
   3  -9   0    0.11    0.07
  -3  -9   0    0.05    0.06
   4  -9   0   -0.18    0.07
  -4  -9   0   -0.05    0.06
   0  10   0   -0.05    0.06
   0 -10   0   -0.01    0.05
   1 -10   0    2.02    0.13
   1  10   0    2.22    0.15
  -1  10   0    2.04    0.14
   2  10   0    0.12    0.08
   2 -10   0    0.08    0.07
   3 -10   0    0.21    0.08
   4 -10   0    0.02    0.08
   0  11   0    0.05    0.07
   0 -11   0   -0.03    0.06
   1 -11   0    0.82    0.12
  -1  11   0    0.51    0.09
   1  11   0    0.55    0.10
   2 -11   0    0.19    0.08
   2  11   0    0.20    0.09
   3  11   0    0.16    0.09
   3 -11   0    0.08    0.08
   0  12   0    1.11    0.14
   1 -12   0   -0.09    0.07
  -1  12   0    0.02    0.07
   1  12   0    0.10    0.08
   2 -12   0    0.24    0.10
   2  12   0    0.14    0.10
   3  12   0    0.04    0.09
   0  13   0   -0.09    0.08
   1 -13   0    0.13    0.09
   1  13   0    0.00    0.09
  -1   0   1   20.14    0.23
   1   0  -1   20.49    0.23
  -2   0   1    9.16    0.15
   2   0  -1    9.30    0.16
  -2   0  -1    9.50    0.15
  -2   0   1    9.24    0.14
  -2   0  -1    9.32    0.15
  -3   0  -1    0.50    0.05
  -3   0  -1    0.57    0.05
  -3   0   1    0.62    0.05
  -3   0   1    0.53    0.05
  -4   0   1    0.15    0.05
  -4   0  -1    0.12    0.05
   4   0  -1    0.14    0.05
  -4   0  -1    0.14    0.05
  -5   0   1    0.12    0.06
  -5   0  -1    0.20    0.07
  -6   0  -1    0.10    0.07
  -6   0   1   -0.10    0.06
   0   1  -1   31.47    0.30
   0  -1   1   31.24    0.30
  -1  -1  -1  811.88    7.01
  -1   1   1  792.21    7.36
  -1  -1   1  798.22    7.46
  -1  -1   1  797.58    7.02
   1  -1  -1  805.25    7.36
  -1   1  -1  801.87    7.42
  -2   1   1   43.01    0.44
   2   1  -1   43.28    0.48
  -2  -1  -1   42.65    0.46
  -2   1   1   43.21    0.46
  -2  -1  -1   42.86    0.45
   2  -1  -1   43.75    0.46
  -2   1  -1   42.77    0.47
   2  -1  -1   43.72    0.46
  -2   1  -1   42.91    0.44
  -2  -1   1   43.06    0.45
  -2  -1   1   42.44    0.44
  -3  -1  -1    7.59    0.15
  -3  -1  -1    7.81    0.16
  -3   1   1    8.01    0.16
  -3   1   1    7.98    0.15
  -3   1  -1    7.72    0.16
  -3  -1   1    7.86    0.16
  -3  -1   1    7.81    0.14
  -3   1  -1    8.03    0.15
   3  -1  -1    7.60    0.16
  -4  -1  -1    0.44    0.06
  -4   1   1    0.43    0.06
  -4  -1  -1    0.37    0.06
  -4   1   1    0.44    0.06
   4  -1  -1    0.40    0.06
  -4   1  -1    0.39    0.06
  -4   1  -1    0.41    0.07
  -4  -1   1    0.35    0.06
  -5   1   1   -0.07    0.05
  -5  -1  -1   -0.01    0.06
  -5  -1   1    0.01    0.06
  -5   1  -1    0.02    0.05
  -6  -1  -1   -0.01    0.07
  -6  -1   1   -0.03    0.06
   0  -2   1   97.76    0.92
   0   2  -1   98.66    0.90
   1   2  -1  181.78    1.67
  -1  -2  -1  180.05    1.57
  -1   2   1  183.29    1.63
   1  -2  -1  180.86    1.65
   1  -2  -1  180.45    1.66
  -1  -2   1  177.05    1.57
  -1  -2   1  179.83    1.67
  -1   2  -1  176.86    1.66
  -2  -2  -1    3.48    0.10
  -2   2   1    3.57    0.08
  -2   2   1    3.63    0.10
  -2  -2  -1    3.71    0.09
  -2   2  -1    3.59    0.08
  -2   2  -1    3.44    0.10
   2  -2  -1    3.37    0.10
  -2  -2   1    3.42    0.10
   2  -2  -1    3.46    0.08
  -3  -2  -1    0.36    0.05
  -3   2   1    0.41    0.05
  -3   2   1    0.53    0.06
  -3  -2  -1    0.38    0.05
   3  -2  -1    0.46    0.05
  -3  -2   1    0.41    0.05
  -3   2  -1    0.47    0.05
  -3   2  -1    0.48    0.06
   4  -2   1    0.17    0.06
  -4  -2  -1    0.14    0.05
  -4   2   1    0.17    0.05
  -4   2   1    0.29    0.05
  -4   2  -1    0.25    0.06
  -4  -2   1    0.25    0.06
  -4   2  -1    0.21    0.05
   4  -2  -1    0.14    0.06
  -5  -2  -1    0.09    0.06
   5  -2   1    0.01    0.06
  -5   2  -1   -0.01    0.06
  -5  -2   1    0.08    0.06
  -6  -2  -1    0.00    0.07
  -6  -2   1    0.06    0.07
   0  -3  -1   44.47    0.46
   0  -3   1   45.87    0.43
   0   3  -1   45.36    0.43
   0  -3   1   44.30    0.45
   1  -3   1   19.14    0.25
  -1  -3  -1   19.11    0.23
  -1  -3  -1   19.00    0.22
  -1   3  -1   18.72    0.25
  -1  -3   1   19.01    0.22
  -1   3  -1   18.85    0.25
   1  -3  -1   18.82    0.25
   2  -3   1   36.65    0.39
  -2  -3  -1   36.88    0.41
  -2  -3  -1   36.45    0.41
  -2   3   1   37.36    0.44
  -2   3   1   36.00    0.36
   2  -3   1   36.87    0.44
  -2  -3   1   36.64    0.41
  -2   3  -1   36.99    0.44
  -2  -3   1   37.02    0.38
   2  -3  -1   36.40    0.39
  -2   3  -1   36.24    0.36
   2  -3  -1   36.31    0.43
  -3   3   1    5.83    0.12
   3  -3   1    5.69    0.16
   3  -3   1    5.98    0.13
  -3  -3  -1    5.95    0.15
  -3  -3  -1    6.12    0.14
  -3   3   1    5.61    0.15
  -3   3  -1    5.94    0.16
  -3  -3   1    5.96    0.15
   3  -3  -1    5.91    0.13
  -3   3  -1    5.82    0.12
   3  -3  -1    5.97    0.15
  -4  -3  -1    0.06    0.06
  -4   3   1    0.07    0.05
   4  -3   1    0.10    0.06
  -4   3  -1    0.05    0.06
  -4  -3   1    0.03    0.06
   4  -3  -1   -0.02    0.05
   5  -3   1    0.06    0.07
  -5  -3  -1    0.06    0.06
  -5   3  -1    0.05    0.06
   5  -3  -1    0.10    0.07
  -5  -3   1   -0.04    0.06
  -6  -3  -1   -0.03    0.07
  -6  -3   1    0.00    0.07
   0  -4  -1    3.73    0.09
   0   4   1    3.45    0.10
   0  -4   1    3.64    0.09
   0   4  -1    3.88    0.07
  -1   4   1   16.08    0.24
   1  -4   1   16.45    0.24
  -1  -4  -1   16.45    0.22
  -1  -4  -1   16.65    0.21
  -1  -4   1   16.51    0.21
  -1   4  -1   16.42    0.24
   1  -4  -1   16.28    0.24
  -1  -4   1   16.63    0.20
  -2  -4  -1    5.10    0.11
  -2  -4  -1    5.06    0.12
   2  -4   1    5.18    0.09
   2  -4   1    5.27    0.14
  -2  -4   1    5.20    0.12
   2  -4  -1    5.10    0.09
   2  -4  -1    5.11    0.14
  -2  -4   1    5.24    0.10
  -2   4  -1    5.09    0.14
   3  -4   1    1.13    0.09
  -3  -4  -1    1.17    0.09
  -3   4  -1    1.29    0.09
   3  -4  -1    1.52    0.10
  -3  -4   1    1.32    0.09
   4  -4   1    1.94    0.13
  -4  -4  -1    2.17    0.13
  -4   4  -1    2.00    0.13
   4  -4  -1    2.03    0.13
  -4  -4   1    2.26    0.13
   5  -4   1    0.11    0.07
  -5  -4  -1   -0.07    0.06
  -5   4  -1   -0.07    0.07
  -5  -4   1   -0.07    0.06
   5  -4  -1   -0.08    0.06
  -6  -4  -1    0.04    0.07
  -6  -4   1    0.01    0.07
   0  -5   1    1.84    0.07
   0   5  -1    2.01    0.05
   0   5   1    2.08    0.08
   0   5  -1    2.09    0.08
   0   5   1    1.99    0.05
   0  -5  -1    2.06    0.08
   1   5  -1    7.11    0.13
  -1  -5  -1    6.95    0.14
  -1   5   1    7.23    0.16
  -1  -5  -1    7.05    0.13
   1  -5   1    7.24    0.15
   1   5   1    7.08    0.13
  -1   5  -1    7.28    0.16
  -1  -5   1    7.15    0.13
  -1  -5   1    6.98    0.13
   1  -5  -1    6.99    0.15
   2  -5   1    7.27    0.17
  -2  -5  -1    7.24    0.14
  -2  -5  -1    7.06    0.15
  -2  -5   1    7.22    0.15
   2  -5  -1    7.15    0.17
  -2   5  -1    7.13    0.17
   3  -5   1    6.03    0.18
  -3  -5  -1    5.97    0.17
   3  -5  -1    6.24    0.18
  -3  -5   1    6.27    0.17
  -3   5  -1    6.21    0.18
   4  -5   1    0.33    0.08
  -4  -5  -1    0.26    0.07
   4  -5  -1    0.32    0.08
  -4   5  -1    0.29    0.08
  -4  -5   1    0.25    0.07
  -5  -5  -1   -0.05    0.06
   5  -5   1    0.17    0.08
   5  -5  -1    0.06    0.07
  -5  -5   1    0.13    0.07
   6  -5   1   -0.10    0.08
   0   6  -1    0.52    0.06
   0  -6   1    0.47    0.05
   0   6   1    0.53    0.06
   0  -6  -1    0.42    0.05
   1   6  -1    5.63    0.12
  -1  -6  -1    5.40    0.12
   1  -6   1    5.55    0.14
  -1   6   1    5.28    0.15
  -1  -6  -1    5.62    0.13
   1   6   1    5.51    0.12
  -1  -6   1    5.71    0.12
  -1  -6   1    5.52    0.12
   1  -6  -1    5.90    0.15
  -1   6  -1    5.57    0.15
   2  -6   1    0.63    0.07
  -2  -6  -1    0.69    0.06
  -2  -6  -1    0.85    0.07
  -2  -6   1    0.81    0.07
   2  -6  -1    0.86    0.08
  -3  -6  -1    3.05    0.13
  -3  -6   1    3.24    0.13
   3  -6  -1    3.32    0.15
  -4  -6  -1    0.82    0.10
   4  -6   1    0.64    0.09
  -4  -6   1    0.82    0.09
   4  -6  -1    0.71    0.10
   5  -6   1    0.00    0.08
  -5  -6  -1   -0.05    0.06
  -5  -6   1   -0.02    0.06
   5  -6  -1   -0.08    0.06
   0   7  -1    2.31    0.11
   0  -7   1    2.35    0.10
   0  -7  -1    2.35    0.10
  -1   7   1    0.58    0.07
  -1  -7  -1    0.67    0.05
   1  -7   1    0.64    0.07
  -1  -7  -1    0.65    0.06
  -1  -7   1    0.80    0.06
  -1   7  -1    0.57    0.07
   1  -7  -1    0.70    0.07
   1   7   1    0.66    0.08
  -1  -7   1    0.60    0.05
  -2  -7  -1   13.70    0.24
   2  -7   1   13.62    0.27
   2  -7  -1   13.73    0.27
  -2  -7   1   13.80    0.24
  -3  -7  -1    0.78    0.08
   3  -7   1    0.76    0.09
   3  -7  -1    0.82    0.10
  -3  -7   1    0.82    0.09
   4  -7   1    0.15    0.07
  -4  -7  -1    0.01    0.06
   4  -7  -1    0.14    0.07
  -4  -7   1    0.23    0.07
  -5  -7  -1    0.12    0.07
   5  -7   1    0.02    0.08
   5  -7  -1    0.08    0.08
  -5  -7   1    0.09    0.07
   0   8  -1    1.74    0.11
   0   8   1    1.77    0.11
   0  -8   1    1.67    0.10
   0  -8  -1    1.87    0.10
  -1   8   1    0.07    0.06
  -1  -8  -1    0.07    0.05
   1  -8   1    0.05    0.05
   1   8  -1    0.07    0.05
   1   8   1    0.05    0.05
   1  -8  -1   -0.02    0.05
  -1   8  -1    0.05    0.05
   2  -8   1    1.10    0.10
  -2  -8  -1    1.19    0.09
   2  -8  -1    1.05    0.10
  -2  -8   1    1.09    0.08
  -3  -8  -1    0.40    0.07
   3  -8   1    0.46    0.09
  -3  -8   1    0.23    0.06
   3  -8  -1    0.26    0.08
  -4  -8  -1    0.22    0.07
   4  -8   1    0.07    0.07
   4  -8  -1    0.11    0.08
  -4  -8   1    0.15    0.07
  -5  -8  -1   -0.03    0.07
   5  -8   1   -0.02    0.08
  -5  -8   1    0.10    0.08
   5  -8  -1   -0.08    0.08
   0   9  -1    6.64    0.21
   0  -9  -1    7.09    0.20
   0  -9   1    6.96    0.19
   0   9   1    6.82    0.21
  -1   9   1    0.73    0.09
  -1  -9  -1    0.81    0.08
   1   9  -1    0.69    0.09
   1  -9   1    0.70    0.08
  -1   9  -1    0.64    0.09
   1  -9  -1    0.68    0.09
   1   9   1    0.72    0.09
   2  -9   1    0.95    0.10
   2  -9  -1    0.59    0.09
   2   9   1    0.89    0.10
   3  -9   1    0.33    0.09
  -3  -9   1    0.27    0.08
   3  -9  -1    0.36    0.08
   4  -9   1    0.06    0.07
  -4  -9  -1    0.11    0.07
   4  -9  -1    0.06    0.08
  -4  -9   1   -0.04    0.06
   0  10   1    0.12    0.07
   0 -10  -1    0.14    0.06
   0 -10   1    0.08    0.05
   0  10  -1    0.08    0.06
  -1  10   1    1.31    0.13
   1  10  -1    0.90    0.11
   1 -10   1    1.05    0.11
  -1  10  -1    0.90    0.11
   1 -10  -1    1.08    0.12
   1  10   1    1.03    0.12
   2 -10   1    0.36    0.08
   2  10  -1    0.29    0.08
   2  10   1    0.22    0.08
   2 -10  -1    0.31    0.08
   3 -10   1   -0.02    0.07
   3  10   1    0.07    0.08
   3 -10  -1    0.07    0.07
   4 -10   1    0.16    0.09
   4 -10  -1    0.16    0.09
   0  11  -1    1.05    0.12
   0  11   1    0.90    0.12
   0 -11  -1    1.17    0.12
  -1  11   1    0.51    0.10
   1  11  -1    0.48    0.10
   1 -11   1    0.52    0.10
  -1  11  -1    0.55    0.10
   1 -11  -1    0.55    0.10
   1  11   1    0.47    0.10
   2  11  -1    0.18    0.09
   2 -11   1    0.11    0.07
   2  11   1    0.16    0.09
   2 -11  -1    0.28    0.08
   3 -11   1    0.43    0.10
   3  11  -1    0.23    0.10
   3 -11  -1    0.39    0.10
   3  11   1    0.35    0.11
   0  12  -1    0.60    0.11
   0  12   1    0.57    0.11
   1 -12   1   -0.08    0.07
   1  12  -1   -0.11    0.08
  -1  12  -1   -0.03    0.07
   1  12   1    0.00    0.08
   1 -12  -1   -0.04    0.08
   2  12  -1    0.49    0.12
   2 -12   1    0.23    0.08
   2 -12  -1    0.36    0.11
   2  12   1    0.33    0.11
   3  12  -1    0.05    0.09
   3  12   1    0.06    0.10
   0  13   1   -0.09    0.08
   0  13  -1   -0.04    0.08
   1  13  -1    0.63    0.13
  -1  13  -1    0.34    0.11
   1  13   1    0.64    0.13
   1 -13  -1    0.80    0.13
   2 -13   1    0.15    0.11
   0   0   2   18.34    0.19
   1   0  -2   43.88    0.44
  -1   0   2   44.07    0.44
  -1   0  -2   44.22    0.45
  -2   0   2   36.80    0.39
   2   0  -2   36.75    0.39
  -2   0   2   36.20    0.42
  -2   0   2   36.23    0.38
   2   0  -2   36.70    0.42
  -2   0  -2   36.83    0.39
  -2   0  -2   35.84    0.41
  -3   0   2    1.00    0.06
  -3   0  -2    1.07    0.07
  -3   0  -2    0.98    0.07
  -3   0   2    0.98    0.07
   3   0  -2    1.00    0.06
  -4   0  -2    0.33    0.06
  -4   0  -2    0.35    0.06
  -4   0   2    0.42    0.06
  -5   0  -2   -0.05    0.05
  -5   0   2   -0.06    0.05
  -6   0  -2    0.02    0.07
  -6   0   2   -0.02    0.06
   0   1  -2   89.55    0.86
   0  -1   2   88.61    0.83
  -1   1   2   51.96    0.51
  -1  -1  -2   52.98    0.52
  -1   1  -2   52.24    0.52
   1  -1  -2   52.61    0.51
  -1  -1   2   52.47    0.50
  -1  -1   2   51.31    0.53
  -2   1   2   25.30    0.30
   2   1  -2   24.98    0.32
  -2  -1  -2   24.83    0.30
  -2  -1  -2   24.70    0.30
  -2   1   2   25.08    0.30
  -2   1   2   25.00    0.29
  -2   1  -2   24.91    0.31
   2  -1  -2   25.10    0.29
  -2  -1   2   24.75    0.32
  -2   1  -2   24.34    0.28
   2  -1  -2   25.03    0.30
  -2  -1   2   24.91    0.30
  -3  -1  -2    1.44    0.08
  -3   1   2    1.27    0.07
  -3   1   2    1.42    0.07
  -3  -1  -2    1.49    0.08
  -3  -1   2    1.44    0.06
  -3   1  -2    1.38    0.08
  -3   1  -2    1.34    0.07
   3  -1  -2    1.39    0.07
  -3  -1   2    1.32    0.08
  -4  -1  -2    1.13    0.09
  -4  -1  -2    1.23    0.09
  -4   1   2    1.30    0.09
  -4   1  -2    1.30    0.10
  -4  -1   2    1.27    0.10
  -4   1  -2    1.21    0.09
   4  -1  -2    1.29    0.09
  -5  -1  -2    0.18    0.07
  -5   1   2    0.21    0.06
  -5   1  -2    0.24    0.06
  -5  -1   2    0.25    0.07
  -5   1  -2    0.22    0.07
  -6  -1  -2    0.05    0.07
  -6  -1   2    0.04    0.07
   0  -2   2   78.71    0.74
   0  -2  -2   79.92    0.76
   0   2  -2   79.19    0.74
  -1  -2  -2   64.47    0.64
  -1   2   2   65.29    0.62
  -1  -2  -2   65.77    0.61
   1   2  -2   64.85    0.65
   1  -2  -2   65.74    0.65
   1  -2  -2   65.36    0.62
  -1   2  -2   65.26    0.65
  -1  -2   2   67.12    0.62
  -1  -2   2   65.94    0.65
  -2   2   2   26.18    0.29
  -2  -2  -2   26.07    0.31
  -2   2   2   25.57    0.30
  -2  -2  -2   25.66    0.31
   2  -2  -2   25.74    0.32
   2  -2  -2   25.68    0.30
  -2   2  -2   25.90    0.33
  -2   2  -2   25.73    0.28
  -2  -2   2   25.79    0.33
  -2  -2   2   25.62    0.31
  -3  -2  -2    1.34    0.08
  -3   2   2    1.29    0.07
  -3   2   2    1.25    0.07
  -3  -2  -2    1.34    0.07
  -3  -2   2    1.29    0.08
  -3   2  -2    1.29    0.07
   3  -2  -2    1.26    0.08
  -3   2  -2    1.12    0.08
  -4   2   2    1.34    0.10
  -4  -2  -2    1.55    0.11
  -4   2   2    1.57    0.09
  -4   2  -2    1.59    0.11
  -4  -2   2    1.54    0.11
  -4   2  -2    1.54    0.09
   4  -2  -2    1.58    0.10
  -5  -2  -2    0.15    0.06
   5  -2   2    0.20    0.08
  -5   2  -2    0.23    0.08
  -5  -2   2    0.10    0.06
  -6  -2  -2    0.12    0.08
  -6  -2   2    0.04    0.07
   0   3  -2   45.84    0.45
   0   3   2   45.26    0.49
   0  -3   2   44.93    0.45
   0  -3  -2   46.16    0.48
   0  -3   2   45.72    0.46
  -1  -3  -2   20.98    0.26
   1  -3   2   21.32    0.27
  -1  -3  -2   21.51    0.24
  -1   3   2   21.28    0.22
  -1  -3   2   21.15    0.25
  -1   3  -2   20.88    0.27
   1  -3  -2   21.08    0.27
  -1   3  -2   21.28    0.27
   1  -3  -2   21.01    0.22
  -1  -3   2   21.25    0.26
  -2   3   2   22.01    0.24
  -2  -3  -2   21.55    0.28
  -2  -3  -2   21.78    0.28
  -2  -3   2   21.90    0.29
   2  -3  -2   21.67    0.26
   2  -3  -2   22.12    0.30
  -2   3  -2   21.48    0.30
  -2   3  -2   21.98    0.24
  -3  -3  -2    2.60    0.11
  -3   3   2    2.65    0.09
  -3  -3  -2    2.59    0.10
  -3   3  -2    2.73    0.09
  -3  -3   2    2.60    0.11
   3  -3  -2    2.63    0.11
  -3   3  -2    2.89    0.12
  -4  -3  -2    2.23    0.13
   4  -3   2    2.49    0.13
   4  -3  -2    2.24    0.12
  -4   3  -2    2.25    0.13
  -4  -3   2    2.13    0.12
   5  -3   2    0.28    0.08
  -5  -3  -2    0.20    0.08
  -5   3  -2    0.21    0.08
  -5  -3   2    0.17    0.07
  -6  -3  -2   -0.12    0.06
  -6  -3   2    0.02    0.07
   0   4  -2   69.52    0.65
   0  -4   2   66.97    0.67
   0  -4   2   67.33    0.65
   0  -4  -2   67.35    0.69
   0   4   2   65.90    0.71
  -1  -4  -2   10.51    0.17
   1  -4   2   10.20    0.18
   1   4  -2   10.53    0.16
  -1  -4  -2   10.58    0.15
  -1  -4   2   10.32    0.16
  -1  -4   2   10.17    0.16
   1  -4  -2   10.42    0.18
  -1   4  -2   10.27    0.18
  -1   4  -2   10.56    0.18
  -1  -4   2   10.70    0.14
   2  -4   2    9.86    0.19
  -2  -4  -2    9.90    0.18
  -2  -4  -2    9.83    0.17
  -2   4  -2   10.17    0.20
   2  -4  -2   10.02    0.14
  -2  -4   2    9.89    0.18
   2  -4  -2   10.14    0.19
  -3  -4  -2    3.53    0.13
   3  -4   2    3.77    0.14
  -3  -4  -2    3.45    0.11
  -3   4  -2    3.47    0.14
  -3  -4   2    3.45    0.13
   3  -4  -2    3.55    0.13
   4  -4   2    1.18    0.11
  -4  -4  -2    0.98    0.10
   4  -4  -2    1.05    0.10
  -4  -4   2    0.95    0.09
  -4   4  -2    1.02    0.10
   5  -4   2    0.13    0.08
  -5  -4  -2    0.10    0.07
  -5  -4   2    0.07    0.07
  -5   4  -2    0.09    0.08
   5  -4  -2    0.04    0.07
  -6  -4  -2   -0.08    0.07
   6  -4   2    0.05    0.08
  -6  -4   2    0.02    0.08
   0  -5   2    5.52    0.09
   0  -5   2    5.60    0.12
   0  -5  -2    5.62    0.13
   0   5   2    5.51    0.14
   0   5  -2    5.63    0.09
  -1  -5  -2    9.88    0.16
   1  -5   2    9.88    0.18
   1   5  -2    9.68    0.16
  -1  -5  -2    9.73    0.17
  -1  -5   2   10.07    0.16
  -1   5  -2   10.00    0.19
   1  -5  -2   10.05    0.19
   1   5   2    9.72    0.18
  -1  -5   2    9.95    0.15
  -2  -5  -2    0.17    0.04
  -2  -5  -2    0.16    0.04
   2  -5   2    0.12    0.05
  -2  -5   2    0.06    0.04
   2  -5  -2    0.20    0.05
  -2   5  -2    0.19    0.05
   3  -5   2    3.30    0.14
  -3  -5  -2    3.18    0.13
  -3   5  -2    3.29    0.14
  -3  -5   2    3.09    0.13
   3  -5  -2    2.92    0.13
  -4  -5  -2    0.52    0.08
   4  -5   2    0.72    0.10
   4  -5  -2    0.68    0.09
  -4  -5   2    0.63    0.09
  -4   5  -2    0.68    0.09
  -5  -5  -2    0.15    0.07
   5  -5   2    0.18    0.08
   5  -5  -2    0.18    0.08
  -5   5  -2    0.35    0.09
  -5  -5   2    0.04    0.07
   6  -5   2    0.05    0.09
   0   6  -2    4.58    0.13
   0  -6  -2    4.45    0.12
   0   6   2    4.82    0.14
   0  -6   2    4.66    0.12
  -1   6   2    2.12    0.10
   1   6  -2    2.04    0.08
  -1  -6  -2    2.07    0.08
  -1  -6  -2    2.00    0.07
   1  -6   2    1.95    0.09
   1   6   2    2.03    0.09
  -1  -6   2    1.99    0.07
  -1  -6   2    1.92    0.07
  -1   6  -2    2.10    0.10
   1   6   2    1.99    0.08
   1  -6  -2    1.83    0.09
  -2  -6  -2    4.83    0.13
  -2  -6  -2    5.00    0.13
   2  -6   2    5.24    0.16
  -2  -6   2    5.06    0.13
   2  -6  -2    5.13    0.16
   3  -6   2    1.52    0.12
  -3  -6  -2    1.74    0.12
   3  -6  -2    1.78    0.12
  -3  -6   2    1.59    0.11
  -3   6  -2    1.54    0.12
   4  -6   2    0.13    0.07
  -4  -6  -2    0.22    0.07
  -4  -6   2    0.15    0.06
   4  -6  -2    0.20    0.07
  -4   6  -2    0.14    0.07
   5  -6   2    0.07    0.08
  -5  -6  -2    0.10    0.07
   5  -6  -2    0.17    0.08
  -5  -6   2    0.00    0.07
   0  -7  -2    0.63    0.07
   0   7   2    0.69    0.07
   0   7  -2    0.72    0.08
   0  -7   2    0.66    0.06
  -1   7   2    1.44    0.10
  -1  -7  -2    1.42    0.08
   1  -7   2    1.48    0.09
  -1  -7  -2    1.47    0.07
   1   7   2    1.37    0.09
  -1   7  -2    1.32    0.09
  -1  -7   2    1.53    0.07
   1  -7  -2    1.49    0.10
   2  -7   2    2.33    0.12
  -2  -7  -2    2.03    0.10
  -2  -7  -2    2.14    0.10
  -2  -7   2    2.16    0.10
   2  -7  -2    2.08    0.12
   3  -7   2    1.03    0.11
  -3  -7  -2    1.37    0.10
  -3  -7   2    1.39    0.11
   3  -7  -2    1.07    0.10
  -4  -7  -2   -0.05    0.05
   4  -7   2   -0.12    0.06
   4  -7  -2    0.03    0.07
  -4  -7   2   -0.10    0.05
   5  -7   2    0.05    0.08
  -5  -7  -2   -0.03    0.06
  -5  -7   2    0.04    0.07
   5  -7  -2   -0.01    0.08
   0  -8   2    1.09    0.09
   0   8  -2    1.12    0.10
   0  -8  -2    1.10    0.09
   0   8   2    1.17    0.10
  -1   8   2    3.16    0.14
   1  -8   2    3.18    0.13
  -1  -8  -2    3.32    0.13
   1  -8  -2    3.08    0.14
  -1   8  -2    3.12    0.14
   1   8   2    3.10    0.14
   2  -8   2    1.49    0.12
  -2  -8  -2    1.63    0.10
  -2  -8   2    1.37    0.09
   2   8   2    1.48    0.11
   2  -8  -2    1.40    0.11
   3  -8   2    0.17    0.07
  -3  -8  -2    0.17    0.06
  -3  -8   2    0.15    0.06
   3  -8  -2    0.20    0.07
  -4  -8  -2    0.15    0.07
   4  -8   2    0.36    0.09
   4  -8  -2    0.18    0.08
  -4  -8   2    0.19    0.07
   5  -8   2    0.23    0.09
  -5  -8  -2   -0.05    0.07
   5  -8  -2    0.02    0.08
  -5  -8   2    0.03    0.07
   0   9   2    0.57    0.09
   0   9  -2    0.60    0.09
   0  -9   2    0.51    0.07
   0  -9  -2    0.57    0.08
  -1  -9  -2    0.96    0.09
   1   9  -2    0.58    0.08
  -1   9   2    0.88    0.10
   1  -9   2    0.77    0.09
  -1   9  -2    0.94    0.11
   1   9   2    0.91    0.10
   1  -9  -2    0.93    0.10
   2  -9   2    1.14    0.12
   2   9   2    1.07    0.11
   2  -9  -2    1.29    0.12
   3  -9   2    0.49    0.09
   3  -9  -2    0.37    0.09
   3   9   2    0.32    0.08
  -3  -9   2    0.37    0.08
  -4  -9  -2   -0.02    0.06
   4  -9   2    0.15    0.08
  -4  -9   2    0.11    0.07
   4  -9  -2   -0.06    0.07
   0  10   2    0.11    0.06
   0  10  -2    0.03    0.06
   0 -10  -2    0.10    0.06
   1 -10   2    0.90    0.10
   1  10  -2    0.77    0.11
  -1 -10  -2    1.04    0.10
   1 -10  -2    0.94    0.11
  -1  10  -2    0.85    0.11
   1  10   2    1.20    0.12
   2 -10   2    0.31    0.08
   2 -10  -2    0.26    0.08
   2  10   2    0.36    0.09
   3 -10   2    0.01    0.07
   3  10   2   -0.07    0.08
   3 -10  -2   -0.03    0.06
   4 -10   2   -0.08    0.08
   4 -10  -2    0.03    0.08
   0  11  -2    0.06    0.07
   0 -11  -2    0.37    0.08
   0  11   2    0.19    0.08
   1 -11   2    0.13    0.07
   1  11  -2    0.13    0.07
   1  11   2    0.08    0.08
  -1  11  -2   -0.02    0.06
   1 -11  -2    0.13    0.08
   2  11  -2   -0.02    0.08
   2 -11   2   -0.01    0.07
   2 -11  -2    0.16    0.08
   2  11   2    0.14    0.08
   3 -11   2    0.07    0.08
   3 -11  -2    0.10    0.08
   3  11   2    0.05    0.08
   0  12   2    0.65    0.11
   0 -12  -2    0.68    0.11
   0  12  -2    0.80    0.13
   1  12  -2    0.00    0.08
   1 -12   2   -0.09    0.07
  -1  12  -2    0.08    0.08
   1  12   2   -0.10    0.07
   1 -12  -2    0.14    0.09
   2  12  -2   -0.07    0.09
   2 -12   2    0.14    0.08
   2  12   2    0.12    0.10
   2 -12  -2   -0.04    0.09
   3  12  -2   -0.04    0.10
   0  13  -2   -0.03    0.08
   0  13   2    0.06    0.09
   1  13  -2    0.25    0.10
  -1  13  -2    0.29    0.10
   1  13   2    0.41    0.12
   1 -13  -2    0.30    0.11
   2 -13   2    0.09    0.11
   0   0   3   -0.85    0.02
   1   0  -3   45.46    0.47
  -1   0  -3   45.28    0.47
  -1   0  -3   45.49    0.44
  -1   0   3   44.74    0.46
  -1   0   3   45.57    0.44
  -2   0   3   24.08    0.31
  -2   0  -3   24.11    0.29
   2   0  -3   24.52    0.27
  -2   0   3   24.30    0.29
   2   0  -3   24.64    0.31
  -2   0  -3   24.36    0.31
  -3   0   3    0.22    0.04
  -3   0  -3    0.27    0.05
   3   0  -3    0.28    0.04
  -3   0  -3    0.25    0.05
  -3   0   3    0.15    0.04
  -4   0  -3    0.85    0.08
  -4   0  -3    0.75    0.08
  -4   0   3    0.68    0.07
  -5   0  -3    0.58    0.08
  -5   0   3    0.39    0.07
  -6   0   3    0.13    0.07
  -6   0  -3   -0.02    0.06
   0   1  -3   21.31    0.23
   0  -1   3   20.39    0.23
  -1  -1  -3   60.51    0.57
  -1  -1  -3   60.25    0.60
  -1   1   3   59.08    0.59
  -1   1   3   60.23    0.56
  -1  -1   3   59.63    0.60
  -1  -1   3   61.56    0.57
  -1   1  -3   59.75    0.60
   1  -1  -3   60.16    0.59
  -2   1   3   16.79    0.22
  -2  -1  -3   16.75    0.24
  -2  -1  -3   17.19    0.23
  -2   1   3   17.34    0.23
   2   1  -3   17.25    0.25
  -2   1  -3   17.34    0.25
  -2  -1   3   17.16    0.23
   2  -1  -3   17.12    0.23
  -2  -1   3   16.82    0.25
   2  -1  -3   17.23    0.22
  -2   1  -3   16.94    0.22
  -3   1   3    4.53    0.12
  -3   1   3    4.61    0.12
  -3  -1  -3    4.84    0.13
  -3  -1  -3    4.64    0.13
   3  -1  -3    4.77    0.12
  -3   1  -3    4.86    0.14
  -3   1  -3    4.79    0.12
  -3  -1   3    4.83    0.13
  -4  -1  -3    0.30    0.06
  -4   1   3    0.37    0.06
  -4  -1  -3    0.43    0.07
  -4   1  -3    0.33    0.07
  -4  -1   3    0.42    0.07
  -4   1  -3    0.47    0.06
  -5  -1  -3    0.08    0.06
  -5   1   3    0.05    0.05
  -5  -1   3    0.16    0.07
  -5   1  -3    0.04    0.06
  -5   1  -3    0.12    0.06
  -6  -1  -3   -0.01    0.07
  -6  -1   3    0.11    0.08
   0   2  -3   62.47    0.60
   0  -2  -3   63.07    0.62
   0  -2   3   61.96    0.60
  -1  -2  -3   19.56    0.23
  -1   2   3   18.85    0.22
  -1  -2  -3   19.24    0.24
   1  -2  -3   19.05    0.23
  -1  -2   3   18.92    0.23
  -1  -2   3   18.73    0.24
   1  -2  -3   19.20    0.22
  -2  -2  -3   20.48    0.27
  -2   2   3   20.63    0.25
  -2  -2  -3   20.44    0.27
  -2   2   3   20.55    0.26
  -2  -2   3   20.92    0.29
   2  -2  -3   20.76    0.26
   2  -2  -3   20.26    0.27
  -2  -2   3   20.27    0.27
  -2   2  -3   20.81    0.24
  -2   2  -3   20.32    0.29
  -3   2   3    4.92    0.12
  -3  -2  -3    5.16    0.14
  -3  -2  -3    4.87    0.13
  -3  -2   3    5.07    0.14
  -3   2  -3    4.99    0.12
   3  -2  -3    5.11    0.13
  -3   2  -3    4.94    0.14
  -4  -2  -3    0.27    0.06
  -4  -2  -3    0.28    0.06
  -4   2   3    0.32    0.06
  -4   2  -3    0.24    0.05
  -4  -2   3    0.27    0.06
   4  -2  -3    0.23    0.06
  -4   2  -3    0.25    0.06
  -5  -2  -3    0.44    0.08
  -5  -2   3    0.48    0.08
  -5   2  -3    0.42    0.09
  -6  -2  -3   -0.02    0.07
  -6  -2   3    0.05    0.07
   0   3   3   40.63    0.45
   0   3  -3   40.79    0.42
   0  -3   3   40.81    0.42
   0  -3  -3   40.64    0.44
   0   3  -3   41.06    0.41
   0  -3   3   40.31    0.41
  -1   3   3  106.52    0.99
  -1  -3  -3  107.13    1.03
  -1  -3  -3  107.29    0.97
  -1  -3   3  106.18    1.03
   1   3   3  106.90    1.04
   1  -3  -3  105.64    0.99
   1  -3  -3  104.26    1.03
  -1   3  -3  107.38    1.05
  -1   3  -3  106.03    1.03
  -1  -3   3  104.67    0.97
  -2  -3  -3   38.13    0.43
  -2   3   3   38.34    0.41
  -2  -3  -3   37.77    0.44
  -2   3   3   38.66    0.39
  -2  -3   3   38.11    0.44
  -2   3  -3   38.29    0.46
   2  -3  -3   38.55    0.41
  -2  -3   3   38.31    0.46
   2  -3  -3   37.35    0.45
  -3  -3  -3   -0.02    0.04
  -3  -3  -3    0.03    0.04
  -3   3   3    0.11    0.03
  -3  -3   3    0.13    0.05
   3  -3  -3    0.05    0.04
  -3   3  -3    0.04    0.05
  -3   3  -3    0.02    0.03
  -4  -3  -3    0.80    0.09
   4  -3  -3    0.60    0.08
  -4  -3   3    0.66    0.09
  -4   3  -3    0.83    0.09
   5  -3   3    0.18    0.08
  -5  -3  -3    0.09    0.07
  -5   3  -3    0.18    0.08
  -5  -3   3    0.21    0.07
  -6  -3  -3    0.07    0.08
  -6  -3   3    0.04    0.08
   0   4  -3   33.44    0.35
   0  -4  -3   33.11    0.39
   0  -4   3   33.80    0.37
   0   4   3   32.70    0.40
   0  -4   3   33.04    0.35
   0  -4   3   33.24    0.33
   1   4  -3   29.71    0.35
   1  -4   3   29.46    0.30
   1  -4   3   29.09    0.36
  -1   4   3   29.85    0.30
  -1  -4  -3   29.55    0.33
  -1  -4  -3   29.95    0.36
   1  -4  -3   30.13    0.37
  -1  -4   3   29.38    0.33
  -1  -4   3   29.65    0.35
  -1   4  -3   29.42    0.36
  -1   4  -3   29.80    0.37
   1   4   3   29.47    0.36
   2  -4   3   31.25    0.41
  -2  -4  -3   31.62    0.38
  -2   4   3   30.97    0.34
  -2  -4  -3   30.76    0.39
  -2  -4   3   31.06    0.40
  -2  -4   3   31.04    0.38
   2  -4  -3   30.73    0.34
   2  -4  -3   31.42    0.40
  -2   4  -3   31.15    0.41
  -3  -4  -3    7.68    0.17
   3  -4   3    7.82    0.20
  -3  -4  -3    7.93    0.18
  -3  -4   3    8.04    0.19
   3  -4  -3    7.88    0.19
  -3   4  -3    7.57    0.20
   4  -4   3    0.00    0.06
  -4  -4  -3   -0.10    0.05
  -4   4  -3    0.15    0.06
  -4  -4   3    0.08    0.06
   4  -4  -3   -0.03    0.05
  -5  -4  -3    0.05    0.07
   5  -4   3    0.14    0.07
  -5   4  -3    0.30    0.09
  -5  -4   3    0.06    0.06
   6  -4   3    0.03    0.08
  -6  -4  -3   -0.11    0.07
  -6   4  -3    0.16    0.10
  -6  -4   3    0.03    0.08
   0  -5   3    4.13    0.10
   0   5   3    4.15    0.12
   0  -5  -3    4.01    0.11
   0   5  -3    4.19    0.08
   0  -5   3    4.05    0.08
   0  -5   3    4.04    0.08
  -1   5   3   28.84    0.29
  -1  -5  -3   28.55    0.33
  -1  -5  -3   28.99    0.37
   1  -5   3   28.48    0.29
   1  -5   3   28.49    0.37
   1   5  -3   29.08    0.35
  -1   5  -3   29.02    0.38
  -1  -5   3   29.09    0.33
   1   5   3   29.23    0.38
  -1  -5   3   28.20    0.32
  -1   5  -3   28.63    0.37
  -1  -5   3   28.41    0.35
   1  -5  -3   29.04    0.38
  -2  -5  -3   10.79    0.19
  -2  -5  -3   11.01    0.20
   2  -5   3   10.88    0.22
  -2  -5   3   10.85    0.20
  -2   5  -3   10.74    0.22
   2  -5  -3   10.91    0.22
   3  -5   3    0.21    0.06
  -3  -5  -3    0.31    0.06
  -3  -5  -3    0.35    0.06
   3  -5  -3    0.32    0.07
  -3   5  -3    0.41    0.08
  -3  -5   3    0.32    0.06
  -4  -5  -3    0.75    0.09
   4  -5   3    0.54    0.09
  -4  -5   3    0.81    0.09
   4  -5  -3    0.78    0.10
  -4   5  -3    0.65    0.10
  -5  -5  -3    0.12    0.07
   5  -5   3    0.06    0.08
  -5   5  -3    0.00    0.08
   5  -5  -3    0.19    0.08
  -5  -5   3    0.05    0.06
   6  -5   3    0.12    0.10
  -6   5  -3    0.15    0.10
   0   6   3   26.35    0.38
   0  -6   3   27.06    0.34
   0  -6   3   26.47    0.30
   0  -6  -3   26.29    0.36
  -1  -6  -3    4.50    0.11
   1  -6   3    4.31    0.13
  -1  -6  -3    4.46    0.13
   1  -6  -3    4.57    0.14
  -1   6  -3    4.29    0.13
  -1  -6   3    4.40    0.11
   1   6   3    4.42    0.13
  -2  -6  -3    5.43    0.14
  -2  -6  -3    5.60    0.15
   2  -6   3    5.36    0.16
   2  -6  -3    5.40    0.16
  -2  -6   3    5.36    0.14
  -2   6  -3    5.59    0.16
   3  -6   3    1.20    0.10
  -3  -6  -3    1.10    0.09
  -3  -6   3    1.43    0.11
   3  -6  -3    1.32    0.11
  -3   6  -3    1.21    0.11
  -4  -6  -3    0.43    0.08
   4  -6   3    0.46    0.09
   4  -6  -3    0.51    0.09
  -4   6  -3    0.35    0.09
  -4  -6   3    0.31    0.07
  -5  -6  -3    0.00    0.07
   5  -6   3    0.15    0.08
   5  -6  -3   -0.05    0.07
  -5   6  -3   -0.01    0.07
  -5  -6   3   -0.10    0.06
   0   7   3    0.43    0.06
   0  -7  -3    0.63    0.07
   0   7  -3    0.50    0.07
   0  -7   3    0.51    0.06
   1  -7   3    0.60    0.07
  -1  -7  -3    0.62    0.07
  -1  -7  -3    0.66    0.06
  -1   7  -3    0.65    0.08
  -1  -7   3    0.69    0.06
   1   7   3    0.69    0.07
   1  -7  -3    0.70    0.08
   2  -7   3    2.53    0.13
  -2  -7  -3    2.46    0.11
  -2  -7  -3    2.38    0.11
  -2  -7   3    2.51    0.11
  -2   7  -3    2.67    0.12
   2   7   3    2.75    0.12
   2  -7  -3    2.57    0.13
   3  -7   3    1.25    0.11
  -3  -7  -3    1.57    0.11
   3  -7  -3    1.14    0.11
  -3  -7   3    0.98    0.09
  -4  -7  -3    0.01    0.06
   4  -7   3    0.00    0.07
   4  -7  -3    0.02    0.07
  -4  -7   3    0.01    0.06
  -5  -7  -3    0.08    0.07
   5  -7   3   -0.11    0.07
   5  -7  -3    0.03    0.08
  -5  -7   3   -0.04    0.07
   0  -8   3    0.73    0.07
   0  -8  -3    0.75    0.08
   0   8  -3    0.73    0.09
   0   8   3    0.81    0.09
  -1  -8  -3    7.26    0.19
   1  -8   3    6.90    0.19
   1   8   3    7.11    0.20
   1  -8  -3    6.95    0.20
  -1   8  -3    7.48    0.20
   2  -8   3    0.08    0.06
  -2  -8  -3    0.26    0.06
  -2  -8  -3    0.11    0.05
  -2   8  -3    0.28    0.07
   2  -8  -3    0.22    0.07
   2   8   3    0.20    0.07
  -2  -8   3    0.18    0.05
   3  -8   3    0.02    0.06
  -3  -8  -3    0.00    0.05
   3  -8  -3    0.05    0.06
  -3  -8   3    0.07    0.05
   4  -8   3    0.29    0.09
  -4  -8  -3    0.39    0.08
   4  -8  -3    0.25    0.09
  -4  -8   3    0.31    0.08
  -5  -8  -3   -0.10    0.06
   5  -8   3    0.14    0.09
   5  -8  -3   -0.05    0.08
  -5  -8   3    0.01    0.07
   0  -9   3    0.48    0.07
   0  -9  -3    0.51    0.08
   0   9  -3    0.50    0.08
   0   9   3    0.39    0.08
  -1  -9  -3    1.34    0.11
   1  -9   3    1.42    0.11
   1  -9  -3    1.23    0.11
   1   9   3    1.32    0.12
  -1   9  -3    1.31    0.12
   2  -9   3    0.28    0.08
   2   9   3    0.16    0.07
   2  -9  -3    0.20    0.07
   3  -9   3    0.90    0.11
   3  -9  -3    1.04    0.12
  -4  -9  -3   -0.01    0.06
   4  -9   3    0.17    0.09
   4  -9  -3    0.22    0.09
  -4  -9   3    0.04    0.07
   0  10  -3    0.74    0.10
   0  10   3    0.73    0.11
   0 -10  -3    0.81    0.10
  -1 -10  -3    0.14    0.06
   1 -10   3    0.10    0.06
   1  10  -3    0.11    0.07
  -1  10  -3    0.06    0.06
   1 -10  -3    0.19    0.07
   1  10   3    0.11    0.07
   2 -10   3    0.55    0.09
   2 -10  -3    0.49    0.10
   2  10   3    0.72    0.10
   3 -10   3    0.07    0.08
   3 -10  -3    0.07    0.08
   4 -10   3   -0.08    0.07
   4 -10  -3    0.03    0.08
   0 -11  -3    0.63    0.10
   0  11   3    0.54    0.10
   0  11  -3    0.52    0.10
   1  11  -3    0.25    0.08
   1 -11   3    0.07    0.07
  -1  11  -3    0.03    0.07
   1  11   3    0.10    0.08
   1 -11  -3    0.25    0.09
   2 -11   3    0.15    0.07
   2  11  -3    0.27    0.10
   2  11   3    0.36    0.10
   2 -11  -3    0.12    0.09
   3 -11   3    0.19    0.08
   3 -11  -3    0.16    0.09
   0  12  -3    0.10    0.08
   0  12   3    0.04    0.08
   0 -12  -3   -0.01    0.08
   1  12  -3    0.86    0.12
   1  12   3    0.84    0.13
   1 -12  -3    0.80    0.13
  -1  12  -3    0.66    0.11
   2  12  -3    0.12    0.09
   2 -12   3   -0.06    0.07
   2  12   3    0.06    0.09
   2 -12  -3    0.20    0.09
   0  13  -3    0.32    0.10
   0  13   3    0.35    0.11
   1  13  -3    0.05    0.09
   1 -13  -3    0.06    0.09
  -1  13  -3    0.10    0.09
   1  13   3   -0.05    0.08
   2 -13   3    0.10    0.09
   0   0   4    2.32    0.06
  -1   0   4  259.73    2.50
   1   0  -4  262.44    2.41
  -1   0  -4  256.21    2.37
  -1   0   4  260.21    2.29
   2   0  -4    6.69    0.14
   2   0  -4    6.63    0.11
  -2   0  -4    6.74    0.14
  -2   0   4    6.42    0.13
  -2   0  -4    6.55    0.13
  -2   0   4    6.63    0.14
  -3   0   4    0.72    0.07
  -3   0   4    0.67    0.06
   3   0  -4    0.74    0.06
  -3   0  -4    0.85    0.07
  -3   0  -4    0.70    0.06
  -4   0  -4    0.71    0.08
  -4   0  -4    0.60    0.07
  -4   0   4    0.68    0.08
  -5   0  -4    0.39    0.08
  -5   0   4    0.40    0.08
  -5   0  -4    0.31    0.07
  -6   0   4    0.09    0.07
  -6   0  -4   -0.12    0.06
   0  -1   4  368.51    3.64
   0   1  -4  373.45    3.60
   0  -1   4  377.03    3.37
   0  -1  -4  383.59    3.45
  -1  -1  -4   37.57    0.41
  -1   1   4   37.34    0.40
  -1   1   4   37.18    0.37
  -1  -1   4   36.66    0.38
   1  -1  -4   37.73    0.39
  -1   1  -4   36.86    0.41
  -1  -1   4   37.36    0.41
   1  -1  -4   36.81    0.40
  -2   1   4   55.51    0.59
  -2   1   4   55.58    0.56
  -2  -1  -4   54.76    0.60
  -2  -1  -4   56.25    0.57
  -2  -1   4   54.95    0.61
   2  -1  -4   55.62    0.57
  -2  -1   4   55.06    0.57
  -2   1  -4   56.33    0.56
   2  -1  -4   55.55    0.59
  -3  -1  -4    5.12    0.14
  -3   1   4    5.14    0.14
  -3   1   4    5.26    0.13
  -3  -1  -4    5.28    0.14
  -3  -1   4    5.15    0.14
  -3  -1   4    5.64    0.15
  -3   1  -4    4.98    0.13
  -3   1  -4    5.14    0.15
   3  -1  -4    5.14    0.12
  -4  -1  -4    0.80    0.08
  -4   1   4    0.81    0.08
  -4  -1  -4    0.84    0.08
  -4  -1   4    0.77    0.08
  -4   1  -4    0.78    0.08
  -4   1  -4    0.85    0.09
  -5   1   4    0.14    0.06
  -5  -1  -4    0.10    0.06
  -5   1  -4    0.17    0.06
  -5   1  -4    0.04    0.07
  -5  -1   4    0.10    0.06
  -6  -1  -4    0.21    0.08
  -6  -1   4    0.09    0.07
   0  -2  -4    7.94    0.13
   0  -2   4    8.04    0.11
   0   2  -4    7.85    0.12
   0  -2   4    7.90    0.12
  -1   2   4   61.43    0.57
  -1  -2  -4   61.37    0.63
  -1  -2  -4   61.42    0.59
  -1   2   4   62.11    0.61
   1  -2  -4   60.89    0.62
   1  -2  -4   60.31    0.61
  -1   2  -4   61.12    0.63
  -1  -2   4   61.22    0.63
  -1  -2   4   61.77    0.60
  -2   2   4    0.32    0.04
  -2   2   4    0.27    0.04
  -2  -2  -4    0.26    0.04
  -2  -2  -4    0.32    0.04
  -2  -2   4    0.28    0.04
   2  -2  -4    0.28    0.04
   2  -2  -4    0.27    0.04
  -2   2  -4    0.16    0.04
  -2  -2   4    0.25    0.04
  -3   2   4   13.72    0.22
  -3  -2  -4   13.58    0.24
  -3   2   4   13.76    0.23
  -3  -2  -4   13.71    0.24
  -3  -2   4   13.65    0.24
  -3   2  -4   13.50    0.21
   3  -2  -4   13.65    0.23
  -3  -2   4   13.89    0.27
  -3   2  -4   13.72    0.25
  -4   2   4    0.29    0.06
  -4  -2  -4    0.30    0.07
  -4  -2  -4    0.38    0.07
  -4  -2   4    0.26    0.06
  -4   2  -4    0.27    0.07
  -4   2  -4    0.28    0.06
  -5  -2  -4    0.30    0.08
  -5   2  -4    0.30    0.08
  -5  -2   4    0.13    0.07
  -6  -2  -4   -0.11    0.06
  -6  -2   4    0.00    0.07
   0  -3   4    1.59    0.05
   0   3  -4    1.59    0.05
   0  -3   4    1.59    0.05
   0   3  -4    1.64    0.05
   0  -3  -4    1.54    0.06
  -1  -3  -4   49.42    0.53
  -1  -3  -4   49.77    0.50
  -1   3   4   48.53    0.47
   1   3  -4   49.04    0.53
  -1   3   4   48.55    0.50
   1  -3   4   49.17    0.50
  -1   3  -4   48.82    0.53
   1  -3  -4   49.24    0.53
  -1  -3   4   48.80    0.50
  -1   3  -4   50.09    0.53
   1   3   4   49.29    0.52
  -1  -3   4   49.56    0.53
  -2   3   4   18.66    0.24
  -2  -3  -4   18.73    0.26
  -2   3   4   18.74    0.23
  -2  -3  -4   18.54    0.27
   2  -3  -4   18.83    0.24
  -2  -3   4   18.62    0.26
  -2   3  -4   18.24    0.28
   2  -3  -4   18.03    0.27
  -2  -3   4   18.75    0.28
  -3  -3  -4    1.56    0.09
  -3   3   4    1.37    0.07
  -3  -3  -4    1.42    0.09
  -3   3   4    1.33    0.07
  -3  -3   4    1.13    0.08
   3  -3  -4    1.35    0.08
  -3   3  -4    1.42    0.10
  -4  -3  -4    0.71    0.08
  -4  -3  -4    0.87    0.09
  -4   3  -4    0.72    0.09
   4  -3  -4    0.86    0.09
  -4  -3   4    0.72    0.09
  -5  -3  -4    0.03    0.06
   5  -3   4    0.06    0.07
  -5  -3   4   -0.01    0.06
  -5   3  -4    0.14    0.08
  -6  -3  -4    0.09    0.08
   6  -3   4    0.06    0.08
  -6  -3   4   -0.18    0.07
  -6   3  -4    0.09    0.09
   0  -4   4   13.46    0.17
   0  -4   4   13.38    0.18
   0   4  -4   12.94    0.18
   0  -4  -4   13.24    0.21
   0   4  -4   13.41    0.18
   0  -4   4   13.37    0.18
   0   4   4   12.95    0.21
   1  -4   4   19.47    0.21
  -1   4   4   18.86    0.21
   1   4  -4   19.40    0.26
  -1   4   4   19.26    0.22
   1  -4   4   18.88    0.22
  -1  -4  -4   19.28    0.27
  -1  -4  -4   18.77    0.24
   1  -4   4   18.86    0.27
  -1  -4   4   18.90    0.24
  -1   4  -4   18.81    0.27
  -1   4  -4   19.52    0.27
   1   4   4   18.75    0.26
   1  -4  -4   19.01    0.27
  -1  -4   4   18.59    0.26
  -2  -4  -4    2.82    0.10
  -2  -4  -4    2.81    0.10
  -2   4   4    2.69    0.07
   2  -4  -4    2.77    0.11
  -2   4  -4    2.83    0.11
  -2  -4   4    2.85    0.10
   2  -4  -4    2.79    0.07
  -2  -4   4    2.68    0.10
  -3  -4  -4    2.65    0.11
  -3  -4  -4    2.47    0.12
   3  -4  -4    2.56    0.12
  -3   4  -4    2.58    0.13
  -3  -4   4    2.58    0.12
   4  -4   4    0.45    0.08
  -4  -4  -4    0.39    0.08
  -4   4  -4    0.39    0.08
   4  -4  -4    0.58    0.08
  -4  -4   4    0.35    0.08
  -5  -4  -4    0.05    0.07
   5  -4   4    0.10    0.08
  -5   4  -4    0.29    0.09
  -5  -4   4    0.08    0.07
  -6  -4  -4    0.10    0.08
   6  -4   4    0.10    0.09
  -6  -4   4    0.04    0.08
  -6   4  -4    0.18    0.09
   0  -5   4   62.65    0.59
   0  -5  -4   60.78    0.67
   0  -5   4   61.47    0.64
   0   5   4   61.24    0.69
   0  -5   4   62.15    0.62
  -1  -5  -4   16.19    0.22
  -1   5   4   16.26    0.19
   1  -5   4   16.24    0.25
   1   5  -4   16.22    0.25
  -1  -5  -4   16.27    0.25
   1  -5   4   16.13    0.19
   1   5   4   16.11    0.25
   1  -5  -4   16.43    0.26
  -1   5  -4   16.38    0.25
  -1  -5   4   16.55    0.24
  -1   5  -4   16.38    0.26
  -1  -5   4   16.10    0.23
  -2  -5  -4    9.03    0.18
  -2  -5  -4    8.74    0.18
   2  -5   4    8.44    0.19
   2  -5  -4    8.83    0.19
  -2  -5   4    8.85    0.19
  -2   5  -4    8.77    0.20
  -2  -5   4    8.96    0.18
  -3  -5  -4    0.74    0.08
  -3  -5  -4    0.81    0.08
   3  -5   4    0.84    0.09
  -3  -5   4    0.91    0.09
   3  -5  -4    0.95    0.09
  -3   5  -4    0.85    0.09
   4  -5   4    0.37    0.08
  -4  -5  -4    0.28    0.07
  -4   5  -4    0.34    0.08
  -4  -5   4    0.33    0.07
   4  -5  -4    0.26    0.08
   5  -5   4   -0.02    0.08
  -5  -5  -4    0.11    0.07
  -5   5  -4    0.07    0.08
  -5  -5   4    0.14    0.07
   6  -5   4    0.11    0.09
  -6   5  -4   -0.11    0.09
   0  -6   4    2.00    0.07
   0  -6  -4    2.04    0.10
   0  -6   4    1.98    0.08
   0   6   4    1.94    0.09
  -1  -6  -4   18.25    0.29
   1  -6   4   18.40    0.29
  -1  -6  -4   18.86    0.25
  -1  -6   4   18.93    0.27
  -1  -6   4   18.47    0.25
   1  -6  -4   18.75    0.30
  -1   6  -4   18.84    0.29
   1   6   4   18.60    0.30
  -1   6  -4   18.31    0.30
  -2  -6  -4    3.07    0.11
  -2  -6  -4    3.20    0.12
   2  -6   4    3.26    0.13
  -2  -6   4    3.14    0.11
   2  -6  -4    3.07    0.13
   2   6   4    3.28    0.12
  -2   6  -4    3.35    0.12
  -2   6  -4    3.07    0.13
  -3  -6  -4    3.31    0.14
  -3  -6  -4    3.36    0.14
   3  -6   4    3.44    0.15
   3  -6  -4    3.30    0.15
  -3  -6   4    3.48    0.14
  -3   6  -4    3.20    0.15
   4  -6   4    0.20    0.08
  -4  -6  -4    0.18    0.07
  -4  -6   4    0.31    0.07
  -4   6  -4    0.31    0.09
   4  -6  -4    0.19    0.08
  -5  -6  -4    0.10    0.07
   5  -6   4    0.13    0.09
  -5   6  -4    0.21    0.09
  -5  -6   4    0.16    0.07
   5  -6  -4    0.11    0.08
   0   7   4   14.16    0.27
   0  -7  -4   13.81    0.26
   0  -7   4   13.98    0.23
  -1  -7  -4    0.73    0.07
   1  -7   4    0.84    0.08
   1  -7  -4    0.59    0.07
  -1   7  -4    0.79    0.08
  -1  -7   4    0.90    0.07
   1   7   4    0.71    0.08
   2  -7   4    3.54    0.15
  -2  -7  -4    3.71    0.13
  -2  -7  -4    3.77    0.14
  -2   7  -4    3.41    0.14
   2  -7  -4    3.79    0.15
   2   7   4    3.49    0.13
  -2  -7   4    3.70    0.13
   3  -7   4    1.36    0.12
  -3  -7  -4    1.18    0.10
   3  -7  -4    1.25    0.11
  -3  -7   4    1.21    0.10
  -3   7  -4    1.18    0.11
   4  -7   4   -0.01    0.07
  -4  -7  -4   -0.08    0.06
   4  -7  -4    0.15    0.07
  -4  -7   4    0.13    0.07
  -4   7  -4    0.20    0.08
   5  -7   4   -0.01    0.08
  -5  -7  -4   -0.01    0.07
   5  -7  -4    0.07    0.08
  -5  -7   4    0.09    0.08
   0  -8  -4    2.90    0.13
   0  -8   4    3.06    0.12
   0   8   4    3.15    0.14
   0   8  -4    2.74    0.13
  -1  -8  -4    0.45    0.07
   1  -8   4    0.49    0.07
   1   8   4    0.49    0.08
  -1   8  -4    0.37    0.07
   1  -8  -4    0.39    0.07
  -2  -8  -4    4.42    0.14
   2  -8   4    4.11    0.16
  -2  -8  -4    4.32    0.16
  -2   8  -4    4.47    0.17
   2  -8  -4    3.99    0.17
   2   8   4    4.25    0.16
  -2  -8   4    4.48    0.14
  -3  -8  -4    0.13    0.06
   3  -8   4    0.19    0.08
  -3  -8   4    0.03    0.05
   3  -8  -4   -0.05    0.06
   4  -8   4   -0.04    0.08
  -4  -8  -4    0.04    0.06
  -4  -8   4    0.10    0.07
   4  -8  -4    0.10    0.07
  -5  -8  -4    0.11    0.08
   5  -8   4    0.13    0.09
   5  -8  -4    0.09    0.09
  -5  -8   4   -0.02    0.07
   0  -9  -4    0.03    0.05
   0   9  -4    0.12    0.06
   0   9   4    0.12    0.06
  -1  -9  -4    2.96    0.14
   1  -9   4    2.70    0.14
   1  -9  -4    2.76    0.15
   1   9   4    2.53    0.15
  -1   9  -4    2.75    0.14
   2  -9   4    0.10    0.06
   2  -9  -4    0.10    0.07
  -2   9  -4    0.09    0.06
   2   9   4    0.06    0.06
   3  -9   4    0.23    0.08
   3  -9  -4    0.15    0.08
  -4  -9  -4    0.20    0.08
   4  -9   4    0.27    0.09
  -4  -9   4    0.14    0.07
   4  -9  -4    0.15    0.08
   0  10   4    0.79    0.11
   0  10  -4    0.55    0.09
   0 -10  -4    0.87    0.10
   1  10  -4    0.03    0.06
   1 -10   4    0.10    0.06
  -1 -10  -4    0.12    0.06
  -1  10  -4    0.02    0.06
   1  10   4    0.06    0.07
   1 -10  -4    0.04    0.07
   2 -10   4    0.47    0.09
  -2  10  -4    0.63    0.09
   2 -10  -4    0.52    0.10
   2  10   4    0.69    0.10
   3 -10   4    0.06    0.07
   3 -10  -4    0.25    0.09
   4 -10   4    0.08    0.08
   4 -10  -4    0.12    0.09
   0 -11  -4    0.33    0.09
   0  11   4    0.42    0.10
   0  11  -4    0.45    0.09
   1  11  -4    0.13    0.07
  -1 -11  -4    0.02    0.06
   1  11   4    0.06    0.08
  -1  11  -4    0.13    0.08
   1 -11  -4    0.18    0.08
   2 -11   4    0.00    0.06
   2 -11  -4    0.01    0.08
   2  11   4    0.03    0.09
   3 -11   4    0.05    0.08
   3 -11  -4    0.09    0.09
   0  12  -4    0.49    0.11
   0 -12  -4    0.23    0.09
   0  12   4    0.43    0.11
   1  12  -4    0.10    0.08
   1  12   4    0.19    0.09
  -1  12  -4    0.06    0.08
   1 -12  -4    0.18    0.10
   2 -12   4    0.10    0.07
   2  12  -4   -0.01    0.09
   2 -12  -4   -0.02    0.09
   2  12   4    0.15    0.09
   0 -13  -4    0.39    0.10
   0  13  -4    0.08    0.09
   1 -13  -4    0.21    0.10
  -1  13  -4    0.17    0.09
   1  13   4    0.21    0.10
   0   0   5    0.00    0.02
   0   0  -5   -0.02    0.02
   0   0   5   -0.02    0.01
  -1   0  -5   81.56    0.81
  -1   0   5   83.51    0.82
   1   0  -5   80.49    0.81
  -1   0   5   82.23    0.77
  -2   0   5   22.82    0.29
  -2   0  -5   22.84    0.29
   2   0  -5   22.91    0.26
  -2   0  -5   22.18    0.31
  -2   0   5   22.80    0.31
  -3   0   5    2.11    0.10
  -3   0  -5    2.09    0.09
  -3   0   5    2.21    0.10
  -3   0  -5    2.22    0.10
  -4   0  -5    1.28    0.10
  -4   0  -5    1.04    0.10
  -4   0   5    1.31    0.10
  -5   0  -5    0.20    0.07
  -5   0  -5    0.27    0.09
  -5   0   5    0.42    0.08
  -6   0   5    0.04    0.07
  -6   0  -5    0.04    0.07
   0  -1   5    2.24    0.06
   0   1   5    2.31    0.06
   0  -1  -5    2.25    0.07
   0  -1   5    2.28    0.06
   0   1  -5    2.29    0.06
  -1  -1  -5   64.55    0.67
  -1   1   5   65.04    0.66
  -1   1   5   65.53    0.62
  -1  -1   5   63.86    0.67
   1  -1  -5   66.06    0.64
  -1  -1   5   64.87    0.63
  -1   1  -5   65.94    0.67
   1  -1  -5   65.40    0.66
  -2   1   5   28.36    0.35
  -2  -1  -5   28.07    0.36
  -2  -1  -5   28.55    0.34
  -2   1   5   28.31    0.33
   2  -1  -5   28.67    0.36
  -2   1  -5   27.74    0.37
  -2  -1   5   28.35    0.37
  -2  -1   5   28.74    0.35
   2  -1  -5   28.66    0.33
  -3  -1  -5    6.08    0.15
  -3   1   5    6.02    0.14
  -3   1   5    5.95    0.15
  -3  -1  -5    6.01    0.16
  -3  -1   5    6.10    0.15
  -3   1  -5    6.13    0.16
  -3   1  -5    6.07    0.14
  -3  -1   5    6.13    0.16
   3  -1  -5    6.01    0.13
  -4   1   5    2.03    0.11
  -4  -1  -5    2.17    0.12
  -4  -1  -5    2.14    0.12
  -4   1  -5    2.07    0.13
  -4   1  -5    2.15    0.11
  -4  -1   5    1.84    0.11
  -5  -1  -5    0.01    0.07
  -5   1   5    0.08    0.06
  -5  -1  -5    0.02    0.06
  -5   1  -5    0.16    0.07
  -5  -1   5    0.19    0.07
  -5   1  -5    0.06    0.06
  -6  -1  -5   -0.06    0.06
  -6  -1   5   -0.01    0.06
   0  -2  -5    0.17    0.03
   0   2  -5    0.18    0.03
   0  -2   5    0.22    0.03
   0  -2   5    0.21    0.03
  -1   2   5   38.41    0.42
  -1  -2  -5   40.02    0.45
  -1   2   5   40.20    0.40
   1   2  -5   39.62    0.45
   1  -2  -5   40.15    0.43
  -1   2  -5   39.51    0.44
   1  -2  -5   39.42    0.43
  -1  -2   5   38.81    0.44
  -1  -2   5   39.97    0.42
  -2   2   5   51.41    0.56
  -2   2   5   52.36    0.53
  -2  -2  -5   51.29    0.58
  -2  -2  -5   52.25    0.56
  -2  -2   5   52.51    0.56
  -2  -2   5   52.07    0.59
  -2   2  -5   53.69    0.60
   2  -2  -5   52.70    0.57
   2  -2  -5   52.57    0.56
  -3  -2  -5    5.17    0.15
  -3   2   5    5.08    0.13
  -3  -2  -5    5.00    0.14
  -3   2   5    5.08    0.14
   3  -2  -5    5.20    0.13
  -3  -2   5    4.88    0.14
  -3   2  -5    4.91    0.15
  -4  -2  -5    0.89    0.09
  -4  -2  -5    0.96    0.09
  -4   2   5    0.97    0.08
  -4  -2   5    0.85    0.09
  -4   2  -5    0.94    0.10
  -4   2  -5    1.17    0.09
  -5  -2  -5    0.32    0.08
  -5   2  -5    0.31    0.09
  -5  -2   5    0.33    0.08
   6  -2   5    0.21    0.09
  -6  -2  -5   -0.01    0.07
  -6  -2   5    0.07    0.07
   0  -3   5    3.09    0.08
   0  -3  -5    3.19    0.09
   0  -3   5    3.13    0.07
   0   3  -5    3.21    0.08
   1  -3   5   42.71    0.46
  -1   3   5   43.20    0.43
  -1  -3  -5   43.63    0.49
   1   3  -5   43.95    0.49
  -1   3   5   43.44    0.46
  -1  -3   5   43.23    0.48
  -1  -3   5   42.91    0.46
   1  -3  -5   42.90    0.48
  -1   3  -5   43.99    0.47
   1   3   5   43.31    0.47
  -1   3  -5   43.43    0.49
  -2  -3  -5    6.75    0.16
  -2   3   5    6.91    0.13
  -2   3   5    6.86    0.13
  -2  -3  -5    7.07    0.15
  -2  -3   5    6.70    0.16
   2   3   5    6.93    0.12
  -2  -3   5    6.80    0.15
   2  -3  -5    7.04    0.13
   2  -3  -5    6.96    0.15
  -2   3  -5    6.97    0.16
  -3  -3  -5    0.57    0.07
  -3   3   5    0.62    0.06
  -3  -3  -5    0.66    0.07
  -3   3   5    0.61    0.06
  -3   3  -5    0.62    0.08
  -3  -3   5    0.54    0.07
   3  -3  -5    0.73    0.07
  -4  -3  -5    2.49    0.13
  -4  -3  -5    2.75    0.14
  -4   3  -5    2.39    0.14
  -4  -3   5    2.51    0.13
   4  -3  -5    2.30    0.12
  -5  -3  -5   -0.02    0.06
  -5   3  -5    0.04    0.07
  -5  -3   5    0.07    0.07
  -6  -3  -5    0.02    0.07
   6  -3   5   -0.03    0.08
  -6   3  -5    0.07    0.09
  -6  -3   5   -0.02    0.07
   0  -4   5    0.05    0.02
   0  -4  -5    0.03    0.03
   0  -4   5    0.01    0.02
   0   4  -5    0.08    0.03
   0  -4   5    0.03    0.03
  -1   4   5   31.62    0.35
   1  -4   5   31.17    0.33
   1  -4   5   30.29    0.34
  -1   4   5   30.67    0.32
  -1  -4  -5   31.43    0.39
  -1   4  -5   31.66    0.38
   1   4   5   31.39    0.38
  -1   4  -5   31.00    0.39
  -1  -4   5   30.47    0.36
   1  -4  -5   31.30    0.39
  -1  -4   5   31.71    0.38
  -2   4   5    8.82    0.15
  -2  -4  -5    8.57    0.17
  -2  -4  -5    8.97    0.18
   2  -4  -5    8.79    0.18
  -2  -4   5    8.88    0.18
   2  -4  -5    8.86    0.15
  -2  -4   5    8.92    0.19
  -2   4  -5    8.83    0.19
   2   4   5    8.92    0.16
  -3  -4  -5    4.38    0.14
  -3  -4  -5    4.63    0.15
   3  -4  -5    4.52    0.15
  -3   4  -5    4.66    0.16
  -3  -4   5    4.88    0.15
  -4  -4  -5    0.91    0.10
  -4  -4  -5    1.07    0.10
  -4  -4   5    1.17    0.11
  -4   4  -5    1.12    0.11
   4  -4  -5    1.13    0.10
   5  -4   5    0.06    0.08
  -5  -4  -5    0.10    0.07
  -5   4  -5    0.11    0.08
  -5  -4   5    0.18    0.07
   6  -4   5   -0.10    0.08
  -6   4  -5    0.03    0.09
   0   5  -5   23.85    0.30
   0   5  -5   24.79    0.30
   0  -5   5   24.14    0.30
   0  -5   5   24.61    0.28
   0  -5   5   24.36    0.30
   0  -5  -5   24.59    0.34
   1  -5   5    6.39    0.11
   1  -5   5    6.44    0.15
  -1   5   5    6.20    0.11
   1  -5   5    6.29    0.11
  -1  -5  -5    6.21    0.15
  -1   5  -5    6.30    0.15
   1  -5  -5    6.37    0.16
  -1  -5   5    6.47    0.14
   1   5   5    6.28    0.14
  -1   5  -5    6.26    0.15
  -1  -5   5    6.48    0.13
   2  -5   5    4.44    0.15
  -2  -5  -5    4.37    0.13
  -2  -5  -5    4.41    0.14
   2  -5  -5    4.04    0.14
   2   5   5    4.28    0.12
  -2   5  -5    4.43    0.15
  -2   5  -5    4.31    0.12
  -2  -5   5    4.42    0.14
  -2  -5   5    4.60    0.13
  -3  -5  -5    5.28    0.16
  -3  -5  -5    5.11    0.16
   3  -5   5    5.15    0.18
  -3   5  -5    5.33    0.18
   3  -5  -5    5.33    0.17
  -3  -5   5    5.51    0.17
  -4  -5  -5    0.18    0.07
   4  -5   5    0.09    0.07
   4  -5  -5    0.21    0.07
  -4  -5   5    0.27    0.07
  -4   5  -5    0.10    0.07
   5  -5   5    0.16    0.08
  -5  -5  -5    0.10    0.07
  -5   5  -5    0.07    0.08
  -5  -5   5    0.17    0.07
   0  -6   5    0.24    0.03
   0  -6   5    0.21    0.03
   0  -6  -5    0.22    0.05
   0  -6   5    0.24    0.04
   0   6   5    0.16    0.04
   1  -6   5   12.34    0.22
  -1  -6  -5   12.17    0.23
  -1  -6   5   12.46    0.21
  -1   6  -5   12.49    0.23
  -1  -6   5   12.39    0.20
   1  -6  -5   11.84    0.24
  -1   6  -5   12.02    0.23
   1   6   5   12.14    0.23
  -2  -6  -5    3.81    0.12
  -2  -6  -5    3.95    0.14
   2  -6   5    3.78    0.14
  -2  -6   5    3.76    0.13
  -2   6  -5    3.71    0.14
  -2   6  -5    3.61    0.13
   2   6   5    3.61    0.12
   2  -6  -5    3.71    0.14
  -3  -6  -5    1.75    0.11
   3  -6   5    1.76    0.12
  -3  -6  -5    1.72    0.11
  -3  -6   5    2.02    0.12
   3  -6  -5    1.68    0.12
  -3   6  -5    2.06    0.13
  -4  -6  -5    0.28    0.07
   4  -6   5    0.37    0.09
   4  -6  -5    0.51    0.09
  -4   6  -5    0.33    0.09
  -4  -6   5    0.38    0.08
   5  -6   5   -0.07    0.07
  -5  -6  -5    0.15    0.08
  -5   6  -5   -0.09    0.08
  -5  -6   5    0.02    0.06
   0  -7   5    5.25    0.14
   0   7   5    5.15    0.16
   0  -7  -5    5.12    0.16
  -1  -7  -5    1.68    0.10
   1  -7   5    1.63    0.10
   1  -7  -5    1.74    0.11
  -1  -7   5    1.74    0.08
   1   7   5    1.72    0.10
  -1   7  -5    1.88    0.11
  -2  -7  -5    7.77    0.18
   2  -7   5    7.97    0.21
  -2  -7  -5    7.90    0.20
  -2   7  -5    7.93    0.21
  -2  -7   5    7.96    0.18
   2   7   5    8.31    0.20
   2  -7  -5    7.92    0.21
  -2   7  -5    8.06    0.20
   3  -7   5    2.59    0.15
  -3  -7  -5    2.42    0.13
  -3  -7   5    2.62    0.14
  -3   7  -5    2.56    0.15
   3  -7  -5    2.38    0.14
  -4  -7  -5    0.50    0.09
   4  -7   5    0.64    0.10
  -4  -7   5    0.54    0.09
   4  -7  -5    0.76    0.11
  -4   7  -5    0.51    0.10
  -5  -7  -5    0.02    0.07
   5  -7   5    0.06    0.08
  -5  -7   5    0.15    0.08
   5  -7  -5    0.00    0.08
  -5   7  -5    0.10    0.09
   0  -8  -5    0.02    0.05
   0   8  -5    0.01    0.05
   0   8   5   -0.05    0.05
   1  -8   5    3.16    0.14
  -1  -8  -5    3.23    0.14
  -1   8  -5    2.79    0.14
   1   8   5    3.10    0.14
   1  -8  -5    2.83    0.14
  -2  -8  -5    2.79    0.12
   2  -8   5    2.72    0.14
  -2  -8  -5    2.87    0.13
  -2  -8   5    2.94    0.12
  -2   8  -5    2.79    0.14
   2  -8  -5    2.78    0.15
   2   8   5    2.98    0.14
  -3  -8  -5    1.06    0.10
   3  -8   5    0.89    0.10
  -3  -8   5    0.99    0.10
   3  -8  -5    0.95    0.11
  -4  -8  -5   -0.04    0.06
   4  -8   5    0.04    0.08
   4  -8  -5    0.13    0.08
  -4  -8   5    0.15    0.07
  -5  -8  -5    0.02    0.07
   5  -8  -5    0.01    0.08
  -5  -8   5    0.08    0.08
   0  -9  -5    0.27    0.07
   0   9  -5    0.31    0.08
   0   9   5    0.27    0.07
   1  -9   5    0.97    0.10
  -1  -9  -5    1.13    0.10
   1   9   5    1.18    0.11
  -1   9  -5    1.07    0.11
   1  -9  -5    0.95    0.10
   2  -9   5    0.76    0.10
  -2  -9  -5    0.62    0.09
   2   9   5    0.55    0.09
  -2   9  -5    0.74    0.09
   2  -9  -5    0.66    0.10
   3  -9   5    0.11    0.07
   3  -9  -5    0.06    0.07
  -4  -9  -5    0.09    0.07
   4  -9   5    0.09    0.08
   4  -9  -5    0.20    0.09
  -4  -9   5    0.28    0.08
   0  10   5    0.23    0.08
   0 -10  -5    0.23    0.08
   0  10  -5    0.33    0.08
  -1 -10  -5    0.79    0.10
   1 -10   5    0.71    0.09
   1  10   5    0.86    0.11
  -1  10  -5    0.55    0.09
   1 -10  -5    0.84    0.11
   2 -10   5    0.34    0.08
   2  10   5    0.15    0.07
  -2  10  -5    0.27    0.08
   2 -10  -5    0.22    0.08
   3 -10   5    1.17    0.13
   3 -10  -5    0.94    0.13
   4 -10   5    0.15    0.09
   4 -10  -5   -0.07    0.08
   0 -11  -5    0.39    0.10
   0  11  -5    0.45    0.10
   1  11  -5    0.43    0.10
  -1 -11  -5    0.56    0.10
   1  11   5    0.44    0.10
  -1  11  -5    0.43    0.09
   1 -11  -5    0.58    0.10
   2 -11   5    1.13    0.13
   2 -11  -5    1.62    0.16
   2  11   5    1.10    0.13
  -2  11  -5    0.81    0.12
   3 -11   5    0.06    0.08
   3 -11  -5    0.16    0.09
   0  12  -5    0.06    0.08
   0 -12  -5   -0.03    0.07
   1  12  -5    0.27    0.10
   1  12   5    0.27    0.10
   1 -12  -5    0.46    0.11
  -1  12  -5    0.29    0.10
   2  12  -5    0.32    0.11
   2 -12   5    0.37    0.09
   2 -12  -5    0.27    0.11
   0 -13  -5   -0.06    0.08
   0  13  -5   -0.13    0.07
  -1  13  -5    0.11    0.09
   1  13   5    0.22    0.10
   1 -13  -5    0.14    0.10
   0   0   6  761.02    7.39
   0   0   6  772.09    6.90
   0   0  -6  778.40    7.12
  -1   0  -6   32.96    0.39
   1   0  -6   33.11    0.35
   1   0  -6   33.20    0.39
  -1   0   6   32.55    0.38
  -1   0   6   33.07    0.36
  -2   0  -6   19.97    0.29
   2   0  -6   19.92    0.23
  -2   0   6   19.31    0.27
  -2   0   6   19.67    0.28
  -3   0  -6    5.99    0.15
  -3   0   6    5.71    0.15
  -3   0   6    5.56    0.16
  -3   0  -6    5.70    0.16
  -4   0  -6    0.02    0.06
  -4   0  -6    0.14    0.06
  -4   0   6    0.10    0.05
  -5   0   6   -0.03    0.05
  -5   0  -6   -0.02    0.07
  -5   0  -6   -0.01    0.06
  -6   0  -6   -0.03    0.07
  -6   0   6    0.09    0.07
   0   1   6   24.42    0.30
   0  -1   6   24.13    0.30
   0   1  -6   24.66    0.28
   0  -1  -6   24.45    0.29
  -1   1   6    2.22    0.07
  -1  -1  -6    2.14    0.08
  -1   1   6    2.20    0.07
  -1  -1   6    2.24    0.07
  -1  -1   6    2.21    0.08
  -1   1  -6    2.27    0.08
   1  -1  -6    2.13    0.07
   1  -1  -6    2.21    0.07
  -2   1   6    2.93    0.09
  -2  -1  -6    3.27    0.11
  -2   1   6    3.19    0.10
  -2  -1   6    3.07    0.10
   2  -1  -6    3.01    0.08
  -2   1  -6    2.94    0.11
  -2  -1   6    3.06    0.10
  -3   1   6    3.30    0.11
  -3   1   6    3.10    0.12
  -3  -1  -6    3.32    0.13
  -3  -1  -6    3.13    0.12
  -3  -1   6    3.28    0.12
  -3   1  -6    3.14    0.13
  -4  -1  -6    1.00    0.09
  -4  -1  -6    1.01    0.10
  -4   1   6    0.91    0.09
  -4   1  -6    0.96    0.10
  -4  -1   6    0.88    0.09
  -4   1  -6    0.84    0.08
  -5  -1  -6    0.34    0.08
  -5   1   6    0.46    0.08
  -5  -1  -6    0.54    0.10
  -5  -1   6    0.54    0.09
  -5   1  -6    0.31    0.08
  -5   1  -6    0.37    0.08
  -6  -1  -6    0.07    0.08
  -6  -1   6   -0.02    0.07
   0  -2  -6   20.62    0.27
   0  -2   6   20.48    0.25
   0  -2   6   20.83    0.27
   0   2  -6   20.68    0.26
   0   2  -6   21.20    0.25
  -1  -2  -6   75.25    0.77
  -1   2   6   75.51    0.71
  -1   2   6   74.92    0.76
   1   2  -6   76.16    0.78
   1  -2  -6   75.52    0.76
  -1  -2   6   73.28    0.77
   1  -2  -6   75.33    0.76
  -1   2  -6   73.33    0.76
  -1  -2   6   75.47    0.73
  -2   2   6   23.29    0.29
  -2  -2  -6   22.75    0.33
  -2  -2  -6   22.64    0.31
  -2   2   6   22.90    0.30
  -2  -2   6   23.22    0.33
   2  -2  -6   23.12    0.30
  -2  -2   6   22.72    0.31
  -2   2  -6   22.92    0.33
  -3   2   6    3.81    0.12
  -3  -2  -6    3.53    0.12
  -3  -2  -6    3.52    0.13
  -3   2   6    3.67    0.12
   3  -2  -6    3.78    0.12
  -3   2  -6    3.67    0.14
  -4  -2  -6    0.64    0.09
  -4   2   6    0.58    0.07
  -4  -2  -6    0.51    0.08
  -4   2  -6    0.60    0.09
  -4  -2   6    0.67    0.09
  -5  -2  -6    0.00    0.06
  -5  -2   6   -0.02    0.06
  -5   2  -6    0.02    0.07
  -6  -2  -6   -0.02    0.07
  -6  -2   6    0.05    0.07
  -6   2  -6   -0.02    0.08
   0   3  -6   83.93    0.84
   0  -3   6   82.93    0.84
   0   3  -6   84.93    0.82
   0  -3   6   84.79    0.79
   0  -3  -6   82.73    0.85
  -1   3   6   52.46    0.52
  -1  -3  -6   52.38    0.58
  -1   3   6   51.24    0.55
   1  -3   6   51.53    0.55
   1  -3  -6   51.77    0.57
  -1  -3   6   51.70    0.54
  -1   3  -6   52.20    0.57
  -1  -3   6   50.60    0.57
  -2   3   6    1.01    0.06
  -2  -3  -6    0.91    0.07
  -2   3   6    0.99    0.05
  -2  -3  -6    0.98    0.07
   2  -3  -6    0.96    0.07
  -2  -3   6    0.99    0.07
  -2   3  -6    0.95    0.08
  -2  -3   6    1.00    0.07
   2  -3  -6    1.07    0.06
  -3  -3  -6    4.08    0.14
  -3  -3  -6    4.02    0.14
  -3   3   6    3.95    0.13
  -3   3   6    4.12    0.12
   3  -3  -6    4.09    0.13
  -3   3  -6    4.11    0.15
  -3  -3   6    4.20    0.14
  -4  -3  -6    0.42    0.08
  -4  -3  -6    0.60    0.09
  -4  -3   6    0.42    0.07
  -4   3  -6    0.51    0.09
  -5  -3  -6    0.50    0.09
  -5  -3   6    0.61    0.09
  -5   3  -6    0.66    0.10
  -6  -3  -6   -0.02    0.07
   6  -3   6   -0.09    0.09
  -6   3  -6    0.16    0.10
  -6  -3   6    0.15    0.08
   0  -4   6   75.78    0.72
   0  -4   6   74.72    0.77
   0  -4  -6   75.62    0.80
   0   4  -6   76.08    0.77
   0   4  -6   75.12    0.75
  -1  -4  -6   14.84    0.24
  -1   4   6   14.61    0.19
   1  -4   6   14.57    0.19
   1  -4   6   14.64    0.21
  -1   4   6   14.75    0.21
   1   4   6   14.71    0.22
  -1  -4   6   14.87    0.23
  -1   4  -6   14.57    0.23
   1  -4  -6   14.50    0.24
  -1  -4   6   14.42    0.22
  -1   4  -6   14.42    0.22
  -2  -4  -6    3.28    0.11
  -2   4   6    3.30    0.09
  -2  -4  -6    3.16    0.12
  -2   4   6    3.23    0.09
  -2   4  -6    3.22    0.12
  -2  -4   6    3.37    0.11
  -2  -4   6    3.39    0.12
   2  -4  -6    3.37    0.10
   2  -4  -6    3.50    0.12
  -3  -4  -6    1.42    0.10
  -3  -4  -6    1.48    0.10
  -3   4  -6    1.32    0.11
   3  -4  -6    1.32    0.10
  -3  -4   6    1.19    0.09
  -4  -4  -6    1.23    0.11
  -4  -4  -6    1.23    0.11
  -4   4  -6    1.25    0.12
   4  -4  -6    1.34    0.11
  -4  -4   6    1.39    0.12
  -5  -4  -6    0.17    0.08
   5  -4   6    0.14    0.08
  -5  -4   6    0.19    0.08
  -5   4  -6    0.07    0.08
   6  -4   6    0.09    0.10
  -6   4  -6   -0.03    0.09
   0   5  -6    8.78    0.15
   0  -5   6    8.61    0.15
   0  -5   6    8.73    0.15
   0  -5  -6    8.94    0.18
   0  -5   6    8.38    0.15
   0   5  -6    8.79    0.16
  -1  -5  -6    5.21    0.14
   1  -5   6    5.09    0.14
   1  -5   6    5.47    0.10
   1  -5   6    5.30    0.11
  -1   5   6    5.26    0.11
  -1   5  -6    5.28    0.14
  -1  -5   6    5.46    0.13
  -1  -5   6    5.33    0.12
  -1   5  -6    5.16    0.14
   1   5   6    5.43    0.13
   1  -5  -6    5.25    0.14
  -2  -5  -6    1.43    0.10
  -2  -5  -6    1.46    0.09
   2  -5  -6    1.60    0.10
  -2   5  -6    1.50    0.08
  -2  -5   6    1.47    0.09
  -2   5  -6    1.57    0.10
  -3  -5  -6    0.47    0.07
  -3  -5  -6    0.57    0.08
  -3  -5   6    0.51    0.07
  -3   5  -6    0.46    0.08
   3  -5  -6    0.57    0.08
   4  -5   6    0.15    0.07
  -4  -5  -6    0.14    0.07
   4  -5  -6    0.15    0.07
  -4  -5   6    0.18    0.07
  -4   5  -6    0.23    0.08
  -5  -5  -6    0.22    0.08
   5  -5   6    0.06    0.08
  -5  -5   6    0.30    0.08
  -5   5  -6    0.33    0.10
   0  -6   6    0.09    0.03
   0  -6  -6    0.03    0.04
   0  -6   6    0.05    0.03
   0  -6   6    0.00    0.03
   1  -6   6    7.19    0.17
  -1  -6  -6    7.21    0.18
  -1   6  -6    7.63    0.18
  -1   6  -6    7.10    0.17
   1  -6  -6    7.64    0.19
  -1  -6   6    7.51    0.16
  -1  -6   6    7.36    0.15
   1   6   6    7.35    0.17
   2  -6   6    1.69    0.11
  -2  -6  -6    1.87    0.11
  -2  -6  -6    1.79    0.10
  -2  -6   6    1.75    0.10
   2  -6  -6    1.81    0.11
  -2   6  -6    1.68    0.11
  -2   6  -6    1.88    0.10
   3  -6   6    1.34    0.12
  -3  -6  -6    1.24    0.10
  -3  -6  -6    1.24    0.10
  -3  -6   6    1.13    0.10
  -3   6  -6    1.34    0.12
   3  -6  -6    0.96    0.10
   4  -6   6    0.60    0.10
  -4  -6  -6    0.40    0.08
  -4  -6   6    0.58    0.09
   4  -6  -6    0.57    0.09
  -4   6  -6    0.55    0.10
  -5  -6  -6    0.18    0.08
   5  -6   6    0.18    0.09
  -5   6  -6    0.11    0.09
  -5  -6   6    0.22    0.08
   0  -7  -6   21.95    0.35
  -1  -7  -6    4.96    0.16
   1  -7   6    5.05    0.16
  -1   7  -6    5.09    0.16
   1   7   6    5.03    0.16
  -1  -7   6    5.11    0.13
  -1   7  -6    5.13    0.15
   1  -7  -6    5.03    0.17
   2  -7   6    1.21    0.11
  -2  -7  -6    1.37    0.10
  -2   7  -6    1.27    0.10
   2  -7  -6    1.28    0.11
  -2  -7   6    1.21    0.09
  -2   7  -6    1.33    0.11
  -3  -7  -6    0.12    0.06
   3  -7   6    0.23    0.07
  -3  -7  -6    0.19    0.06
   3  -7  -6    0.19    0.07
  -3  -7   6    0.22    0.06
  -3   7  -6    0.26    0.08
   4  -7   6    0.02    0.07
  -4  -7  -6   -0.08    0.05
   4  -7  -6    0.03    0.07
  -4   7  -6    0.01    0.08
  -4  -7   6    0.02    0.06
   5  -7   6    0.15    0.09
  -5  -7  -6    0.03    0.07
   5  -7  -6    0.00    0.08
  -5  -7   6    0.08    0.07
  -5   7  -6    0.06    0.09
   0  -8  -6    4.85    0.17
  -1  -8  -6    9.35    0.23
   1  -8   6    9.45    0.22
  -1   8  -6    9.60    0.24
   1  -8  -6    9.18    0.24
   1   8   6    9.70    0.23
  -2  -8  -6    0.39    0.07
   2  -8   6    0.35    0.07
   2  -8  -6    0.37    0.08
  -2   8  -6    0.33    0.07
  -2  -8   6    0.28    0.06
   3  -8   6    0.45    0.09
  -3  -8  -6    0.48    0.08
   3  -8  -6    0.50    0.09
  -3   8  -6    0.59    0.10
  -3  -8   6    0.47    0.08
   4  -8   6    0.05    0.08
  -4  -8  -6   -0.07    0.06
   4  -8  -6    0.04    0.07
  -4  -8   6    0.16    0.07
  -4   8  -6    0.04    0.08
   5  -8  -6    0.08    0.09
   0   9  -6    6.39    0.21
   0  -9  -6    6.37    0.20
  -1  -9  -6    0.83    0.10
   1  -9   6    0.55    0.08
   1   9   6    0.56    0.09
   1  -9  -6    0.50    0.09
  -1   9  -6    0.68    0.09
   2  -9   6    0.41    0.08
  -2  -9  -6    0.43    0.08
   2  -9  -6    0.40    0.09
  -2   9  -6    0.43    0.08
   3  -9   6    0.23    0.08
   3  -9  -6    0.20    0.09
  -4  -9  -6    0.23    0.08
   4  -9   6    0.35    0.11
  -4  -9   6    0.39    0.08
   4  -9  -6    0.21    0.09
   0  10  -6   -0.05    0.06
   0 -10  -6    0.01    0.07
  -1 -10  -6   -0.01    0.06
   1 -10  -6    0.04    0.07
  -1  10  -6    0.12    0.07
   1  10   6    0.11    0.07
   2 -10   6    0.36    0.08
  -2 -10  -6    0.39    0.09
  -2  10  -6    0.38    0.09
   2 -10  -6    0.31    0.10
   3 -10   6    0.12    0.08
   3 -10  -6    0.18    0.08
   4 -10  -6   -0.04    0.10
   0  11  -6    1.61    0.15
   0 -11  -6    1.42    0.14
   1  11  -6    0.19    0.08
  -1 -11  -6    0.15    0.08
   1 -11  -6    0.20    0.08
  -1  11  -6    0.17    0.08
   1  11   6    0.24    0.09
   2 -11   6    0.17    0.08
  -2  11  -6    0.06    0.07
   2 -11  -6    0.10    0.09
   3 -11   6    0.23    0.09
   3 -11  -6    0.10    0.09
   0  12  -6    0.32    0.10
   0 -12  -6    0.40    0.10
  -1 -12  -6    1.13    0.14
   1  12  -6    1.08    0.14
   1 -12  -6    1.18    0.15
   1  12   6    1.19    0.15
  -1  12  -6    1.31    0.15
   2  12  -6    0.04    0.09
   2 -12  -6    0.16    0.10
   0 -13  -6    0.92    0.13
   0   0   7   -0.02    0.02
   0   0   7   -0.03    0.02
   0   0  -7    0.01    0.02
   1   0  -7    0.16    0.03
  -1   0  -7    0.23    0.04
  -1   0   7    0.22    0.04
  -1   0   7    0.16    0.03
  -2   0   7    1.10    0.06
  -2   0  -7    1.07    0.08
  -2   0   7    1.14    0.07
   2   0  -7    1.15    0.05
  -3   0  -7    1.06    0.09
  -3   0   7    0.92    0.08
  -4   0   7    0.37    0.07
  -4   0  -7    0.46    0.08
  -5   0   7    0.18    0.07
  -5   0  -7    0.20    0.08
  -6   0   7   -0.03    0.07
   0   1  -7    5.56    0.11
   0   1   7    5.36    0.12
   0  -1  -7    5.46    0.12
   0  -1   7    5.38    0.11
   0  -1   7    5.61    0.12
  -1   1   7  104.36    1.04
  -1   1   7  105.45    0.98
  -1  -1  -7  105.94    1.05
  -1   1  -7  105.52    1.04
   1  -1  -7  104.23    1.04
   1  -1  -7  104.92    1.01
  -1  -1   7  103.54    1.05
  -1  -1   7  105.08    0.99
  -2  -1  -7    5.54    0.14
  -2   1   7    5.69    0.14
  -2   1   7    5.67    0.13
   2  -1  -7    5.75    0.12
  -2   1  -7    5.73    0.15
  -2  -1   7    5.70    0.14
  -2  -1   7    5.63    0.13
  -3   1   7    3.32    0.11
  -3  -1  -7    3.11    0.13
  -3   1   7    3.07    0.13
  -3  -1   7    3.00    0.12
  -3   1  -7    3.19    0.13
  -4  -1  -7    1.90    0.13
  -4   1   7    1.98    0.11
  -4  -1  -7    1.98    0.12
  -4  -1   7    1.97    0.12
  -4   1  -7    1.81    0.13
  -5  -1  -7    0.23    0.08
  -5  -1  -7   -0.05    0.06
  -5   1   7    0.06    0.06
  -5   1  -7    0.03    0.08
  -5  -1   7    0.01    0.06
  -6  -1   7    0.04    0.07
  -6   1  -7   -0.02    0.08
   0  -2   7   96.67    0.95
   0   2   7   95.67    0.95
   0  -2  -7   95.24    0.95
   0   2  -7   95.18    0.92
   0  -2   7   94.28    0.90
  -1  -2  -7    1.64    0.08
  -1   2   7    1.77    0.07
  -1   2   7    1.72    0.07
  -1  -2   7    1.92    0.07
   1  -2  -7    1.75    0.07
   1  -2  -7    1.79    0.07
  -1   2  -7    1.75    0.08
  -1  -2   7    1.74    0.08
  -2  -2  -7    2.66    0.11
  -2   2   7    2.66    0.09
  -2   2   7    2.60    0.09
   2  -2  -7    2.50    0.09
  -2   2  -7    2.65    0.11
  -2  -2   7    2.44    0.09
  -2  -2   7    2.48    0.10
  -3   2   7    3.28    0.11
  -3   2   7    3.43    0.12
  -3  -2  -7    3.47    0.14
  -3  -2  -7    3.35    0.13
  -3  -2   7    3.26    0.13
  -3   2  -7    3.22    0.14
   3  -2  -7    3.15    0.11
  -4  -2  -7    2.66    0.13
  -4   2   7    2.82    0.13
  -4  -2  -7    2.59    0.14
  -4   2  -7    2.76    0.15
  -4  -2   7    2.48    0.13
  -5  -2  -7    0.22    0.08
  -5  -2  -7    0.13    0.07
  -5   2  -7    0.10    0.08
  -5  -2   7    0.05    0.07
  -6  -2  -7    0.10    0.08
  -6   2  -7    0.00    0.08
  -6  -2   7   -0.03    0.07
   0  -3   7    0.70    0.05
   0   3  -7    0.77    0.05
   0   3  -7    0.75    0.05
   0  -3   7    0.71    0.05
   0  -3  -7    0.74    0.06
   1  -3   7   21.49    0.27
  -1   3   7   21.28    0.26
  -1   3   7   21.44    0.28
   1  -3   7   21.49    0.28
  -1  -3  -7   21.43    0.31
  -1  -3   7   21.30    0.28
  -1   3  -7   21.36    0.30
   1  -3  -7   21.27    0.29
  -1  -3   7   21.76    0.30
  -2   3   7   16.65    0.25
  -2   3   7   17.10    0.24
  -2  -3  -7   17.04    0.28
  -2  -3   7   16.73    0.26
   2  -3  -7   17.21    0.26
  -2  -3   7   16.90    0.28
  -2   3  -7   16.85    0.28
  -3   3   7    4.09    0.12
  -3  -3  -7    4.00    0.14
  -3  -3  -7    3.89    0.14
  -3   3  -7    3.85    0.15
   3  -3  -7    4.27    0.14
  -3  -3   7    3.89    0.14
  -4  -3  -7    1.84    0.12
  -4  -3  -7    1.86    0.13
  -4  -3   7    2.01    0.13
  -4   3  -7    1.90    0.14
  -5  -3  -7    0.00    0.06
  -5  -3   7    0.06    0.07
  -5   3  -7    0.14    0.09
   6  -3   7    0.07    0.09
  -6   3  -7    0.03    0.09
   0  -4   7    1.24    0.06
   0  -4   7    1.33    0.06
   0  -4  -7    1.27    0.08
   0   4  -7    1.32    0.06
  -1   4   7    4.71    0.11
   1  -4   7    4.56    0.10
  -1   4   7    4.81    0.10
   1  -4   7    4.70    0.11
  -1  -4  -7    4.51    0.13
  -1   4  -7    4.74    0.13
  -1  -4   7    4.45    0.11
  -1  -4   7    4.82    0.13
   1  -4  -7    4.35    0.13
  -2   4   7    4.26    0.11
  -2   4   7    4.54    0.12
  -2  -4  -7    4.55    0.14
  -2  -4   7    4.57    0.13
  -2   4  -7    4.51    0.14
   2  -4  -7    4.37    0.14
  -3  -4  -7    2.06    0.12
  -3  -4  -7    1.99    0.11
   3  -4  -7    2.17    0.12
  -3   4  -7    2.27    0.13
  -3  -4   7    1.99    0.12
  -4  -4  -7    0.90    0.10
  -4  -4  -7    0.76    0.09
  -4  -4   7    0.80    0.10
  -4   4  -7    0.69    0.10
  -5  -4  -7    0.03    0.07
  -5   4  -7    0.13    0.08
  -5  -4   7    0.15    0.07
   0   5  -7    2.23    0.08
   0  -5   7    2.21    0.08
   0  -5  -7    2.26    0.10
   0  -5   7    2.23    0.08
   0  -5   7    2.28    0.08
   1  -5   7    7.89    0.15
  -1  -5  -7    8.27    0.19
   1  -5   7    8.17    0.14
  -1   5   7    7.88    0.15
   1  -5  -7    7.90    0.18
  -1   5  -7    7.79    0.17
  -1  -5   7    8.33    0.17
  -1   5  -7    8.28    0.17
  -1  -5   7    8.34    0.16
  -2  -5  -7    3.37    0.13
  -2   5  -7    3.35    0.14
   2  -5  -7    3.41    0.13
  -2  -5   7    3.45    0.12
  -3  -5  -7    0.92    0.09
  -3  -5  -7    0.78    0.08
   3  -5  -7    0.99    0.10
  -3  -5   7    0.89    0.09
  -3   5  -7    0.80    0.10
  -4  -5  -7    0.59    0.09
  -4  -5  -7    0.39    0.08
   4  -5   7    0.50    0.09
   4  -5  -7    0.31    0.08
  -4  -5   7    0.45    0.08
  -4   5  -7    0.44    0.09
  -5  -5  -7   -0.01    0.07
   5  -5   7    0.15    0.09
  -5  -5   7    0.19    0.08
  -5   5  -7    0.04    0.08
   0  -6   7    4.91    0.11
   0   6  -7    5.03    0.12
   0  -6   7    4.80    0.12
   0  -6  -7    4.85    0.15
   1  -6   7    1.03    0.09
  -1  -6  -7    1.23    0.10
  -1   6  -7    1.06    0.08
  -1  -6   7    0.94    0.08
  -1   6  -7    1.00    0.08
  -1  -6   7    1.17    0.07
   1   6   7    1.18    0.08
   1  -6  -7    1.18    0.10
   2  -6   7    4.32    0.16
  -2  -6  -7    4.20    0.15
   2  -6  -7    4.52    0.16
  -2  -6   7    4.16    0.14
  -2   6  -7    4.10    0.15
  -3  -6  -7    0.03    0.05
   3  -6   7    0.05    0.06
  -3  -6  -7    0.06    0.06
  -3   6  -7    0.01    0.06
   3  -6  -7    0.15    0.06
  -3  -6   7    0.11    0.06
   4  -6   7    0.02    0.06
  -4  -6  -7    0.01    0.06
  -4   6  -7    0.11    0.08
  -4  -6   7   -0.03    0.06
   4  -6  -7    0.05    0.07
  -5  -6  -7    0.10    0.08
   5  -6   7    0.02    0.08
  -5  -6   7    0.00    0.07
  -5   6  -7    0.09    0.09
   0  -7  -7    1.22    0.10
  -1  -7  -7    2.35    0.13
   1  -7   7    2.28    0.12
  -1   7  -7    2.35    0.12
  -1  -7   7    2.08    0.10
   1  -7  -7    2.12    0.12
  -1   7  -7    2.10    0.11
   1   7   7    2.28    0.12
   2  -7   7    1.96    0.13
  -2  -7  -7    1.71    0.12
  -2  -7   7    1.81    0.10
   2  -7  -7    1.93    0.13
  -2   7  -7    1.88    0.12
   3  -7   7    0.07    0.07
  -3  -7  -7   -0.03    0.06
  -3  -7  -7    0.02    0.05
   3  -7  -7    0.09    0.07
  -3   7  -7    0.10    0.07
  -3  -7   7    0.04    0.05
   4  -7   7    0.05    0.07
  -4  -7  -7   -0.04    0.06
   4  -7  -7   -0.03    0.07
  -4   7  -7   -0.04    0.07
  -4  -7   7   -0.06    0.06
   5  -7   7    0.00    0.08
  -5  -7  -7   -0.14    0.07
  -5   7  -7   -0.16    0.08
  -5  -7   7    0.02    0.07
   0  -8  -7    0.36    0.08
  -1  -8  -7    1.02    0.10
   1  -8   7    0.99    0.10
   1   8   7    1.25    0.11
   1  -8  -7    1.14    0.11
  -1   8  -7    1.07    0.10
  -2  -8  -7    0.20    0.07
   2  -8   7    0.17    0.07
   2  -8  -7    0.14    0.07
  -2   8  -7    0.18    0.07
  -2  -8   7    0.07    0.05
  -3  -8  -7    0.00    0.06
   3  -8   7   -0.03    0.06
   3  -8  -7    0.02    0.07
  -3  -8   7    0.03    0.06
  -3   8  -7    0.08    0.07
  -4  -8  -7    0.02    0.06
   4  -8   7    0.07    0.08
  -4  -8   7    0.01    0.06
  -4   8  -7    0.08    0.08
   4  -8  -7    0.15    0.08
   0  -9  -7    0.26    0.07
   0   9  -7    0.22    0.07
  -1  -9  -7    1.93    0.14
  -1   9  -7    1.84    0.13
   1   9   7    1.66    0.12
   1  -9  -7    1.80    0.14
   2  -9   7    1.13    0.12
  -2  -9  -7    1.22    0.12
   2  -9  -7    0.87    0.11
   3  -9   7   -0.14    0.06
   3  -9  -7    0.08    0.07
   4  -9   7    0.01    0.08
   4  -9  -7   -0.14    0.08
  -4  -9   7   -0.02    0.06
   0  10  -7    1.32    0.13
   0 -10  -7    1.88    0.15
  -1 -10  -7    0.15    0.08
  -1  10  -7    0.19    0.08
   1  10   7    0.20    0.08
   1 -10  -7    0.27    0.09
  -2 -10  -7    0.55    0.09
   2 -10   7    0.69    0.10
   2 -10  -7    0.40    0.10
   3 -10   7   -0.06    0.07
   3 -10  -7    0.05    0.08
   0  11  -7    0.00    0.07
   0 -11  -7    0.20    0.09
   1  11  -7    0.63    0.11
  -1 -11  -7    0.69    0.11
   1 -11  -7    0.59    0.11
  -1  11  -7    0.74    0.11
   2 -11   7    0.29    0.09
   2 -11  -7    0.54    0.12
   3 -11   7   -0.08    0.07
   3 -11  -7    0.06    0.09
   0  12  -7    0.06    0.08
   0 -12  -7    0.02    0.09
  -1 -12  -7    0.22    0.10
   1  12  -7    0.15    0.09
   1 -12  -7    0.38    0.12
  -1  12  -7    0.54    0.11
   0   0  -8   22.45    0.29
   0   0   8   23.19    0.29
   0   0   8   23.20    0.31
   1   0  -8   38.93    0.42
  -1   0   8   38.58    0.43
  -1   0   8   38.59    0.46
  -1   0  -8   39.28    0.46
  -2   0   8    1.70    0.08
  -2   0  -8    1.61    0.09
  -2   0   8    1.87    0.09
  -3   0  -8    4.55    0.16
  -3   0   8    4.44    0.14
  -4   0   8    1.39    0.11
  -4   0  -8    1.27    0.11
  -5   0   8    0.03    0.06
  -5   0  -8    0.09    0.08
  -6   0   8    0.13    0.08
  -6   0  -8   -0.04    0.09
   0  -1   8   27.98    0.35
   0   1   8   27.34    0.35
   0  -1   8   27.92    0.33
   0   1   8   27.88    0.33
   0  -1  -8   26.83    0.34
   0   1  -8   27.68    0.33
   1   1  -8    2.18    0.06
  -1   1   8    2.07    0.08
  -1   1   8    2.20    0.08
  -1  -1  -8    2.05    0.09
  -1   1  -8    2.11    0.09
  -1  -1   8    2.30    0.08
  -1  -1   8    2.19    0.09
   1  -1  -8    2.22    0.08
  -2   1   8    0.44    0.05
  -2  -1  -8    0.51    0.06
  -2   1   8    0.52    0.05
  -2   1  -8    0.50    0.06
  -2  -1   8    0.50    0.06
  -2  -1   8    0.48    0.05
   2  -1  -8    0.47    0.04
  -3   1   8    4.84    0.14
  -3  -1  -8    5.09    0.17
  -3   1  -8    5.29    0.17
  -3  -1   8    5.32    0.15
  -4  -1  -8    0.16    0.07
  -4   1   8    0.00    0.05
  -4   1  -8    0.04    0.06
  -4  -1   8    0.08    0.06
  -5   1   8    0.02    0.06
  -5  -1  -8   -0.01    0.07
  -5   1  -8   -0.07    0.07
  -5  -1   8    0.04    0.06
  -6  -1   8   -0.08    0.07
  -6   1  -8   -0.02    0.09
   0  -2   8   73.99    0.78
   0   2   8   74.57    0.78
   0  -2  -8   73.48    0.77
   0   2  -8   73.56    0.74
   0  -2   8   73.75    0.73
  -1   2   8   15.29    0.22
  -1  -2  -8   15.01    0.25
  -1   2   8   14.97    0.23
   1  -2   8   15.23    0.23
  -1  -2   8   14.82    0.23
  -1  -2   8   14.96    0.24
  -1   2  -8   14.86    0.24
   1  -2  -8   14.84    0.23
  -2  -2  -8    0.32    0.05
  -2   2   8    0.27    0.04
  -2   2   8    0.33    0.04
  -2  -2   8    0.32    0.05
  -2  -2   8    0.37    0.05
  -2   2  -8    0.31    0.06
   2  -2  -8    0.30    0.05
  -3  -2  -8    4.23    0.15
  -3   2   8    4.38    0.14
  -3  -2   8    4.23    0.14
  -3   2  -8    4.27    0.16
  -4   2   8    0.27    0.06
  -4  -2  -8    0.31    0.08
  -4   2  -8    0.28    0.08
  -4  -2   8    0.15    0.06
  -5  -2  -8    0.05    0.07
  -5   2  -8    0.10    0.08
  -5  -2   8    0.08    0.07
  -6   2  -8    0.04    0.09
  -6  -2   8   -0.04    0.08
   0  -3   8    0.37    0.04
   0  -3  -8    0.32    0.05
   0   3  -8    0.35    0.04
   0  -3   8    0.37    0.04
   0   3   8    0.37    0.04
  -1  -3  -8    6.51    0.16
   1  -3   8    6.64    0.13
   1  -3   8    6.62    0.14
  -1   3   8    6.55    0.14
  -1   3   8    6.72    0.13
   1  -3  -8    6.45    0.15
  -1   3  -8    6.74    0.15
  -1  -3   8    6.66    0.14
  -1  -3   8    6.53    0.15
  -2  -3  -8    1.10    0.09
  -2   3   8    1.05    0.07
  -2   3   8    0.98    0.07
  -2  -3   8    1.05    0.08
  -2   3  -8    0.98    0.08
   2  -3  -8    1.05    0.08
  -3  -3  -8    0.22    0.06
  -3   3   8    0.18    0.05
   3  -3  -8    0.27    0.06
  -3  -3   8    0.18    0.06
  -3   3  -8    0.19    0.07
  -4  -3  -8    0.04    0.06
  -4  -3  -8   -0.10    0.05
  -4  -3   8    0.10    0.06
  -4   3  -8    0.08    0.07
  -5  -3  -8    0.12    0.07
  -5  -3  -8    0.16    0.07
  -5  -3   8    0.11    0.07
  -5   3  -8   -0.01    0.08
   0  -4  -8   24.56    0.35
   0  -4   8   24.57    0.31
   0  -4   8   24.64    0.33
   0   4  -8   24.64    0.31
  -1   4   8    0.43    0.05
   1  -4   8    0.48    0.05
  -1  -4  -8    0.40    0.06
  -1   4   8    0.41    0.04
   1  -4   8    0.32    0.04
  -1  -4   8    0.38    0.05
  -1  -4   8    0.36    0.05
  -1   4  -8    0.40    0.05
   1  -4  -8    0.36    0.05
  -2   4   8    6.20    0.14
   2  -4   8    6.23    0.15
  -2  -4  -8    6.38    0.18
   2  -4  -8    6.64    0.17
  -2   4  -8    6.42    0.18
  -2  -4   8    6.41    0.16
  -3  -4  -8    1.51    0.12
  -3   4  -8    1.44    0.12
   3  -4  -8    1.35    0.10
  -3  -4   8    1.47    0.11
  -4  -4  -8   -0.03    0.06
  -4  -4  -8    0.00    0.06
  -4  -4   8    0.05    0.06
  -4   4  -8   -0.09    0.06
  -5  -4  -8    0.16    0.08
  -5   4  -8    0.14    0.08
  -5  -4   8   -0.02    0.07
   0  -5  -8    0.08    0.05
   0   5  -8    0.20    0.04
   0  -5   8    0.19    0.04
   0  -5   8    0.24    0.04
   0  -5   8    0.25    0.04
   1  -5   8    6.35    0.13
  -1   5   8    6.08    0.14
   1  -5   8    6.08    0.14
  -1  -5  -8    6.23    0.17
  -1  -5   8    6.28    0.16
   1  -5  -8    6.35    0.17
  -1  -5   8    6.18    0.15
  -1   5  -8    6.21    0.16
  -2  -5  -8    1.20    0.10
  -2  -5   8    1.08    0.09
  -2   5  -8    1.07    0.10
   2  -5  -8    1.05    0.09
  -3  -5  -8    0.58    0.08
  -3   5  -8    0.59    0.09
  -3  -5   8    0.60    0.08
   3  -5  -8    0.50    0.08
  -4  -5  -8    0.06    0.06
  -4  -5  -8    0.20    0.07
  -4  -5   8    0.12    0.06
  -4   5  -8    0.13    0.08
  -5  -5  -8   -0.11    0.06
   5  -5   8    0.14    0.09
  -5   5  -8    0.07    0.09
  -5  -5   8    0.02    0.07
   0  -6  -8    7.63    0.19
   0  -6   8    7.71    0.17
   0  -6   8    7.71    0.16
  -1  -6  -8    1.29    0.10
   1  -6   8    1.45    0.10
  -1   6  -8    1.55    0.10
  -1  -6   8    1.31    0.09
   1  -6  -8    1.49    0.10
  -1  -6   8    1.51    0.09
  -1   6  -8    1.32    0.09
  -2  -6  -8    2.39    0.13
   2  -6   8    2.63    0.14
   2  -6  -8    2.38    0.13
  -2   6  -8    2.54    0.13
  -2  -6   8    2.59    0.12
  -3  -6  -8    0.08    0.06
   3  -6   8    0.10    0.07
  -3   6  -8    0.10    0.07
  -3  -6   8    0.06    0.06
   3  -6  -8   -0.04    0.05
   4  -6   8    0.24    0.09
  -4  -6  -8    0.11    0.07
  -4   6  -8   -0.02    0.07
   4  -6  -8    0.02    0.07
  -4  -6   8    0.01    0.06
   5  -6   8    0.08    0.09
  -5  -6   8    0.18    0.08
  -5   6  -8    0.18    0.09
   0  -7  -8    0.36    0.07
  -1  -7  -8    8.22    0.22
   1  -7   8    8.06    0.20
   1  -7  -8    8.06    0.22
  -1   7  -8    8.40    0.21
  -1   7  -8    8.31    0.20
  -1  -7   8    8.08    0.18
   2  -7   8    1.84    0.13
  -2  -7  -8    1.76    0.13
  -2   7  -8    1.70    0.12
  -2  -7   8    1.60    0.10
   2  -7  -8    1.85    0.13
  -3  -7  -8    0.04    0.06
   3  -7   8    0.07    0.07
  -3  -7   8   -0.01    0.05
   3  -7  -8    0.07    0.07
  -3   7  -8    0.03    0.07
   4  -7   8    0.30    0.09
  -4   7  -8    0.30    0.10
  -4  -7   8    0.29    0.08
   4  -7  -8    0.08    0.08
   0  -8  -8    7.78    0.22
  -1  -8  -8    3.29    0.16
   1  -8   8    3.16    0.14
  -1   8  -8    3.27    0.15
   1  -8  -8    3.16    0.15
   2  -8   8    0.83    0.10
  -2  -8  -8    0.65    0.09
   2  -8  -8    0.65    0.10
  -2  -8   8    0.68    0.08
  -2   8  -8    0.72    0.10
   3  -8   8   -0.02    0.06
  -3  -8  -8    0.06    0.06
   3  -8  -8    0.11    0.07
  -3  -8   8    0.04    0.06
  -3   8  -8    0.10    0.08
   4  -8   8    0.22    0.09
  -4   8  -8    0.07    0.09
   4  -8  -8    0.13    0.08
  -4  -8   8   -0.03    0.06
   0  -9  -8    0.19    0.07
   0   9  -8    0.05    0.06
  -1  -9  -8    0.53    0.10
   1  -9  -8    0.52    0.09
  -1   9  -8    0.39    0.08
   2  -9   8    0.22    0.08
  -2  -9  -8    0.26    0.08
   2  -9  -8    0.27    0.08
   3  -9   8    0.18    0.08
   3  -9  -8    0.08    0.08
   4  -9   8    0.03    0.08
   4  -9  -8    0.02    0.08
  -4  -9   8   -0.03    0.07
   0 -10  -8    0.16    0.08
   0  10  -8    0.08    0.07
  -1 -10  -8    0.74    0.11
  -1  10  -8    0.57    0.10
   1 -10  -8    0.53    0.10
  -2 -10  -8    0.27    0.08
   2 -10   8    0.18    0.08
   2 -10  -8    0.37    0.10
   3 -10   8    0.33    0.09
   3 -10  -8    0.33    0.10
   0  11  -8    0.14    0.08
   0 -11  -8    0.02    0.08
  -1 -11  -8    0.40    0.10
   1  11  -8    0.47    0.10
   1 -11  -8    0.57    0.11
  -1  11  -8    0.59    0.11
  -2 -11  -8    0.13    0.08
   2 -11  -8    0.10    0.09
   3 -11   8    0.32    0.09
   0  12  -8    0.60    0.11
   0 -12  -8    0.64    0.12
  -1 -12  -8   -0.12    0.08
   1  12  -8   -0.06    0.08
   1 -12  -8    0.07    0.09
  -1  12  -8    0.10    0.08
   0   0   9   -0.02    0.02
   0   0  -9    0.02    0.03
   0   0   9   -0.03    0.02
  -1   0   9    9.63    0.19
   1   0  -9    9.72    0.16
  -1   0  -9    9.45    0.19
  -1   0   9    9.40    0.17
  -2   0   9   13.10    0.23
  -2   0  -9   13.72    0.25
  -2   0   9   14.05    0.25
  -3   0  -9    0.74    0.09
  -3   0   9    0.63    0.07
  -4   0   9    0.08    0.06
  -4   0  -9   -0.01    0.06
  -5   0   9    0.06    0.06
  -5   0  -9   -0.10    0.07
  -6   0  -9    0.08    0.10
  -6   0   9    0.03    0.07
   0  -1  -9   15.27    0.24
   0   1  -9   15.17    0.22
   0   1   9   15.63    0.25
   0  -1   9   15.60    0.23
   0  -1   9   15.95    0.25
   0   1   9   15.58    0.23
  -1  -1  -9   14.13    0.24
  -1   1   9   14.09    0.23
   1   1  -9   13.85    0.19
  -1   1   9   13.83    0.22
  -1   1  -9   14.02    0.23
  -1  -1   9   13.96    0.22
   1  -1  -9   14.07    0.21
  -1  -1   9   14.02    0.24
  -2   1   9   21.06    0.30
  -2  -1  -9   21.72    0.34
  -2   1   9   21.52    0.32
  -2  -1   9   20.81    0.31
  -2   1  -9   21.41    0.33
   2  -1  -9   20.91    0.28
  -3  -1  -9    3.96    0.15
  -3   1   9    4.04    0.14
  -3  -1   9    3.75    0.14
  -3   1  -9    4.08    0.16
  -4  -1  -9    0.56    0.09
  -4   1   9    0.56    0.08
  -4   1  -9    0.64    0.10
  -4  -1   9    0.59    0.08
  -5  -1  -9    0.11    0.08
  -5   1   9   -0.02    0.06
  -5   1  -9   -0.09    0.07
  -5  -1   9    0.09    0.06
  -6   1  -9    0.21    0.10
   0  -2  -9    8.46    0.17
   0  -2   9    8.58    0.16
   0   2  -9    8.20    0.15
   0   2   9    8.32    0.16
   0  -2   9    8.29    0.17
   0   2   9    8.22    0.17
  -1   2   9    3.96    0.11
  -1   2   9    4.35    0.12
   1  -2   9    4.24    0.12
  -1  -2  -9    3.95    0.13
  -1  -2   9    4.19    0.12
  -1  -2   9    3.94    0.12
   1  -2  -9    4.18    0.11
  -1   2  -9    4.00    0.12
  -2   2   9    1.28    0.08
  -2   2   9    1.34    0.08
  -2  -2  -9    1.43    0.10
  -2   2  -9    1.35    0.09
  -2  -2   9    1.29    0.08
   2  -2  -9    1.18    0.07
  -3  -2  -9    0.10    0.06
  -3   2   9   -0.04    0.04
  -3  -2   9    0.08    0.05
  -3   2  -9    0.06    0.06
  -4   2   9    1.26    0.10
  -4  -2  -9    1.23    0.12
  -4   2  -9    1.06    0.11
  -4  -2   9    1.17    0.11
  -5  -2  -9    0.07    0.07
  -5  -2   9   -0.03    0.06
  -5   2  -9   -0.09    0.07
   0  -3   9   26.55    0.36
   0  -3   9   26.40    0.34
   0  -3  -9   26.94    0.37
   0   3  -9   26.33    0.33
   0   3   9   26.40    0.36
   1  -3   9   19.51    0.29
  -1  -3  -9   19.52    0.31
  -1   3   9   19.37    0.29
  -1   3   9   19.48    0.27
   1  -3   9   19.59    0.27
  -1  -3   9   20.04    0.30
   1  -3  -9   19.82    0.29
  -1  -3   9   19.85    0.29
  -1   3  -9   19.85    0.30
  -2   3   9    2.63    0.10
  -2  -3  -9    2.44    0.12
  -2   3   9    2.68    0.10
   2  -3  -9    2.51    0.11
  -2   3  -9    2.52    0.12
  -2  -3   9    2.75    0.11
  -3   3   9    3.38    0.12
  -3  -3  -9    3.39    0.15
  -3   3  -9    3.24    0.15
  -3  -3   9    3.43    0.14
  -4  -3  -9    0.01    0.07
  -4  -3   9    0.08    0.06
  -4   3  -9    0.08    0.07
  -5  -3  -9    0.02    0.08
  -5   3  -9   -0.02    0.08
  -5  -3   9    0.02    0.07
   0  -4   9   30.67    0.38
   0  -4   9   30.54    0.40
   0   4   9   30.92    0.40
   0  -4  -9   30.30    0.42
   0   4  -9   30.22    0.37
  -1   4   9    0.52    0.05
  -1  -4  -9    0.38    0.06
   1  -4   9    0.40    0.05
  -1   4   9    0.50    0.05
   1  -4   9    0.55    0.05
  -1   4  -9    0.50    0.06
  -1  -4   9    0.46    0.06
  -1  -4   9    0.50    0.06
   1  -4  -9    0.39    0.06
  -2   4   9    4.04    0.12
   2  -4   9    3.98    0.12
  -2  -4  -9    4.17    0.15
  -2  -4   9    4.13    0.14
   2  -4  -9    4.33    0.14
  -2   4  -9    3.98    0.15
  -3  -4  -9    0.44    0.08
   3  -4  -9    0.52    0.08
  -3  -4   9    0.36    0.07
  -3   4  -9    0.52    0.08
  -4  -4  -9    0.40    0.09
  -4  -4   9    0.20    0.07
  -4   4  -9    0.40    0.09
  -5   4  -9    0.11    0.09
  -5  -4   9    0.02    0.07
   0  -5   9    0.68    0.06
   0  -5   9    0.65    0.06
   0  -5  -9    0.62    0.07
   0   5   9    0.65    0.06
  -1  -5  -9   21.87    0.36
   1  -5   9   22.14    0.32
   1  -5   9   22.52    0.30
  -1   5   9   21.97    0.29
   1  -5  -9   21.47    0.34
  -1   5  -9   22.13    0.34
  -1  -5   9   22.46    0.32
  -1  -5   9   22.56    0.35
  -2  -5  -9    1.40    0.11
   2  -5  -9    1.31    0.10
  -2   5  -9    1.44    0.11
  -2  -5   9    1.61    0.10
  -3  -5  -9    0.04    0.06
  -3  -5   9    0.05    0.05
   3  -5  -9    0.09    0.06
  -3   5  -9    0.12    0.07
  -4  -5  -9    0.06    0.07
  -4   5  -9   -0.04    0.07
  -4  -5   9    0.01    0.06
   5  -5   9    0.01    0.08
  -5   5  -9    0.01    0.09
  -5  -5   9    0.06    0.07
   0  -6   9   34.57    0.42
   0  -6  -9   34.09    0.48
   1  -6   9    0.78    0.08
  -1  -6  -9    0.64    0.09
  -1  -6   9    0.64    0.07
  -1   6  -9    0.74    0.08
  -1   6  -9    0.80    0.08
   1  -6  -9    0.63    0.08
  -2  -6  -9    0.31    0.07
  -2   6  -9    0.39    0.07
  -2  -6   9    0.28    0.06
   2  -6  -9    0.19    0.07
  -3  -6  -9    0.72    0.10
  -3  -6   9    0.64    0.09
   3  -6  -9    0.75    0.10
  -3   6  -9    0.57    0.09
   4  -6   9    0.03    0.07
  -4  -6  -9    0.07    0.07
  -4  -6   9    0.04    0.06
  -4   6  -9    0.10    0.08
   5  -6   9   -0.07    0.08
  -5   6  -9    0.16    0.10
  -5  -6   9   -0.04    0.07
   0  -7  -9    0.04    0.06
   1  -7   9    2.43    0.13
  -1  -7  -9    2.38    0.14
  -1   7  -9    2.53    0.13
  -1   7  -9    2.64    0.13
  -1  -7   9    2.30    0.11
   1  -7  -9    2.48    0.13
   2  -7   9    0.77    0.10
  -2  -7  -9    0.68    0.10
  -2  -7   9    0.67    0.08
  -2   7  -9    0.79    0.10
   2  -7  -9    0.78    0.10
   3  -7   9    0.21    0.08
  -3  -7  -9    0.24    0.08
  -3   7  -9    0.20    0.08
   3  -7  -9    0.10    0.07
  -3  -7   9    0.22    0.07
   4  -7   9   -0.05    0.07
  -4   7  -9   -0.02    0.08
   4  -7  -9    0.00    0.07
  -4  -7   9    0.03    0.06
   0  -8  -9    0.49    0.09
  -1  -8  -9   -0.05    0.06
  -1   8  -9    0.01    0.05
   1  -8  -9   -0.12    0.05
  -2  -8  -9    0.57    0.10
   2  -8   9    0.54    0.09
   2  -8  -9    0.59    0.10
  -2   8  -9    0.64    0.09
  -2  -8   9    0.45    0.07
   3  -8   9    0.22    0.08
  -3  -8  -9    0.31    0.09
   3  -8  -9    0.16    0.08
  -3  -8   9    0.20    0.07
  -3   8  -9    0.08    0.08
   4  -8   9    0.09    0.08
   4  -8  -9    0.03    0.08
  -4   8  -9   -0.02    0.08
  -4  -8   9    0.03    0.07
   0  -9  -9    0.50    0.09
  -1  -9  -9    0.72    0.11
   1  -9  -9    0.87    0.11
  -1   9  -9    1.03    0.11
   2  -9   9    0.42    0.09
  -2  -9  -9    0.28    0.09
   2  -9  -9    0.32    0.09
   3  -9   9    0.25    0.09
  -3  -9  -9    0.15    0.08
  -3   9  -9    0.05    0.08
   3  -9  -9    0.24    0.09
   4  -9   9    0.29    0.11
   4  -9  -9    0.19    0.09
  -4  -9   9    0.08    0.08
   0 -10  -9    0.59    0.11
   0  10  -9    0.61    0.10
  -1 -10  -9    0.18    0.08
  -1  10  -9    0.07    0.07
   1 -10  -9    0.00    0.07
  -2 -10  -9    0.31    0.09
   2 -10  -9    0.32    0.09
   3 -10   9    0.02    0.09
   3 -10  -9   -0.05    0.08
   0  11  -9    0.13    0.08
   0 -11  -9    0.23    0.09
  -1 -11  -9    0.24    0.09
  -1  11  -9    0.17    0.08
   1 -11  -9    0.16    0.09
  -2 -11  -9    0.08    0.08
   2 -11  -9    0.07    0.08
   0  12  -9    0.03    0.08
   0 -12  -9    0.02    0.09
   1  12  -9   -0.04    0.08
  -1 -12  -9    0.16    0.09
   1 -12  -9   -0.02    0.09
  -1  12  -9    0.06    0.08
   0   0  10    0.02    0.03
   0   0 -10   -0.05    0.03
   0   0  10   -0.01    0.03
  -1   0  10    3.02    0.11
  -1   0 -10    2.89    0.11
   1   0 -10    2.98    0.09
  -1   0  10    2.96    0.10
  -2   0  10    0.18    0.04
  -2   0 -10    0.09    0.05
  -3   0  10    1.07    0.09
  -3   0 -10    0.87    0.09
  -4   0  10    0.00    0.05
  -4   0 -10    0.15    0.07
  -5   0  10    0.03    0.06
  -5   0 -10   -0.01    0.08
   0   1 -10    9.51    0.17
   0   1  10    9.85    0.19
   0  -1  10    9.73    0.19
   0  -1 -10    9.82    0.18
   0  -1  10    9.54    0.18
   0   1  10    9.86    0.18
   1   1 -10    0.52    0.05
  -1   1  10    0.48    0.05
  -1   1  10    0.68    0.06
   1  -1  10    0.63    0.06
  -1  -1 -10    0.55    0.06
  -1  -1  10    0.49    0.05
  -1  -1  10    0.48    0.06
  -1   1 -10    0.53    0.06
   1  -1 -10    0.56    0.05
  -2  -1 -10    2.94    0.13
  -2   1  10    2.64    0.10
  -2   1 -10    2.80    0.12
  -2  -1  10    2.86    0.11
  -3  -1 -10    2.36    0.13
  -3   1  10    2.58    0.12
  -3   1 -10    2.38    0.13
  -3  -1  10    2.31    0.12
  -4   1  10    0.05    0.06
  -4  -1 -10    0.14    0.07
  -4   1 -10    0.09    0.07
  -4  -1  10    0.06    0.06
  -5   1  10    0.00    0.06
  -5  -1 -10    0.06    0.08
  -5  -1  10    0.11    0.07
  -5   1 -10   -0.03    0.08
   0   2 -10    0.38    0.05
   0  -2  10    0.42    0.05
   0   2  10    0.33    0.05
   0   2  10    0.37    0.05
   0  -2 -10    0.37    0.05
   0  -2  10    0.33    0.05
  -1   2  10    1.11    0.07
   1  -2  10    1.16    0.07
  -1  -2 -10    1.16    0.08
   1  -2  10    1.01    0.07
  -1   2  10    1.16    0.07
   1  -2 -10    1.09    0.07
  -1  -2  10    1.25    0.08
  -1   2 -10    1.05    0.08
  -1  -2  10    1.19    0.07
  -2  -2 -10    6.65    0.18
  -2   2  10    6.63    0.16
  -2  -2  10    6.62    0.17
   2  -2 -10    6.17    0.15
  -2   2 -10    6.55    0.18
  -3  -2 -10    3.46    0.15
  -3   2  10    3.26    0.13
  -3   2 -10    3.18    0.15
  -3  -2  10    3.29    0.14
  -4  -2 -10    0.10    0.07
  -4   2  10   -0.03    0.05
  -4  -2  10    0.02    0.06
  -4   2 -10    0.09    0.07
  -5  -2 -10   -0.03    0.08
  -5   2 -10    0.07    0.08
  -5  -2  10    0.03    0.07
   0   3  10   19.37    0.28
   0   3  10   19.11    0.30
   0  -3 -10   19.09    0.30
   0  -3  10   19.21    0.30
   0   3 -10   18.66    0.27
   0  -3  10   19.57    0.28
  -1  -3 -10   12.94    0.25
  -1   3  10   13.43    0.24
   1  -3  10   13.30    0.24
   1  -3  10   13.20    0.22
  -1   3  10   13.28    0.22
   1  -3 -10   13.14    0.24
  -1   3 -10   13.18    0.24
  -1  -3  10   13.00    0.23
  -2   3  10    1.68    0.09
  -2  -3 -10    1.41    0.11
  -2   3  10    1.54    0.09
  -2   3 -10    1.41    0.11
  -2  -3  10    1.38    0.10
   2  -3 -10    1.69    0.10
  -3   3  10    1.55    0.10
  -3  -3 -10    1.62    0.12
  -3  -3  10    1.92    0.12
  -3   3 -10    1.61    0.12
  -4  -3 -10    0.26    0.08
  -4  -3  10    0.11    0.07
  -4   3 -10    0.05    0.07
  -5  -3 -10   -0.07    0.07
  -5   3 -10    0.06    0.09
  -5  -3  10   -0.06    0.06
   0   4  10    0.41    0.05
   0  -4  10    0.56    0.06
   0  -4 -10    0.41    0.06
   0  -4  10    0.39    0.05
   1  -4  10   10.08    0.20
   1  -4  10   10.63    0.19
  -1   4  10   10.33    0.20
  -1   4  10   10.40    0.19
  -1  -4 -10   10.74    0.23
  -1  -4  10   10.52    0.21
  -1   4 -10   10.38    0.21
   1  -4 -10   10.53    0.22
   2  -4  10    4.34    0.14
  -2   4  10    4.14    0.12
  -2  -4 -10    4.41    0.16
  -2  -4  10    4.28    0.15
  -2   4 -10    4.26    0.16
   2  -4 -10    4.33    0.15
  -3  -4 -10    0.37    0.08
  -3  -4  10    0.34    0.07
  -3   4 -10    0.40    0.09
   3  -4 -10    0.27    0.07
  -4  -4 -10    0.17    0.08
  -4   4 -10    0.18    0.08
  -4  -4  10    0.14    0.07
  -5  -4 -10    0.00    0.08
  -5   4 -10    0.08    0.09
  -5  -4  10    0.09    0.08
   0  -5  10   21.94    0.33
   0   5  10   22.00    0.33
   0  -5 -10   21.86    0.36
   0  -5  10   21.89    0.31
   1  -5  10   13.78    0.23
  -1   5  10   13.41    0.22
   1  -5  10   13.66    0.26
  -1  -5 -10   13.66    0.28
   1  -5 -10   13.75    0.27
  -1  -5  10   13.55    0.24
  -1   5 -10   13.99    0.26
  -2  -5 -10    1.44    0.12
  -2  -5  10    1.75    0.11
   2  -5 -10    1.68    0.11
  -2   5 -10    1.52    0.11
  -3  -5 -10    0.35    0.08
  -3   5 -10    0.21    0.07
  -3  -5  10    0.35    0.07
   3  -5 -10    0.33    0.08
  -4  -5 -10    0.01    0.07
  -4   5 -10    0.03    0.08
  -4  -5  10    0.12    0.07
  -5  -5  10    0.03    0.08
  -5   5 -10   -0.11    0.08
   0  -6 -10   10.19    0.24
   0  -6  10   10.20    0.20
  -1  -6 -10    2.30    0.13
  -1  -6  10    2.40    0.11
   1  -6 -10    2.24    0.13
  -1   6 -10    2.46    0.12
  -2  -6 -10    2.94    0.15
   2  -6 -10    3.09    0.15
  -2  -6  10    3.03    0.13
  -2   6 -10    3.04    0.14
  -3  -6 -10    0.12    0.07
  -3   6 -10    0.08    0.07
   3  -6 -10    0.10    0.07
  -3  -6  10    0.02    0.06
   4  -6  10   -0.04    0.07
  -4  -6 -10    0.14    0.08
  -4   6 -10    0.08    0.08
  -4  -6  10   -0.05    0.06
   0  -7 -10    0.04    0.06
  -1  -7 -10    5.09    0.19
   1  -7 -10    4.81    0.18
  -1   7 -10    4.95    0.16
  -1  -7  10    4.83    0.15
  -2  -7 -10    0.65    0.10
   2  -7  10    0.63    0.09
  -2   7 -10    0.64    0.09
  -2  -7  10    0.66    0.08
   2  -7 -10    0.70    0.10
  -3  -7 -10    0.27    0.08
   3  -7  10    0.35    0.09
  -3  -7  10    0.26    0.07
   3  -7 -10    0.19    0.08
  -3   7 -10    0.15    0.08
   4  -7  10   -0.10    0.07
  -4  -7 -10   -0.15    0.06
  -4  -7  10    0.06    0.07
  -4   7 -10   -0.10    0.07
   4  -7 -10    0.07    0.08
   0  -8 -10    2.36    0.15
  -1  -8 -10    0.94    0.11
   1  -8 -10    1.22    0.12
  -2  -8 -10    0.65    0.10
   2  -8  10    0.55    0.09
   2  -8 -10    0.63    0.10
  -2   8 -10    0.73    0.10
  -2  -8  10    0.62    0.08
   3  -8  10    0.05    0.07
  -3  -8 -10    0.03    0.08
   3  -8 -10    0.00    0.07
  -3   8 -10   -0.12    0.07
  -3  -8  10    0.13    0.07
   4  -8  10    0.03    0.08
  -4   8 -10   -0.07    0.09
  -4  -8  10   -0.05    0.07
   4  -8 -10    0.13    0.09
   0  -9 -10    1.30    0.13
  -1  -9 -10    0.19    0.08
   1  -9 -10    0.18    0.08
   2  -9  10    0.07    0.07
  -2  -9 -10    0.17    0.08
  -2   9 -10    0.03    0.07
   2  -9 -10   -0.04    0.07
  -3  -9 -10    0.22    0.09
   3  -9  10    0.42    0.10
   3  -9 -10    0.40    0.10
  -3   9 -10    0.36    0.10
  -4  -9  10    0.01    0.08
   4  -9 -10    0.04    0.09
   0  10 -10    0.13    0.08
   0 -10 -10    0.19    0.09
  -1 -10 -10    0.12    0.08
   1 -10 -10    0.03    0.07
  -2 -10 -10    0.37    0.10
   2 -10 -10    0.31    0.10
   3 -10  10   -0.02    0.09
   3 -10 -10    0.03    0.09
   0 -11 -10    0.03    0.09
   0  11 -10   -0.11    0.07
  -1 -11 -10    0.18    0.09
   1 -11 -10    0.05    0.09
  -2 -11 -10    0.00    0.09
   2 -11 -10   -0.01    0.09
   0  12 -10    0.39    0.11
   0   0  11    0.02    0.03
   0   0 -11   -0.01    0.03
   0   0  11    0.04    0.03
  -1   0 -11   18.94    0.30
  -1   0  11   18.15    0.28
   1   0 -11   18.49    0.26
  -2   0  11    2.65    0.11
  -2   0 -11    2.63    0.13
  -3   0  11    1.78    0.11
  -3   0 -11    1.87    0.13
  -4   0  11    0.49    0.08
  -4   0 -11    0.52    0.09
  -5   0 -11   -0.10    0.08
  -5   0  11    0.05    0.07
   0   1  11    3.32    0.12
   0   1  11    3.44    0.11
   0   1 -11    3.31    0.11
   0  -1 -11    3.22    0.11
   0  -1  11    3.46    0.12
   0  -1  11    3.28    0.11
  -1  -1 -11    2.92    0.12
  -1   1  11    2.93    0.11
  -1  -1  11    2.84    0.11
   1  -1 -11    2.76    0.10
  -1   1 -11    2.87    0.11
  -2   1  11    4.93    0.15
  -2  -1 -11    4.85    0.16
  -2   1 -11    4.65    0.16
  -2  -1  11    4.79    0.15
  -3   1  11    1.02    0.09
  -3  -1 -11    1.04    0.10
  -3   1 -11    1.40    0.12
  -3  -1  11    1.07    0.09
  -4   1  11    0.07    0.06
  -4  -1 -11    0.13    0.07
  -4   1 -11   -0.10    0.06
  -4  -1  11   -0.06    0.05
  -5   1  11    0.08    0.07
  -5  -1 -11    0.03    0.08
  -5   1 -11    0.10    0.09
  -5  -1  11   -0.03    0.06
   0   2  11    4.14    0.13
   0  -2  11    4.05    0.12
   0   2  11    3.95    0.12
   0   2 -11    4.04    0.11
   0  -2 -11    3.98    0.13
   0  -2  11    4.22    0.13
  -1  -2 -11    1.63    0.10
  -1   2  11    1.56    0.08
   1  -2  11    1.46    0.08
  -1  -2  11    1.69    0.09
   1  -2 -11    1.47    0.08
  -1   2 -11    1.49    0.09
  -2   2  11   20.31    0.31
  -2  -2 -11   20.17    0.35
  -2  -2  11   20.64    0.33
   2  -2 -11   20.15    0.31
  -2   2 -11   20.51    0.35
  -3  -2 -11    0.33    0.08
  -3   2  11    0.28    0.06
  -3   2 -11    0.37    0.08
  -3  -2  11    0.37    0.07
  -4  -2 -11    0.20    0.08
  -4   2  11    0.16    0.06
  -4   2 -11    0.12    0.08
  -4  -2  11    0.37    0.08
  -5  -2 -11    0.03    0.08
  -5   2 -11   -0.17    0.08
  -5  -2  11    0.04    0.07
   0  -3  11    6.92    0.16
   0   3  11    6.88    0.16
   0  -3 -11    6.85    0.18
   0   3 -11    6.67    0.15
  -1   3  11    5.31    0.14
   1  -3  11    5.28    0.14
  -1  -3 -11    5.38    0.17
  -1  -3  11    5.11    0.15
  -1   3 -11    5.25    0.15
   1  -3 -11    5.01    0.15
  -2   3  11    6.39    0.16
  -2  -3 -11    6.20    0.19
   2  -3 -11    6.63    0.17
  -2   3 -11    6.53    0.19
  -2  -3  11    6.43    0.18
  -3   3  11    2.63    0.12
  -3  -3 -11    2.67    0.15
  -3   3 -11    2.62    0.15
  -3  -3  11    2.93    0.14
  -4  -3 -11    0.05    0.07
  -4   3 -11   -0.06    0.07
  -4  -3  11   -0.01    0.06
  -5  -3 -11    0.16    0.09
  -5   3 -11    0.13    0.09
  -5  -3  11   -0.05    0.07
   0   4  11    3.46    0.12
   0  -4  11    3.43    0.12
   0  -4 -11    3.10    0.13
  -1   4  11   28.48    0.38
   1  -4  11   28.67    0.38
  -1  -4 -11   29.08    0.44
  -1  -4  11   28.27    0.40
   1  -4 -11   28.42    0.41
  -1   4 -11   28.47    0.40
  -2  -4 -11    8.35    0.23
   2  -4  11    8.42    0.19
  -2   4  11    8.06    0.18
   2  -4 -11    8.50    0.20
  -2   4 -11    8.38    0.22
  -2  -4  11    8.29    0.20
  -3  -4 -11   -0.06    0.05
  -3  -4  11    0.06    0.06
  -3   4 -11   -0.03    0.06
  -4  -4 -11    0.01    0.07
  -4   4 -11    0.07    0.08
  -4  -4  11    0.02    0.07
  -5  -4 -11   -0.04    0.08
  -5  -4  11    0.00    0.08
  -5   4 -11    0.15    0.10
   0  -5  11    0.58    0.07
   0   5  11    0.50    0.06
   0  -5 -11    0.59    0.08
  -1  -5 -11    1.45    0.12
  -1   5  11    1.57    0.09
   1  -5  11    1.47    0.09
  -1  -5  11    1.71    0.10
  -1   5 -11    1.74    0.11
   1  -5 -11    1.57    0.11
  -2  -5 -11    3.15    0.15
  -2   5 -11    3.22    0.15
  -2  -5  11    3.10    0.14
   2  -5 -11    3.28    0.15
  -3  -5 -11    0.14    0.07
  -3  -5  11    0.15    0.06
   3  -5 -11    0.22    0.07
  -3   5 -11    0.15    0.07
  -4  -5 -11   -0.03    0.07
  -4  -5  11    0.09    0.08
  -4   5 -11   -0.08    0.07
   0  -6 -11    1.39    0.11
   0   6  11    1.46    0.09
   0  -6  11    1.53    0.09
  -1  -6 -11    2.84    0.15
   1  -6 -11    3.18    0.15
  -1   6 -11    3.29    0.13
  -1  -6  11    3.19    0.13
  -2  -6 -11    0.23    0.08
  -2  -6  11    0.16    0.06
   2  -6 -11    0.19    0.07
  -2   6 -11    0.31    0.07
  -3  -6 -11    0.40    0.09
   3  -6 -11    0.55    0.09
  -3  -6  11    0.42    0.08
  -3   6 -11    0.38    0.09
  -4  -6 -11    0.26    0.09
  -4   6 -11    0.20    0.09
  -4  -6  11    0.16    0.08
   0  -7 -11   -0.01    0.06
  -1  -7 -11    1.01    0.11
  -1  -7  11    1.44    0.10
   1  -7 -11    1.48    0.12
  -2  -7 -11    1.30    0.12
   2  -7  11    1.04    0.11
  -2  -7  11    0.94    0.09
  -2   7 -11    0.89    0.10
   2  -7 -11    1.16    0.12
  -3  -7 -11    0.06    0.08
   3  -7  11   -0.07    0.07
  -3  -7  11    0.04    0.06
  -3   7 -11   -0.08    0.07
   3  -7 -11   -0.01    0.07
  -4  -7 -11    0.02    0.07
   4  -7  11    0.08    0.09
  -4  -7  11    0.05    0.07
  -4   7 -11    0.01    0.09
   0  -8 -11    0.59    0.09
  -1  -8 -11    1.27    0.13
   1  -8 -11    1.11    0.12
  -2  -8 -11    0.06    0.07
   2  -8  11    0.08    0.07
   2  -8 -11    0.11    0.07
  -2   8 -11   -0.09    0.07
  -2  -8  11    0.02    0.06
   3  -8  11    0.08    0.08
  -3  -8 -11   -0.02    0.08
  -3   8 -11    0.02    0.08
  -3  -8  11   -0.12    0.05
   3  -8 -11    0.04    0.07
   4  -8  11   -0.17    0.08
  -4  -8  11   -0.01    0.07
  -4   8 -11    0.10    0.10
   0  -9 -11    0.34    0.09
  -1  -9 -11    0.17    0.08
   1  -9 -11    0.03    0.07
  -2  -9 -11    0.32    0.09
   2  -9 -11    0.24    0.09
  -3  -9 -11    0.09    0.08
   3  -9  11    0.04    0.07
  -3   9 -11   -0.03    0.08
   3  -9 -11    0.00    0.08
   0  10 -11    0.00    0.07
   0 -10 -11    0.11    0.08
  -1 -10 -11    0.45    0.10
   1 -10 -11    0.46    0.10
  -2 -10 -11    0.26    0.09
   2 -10 -11    0.12    0.09
   3 -10  11   -0.09    0.08
  -3 -10 -11    0.06    0.09
   0 -11 -11    0.46    0.11
   0  11 -11    0.43    0.10
  -1 -11 -11    0.05    0.09
   1 -11 -11    0.13    0.10
  -2 -11 -11    0.32    0.10
   0   0  12    4.24    0.13
   0   0 -12    4.29    0.13
  -1   0 -12   21.27    0.34
  -1   0  12   21.86    0.33
   1   0 -12   21.12    0.33
  -2   0 -12    2.69    0.13
  -2   0  12    2.58    0.12
  -3   0  12    0.19    0.06
  -3   0 -12    0.18    0.07
  -4   0 -12    0.02    0.07
  -4   0  12   -0.02    0.05
  -5   0  12   -0.03    0.06
  -5   0 -12    0.14    0.09
   0  -1  12    9.35    0.20
   0   1  12    9.40    0.20
   0   1 -12    9.59    0.19
   0  -1 -12    9.59    0.20
  -1   1  12   13.39    0.24
  -1  -1 -12   13.40    0.26
   1  -1  12   13.54    0.24
   1  -1 -12   13.42    0.23
  -1   1 -12   13.40    0.25
  -1  -1  12   13.25    0.24
  -2  -1 -12    4.91    0.17
  -2   1  12    5.56    0.16
  -2  -1  12    5.32    0.16
  -2   1 -12    5.50    0.18
  -3  -1 -12    1.06    0.11
  -3   1  12    0.81    0.08
  -3   1 -12    0.82    0.10
  -3  -1  12    1.00    0.10
  -4   1  12    0.00    0.05
  -4  -1 -12   -0.02    0.07
  -4  -1  12    0.02    0.06
  -4   1 -12    0.04    0.07
  -5  -1 -12    0.11    0.09
  -5   1  12    0.04    0.07
  -5  -1  12   -0.04    0.07
  -5   1 -12    0.03    0.09
   0   2 -12    3.62    0.12
   0   2  12    3.50    0.12
   0  -2 -12    3.56    0.13
   0  -2  12    3.44    0.12
  -1   2  12    6.58    0.16
  -1  -2 -12    6.60    0.19
   1  -2  12    6.52    0.16
  -1   2 -12    6.87    0.17
   1  -2 -12    6.69    0.17
  -1  -2  12    6.42    0.17
  -2  -2 -12    0.68    0.09
  -2   2  12    0.69    0.07
  -2  -2  12    0.69    0.08
  -2   2 -12    0.67    0.08
  -3  -2 -12    0.13    0.07
  -3   2  12    0.23    0.06
  -3  -2  12    0.15    0.06
  -3   2 -12    0.21    0.07
  -4  -2 -12    0.04    0.07
  -4   2  12   -0.02    0.05
  -4   2 -12    0.03    0.07
  -4  -2  12   -0.01    0.06
  -5  -2 -12    0.14    0.08
  -5   2 -12   -0.03    0.08
  -5  -2  12    0.03    0.07
   0  -3  12   22.77    0.34
   0  -3 -12   22.88    0.36
   0   3  12   22.59    0.33
   1  -3  12    7.84    0.18
  -1   3  12    7.62    0.18
  -1  -3 -12    8.19    0.21
  -1  -3  12    7.57    0.19
  -1   3 -12    7.79    0.19
   1  -3 -12    7.74    0.19
  -2  -3 -12    1.44    0.11
  -2   3  12    1.29    0.09
  -2   3 -12    1.25    0.11
  -2  -3  12    1.29    0.10
   2  -3 -12    1.52    0.10
  -3   3  12    1.02    0.09
  -3  -3 -12    0.96    0.11
  -3  -3  12    1.06    0.11
  -3   3 -12    1.35    0.12
  -4  -3 -12    0.15    0.08
  -4  -3  12   -0.02    0.06
  -4   3 -12   -0.10    0.08
  -5  -3 -12    0.05    0.08
  -5  -3  12   -0.12    0.06
  -5   3 -12   -0.09    0.08
   0  -4  12    0.01    0.04
   0   4  12    0.08    0.04
   0  -4 -12    0.04    0.06
   1  -4  12    5.92    0.16
  -1  -4 -12    5.79    0.19
  -1   4  12    5.47    0.15
  -1   4 -12    6.00    0.17
   1  -4 -12    5.89    0.18
  -1  -4  12    5.33    0.16
  -2   4  12    0.75    0.07
  -2  -4 -12    0.62    0.09
   2  -4  12    0.60    0.07
  -2  -4  12    0.66    0.08
   2  -4 -12    0.66    0.08
  -2   4 -12    0.87    0.10
  -3  -4 -12    0.21    0.08
  -3   4 -12    0.15    0.08
  -3  -4  12    0.24    0.07
  -4  -4 -12   -0.10    0.06
  -4  -4  12    0.06    0.07
  -4   4 -12   -0.04    0.08
  -5  -4 -12    0.03    0.09
   0   5  12   19.01    0.31
   0  -5 -12   19.64    0.35
   0  -5  12   19.31    0.31
  -1   5  12    1.49    0.09
  -1  -5 -12    1.36    0.11
   1  -5  12    1.28    0.09
   1  -5 -12    1.54    0.12
  -1  -5  12    1.55    0.10
  -1   5 -12    1.40    0.10
  -2  -5 -12    1.54    0.13
  -2  -5  12    1.59    0.11
   2  -5 -12    1.42    0.12
  -2   5 -12    1.54    0.12
  -3  -5 -12    0.04    0.07
  -3   5 -12    0.18    0.08
  -3  -5  12    0.17    0.07
  -4  -5 -12    0.14    0.09
  -4  -5  12    0.04    0.07
  -4   5 -12   -0.10    0.08
  -5  -5 -12    0.08    0.08
   0   6  12    0.91    0.08
   0  -6 -12    0.81    0.09
   0  -6  12    0.92    0.08
  -1  -6 -12    0.45    0.08
  -1  -6  12    0.64    0.08
   1  -6 -12    0.47    0.08
  -2  -6 -12    0.94    0.11
  -2  -6  12    0.73    0.09
   2  -6 -12    0.95    0.10
  -2   6 -12    0.88    0.10
  -3  -6 -12    0.24    0.08
   3  -6 -12    0.27    0.08
  -3   6 -12    0.12    0.08
  -3  -6  12    0.25    0.07
  -4  -6 -12    0.06    0.08
  -4  -6  12    0.08    0.07
  -4   6 -12    0.10    0.08
   0  -7 -12   -0.02    0.06
  -1  -7 -12    0.89    0.11
   1  -7 -12    0.93    0.11
  -1  -7  12    0.96    0.09
  -2  -7 -12    0.04    0.07
   2  -7  12   -0.04    0.06
   2  -7 -12    0.05    0.06
  -2  -7  12    0.06    0.06
  -2   7 -12   -0.04    0.06
   3  -7  12    0.08    0.08
  -3  -7 -12    0.13    0.08
   3  -7 -12    0.03    0.07
  -3   7 -12   -0.07    0.08
  -3  -7  12    0.01    0.06
  -4  -7 -12    0.07    0.08
   4  -7  12    0.16    0.09
  -4   7 -12   -0.07    0.09
  -4  -7  12   -0.03    0.07
   0  -8 -12    0.02    0.07
  -1  -8 -12    1.15    0.12
   1  -8 -12    0.95    0.12
  -2  -8 -12    0.13    0.08
  -2   8 -12    0.02    0.07
  -2  -8  12    0.22    0.07
   2  -8 -12    0.15    0.08
   3  -8  12    0.29    0.09
  -3  -8 -12    0.43    0.11
  -3  -8  12    0.39    0.09
   3  -8 -12    0.32    0.10
  -3   8 -12    0.21    0.09
  -4  -8 -12    0.02    0.09
   0  -9 -12    1.09    0.13
  -1  -9 -12    0.52    0.10
   1  -9 -12    0.26    0.09
  -2  -9 -12    1.11    0.14
   2  -9 -12    1.27    0.14
  -3  -9 -12   -0.06    0.08
   3  -9  12    0.08    0.08
   3  -9 -12    0.08    0.09
  -3   9 -12    0.22    0.10
   0  10 -12    0.00    0.07
   0 -10 -12   -0.10    0.08
  -1 -10 -12    0.48    0.11
   1 -10 -12    0.33    0.10
  -2 -10 -12   -0.15    0.07
   2 -10 -12    0.04    0.09
   0 -11 -12   -0.21    0.08
  -1 -11 -12    0.24    0.10
   0   0  13   -0.01    0.04
   0   0 -13    0.05    0.04
  -1   0  13   15.78    0.28
  -1   0 -13   15.67    0.29
  -2   0  13    5.29    0.16
  -2   0 -13    5.28    0.18
  -3   0 -13    0.21    0.07
  -3   0  13    0.10    0.06
  -4   0  13    0.03    0.06
  -4   0 -13    0.17    0.08
  -5   0 -13    0.14    0.09
  -5   0  13    0.14    0.08
   0   1 -13    4.11    0.13
   0   1  13    4.29    0.14
   0  -1 -13    4.29    0.14
   0  -1  13    4.32    0.14
   1  -1  13    1.59    0.10
  -1   1  13    1.58    0.10
  -1  -1 -13    1.83    0.11
   1  -1 -13    1.93    0.10
  -1  -1  13    1.56    0.10
  -1   1 -13    1.83    0.11
  -2  -1 -13    1.87    0.12
  -2   1  13    1.79    0.10
  -2   1 -13    1.91    0.12
  -2  -1  13    2.00    0.11
  -3  -1 -13    0.49    0.08
  -3   1  13    0.55    0.08
  -3  -1  13    0.43    0.08
  -3   1 -13    0.38    0.08
  -4   1  13    0.04    0.06
  -4  -1 -13    0.18    0.08
  -4   1 -13    0.07    0.07
  -4  -1  13   -0.02    0.06
  -5   1  13   -0.03    0.07
  -5  -1 -13    0.09    0.09
  -5   1 -13    0.11    0.09
  -5  -1  13    0.14    0.08
   0   2 -13    3.31    0.12
   0   2  13    3.17    0.12
   0  -2  13    3.28    0.13
   0  -2 -13    3.35    0.14
  -1  -2 -13    9.13    0.22
  -1   2  13    8.78    0.20
   1  -2  13    9.08    0.20
  -1  -2  13    9.14    0.21
  -1   2 -13    9.06    0.21
   1  -2 -13    9.34    0.20
  -2  -2 -13    2.74    0.14
  -2   2  13    2.82    0.12
  -2   2 -13    2.92    0.14
  -2  -2  13    2.70    0.13
  -3   2  13    0.13    0.05
  -3  -2 -13    0.26    0.08
  -3   2 -13    0.18    0.07
  -3  -2  13    0.14    0.06
  -4   2  13    0.40    0.08
  -4  -2 -13    0.35    0.10
  -4  -2  13    0.12    0.07
  -4   2 -13    0.24    0.09
  -5  -2 -13    0.03    0.09
  -5  -2  13   -0.07    0.07
  -5   2 -13    0.04    0.09
   0   3  13    6.32    0.17
   0  -3  13    6.32    0.17
   0  -3 -13    6.63    0.19
   1  -3  13    0.73    0.08
  -1   3  13    0.90    0.08
  -1  -3 -13    0.71    0.09
  -1   3 -13    0.62    0.07
   1  -3 -13    0.75    0.08
  -1  -3  13    0.66    0.08
   2  -3  13    1.11    0.09
  -2  -3 -13    1.34    0.12
  -2   3  13    1.27    0.09
  -2  -3  13    1.26    0.10
  -2   3 -13    1.01    0.10
  -3  -3 -13    0.50    0.09
  -3   3  13    0.22    0.06
  -3  -3  13    0.23    0.07
  -3   3 -13    0.27    0.08
  -4  -3 -13    0.12    0.08
  -4   3 -13    0.00    0.08
  -4  -3  13   -0.09    0.06
  -5  -3 -13    0.14    0.10
   0  -4  13    0.03    0.04
   0  -4 -13    0.10    0.06
   0   4  13    0.07    0.05
  -1  -4 -13    0.43    0.08
   1  -4  13    0.46    0.06
  -1   4  13    0.46    0.06
   1  -4 -13    0.39    0.07
  -1   4 -13    0.57    0.08
  -1  -4  13    0.46    0.07
   2  -4  13    0.08    0.05
  -2  -4 -13    0.14    0.06
  -2   4  13    0.08    0.05
  -2   4 -13    0.05    0.06
  -2  -4  13    0.02    0.05
   2  -4 -13    0.18    0.06
  -3  -4 -13    0.75    0.11
  -3   4 -13    0.95    0.11
  -3  -4  13    0.77    0.10
  -4  -4 -13    0.46    0.11
  -4   4 -13    0.17    0.09
  -4  -4  13    0.18    0.08
   0  -5 -13    0.89    0.10
   0  -5  13    0.82    0.08
   0   5  13    0.94    0.08
   1  -5  13    0.70    0.08
  -1   5  13    0.51    0.07
  -1  -5 -13    0.68    0.09
   1  -5 -13    0.74    0.09
  -1  -5  13    0.69    0.08
  -2  -5 -13    1.26    0.13
   2  -5 -13    1.18    0.11
  -2  -5  13    1.12    0.10
  -2   5 -13    1.21    0.11
  -3  -5 -13    0.28    0.09
  -3   5 -13    0.15    0.08
  -3  -5  13    0.22    0.07
  -4  -5 -13    0.12    0.09
  -4  -5  13   -0.01    0.07
  -4   5 -13   -0.12    0.08
   0   6  13    1.97    0.11
   0  -6  13    1.88    0.11
   0  -6 -13    1.98    0.14
  -1  -6 -13    0.13    0.07
   1  -6 -13    0.12    0.07
  -1  -6  13    0.10    0.05
  -2  -6 -13    0.17    0.08
  -2  -6  13    0.16    0.06
   2  -6 -13    0.21    0.08
  -2   6 -13    0.13    0.07
  -3  -6 -13    0.10    0.08
  -3  -6  13   -0.03    0.06
  -3   6 -13   -0.04    0.07
  -4  -6 -13    0.16    0.09
  -4   6 -13    0.02    0.09
  -4  -6  13    0.06    0.08
   0  -7 -13    0.51    0.09
  -1  -7 -13    0.50    0.09
  -1  -7  13    0.43    0.07
   1  -7 -13    0.62    0.10
   2  -7  13    0.12    0.07
  -2  -7 -13   -0.02    0.07
   2  -7 -13    0.04    0.07
  -2  -7  13   -0.02    0.06
  -2   7 -13    0.06    0.07
   3  -7  13    0.19    0.09
  -3  -7 -13    0.22    0.09
   3  -7 -13    0.11    0.08
  -3  -7  13    0.21    0.08
  -3   7 -13    0.05    0.08
  -4  -7 -13    0.03    0.09
  -4  -7  13    0.03    0.08
   0  -8 -13    0.78    0.11
  -1  -8 -13    0.40    0.09
   1  -8 -13    0.33    0.09
  -2  -8 -13    0.29    0.10
   2  -8 -13    0.23    0.09
  -3  -8 -13   -0.02    0.08
   3  -8  13    0.20    0.09
  -3  -8  13    0.07    0.08
   3  -8 -13    0.19    0.09
  -3   8 -13    0.31    0.10
   0  -9 -13    0.11    0.08
  -1  -9 -13    0.18    0.09
   1  -9 -13    0.19    0.09
  -2  -9 -13   -0.02    0.08
   2  -9 -13   -0.05    0.07
   3  -9  13    0.05    0.08
  -3  -9 -13    0.06    0.10
   3  -9 -13    0.20    0.10
  -3   9 -13    0.13    0.09
   0 -10 -13    0.13    0.09
  -1 -10 -13    0.13    0.09
   1 -10 -13    0.07    0.09
  -2 -10 -13    0.43    0.13
   0   0  14    0.40    0.06
   0   0 -14    0.46    0.07
  -1   0  14    2.93    0.13
  -1   0 -14    3.37    0.14
   1   0  14    2.96    0.13
  -2   0  14    0.15    0.05
  -2   0 -14    0.19    0.07
  -3   0  14    0.35    0.07
  -3   0 -14    0.28    0.08
  -4   0  14    0.27    0.08
  -4   0 -14    0.24    0.09
  -5   0  14    0.04    0.07
   0   1  14   23.76    0.37
   0  -1  14   24.50    0.38
   0  -1 -14   24.95    0.38
   0   1 -14   24.42    0.36
  -1  -1 -14    0.44    0.07
   1  -1  14    0.42    0.06
  -1   1  14    0.32    0.06
  -1   1 -14    0.32    0.07
  -1  -1  14    0.42    0.07
  -2  -1 -14    0.36    0.08
  -2   1  14    0.35    0.07
  -2  -1  14    0.28    0.06
  -2   1 -14    0.43    0.08
  -3  -1 -14    1.43    0.13
  -3   1  14    1.50    0.11
  -3   1 -14    1.42    0.13
  -3  -1  14    1.45    0.12
  -4  -1 -14   -0.03    0.08
  -4   1  14    0.07    0.06
  -4  -1  14    0.18    0.07
  -4   1 -14    0.05    0.08
  -5   1  14   -0.13    0.06
   0  -2 -14    0.94    0.09
   0  -2  14    0.96    0.09
   0   2  14    1.08    0.09
  -1   2  14    0.33    0.06
  -1  -2 -14    0.23    0.07
   1  -2  14    0.22    0.05
   1  -2 -14    0.41    0.07
  -1  -2  14    0.25    0.06
  -1   2 -14    0.31    0.07
  -2  -2 -14    0.35    0.08
  -2   2  14    0.44    0.07
  -2   2 -14    0.31    0.08
  -2  -2  14    0.41    0.07
  -3   2  14    0.67    0.09
  -3  -2 -14    0.65    0.10
  -3   2 -14    0.75    0.11
  -3  -2  14    0.71    0.09
  -4  -2 -14    0.21    0.08
  -4   2  14   -0.03    0.06
  -4  -2  14    0.08    0.07
  -4   2 -14    0.10    0.08
   0  -3  14    0.07    0.05
   0  -3 -14    0.02    0.05
   0   3  14    0.03    0.04
  -1  -3 -14    0.16    0.07
   1  -3  14    0.25    0.06
  -1   3  14    0.11    0.05
  -1   3 -14    0.04    0.05
   1  -3 -14    0.21    0.06
  -1  -3  14    0.10    0.05
  -2   3  14    0.61    0.08
   2  -3  14    0.65    0.08
  -2  -3 -14    0.49    0.08
  -2  -3  14    0.53    0.08
  -2   3 -14    0.50    0.09
  -3   3  14    0.25    0.06
  -3  -3 -14    0.40    0.09
  -3  -3  14    0.42    0.08
  -3   3 -14    0.30    0.09
  -4  -3 -14    0.06    0.09
  -4  -3  14    0.07    0.08
  -4   3 -14   -0.03    0.08
   0  -4 -14    0.73    0.09
   0   4  14    0.70    0.08
   0  -4  14    0.87    0.09
   1  -4  14    2.83    0.13
  -1  -4 -14    2.46    0.14
  -1   4  14    2.51    0.12
  -1  -4  14    2.47    0.12
  -1   4 -14    2.61    0.13
   1  -4 -14    2.60    0.13
  -2   4  14    0.63    0.08
  -2  -4 -14    0.69    0.10
   2  -4  14    0.67    0.08
  -2   4 -14    0.65    0.10
  -2  -4  14    0.71    0.09
  -3  -4 -14    0.79    0.11
  -3  -4  14    0.60    0.09
  -3   4 -14    0.76    0.11
  -4  -4 -14    0.03    0.09
  -4  -4  14    0.01    0.07
  -4   4 -14    0.00    0.08
   0  -5 -14    2.52    0.14
   0   5  14    2.71    0.12
   0  -5  14    2.36    0.12
  -1   5  14    0.43    0.07
   1  -5  14    0.34    0.07
  -1  -5 -14    0.42    0.08
   1  -5 -14    0.53    0.09
  -1  -5  14    0.40    0.07
  -2  -5 -14    1.90    0.15
  -2  -5  14    1.95    0.13
   2  -5 -14    1.60    0.12
  -2   5 -14    1.97    0.14
  -3  -5 -14    0.00    0.07
  -3  -5  14    0.03    0.06
  -3   5 -14    0.03    0.08
  -4  -5 -14    0.15    0.09
  -4  -5  14    0.27    0.09
  -4   5 -14    0.11    0.10
   0  -6  14    1.88    0.11
   0   6  14    1.75    0.11
   0  -6 -14    1.69    0.14
  -1  -6 -14    1.49    0.13
   1  -6 -14    1.51    0.13
  -1  -6  14    1.73    0.12
  -2  -6 -14    0.05    0.07
  -2   6 -14    0.04    0.07
   2  -6 -14   -0.02    0.06
  -2  -6  14    0.06    0.06
  -3  -6 -14    0.06    0.08
  -3  -6  14   -0.03    0.06
  -3   6 -14   -0.05    0.07
  -4  -6 -14    0.11    0.09
  -4   6 -14    0.00    0.09
  -4  -6  14   -0.03    0.09
   0  -7 -14    0.14    0.08
  -1  -7 -14    0.90    0.12
  -1  -7  14    1.17    0.11
   1  -7 -14    0.95    0.11
  -2  -7 -14    0.21    0.09
  -2  -7  14    0.12    0.07
   2  -7 -14    0.09    0.08
  -3  -7 -14    0.44    0.11
   3  -7  14    0.44    0.10
  -3  -7  14    0.20    0.08
  -3   7 -14    0.48    0.11
   0  -8 -14    1.66    0.15
  -1  -8 -14    0.12    0.08
   1  -8 -14    0.13    0.08
  -2  -8 -14    0.35    0.10
   2  -8 -14    0.23    0.09
   3  -8  14    0.13    0.09
  -3  -8 -14    0.24    0.10
  -3  -8  14    0.05    0.07
   3  -8 -14    0.06    0.09
  -3   8 -14    0.11    0.09
   0  -9 -14   -0.07    0.07
  -1  -9 -14    0.37    0.10
   1  -9 -14    0.24    0.09
  -2  -9 -14    0.11    0.10
   2  -9 -14    0.21    0.10
   0 -10 -14   -0.03    0.09
   0   0 -15    0.01    0.05
   0   0  15    0.00    0.04
  -1   0  15    3.67    0.15
   1   0  15    3.69    0.15
  -1   0 -15    3.49    0.15
  -2   0  15    0.24    0.07
  -2   0 -15    0.39    0.08
  -3   0  15    0.00    0.06
  -3   0 -15   -0.02    0.07
  -4   0  15    0.09    0.07
  -4   0 -15    0.30    0.10
   0  -1 -15    3.75    0.15
   0  -1  15    3.62    0.15
   0   1  15    3.50    0.14
  -1  -1 -15    1.28    0.11
   1  -1  15    1.47    0.11
  -1   1  15    1.09    0.10
  -1   1 -15    1.44    0.11
   1   1  15    1.42    0.10
  -1  -1  15    1.34    0.10
  -2  -1 -15    0.47    0.09
  -2   1  15    0.53    0.08
  -2   1 -15    0.38    0.08
  -2  -1  15    0.50    0.08
  -3   1  15    0.35    0.08
  -3  -1 -15    0.32    0.09
  -3   1 -15    0.28    0.09
  -3  -1  15    0.38    0.08
  -4  -1 -15    0.38    0.10
  -4   1  15    0.41    0.09
  -4   1 -15    0.37    0.10
  -4  -1  15    0.45    0.09
   0  -2 -15    0.92    0.09
   0  -2  15    0.76    0.08
   0   2  15    1.06    0.10
   1  -2  15    3.52    0.15
  -1  -2 -15    3.32    0.15
  -1   2  15    3.30    0.14
  -1   2 -15    3.41    0.15
   1  -2 -15    3.38    0.15
   1   2  15    3.38    0.14
  -1  -2  15    3.37    0.15
  -2   2  15    0.52    0.08
   2  -2  15    0.68    0.09
  -2  -2 -15    0.72    0.10
  -2  -2  15    0.76    0.09
  -2   2 -15    0.87    0.10
  -3   2  15    0.78    0.10
  -3  -2 -15    0.74    0.11
  -3   2 -15    0.81    0.11
  -3  -2  15    0.91    0.11
  -4   2  15    0.31    0.08
  -4  -2 -15    0.37    0.10
  -4   2 -15    0.43    0.10
  -4  -2  15    0.25    0.08
   0   3  15    2.99    0.13
   0  -3 -15    3.14    0.15
   0  -3  15    3.12    0.14
  -1   3  15    1.20    0.10
   1  -3  15    1.20    0.10
  -1  -3 -15    1.23    0.12
   1  -3 -15    1.05    0.10
  -1   3 -15    1.23    0.10
  -1  -3  15    1.26    0.11
  -2  -3 -15    1.09    0.11
   2  -3  15    1.05    0.10
  -2   3  15    1.12    0.10
  -2  -3  15    0.92    0.10
  -2   3 -15    1.16    0.11
  -3   3  15    0.58    0.08
  -3  -3 -15    0.60    0.11
  -3  -3  15    0.75    0.10
  -3   3 -15    0.54    0.10
  -4  -3 -15    0.24    0.10
  -4   3 -15    0.52    0.11
  -4  -3  15    0.46    0.10
   0   4  15    0.47    0.07
   0  -4  15    0.60    0.08
   0  -4 -15    0.45    0.08
  -1   4  15    0.65    0.08
  -1  -4 -15    0.42    0.09
   1  -4  15    0.52    0.08
  -1  -4  15    0.56    0.08
   1  -4 -15    0.41    0.08
  -2  -4 -15    0.51    0.10
   2  -4  15    0.47    0.08
  -2   4  15    0.36    0.07
  -2  -4  15    0.53    0.09
  -2   4 -15    0.53    0.09
  -3  -4 -15    1.18    0.13
  -3   4 -15    1.31    0.14
  -3  -4  15    1.18    0.13
  -4  -4 -15   -0.02    0.08
  -4   4 -15    0.15    0.09
  -4  -4  15    0.09    0.08
   0  -5 -15    0.75    0.10
   0   5  15    0.85    0.09
   0  -5  15    0.87    0.09
  -1  -5 -15    0.21    0.08
  -1   5  15    0.21    0.06
   1  -5  15    0.22    0.06
   1  -5 -15    0.24    0.08
  -1  -5  15    0.27    0.07
  -2  -5 -15    0.25    0.09
  -2  -5  15    0.24    0.07
  -2   5 -15    0.28    0.08
   2  -5 -15    0.12    0.07
  -3  -5 -15    0.11    0.09
  -3  -5  15    0.11    0.08
  -3   5 -15    0.25    0.09
  -4  -5 -15    0.09    0.09
  -4   5 -15    0.36    0.11
   0  -6 -15    0.38    0.08
   0  -6  15    0.24    0.06
  -1  -6 -15    0.86    0.11
  -1  -6  15    0.88    0.10
   1  -6 -15    0.85    0.11
  -2  -6 -15    0.32    0.09
   2  -6 -15    0.41    0.09
  -2  -6  15    0.39    0.08
  -3  -6 -15    0.41    0.10
  -3  -6  15    0.27    0.09
  -3   6 -15    0.31    0.10
   0  -7 -15    0.13    0.08
  -1  -7 -15    0.25    0.09
  -1  -7  15    0.22    0.07
   1  -7 -15    0.38    0.09
  -2  -7 -15    0.18    0.09
  -2  -7  15    0.06    0.07
   2  -7 -15    0.13    0.08
   3  -7  15   -0.01    0.08
  -3  -7 -15    0.04    0.09
  -3   7 -15   -0.03    0.09
  -3  -7  15   -0.08    0.07
   0  -8 -15    0.36    0.09
  -1  -8 -15    0.15    0.09
   1  -8 -15    0.09    0.09
  -2  -8 -15    0.10    0.09
   2  -8 -15    0.19    0.09
  -3  -8  15    0.04    0.09
   0  -9 -15    0.15    0.09
  -1  -9 -15    0.01    0.08
   1  -9 -15    0.08    0.10
   2  -9 -15    0.03    0.10
   0   0  16    7.57    0.21
   0   0 -16    7.71    0.23
  -1   0 -16    3.17    0.15
  -1   0  16    3.11    0.15
   1   0  16    2.83    0.14
  -2   0  16    0.51    0.08
  -2   0 -16    0.62    0.09
  -3   0 -16    0.09    0.08
  -3   0  16    0.09    0.07
  -4   0 -16    0.15    0.09
  -4   0  16    0.10    0.08
   0  -1 -16    0.40    0.08
   0  -1  16    0.36    0.07
   0   1  16    0.40    0.07
  -1  -1 -16    1.42    0.12
   1  -1  16    1.47    0.12
  -1   1  16    1.59    0.12
  -1  -1  16    1.28    0.11
  -1   1 -16    1.24    0.11
   1   1  16    1.51    0.11
  -2   1  16    1.17    0.11
   2  -1  16    0.97    0.10
  -2  -1 -16    1.23    0.12
  -2   1 -16    0.94    0.11
  -2  -1  16    1.04    0.10
  -3   1  16    1.09    0.11
  -3  -1 -16    0.95    0.13
  -3   1 -16    0.98    0.12
  -3  -1  16    1.06    0.11
  -4   1  16    0.06    0.07
  -4  -1 -16    0.05    0.09
  -4  -1  16    0.15    0.08
  -4   1 -16    0.20    0.09
   0  -2 -16   -0.03    0.06
   0   2  16    0.04    0.05
   0  -2  16   -0.07    0.05
  -1  -2 -16    1.13    0.11
  -1   2  16    1.40    0.11
   1  -2  16    0.96    0.10
   1   2  16    1.36    0.12
  -1  -2  16    1.13    0.11
  -1   2 -16    1.19    0.11
  -2  -2 -16    1.84    0.14
   2  -2  16    2.02    0.14
  -2   2  16    2.10    0.13
  -2   2 -16    2.05    0.14
  -2  -2  16    2.14    0.14
  -3  -2 -16    0.02    0.07
  -3   2  16    0.01    0.06
  -3  -2  16    0.09    0.07
  -3   2 -16    0.03    0.08
  -4   2  16    0.16    0.07
  -4  -2 -16    0.31    0.10
  -4   2 -16    0.05    0.09
  -4  -2  16    0.27    0.09
   0  -3  16    0.60    0.08
   0   3  16    0.49    0.08
   0  -3 -16    0.47    0.08
  -1  -3 -16    2.16    0.14
   1  -3  16    2.19    0.13
  -1   3  16    2.25    0.13
   1  -3 -16    2.14    0.13
   1   3  16    2.12    0.13
  -1  -3  16    2.06    0.13
  -2  -3 -16    0.24    0.08
   2  -3  16    0.08    0.06
  -2   3  16    0.12    0.06
  -2   3 -16    0.13    0.07
  -2  -3  16    0.11    0.07
   3  -3  16    0.92    0.11
  -3  -3 -16    0.98    0.13
  -3   3  16    0.86    0.10
  -3   3 -16    0.89    0.12
  -3  -3  16    0.94    0.11
  -4  -3 -16    0.13    0.10
  -4  -3  16    0.22    0.09
  -4   3 -16    0.16    0.10
   0  -4 -16    5.09    0.20
   0  -4  16    4.89    0.18
   0   4  16    4.79    0.17
  -1  -4 -16    0.23    0.08
   1  -4  16    0.21    0.06
  -1   4  16   -0.07    0.05
   1   4  16    0.02    0.05
   1  -4 -16    0.24    0.07
  -1  -4  16    0.11    0.06
  -2   4  16    0.57    0.08
   2  -4  16    0.55    0.09
  -2  -4 -16    0.38    0.09
  -2   4 -16    0.54    0.10
  -2  -4  16    0.68    0.10
  -3  -4 -16   -0.07    0.07
  -3   4 -16    0.09    0.09
  -3  -4  16    0.16    0.08
   0  -5 -16    0.02    0.06
   0  -5  16    0.15    0.06
   0   5  16    0.02    0.05
  -1  -5 -16    1.60    0.14
  -1   5  16    1.57    0.12
   1  -5  16    1.56    0.12
  -1  -5  16    1.64    0.13
   1  -5 -16    1.74    0.14
   1   5  16    1.42    0.12
  -2  -5 -16    0.81    0.12
  -2   5 -16    0.73    0.11
  -2  -5  16    0.78    0.10
  -3  -5 -16    0.06    0.09
  -3  -5  16    0.28    0.09
  -3   5 -16    0.28    0.10
   0  -6 -16    0.01    0.07
   0  -6  16    0.08    0.06
  -1  -6 -16    0.49    0.11
   1  -6 -16    0.55    0.10
   1   6  16    0.65    0.09
  -1  -6  16    0.51    0.09
  -2  -6 -16    0.39    0.11
   2  -6 -16    0.22    0.09
  -2  -6  16    0.43    0.09
  -3  -6 -16    0.26    0.10
  -3  -6  16    0.02    0.08
  -3   6 -16    0.04    0.08
   0  -7 -16    0.38    0.09
  -1  -7 -16    0.17    0.08
  -1  -7  16    0.15    0.07
   1  -7 -16    0.26    0.09
  -2  -7 -16    0.29    0.10
  -2  -7  16    0.36    0.09
   2  -7 -16    0.20    0.09
  -3   7 -16    0.01    0.09
   0  -8 -16    0.67    0.12
  -1  -8 -16    0.55    0.11
   1  -8 -16    0.60    0.11
   2  -8 -16    0.11    0.09
   0  -9 -16    0.69    0.15
   0   0  17    0.09    0.06
   1   0  17    0.48    0.08
  -1   0  17    0.47    0.09
  -1   0 -17    0.38    0.08
  -2   0  17    0.11    0.06
  -2   0 -17   -0.02    0.06
   2   0  17    0.21    0.07
  -3   0 -17   -0.04    0.07
  -3   0  17   -0.02    0.06
  -4   0  17    0.06    0.07
   0  -1  17    0.46    0.08
   0  -1 -17    0.31    0.07
   0   1  17    0.36    0.08
  -1   1  17    0.31    0.07
   1  -1  17    0.25    0.07
  -1  -1 -17    0.29    0.08
   1   1  17    0.27    0.07
  -1  -1  17    0.37    0.08
  -1   1 -17    0.22    0.08
   2  -1  17   -0.06    0.05
  -2  -1 -17   -0.09    0.06
  -2   1  17    0.01    0.06
  -2   1 -17    0.03    0.07
  -2  -1  17    0.03    0.06
  -3   1  17    0.10    0.07
  -3  -1 -17    0.13    0.08
  -3  -1  17    0.08    0.07
  -3   1 -17    0.11    0.08
  -4   1  17    0.08    0.08
   0  -2 -17    4.43    0.18
   0  -2  17    4.34    0.18
   0   2  17    4.18    0.17
  -1  -2 -17    0.23    0.08
   1  -2  17    0.28    0.07
  -1   2  17    0.24    0.07
   1   2  17    0.24    0.07
  -1  -2  17    0.39    0.08
  -2  -2 -17    0.92    0.12
  -2   2  17    0.73    0.10
   2  -2  17    0.86    0.10
  -2   2 -17    0.85    0.11
  -2  -2  17    1.09    0.12
  -3   2  17   -0.11    0.05
  -3  -2 -17   -0.05    0.08
  -3   2 -17    0.07    0.08
  -3  -2  17    0.05    0.07
   0   3  17    0.81    0.10
   0  -3 -17    0.56    0.09
   0  -3  17    0.74    0.09
  -1   3  17    1.03    0.11
   1  -3  17    0.95    0.10
  -1  -3 -17    1.00    0.12
   1   3  17    0.98    0.11
  -1  -3  17    1.06    0.11
  -2   3  17    0.48    0.08
  -2  -3 -17    0.28    0.09
   2  -3  17    0.33    0.08
  -2   3 -17    0.46    0.09
  -2  -3  17    0.58    0.10
  -3   3  17    0.36    0.08
   3  -3  17    0.38    0.08
  -3  -3 -17    0.08    0.08
  -3  -3  17    0.32    0.09
  -3   3 -17    0.12    0.09
   0   4  17    1.30    0.12
   0  -4  17    1.31    0.12
   0  -4 -17    1.17    0.13
   1  -4  17    1.54    0.13
  -1  -4 -17    1.64    0.14
  -1   4  17    1.56    0.12
  -1  -4  17    1.76    0.13
   1  -4 -17    1.66    0.14
   1   4  17    1.76    0.13
  -2  -4 -17    0.68    0.11
  -2   4  17    0.59    0.09
   2  -4  17    0.66    0.09
  -2   4 -17    0.63    0.11
  -2  -4  17    0.75    0.11
  -3  -4 -17    0.07    0.09
  -3   4 -17   -0.05    0.08
  -3  -4  17    0.12    0.08
   0  -5  17    0.05    0.06
   0  -5 -17   -0.05    0.06
   0   5  17   -0.04    0.05
  -1  -5 -17   -0.03    0.07
   1  -5  17    0.01    0.05
   1   5  17    0.09    0.07
   1  -5 -17    0.06    0.07
  -1  -5  17    0.03    0.06
  -2  -5 -17    0.62    0.11
  -2  -5  17    0.75    0.11
  -3  -5 -17    0.07    0.09
  -3  -5  17    0.01    0.08
  -3   5 -17    0.01    0.08
   0  -6 -17    0.09    0.07
   0  -6  17    0.03    0.06
  -1  -6 -17    1.41    0.15
   1   6  17    1.19    0.12
  -1  -6  17    1.14    0.12
   1  -6 -17    0.84    0.12
  -2  -6 -17    0.20    0.10
  -2  -6  17    0.08    0.08
  -3   6 -17    0.15    0.10
   0  -7 -17    0.17    0.09
  -1  -7 -17    0.67    0.12
   1  -7 -17    0.89    0.13
  -2  -7 -17    0.45    0.12
  -2  -7  17    0.28    0.09
   2  -7 -17    0.32    0.11
   0  -8 -17    0.23    0.09
   1  -8 -17    0.58    0.12
   0   0  18    0.81    0.10
   1   0  18    0.83    0.11
  -1   0 -18    0.77    0.10
  -1   0  18    0.71    0.10
  -2   0  18    0.05    0.07
   2   0  18    0.02    0.06
  -2   0 -18    0.09    0.08
  -3   0 -18    0.06    0.09
  -3   0  18   -0.02    0.06
   0  -1  18    0.00    0.05
   0   1  18   -0.03    0.06
  -1  -1 -18    1.05    0.11
  -1   1  18    1.16    0.12
   1  -1  18    1.08    0.11
  -1  -1  18    1.15    0.12
   1   1  18    1.07    0.12
  -1   1 -18    1.16    0.12
  -2   1  18    0.44    0.09
  -2  -1 -18    0.66    0.11
   2  -1  18    0.71    0.10
  -2   1 -18    0.53    0.10
  -2  -1  18    0.48    0.09
   2   1  18    0.56    0.10
  -3  -1 -18   -0.13    0.08
  -3   1  18   -0.12    0.06
  -3   1 -18    0.05    0.08
  -3  -1  18    0.01    0.07
   0   2  18    0.49    0.09
   0  -2  18    0.62    0.10
   0  -2 -18    0.52    0.09
  -1   2  18    0.42    0.08
  -1  -2 -18    0.27    0.08
   1  -2  18    0.31    0.08
  -1  -2  18    0.36    0.08
   1   2  18    0.29    0.08
  -2   2  18    1.05    0.12
  -2  -2 -18    0.91    0.12
   2  -2  18    1.07    0.12
  -2  -2  18    1.09    0.12
  -2   2 -18    1.19    0.13
  -3  -2 -18   -0.06    0.08
  -3   2  18   -0.06    0.06
   3  -2  18    0.07    0.07
  -3  -2  18   -0.08    0.07
  -3   2 -18    0.03    0.08
   0  -3  18    1.06    0.12
   0   3  18    0.87    0.10
   0  -3 -18    0.87    0.11
  -1   3  18    1.75    0.14
  -1  -3 -18    1.60    0.14
   1  -3  18    1.67    0.13
  -1  -3  18    1.85    0.14
   1   3  18    1.83    0.14
  -2  -3 -18    0.30    0.09
  -2   3  18    0.26    0.08
   2  -3  18    0.23    0.08
  -2  -3  18    0.29    0.09
  -2   3 -18    0.32    0.09
   3  -3  18   -0.02    0.07
  -3  -3 -18    0.08    0.09
  -3  -3  18    0.02    0.08
  -3   3 -18   -0.13    0.07
   0  -4  18    0.17    0.07
   0   4  18    0.10    0.07
   0  -4 -18    0.13    0.08
  -1   4  18    0.13    0.06
   1  -4  18    0.13    0.07
  -1  -4 -18    0.23    0.09
   1   4  18    0.12    0.07
  -1  -4  18    0.28    0.08
   2  -4  18    0.22    0.08
  -2  -4 -18    0.21    0.09
  -2  -4  18    0.26    0.08
  -3   4 -18    0.17    0.10
   0  -5  18    1.15    0.12
   0   5  18    1.29    0.12
   0  -5 -18    1.53    0.15
   1  -5  18    0.09    0.07
  -1  -5 -18    0.17    0.09
   1  -5 -18    0.16    0.08
   1   5  18    0.15    0.08
  -1  -5  18    0.17    0.07
  -2  -5 -18    0.75    0.13
  -2  -5  18    0.71    0.11
  -3   5 -18    0.22    0.10
   0  -6  18    0.17    0.07
   0  -6 -18    0.14    0.08
  -1  -6 -18    0.31    0.10
  -1  -6  18    0.30    0.08
   1   6  18    0.22    0.08
   1  -6 -18    0.19    0.09
  -2  -6 -18   -0.10    0.09
  -2  -6  18    0.15    0.08
   0  -7 -18    0.58    0.11
  -1  -7 -18    0.04    0.09
   1  -7 -18    0.05    0.08
   0   0  19   -0.05    0.06
   1   0  19    3.41    0.18
  -1   0  19    3.10    0.18
  -1   0 -19    2.95    0.17
   2   0  19    0.04    0.07
  -2   0  19    0.10    0.08
  -2   0 -19    0.28    0.10
   3   0  19    0.01    0.07
  -3   0 -19    0.17    0.10
  -3   0  19    0.13    0.08
   0   1  19    0.00    0.06
   0  -1  19    0.02    0.07
   1  -1  19    0.17    0.08
  -1   1  19    0.15    0.07
  -1  -1 -19    0.15    0.08
  -1  -1  19    0.21    0.09
   1   1  19    0.29    0.08
  -2  -1 -19    0.29    0.10
  -2   1  19    0.03    0.07
   2  -1  19    0.08    0.07
   2   1  19    0.10    0.08
  -2   1 -19    0.09    0.08
  -2  -1  19    0.14    0.08
  -3   1  19    0.21    0.09
   3  -1  19    0.02    0.07
  -3  -1 -19    0.13    0.10
  -3   1 -19    0.27    0.10
  -3  -1  19    0.14    0.09
   0  -2  19   -0.03    0.06
   0   2  19    0.14    0.07
  -1  -2 -19    0.92    0.12
  -1   2  19    0.97    0.11
   1  -2  19    0.99    0.12
   1   2  19    0.68    0.10
  -1  -2  19    1.06    0.13
  -2  -2 -19    0.16    0.09
   2  -2  19    0.26    0.08
  -2   2  19    0.34    0.09
   2   2  19    0.17    0.08
  -2   2 -19    0.28    0.09
  -2  -2  19    0.35    0.09
   3  -2  19    0.33    0.09
  -3   2  19    0.30    0.09
  -3   2 -19    0.24    0.10
   0  -3  19    0.00    0.06
   0  -3 -19   -0.13    0.06
   0   3  19    0.09    0.07
   1  -3  19    0.05    0.07
  -1   3  19    0.05    0.06
  -1  -3 -19    0.04    0.07
  -1  -3  19    0.25    0.08
   1   3  19    0.12    0.07
  -2   3  19    0.04    0.07
   2  -3  19    0.18    0.08
  -2  -3 -19    0.38    0.10
  -2  -3  19    0.14    0.08
   2   3  19    0.13    0.08
   3  -3  19    0.27    0.09
  -3   3 -19    0.28    0.12
   0   4  19    0.05    0.06
   0  -4  19   -0.03    0.06
   0  -4 -19   -0.09    0.07
  -1  -4 -19    0.13    0.09
   1  -4  19    0.05    0.07
  -1   4  19    0.08    0.07
  -1  -4  19    0.08    0.07
   1   4  19    0.19    0.08
  -2  -4 -19    0.17    0.09
   2  -4  19    0.34    0.09
  -2  -4  19    0.37    0.10
   2   4  19    0.39    0.09
   0  -5 -19    0.00    0.08
   0   5  19    0.17    0.07
   0  -5  19    0.07    0.07
   1  -5  19    0.10    0.07
  -1  -5 -19   -0.02    0.08
   1   5  19    0.08    0.07
  -1  -5  19    0.09    0.08
  -2  -5  19    0.03    0.08
   2   5  19    0.08    0.08
   0  -6 -19    0.08    0.09
  -1  -6 -19    0.20    0.10
   1   6  19    0.19    0.08
  -1  -6  19    0.29    0.09
   1  -6 -19    0.24    0.09
   0   0  20    0.30    0.09
   1   0  20   -0.02    0.07
  -1   0  20    0.04    0.08
  -2   0 -20    0.30    0.10
   2   0  20    0.20    0.09
  -2   0  20    0.16    0.08
   0  -1  20    4.09    0.21
   0   1  20    4.21    0.20
  -1   1  20    0.22    0.09
   1  -1  20    0.32    0.09
  -1  -1 -20    0.30    0.09
  -1  -1  20    0.29    0.09
   1   1  20    0.35    0.09
  -2  -1 -20    1.33    0.15
  -2   1  20    1.82    0.16
   2  -1  20    1.61    0.15
   2   1  20    1.41    0.14
  -2   1 -20    1.37    0.15
  -2  -1  20    1.35    0.14
   0   2  20   -0.03    0.07
   0  -2  20    0.03    0.07
  -1   2  20    0.57    0.10
  -1  -2 -20    0.52    0.10
   1  -2  20    0.44    0.10
   1   2  20    0.40    0.09
  -1  -2  20    0.65    0.11
  -2  -2 -20    0.10    0.09
  -2   2  20    0.31    0.09
   2  -2  20    0.18    0.08
  -2  -2  20    0.15    0.09
   2   2  20    0.19    0.09
   0   3  20    0.13    0.07
   0  -3  20    0.13    0.08
  -1   3  20    0.07    0.07
  -1  -3 -20    0.11    0.08
   1  -3  20   -0.07    0.07
   1   3  20   -0.01    0.07
  -1  -3  20    0.04    0.07
  -2   3  20    0.53    0.10
  -2  -3 -20    0.23    0.10
   2  -3  20    0.40    0.10
   0  -4 -20   -0.09    0.07
   0   4  20   -0.06    0.06
   0  -4  20    0.05    0.07
   1  -4  20    0.05    0.07
  -1   4  20   -0.01    0.06
  -1  -4 -20   -0.03    0.08
   1   4  20    0.00    0.07
  -1  -4  20    0.06    0.08
   2  -4  20    0.17    0.08
   0  -5  20    0.06    0.07
   0   5  20    0.01    0.07
   0  -5 -20    0.05    0.09
  -1  -5 -20    0.33    0.12
   1   5  20    0.15    0.08
  -1  -5  20    0.14    0.08
   0   0  21   -0.06    0.08
   1   0  21    2.17    0.18
  -1   0  21    2.26    0.17
  -2   0 -21    0.16    0.10
   0  -1  21    0.28    0.10
   0   1  21    0.35    0.10
  -1   1  21    0.15    0.09
   1  -1  21    0.33    0.10
   1   1  21    0.27    0.09
  -1  -1  21    0.39    0.11
   0  -2  21   -0.05    0.08
   0   2  21   -0.01    0.07
  -1  -2 -21    1.29    0.14
  -1   2  21    1.07    0.13
   1  -2  21    1.29    0.14
  -1  -2  21    1.61    0.17
   1   2  21    1.59    0.17
   0  -3  21   -0.05    0.07
   0   3  21    0.03    0.08
   1  -3  21    0.07    0.09
  -1   3  21   -0.03    0.07
  -1  -3 -21    0.23    0.10
   0   0   0    0.00    0.00
;
_shelx_hkl_checksum              92105
#END Tags that were not found in dictionaries
loop_
_space_group_symop_operation_xyz
'x, y, z'
'-x+1/2, -y, z+1/2'
'x+1/2, -y+1/2, -z'
'-x, y+1/2, -z+1/2'
loop_
_atom_site_label
_atom_site_type_symbol
_atom_site_fract_x
_atom_site_fract_y
_atom_site_fract_z
_atom_site_U_iso_or_equiv
_atom_site_adp_type
_atom_site_occupancy
_atom_site_site_symmetry_order
_atom_site_calc_flag
_atom_site_refinement_flags_posn
_atom_site_refinement_flags_adp
O1 O 1.0479(7) 0.5697(4) 1.08205(16) 0.0988(10) Uani 1 1 d . .
H1 H 0.9829 0.5668 1.1341 0.119 Uiso 1 1 calc R U
O3 O 0.6192(7) 0.3671(3) 0.74321(14) 0.0855(9) Uani 1 1 d . .
O2 O 0.7300(10) 0.3875(3) 1.06189(16) 0.1107(13) Uani 1 1 d . .
C4 C 0.8893(9) 0.5829(3) 0.79548(19) 0.0675(8) Uani 1 1 d . .
H4A H 0.7337 0.6506 0.7758 0.081 Uiso 1 1 calc R U
H4B H 1.0579 0.5875 0.7534 0.081 Uiso 1 1 calc R U
C3 C 0.9918(10) 0.6175(4) 0.8906(2) 0.0758(10) Uani 1 1 d . .
H3A H 0.8419 0.6763 0.9219 0.091 Uiso 1 1 calc R U
H3B H 1.1827 0.6699 0.8899 0.091 Uiso 1 1 calc R U
C2 C 1.0283(7) 0.4692(3) 0.93685(17) 0.0595(7) Uani 1 1 d . .
H2 H 1.2413 0.4392 0.9349 0.071 Uiso 1 1 calc R U
C1 C 0.9173(7) 0.4692(3) 1.03393(18) 0.0567(7) Uani 1 1 d . .
C5 C 0.7673(7) 0.4321(3) 0.80128(15) 0.0565(7) Uani 1 1 d . .
N1 N 0.8515(8) 0.3754(2) 0.88011(14) 0.0698(8) Uani 1 1 d . .
H1A H 0.8032 0.2883 0.8960 0.084 Uiso 1 1 calc R U
loop_
_atom_site_aniso_label
_atom_site_aniso_U_11
_atom_site_aniso_U_22
_atom_site_aniso_U_33
_atom_site_aniso_U_23
_atom_site_aniso_U_13
_atom_site_aniso_U_12
O1 0.117(2) 0.129(2) 0.0504(11) -0.0134(14) 0.0070(13) -0.048(2)
O3 0.137(2) 0.0743(13) 0.0456(10) -0.0022(9) -0.0041(13) -0.0280(17)
O2 0.189(4) 0.0853(17) 0.0577(12) -0.0043(11) 0.0317(18) -0.057(2)
C4 0.087(2) 0.0610(15) 0.0545(14) 0.0159(13) -0.0036(15) -0.0076(16)
C3 0.107(3) 0.0646(17) 0.0557(15) 0.0117(13) -0.0059(16) -0.0256(18)
C2 0.0613(15) 0.0732(18) 0.0438(12) 0.0038(11) 0.0028(12) 0.0126(14)
C1 0.0759(16) 0.0512(13) 0.0428(11) 0.0060(10) -0.0003(11) 0.0071(13)
C5 0.0779(17) 0.0516(12) 0.0401(10) 0.0018(10) 0.0082(12) 0.0041(14)
N1 0.123(2) 0.0445(10) 0.0415(10) 0.0037(8) 0.0013(13) 0.0036(14)
loop_
_atom_type_symbol
_atom_type_description
_atom_type_scat_dispersion_real
_atom_type_scat_dispersion_imag
_atom_type_scat_source
C C 0.0033 0.0016 'International Tables Vol C Tables 4.2.6.8 and 6.1.1.4'
H H 0.0000 0.0000 'International Tables Vol C Tables 4.2.6.8 and 6.1.1.4'
N N 0.0061 0.0033 'International Tables Vol C Tables 4.2.6.8 and 6.1.1.4'
O O 0.0106 0.0060 'International Tables Vol C Tables 4.2.6.8 and 6.1.1.4'
loop_
_geom_angle_atom_site_label_1
_geom_angle_atom_site_label_2
_geom_angle_atom_site_label_3
_geom_angle
C1 O1 H1 109.5
C5 C4 C3 104.5(2)
C5 C4 H4A 110.8
C3 C4 H4A 110.8
C5 C4 H4B 110.8
C3 C4 H4B 110.8
H4A C4 H4B 108.9
C4 C3 C2 105.0(3)
C4 C3 H3A 110.7
C2 C3 H3A 110.7
C4 C3 H3B 110.7
C2 C3 H3B 110.7
H3A C3 H3B 108.8
N1 C2 C1 112.2(3)
N1 C2 C3 102.5(2)
C1 C2 C3 112.8(3)
N1 C2 H2 109.7
C1 C2 H2 109.7
C3 C2 H2 109.7
O2 C1 O1 124.5(3)
O2 C1 C2 123.6(3)
O1 C1 C2 112.0(3)
O3 C5 N1 124.7(3)
O3 C5 C4 127.0(3)
N1 C5 C4 108.2(2)
C5 N1 C2 115.5(2)
C5 N1 H1A 122.2
C2 N1 H1A 122.2
loop_
_geom_bond_atom_site_label_1
_geom_bond_atom_site_label_2
_geom_bond_distance
O1 C1 1.298(4)
O1 H1 0.8200
O3 C5 1.231(4)
O2 C1 1.189(4)
C4 C5 1.486(4)
C4 C3 1.509(4)
C4 H4A 0.9700
C4 H4B 0.9700
C3 C2 1.529(5)
C3 H3A 0.9700
C3 H3B 0.9700
C2 N1 1.431(4)
C2 C1 1.514(4)
C2 H2 0.9800
C5 N1 1.327(3)
N1 H1A 0.8600
loop_
_geom_hbond_atom_site_label_D
_geom_hbond_atom_site_label_H
_geom_hbond_atom_site_label_A
_geom_hbond_distance_DH
_geom_hbond_distance_HA
_geom_hbond_distance_DA
_geom_hbond_angle_DHA
_geom_hbond_site_symmetry_A
O1 H1 O3 0.82 1.78 2.556(3) 157.7 2_665
C4 H4A O3 0.97 2.54 3.486(4) 165.4 4_656
C3 H3A O1 0.97 2.67 3.496(5) 143.8 3_467
O1 H1 O3 0.82 1.78 2.556(3) 157.7 2_665
C4 H4A O3 0.97 2.54 3.486(4) 165.4 4_656
O1 H1 O3 0.82 1.78 2.556(3) 157.7 2_665
C4 H4A O3 0.97 2.54 3.486(4) 165.4 4_656
O1 H1 O3 0.82 1.78 2.556(3) 157.7 2_665
C4 H4A O3 0.97 2.54 3.486(4) 165.4 4_656
N1 H1A O2 0.86 2.56 3.055(4) 118.0 3_557
O1 H1 O3 0.82 1.78 2.556(3) 157.7 2_665
C4 H4A O3 0.97 2.54 3.486(4) 165.4 4_656
N1 H1A O2 0.86 2.56 3.055(4) 118.0 3_557
loop_
_geom_torsion_atom_site_label_1
_geom_torsion_atom_site_label_2
_geom_torsion_atom_site_label_3
_geom_torsion_atom_site_label_4
_geom_torsion
C5 C4 C3 C2 19.8(4)
C4 C3 C2 N1 -19.3(4)
C4 C3 C2 C1 -140.1(3)
N1 C2 C1 O2 8.7(4)
C3 C2 C1 O2 123.8(4)
N1 C2 C1 O1 -170.5(3)
C3 C2 C1 O1 -55.4(4)
C3 C4 C5 O3 168.5(3)
C3 C4 C5 N1 -13.0(4)
O3 C5 N1 C2 178.7(3)
C4 C5 N1 C2 0.2(4)
C1 C2 N1 C5 133.6(3)
C3 C2 N1 C5 12.3(4)
