#------------------------------------------------------------------------------
#$Date: 2016-03-22 22:15:30 +0200 (Tue, 22 Mar 2016) $
#$Revision: 179036 $
#$URL: svn://www.crystallography.net/cod/cif/4/12/34/4123420.cif $
#------------------------------------------------------------------------------
#
# This file is available in the Crystallography Open Database (COD),
# http://www.crystallography.net/
#
# All data on this site have been placed in the public domain by the
# contributors.
#
data_4123420
loop_
_publ_author_name
'Zhang, Yuexia'
'Du, Yu'
'Huang, Zhijian'
'Xu, Jianfeng'
'Wu, Xingxing'
'Wang, Yuhuang'
'Wang, Ming'
'Yang, Song'
'Webster, Richard D.'
'Chi, Yonggui Robin'
_publ_section_title
;
 N-Heterocyclic Carbene-Catalyzed Radical Reactions for Highly
 Enantioselective \b-Hydroxylation of Enals.
;
_journal_issue                   7
_journal_name_full               'Journal of the American Chemical Society'
_journal_page_first              2416
_journal_page_last               2419
_journal_paper_doi               10.1021/ja511371a
_journal_volume                  137
_journal_year                    2015
_chemical_formula_sum            'C6 H4 K N O5 S'
_chemical_formula_weight         241.26
_space_group_crystal_system      monoclinic
_space_group_IT_number           14
_space_group_name_Hall           '-P 2ybc'
_space_group_name_H-M_alt        'P 1 21/c 1'
_symmetry_space_group_name_Hall  '-P 2ybc'
_symmetry_space_group_name_H-M   'P 1 21/c 1'
_atom_sites_solution_hydrogens   geom
_cell_angle_alpha                90
_cell_angle_beta                 100.100(5)
_cell_angle_gamma                90
_cell_formula_units_Z            4
_cell_length_a                   15.097(2)
_cell_length_b                   7.8518(14)
_cell_length_c                   7.2255(12)
_cell_measurement_reflns_used    1989
_cell_measurement_temperature    103.(2)
_cell_measurement_theta_max      25.1611
_cell_measurement_theta_min      3.8652
_cell_volume                     843.2(2)
_computing_cell_refinement       'SAINT V8.34A (Bruker AXS Inc., 2013)'
_computing_data_collection       'APEX2 (Bruker AXS Inc., 2014)'
_computing_data_reduction        'SAINT V8.34A (Bruker AXS Inc., 2013)'
_computing_molecular_graphics    'XP (Bruker AXS Inc., 2014)'
_computing_publication_material  'APEX2 (Bruker AXS Inc., 2014)'
_computing_structure_refinement  'SHELXL-2014/6 (Sheldrick, 2014)'
_diffrn_ambient_temperature      103.(2)
_diffrn_detector_area_resol_mean 8.3333
_diffrn_measured_fraction_theta_full 0.997
_diffrn_measured_fraction_theta_max 0.997
_diffrn_measurement_device_type  'CCD area detector'
_diffrn_measurement_method       'phi and omega scans'
_diffrn_radiation_monochromator  graphite
_diffrn_radiation_type           MoK\a
_diffrn_radiation_wavelength     0.71073
_diffrn_reflns_av_R_equivalents  0.1010
_diffrn_reflns_av_unetI/netI     0.0721
_diffrn_reflns_limit_h_max       21
_diffrn_reflns_limit_h_min       -21
_diffrn_reflns_limit_k_max       11
_diffrn_reflns_limit_k_min       -11
_diffrn_reflns_limit_l_max       9
_diffrn_reflns_limit_l_min       -10
_diffrn_reflns_number            18680
_diffrn_reflns_theta_full        31.09
_diffrn_reflns_theta_max         31.09
_diffrn_reflns_theta_min         2.93
_diffrn_source                   'fine-focus sealed tube'
_exptl_absorpt_coefficient_mu    0.871
_exptl_absorpt_correction_T_max  0.98
_exptl_absorpt_correction_T_min  0.88
_exptl_absorpt_correction_type   multi-scan
_exptl_absorpt_process_details   'SADABS V2014/4 (Bruker AXS Inc.)'
_exptl_crystal_colour            colourless
_exptl_crystal_density_diffrn    1.900
_exptl_crystal_density_method    'not measured'
_exptl_crystal_description       needle
_exptl_crystal_F_000             488
_exptl_crystal_size_max          0.320
_exptl_crystal_size_mid          0.040
_exptl_crystal_size_min          0.020
_refine_diff_density_max         0.508
_refine_diff_density_min         -0.530
_refine_ls_extinction_method     none
_refine_ls_goodness_of_fit_ref   1.027
_refine_ls_hydrogen_treatment    constr
_refine_ls_matrix_type           full
_refine_ls_number_parameters     127
_refine_ls_number_reflns         2709
_refine_ls_number_restraints     0
_refine_ls_restrained_S_all      1.027
_refine_ls_R_factor_all          0.0791
_refine_ls_R_factor_gt           0.0412
_refine_ls_shift/su_max          0.000
_refine_ls_shift/su_mean         0.000
_refine_ls_structure_factor_coef Fsqd
_refine_ls_weighting_details
'w=1/[\s^2^(Fo^2^)+(0.0317P)^2^+0.2175P] where P=(Fo^2^+2Fc^2^)/3'
_refine_ls_weighting_scheme      calc
_refine_ls_wR_factor_gt          0.0761
_refine_ls_wR_factor_ref         0.0887
_reflns_number_gt                1864
_reflns_number_total             2709
_reflns_threshold_expression     'I > 2\s(I)'
_cod_data_source_file            ja511371a_si_002.cif
_cod_data_source_block           I
_cod_depositor_comments          'Adding full bibliography for 4123420.cif.'
_cod_database_code               4123420
#BEGIN Tags that were not found in dictionaries:
_shelx_res_file
;
TITL cyg150s in P2(1)/c
CELL 0.71073  15.09670   7.85180   7.22550  90.0000 100.1001  90.0000
ZERR    4.00   0.00230   0.00140   0.00120   0.0000   0.0050   0.0000
LATT 1
SYMM -X, 0.5+Y, 0.5-Z
SFAC C  H  N  O  S  K
UNIT 24  16  4  20  4  4
omit 2 0 0
L.S. 4
ACTA
BOND
FMAP 2
PLAN 5
SIZE 0.02 0.04 0.32
TEMP -170
WGHT    0.031700    0.217500
FVAR       0.18068
MOLE 1
C1    1    0.186489    0.007792    0.732178    11.00000    0.01246    0.00971 =
         0.00875    0.00095    0.00245    0.00156
C2    1    0.098346    0.062284    0.676696    11.00000    0.00967    0.01517 =
         0.01286   -0.00069    0.00065   -0.00136
AFIX  43
H2    2    0.050072   -0.016706    0.666673    11.00000   -1.20000
AFIX   0
C3    1    0.081451    0.232441    0.636179    11.00000    0.01203    0.01709 =
         0.01337    0.00012    0.00144    0.00411
AFIX  43
H3    2    0.021564    0.270691    0.594645    11.00000   -1.20000
AFIX   0
C4    1    0.152350    0.347017    0.656460    11.00000    0.01552    0.01066 =
         0.01409   -0.00006    0.00315    0.00451
AFIX  43
H4    2    0.140974    0.464532    0.631519    11.00000   -1.20000
AFIX   0
C5    1    0.240181    0.289987    0.713338    11.00000    0.01205    0.01225 =
         0.01236    0.00060    0.00330   -0.00116
AFIX  43
H5    2    0.288043    0.370111    0.727260    11.00000   -1.20000
AFIX   0
C6    1    0.259797    0.119752    0.750220    11.00000    0.00924    0.00998 =
         0.00692   -0.00038    0.00207    0.00096
K1    6    0.437854   -0.346786    0.849398    11.00000    0.00980    0.01377 =
         0.00812    0.00050    0.00172    0.00178
N1    3    0.196713   -0.175165    0.774472    11.00000    0.00904    0.01168 =
         0.01535   -0.00064   -0.00052   -0.00167
O1    4    0.138904   -0.242871    0.851448    11.00000    0.01632    0.01819 =
         0.02916    0.00659    0.00931   -0.00346
O2    4    0.259844   -0.252614    0.728813    11.00000    0.00974    0.01470 =
         0.02754   -0.00135    0.00283    0.00143
O3    4    0.373973   -0.042559    0.997262    11.00000    0.01274    0.01561 =
         0.00731    0.00198    0.00220    0.00209
O4    4    0.407126   -0.026095    0.681508    11.00000    0.01019    0.01267 =
         0.01084   -0.00165    0.00364   -0.00005
O5    4    0.421061    0.226045    0.876648    11.00000    0.01039    0.01254 =
         0.01573   -0.00357    0.00096   -0.00298
S1    5    0.375386    0.064613    0.833985    11.00000    0.00655    0.01131 =
         0.00803   -0.00044    0.00124   -0.00037
HKLF 4

REM  cyg150s in P2(1)/c
REM R1 =  0.0412 for    1864 Fo > 4sig(Fo)  and  0.0791 for all    2709 data
REM    127 parameters refined using      0 restraints

END

WGHT      0.0316      0.2230

REM Highest difference peak  0.508,  deepest hole -0.530,  1-sigma level  0.115
Q1    1   0.2979 -0.0411  0.9665  11.00000  0.05    0.51
Q2    1   0.3238  0.0929  0.7973  11.00000  0.05    0.51
Q3    1   0.1861  0.3541  0.8774  11.00000  0.05    0.45
Q4    1   0.1336  0.0324  0.7300  11.00000  0.05    0.43
Q5    1   0.1979  0.3191  0.6865  11.00000  0.05    0.41
;
_shelx_res_checksum              79077
_shelx_hkl_file
;
   0   0   1   -1.33    0.20
   0   0  -1   -1.25    0.11
   0   0  -1   -1.23    0.20
   0   0  -1   -1.18    0.17
   0   0  -1   -1.07    0.18
   0   0   1   -1.40    0.21
   0   0   1   -1.16    0.21
   0   0   1   -0.84    0.23
   0   0  -1   -0.85    0.35
   0   0  -2  808.45   28.57
   0   0  -2  793.34   28.55
   0   0  -2  851.92   28.23
   0   0   2  829.41   28.85
   0   0   2  851.20   28.62
   0   0   2  854.94   28.64
   0   0   2  837.20   28.50
   0   0  -2  879.58   28.92
   0   0  -2  864.08   28.52
   0   0   3    0.64    0.65
   0   0  -3    0.01    0.57
   0   0  -3   -0.43    0.90
   0   0  -3    0.69    0.98
   0   0  -3   -0.18    0.73
   0   0   3   -1.09    1.19
   0   0   3    0.25    0.85
   0   0   3    1.43    0.95
   0   0  -4   49.62    2.59
   0   0  -4   49.01    3.15
   0   0  -4   44.60    3.06
   0   0  -4   54.42    3.05
   0   0   4   47.97    3.49
   0   0   4   51.22    3.21
   0   0  -5    0.46    1.45
   0   0   5   -1.25    1.17
   0   0  -5   -1.33    1.33
   0   0  -5   -0.88    0.73
   0   0  -6  156.68    7.75
   0   0   6  141.50    7.11
   0   0  -6  150.11    6.09
   0   0  -6  145.40    7.63
   0   0   7   -0.35    1.27
   0   0  -7   -0.09    1.36
   0   0  -7    0.63    1.37
   0   0  -8    6.11    2.60
   0   0   8    7.19    2.23
   0   0  -8   12.31    3.08
   0   0  -9    2.45    2.42
   0   0  -9    1.98    2.40
   0   0 -10   28.48    4.75
   0   0 -10   26.46    5.00
   0   1   0   -0.10    0.13
   0   1   0   -0.26    0.27
   0  -1   0   -0.08    0.20
   0  -1   0   -0.05    0.10
   0  -1   0   -0.03    0.20
   0  -1   0   -0.33    0.13
   0   1   1   15.50    1.02
   0   1  -1   15.27    1.06
   0   1  -1   15.89    1.36
   0   1   1   17.12    1.11
   0   1   1   15.65    0.78
   0   1   1   16.78    1.15
   0   1  -1   16.01    1.13
   0  -1   1   15.26    1.09
   0  -1   1   17.34    1.12
   0  -1  -1   14.45    1.01
   0  -1  -1   15.44    1.01
   0  -1  -1   16.84    1.25
   0   1   2  159.75    6.12
   0   1  -2  163.78    6.37
   0   1   2  151.48    6.21
   0   1   2  155.89    6.07
   0   1  -2  163.54    6.40
   0   1  -2  144.88    6.10
   0   1  -2  157.10    6.17
   0   1   2  154.47    5.66
   0  -1  -2  158.75    6.26
   0  -1   2  162.91    6.17
   0  -1  -2  153.49    6.13
   0  -1   2  158.83    5.55
   0  -1   2  155.27    6.11
   0  -1   2  147.88    6.36
   0  -1  -2  150.77    6.14
   0   1   3   35.58    2.00
   0   1   3   37.71    2.43
   0   1   3   30.27    2.41
   0   1  -3   34.19    2.32
   0   1   3   31.89    2.26
   0   1  -3   34.85    2.42
   0   1  -3   36.62    2.47
   0  -1   3   36.42    1.69
   0  -1   3   36.24    2.42
   0  -1  -3   34.06    2.51
   0  -1  -3   32.60    2.43
   0  -1   3   31.66    2.60
   0  -1   3   36.05    2.32
   0   1  -4   40.83    2.78
   0   1  -4   36.09    2.68
   0   1   4   36.54    3.53
   0   1   4   34.18    2.32
   0   1  -4   36.81    1.78
   0  -1  -4   33.91    3.07
   0  -1  -4   36.31    2.63
   0  -1  -4   35.72    3.19
   0  -1   4   33.05    2.92
   0   1  -5    1.55    1.58
   0   1  -5    3.27    1.70
   0   1   5    2.35    1.40
   0   1   5   -1.44    1.69
   0  -1  -5    4.65    1.47
   0  -1  -5    5.04    1.24
   0  -1   5    5.99    1.91
   0  -1  -5    4.61    1.82
   0  -1  -5    2.62    1.70
   0   1  -6    4.23    1.58
   0   1   6   -0.33    2.10
   0   1   6    3.07    1.45
   0   1  -6    6.16    1.78
   0  -1   6    5.99    2.01
   0  -1  -6    3.21    1.92
   0  -1  -6    1.10    1.46
   0  -1  -6    3.75    1.52
   0   1  -7    1.41    1.45
   0   1  -7    0.47    1.23
   0   1   7    2.02    1.41
   0  -1  -7    1.17    1.56
   0  -1  -7    2.41    1.35
   0  -1   7    1.93    1.84
   0  -1  -7    2.93    1.68
   0   1  -8   13.04    3.24
   0   1  -8    5.11    2.26
   0  -1  -8   11.11    2.93
   0  -1  -8    9.25    2.79
   0  -1   8   10.91    2.91
   0   1  -9   -2.99    1.93
   0   1  -9   -1.67    2.01
   0  -1  -9   -3.45    2.01
   0  -1  -9   -2.67    1.90
   0   1 -10   -1.41    2.21
   0   1 -10    0.71    1.89
   0  -1 -10   -2.00    2.37
   0  -1 -10    4.85    2.95
   0   2   0   41.85    2.37
   0   2   0   39.69    2.27
   0  -2   0   39.81    2.30
   0  -2   0   41.56    2.22
   0  -2   0   38.10    2.19
   0  -2   0   40.24    2.25
   0  -2   0   36.55    2.17
   0  -2   0   40.24    2.18
   0   2   1  122.16    5.38
   0   2   1  131.15    5.07
   0   2  -1  128.56    5.20
   0   2   1  126.95    5.24
   0   2  -1  119.51    5.21
   0   2   1  132.25    5.13
   0   2  -1  140.74    5.71
   0   2  -1  126.84    5.29
   0   2   1  133.42    5.28
   0  -2  -1  144.83    5.55
   0  -2   1  136.84    5.26
   0  -2   1  129.06    5.63
   0  -2  -1  134.24    5.04
   0  -2   1  136.12    5.26
   0  -2  -1  126.49    5.21
   0  -2   1  132.05    5.28
   0  -2  -1  131.86    5.06
   0  -2  -1  126.69    5.21
   0   2   2   22.70    2.05
   0   2  -2   19.73    1.86
   0   2  -2   21.84    2.50
   0   2   2   22.70    1.26
   0   2  -2   22.94    2.06
   0   2   2   24.31    2.07
   0   2  -2   20.33    1.91
   0   2   2   24.68    2.07
   0  -2  -2   21.99    1.87
   0  -2  -2   22.56    1.77
   0  -2  -2   23.11    2.27
   0  -2   2   19.67    1.90
   0  -2   2   24.10    1.86
   0  -2   2   20.91    2.42
   0  -2  -2   22.84    1.99
   0  -2  -2   20.08    1.17
   0   2  -3    9.71    1.51
   0   2   3    9.40    1.56
   0   2   3   11.12    0.84
   0   2   3   11.40    1.09
   0   2  -3    9.21    1.63
   0  -2   3    7.43    1.89
   0  -2  -3    9.34    1.56
   0  -2  -3   10.66    1.57
   0  -2   3   11.09    1.14
   0   2  -4   31.35    2.96
   0   2   4   30.55    2.01
   0   2   4   32.27    1.64
   0   2  -4   25.45    2.68
   0   2   4   33.46    3.43
   0  -2   4   28.78    3.10
   0  -2  -4   29.58    3.11
   0  -2   4   30.11    1.64
   0  -2  -4   31.90    3.08
   0   2   5   74.40    3.74
   0   2   5   71.24    5.04
   0   2  -5   74.43    4.57
   0   2   5   81.94    3.35
   0   2  -5   73.46    4.53
   0  -2  -5   77.73    4.64
   0  -2   5   65.46    4.89
   0  -2  -5   76.62    4.88
   0  -2  -5   68.56    4.82
   0   2   6   14.62    1.88
   0   2   6   19.51    3.44
   0   2  -6   14.21    2.67
   0   2  -6   20.43    2.91
   0  -2   6   13.00    2.81
   0  -2  -6   16.76    2.98
   0  -2  -6   19.42    3.04
   0  -2  -6   19.65    2.87
   0   2  -7    3.47    2.01
   0   2   7    7.50    2.38
   0   2  -7    7.28    2.17
   0  -2  -7    8.26    2.27
   0  -2   7    9.86    2.67
   0  -2  -7   10.92    2.81
   0  -2  -7   14.21    2.99
   0   2  -8   11.41    2.63
   0   2  -8   10.86    2.95
   0  -2  -8    6.89    2.81
   0  -2   8   15.15    3.24
   0  -2  -8   12.24    3.00
   0   2  -9   10.33    3.19
   0   2  -9   10.20    2.90
   0  -2  -9   14.90    3.78
   0  -2  -9    5.67    2.96
   0  -2   9    9.13    3.22
   0   2 -10   -2.90    2.44
   0   2 -10    2.65    2.24
   0  -2 -10    1.68    2.63
   0  -2 -10    3.07    2.43
   0   3   0   -0.02    0.77
   0   3   0   -0.66    1.07
   0  -3   0   -1.51    0.71
   0  -3   0   -1.07    0.95
   0  -3   0    0.47    0.70
   0  -3   0   -1.31    1.18
   0  -3   0   -0.04    0.59
   0  -3   0   -0.94    0.88
   0   3   1   14.53    1.72
   0   3   1   15.67    1.83
   0   3   1   17.42    1.87
   0   3  -1   17.49    1.75
   0   3   1   15.14    1.51
   0   3  -1   14.86    1.76
   0   3  -1   16.73    2.32
   0   3  -1   15.65    1.89
   0   3   1   17.81    2.10
   0  -3  -1   17.15    1.56
   0  -3   1   14.77    2.03
   0  -3  -1   15.95    1.86
   0  -3   1   17.14    1.78
   0  -3  -1   15.62    1.77
   0  -3   1   14.31    1.79
   0  -3  -1   11.46    1.52
   0  -3   1   17.98    1.85
   0  -3  -1   16.50    2.01
   0   3   2   23.27    2.43
   0   3   2   24.94    1.86
   0   3  -2   24.33    2.35
   0   3   2   21.05    2.10
   0   3  -2   22.87    2.29
   0   3  -2   21.92    2.14
   0  -3  -2   23.13    1.60
   0  -3   2   18.99    2.66
   0  -3   2   23.12    2.20
   0  -3   2   24.05    2.32
   0  -3  -2   23.68    1.91
   0  -3  -2   23.42    2.29
   0  -3  -2   25.56    2.42
   0   3  -3    2.62    1.07
   0   3   3   -0.76    0.97
   0   3  -3    2.80    1.29
   0   3  -3    0.58    1.12
   0  -3   3    0.84    1.67
   0  -3  -3   -0.16    1.12
   0  -3  -3    2.83    1.13
   0   3  -4   18.29    2.56
   0   3   4   24.64    1.68
   0   3  -4   21.45    2.56
   0   3  -4   19.91    2.49
   0   3   4   20.79    2.82
   0  -3  -4   23.34    2.94
   0  -3  -4   20.88    2.75
   0  -3   4   23.40    1.72
   0  -3   4   19.48    3.25
   0   3   5    4.09    1.03
   0   3   5    2.37    1.85
   0   3  -5    2.73    1.49
   0   3  -5    4.63    1.58
   0   3  -5    0.79    1.65
   0  -3   5    3.19    0.77
   0  -3  -5    3.36    1.99
   0  -3   5   -0.31    1.40
   0  -3  -5    0.31    1.59
   0   3  -6    1.70    1.43
   0   3   6    0.74    0.81
   0   3  -6    0.73    1.68
   0   3  -6   -0.38    1.57
   0   3   6    1.77    1.92
   0  -3  -6    0.46    1.93
   0  -3  -6   -1.99    1.62
   0  -3  -6    2.54    1.88
   0  -3   6   -0.66    1.91
   0   3  -7   53.90    5.34
   0   3  -7   54.16    4.39
   0   3  -7   53.73    5.19
   0   3   7   52.42    5.67
   0  -3  -7   60.73    5.81
   0  -3  -7   51.69    5.50
   0  -3   7   56.55    5.91
   0  -3  -7   56.24    4.86
   0   3  -8    2.48    2.26
   0   3  -8    9.44    2.56
   0   3  -8    3.73    2.36
   0  -3  -8   12.10    3.25
   0  -3  -8    8.90    3.00
   0  -3   8   13.26    3.48
   0   3  -9   15.11    3.66
   0   3  -9   12.10    3.21
   0   3  -9   15.26    3.13
   0  -3   9   13.59    3.67
   0  -3  -9   10.75    3.06
   0  -3   9    6.54    3.59
   0  -3  -9    8.58    3.37
   0   4   0   54.88    2.90
   0   4   0   56.77    3.64
   0  -4   0   53.79    3.26
   0  -4   0   55.17    3.61
   0  -4   0   57.86    3.34
   0  -4   0   55.06    3.43
   0   4  -1   25.59    2.52
   0   4   1   28.12    2.07
   0   4   1   28.42    2.47
   0   4   1   32.81    2.61
   0   4  -1   26.19    2.79
   0   4  -1   28.01    2.55
   0  -4   1   27.87    3.09
   0  -4  -1   28.88    2.68
   0  -4  -1   28.39    2.72
   0  -4   1   29.94    2.33
   0  -4  -1   30.64    2.51
   0   4   2    2.44    1.25
   0   4  -2    3.21    1.37
   0   4  -2    1.40    1.29
   0   4  -2    0.92    1.24
   0   4   2    0.49    1.08
   0   4   2    3.81    1.24
   0  -4   2    0.84    1.42
   0  -4  -2    2.54    1.11
   0  -4  -2    4.67    1.48
   0  -4  -2    0.61    0.87
   0  -4  -2    1.41    0.94
   0   4   3   30.31    2.29
   0   4  -3   29.01    2.91
   0   4   3   29.88    2.93
   0   4  -3   26.82    2.95
   0   4  -3   26.44    2.94
   0  -4   3   27.28    3.52
   0  -4  -3   27.58    1.81
   0  -4  -3   26.84    3.14
   0  -4  -3   27.36    2.95
   0   4  -4    3.14    1.61
   0   4  -4    7.96    1.83
   0   4  -4    2.20    1.63
   0   4   4    4.57    1.78
   0  -4   4    6.42    1.39
   0  -4  -4    7.15    1.97
   0  -4  -4    5.41    2.03
   0  -4   4    1.85    2.25
   0   4  -5    0.47    1.21
   0   4   5    1.52    0.75
   0   4   5    3.72    1.80
   0   4  -5   -2.37    1.27
   0   4  -5    0.92    1.64
   0  -4   5   -0.92    2.12
   0  -4  -5    1.54    1.93
   0  -4   5    2.09    1.51
   0  -4  -5    0.85    1.77
   0   4   6    1.02    1.53
   0   4  -6    3.64    1.91
   0   4  -6    3.36    1.67
   0   4  -6    3.57    2.17
   0  -4  -6    0.76    1.71
   0  -4   6    0.94    2.30
   0  -4  -6    5.94    2.27
   0   4  -7    3.27    1.89
   0   4  -7    5.02    2.11
   0   4   7   14.13    3.19
   0   4  -7    2.92    2.17
   0  -4  -7    8.15    2.90
   0  -4  -7    9.20    2.66
   0  -4   7    9.68    3.19
   0  -4  -7    2.34    1.80
   0   4  -8    1.51    2.26
   0   4  -8    0.74    1.97
   0   4   8    0.85    1.58
   0   4  -8   -1.33    1.65
   0  -4   8    0.77    2.94
   0  -4   8   -2.42    2.08
   0  -4  -8    0.75    1.75
   0  -4  -8   -2.86    1.04
   0   4  -9    3.69    2.67
   0   4  -9    4.63    2.65
   0   4  -9   -0.38    2.23
   0  -4  -9    9.36    3.13
   0  -4   9    3.88    3.10
   0  -4  -9    3.11    2.30
   0  -4   9   -1.31    3.11
   0   5   0    0.30    1.56
   0   5   0   -1.12    0.76
   0  -5   0    1.04    1.73
   0  -5   0   -1.15    1.38
   0  -5   0    0.19    1.24
   0   5   1   -0.51    1.06
   0   5  -1   -0.23    1.06
   0   5   1   -0.07    0.93
   0  -5  -1    2.04    1.46
   0  -5   1    1.96    1.49
   0  -5   1   -1.18    1.17
   0  -5   1   -0.49    1.87
   0  -5  -1   -0.45    1.25
   0  -5  -1    0.23    1.07
   0   5   2  120.43    6.41
   0   5  -2  125.77    6.19
   0   5   2  119.65    5.61
   0   5  -2  113.58    6.13
   0   5  -2  113.91    6.13
   0  -5  -2  126.94    6.19
   0  -5   2  118.74    6.86
   0  -5  -2  122.40    6.31
   0  -5  -2  116.99    5.69
   0   5   3    5.54    1.55
   0   5   3    3.79    1.64
   0   5  -3    1.96    1.77
   0   5   3    3.47    1.70
   0   5  -3    8.96    2.12
   0   5  -3    5.34    1.63
   0  -5  -3    6.90    1.36
   0  -5   3    4.88    2.11
   0  -5  -3    6.63    2.10
   0  -5  -3    8.61    2.14
   0   5  -4   74.54    4.91
   0   5  -4   70.00    4.87
   0   5  -4   70.42    4.68
   0   5   4   70.45    3.70
   0   5   4   63.54    4.42
   0  -5   4   58.01    6.04
   0  -5  -4   63.63    4.55
   0  -5  -4   64.50    4.83
   0   5   5    0.44    0.69
   0   5  -5   -0.01    1.24
   0   5  -5    1.22    1.77
   0   5   5    0.32    1.55
   0   5  -5    4.19    1.92
   0  -5  -5    1.03    1.82
   0  -5  -5    1.77    1.82
   0  -5   5   -2.55    2.10
   0   5  -6    3.28    1.93
   0   5   6    6.70    2.41
   0   5  -6    1.03    1.33
   0   5  -6    4.76    2.29
   0  -5  -6    4.54    2.36
   0  -5   6    3.01    2.18
   0  -5  -6    5.17    2.50
   0   5  -7    1.35    1.65
   0   5   7    2.76    2.07
   0   5  -7    6.41    2.30
   0   5  -7    2.81    2.23
   0  -5  -7   -1.57    2.40
   0  -5   7    2.55    2.13
   0  -5  -7   -0.61    1.54
   0  -5  -7    6.47    2.52
   0   5  -8   25.65    4.28
   0   5  -8   26.21    4.47
   0   5   8   29.97    4.70
   0   5  -8   29.42    4.27
   0  -5  -8   23.44    4.42
   0  -5  -8   25.34    4.67
   0  -5  -8   25.63    4.35
   0  -5   8   24.53    4.65
   0  -5   8   23.05    4.87
   0   5  -9    7.95    3.27
   0   5  -9    3.49    2.80
   0  -5   9    6.51    3.58
   0  -5   9    2.09    4.08
   0  -5  -9    7.02    3.20
   0  -5  -9    8.19    2.89
   0   6   0    0.71    1.29
   0   6   0    0.26    1.06
   0  -6   0   -0.43    1.12
   0  -6   0    0.98    1.21
   0  -6   0    1.65    1.90
   0   6   1    0.66    1.81
   0   6  -1    0.94    1.80
   0   6   1    2.23    1.13
   0  -6  -1    1.92    1.75
   0  -6   1    0.02    1.17
   0  -6  -1    1.12    1.25
   0  -6   1    0.59    1.67
   0  -6  -1    0.02    1.57
   0  -6   1   -2.27    1.28
   0  -6   1    2.71    1.80
   0   6  -2   -0.89    1.71
   0   6   2    0.27    1.28
   0   6   2   -1.28    1.16
   0  -6   2   -0.02    1.78
   0  -6  -2   -2.23    1.35
   0  -6   2   -1.70    0.92
   0  -6  -2    3.22    1.49
   0  -6  -2    1.15    1.30
   0  -6   2    1.88    1.63
   0   6   3    7.19    1.95
   0   6   3    6.69    2.16
   0   6  -3   10.21    2.30
   0   6  -3    5.73    2.16
   0   6  -3    7.50    1.97
   0  -6  -3    4.98    2.21
   0  -6  -3    7.11    1.62
   0  -6   3    5.37    2.41
   0  -6  -3    5.24    2.13
   0   6   4   -0.77    1.41
   0   6  -4   -2.35    1.48
   0   6  -4    2.03    1.99
   0   6  -4   -0.64    1.51
   0  -6  -4    1.97    1.51
   0  -6  -4    0.48    1.70
   0  -6   4    2.45    2.63
   0  -6  -4   -0.10    1.07
   0   6  -5    6.49    2.44
   0   6   5    5.68    2.17
   0   6  -5    6.76    2.49
   0   6  -5    6.60    2.47
   0  -6   5    9.76    3.46
   0  -6  -5    8.11    2.22
   0  -6  -5    4.79    2.00
   0   6   6   -0.70    1.91
   0   6  -6   -0.85    1.38
   0   6  -6    0.51    2.07
   0   6  -6    2.27    2.27
   0  -6  -6    1.03    1.77
   0  -6  -6    2.54    2.31
   0  -6   6    0.29    2.66
   0   6  -7    1.14    2.28
   0   6   7   -1.99    1.58
   0   6  -7   -3.43    1.86
   0   6  -7    3.11    2.05
   0  -6  -7    3.99    2.70
   0  -6   7   -0.51    2.89
   0  -6   7   -0.55    3.33
   0  -6  -7   -1.16    3.03
   0  -6  -7    2.01    2.15
   0   6   8   -0.89    1.78
   0   6  -8    4.33    2.24
   0   6  -8    4.69    2.95
   0   6  -8    2.37    2.52
   0  -6   8    6.20    3.60
   0  -6   8    0.44    2.71
   0  -6  -8   -0.85    2.55
   0  -6  -8    0.80    2.54
   0  -6  -8   -2.57    3.31
   0   7   0   -0.77    1.01
   0   7   0   -1.00    1.79
   0  -7   0   -1.23    1.86
   0  -7   0   -1.83    1.53
   0  -7   0    2.20    1.89
   0   7   1   32.74    2.76
   0   7  -1   32.49    2.70
   0   7  -1   31.88    4.07
   0   7   1   34.08    4.25
   0  -7   1   31.99    3.68
   0  -7  -1   35.35    4.08
   0  -7  -1   34.71    4.07
   0  -7   1   28.78    4.45
   0  -7  -1   32.91    3.98
   0  -7   1   35.28    4.05
   0   7   2    1.27    1.33
   0   7   2   -0.30    1.85
   0   7  -2   -1.14    1.57
   0  -7   2   -0.83    1.50
   0  -7  -2    1.90    1.73
   0  -7   2   -1.22    2.42
   0  -7   2    0.82    1.72
   0  -7  -2    1.82    1.76
   0  -7   2   -1.43    1.69
   0  -7  -2   -0.98    1.63
   0   7   3   63.43    4.25
   0   7  -3   58.08    4.61
   0   7  -3   64.62    4.82
   0   7  -3   69.56    5.13
   0   7   3   67.31    5.24
   0  -7  -3   64.63    5.20
   0  -7   3   69.36    7.08
   0  -7  -3   63.67    4.82
   0  -7   3   51.99    5.89
   0  -7   3   63.98    4.76
   0  -7   3   66.76    5.03
   0  -7  -3   65.92    4.25
   0   7   4    1.33    1.70
   0   7  -4    0.80    1.48
   0   7  -4    0.67    2.03
   0   7  -4   -0.61    1.22
   0  -7  -4    1.63    2.04
   0  -7   4    2.84    2.93
   0  -7  -4   -1.97    1.14
   0  -7   4   -4.36    2.33
   0   7  -5    8.58    2.80
   0   7  -5    1.97    2.15
   0   7   5    3.29    2.09
   0   7  -5    5.39    2.15
   0  -7  -5    3.56    2.35
   0  -7   5    4.90    3.45
   0  -7   5    3.25    2.39
   0  -7  -5   11.48    2.80
   0   7  -6    2.39    2.07
   0   7  -6    2.38    2.35
   0   7   6   -1.94    1.77
   0   7  -6   -4.42    1.69
   0  -7   6   -3.74    2.60
   0  -7   6   -3.48    2.13
   0  -7  -6    1.14    2.40
   0  -7  -6    4.43    2.65
   0   7  -7   16.89    3.52
   0   7  -7    9.60    3.36
   0   7   7   10.11    3.00
   0   7  -7   18.24    4.00
   0  -7  -7    7.75    2.93
   0  -7   7    6.09    3.65
   0  -7   7   13.95    3.94
   0  -7  -7   15.99    4.08
   0  -7  -7   13.72    4.78
   0   7  -8    2.71    2.73
   0  -7  -8    1.77    3.77
   0  -7   8   -6.73    2.10
   0  -7  -8    1.14    2.72
   0  -7   8    6.15    3.58
   0  -7  -8    3.33    2.93
   0   8   0    2.57    1.85
   0   8   0    0.58    1.08
   0  -8   0   -0.19    1.26
   0  -8   0   -0.07    1.39
   0  -8   0    0.00    2.26
   0   8  -1    4.99    1.61
   0   8   1   -3.00    1.74
   0   8  -1    1.25    2.05
   0   8   1    0.32    1.14
   0  -8   1    1.02    1.91
   0  -8  -1   -3.18    1.49
   0  -8   1    0.55    1.65
   0  -8   1    0.94    2.64
   0  -8  -1    0.49    1.84
   0  -8  -1    1.34    2.04
   0   8   2    0.21    1.37
   0   8   2   -0.75    1.37
   0   8  -2    1.25    2.21
   0  -8  -2    1.99    1.88
   0  -8   2    2.93    2.47
   0  -8   2    0.52    1.48
   0  -8  -2   -0.33    1.80
   0  -8  -2    1.44    1.63
   0  -8   2    0.86    1.39
   0   8   3    0.06    1.43
   0   8  -3   -1.96    1.38
   0   8   3    0.28    1.48
   0  -8   3   -3.18    2.56
   0  -8   3   -2.77    1.43
   0  -8  -3   -0.63    1.26
   0  -8   3   -0.02    1.67
   0  -8  -3   -4.18    1.54
   0   8  -4    1.20    1.75
   0   8   4   -0.02    1.56
   0   8  -4   -2.32    1.20
   0   8  -4    0.81    2.43
   0  -8  -4    1.33    2.27
   0  -8  -4   -1.04    1.96
   0  -8   4    0.86    1.56
   0  -8   4    3.16    2.78
   0   8  -5    3.66    2.09
   0   8  -5    5.81    2.45
   0   8  -5    1.59    2.63
   0  -8   5    0.08    2.29
   0  -8   5    6.50    3.55
   0  -8  -5    1.15    2.16
   0  -8  -5    2.48    2.49
   0   8  -6   15.17    3.77
   0   8  -6   13.26    4.02
   0   8  -6   13.57    3.70
   0  -8  -6   16.32    3.95
   0  -8  -6   14.19    3.64
   0  -8   6    8.77    4.58
   0  -8   6   14.17    4.26
   0   8  -7    2.41    2.14
   0  -8  -7   -2.97    3.87
   0  -8  -7   -1.72    2.17
   0  -8  -7   -2.34    2.31
   0  -8   7   -4.44    3.38
   0   9   0   -3.33    1.90
   0  -9   0   -2.22    2.12
   0  -9   0   -1.91    1.80
   0  -9   0    0.39    2.02
   0   9  -1   -0.84    2.15
   0   9   1    2.31    2.48
   0  -9   1    0.99    2.08
   0  -9   1   -3.64    2.39
   0  -9  -1    3.93    2.45
   0  -9  -1   -0.13    1.96
   0  -9   1    2.36    2.25
   0  -9  -1    0.71    2.07
   0   9  -2   22.15    4.04
   0   9   2   17.64    3.99
   0  -9   2   16.76    3.22
   0  -9  -2   14.18    3.41
   0  -9   2   16.01    3.18
   0  -9  -2   11.97    2.97
   0  -9  -2   19.37    3.50
   0  -9   2   21.14    4.40
   0   9   3    3.29    2.57
   0   9  -3    0.01    2.36
   0  -9   3   -0.05    1.34
   0  -9  -3    1.18    1.86
   0  -9  -3   -0.06    2.01
   0  -9   3   -1.48    2.32
   0   9  -4    2.40    2.81
   0  -9  -4    3.70    2.82
   0  -9   4    1.47    3.93
   0  -9   4    6.65    2.80
   0  -9  -4    3.37    2.75
   0   9  -5    3.88    3.06
   0  -9  -5    4.27    2.53
   0  -9   5    5.02    2.63
   0  -9  -5    7.25    3.21
   0  -9   5    2.19    4.02
   0   9  -6    5.99    3.55
   0   9  -6   -0.22    2.81
   0  -9  -6   13.74    4.08
   0  -9   6    4.10    3.07
   0  -9  -6    7.97    3.36
   0  -9   6    7.14    4.16
   0  10   0   58.47    6.68
   0 -10   0   62.91    6.80
   0 -10   0   54.82    6.07
   0 -10   0   49.61    5.72
   0  10  -1   -0.04    2.52
   0  10   1    4.10    3.04
   0 -10  -1    3.70    2.49
   0 -10   1    4.11    3.15
   0 -10   1    1.68    2.48
   0 -10  -1   -0.37    2.15
   0 -10  -1    4.64    2.68
   0  10   2    1.00    2.45
   0  10  -2   -0.68    2.63
   0 -10  -2   -0.29    2.16
   0 -10   2   -0.38    3.25
   0 -10  -2   -1.92    1.85
   0 -10   2    7.85    3.04
   0  10  -3   -5.45    2.30
   0 -10   3   -1.82    2.26
   0 -10   3    0.36    2.60
   0 -10  -3    0.11    1.82
   0 -10  -3   -0.27    2.33
   0  10  -4   19.80    4.74
   0 -10  -4   16.70    4.26
   0 -10   4   16.90    3.95
   0 -10   4    6.41    4.47
   0 -10  -4   22.79    4.47
   0  11   0   -1.01    2.42
   0 -11   0   -0.86    2.88
   0 -11   0   -0.54    2.22
   0  11  -1    0.94    2.93
   0  11   1   -1.64    2.57
   0 -11   1    2.07    2.35
   0 -11   1    2.57    2.53
   0 -11  -1    4.39    2.57
   0  11   2    6.28    3.34
   0  11  -2    7.21    3.62
   0 -11   2    1.28    3.38
   0 -11  -2    4.63    3.14
   0 -11   2    4.94    2.88
   1   0 -10   18.07    4.06
   1   0 -10   18.33    4.31
   1   0  -9   -1.07    1.40
   1   0  -9   -2.11    1.30
   1   0  -8   25.43    3.77
   1   0  -8   21.95    3.77
  -1   0   8   23.88    3.24
   1   0  -7   -2.14    1.41
  -1   0   7    1.83    1.44
  -1   0   7   -1.13    1.48
   1   0  -7    0.71    1.75
  -1   0   6   15.82    2.42
   1   0  -6   13.93    2.66
   1   0  -6   15.67    2.47
   1   0  -5   -1.83    1.17
  -1   0   5    1.23    1.34
   1   0  -5    1.81    1.27
   1   0  -5   -0.55    0.91
   1   0  -5   -0.17    0.68
   1   0  -4   33.74    1.85
   1   0  -4   35.12    2.51
  -1   0   4   32.09    2.35
   1   0  -4   31.52    2.82
   1   0  -4   32.36    2.29
   1   0  -3    0.90    0.72
   1   0  -3   -0.43    0.77
  -1   0   3    0.32    0.86
  -1   0   3   -0.88    0.76
  -1   0   3    0.66    0.74
   1   0  -3   -0.21    0.47
   1   0  -3    1.40    1.27
   1   0  -3    0.11    0.63
   1   0  -2   24.63    1.84
   1   0  -2   23.79    1.67
  -1   0   2   24.61    1.57
  -1   0   2   27.02    1.64
   1   0  -2   23.55    1.67
  -1   0   2   24.02    1.63
   1   0  -2   25.69    1.62
   1   0  -1   -1.54    0.12
   1   0  -1   -1.41    0.15
  -1   0   1   -0.80    0.26
   1   0  -1   -1.52    0.21
   1   0  -1   -1.46    0.19
  -1   0   1   -0.98    0.20
  -1   0  -1   -0.04    0.19
   1   0   1   -0.10    0.20
  -1   0  -1   -0.08    0.26
  -1   0  -1    0.33    0.49
   1   0   1   -0.59    0.35
  -1   0  -1   -0.02    0.19
   1   0   1   -0.66    0.30
   1   0   1    0.16    0.35
  -1   0  -1    0.10    0.28
   1   0   1   -0.27    0.21
   1   0   2   25.73    1.89
   1   0   2   23.59    1.65
  -1   0  -2   26.81    1.80
   1   0   2   20.96    1.83
   1   0   2   26.94    1.74
  -1   0  -2   25.16    1.68
  -1   0  -2   24.38    1.87
   1   0   2   24.15    1.84
  -1   0  -2   26.23    1.94
  -1   0  -2   23.76    1.71
  -1   0  -3    0.79    0.80
   1   0   3   -0.62    0.60
  -1   0  -3   -0.05    0.72
  -1   0  -3    0.54    1.02
   1   0   3   -0.11    0.63
   1   0   3   -0.45    0.83
  -1   0  -3   -0.81    0.67
   1   0   3    0.79    0.98
   1   0   4   27.02    2.97
  -1   0  -4   26.54    2.08
   1   0   4   31.51    2.58
  -1   0  -4   29.06    2.76
  -1   0  -4   25.34    2.52
  -1   0  -4   25.70    2.66
  -1   0  -5   -1.06    0.92
   1   0   5   -0.48    1.41
   1   0   5   -2.13    1.21
  -1   0  -5    1.17    1.58
  -1   0  -5   -1.13    1.29
  -1   0  -6  145.51    7.50
   1   0   6  145.33    8.07
  -1   0  -6  151.44    6.36
   1   0   6  144.67    7.28
  -1   0  -6  145.92    7.66
   1   0   7    0.11    1.44
  -1   0  -7    0.27    1.88
  -1   0  -7   -2.26    1.53
   1   0   8   18.19    3.11
  -1   0  -8   23.43    3.95
  -1   0  -8   21.38    3.50
  -1   0  -9   -2.08    2.09
  -1   0  -9    2.91    2.36
  -1   0 -10   -1.46    2.30
  -1   0 -10   -1.46    2.46
   1   1 -10   -2.32    2.14
   1   1 -10   -0.29    2.38
   1  -1 -10   -0.60    2.06
   1  -1 -10    0.51    1.66
   1   1  -9   -1.43    1.89
   1   1  -9   -1.00    2.05
   1  -1  -9    1.95    2.00
   1  -1  -9    1.54    1.78
   1   1  -8   -2.75    1.01
   1   1  -8    0.71    1.49
   1  -1  -8    0.61    1.58
  -1  -1   8   -0.95    1.98
   1  -1  -8    2.67    2.19
  -1  -1   8    1.88    1.79
   1   1  -7    4.48    2.10
  -1   1   7    1.49    1.40
   1   1  -7    3.62    1.95
  -1   1   7    5.10    1.48
  -1  -1   7    3.14    1.92
   1  -1  -7    0.83    1.16
   1  -1  -7    4.92    2.21
   1  -1  -7    2.17    1.98
   1   1  -6    0.44    1.22
   1   1  -6    2.38    1.80
  -1   1   6    0.03    1.06
   1  -1  -6    0.36    0.90
  -1  -1   6    1.78    1.66
   1  -1  -6    0.31    1.23
   1  -1  -6   -0.29    1.18
   1  -1  -6   -0.37    1.59
  -1   1   5    7.41    2.06
  -1   1   5    5.07    1.33
   1   1  -5    9.07    1.97
   1   1  -5    6.83    1.63
  -1  -1   5    5.16    1.87
   1  -1  -5    6.68    1.96
   1  -1  -5   11.29    1.78
   1  -1  -5    6.62    1.86
   1  -1  -5    7.72    1.31
   1   1  -4   -0.92    0.69
  -1   1   4    0.57    0.80
   1   1  -4    1.54    1.19
  -1   1   4    1.78    1.55
   1  -1  -4    0.35    1.15
   1  -1  -4    2.15    1.03
  -1  -1   4   -0.45    1.18
   1  -1  -4    1.64    0.73
   1   1  -3    3.69    1.15
   1   1  -3    4.12    1.20
  -1   1   3    3.16    1.36
  -1   1   3    1.62    0.92
  -1   1   3    3.07    0.72
   1   1  -3    2.82    1.04
  -1  -1   3    2.39    0.97
   1  -1  -3    3.04    0.64
  -1  -1   3    2.48    1.21
   1  -1  -3    1.09    0.95
   1  -1  -3    2.54    1.06
  -1  -1   3    2.99    1.13
   1  -1  -3    3.28    1.16
   1   1  -2   42.29    2.43
  -1   1   2   40.97    2.17
   1   1  -2   40.88    2.25
  -1   1   2   37.55    2.36
  -1   1   2   39.38    2.10
   1   1  -2   36.77    2.10
   1  -1  -2   39.92    2.23
  -1  -1   2   36.49    2.13
   1  -1  -2   36.96    2.22
  -1  -1   2   37.30    2.54
  -1  -1   2   38.43    1.44
  -1  -1   2   40.72    2.19
   1  -1  -2   42.48    2.45
  -1   1   1  249.59    8.79
  -1   1   1  244.55    8.79
  -1   1   1  248.83    8.47
  -1   1   1  248.35    8.78
   1   1  -1  266.24    9.25
   1  -1  -1  255.17    8.79
  -1  -1   1  257.28    8.88
  -1  -1   1  252.36    8.83
   1   1   0   -0.10    0.26
   1   1   0    0.86    0.42
  -1   1   0   -0.06    0.18
  -1   1   0    0.04    0.33
   1   1   0   -0.12    0.13
   1   1   0    0.14    0.19
   1   1   0   -0.09    0.21
   1  -1   0   -0.25    0.16
  -1  -1   0    0.49    0.35
   1  -1   0   -0.21    0.08
   1  -1   0   -0.16    0.19
  -1  -1   0    0.02    0.14
   1  -1   0    0.32    0.24
  -1  -1   0    0.04    0.15
  -1   1  -1  113.12    4.51
  -1   1  -1  103.56    4.22
   1   1   1  112.67    4.33
   1   1   1  109.05    4.36
  -1   1  -1  112.13    4.31
   1   1   1   95.72    4.25
  -1   1  -1  110.48    4.07
  -1   1  -1  111.53    4.30
   1   1   1  111.87    4.31
   1   1   1  113.06    4.13
   1  -1   1  113.94    4.28
   1  -1   1  106.24    4.52
  -1  -1  -1  107.60    4.27
  -1  -1  -1  117.91    4.43
  -1  -1  -1   88.31    4.02
   1  -1   1  114.35    4.21
   1  -1   1  114.64    4.27
  -1  -1  -1  112.85    4.33
  -1  -1  -1  107.90    4.28
  -1   1  -2   63.80    3.21
  -1   1  -2   58.19    2.68
   1   1   2   57.84    2.92
   1   1   2   55.77    2.73
  -1   1  -2   64.08    3.24
  -1   1  -2   56.06    2.95
   1   1   2   61.13    2.68
   1   1   2   61.49    3.31
  -1   1  -2   60.61    3.11
   1   1   2   63.99    3.03
   1  -1   2   57.10    3.31
  -1  -1  -2   66.41    3.14
  -1  -1  -2   63.85    3.06
  -1  -1  -2   59.08    3.16
   1  -1   2   56.19    3.02
   1  -1   2   61.57    2.71
  -1  -1  -2   62.05    3.31
   1  -1   2   60.81    2.97
   1  -1   2   55.81    3.34
  -1   1  -3   80.46    4.25
  -1   1  -3   80.08    3.99
  -1   1  -3   80.46    4.11
   1   1   3   77.10    4.32
   1   1   3   80.61    3.75
   1   1   3   82.30    4.03
  -1   1  -3   83.60    3.46
  -1  -1  -3   74.61    4.10
   1  -1   3   84.09    4.11
  -1  -1  -3   76.17    4.08
   1  -1   3   84.14    4.35
   1  -1   3   81.97    3.46
   1  -1   3   76.76    4.29
  -1  -1  -3   73.25    3.91
  -1   1  -4   10.68    1.91
   1   1   4   16.55    2.40
  -1   1  -4   12.52    1.32
  -1   1  -4    9.09    1.69
   1   1   4   11.84    1.69
  -1  -1  -4   11.50    2.04
   1  -1   4   10.77    1.33
   1  -1   4   11.71    2.14
  -1  -1  -4    9.01    1.92
   1  -1   4   11.03    2.12
  -1  -1  -4   11.01    1.85
   1   1   5    4.76    1.58
  -1   1  -5    5.97    1.07
   1   1   5    7.51    2.47
  -1   1  -5    2.45    1.33
  -1   1  -5    7.39    2.00
   1  -1   5    3.41    1.91
  -1  -1  -5    7.45    2.07
  -1  -1  -5    2.34    1.40
  -1  -1  -5    1.25    1.34
  -1   1  -6   -0.64    1.50
   1   1   6   -0.13    1.40
   1   1   6    0.16    1.53
  -1   1  -6    0.11    0.69
  -1   1  -6   -0.52    1.63
   1  -1   6    0.54    1.62
  -1  -1  -6    2.04    1.40
  -1  -1  -6    0.96    1.80
  -1  -1  -6   -1.78    1.59
   1   1   7    4.49    1.68
  -1   1  -7    0.88    1.71
  -1   1  -7    5.71    2.40
   1   1   7    5.08    2.21
  -1  -1  -7    2.27    2.04
  -1  -1  -7    4.22    2.24
   1  -1   7   -1.89    1.71
  -1  -1  -7   -0.32    1.24
  -1   1  -8    5.31    2.55
  -1   1  -8    3.98    2.35
  -1  -1  -8    7.85    2.50
   1  -1   8    3.53    2.16
  -1  -1  -8    7.77    2.77
  -1   1  -9    0.03    2.24
  -1   1  -9   -0.16    1.70
  -1  -1  -9    1.64    2.37
  -1  -1  -9    1.82    1.88
  -1   1 -10    1.42    2.55
  -1   1 -10   -1.11    1.85
  -1  -1 -10   -1.54    2.63
  -1  -1 -10    5.32    2.67
   1   2 -10   -1.27    2.58
   1   2 -10   -1.58    2.08
   1  -2 -10    0.13    2.64
   1  -2 -10   -0.15    2.60
   1   2  -9   39.60    5.20
   1   2  -9   50.57    5.83
  -1  -2   9   40.82    6.03
   1  -2  -9   50.96    6.09
   1  -2  -9   45.55    5.50
   1   2  -8   -2.04    1.60
   1   2  -8   -1.43    1.82
  -1  -2   8    3.17    2.20
   1  -2  -8    3.91    2.34
  -1  -2   8   -1.15    2.29
   1  -2  -8   -1.43    2.06
   1   2  -7    0.29    1.30
   1   2  -7   -0.04    1.19
   1  -2  -7    0.99    1.53
   1  -2  -7    0.36    1.61
   1  -2  -7    1.21    1.47
  -1  -2   7    1.08    1.67
  -1   2   6   27.51    2.00
  -1   2   6   27.41    1.57
  -1   2   6   27.85    1.54
   1   2  -6   27.54    3.47
  -1   2   6   30.88    4.08
   1   2  -6   28.08    3.47
   1  -2  -6   28.64    3.48
   1  -2  -6   26.80    3.16
  -1  -2   6   24.15    3.41
   1  -2  -6   25.81    3.38
  -1   2   5   70.54    2.94
   1   2  -5   67.35    4.45
  -1   2   5   73.02    3.25
  -1   2   5   61.59    4.66
  -1   2   5   70.74    2.73
   1   2  -5   69.91    4.33
   1  -2  -5   70.94    4.61
  -1  -2   5   67.78    4.79
   1  -2  -5   74.37    4.77
  -1   2   4    0.24    0.59
   1   2  -4    0.29    1.15
  -1   2   4    1.92    1.55
   1   2  -4   -0.91    0.78
  -1  -2   4    1.90    1.70
   1  -2  -4   -0.33    0.89
   1  -2  -4   -0.26    1.21
  -1   2   3  140.70    6.21
  -1   2   3  140.18    5.11
   1   2  -3  146.12    6.19
  -1   2   3  136.25    5.98
   1   2  -3  143.58    6.22
   1  -2  -3  150.99    6.33
   1  -2  -3  138.79    6.18
  -1  -2   3  145.24    5.18
  -1  -2   3  132.57    6.47
   1  -2  -3  139.22    6.06
  -1  -2   3  142.93    6.07
   1   2  -2    4.93    1.17
  -1   2   2    6.82    1.18
   1   2  -2    8.56    1.79
  -1   2   2    7.68    0.74
  -1   2   2    6.87    1.12
   1   2  -2    8.29    1.32
   1   2  -2    4.61    1.05
  -1   2   2    6.30    1.15
  -1  -2   2    6.33    1.71
   1  -2  -2    7.71    1.32
   1  -2  -2    6.33    0.45
  -1  -2   2    6.92    1.06
   1  -2  -2    8.35    1.23
  -1  -2   2    9.65    1.31
   1  -2  -2    5.05    1.09
   1  -2  -2    5.96    1.25
   1   2  -1   63.57    3.14
  -1   2   1   65.87    3.01
   1   2  -1   65.83    3.60
  -1   2   1   60.31    3.22
   1   2  -1   63.54    2.97
  -1   2   1   62.50    2.69
   1   2  -1   64.80    2.99
  -1   2   1   66.83    2.87
  -1   2   1   67.99    3.03
   1  -2  -1   61.04    3.01
  -1  -2   1   65.08    3.21
   1  -2  -1   64.57    2.97
   1  -2  -1   65.09    2.68
   1  -2  -1   62.88    2.88
   1  -2  -1   67.31    3.21
  -1  -2   1   66.91    3.02
  -1  -2   1   62.08    3.61
  -1  -2   1   62.04    3.02
  -1   2   0   54.88    2.73
   1   2   0   53.02    2.63
  -1   2   0   52.25    2.55
   1   2   0   55.67    2.83
   1   2   0   51.87    2.62
   1   2   0   49.16    2.70
   1  -2   0   52.62    2.81
  -1  -2   0   53.95    2.88
   1  -2   0   54.79    2.60
  -1  -2   0   52.02    2.55
   1  -2   0   51.19    2.67
  -1  -2   0   47.90    2.83
   1  -2   0   52.92    2.59
  -1  -2   0   49.61    2.61
   1   2   1  248.94    9.53
  -1   2  -1  261.53    9.37
   1   2   1  258.87    9.25
  -1   2  -1  243.18    9.19
  -1   2  -1  251.29    9.31
  -1   2  -1  272.50    9.87
   1   2   1  255.36    9.38
   1   2   1  255.77    9.30
   1   2   1  256.59    9.38
   1  -2   1  237.29    9.65
  -1  -2  -1  247.32    9.34
  -1  -2  -1  248.91    9.57
   1  -2   1  268.09    9.39
   1  -2   1  252.97    9.29
   1  -2   1  262.08    9.21
  -1  -2  -1  251.82    9.26
  -1  -2  -1  235.66    9.27
  -1  -2  -1  254.48    9.19
   1   2   2    4.33    1.30
  -1   2  -2    5.53    1.07
   1   2   2    5.72    1.33
  -1   2  -2    5.22    1.05
   1   2   2    6.20    0.93
   1   2   2    4.85    1.16
  -1   2  -2    3.31    0.93
  -1   2  -2    5.54    1.59
  -1   2  -2    5.33    1.36
   1   2   2    8.51    1.38
  -1  -2  -2    7.40    1.34
  -1  -2  -2    6.59    1.34
  -1  -2  -2    8.92    1.49
   1  -2   2    6.63    1.22
  -1  -2  -2    6.19    0.87
   1  -2   2    5.56    1.06
  -1  -2  -2    6.50    1.30
   1  -2   2    6.32    1.13
   1  -2   2    7.38    1.49
   1   2   3   39.43    2.03
  -1   2  -3   36.37    2.70
   1   2   3   34.44    2.14
  -1   2  -3   36.13    2.58
   1   2   3   35.53    2.67
  -1  -2  -3   35.20    2.61
  -1  -2  -3   35.91    2.79
   1  -2   3   32.75    2.44
   1  -2   3   36.28    2.12
   1  -2   3   39.64    3.03
  -1   2  -4    0.30    1.42
  -1   2  -4   -1.13    1.36
   1   2   4    3.00    0.84
   1   2   4    1.32    1.01
   1   2   4    0.40    1.28
  -1  -2  -4    2.15    1.77
   1  -2   4    2.55    1.93
  -1  -2  -4    1.72    1.23
  -1  -2  -4    2.07    1.54
   1  -2   4    2.78    0.91
  -1   2  -5   51.43    3.79
   1   2   5   58.27    2.94
   1   2   5   51.28    4.39
  -1   2  -5   47.50    3.91
   1   2   5   46.51    3.16
   1  -2   5   56.70    4.20
  -1  -2  -5   52.28    4.16
  -1  -2  -5   61.93    4.14
  -1  -2  -5   59.80    4.35
   1   2   6    5.03    1.98
  -1   2  -6    5.81    2.13
   1   2   6    5.64    1.61
  -1   2  -6    4.84    1.72
   1  -2   6    7.33    2.47
  -1  -2  -6    7.73    2.39
  -1  -2  -6    7.34    2.09
  -1  -2  -6    2.59    1.93
   1   2   7   29.07    3.04
  -1   2  -7   27.83    3.92
  -1   2  -7   29.15    3.89
   1   2   7   21.25    4.01
  -1  -2  -7   32.41    4.17
  -1  -2  -7   24.58    3.31
   1  -2   7   24.62    3.86
  -1  -2  -7   35.13    4.46
  -1   2  -8    3.43    2.35
  -1   2  -8    1.86    2.00
  -1  -2  -8    6.78    2.68
  -1  -2  -8    7.48    2.54
   1  -2   8    1.85    2.22
  -1   2  -9   -3.36    1.78
  -1   2  -9    0.94    2.30
  -1  -2  -9    1.86    2.13
  -1  -2  -9   -0.16    2.15
   1  -2   9    1.24    2.54
  -1   2 -10    1.00    2.70
  -1   2 -10    4.08    2.88
  -1  -2 -10   -2.18    2.48
  -1  -2 -10    4.18    2.86
   1   3 -10   -0.76    2.26
   1   3 -10    7.12    2.51
   1   3 -10    1.29    2.76
   1  -3 -10    3.06    2.89
   1  -3 -10    0.18    2.51
   1   3  -9    4.45    2.17
   1   3  -9    7.12    2.37
   1   3  -9   -1.12    1.60
   1  -3  -9    4.87    2.79
  -1  -3   9    2.15    3.10
   1  -3  -9    3.01    2.66
  -1  -3   9    2.95    2.31
   1   3  -8    6.98    2.32
   1   3  -8    2.31    2.14
   1   3  -8    3.32    2.31
  -1  -3   8    0.63    2.61
   1  -3  -8    6.21    2.66
  -1  -3   8    3.98    2.47
   1  -3  -8    2.96    2.20
   1   3  -7   70.12    5.24
   1   3  -7   64.94    5.12
   1   3  -7   65.88    5.23
   1  -3  -7   70.64    5.51
   1  -3  -7   57.56    4.92
  -1  -3   7   67.02    5.60
   1  -3  -7   62.83    4.94
   1   3  -6    4.34    1.80
   1   3  -6    4.82    2.02
  -1   3   6   11.10    2.49
   1   3  -6    4.23    2.00
   1  -3  -6   10.36    2.42
   1  -3  -6    4.39    2.17
  -1  -3   6    5.65    2.37
   1   3  -5    6.15    2.03
   1   3  -5    3.78    1.80
  -1   3   5    6.17    2.14
   1   3  -5    7.16    1.79
  -1  -3   5    4.01    2.29
   1  -3  -5    3.68    1.85
   1  -3  -5    2.50    1.90
  -1   3   4   14.58    0.98
  -1   3   4   12.72    2.07
   1   3  -4   12.84    2.01
   1   3  -4   12.31    2.01
   1   3  -4   11.56    1.99
   1  -3  -4   12.76    2.01
   1  -3  -4   18.63    2.57
  -1  -3   4   14.18    1.32
  -1  -3   4   12.08    2.71
   1   3  -3   37.13    2.80
  -1   3   3   31.91    2.55
  -1   3   3   38.30    1.87
   1   3  -3   38.20    2.79
   1   3  -3   38.44    2.92
   1  -3  -3   38.14    2.68
   1  -3  -3   33.64    2.74
  -1  -3   3   26.96    3.16
   1  -3  -3   34.02    2.89
  -1   3   2   50.65    2.57
   1   3  -2   52.02    3.07
   1   3  -2   49.80    3.06
   1   3  -2   48.17    3.16
  -1   3   2   51.25    3.20
  -1   3   2   48.42    2.91
  -1   3   2   49.10    2.69
   1  -3  -2   45.32    2.97
   1  -3  -2   49.26    2.68
  -1  -3   2   50.04    3.76
   1  -3  -2   47.02    2.86
  -1  -3   2   54.65    3.36
   1  -3  -2   49.80    2.38
  -1   3   1  203.51    7.69
  -1   3   1  198.06    7.19
  -1   3   1  195.00    7.72
  -1   3   1  192.89    7.91
   1   3  -1  191.12    7.74
   1   3  -1  191.45    7.96
   1   3  -1  194.01    7.68
   1   3  -1  207.49    8.39
  -1  -3   1  195.31    7.76
   1  -3  -1  192.32    7.73
  -1  -3   1  190.94    7.87
   1  -3  -1  190.57    7.71
   1  -3  -1  201.52    8.04
  -1  -3   1  197.57    8.43
  -1  -3   1  205.08    7.77
  -1  -3   1  190.57    8.32
   1  -3  -1  197.28    7.17
  -1   3   0   70.23    3.65
   1   3   0   68.74    3.72
   1   3   0   74.00    3.85
  -1   3   0   74.49    3.89
   1   3   0   70.49    3.39
  -1  -3   0   68.98    3.48
  -1  -3   0   69.07    3.90
  -1  -3   0   74.39    3.63
   1  -3   0   70.89    3.60
   1  -3   0   77.13    3.57
  -1  -3   0   70.90    3.78
  -1  -3   0   63.91    3.44
   1  -3   0   66.49    3.68
   1  -3   0   74.81    3.70
  -1  -3   0   66.38    3.55
   1  -3   0   73.80    3.59
  -1   3  -1   -0.35    1.20
   1   3   1    1.11    0.82
   1   3   1    0.28    0.69
  -1   3  -1    1.85    0.99
  -1   3  -1    1.32    0.93
   1   3   1    0.12    0.80
   1   3   1    0.40    1.09
  -1   3  -1    1.19    0.96
  -1  -3  -1   -0.61    0.69
  -1  -3  -1    0.93    0.97
   1  -3   1   -0.06    0.72
   1  -3   1   -0.70    0.71
  -1  -3  -1   -0.11    0.91
   1  -3   1    0.82    1.36
  -1  -3  -1    0.70    0.75
   1  -3   1   -0.18    0.78
  -1   3  -2  125.49    5.54
   1   3   2  124.87    5.92
   1   3   2  130.11    5.30
  -1   3  -2  126.75    5.61
   1   3   2  125.58    5.66
  -1   3  -2  124.02    5.64
   1   3   2  129.85    5.75
  -1   3  -2  141.91    5.84
  -1  -3  -2  128.72    5.61
  -1  -3  -2  128.27    5.21
  -1  -3  -2  125.39    5.67
   1  -3   2  124.34    6.21
  -1  -3  -2  118.97    5.70
   1  -3   2  128.26    5.76
   1  -3   2  117.24    5.41
  -1   3  -3   37.65    2.93
  -1   3  -3   35.57    2.63
   1   3   3   33.73    2.86
  -1   3  -3   32.51    2.57
   1   3   3   34.68    2.06
   1  -3   3   31.48    3.61
  -1  -3  -3   38.71    2.79
   1  -3   3   36.02    2.39
  -1  -3  -3   36.78    3.29
   1   3   4   14.46    1.63
  -1   3  -4   10.38    1.91
  -1   3  -4   11.91    2.03
  -1   3  -4    6.45    1.97
   1   3   4   10.96    1.21
   1   3   4   10.89    2.09
  -1  -3  -4    8.81    2.04
   1  -3   4   10.53    2.65
   1  -3   4   11.91    1.60
  -1  -3  -4    9.50    1.94
  -1   3  -5   40.37    4.03
   1   3   5   45.37    2.27
  -1   3  -5   47.35    3.76
   1   3   5   46.23    2.91
  -1   3  -5   40.69    3.48
   1   3   5   42.48    4.40
   1  -3   5   43.06    4.79
  -1  -3  -5   46.01    4.39
  -1  -3  -5   47.17    4.55
  -1  -3  -5   46.51    4.46
   1  -3   5   49.05    2.69
   1   3   6   17.82    2.06
  -1   3  -6   18.77    3.21
  -1   3  -6   14.53    2.83
  -1   3  -6   14.75    2.58
   1   3   6   13.30    3.07
  -1  -3  -6   16.64    3.11
   1  -3   6   15.23    3.34
  -1  -3  -6   15.40    2.97
  -1  -3  -6   21.06    3.37
  -1   3  -7    2.88    1.77
   1   3   7   -0.92    1.37
  -1   3  -7    5.58    1.97
  -1   3  -7   -1.14    1.67
  -1  -3  -7    4.46    2.34
  -1  -3  -7    5.71    2.27
  -1  -3  -7    5.35    2.33
   1  -3   7    4.78    2.44
  -1   3  -8   -1.11    1.94
   1   3   8    0.02    2.28
  -1   3  -8    3.65    1.83
  -1   3  -8    0.25    1.86
   1  -3   8    3.72    2.52
  -1  -3  -8    1.63    1.76
  -1  -3  -8   -2.21    1.86
  -1   3  -9    3.18    2.49
  -1   3  -9    9.89    3.32
  -1   3  -9   10.87    2.72
  -1  -3  -9    4.86    3.06
   1  -3   9    5.90    3.07
  -1  -3  -9    9.00    3.41
   1   4  -9   -0.33    2.16
   1   4  -9    2.12    2.45
   1   4  -9    3.34    2.32
   1  -4  -9   -1.22    2.24
   1  -4  -9   -0.26    2.23
  -1  -4   9   -4.53    2.89
  -1  -4   9    2.67    2.59
   1   4  -8    2.59    2.14
   1   4  -8    0.23    1.56
   1   4  -8    0.08    1.49
   1  -4  -8   -0.67    2.07
  -1  -4   8    2.48    2.47
  -1  -4   8   -3.47    2.32
   1  -4  -8   -0.81    2.10
  -1   4   7    2.64    2.08
   1   4  -7    0.84    1.96
   1   4  -7   -1.08    1.25
   1   4  -7   -1.26    1.64
   1  -4  -7    2.94    2.09
   1  -4  -7   -0.17    2.11
  -1  -4   7   -0.85    2.57
  -1  -4   7   -0.08    2.12
   1  -4  -7    0.85    1.48
   1   4  -6   23.45    3.28
   1   4  -6   15.71    2.99
  -1   4   6   22.01    3.28
   1   4  -6   19.96    3.11
   1  -4  -6   22.87    3.41
  -1  -4   6   14.59    3.50
   1  -4  -6   16.19    3.16
   1   4  -5    0.69    1.25
   1   4  -5   -1.25    1.48
   1   4  -5   -0.30    1.05
  -1   4   5    0.67    1.57
  -1  -4   5    2.99    1.93
   1  -4  -5    0.54    1.73
   1  -4  -5    3.87    1.86
  -1  -4   5    2.50    0.80
  -1   4   4   50.53    2.36
  -1   4   4   49.94    3.65
   1   4  -4   56.22    3.82
   1   4  -4   48.26    3.90
  -1   4   4   53.13    2.46
   1   4  -4   52.88    3.90
   1  -4  -4   49.57    3.64
   1  -4  -4   47.36    4.30
  -1  -4   4   49.01    4.85
   1   4  -3    5.81    1.68
   1   4  -3    5.01    1.50
  -1   4   3    5.91    1.17
  -1   4   3    3.82    1.48
   1   4  -3    5.45    1.72
   1  -4  -3    4.90    1.74
   1  -4  -3    5.20    1.69
   1  -4  -3    5.50    0.86
  -1  -4   3    1.33    2.14
   1   4  -2    1.56    1.22
  -1   4   2   -0.08    1.27
   1   4  -2   -0.16    1.07
   1   4  -2    1.36    1.06
  -1   4   2    0.05    0.82
  -1   4   2    2.26    1.10
   1  -4  -2    0.48    0.88
  -1  -4   2   -0.46    1.29
   1  -4  -2    1.14    0.85
   1  -4  -2    1.37    0.91
   1  -4  -2    0.52    0.88
  -1   4   1   12.94    1.92
   1   4  -1   14.21    2.04
  -1   4   1   13.58    1.92
  -1   4   1   14.60    1.47
   1  -4  -1   14.09    1.86
  -1  -4   1   13.54    1.85
  -1  -4   1   10.20    2.03
  -1  -4   1   11.65    2.14
  -1  -4   1   16.07    2.05
   1  -4  -1   14.53    1.89
  -1   4   0   18.74    2.17
  -1   4   0   17.64    1.48
   1   4   0   15.64    2.32
   1   4   0   18.37    1.93
  -1  -4   0   16.76    2.40
  -1  -4   0   16.21    2.03
   1  -4   0   17.57    2.15
   1  -4   0   21.75    2.46
   1  -4   0   25.12    2.41
   1  -4   0   17.97    2.11
  -1  -4   0   19.03    2.10
  -1  -4   0   20.13    2.19
   1   4   1   43.23    2.68
   1   4   1   45.09    3.55
   1   4   1   39.94    3.23
   1   4   1   43.84    3.11
  -1   4  -1   37.36    2.76
  -1   4  -1   39.44    2.86
  -1   4  -1   41.14    2.91
  -1  -4  -1   40.18    2.88
   1  -4   1   36.37    3.62
   1  -4   1   43.68    2.86
  -1  -4  -1   41.27    2.83
  -1  -4  -1   41.04    3.00
   1   4   2   22.68    2.45
   1   4   2   19.22    2.30
  -1   4  -2   14.06    2.12
   1   4   2   17.79    2.60
  -1   4  -2   16.95    2.17
  -1   4  -2   21.44    2.32
   1  -4   2   19.38    2.76
  -1  -4  -2   20.19    2.04
  -1  -4  -2   21.13    2.45
  -1  -4  -2   21.67    2.49
   1   4   3   16.78    2.43
  -1   4  -3   17.50    2.49
  -1   4  -3   16.49    2.45
  -1   4  -3   16.87    2.30
   1   4   3   18.05    2.62
  -1  -4  -3   18.37    1.74
  -1  -4  -3   13.70    2.40
   1  -4   3   13.79    2.63
  -1  -4  -3   19.15    2.50
  -1   4  -4    1.65    1.40
   1   4   4   -1.11    1.45
  -1   4  -4   -1.14    1.42
  -1   4  -4    1.45    1.24
  -1  -4  -4    0.71    1.27
   1  -4   4    2.12    1.18
  -1  -4  -4    0.47    1.52
   1  -4   4   -0.98    1.43
  -1   4  -5    6.67    1.86
  -1   4  -5   -0.78    1.70
  -1   4  -5    4.53    1.82
   1   4   5    1.07    1.81
   1   4   5    4.03    1.15
   1  -4   5    0.12    2.37
  -1  -4  -5    6.72    2.18
  -1  -4  -5    1.41    1.57
  -1   4  -6    4.22    2.14
  -1   4  -6   -1.50    1.43
  -1   4  -6    2.32    1.50
   1   4   6    0.82    1.87
  -1  -4  -6   -1.35    1.74
  -1  -4  -6    1.19    2.12
   1  -4   6    1.45    2.49
  -1  -4  -6   -2.66    1.63
   1   4   7    0.70    1.91
  -1   4  -7   -1.87    1.80
  -1   4  -7   -0.29    1.38
  -1   4  -7   -1.82    1.51
  -1  -4  -7   -1.70    2.05
  -1  -4  -7   -3.66    1.03
  -1  -4  -7    1.67    1.95
   1  -4   7    1.89    2.41
  -1   4  -8    2.89    2.28
   1   4   8    4.93    2.68
  -1   4  -8    4.35    2.34
  -1   4  -8    1.99    2.35
  -1  -4  -8    4.49    2.74
  -1  -4  -8    6.98    2.52
   1  -4   8    7.31    3.03
  -1   4  -9   15.82    3.86
  -1   4  -9    7.80    3.04
  -1   4  -9    9.26    2.91
  -1  -4  -9    7.82    3.46
   1  -4   9    1.50    3.86
   1  -4   9   11.62    3.72
  -1  -4  -9   11.75    3.58
   1   5  -9    7.00    3.29
   1   5  -9    9.01    3.16
   1   5  -9    6.67    2.88
  -1  -5   9   -1.83    3.24
   1  -5  -9   -0.72    2.25
   1  -5  -9    2.27    2.76
   1   5  -8   55.04    6.10
   1   5  -8   42.40    5.49
   1   5  -8   49.28    5.65
   1  -5  -8   61.28    6.89
  -1  -5   8   54.05    6.91
   1  -5  -8   62.54    6.57
   1  -5  -8   56.99    6.58
  -1  -5   8   58.93    7.45
   1   5  -7   -1.54    1.19
   1   5  -7    1.58    1.98
  -1   5   7    4.19    2.25
   1   5  -7    5.34    2.43
   1  -5  -7    3.25    1.98
  -1  -5   7    1.21    2.55
   1  -5  -7    2.79    1.92
  -1  -5   7   -2.32    2.69
   1   5  -6   40.66    4.63
  -1   5   6   42.71    4.58
   1   5  -6   39.33    4.43
   1   5  -6   43.64    4.75
   1  -5  -6   38.94    4.76
  -1  -5   6   29.80    4.48
  -1  -5   6   41.19    5.65
   1  -5  -6   31.99    4.26
   1   5  -5    6.62    2.02
   1   5  -5    1.00    1.79
  -1   5   5    0.75    1.57
   1   5  -5    3.23    1.90
   1  -5  -5    1.08    1.70
   1  -5  -5    1.82    1.88
  -1  -5   5    1.83    2.57
  -1   5   4    7.01    2.04
   1   5  -4    9.65    2.44
   1   5  -4    7.38    2.37
   1   5  -4    9.34    2.10
  -1   5   4   11.05    1.44
   1  -5  -4    5.56    1.82
   1  -5  -4    8.46    2.29
  -1  -5   4    5.50    2.90
  -1   5   3   17.50    2.03
   1   5  -3   13.20    2.64
   1   5  -3   11.62    2.32
  -1   5   3   13.70    2.06
   1   5  -3   19.14    2.73
   1  -5  -3   15.48    2.46
   1  -5  -3   12.53    2.56
  -1  -5   3    9.29    3.05
   1  -5  -3   15.15    1.71
   1   5  -2  217.46   10.06
   1   5  -2  230.69    9.86
  -1   5   2  263.65   10.34
  -1   5   2  225.65   10.26
   1   5  -2  225.72    9.84
  -1   5   2  239.36    9.12
  -1  -5   2  231.73   10.82
   1  -5  -2  223.98    9.90
   1  -5  -2  232.16    9.99
   1  -5  -2  229.55    9.43
   1   5  -1    1.65    1.33
  -1   5   1    1.64    0.91
  -1   5   1    1.69    1.56
  -1  -5   1    0.96    1.08
   1  -5  -1   -1.87    1.15
  -1  -5   1    0.49    1.42
   1  -5  -1   -1.98    1.22
   1  -5  -1    3.05    1.50
  -1  -5   1   -0.68    0.96
   1   5   0    4.00    1.32
  -1   5   0    1.71    1.58
  -1   5   0    4.09    1.11
   1   5   0    2.71    1.82
   1  -5   0    5.58    2.07
  -1  -5   0    3.17    1.33
   1  -5   0    5.26    1.52
  -1  -5   0    3.50    1.40
   1  -5   0    1.48    1.18
  -1  -5   0    4.43    1.65
   1  -5   0    4.64    1.66
  -1   5  -1   -0.18    1.39
   1   5   1   -0.02    0.97
   1   5   1    0.75    1.25
   1  -5   1   -0.74    1.94
  -1  -5  -1    1.45    1.45
  -1  -5  -1    0.22    1.36
  -1  -5  -1    0.60    1.45
  -1   5  -2  121.55    6.46
  -1   5  -2  125.17    6.25
   1   5   2  120.70    6.65
  -1   5  -2  143.38    6.55
   1   5   2  129.49    6.10
   1  -5   2  121.94    7.32
  -1  -5  -2  143.06    6.22
  -1  -5  -2  125.66    6.38
  -1  -5  -2  120.46    6.52
   1   5   3    7.84    1.88
   1   5   3    7.77    2.35
  -1   5  -3    7.12    2.08
  -1   5  -3    4.37    1.83
  -1   5  -3    7.00    1.99
  -1  -5  -3    8.16    1.46
  -1  -5  -3    4.68    1.65
   1  -5   3    5.82    2.76
  -1  -5  -3   10.03    2.38
  -1   5  -4  167.57    8.19
  -1   5  -4  144.46    7.65
  -1   5  -4  166.42    8.08
   1   5   4  153.88    7.75
  -1  -5  -4  159.93    8.14
   1  -5   4  159.44    9.15
  -1  -5  -4  159.04    8.03
  -1   5  -5    3.18    1.89
   1   5   5    8.05    1.42
  -1   5  -5    9.31    2.46
  -1   5  -5   14.39    2.84
   1   5   5    7.43    2.42
   1  -5   5    5.79    2.99
  -1  -5  -5    6.22    2.07
  -1  -5  -5    8.29    2.59
  -1   5  -6    2.29    1.68
  -1   5  -6    1.00    1.69
  -1   5  -6   -1.88    1.70
   1   5   6    0.72    2.04
  -1  -5  -6   -0.41    2.55
  -1  -5  -6   -0.43    2.08
   1  -5   6   -0.77    2.54
  -1  -5  -6   -0.76    1.70
  -1   5  -7   -0.24    1.45
  -1   5  -7    4.48    2.09
  -1   5  -7    3.03    2.27
   1   5   7    2.74    2.25
  -1  -5  -7   -1.48    1.91
  -1  -5  -7   -2.79    2.23
  -1  -5  -7    0.75    1.75
   1  -5   7   -2.03    2.25
  -1   5  -8   14.78    3.56
   1   5   8   20.59    4.13
  -1   5  -8   23.46    3.79
  -1   5  -8   15.60    3.73
  -1  -5  -8   21.46    3.98
  -1  -5  -8    7.83    3.73
  -1  -5  -8   20.00    4.05
   1  -5   8   18.44    4.62
  -1   5  -9    5.99    3.02
  -1  -5  -9    3.47    2.75
   1  -5   9    5.14    3.25
   1  -5   9   -1.62    3.72
  -1  -5  -9    3.66    3.08
   1   6  -8    0.85    2.36
   1   6  -8    1.53    1.96
   1   6  -8    2.63    2.56
  -1  -6   8    1.88    2.34
   1  -6  -8   -0.77    2.62
   1  -6  -8    1.89    3.46
   1  -6  -8    0.44    2.21
  -1  -6   8   -1.74    3.54
  -1   6   7    2.24    1.94
   1   6  -7   -2.30    1.89
   1   6  -7    3.43    2.23
   1   6  -7   -0.59    2.02
   1  -6  -7   -2.01    2.32
  -1  -6   7   -4.82    2.86
  -1  -6   7   -2.03    1.69
   1  -6  -7   -1.42    1.87
   1   6  -6   10.10    2.91
   1   6  -6    7.88    2.86
  -1   6   6    8.99    2.58
   1   6  -6    7.95    2.59
   1  -6  -6   10.16    2.84
  -1  -6   6    5.88    3.55
   1  -6  -6    0.11    1.88
  -1  -6   6    8.24    3.63
   1   6  -5   -1.77    1.57
   1   6  -5   -0.43    1.22
   1   6  -5   -0.76    1.78
  -1   6   5    1.16    1.66
   1  -6  -5    3.75    1.80
  -1  -6   5   -1.33    1.64
  -1  -6   5    1.84    2.08
   1  -6  -5    1.87    1.53
   1   6  -4    1.86    1.74
   1   6  -4    1.31    1.74
   1   6  -4    3.03    2.08
  -1   6   4    4.78    1.61
   1  -6  -4    1.94    1.98
  -1  -6   4    4.22    2.76
   1  -6  -4    2.72    2.07
  -1  -6   4    3.42    2.82
   1   6  -3   10.60    2.16
   1   6  -3    6.50    2.22
  -1   6   3    4.70    1.96
   1   6  -3    9.12    2.57
  -1   6   3    8.20    1.88
  -1  -6   3    7.58    2.55
  -1  -6   3    4.81    2.34
   1  -6  -3   11.68    1.85
   1  -6  -3    8.97    2.27
   1  -6  -3   12.30    2.37
   1   6  -2    6.70    2.36
  -1   6   2    6.03    1.98
  -1   6   2    4.43    1.47
  -1  -6   2    4.87    2.23
  -1  -6   2    5.31    1.96
   1  -6  -2    1.02    1.27
   1  -6  -2    6.16    2.19
   1  -6  -2    5.59    1.83
  -1  -6   2    3.45    1.53
   1   6  -1    0.61    1.85
  -1   6   1   -0.93    1.17
  -1   6   1    1.22    1.08
   1  -6  -1   -0.48    1.03
  -1  -6   1    2.97    2.31
  -1  -6   1    0.63    1.20
  -1  -6   1    1.77    1.61
   1  -6  -1    2.11    1.76
   1  -6  -1    0.64    1.61
  -1   6   0    6.68    1.37
  -1   6   0    6.97    2.23
   1   6   0    5.27    1.93
   1   6   0    6.89    1.69
   1  -6   0    8.31    1.92
  -1  -6   0    4.57    2.20
  -1  -6   0    7.83    1.87
  -1  -6   0    3.95    1.59
   1  -6   0    8.08    2.12
   1  -6   0    6.73    2.37
   1   6   1    4.08    2.13
  -1   6  -1   -0.06    1.19
   1   6   1    4.77    1.48
  -1  -6  -1    3.31    1.87
   1  -6   1    4.82    1.59
   1  -6   1    7.59    2.63
  -1  -6  -1    4.24    1.83
  -1  -6  -1    5.08    2.01
   1  -6   1    2.21    1.63
   1   6   2   -0.81    1.24
  -1   6  -2    2.32    1.95
   1   6   2    3.19    1.66
  -1  -6  -2    5.06    1.99
  -1  -6  -2    2.95    1.63
  -1  -6  -2    4.71    1.71
   1  -6   2    5.30    2.35
   1   6   3    3.70    1.82
   1   6   3    4.22    1.90
  -1   6  -3   -1.76    1.46
  -1   6  -3    5.31    2.12
  -1   6  -3    2.59    1.91
  -1  -6  -3    2.07    1.37
  -1  -6  -3    4.74    2.07
   1  -6   3    5.40    2.46
  -1  -6  -3    5.81    2.19
  -1   6  -4   20.18    3.29
  -1   6  -4   17.54    3.07
  -1   6  -4   19.29    3.06
   1   6   4   19.94    3.14
  -1  -6  -4   15.93    2.94
  -1  -6  -4   20.89    2.09
   1  -6   4   22.15    4.28
  -1  -6  -4   14.40    3.13
   1   6   5    2.55    1.67
  -1   6  -5    3.35    2.22
  -1   6  -5    3.79    1.82
  -1   6  -5   -0.94    1.89
  -1  -6  -5    3.07    2.14
   1  -6   5   -1.17    2.54
  -1  -6  -5    1.90    1.53
  -1   6  -6    3.36    2.35
  -1   6  -6    0.71    2.02
   1   6   6    2.94    2.15
  -1   6  -6    2.30    2.04
   1  -6   6    0.94    2.01
  -1  -6  -6    1.78    1.81
  -1  -6  -6    4.43    2.63
  -1   6  -7    9.91    3.07
  -1   6  -7    4.13    2.32
   1   6   7    5.73    2.67
  -1   6  -7    4.13    2.61
  -1  -6  -7    3.14    2.19
   1  -6   7    4.87    2.77
  -1  -6  -7    6.36    3.48
  -1  -6  -7    1.51    2.40
  -1   6  -8    7.94    4.17
   1   6   8    8.75    2.88
  -1   6  -8    5.24    2.32
  -1  -6  -8    0.67    3.44
   1  -6   8    0.07    4.13
  -1  -6  -8    2.17    2.79
  -1  -6  -8    3.56    2.48
   1  -6   8    5.72    3.09
   1   7  -8   -2.05    2.36
   1   7  -8    0.36    2.64
   1   7  -8   -1.27    2.66
   1  -7  -8   -2.36    2.48
   1  -7  -8    0.32    3.71
   1  -7  -8    0.37    2.53
  -1  -7   8   -2.48    3.60
  -1   7   7   81.68    6.16
   1   7  -7   72.00    7.30
   1   7  -7   81.08    7.69
   1   7  -7   67.12    6.94
   1  -7  -7   62.59    6.93
  -1  -7   7   56.31    7.95
   1  -7  -7   86.87    8.25
   1   7  -6    5.68    2.71
   1   7  -6   -0.59    2.14
   1   7  -6    5.19    2.40
  -1   7   6    6.24    2.26
  -1  -7   6    2.07    3.64
   1  -7  -6    3.66    2.40
  -1  -7   6    6.48    2.96
   1  -7  -6    4.04    2.69
  -1   7   5   27.98    3.59
   1   7  -5   22.78    4.15
   1   7  -5   27.52    4.16
   1   7  -5   24.36    3.87
  -1  -7   5   26.66    4.65
   1  -7  -5   25.14    3.85
   1  -7  -5   30.74    4.25
  -1  -7   5   23.79    4.53
  -1   7   4   -2.20    1.10
   1   7  -4   -0.71    1.18
   1   7  -4    3.32    2.17
   1   7  -4   -1.38    1.84
   1  -7  -4   -1.74    1.17
  -1  -7   4    0.90    2.29
  -1  -7   4   -0.62    1.93
   1  -7  -4   -1.39    1.12
   1   7  -3   20.90    3.26
   1   7  -3   23.65    3.64
  -1   7   3   24.58    3.65
  -1   7   3   24.68    2.84
  -1  -7   3   21.65    3.39
  -1  -7   3   24.61    4.58
   1  -7  -3   24.23    2.88
   1  -7  -3   22.74    3.48
  -1  -7   3   23.60    3.38
   1  -7  -3   30.35    3.92
  -1   7   2    1.25    1.85
  -1   7   2   -0.15    1.10
   1   7  -2   -2.30    1.67
   1  -7  -2    0.39    1.71
  -1  -7   2    0.32    1.62
   1  -7  -2    0.44    1.79
   1  -7  -2    0.31    1.53
  -1  -7   2    0.73    1.33
  -1  -7   2    1.56    2.46
  -1   7   1   79.15    5.72
  -1   7   1   88.39    4.30
   1   7  -1   88.70    4.90
   1   7  -1   80.15    5.89
   1  -7  -1   90.94    5.85
  -1  -7   1   73.15    5.33
  -1  -7   1   92.70    5.71
   1  -7  -1   72.03    5.36
  -1  -7   1   73.72    5.85
   1  -7  -1   86.40    5.44
   1   7   0   -0.50    1.18
   1   7   0   -1.29    1.84
  -1   7   0    0.11    0.97
  -1   7   0    1.39    1.88
  -1  -7   0   -0.05    1.95
  -1  -7   0    0.27    1.27
   1  -7   0   -2.21    1.84
   1  -7   0    0.57    1.70
   1  -7   0    2.12    1.44
  -1  -7   0    1.45    1.36
   1   7   1    7.23    1.78
   1   7   1    6.73    2.59
  -1   7  -1    5.67    1.97
  -1   7  -1   10.38    1.78
   1  -7   1    7.24    2.05
   1  -7   1    9.64    2.47
   1  -7   1    5.05    2.75
  -1  -7  -1    9.26    2.27
  -1  -7  -1    6.44    2.18
  -1  -7  -1   11.36    2.38
   1  -7   1    7.77    2.59
  -1   7  -2   11.60    2.76
   1   7   2    6.24    1.81
   1   7   2    4.07    2.36
   1  -7   2    5.39    1.86
   1  -7   2    9.77    2.82
   1  -7   2    5.19    1.76
  -1  -7  -2    9.37    2.40
  -1  -7  -2    8.29    2.33
  -1  -7  -2    5.21    1.98
  -1   7  -3  148.13    7.90
  -1   7  -3  129.70    7.64
   1   7   3  131.23    7.92
  -1   7  -3  135.37    7.64
   1   7   3  134.79    6.92
  -1  -7  -3  150.82    7.05
  -1  -7  -3  131.84    7.63
  -1  -7  -3  136.41    7.82
   1  -7   3  128.87    8.56
   1   7   4    4.77    2.01
  -1   7  -4    2.95    1.72
  -1   7  -4    6.13    2.11
  -1   7  -4    3.78    2.37
   1  -7   4    7.47    3.38
  -1  -7  -4    3.63    2.29
  -1  -7  -4    1.53    2.02
   1   7   5   65.97    5.16
  -1   7  -5   70.06    6.39
  -1   7  -5   63.08    6.09
  -1   7  -5   57.26    5.93
  -1  -7  -5   71.40    5.52
   1  -7   5   63.20    7.54
  -1  -7  -5   64.92    6.57
  -1   7  -6    8.50    3.07
  -1   7  -6    1.24    2.23
   1   7   6    7.91    2.69
  -1   7  -6    9.25    2.73
  -1  -7  -6    6.95    2.93
   1  -7   6    2.92    2.59
  -1  -7  -6    6.64    2.96
   1   7   7    2.51    2.33
  -1   7  -7    0.61    1.90
  -1   7  -7    1.50    2.53
   1  -7   7    8.00    4.23
   1  -7   7    1.94    4.26
  -1  -7  -7    2.26    2.63
  -1  -7  -7    2.76    3.64
  -1  -7  -7    1.74    2.65
   1   7   8   10.58    3.05
  -1   7  -8    4.60    3.13
  -1  -7  -8    8.17    4.61
  -1  -7  -8    5.99    2.96
  -1  -7  -8   -1.19    2.66
   1  -7   8    0.35    4.39
   1  -7   8    6.96    4.21
   1   8  -7    1.51    2.78
   1   8  -7   -0.54    3.14
   1   8  -7   -0.48    2.37
   1  -8  -7   -0.26    2.80
  -1  -8   7   -1.04    3.91
   1  -8  -7    3.19    3.05
   1   8  -6    9.48    3.65
   1   8  -6   13.64    3.68
   1   8  -6    7.87    3.11
   1  -8  -6   12.63    3.13
  -1  -8   6    7.37    3.79
   1  -8  -6    5.54    3.20
  -1  -8   6    8.32    2.65
   1   8  -5    4.93    2.64
   1   8  -5    5.93    2.40
   1   8  -5    3.31    2.89
  -1  -8   5    1.41    3.45
   1  -8  -5    9.31    3.10
  -1  -8   5    4.96    2.17
   1  -8  -5    4.04    2.69
   1   8  -4   11.49    3.54
   1  -8  -4    4.29    2.25
  -1  -8   4   10.54    4.23
  -1  -8   4    8.43    2.68
   1  -8  -4   13.30    3.25
  -1   8   3   12.52    2.96
   1   8  -3   12.20    3.00
   1  -8  -3   14.65    3.35
   1  -8  -3   10.79    2.61
  -1  -8   3   14.42    3.14
  -1  -8   3    8.67    3.17
  -1  -8   3    8.58    2.51
  -1   8   2    2.10    2.26
  -1   8   2    2.42    2.24
   1   8  -2    2.96    2.51
  -1  -8   2    3.53    2.47
   1  -8  -2    1.45    1.70
   1  -8  -2    4.63    2.02
  -1  -8   2    1.03    1.94
  -1  -8   2    0.68    1.68
   1  -8  -2    3.36    2.14
   1   8  -1    2.22    1.50
   1   8  -1    2.09    1.84
  -1   8   1    4.37    2.48
  -1   8   1    1.27    1.17
   1  -8  -1    3.79    2.10
   1  -8  -1   -0.37    1.80
  -1  -8   1    4.48    1.91
   1  -8  -1    0.55    1.89
  -1  -8   1    4.00    2.76
  -1  -8   1    3.48    2.10
  -1   8   0    5.98    1.56
  -1   8   0    3.53    2.25
   1   8   0    5.48    1.75
   1   8   0    5.96    2.39
   1  -8   0    0.84    2.42
   1  -8   0    7.73    2.47
   1  -8   0    3.52    2.12
  -1  -8   0    4.08    2.26
  -1  -8   0    5.36    2.71
  -1  -8   0    3.98    2.30
   1   8   1    2.54    2.42
  -1   8  -1    6.66    2.25
  -1   8  -1    6.55    1.55
   1   8   1    5.85    1.80
   1  -8   1    5.14    2.35
  -1  -8  -1   12.12    2.59
   1  -8   1    2.18    2.77
  -1  -8  -1    4.88    2.30
  -1  -8  -1    3.49    2.24
   1  -8   1    5.80    2.33
   1   8   2    2.98    1.89
  -1   8  -2    7.91    2.68
   1   8   2    6.53    1.98
  -1  -8  -2    4.22    2.36
   1  -8   2    5.08    2.35
  -1  -8  -2    8.82    2.38
  -1  -8  -2    4.88    2.41
   1  -8   2    4.16    2.28
   1  -8   2    2.87    3.25
   1   8   3   -0.94    1.54
   1   8   3    6.29    2.72
  -1   8  -3    2.60    2.19
   1  -8   3    0.44    1.97
  -1  -8  -3    1.09    1.86
   1  -8   3    1.42    1.90
   1  -8   3    0.78    2.87
   1  -8   3   -4.01    2.57
  -1  -8  -3   -1.47    1.20
  -1   8  -4    1.27    2.21
   1   8   4    0.26    1.49
  -1   8  -4   -0.22    1.48
  -1   8  -4    0.74    1.53
   1  -8   4    5.70    4.08
  -1  -8  -4    2.53    2.50
   1  -8   4    6.77    3.87
  -1  -8  -4    3.59    2.41
  -1   8  -5   18.67    3.92
  -1   8  -5   19.62    3.88
  -1   8  -5   25.07    4.20
   1   8   5   18.14    3.20
   1  -8   5   12.14    4.88
  -1  -8  -5   13.10    3.51
   1  -8   5   17.23    5.04
  -1  -8  -5   18.14    3.90
  -1   8  -6   -2.39    1.88
  -1   8  -6   -1.45    2.59
  -1  -8  -6    0.50    2.63
  -1  -8  -6    0.52    2.28
   1  -8   6    3.00    3.57
   1  -8   6   -4.94    1.92
  -1   8  -7    8.07    2.94
  -1  -8  -7   13.18    4.05
  -1  -8  -7    6.29    3.06
  -1  -8  -7    1.14    4.51
   1  -8   7    7.50    4.26
   1  -8   7    3.68    3.52
   1   9  -6   11.35    3.77
   1   9  -6    8.87    4.08
  -1  -9   6    0.75    4.29
  -1  -9   6   13.52    3.51
   1  -9  -6    8.70    3.15
   1  -9  -6    9.05    3.42
   1   9  -5   -0.90    2.64
  -1  -9   5    1.92    2.41
  -1  -9   5    2.96    3.17
   1  -9  -5    0.85    2.38
   1  -9  -5   -1.96    2.19
   1   9  -4   -2.77    2.36
   1  -9  -4    1.64    2.31
  -1  -9   4    0.91    2.92
   1  -9  -4   -2.26    1.80
  -1  -9   4   -0.75    2.02
   1   9  -3   -1.68    2.35
  -1  -9   3   -0.14    3.25
  -1  -9   3    1.25    2.16
   1  -9  -3    2.46    2.28
   1  -9  -3   -0.68    2.25
   1   9  -2    4.56    2.96
   1   9  -2    6.49    2.03
  -1   9   2   12.67    3.38
   1  -9  -2    2.33    2.07
   1  -9  -2    5.46    2.66
  -1  -9   2    4.85    2.63
   1  -9  -2    4.64    2.40
  -1  -9   2    7.06    3.56
   1   9  -1   -0.76    1.73
  -1   9   1   -2.51    2.06
   1   9  -1    0.87    1.35
  -1  -9   1   -3.77    1.33
   1  -9  -1   -2.03    1.03
  -1  -9   1    2.66    1.99
   1  -9  -1    1.20    2.09
   1  -9  -1    0.57    2.18
  -1  -9   1    0.91    1.61
   1   9   0    9.15    3.13
   1   9   0   11.79    3.54
  -1   9   0   12.48    3.37
  -1  -9   0    9.81    3.19
   1  -9   0   11.77    3.52
  -1  -9   0   10.67    2.96
   1  -9   0   13.43    3.19
  -1  -9   0    9.05    2.82
   1  -9   0   13.19    2.98
  -1   9  -1    0.98    2.16
   1   9   1   -2.52    2.00
  -1  -9  -1   -0.10    1.97
   1  -9   1   -0.38    1.86
   1  -9   1   -2.51    1.82
   1  -9   1   -3.83    2.46
  -1  -9  -1    1.29    2.02
  -1  -9  -1    1.51    2.24
   1   9   2    4.52    2.70
  -1   9  -2   -0.83    2.11
   1  -9   2    0.72    1.92
  -1  -9  -2   -2.18    1.26
  -1  -9  -2    0.22    1.49
   1  -9   2   -1.18    1.87
  -1  -9  -2   -1.16    1.62
   1  -9   2   -2.18    2.78
   1   9   3    9.21    2.78
  -1   9  -3    2.52    2.63
  -1  -9  -3    3.03    2.58
   1  -9   3    2.20    2.29
  -1  -9  -3    4.13    2.84
   1  -9   3    0.71    3.53
  -1   9  -4    4.07    2.87
   1  -9   4   -2.81    3.37
  -1  -9  -4    3.33    2.63
   1  -9   4   -0.48    2.15
  -1  -9  -4    2.26    2.60
  -1   9  -5    1.48    2.92
   1  -9   5   10.66    2.90
  -1  -9  -5    2.21    2.09
  -1  -9  -5   10.41    3.50
   1  -9   5   -7.52    3.17
  -1   9  -6    3.46    2.90
   1  -9   6    5.94    2.91
  -1  -9  -6    7.44    3.48
   1  -9   6    0.28    4.23
  -1 -10   5   -0.76    4.05
   1  10  -4    2.58    3.45
   1 -10  -4    8.58    3.50
  -1 -10   4    6.83    2.81
  -1 -10   4    2.38    4.03
   1 -10  -4    9.25    3.54
   1  10  -3   -3.91    2.48
   1 -10  -3    1.92    2.00
   1 -10  -3    4.04    2.88
  -1 -10   3   -1.74    2.04
  -1 -10   3   -5.32    2.69
   1  10  -2    4.76    3.36
  -1  10   2    2.11    2.67
  -1 -10   2   -1.77    2.91
   1 -10  -2    1.76    2.36
  -1 -10   2    0.70    2.32
   1 -10  -2    2.27    2.52
   1  10  -1    4.74    3.01
  -1  10   1   -4.09    2.01
   1 -10  -1    3.69    2.54
  -1 -10   1    0.70    2.86
   1 -10  -1    7.31    3.19
  -1 -10   1    4.95    2.64
   1 -10  -1    3.97    2.56
   1  10   0   10.83    3.92
  -1  10   0   10.04    3.43
  -1 -10   0   11.67    3.37
  -1 -10   0    8.89    3.18
   1 -10   0   17.60    3.75
   1 -10   0    9.59    3.27
   1 -10   0   12.43    3.16
  -1  10  -1    6.31    3.29
   1  10   1   14.17    3.53
  -1 -10  -1   15.21    3.51
   1 -10   1   11.46    3.25
   1 -10   1    8.84    4.04
  -1 -10  -1   12.20    3.44
   1 -10   1   12.25    3.45
  -1  10  -2    8.17    3.13
   1  10   2   13.73    3.79
  -1 -10  -2    7.28    3.67
   1 -10   2   10.84    4.47
   1 -10   2    7.99    2.74
  -1 -10  -2    7.82    3.26
   1  10   3    5.57    3.21
  -1  10  -3    0.03    2.78
   1 -10   3    0.85    3.75
   1 -10   3    0.39    2.30
  -1 -10  -3    2.90    2.73
  -1  10  -4   -4.25    2.33
   1 -10   4   -3.24    2.21
   1 -10   4    0.34    2.17
  -1 -10  -4    3.23    2.86
   1  11  -2    1.87    3.08
  -1  11   2    5.67    3.20
   1 -11  -2    6.69    3.26
  -1 -11   2    3.53    2.83
  -1 -11   2    9.97    3.25
   1  11  -1    1.51    2.95
  -1  11   1    4.46    2.36
  -1 -11   1   -4.59    2.65
   1 -11  -1    0.18    2.35
  -1 -11   1    1.37    2.70
  -1  11   0    2.96    2.93
   1  11   0    3.32    2.56
   1 -11   0    4.22    3.24
   1 -11   0    3.73    2.86
  -1 -11   0    3.62    3.12
  -1 -11   0    2.11    2.54
  -1  11  -1    2.41    2.73
   1  11   1    1.06    3.01
   1 -11   1   -1.63    2.07
  -1 -11  -1    0.47    2.53
   1 -11   1    2.78    3.47
  -1  11  -2   -1.24    3.04
   1  11   2   -0.74    1.72
  -1 -11  -2    2.65    3.01
   1 -11   2    2.54    2.59
   1 -11   2    1.79    3.73
   2   0 -10   14.76    3.69
   2   0 -10    8.75    3.38
   2   0  -9   -1.59    1.93
   2   0  -9    0.00    1.49
   2   0  -8   46.01    4.88
   2   0  -8   40.98    4.74
   2   0  -7    0.53    1.62
  -2   0   7   -0.82    1.37
  -2   0   7   -0.42    1.19
   2   0  -7   -0.65    1.17
   2   0  -6    9.79    0.92
   2   0  -6   12.18    2.44
  -2   0   6   11.09    2.24
  -2   0   6   10.19    2.03
   2   0  -6    4.94    1.87
   2   0  -5    0.28    0.94
  -2   0   5   -1.17    1.10
   2   0  -5    3.35    1.60
  -2   0   5   -0.81    1.19
   2   0  -5    0.32    0.60
   2   0  -5   -1.34    0.84
  -2   0   4  540.62   18.61
  -2   0   4  509.16   18.52
   2   0  -4  515.00   18.34
  -2   0   4  518.60   18.45
   2   0  -4  500.53   18.66
   2   0  -4  533.97   17.70
   2   0  -4  504.01   18.66
   2   0  -3   -1.56    1.10
   2   0  -3   -0.29    0.74
  -2   0   3   -0.59    0.79
  -2   0   3   -0.80    0.65
   2   0  -3   -0.73    0.73
  -2   0   3   -0.45    0.83
   2   0  -3   -0.40    0.74
  -2   0   2  995.09   32.97
  -2   0   2  985.22   32.78
   2   0  -2 1000.00   32.89
  -2   0   2  970.25   32.75
   2   0  -2  976.08   32.85
   2   0  -2  932.60   32.81
  -2   0   1   -0.03    0.26
  -2   0   1    0.09    0.15
   2   0  -1    0.06    0.16
   2   0  -1   -0.33    0.13
   2   0  -1   -0.30    0.26
  -2   0   1   -0.01    0.36
   2   0  -1    0.03    0.36
  -2   0   0   -0.45    0.16
  -2   0   0    0.10    0.18
   2   0   0    0.67    0.38
   2   0   0    0.39    0.38
  -2   0   0    1.72    0.41
   2   0   0   -0.27    0.16
   2   0   0   -0.48    0.10
  -2   0   0   -0.54    0.18
   2   0   1   -1.48    0.41
  -2   0  -1   -0.47    0.56
   2   0   1   -0.93    0.40
  -2   0  -1   -0.19    0.39
   2   0   1    0.55    0.68
   2   0   1    0.19    0.55
  -2   0  -1   -0.53    0.39
   2   0   1   -0.58    0.39
  -2   0  -1   -0.62    0.62
  -2   0  -1   -0.07    0.67
   2   0   2   61.23    3.29
  -2   0  -2   60.99    3.09
  -2   0  -2   60.50    3.11
   2   0   2   62.69    3.13
   2   0   2   61.95    3.20
  -2   0  -2   59.55    3.18
   2   0   2   62.18    3.17
   2   0   2   61.74    3.22
  -2   0  -2   66.69    3.35
  -2   0  -2   68.27    3.20
  -2   0  -3   -0.64    0.96
   2   0   3    0.28    0.86
  -2   0  -3   -0.71    0.85
  -2   0  -3   -0.46    0.85
   2   0   3    1.30    1.07
  -2   0  -3   -1.01    0.91
   2   0   3   -1.50    0.86
   2   0   3    1.05    0.87
   2   0   4   39.05    3.25
  -2   0  -4   44.17    2.73
  -2   0  -4   39.84    3.21
   2   0   4   43.85    3.18
  -2   0  -4   39.81    2.96
  -2   0  -5   -0.31    1.52
   2   0   5   -1.62    1.34
   2   0   5    2.74    2.10
  -2   0  -5    1.08    1.24
  -2   0  -5    0.77    1.11
   2   0   6  135.36    7.17
  -2   0  -6  137.60    7.40
  -2   0  -6  135.86    7.41
  -2   0  -6  144.51    6.36
   2   0   6  131.73    7.97
  -2   0  -7    0.91    1.78
  -2   0  -7    3.70    2.11
   2   0   7   -1.10    1.75
  -2   0  -7    0.37    1.60
  -2   0  -8   52.08    5.74
  -2   0  -8   65.79    6.23
   2   0   8   48.92    5.15
  -2   0  -9    2.43    2.18
  -2   0  -9   -1.80    1.93
  -2   0 -10    0.14    2.07
  -2   0 -10    1.51    2.66
   2   1 -10   -1.31    2.27
   2   1 -10    0.83    2.57
   2  -1 -10   -0.83    1.95
   2  -1 -10   -1.87    1.93
   2   1  -9   -0.14    1.71
   2   1  -9   -0.46    2.01
   2  -1  -9   -0.11    1.91
   2  -1  -9   -3.45    1.93
   2   1  -8    6.82    2.59
   2   1  -8    9.51    2.41
   2  -1  -8    3.42    2.41
  -2  -1   8    6.19    2.57
   2  -1  -8    5.66    2.52
  -2  -1   8    4.47    1.95
   2   1  -7    4.46    1.87
  -2   1   7    5.27    1.44
   2   1  -7    2.89    2.01
  -2   1   7    8.29    1.58
   2  -1  -7    2.14    1.87
   2  -1  -7    5.07    2.02
  -2  -1   7    4.19    2.31
   2  -1  -7    9.51    2.33
  -2  -1   7    4.51    1.91
  -2   1   6   21.69    2.21
   2   1  -6   23.13    3.02
   2   1  -6   25.33    3.22
  -2   1   6   21.17    2.23
   2  -1  -6   25.24    3.05
  -2  -1   6   20.45    2.96
  -2  -1   6   22.68    3.12
   2  -1  -6   23.80    2.38
   2  -1  -6   22.74    3.24
   2  -1  -6   20.02    2.02
  -2   1   5   31.57    2.21
   2   1  -5   29.70    2.99
  -2   1   5   28.44    2.18
   2   1  -5   26.37    2.94
   2  -1  -5   26.38    2.90
   2  -1  -5   33.73    2.05
  -2  -1   5   29.43    3.32
   2  -1  -5   33.08    3.29
  -2  -1   5   26.01    3.04
  -2   1   4    1.03    0.70
   2   1  -4   -0.20    0.72
  -2   1   4    0.72    0.67
  -2   1   4    1.92    0.98
   2   1  -4    0.58    1.17
   2   1  -4    0.03    0.98
  -2  -1   4    1.42    0.99
  -2  -1   4    1.35    1.21
   2  -1  -4    1.34    1.17
   2  -1  -4    0.40    0.58
   2  -1  -4    0.93    1.14
   2   1  -3   65.08    3.22
  -2   1   3   65.49    2.65
  -2   1   3   63.16    3.11
   2   1  -3   62.83    3.20
   2   1  -3   59.48    3.49
   2  -1  -3   64.20    2.53
  -2  -1   3   64.12    3.60
   2  -1  -3   59.22    3.27
  -2  -1   3   65.52    3.70
  -2  -1   3   68.30    3.29
   2  -1  -3   68.87    3.67
   2  -1  -3   60.84    3.24
   2   1  -2    3.35    1.15
   2   1  -2    2.55    0.80
  -2   1   2    1.59    0.72
  -2   1   2    3.23    0.74
   2   1  -2    2.54    0.69
   2  -1  -2    2.32    1.00
  -2  -1   2    4.32    1.32
   2  -1  -2    2.73    0.80
   2  -1  -2    3.03    0.48
  -2  -1   2    3.44    0.76
  -2  -1   2    4.23    1.07
   2  -1  -2    2.14    0.79
  -2  -1   2    1.85    0.75
   2   1  -1    1.82    0.75
   2   1  -1    1.88    0.48
   2   1  -1    1.24    0.84
   2   1  -1    0.88    0.47
  -2   1   1    1.25    0.40
  -2   1   1    1.56    0.42
  -2  -1   1    1.64    0.49
   2  -1  -1    1.36    0.39
   2  -1  -1    1.52    0.49
  -2  -1   1    1.21    0.53
   2  -1  -1    1.30    0.41
  -2  -1   1    0.76    0.63
   2  -1  -1    1.15    0.43
  -2  -1   1    1.01    0.37
  -2  -1   1    0.97    0.51
  -2   1   0    2.98    0.36
  -2   1   0    2.34    0.66
   2   1   0    2.80    0.58
  -2   1   0    1.01    0.35
   2   1   0    1.98    0.48
   2   1   0    2.93    0.55
   2   1   0    1.09    0.68
   2  -1   0    2.29    0.46
   2  -1   0   -0.04    0.39
  -2  -1   0    2.52    0.66
   2  -1   0    2.51    0.41
  -2  -1   0    2.04    0.46
  -2  -1   0    1.02    0.44
   2  -1   0    1.86    0.41
   2   1   1   67.32    3.27
  -2   1  -1   67.76    2.64
  -2   1  -1   70.25    2.99
  -2   1  -1   63.81    3.16
  -2   1  -1   70.34    3.02
   2   1   1   70.65    3.12
  -2   1  -1   67.03    3.25
   2   1   1   69.55    3.14
  -2   1  -1   67.34    3.14
   2   1   1   73.02    3.15
   2   1   1   71.58    3.08
  -2  -1  -1   75.95    3.25
   2  -1   1   71.37    3.12
  -2  -1  -1   69.45    3.44
   2  -1   1   70.13    3.06
   2  -1   1   67.93    3.06
   2  -1   1   71.27    3.35
  -2  -1  -1   67.39    3.11
  -2  -1  -1   74.63    3.21
  -2  -1  -1   66.62    3.06
   2  -1   1   65.91    3.05
  -2  -1  -1   69.26    3.10
   2   1   2   13.90    1.72
   2   1   2   16.99    1.60
   2   1   2   17.71    1.76
  -2   1  -2   16.37    1.78
   2   1   2   16.49    1.67
   2   1   2   17.20    1.80
  -2   1  -2   17.83    1.69
  -2   1  -2   15.25    1.58
  -2   1  -2   20.88    2.08
  -2   1  -2   16.43    1.74
   2  -1   2   15.88    2.03
  -2  -1  -2   16.49    1.90
   2  -1   2   15.26    1.61
  -2  -1  -2   15.62    1.81
  -2  -1  -2   15.38    1.63
   2  -1   2   16.74    1.60
   2  -1   2   17.51    2.00
  -2  -1  -2   15.41    1.65
   2  -1   2   16.32    1.62
  -2  -1  -2   14.57    1.65
   2   1   3   27.55    2.07
  -2   1  -3   23.59    2.32
  -2   1  -3   26.89    1.92
   2   1   3   27.47    2.47
   2   1   3   21.46    2.41
  -2   1  -3   24.59    2.41
  -2  -1  -3   21.85    2.38
   2  -1   3   26.13    2.60
   2  -1   3   27.73    1.88
  -2  -1  -3   26.80    2.10
  -2  -1  -3   20.86    2.30
   2  -1   3   22.01    2.45
  -2  -1  -3   23.07    2.32
   2  -1   3   27.09    2.49
   2   1   4    3.04    1.84
  -2   1  -4    3.99    1.13
  -2   1  -4    5.70    1.72
  -2   1  -4    3.60    1.27
   2   1   4    5.15    1.50
  -2  -1  -4    5.16    1.74
  -2  -1  -4    3.43    1.31
   2  -1   4    1.26    1.76
  -2  -1  -4    4.63    1.47
   2  -1   4    5.58    1.90
   2  -1   4    5.99    1.27
  -2   1  -5    1.31    1.66
  -2   1  -5    4.70    1.50
  -2   1  -5    4.12    1.18
   2   1   5    3.78    1.54
   2   1   5    4.43    1.89
  -2  -1  -5    2.23    1.49
  -2  -1  -5    3.51    1.84
   2  -1   5    1.09    2.20
   2  -1   5    1.62    1.76
  -2  -1  -5    5.40    1.65
  -2   1  -6    0.49    0.93
  -2   1  -6   -0.79    1.60
  -2   1  -6   -1.94    0.92
   2   1   6   -3.96    1.71
   2   1   6   -0.77    1.41
   2  -1   6   -1.62    1.52
  -2  -1  -6   -1.57    1.63
  -2  -1  -6   -0.30    1.25
  -2  -1  -6   -1.77    1.22
  -2   1  -7   32.87    4.03
   2   1   7   37.06    3.92
  -2   1  -7   30.08    4.09
   2   1   7   34.75    4.88
  -2  -1  -7   42.37    3.53
  -2  -1  -7   35.46    4.23
   2  -1   7   35.22    4.37
  -2  -1  -7   32.73    4.37
  -2   1  -8   18.37    3.59
  -2   1  -8   14.35    3.28
  -2  -1  -8   13.20    3.02
   2  -1   8   11.73    2.98
  -2  -1  -8   15.85    3.50
  -2   1  -9    7.23    2.75
  -2   1  -9   13.06    3.60
  -2  -1  -9   11.82    3.26
  -2  -1  -9    7.76    3.01
  -2   1 -10    6.73    3.30
  -2  -1 -10    1.12    2.71
  -2  -1 -10    2.23    2.13
   2   2 -10    1.51    2.65
   2   2 -10    1.80    2.44
   2  -2 -10   -0.93    2.38
   2  -2 -10   -0.88    2.25
   2   2  -9   30.52    4.55
   2   2  -9   27.91    4.40
   2  -2  -9   28.81    4.49
   2  -2  -9   25.18    4.38
   2   2  -8   -0.51    1.66
   2   2  -8   -0.65    1.74
   2  -2  -8    0.09    1.47
   2  -2  -8    0.91    2.13
  -2  -2   8   -6.97    1.87
  -2  -2   8    1.12    1.83
   2   2  -7   -0.62    1.46
   2   2  -7    0.04    1.60
   2  -2  -7    0.70    1.64
  -2  -2   7    3.22    2.05
   2  -2  -7    0.45    1.85
   2  -2  -7    2.08    1.94
  -2  -2   7    0.39    1.92
   2   2  -6    4.83    1.57
   2   2  -6   -0.23    1.57
  -2  -2   6    1.65    1.89
   2  -2  -6    3.92    1.69
  -2  -2   6    2.35    2.05
   2  -2  -6    5.15    1.99
   2   2  -5   54.45    3.86
   2   2  -5   52.55    3.81
  -2  -2   5   54.54    4.24
   2  -2  -5   57.16    3.78
  -2  -2   5   52.02    4.05
   2  -2  -5   57.33    4.08
  -2   2   4    7.64    1.90
   2   2  -4    6.81    1.57
  -2   2   4    8.56    1.56
   2   2  -4    5.72    1.52
   2  -2  -4    4.28    1.48
  -2  -2   4    8.07    2.15
   2  -2  -4    9.14    1.81
  -2   2   3  289.30   10.40
   2   2  -3  269.45   10.57
   2   2  -3  273.55   10.56
  -2   2   3  269.05   10.59
   2   2  -3  288.21   10.99
  -2  -2   3  272.61   11.22
   2  -2  -3  271.96   10.52
  -2  -2   3  282.25   10.46
   2  -2  -3  274.34   10.56
   2  -2  -3  284.83   10.69
  -2  -2   3  273.84   11.20
  -2   2   2   41.30    2.29
   2   2  -2   40.38    2.44
  -2   2   2   39.61    2.27
   2   2  -2   51.09    3.21
   2   2  -2   39.19    2.57
  -2   2   2   39.41    2.26
  -2   2   2   40.84    1.62
   2   2  -2   43.32    2.37
   2  -2  -2   47.30    2.92
   2  -2  -2   42.71    2.39
  -2  -2   2   43.70    2.41
   2  -2  -2   40.62    2.41
  -2  -2   2   45.06    3.01
   2  -2  -2   42.64    2.37
  -2  -2   2   42.17    2.92
  -2  -2   2   41.61    2.34
   2   2  -1    1.31    1.28
   2   2  -1    3.34    0.92
   2   2  -1    2.73    0.83
   2   2  -1    2.77    0.93
  -2   2   1    2.88    0.55
  -2   2   1    2.79    0.85
  -2   2   1    2.82    0.77
   2  -2  -1    2.56    0.83
  -2  -2   1    1.47    0.85
  -2  -2   1    1.93    0.73
   2  -2  -1    2.35    0.78
   2  -2  -1    2.29    0.80
  -2  -2   1    4.52    0.91
   2  -2  -1    3.06    0.51
  -2  -2   1    1.53    0.80
   2  -2  -1    1.24    0.74
  -2  -2   1    3.21    1.38
  -2   2   0   12.36    1.40
  -2   2   0   11.38    0.72
   2   2   0   11.71    1.47
   2   2   0   12.68    1.28
  -2   2   0   11.39    1.20
   2   2   0   10.01    1.40
   2   2   0   13.38    1.33
   2   2   0    9.97    1.42
   2  -2   0   12.14    1.29
   2  -2   0   11.88    1.28
  -2  -2   0   11.26    1.30
  -2  -2   0   12.15    1.49
   2  -2   0   14.09    1.40
  -2  -2   0   10.96    1.53
   2  -2   0   11.46    1.41
  -2  -2   0   12.16    1.38
  -2   2  -1  192.95    7.32
   2   2   1  198.05    7.74
   2   2   1  197.21    7.64
  -2   2  -1  191.91    7.57
   2   2   1  199.31    7.64
  -2   2  -1  200.35    7.57
   2   2   1  201.18    7.67
  -2   2  -1  208.53    7.43
  -2   2  -1  204.05    8.02
   2   2   1  192.83    7.81
  -2  -2  -1  190.32    7.65
   2  -2   1  208.21    7.63
  -2  -2  -1  203.70    7.76
   2  -2   1  206.17    7.64
   2  -2   1  194.25    8.10
  -2  -2  -1  201.20    7.64
   2  -2   1  206.27    7.30
  -2  -2  -1  194.45    7.61
  -2  -2  -1  198.87    7.88
   2   2   2   34.27    2.43
  -2   2  -2   42.82    2.59
   2   2   2   34.42    2.39
   2   2   2   35.22    2.59
  -2   2  -2   34.30    2.24
  -2   2  -2   34.98    2.07
  -2   2  -2   34.66    2.40
  -2   2  -2   38.78    3.04
   2   2   2   38.34    2.23
   2   2   2   34.69    2.61
  -2  -2  -2   38.57    2.52
  -2  -2  -2   33.49    2.52
   2  -2   2   36.34    2.32
   2  -2   2   34.04    2.21
  -2  -2  -2   35.02    2.41
   2  -2   2   32.05    2.66
  -2  -2  -2   33.05    2.46
  -2  -2  -2   33.80    2.09
   2   2   3  129.58    6.28
  -2   2  -3  135.63    6.05
   2   2   3  136.12    6.70
  -2   2  -3  122.53    5.83
   2   2   3  132.02    5.42
   2   2   3  133.74    5.62
   2  -2   3  133.40    6.63
   2  -2   3  137.08    6.11
  -2  -2  -3  130.37    6.35
   2  -2   3  134.04    5.58
  -2  -2  -3  124.61    6.00
  -2  -2  -3  131.86    6.13
   2   2   4   59.41    4.17
  -2   2  -4   70.44    4.14
   2   2   4   62.83    3.60
  -2   2  -4   58.31    4.04
   2   2   4   67.53    3.39
  -2  -2  -4   67.48    4.20
  -2  -2  -4   61.47    4.22
   2  -2   4   63.65    4.43
   2  -2   4   70.14    3.48
  -2  -2  -4   66.59    4.34
   2   2   5   12.77    1.75
   2   2   5    9.88    2.66
   2   2   5    9.60    1.79
  -2   2  -5   10.32    2.14
  -2   2  -5    8.49    1.91
  -2  -2  -5   14.19    2.45
  -2  -2  -5   12.97    2.56
   2  -2   5   12.66    2.84
   2  -2   5   14.97    1.81
  -2  -2  -5   11.80    2.45
   2   2   6   12.03    2.14
  -2   2  -6    9.27    2.45
  -2   2  -6   13.22    2.46
   2   2   6    9.43    2.88
   2  -2   6   14.61    3.08
  -2  -2  -6    9.96    2.57
  -2  -2  -6    9.59    2.56
  -2  -2  -6   12.02    2.44
   2   2   7   24.32    3.06
  -2   2  -7   27.80    3.96
   2   2   7   18.68    3.63
  -2   2  -7   24.52    3.47
   2  -2   7   31.70    4.40
  -2  -2  -7   24.76    3.81
  -2  -2  -7   17.05    3.45
  -2  -2  -7   26.36    3.51
   2   2   8    5.96    3.04
  -2   2  -8    9.84    2.86
  -2   2  -8    8.04    2.47
   2  -2   8   11.03    3.17
  -2  -2  -8    7.16    3.01
  -2  -2  -8    6.58    2.79
  -2   2  -9    4.32    2.79
  -2   2  -9    3.54    2.24
   2  -2   9   14.34    3.58
  -2  -2  -9    6.29    2.93
  -2  -2  -9    4.24    3.07
   2   3 -10   -1.90    2.28
   2   3 -10    1.56    2.63
   2   3 -10    8.56    2.68
   2  -3 -10   -0.89    2.48
   2  -3 -10    3.59    2.60
   2   3  -9    3.31    1.96
   2   3  -9    4.72    2.23
   2   3  -9   -1.01    1.51
  -2  -3   9   -0.46    2.74
   2  -3  -9    2.36    2.62
   2  -3  -9    2.58    2.00
   2   3  -8    3.52    2.31
   2   3  -8    0.38    2.03
   2   3  -8    3.04    1.89
   2  -3  -8    7.02    2.59
   2  -3  -8    0.76    1.96
  -2  -3   8    0.11    2.07
  -2  -3   8   -5.06    1.97
   2   3  -7   20.62    3.15
   2   3  -7   18.41    3.30
   2   3  -7   13.24    2.90
   2  -3  -7   18.58    3.29
   2  -3  -7   17.95    3.14
  -2  -3   7   13.18    3.44
  -2  -3   7   11.96    3.13
   2  -3  -7   30.23    3.76
   2   3  -6    1.65    1.59
   2   3  -6    0.41    1.59
   2   3  -6   -0.68    1.50
   2  -3  -6   -0.60    1.32
  -2  -3   6    0.15    1.55
   2  -3  -6   -0.20    1.76
  -2  -3   6   -2.97    1.59
   2   3  -5   11.91    2.31
   2   3  -5    9.31    2.03
  -2   3   5   14.97    2.62
   2   3  -5    9.46    2.11
  -2  -3   5   10.33    2.67
  -2  -3   5    8.74    2.63
   2  -3  -5    9.91    2.21
   2  -3  -5   13.74    2.57
   2   3  -4   -0.45    0.96
   2   3  -4   -0.67    1.22
  -2   3   4    0.17    1.32
   2   3  -4    2.76    1.47
  -2  -3   4    1.50    1.42
   2  -3  -4   -0.83    1.16
  -2  -3   4    1.40    0.59
   2  -3  -4    1.04    1.23
  -2  -3   4    2.17    2.04
   2   3  -3   28.98    2.81
  -2   3   3   28.86    2.26
   2   3  -3   28.97    2.31
   2   3  -3   29.21    2.70
  -2   3   3   28.38    1.22
  -2   3   3   27.34    2.23
   2  -3  -3   28.50    2.68
   2  -3  -3   31.69    2.79
  -2  -3   3   25.75    3.23
  -2  -3   3   28.13    3.42
   2  -3  -3   29.27    2.33
   2   3  -2    0.13    0.91
   2   3  -2    0.06    0.89
   2   3  -2    1.82    0.99
  -2   3   2    0.66    0.69
  -2   3   2    0.86    0.74
  -2   3   2    1.13    0.88
  -2  -3   2    0.73    1.60
   2  -3  -2    1.20    0.96
  -2  -3   2    1.77    1.26
   2  -3  -2    1.05    0.72
  -2  -3   2    0.05    0.54
   2  -3  -2   -0.78    0.85
  -2   3   1  118.20    5.33
  -2   3   1  131.68    5.23
   2   3  -1  112.37    5.13
   2   3  -1  118.71    5.55
  -2   3   1  119.52    4.46
   2   3  -1  116.16    5.20
  -2  -3   1  128.44    5.32
  -2  -3   1  122.94    5.99
   2  -3  -1  117.04    5.18
   2  -3  -1  124.52    5.26
   2  -3  -1  113.82    5.12
   2  -3  -1  124.12    5.45
  -2  -3   1  117.14    5.18
  -2  -3   1  123.39    5.18
  -2  -3   1  130.49    5.96
  -2  -3   1  120.75    5.24
   2   3   0   41.91    2.77
   2   3   0   36.21    2.81
   2   3   0   37.13    2.47
  -2   3   0   39.74    2.73
   2   3   0   37.65    2.85
   2   3   0   41.84    2.43
   2   3   0   38.49    2.43
  -2   3   0   37.27    2.43
  -2  -3   0   35.27    2.57
   2  -3   0   36.95    2.73
  -2  -3   0   39.92    2.39
   2  -3   0   36.84    2.52
   2  -3   0   39.53    2.34
  -2  -3   0   36.85    2.48
  -2  -3   0   37.69    2.80
   2  -3   0   36.60    2.41
  -2  -3   0   36.39    2.35
   2   3   1   13.00    1.77
  -2   3  -1   13.92    1.69
   2   3   1   14.80    1.71
   2   3   1   11.22    1.74
   2   3   1   12.88    1.66
  -2   3  -1   13.60    1.68
  -2   3  -1   14.04    1.64
  -2   3  -1   11.09    1.30
   2  -3   1   10.86    1.46
  -2  -3  -1   11.82    1.65
  -2  -3  -1   15.01    1.70
   2  -3   1   12.39    1.89
   2  -3   1   13.41    1.61
  -2  -3  -1    8.20    1.44
  -2  -3  -1   14.48    1.80
   2   3   2   19.93    2.26
   2   3   2   20.02    2.51
  -2   3  -2   22.41    2.25
  -2   3  -2   20.55    2.19
  -2   3  -2   17.85    1.97
   2   3   2   18.22    2.28
   2   3   2   22.70    1.94
  -2   3  -2   21.78    2.01
  -2  -3  -2   17.53    2.17
  -2  -3  -2   18.75    2.29
   2  -3   2   21.80    2.28
  -2  -3  -2   20.61    1.82
   2  -3   2   21.20    2.83
   2   3   3   47.78    2.73
   2   3   3   40.77    3.13
  -2   3  -3   47.90    3.13
  -2   3  -3   44.52    3.12
  -2   3  -3   44.75    2.88
  -2  -3  -3   46.18    3.21
  -2  -3  -3   43.60    3.42
   2  -3   3   48.78    2.94
   2  -3   3   48.71    4.09
   2   3   4   -0.21    1.23
  -2   3  -4    0.56    1.51
  -2   3  -4   -1.20    1.31
  -2   3  -4   -0.39    1.24
   2   3   4    0.88    1.07
   2   3   4   -1.05    0.79
  -2  -3  -4   -0.87    1.51
   2  -3   4    0.65    1.52
  -2  -3  -4    0.87    1.22
   2  -3   4    1.10    1.00
  -2  -3  -4    3.13    2.06
   2   3   5   49.99    3.28
  -2   3  -5   51.29    4.12
   2   3   5   43.39    4.46
  -2   3  -5   57.82    4.18
   2   3   5   53.55    2.93
  -2   3  -5   44.69    3.55
   2  -3   5   52.52    3.12
  -2  -3  -5   52.97    4.53
  -2  -3  -5   49.06    4.74
  -2  -3  -5   49.88    4.56
   2  -3   5   45.22    4.89
  -2   3  -6    0.92    1.85
   2   3   6    3.48    1.89
  -2   3  -6    2.30    1.59
  -2   3  -6    0.72    1.26
   2   3   6    2.13    1.33
  -2  -3  -6   -3.55    1.58
  -2  -3  -6    0.75    1.46
  -2  -3  -6    3.28    2.13
   2  -3   6    2.12    2.36
  -2   3  -7    0.62    1.83
  -2   3  -7    2.64    1.49
   2   3   7    4.39    2.53
  -2   3  -7    2.28    1.64
  -2  -3  -7    2.23    1.68
  -2  -3  -7    0.27    1.75
   2  -3   7    0.29    2.12
  -2  -3  -7    2.65    2.30
   2   3   8    6.33    3.02
  -2   3  -8   10.44    2.98
  -2   3  -8    7.13    2.88
  -2   3  -8    7.42    2.26
  -2  -3  -8    5.67    2.92
   2  -3   8    6.17    2.94
  -2  -3  -8    7.38    2.59
  -2   3  -9    2.88    2.24
  -2   3  -9   -0.93    2.25
  -2  -3  -9    2.89    2.22
  -2  -3  -9    4.17    3.12
   2  -3   9    5.99    3.07
   2   4  -9   11.87    3.39
   2   4  -9    9.17    2.96
   2   4  -9   13.71    3.49
   2  -4  -9    8.99    2.76
   2  -4  -9    9.41    3.31
  -2  -4   9    0.27    3.34
   2   4  -8   10.47    2.82
   2   4  -8   18.36    3.31
   2   4  -8   11.80    3.01
   2  -4  -8   16.83    3.62
   2  -4  -8   10.81    2.82
  -2  -4   8   15.52    4.29
  -2  -4   8    8.38    3.27
   2   4  -7    1.80    1.75
   2   4  -7    0.12    1.80
   2   4  -7   -1.11    1.61
   2  -4  -7    0.46    1.83
  -2  -4   7    1.00    2.18
  -2  -4   7    0.11    2.52
   2  -4  -7   -0.25    1.90
   2   4  -6    2.39    1.45
   2   4  -6   -0.83    1.49
  -2   4   6    2.28    1.72
   2   4  -6    0.08    1.16
  -2  -4   6   -1.97    1.85
   2  -4  -6   -0.75    1.10
  -2  -4   6   -1.97    2.10
   2  -4  -6    1.36    1.91
   2   4  -5    0.36    1.59
  -2   4   5    2.17    1.60
   2   4  -5    0.35    1.50
   2   4  -5    2.16    1.45
   2  -4  -5    2.91    1.87
  -2  -4   5    0.86    0.60
  -2  -4   5   -1.03    2.10
  -2  -4   5    0.59    1.68
   2  -4  -5    1.92    1.68
   2   4  -4   20.62    2.73
   2   4  -4   15.57    2.54
   2   4  -4   18.03    2.87
  -2   4   4   22.00    2.70
   2  -4  -4   24.94    3.07
  -2  -4   4   25.01    3.80
   2  -4  -4   20.42    2.77
  -2  -4   4   22.45    3.62
   2   4  -3   59.29    3.82
  -2   4   3   54.67    2.69
  -2   4   3   54.16    3.32
   2   4  -3   53.85    3.99
   2   4  -3   56.13    3.76
   2  -4  -3   55.32    2.47
   2  -4  -3   52.93    3.62
   2  -4  -3   56.45    3.27
  -2  -4   3   56.51    4.44
  -2  -4   3   61.01    4.83
   2  -4  -3   52.01    3.73
   2   4  -2    5.26    1.53
  -2   4   2    7.08    1.39
   2   4  -2    8.51    1.67
  -2   4   2    6.97    1.15
   2   4  -2    4.08    1.45
  -2   4   2    6.87    1.81
   2  -4  -2    8.09    1.53
   2  -4  -2    7.58    1.35
  -2  -4   2    4.71    1.29
  -2  -4   2    7.36    2.30
   2  -4  -2    8.44    1.20
   2  -4  -2    6.74    1.62
  -2   4   1   38.24    2.88
   2   4  -1   42.42    3.20
  -2   4   1   45.59    2.16
  -2   4   1   52.80    3.23
  -2  -4   1   41.89    2.99
  -2  -4   1   41.72    3.00
   2  -4  -1   45.43    3.05
   2  -4  -1   40.46    2.94
  -2  -4   1   46.11    3.76
   2  -4  -1   45.70    3.08
   2   4   0   10.68    2.06
  -2   4   0   13.42    1.90
   2   4   0   12.03    1.79
   2  -4   0    9.71    1.67
  -2  -4   0   11.04    2.13
   2  -4   0   10.38    1.94
  -2  -4   0   10.77    1.85
   2  -4   0   11.16    1.77
  -2  -4   0   10.84    1.67
  -2   4  -1   88.92    4.49
   2   4   1   87.59    4.47
   2   4   1   97.70    4.76
  -2   4  -1   85.43    4.47
  -2   4  -1   94.74    4.60
   2   4   1   85.16    4.79
   2  -4   1   83.30    5.13
  -2  -4  -1   85.92    4.62
   2  -4   1   98.19    5.01
  -2  -4  -1   83.70    4.60
  -2  -4  -1   74.65    4.50
   2  -4   1   91.96    4.66
   2   4   2   51.74    3.45
  -2   4  -2   67.40    3.66
   2   4   2   57.51    3.51
  -2   4  -2   61.86    3.57
   2   4   2   55.57    4.10
  -2   4  -2   53.21    3.58
  -2   4  -2   60.80    3.81
  -2  -4  -2   55.79    3.79
  -2  -4  -2   57.94    3.86
   2  -4   2   53.76    4.13
   2  -4   2   60.04    3.78
  -2  -4  -2   62.85    3.54
   2   4   3   31.72    3.39
   2   4   3   33.92    2.63
  -2   4  -3   30.17    2.97
  -2   4  -3   28.70    3.10
  -2   4  -3   24.02    2.93
   2   4   3   30.39    3.35
  -2  -4  -3   34.81    3.43
  -2  -4  -3   28.39    3.27
  -2  -4  -3   32.39    2.34
   2  -4   3   31.43    3.99
  -2   4  -4   19.27    2.80
  -2   4  -4   21.07    2.60
   2   4   4   19.38    3.03
  -2   4  -4   23.62    3.05
   2   4   4   23.33    2.18
  -2  -4  -4   10.77    2.26
   2  -4   4   21.62    3.39
  -2  -4  -4   21.75    3.24
  -2   4  -5   25.73    3.49
   2   4   5   24.83    3.64
   2   4   5   28.14    2.68
  -2   4  -5   25.79    3.41
  -2   4  -5   31.50    3.45
  -2  -4  -5   26.64    3.47
  -2  -4  -5   24.82    3.61
   2  -4   5   33.32    4.56
  -2  -4  -5   25.30    3.95
  -2   4  -6    4.56    2.19
   2   4   6    8.16    2.38
   2   4   6    3.71    1.52
  -2   4  -6    5.85    1.94
  -2   4  -6    4.17    1.84
   2  -4   6    9.42    3.26
  -2  -4  -6    6.75    2.61
  -2  -4  -6    2.49    2.38
  -2  -4  -6    4.83    2.14
   2   4   7    1.14    1.71
  -2   4  -7    0.22    1.56
  -2   4  -7   -2.42    1.64
  -2   4  -7    1.96    1.70
   2  -4   7    2.26    1.92
  -2  -4  -7   -2.20    1.69
  -2  -4  -7    2.16    2.37
  -2  -4  -7    1.88    1.73
  -2   4  -8   16.30    3.07
   2   4   8   19.69    4.33
  -2   4  -8   15.27    3.68
  -2   4  -8   14.95    3.48
   2  -4   8   14.56    4.00
  -2  -4  -8   14.32    3.69
  -2  -4  -8   18.87    3.90
   2   4   9   37.99    5.66
  -2   4  -9   35.49    5.08
  -2  -4  -9   30.34    5.17
  -2  -4  -9   32.91    5.17
   2  -4   9   33.28    5.71
   2   5  -9   -1.07    2.26
   2   5  -9    3.72    2.31
   2   5  -9    4.67    3.03
   2  -5  -9    0.38    2.22
   2  -5  -9   -0.13    2.00
  -2  -5   9   -4.56    2.87
   2   5  -8   11.53    3.23
   2   5  -8    9.02    3.10
   2   5  -8   10.98    2.80
   2  -5  -8    9.98    4.11
   2  -5  -8   10.61    3.08
  -2  -5   8    8.49    3.98
   2  -5  -8   11.38    3.54
   2   5  -7    0.60    1.55
   2   5  -7   -0.71    1.83
   2   5  -7   -1.91    1.10
  -2  -5   7    5.38    2.93
   2  -5  -7    2.25    2.30
  -2  -5   7   -2.05    1.70
   2  -5  -7    0.90    1.97
  -2   5   6   65.74    4.89
   2   5  -6   64.70    4.97
   2   5  -6   72.50    5.56
   2   5  -6   57.91    4.69
   2  -5  -6   69.83    5.45
  -2  -5   6   56.35    6.12
  -2  -5   6   68.52    6.97
   2  -5  -6   58.94    5.63
   2   5  -5    2.12    1.85
   2   5  -5    0.90    1.82
   2   5  -5   -2.20    1.41
  -2   5   5    1.45    1.62
   2  -5  -5    2.13    1.80
  -2  -5   5   -0.11    2.31
   2  -5  -5    0.18    1.35
  -2  -5   5    0.07    2.42
   2   5  -4   58.49    4.55
  -2   5   4   66.70    2.95
  -2   5   4   68.50    4.26
   2   5  -4   72.28    4.63
   2   5  -4   62.12    4.36
  -2  -5   4   75.51    6.04
  -2  -5   4   58.26    5.14
   2  -5  -4   61.74    4.59
   2  -5  -4   68.14    4.81
   2   5  -3    9.40    2.12
   2   5  -3   13.42    2.36
  -2   5   3    7.78    1.65
  -2   5   3   11.30    1.69
   2   5  -3    8.54    2.11
   2  -5  -3   11.24    2.23
  -2  -5   3    8.95    2.59
   2  -5  -3    7.54    1.87
   2  -5  -3   10.54    1.47
  -2  -5   3    9.09    2.51
  -2   5   2   63.67    4.21
   2   5  -2   60.56    3.90
  -2   5   2   65.30    3.82
   2   5  -2   54.98    4.17
   2   5  -2   59.98    4.05
  -2   5   2   61.60    3.20
  -2  -5   2   58.57    4.08
   2  -5  -2   60.51    3.74
   2  -5  -2   59.80    4.07
  -2  -5   2   56.09    3.98
   2  -5  -2   65.86    4.19
  -2  -5   2   54.55    4.58
  -2   5   1    8.11    1.14
  -2   5   1    7.81    2.07
   2   5  -1    6.57    1.83
   2  -5  -1    5.45    1.80
  -2  -5   1    9.50    2.06
   2  -5  -1    5.53    1.90
  -2  -5   1    5.28    2.24
  -2  -5   1    6.15    1.53
   2  -5  -1    8.73    1.90
  -2   5   0   46.18    3.30
  -2   5   0   47.31    2.48
   2   5   0   45.27    3.23
   2   5   0   42.27    4.15
   2  -5   0   46.13    3.60
  -2  -5   0   52.40    3.69
   2  -5   0   47.85    3.46
   2  -5   0   42.11    3.42
  -2  -5   0   44.12    3.90
   2  -5   0   50.07    3.59
  -2  -5   0   42.34    3.77
  -2   5  -1    2.90    1.59
   2   5   1    3.94    1.58
   2   5   1    2.28    1.34
  -2  -5  -1    2.16    1.54
  -2  -5  -1    4.06    1.71
   2  -5   1    3.20    1.53
  -2  -5  -1    4.61    1.74
   2  -5   1    4.30    2.30
  -2   5  -2    1.39    1.59
  -2   5  -2   -0.20    1.01
   2   5   2    2.38    1.52
   2   5   2    0.26    1.33
  -2   5  -2   -0.67    1.26
  -2  -5  -2   -0.63    1.43
   2  -5   2   -0.54    1.50
  -2  -5  -2    2.06    1.53
  -2  -5  -2   -1.00    1.22
  -2   5  -3    1.10    1.37
  -2   5  -3   -0.06    1.45
   2   5   3   -1.50    1.33
   2   5   3   -1.55    1.63
  -2   5  -3    0.84    1.63
  -2  -5  -3   -2.57    1.32
   2  -5   3   -3.30    2.14
  -2  -5  -3    1.23    1.67
  -2  -5  -3    0.35    1.05
  -2   5  -4  112.12    6.43
  -2   5  -4  113.85    6.59
  -2   5  -4  122.42    6.32
   2   5   4  115.17    6.49
  -2  -5  -4  123.86    6.73
  -2  -5  -4  106.73    6.58
   2  -5   4   97.37    7.29
   2   5   5    4.61    1.37
  -2   5  -5    5.91    2.13
   2   5   5    1.80    1.89
  -2   5  -5    5.45    1.91
  -2   5  -5    2.17    2.04
  -2  -5  -5    2.59    2.09
   2  -5   5    0.02    1.72
  -2  -5  -5    1.50    1.90
  -2   5  -6    9.66    2.43
  -2   5  -6    6.61    2.48
   2   5   6    7.25    2.73
  -2   5  -6    8.14    2.23
  -2  -5  -6    8.17    3.37
  -2  -5  -6    8.24    2.72
   2  -5   6    4.72    2.95
  -2  -5  -6    3.75    2.16
   2   5   7    0.53    2.25
  -2   5  -7    4.66    2.10
  -2   5  -7   -4.13    1.59
  -2   5  -7    2.05    2.47
  -2  -5  -7    1.18    1.80
  -2  -5  -7    3.06    2.53
   2  -5   7    1.42    2.79
  -2  -5  -7   -4.54    2.28
   2   5   8    1.68    1.94
  -2   5  -8    7.68    2.87
  -2   5  -8    5.73    2.44
   2  -5   8    6.97    3.38
  -2  -5  -8    8.14    3.38
  -2  -5  -8    2.36    3.07
  -2  -5  -8    1.64    2.78
   2   5   9    2.79    2.82
  -2   5  -9   -0.19    1.73
   2  -5   9    1.78    2.93
  -2  -5  -9   -0.82    2.33
  -2  -5  -9    2.13    2.71
   2   6  -8   -0.92    2.02
   2   6  -8    0.29    1.68
   2   6  -8    0.81    2.24
   2  -6  -8    2.17    2.25
   2  -6  -8    2.18    2.64
  -2  -6   8   -2.63    3.12
   2  -6  -8   -8.02    2.56
   2   6  -7    1.37    2.26
   2   6  -7    1.12    2.12
   2   6  -7    2.35    2.51
   2  -6  -7    3.32    2.78
  -2  -6   7    1.15    3.54
   2  -6  -7    1.77    2.16
   2   6  -6   -0.46    2.23
  -2   6   6    2.09    1.63
   2   6  -6    0.83    1.94
   2   6  -6   -1.09    1.22
   2  -6  -6   -1.79    1.84
   2  -6  -6    0.23    1.46
  -2  -6   6    1.99    2.36
  -2  -6   6   -1.00    1.89
   2   6  -5   -0.56    1.71
   2   6  -5    4.38    2.19
   2   6  -5    6.47    2.55
  -2   6   5    2.66    1.59
  -2  -6   5    4.68    2.96
   2  -6  -5    2.95    1.68
  -2  -6   5    3.97    2.30
   2  -6  -5    3.16    2.14
  -2   6   4    0.21    1.24
   2   6  -4   -0.18    1.30
   2   6  -4    1.24    1.64
   2   6  -4    1.28    1.34
   2  -6  -4   -1.28    1.56
  -2  -6   4    2.87    2.67
   2  -6  -4   -0.12    1.71
  -2   6   3   29.17    2.74
   2   6  -3   29.13    3.58
   2   6  -3   34.70    3.71
   2   6  -3   26.98    3.57
   2  -6  -3   24.13    3.31
   2  -6  -3   31.45    3.86
   2  -6  -3   30.77    2.53
  -2  -6   3   20.94    3.10
  -2  -6   3   22.97    3.23
  -2  -6   3   26.93    4.01
   2   6  -2    3.66    2.28
  -2   6   2    2.23    1.88
  -2   6   2    4.14    1.21
   2  -6  -2    7.99    2.14
  -2  -6   2    4.38    2.57
  -2  -6   2    4.28    1.81
   2  -6  -2    2.68    1.76
   2  -6  -2    0.49    1.48
  -2  -6   2    1.32    1.60
  -2   6   1   -2.53    1.48
   2   6  -1    2.89    2.13
  -2   6   1    0.33    0.85
   2  -6  -1    3.27    1.94
  -2  -6   1    0.58    1.53
   2  -6  -1    2.41    1.70
   2  -6  -1   -1.55    1.35
  -2  -6   1    1.73    1.61
  -2  -6   1   -1.03    1.02
   2  -6  -1   -0.02    1.19
   2   6   0    9.64    1.98
   2   6   0    7.80    2.16
  -2   6   0    7.24    1.28
  -2   6   0    8.98    2.05
  -2  -6   0    7.58    1.93
   2  -6   0    7.95    1.91
   2  -6   0    5.37    2.31
   2  -6   0   10.34    2.24
  -2  -6   0    7.08    2.12
  -2  -6   0   10.69    2.34
  -2   6  -1    4.72    1.93
   2   6   1    4.83    2.31
   2   6   1    7.22    1.83
  -2  -6  -1    4.42    2.00
   2  -6   1    8.20    1.91
  -2  -6  -1    5.64    2.04
   2  -6   1    3.85    1.82
  -2  -6  -1    5.78    2.09
   2  -6   1    5.29    2.46
   2   6   2   -0.42    1.28
  -2   6  -2    1.50    1.27
   2   6   2    0.74    1.41
  -2   6  -2   -0.25    1.56
  -2  -6  -2   -0.12    1.21
  -2  -6  -2   -1.76    0.97
   2  -6   2    1.75    1.94
  -2  -6  -2   -1.43    1.44
  -2   6  -3   68.14    4.87
  -2   6  -3   64.69    4.70
   2   6   3   71.19    5.43
   2   6   3   62.50    4.50
  -2   6  -3   72.52    4.89
  -2  -6  -3   61.96    4.65
  -2  -6  -3   67.87    4.16
   2  -6   3   64.90    5.49
  -2  -6  -3   61.45    4.88
  -2   6  -4    5.43    2.13
  -2   6  -4    7.12    2.34
   2   6   4    7.98    2.29
  -2   6  -4    5.53    2.21
  -2  -6  -4    9.01    1.62
  -2  -6  -4    6.73    2.37
   2  -6   4    3.15    2.34
  -2  -6  -4    3.52    1.88
   2   6   5    7.89    2.51
  -2   6  -5   10.56    2.72
  -2   6  -5    8.85    2.63
  -2   6  -5    9.14    2.39
  -2  -6  -5    7.96    2.79
   2  -6   5    4.65    2.47
  -2  -6  -5    6.65    2.26
   2   6   6   10.30    2.83
  -2   6  -6   12.23    3.14
  -2   6  -6    9.87    2.69
  -2   6  -6   11.22    3.17
   2  -6   6    9.31    3.84
  -2  -6  -6   13.84    3.38
  -2  -6  -6   13.92    4.18
  -2  -6  -6   14.85    3.26
   2   6   7    0.32    1.69
  -2   6  -7    6.83    2.84
  -2   6  -7    3.17    2.39
  -2   6  -7    4.91    2.78
  -2  -6  -7    0.40    2.35
   2  -6   7   -1.03    2.99
  -2  -6  -7   -1.20    2.95
  -2  -6  -7   -0.07    2.33
  -2   6  -8   -2.68    2.19
   2   6   8    1.22    2.29
  -2  -6  -8   -1.71    2.40
  -2  -6  -8    1.55    2.81
   2  -6   8   -2.51    2.67
  -2  -6  -8   -0.83    3.18
   2   7  -8    1.17    2.84
   2   7  -8    1.87    2.22
   2   7  -8   -2.68    2.46
   2  -7  -8   -7.84    3.11
  -2  -7   8   -1.72    3.56
   2  -7  -8   -0.34    1.63
   2  -7  -8   -0.09    1.73
   2   7  -7   28.84    4.87
   2   7  -7   24.63    4.25
   2   7  -7   28.65    4.81
  -2  -7   7   30.67    6.15
   2  -7  -7   24.06    4.68
   2  -7  -7   26.25    4.70
   2   7  -6   33.63    4.56
   2   7  -6   23.83    4.38
   2   7  -6   28.85    4.39
  -2   7   6   25.95    3.55
  -2  -7   6   20.58    4.56
   2  -7  -6   31.63    4.86
   2  -7  -6   27.63    4.17
   2   7  -5   25.56    3.75
   2   7  -5   22.28    4.18
   2   7  -5   23.18    3.86
  -2   7   5   24.71    3.22
  -2  -7   5   21.84    4.43
   2  -7  -5   30.01    4.12
   2  -7  -5   21.23    3.73
  -2  -7   5   21.95    3.44
   2   7  -4    4.02    2.26
  -2   7   4    3.33    1.49
   2   7  -4    7.92    2.84
   2   7  -4    2.19    1.62
  -2  -7   4    4.31    2.21
  -2  -7   4    6.31    2.58
  -2  -7   4    1.86    2.32
   2  -7  -4    3.37    2.23
   2  -7  -4    4.94    1.98
  -2   7   3    4.66    1.41
   2   7  -3    1.26    2.24
   2  -7  -3    2.02    2.09
  -2  -7   3    3.90    3.11
   2  -7  -3    3.24    1.49
  -2  -7   3    2.61    1.66
  -2  -7   3    1.13    1.75
   2  -7  -3    4.88    2.14
  -2   7   2   -0.66    0.92
  -2   7   2   -0.05    1.85
   2   7  -2   -0.29    2.03
  -2  -7   2    0.75    1.71
   2  -7  -2    0.88    1.68
  -2  -7   2   -2.31    2.21
  -2  -7   2   -0.87    1.41
   2  -7  -2   -1.41    0.97
   2  -7  -2    2.56    1.91
   2   7  -1   53.56    3.78
   2   7  -1   43.88    4.75
  -2   7   1   51.65    2.91
  -2   7   1   57.63    4.41
   2  -7  -1   53.20    4.93
   2  -7  -1   46.73    4.67
   2  -7  -1   46.76    4.75
  -2  -7   1   60.06    4.33
  -2  -7   1   43.79    4.51
  -2  -7   1   50.79    5.52
  -2   7   0   20.32    3.32
   2   7   0   20.88    3.68
   2   7   0   23.39    2.96
  -2   7   0   19.93    1.99
  -2  -7   0   20.56    3.04
  -2  -7   0   24.17    3.72
   2  -7   0   18.44    3.06
  -2  -7   0   25.24    3.34
   2  -7   0   18.82    2.96
   2   7   1   13.20    2.29
  -2   7  -1   13.34    1.77
  -2   7  -1    9.85    2.44
   2   7   1    6.23    2.59
  -2  -7  -1   12.57    2.71
  -2  -7  -1   12.37    2.79
  -2  -7  -1   12.78    2.75
   2  -7   1    5.78    2.15
   2  -7   1   10.24    3.07
   2  -7   1    9.96    2.23
   2   7   2    0.32    1.97
  -2   7  -2   -1.50    1.68
   2   7   2    0.15    1.56
   2  -7   2   -4.67    2.10
  -2  -7  -2    2.76    1.76
  -2  -7  -2   -0.18    1.86
  -2  -7  -2   -0.06    1.73
  -2   7  -3   11.09    2.73
   2   7   3    7.53    2.19
  -2   7  -3   10.53    2.75
  -2   7  -3    5.91    2.30
   2   7   3    2.89    2.30
   2  -7   3    8.33    3.53
  -2  -7  -3    3.21    2.23
  -2  -7  -3    6.43    2.47
  -2  -7  -3    9.07    2.13
  -2   7  -4    0.94    1.81
   2   7   4   -2.89    1.37
  -2   7  -4    2.56    2.12
  -2   7  -4    1.80    1.43
  -2  -7  -4    0.46    1.96
   2  -7   4    2.15    2.34
  -2  -7  -4    1.34    1.61
  -2   7  -5    3.42    2.26
  -2   7  -5    7.00    2.57
   2   7   5    8.20    2.57
  -2   7  -5    5.53    2.76
   2  -7   5    5.20    2.73
  -2  -7  -5   10.84    3.15
  -2  -7  -5    5.65    2.32
  -2   7  -6   -0.87    1.51
   2   7   6    2.96    2.20
  -2   7  -6   -1.41    2.03
  -2   7  -6   -1.34    1.39
  -2  -7  -6   -0.97    2.43
   2  -7   6   -0.63    2.90
  -2  -7  -6    2.48    2.38
  -2  -7  -6    0.84    1.71
   2   7   7    0.93    2.34
  -2   7  -7    1.60    2.01
  -2  -7  -7    5.76    2.67
  -2  -7  -7    2.10    3.84
  -2  -7  -7   -3.48    2.23
   2  -7   7    0.53    3.51
   2   8  -7   -1.46    2.30
   2   8  -7    6.06    2.81
   2   8  -7    0.85    2.84
   2  -8  -7    4.34    3.06
  -2  -8   7    1.81    2.43
  -2  -8   7   -0.31    2.70
   2  -8  -7    0.70    2.63
   2   8  -6   -1.06    2.68
   2   8  -6    1.70    2.16
   2   8  -6    0.01    2.24
  -2  -8   6    4.40    2.56
   2  -8  -6   -4.03    1.80
   2  -8  -6    2.32    2.75
  -2  -8   6    0.80    3.85
   2   8  -5    9.83    3.05
   2   8  -5    7.67    2.86
   2   8  -5    4.29    2.61
  -2  -8   5    6.11    3.19
  -2  -8   5    4.34    2.38
   2  -8  -5    8.49    3.17
   2  -8  -5   11.11    3.20
   2   8  -4    2.72    2.14
  -2  -8   4    0.28    1.35
   2  -8  -4    4.29    2.45
  -2  -8   4    1.20    3.38
   2  -8  -4    1.79    2.28
   2   8  -3    5.71    2.89
   2  -8  -3    4.69    2.28
  -2  -8   3    7.27    2.53
  -2  -8   3   10.12    3.24
   2  -8  -3   12.00    2.90
  -2   8   2    4.73    2.03
   2   8  -2    2.65    1.92
   2  -8  -2    1.08    1.84
   2  -8  -2    2.95    1.83
  -2  -8   2    0.30    1.76
  -2  -8   2    6.44    2.84
   2  -8  -2    6.68    2.17
  -2  -8   2    4.39    2.08
   2   8  -1    1.09    1.75
   2   8  -1    5.00    1.81
  -2   8   1    6.10    2.55
   2  -8  -1    6.56    2.04
  -2  -8   1    1.81    1.51
   2  -8  -1    7.54    2.46
  -2  -8   1    5.05    2.04
   2  -8  -1    3.85    2.48
  -2  -8   1    0.83    2.33
   2   8   0    3.08    1.69
  -2   8   0    2.34    2.23
   2   8   0    3.90    2.52
   2  -8   0    0.01    2.20
  -2  -8   0   -1.22    1.84
  -2  -8   0    3.18    1.74
   2  -8   0   -0.63    1.70
   2  -8   0   -0.61    1.22
  -2  -8   0   -0.88    1.18
  -2   8  -1    0.21    0.95
   2   8   1   -0.41    1.33
   2   8   1    0.40    2.20
  -2   8  -1    0.54    1.90
  -2  -8  -1   -0.37    1.73
   2  -8   1    2.96    2.89
   2  -8   1   -0.71    1.71
   2  -8   1   -0.20    1.59
  -2  -8  -1    1.04    1.90
  -2  -8  -1    2.79    2.13
   2   8   2   26.09    3.36
  -2   8  -2   23.76    3.84
   2   8   2   25.81    4.05
   2  -8   2   22.09    3.65
  -2  -8  -2   24.58    3.58
   2  -8   2   27.18    3.91
  -2  -8  -2   27.31    4.17
  -2  -8  -2   29.02    3.91
   2  -8   2   27.85    4.82
  -2   8  -3    6.51    2.63
   2   8   3    5.86    2.10
   2   8   3    4.50    2.68
  -2  -8  -3    2.32    2.22
  -2  -8  -3    6.99    2.74
   2  -8   3    4.88    3.31
   2  -8   3    2.70    1.67
  -2  -8  -3    5.39    2.35
   2  -8   3    2.79    1.84
  -2   8  -4   30.35    4.16
   2   8   4   24.55    3.79
  -2   8  -4   27.95    4.87
  -2   8  -4   26.35    4.23
  -2  -8  -4   28.05    4.31
   2  -8   4   35.73    5.83
  -2  -8  -4   26.74    4.46
  -2   8  -5   -1.70    1.88
  -2   8  -5   -1.99    2.17
   2   8   5   -2.29    1.92
   2  -8   5    1.49    3.34
  -2  -8  -5    0.95    2.23
  -2  -8  -5    2.43    2.10
   2   8   6    7.77    2.72
  -2   8  -6    4.38    2.77
  -2  -8  -6    0.43    2.55
   2  -8   6    2.91    3.20
   2  -8   6    1.18    3.50
  -2  -8  -6    2.80    3.07
  -2  -8  -6   -3.16    3.48
  -2   8  -7   -1.39    2.32
   2  -8   7   -6.89    3.47
  -2  -8  -7   -0.86    2.49
  -2  -8  -7   -5.55    3.48
   2  -8   7    0.10    2.64
   2   9  -6   12.32    3.88
   2   9  -6    4.88    3.68
   2   9  -6   16.16    5.75
   2  -9  -6   14.14    3.45
  -2  -9   6    8.69    3.08
  -2  -9   6    6.09    4.49
   2  -9  -6    9.94    3.32
   2   9  -5   -4.32    2.41
   2  -9  -5    0.53    2.49
  -2  -9   5    0.09    2.19
  -2  -9   5    2.75    4.08
   2  -9  -5    7.54    3.14
   2   9  -4    1.03    2.14
   2  -9  -4   -0.52    1.60
  -2  -9   4   -1.24    2.14
  -2  -9   4    0.47    3.50
   2  -9  -4    0.22    1.62
   2   9  -3   -0.16    1.88
   2  -9  -3    5.66    2.62
  -2  -9   3   -0.04    1.52
  -2  -9   3   -0.87    3.00
   2  -9  -3    4.33    2.61
   2   9  -2   10.05    3.58
   2   9  -2   17.01    2.95
  -2   9   2   10.09    3.05
   2  -9  -2   18.71    3.61
  -2  -9   2    4.78    3.22
   2  -9  -2   12.61    3.06
   2  -9  -2   15.53    3.43
  -2  -9   2   10.21    2.63
  -2   9   1    1.95    2.35
   2   9  -1   -1.62    1.70
   2   9  -1   -1.01    1.37
   2  -9  -1   -1.33    1.79
  -2  -9   1   -1.08    2.03
   2  -9  -1    0.58    2.09
  -2  -9   1    0.04    1.57
   2  -9  -1   -0.40    2.38
  -2  -9   1    4.02    2.85
   2   9   0   24.54    4.18
   2   9   0   28.89    3.51
  -2   9   0   31.21    4.67
   2  -9   0   26.08    4.28
   2  -9   0   34.16    4.63
  -2  -9   0   26.83    4.46
  -2  -9   0   32.47    4.56
   2  -9   0   26.42    4.70
  -2  -9   0   29.66    4.22
   2   9   1    7.18    2.09
  -2   9  -1    4.19    2.02
   2   9   1    5.58    2.59
   2  -9   1    2.62    2.98
   2  -9   1    6.93    2.67
  -2  -9  -1    7.84    2.79
  -2  -9  -1    7.77    2.47
  -2  -9  -1    5.21    2.55
   2  -9   1    5.82    2.27
   2   9   2    0.21    1.63
  -2   9  -2    0.87    2.22
   2  -9   2   -4.06    2.73
  -2  -9  -2   -1.00    1.95
   2  -9   2    1.40    2.08
   2  -9   2   -0.19    1.97
  -2  -9  -2   -2.48    1.58
  -2  -9  -2   -3.32    1.99
  -2   9  -3    4.54    2.96
   2   9   3    4.62    2.47
  -2  -9  -3    0.40    2.24
  -2  -9  -3   11.91    3.54
   2  -9   3   10.16    3.13
   2  -9   3    6.84    2.78
   2  -9   3    0.82    2.63
   2  -9   3    6.34    3.15
  -2   9  -4    2.31    2.66
   2  -9   4    5.28    2.38
   2  -9   4    6.07    3.56
  -2  -9  -4    6.09    3.08
   2  -9   4    8.81    4.37
  -2  -9  -4    4.68    2.86
   2  -9   5    1.43    3.76
   2  -9   5   -0.85    1.56
  -2  -9  -5    2.84    2.86
   2  -9   5   -0.37    2.77
  -2   9  -6   12.82    3.87
  -2  -9  -6    5.08    3.89
  -2  -9  -6    5.21    3.50
   2  -9   6   11.65    4.86
   2  -9   6    5.36    5.16
   2 -10  -5    2.30    2.88
  -2 -10   5    2.18    3.07
   2  10  -4    5.47    3.91
   2 -10  -4   13.87    3.94
   2 -10  -4   18.14    4.15
  -2 -10   4   14.74    3.57
  -2 -10   4   17.99    4.89
   2  10  -3    2.01    3.06
  -2 -10   3    1.95    2.05
   2 -10  -3   -0.12    2.41
  -2 -10   3    0.22    3.34
   2 -10  -3    0.01    1.65
   2  10  -2    2.97    3.27
  -2  10   2   11.37    3.35
  -2 -10   2    9.59    3.10
  -2 -10   2    5.08    3.39
   2 -10  -2    7.98    2.81
   2 -10  -2   11.15    3.58
  -2  10   1    0.31    2.44
   2  10  -1   -0.77    1.87
  -2 -10   1   -0.91    2.87
   2 -10  -1   -0.14    2.21
   2 -10  -1    0.16    2.11
   2 -10  -1   -0.79    2.16
  -2 -10   1   -0.05    1.50
  -2  10   0    5.76    3.04
   2  10   0    2.51    3.03
   2 -10   0    6.63    2.50
   2 -10   0    8.87    3.04
   2 -10   0    1.62    2.81
  -2 -10   0   10.01    3.45
  -2 -10   0   10.16    3.19
  -2  10  -1    1.11    2.61
   2  10   1    7.77    3.60
   2 -10   1    2.57    3.25
   2 -10   1   10.10    2.91
  -2 -10  -1    4.39    2.84
   2 -10   1    6.32    2.94
  -2 -10  -1    1.94    2.54
  -2  10  -2   31.37    4.99
   2  10   2   30.54    4.98
   2 -10   2   21.91    5.45
   2 -10   2   34.46    4.81
  -2 -10  -2   26.80    4.53
   2  10   3    5.79    2.81
  -2  10  -3    8.11    3.42
   2 -10   3    5.10    3.50
  -2 -10  -3   10.72    3.05
   2 -10   3    5.17    2.47
   2 -10   4    3.47    3.46
   2 -10   4   12.01    3.47
  -2 -10  -4    2.16    2.64
   2  11  -2    1.96    2.45
  -2 -11   2    3.55    2.65
  -2 -11   2   -0.35    3.10
   2 -11  -2    1.00    2.20
   2 -11  -2    0.14    2.60
  -2  11   1    2.11    2.18
   2  11  -1   -0.75    2.05
  -2 -11   1    4.25    2.75
  -2 -11   1   -0.64    1.97
   2 -11  -1    1.11    2.33
   2  11   0   -2.44    2.77
  -2  11   0   -0.42    2.42
  -2 -11   0    4.51    3.02
  -2 -11   0    5.30    2.96
   2 -11   0   -2.20    2.56
   2 -11   0    1.69    2.69
   2  11   1    3.93    3.21
  -2  11  -1    3.57    3.17
   2 -11   1    0.01    1.81
   2 -11   1    2.99    3.43
  -2 -11  -1    1.02    2.59
   2  11   2   15.47    4.40
  -2  11  -2    5.98    3.45
   2 -11   2    6.69    4.42
   2 -11   2   10.41    3.17
  -2 -11  -2    9.15    3.36
   3   0 -10    2.36    2.36
   3   0 -10    5.58    2.92
   3   0  -9    1.03    2.17
   3   0  -9    0.26    1.42
   3   0  -8   42.99    4.67
   3   0  -8   35.92    4.43
   3   0  -7    2.73    1.75
  -3   0   7    0.07    1.33
   3   0  -7   -0.54    1.62
   3   0  -6   31.92    3.49
   3   0  -6   30.87    3.38
  -3   0   6   28.80    3.05
  -3   0   5   -0.12    1.24
  -3   0   5    0.03    1.27
   3   0  -5   -0.45    1.23
   3   0  -5    1.77    1.16
   3   0  -5    0.61    0.54
   3   0  -5   -0.43    1.06
  -3   0   4   77.91    4.03
  -3   0   4   78.29    3.82
   3   0  -4   84.05    4.14
   3   0  -4   74.79    3.98
   3   0  -4   84.11    3.93
   3   0  -3   -1.04    0.69
  -3   0   3   -0.18    0.55
   3   0  -3    0.04    0.44
   3   0  -3   -0.14    0.67
   3   0  -3   -0.33    0.67
  -3   0   3   -0.46    0.83
  -3   0   2   25.05    1.26
   3   0  -2   24.78    1.45
  -3   0   2   25.67    1.79
   3   0  -2   25.92    1.47
   3   0  -2   26.72    1.88
   3   0  -2   24.10    1.48
  -3   0   2   25.66    1.32
   3   0  -1   -0.69    0.58
   3   0  -1   -0.78    0.51
  -3   0   1    0.12    0.67
  -3   0   1    0.00    0.57
   3   0   0   53.24    2.61
   3   0   0   53.57    2.62
   3   0   0   56.33    2.21
  -3   0   0   54.10    2.61
  -3   0   0   54.26    2.06
   3   0   0   54.34    2.09
   3   0   0   54.80    2.13
  -3   0   0   57.97    2.53
   3   0   0   52.43    2.47
  -3   0   0   53.15    2.59
   3   0   1   -0.91    0.57
   3   0   1   -0.16    0.70
  -3   0  -1   -0.20    0.83
   3   0   1    0.01    0.47
  -3   0  -1   -0.59    0.60
   3   0   1   -0.49    0.40
  -3   0  -1   -0.42    0.43
  -3   0  -1   -0.73    0.60
   3   0   1   -0.15    0.68
   3   0   1   -0.11    0.88
  -3   0  -2  397.60   14.80
  -3   0  -2  423.61   15.10
   3   0   2  418.47   14.97
   3   0   2  422.81   14.90
   3   0   2  390.05   15.05
   3   0   2  417.58   14.92
   3   0   2  397.02   15.02
  -3   0  -2  430.52   15.15
  -3   0  -2  431.59   14.50
  -3   0  -2  404.73   14.92
  -3   0  -2  420.50   14.86
   3   0   3   -0.88    0.94
   3   0   3    1.99    1.46
  -3   0  -3    0.38    1.09
  -3   0  -3   -0.05    1.08
   3   0   3    0.53    0.79
   3   0   3    0.25    1.14
  -3   0  -3    0.53    0.98
  -3   0  -3   -0.51    1.11
  -3   0  -4    8.62    1.99
  -3   0  -4    2.61    1.72
  -3   0  -4    8.34    1.68
   3   0   4    6.06    1.95
   3   0   4    5.94    1.85
   3   0   4    6.15    1.56
  -3   0  -5    0.87    1.63
  -3   0  -5   -1.30    1.47
   3   0   5    0.88    1.57
   3   0   5   -1.02    1.31
  -3   0  -5   -0.16    1.18
  -3   0  -6    0.25    1.41
   3   0   6   -2.36    1.52
  -3   0  -6    3.14    1.42
  -3   0  -6    1.42    1.88
   3   0   6    0.89    1.66
   3   0   7   -0.68    1.71
  -3   0  -7   -1.70    1.03
   3   0   7   -2.16    1.97
  -3   0  -7   -1.26    1.64
  -3   0  -7   -0.53    1.08
  -3   0  -8    1.72    2.13
   3   0   8    4.73    2.53
  -3   0  -8    4.96    2.65
  -3   0  -9   -2.18    2.26
  -3   0  -9   -1.94    1.43
   3   1 -10    3.00    2.58
   3   1 -10    2.25    2.59
   3  -1 -10    9.44    3.23
   3  -1 -10    0.02    1.99
   3   1  -9    3.24    2.35
   3   1  -9    2.53    1.85
   3  -1  -9    3.99    2.57
   3  -1  -9    0.51    2.14
   3   1  -8    7.63    2.27
   3   1  -8    7.19    2.53
   3  -1  -8    1.71    2.03
  -3  -1   8    1.71    1.95
   3  -1  -8    2.62    1.79
   3   1  -7    5.73    1.92
   3   1  -7    1.86    1.88
  -3   1   7    3.10    1.10
   3  -1  -7    2.05    1.97
  -3  -1   7    3.52    2.14
   3  -1  -7    3.49    1.94
   3   1  -6   11.84    2.15
   3   1  -6   12.36    2.45
  -3   1   6   14.63    1.72
  -3  -1   6   12.24    2.65
   3  -1  -6    8.00    2.17
   3  -1  -6   13.10    1.51
  -3  -1   6   15.74    2.60
   3  -1  -6   10.92    2.26
   3  -1  -6   16.13    1.98
   3   1  -5   50.02    3.49
   3   1  -5   40.19    3.26
  -3   1   5   46.16    2.65
  -3   1   5   51.89    3.57
   3  -1  -5   46.89    2.44
  -3  -1   5   45.82    3.65
   3  -1  -5   47.31    3.45
  -3  -1   5   42.32    3.45
   3  -1  -5   45.18    3.48
   3   1  -4   53.65    3.22
   3   1  -4   49.25    3.14
  -3   1   4   57.85    3.07
   3   1  -4   55.20    3.50
  -3   1   4   55.97    2.64
  -3  -1   4   55.62    3.10
   3  -1  -4   53.99    2.43
   3  -1  -4   46.60    3.11
  -3  -1   4   51.57    3.46
  -3  -1   4   54.59    3.62
   3  -1  -4   50.04    3.24
   3   1  -3    7.86    1.24
  -3   1   3    7.58    0.89
   3   1  -3    7.28    1.48
  -3   1   3    8.02    1.07
   3   1  -3    4.61    1.03
   3  -1  -3    7.96    1.26
   3  -1  -3    7.76    1.23
  -3  -1   3    5.50    1.48
   3  -1  -3    7.10    0.71
   3  -1  -3    7.71    1.52
  -3  -1   3    7.16    1.09
   3   1  -2  123.52    4.91
   3   1  -2  130.58    4.76
   3   1  -2  135.28    5.59
  -3   1   2  124.13    4.62
   3   1  -2  127.59    5.61
   3   1  -2  124.70    4.93
  -3   1   2  126.61    4.71
  -3   1   2  122.89    4.75
   3  -1  -2  129.90    5.19
  -3  -1   2  124.96    4.82
  -3  -1   2  122.14    4.69
   3  -1  -2  127.83    4.83
   3  -1  -2  128.28    4.79
  -3  -1   2  124.91    5.47
  -3  -1   2  129.14    4.81
   3  -1  -2  123.89    4.84
   3   1  -1    3.42    0.86
   3   1  -1    2.96    0.57
   3   1  -1    3.18    0.62
   3   1  -1    3.05    0.57
   3   1  -1    2.73    0.92
   3   1  -1    1.31    0.86
   3  -1  -1    2.26    0.66
  -3  -1   1    2.87    0.55
  -3  -1   1    2.94    0.51
   3  -1  -1    2.99    0.77
  -3  -1   1    2.37    1.09
  -3  -1   1    1.96    0.49
  -3  -1   1    2.12    0.80
  -3  -1   1    2.75    0.48
  -3   1   0    1.34    0.46
   3   1   0    1.75    0.74
   3   1   0    1.62    0.58
   3   1   0    1.73    0.76
  -3   1   0    1.98    0.87
   3   1   0    2.03    0.57
   3   1   0    1.11    0.73
  -3   1   0    1.33    0.50
  -3   1   0    0.60    0.87
   3   1   0    1.74    0.95
   3  -1   0    0.78    0.46
  -3  -1   0    2.26    1.05
  -3  -1   0    1.60    0.62
   3  -1   0    1.23    0.50
  -3  -1   0    2.03    0.58
   3  -1   0    1.66    0.51
   3  -1   0    1.46    0.66
  -3  -1   0    1.08    0.70
  -3  -1   0    0.90    0.69
   3  -1   0    1.95    0.47
   3  -1   0    1.39    0.40
   3   1   1  110.98    4.93
  -3   1  -1  112.05    4.64
  -3   1  -1  116.12    4.97
  -3   1  -1  111.28    4.89
  -3   1  -1  111.81    4.52
   3   1   1  113.16    4.64
   3   1   1  118.96    4.72
   3   1   1  115.66    4.70
   3   1   1  116.53    4.88
   3   1   1  119.95    5.18
   3  -1   1  112.11    5.00
  -3  -1  -1  109.58    5.08
  -3  -1  -1  117.15    4.71
  -3  -1  -1  109.41    4.76
  -3  -1  -1  116.79    4.70
  -3  -1  -1  118.31    4.95
   3  -1   1  115.33    4.90
   3  -1   1  116.43    4.61
   3  -1   1  116.59    4.60
   3  -1   1  111.64    4.65
  -3  -1  -1  102.27    4.95
  -3   1  -2  118.08    5.46
  -3   1  -2  132.22    5.40
   3   1   2  122.69    5.23
  -3   1  -2  126.42    5.26
   3   1   2  126.45    5.53
   3   1   2  118.59    5.21
  -3   1  -2  117.23    5.10
  -3   1  -2  121.66    5.22
   3   1   2  117.97    5.16
   3   1   2  114.76    5.49
   3   1   2  118.84    5.30
   3  -1   2  118.70    5.54
   3  -1   2  122.16    5.19
   3  -1   2  120.19    5.25
  -3  -1  -2  128.27    5.56
  -3  -1  -2  123.82    5.12
  -3  -1  -2  115.96    5.48
   3  -1   2  129.38    5.29
   3  -1   2  109.21    5.22
  -3  -1  -2  115.87    5.17
  -3  -1  -2  117.82    5.24
  -3   1  -3    4.54    1.18
   3   1   3    6.00    1.39
  -3   1  -3    5.89    1.25
   3   1   3    4.01    1.64
  -3   1  -3    3.67    1.34
   3   1   3    6.79    1.34
   3   1   3    2.72    1.26
  -3  -1  -3    3.60    1.38
   3  -1   3    5.89    1.31
   3  -1   3    6.19    1.30
  -3  -1  -3    5.76    1.39
  -3  -1  -3    4.94    1.50
  -3  -1  -3    6.83    1.52
   3  -1   3    6.23    1.49
   3  -1   3    7.61    1.59
   3   1   4   45.33    3.58
  -3   1  -4   44.28    3.43
   3   1   4   39.57    3.17
  -3   1  -4   44.02    2.83
  -3   1  -4   42.34    3.43
  -3  -1  -4   39.63    3.60
   3  -1   4   44.23    2.96
   3  -1   4   44.79    3.81
  -3  -1  -4   41.33    3.73
  -3  -1  -4   43.63    3.29
   3  -1   4   48.70    3.95
  -3   1  -5   -1.58    1.45
   3   1   5   -0.61    1.33
  -3   1  -5    0.76    1.63
  -3   1  -5   -0.37    0.97
   3   1   5    0.29    1.44
  -3  -1  -5    0.99    1.61
   3  -1   5   -1.46    1.66
   3  -1   5    0.43    1.43
  -3  -1  -5   -1.06    1.03
  -3  -1  -5   -1.18    1.30
   3  -1   5   -2.81    1.86
  -3   1  -6    4.33    1.40
  -3   1  -6    4.91    1.87
   3   1   6    6.41    2.28
  -3   1  -6    4.18    1.69
   3   1   6    1.79    1.64
   3  -1   6    0.00    2.17
  -3  -1  -6    3.53    2.10
  -3  -1  -6    3.91    2.04
  -3  -1  -6    3.55    1.70
   3  -1   6    1.07    1.85
  -3   1  -7   40.75    4.76
   3   1   7   54.03    4.99
   3   1   7   45.24    5.54
  -3   1  -7   60.38    4.71
  -3  -1  -7   35.24    4.65
   3  -1   7   46.13    5.14
  -3  -1  -7   52.51    4.01
  -3  -1  -7   46.88    5.10
  -3   1  -8    4.56    2.29
  -3   1  -8    8.29    2.81
   3   1   8    7.45    3.06
  -3  -1  -8    4.60    2.53
  -3  -1  -8    4.54    2.58
   3  -1   8    6.98    2.69
  -3   1  -9   22.59    4.43
  -3   1  -9   12.13    3.20
  -3  -1  -9   15.37    3.76
  -3  -1  -9   20.24    4.35
   3   2 -10   -3.32    1.95
   3   2 -10    2.73    2.42
   3  -2 -10    1.31    2.50
   3  -2 -10   -2.24    1.97
   3   2  -9   19.41    3.67
   3   2  -9   14.44    3.41
   3  -2  -9   22.34    4.19
   3  -2  -9   21.87    4.01
   3   2  -8    2.97    1.94
   3   2  -8   -0.67    1.29
  -3  -2   8   -0.29    2.13
   3  -2  -8   -2.09    1.76
   3  -2  -8   -1.77    1.41
   3   2  -7   40.16    4.31
   3   2  -7   34.19    3.94
   3  -2  -7   29.53    3.92
   3  -2  -7   36.90    3.56
  -3  -2   7   37.39    4.52
  -3  -2   7   28.90    3.89
   3  -2  -7   32.50    4.01
   3   2  -6   37.27    3.84
   3   2  -6   40.30    3.84
  -3  -2   6   45.14    4.62
   3  -2  -6   44.82    3.55
  -3  -2   6   40.72    4.32
   3  -2  -6   41.80    4.21
   3   2  -5   -0.93    1.24
   3   2  -5    0.08    1.32
   3  -2  -5   -0.27    1.32
  -3  -2   5   -0.64    1.66
  -3  -2   5   -0.10    1.63
   3  -2  -5   -0.66    1.24
   3   2  -4   64.99    3.69
  -3   2   4   65.35    3.42
   3   2  -4   62.33    3.62
  -3  -2   4   61.98    4.34
  -3  -2   4   70.28    3.63
   3  -2  -4   61.63    3.73
   3  -2  -4   61.68    3.77
  -3  -2   4   65.27    4.57
  -3   2   3  210.92    7.62
   3   2  -3  191.58    8.28
   3   2  -3  205.32    7.89
   3   2  -3  188.38    7.84
   3  -2  -3  214.17    8.02
   3  -2  -3  192.75    7.77
  -3  -2   3  185.51    8.58
   3  -2  -3  192.58    7.78
  -3  -2   3  191.78    6.98
  -3  -2   3  194.77    7.66
   3   2  -2   65.91    3.21
   3   2  -2   72.98    3.92
   3   2  -2   66.37    3.30
  -3   2   2   73.06    3.19
   3   2  -2   66.69    3.74
   3  -2  -2   69.97    3.22
  -3  -2   2   70.78    3.18
  -3  -2   2   67.55    3.20
  -3  -2   2   64.27    3.85
   3  -2  -2   68.68    3.20
  -3  -2   2   67.76    3.16
   3  -2  -2   69.08    2.80
   3  -2  -2   70.46    3.17
   3  -2  -2   69.48    2.68
   3   2  -1  119.76    4.85
  -3   2   1  121.53    4.77
   3   2  -1  117.05    4.82
   3   2  -1  114.74    5.18
   3   2  -1  133.00    5.71
   3   2  -1  114.36    4.78
  -3  -2   1  121.74    4.80
  -3  -2   1  115.88    4.71
   3  -2  -1  122.97    5.06
   3  -2  -1  119.39    4.77
  -3  -2   1  118.79    5.12
   3  -2  -1  122.20    4.84
  -3  -2   1  113.24    5.38
  -3  -2   1  124.52    5.22
   3  -2  -1  118.13    4.20
  -3  -2   1  117.81    4.79
   3   2   0  137.64    5.39
  -3   2   0  137.84    5.20
   3   2   0  138.19    5.82
  -3   2   0  140.43    4.70
   3   2   0  123.24    5.73
  -3   2   0  140.61    5.70
   3   2   0  125.93    5.57
   3   2   0  134.13    5.41
  -3  -2   0  127.56    5.88
  -3  -2   0  128.14    5.71
   3  -2   0  136.79    5.32
   3  -2   0  136.88    5.73
   3  -2   0  137.37    5.29
  -3  -2   0  147.85    5.83
  -3  -2   0  125.80    5.33
   3  -2   0  135.01    5.24
   3   2   1    2.14    0.93
   3   2   1    2.05    0.99
  -3   2  -1    2.81    0.91
   3   2   1    3.20    0.89
  -3   2  -1    2.42    0.73
  -3   2  -1    2.96    0.89
   3   2   1    1.65    1.04
  -3   2  -1    2.28    0.68
   3   2   1    2.76    1.02
  -3   2  -1    1.41    0.96
  -3  -2  -1    2.43    0.91
   3  -2   1    3.27    1.01
   3  -2   1    1.24    0.90
  -3  -2  -1    2.39    1.09
  -3  -2  -1    3.89    1.08
   3  -2   1    0.74    0.80
  -3  -2  -1    5.02    1.36
   3  -2   1    3.90    0.97
  -3  -2  -1    1.56    1.04
   3  -2   1    2.51    0.64
   3  -2   1    4.88    1.59
  -3  -2  -1    1.50    0.87
   3   2   2   63.48    3.61
   3   2   2   63.13    3.40
  -3   2  -2   61.68    2.86
  -3   2  -2   66.63    3.50
   3   2   2   64.63    3.65
   3   2   2   67.00    3.38
  -3   2  -2   62.45    3.44
  -3   2  -2   63.41    3.39
  -3  -2  -2   59.30    3.89
  -3  -2  -2   66.13    3.33
  -3  -2  -2   68.18    3.51
   3  -2   2   57.51    3.41
  -3  -2  -2   64.93    3.49
  -3  -2  -2   67.10    3.58
   3  -2   2   60.23    4.01
   3  -2   2   69.01    3.50
   3  -2   2   64.43    3.40
  -3   2  -3   78.80    4.30
  -3   2  -3   85.09    3.87
   3   2   3   83.42    4.05
   3   2   3   81.43    4.44
   3   2   3   80.63    4.75
   3   2   3   76.73    4.12
  -3   2  -3   83.41    4.39
   3  -2   3   86.06    4.40
   3  -2   3   84.77    4.88
  -3  -2  -3   77.86    4.74
   3  -2   3   83.93    4.13
  -3  -2  -3   79.06    4.52
  -3  -2  -3   82.59    4.49
   3  -2   3   78.31    4.60
   3   2   4    2.33    1.13
  -3   2  -4   -1.96    1.18
   3   2   4    0.39    1.18
  -3   2  -4   -0.38    1.01
   3   2   4   -0.72    1.75
   3  -2   4    0.08    1.89
   3  -2   4    1.24    1.08
   3  -2   4   -2.47    1.63
  -3  -2  -4    1.41    1.73
  -3  -2  -4   -0.09    1.46
  -3  -2  -4   -1.50    1.43
   3   2   5   -1.04    1.32
   3   2   5    0.66    1.48
  -3   2  -5    0.22    1.63
  -3   2  -5   -0.98    1.50
   3  -2   5    2.58    2.24
  -3  -2  -5   -0.43    1.62
  -3  -2  -5    1.58    1.85
   3  -2   5   -0.04    1.18
  -3  -2  -5   -1.22    1.62
   3   2   6   16.72    3.18
   3   2   6   28.92    3.31
  -3   2  -6   26.33    3.52
  -3   2  -6   19.68    3.35
  -3  -2  -6   23.79    3.35
  -3  -2  -6   25.97    3.48
   3  -2   6   23.68    3.88
  -3  -2  -6   24.42    3.33
   3   2   7   10.37    2.82
   3   2   7    9.25    2.27
  -3   2  -7   12.19    2.91
  -3   2  -7   14.15    3.09
  -3  -2  -7   16.95    3.47
  -3  -2  -7   11.14    3.00
   3  -2   7   10.66    2.98
  -3  -2  -7   15.61    2.96
  -3   2  -8   -0.12    1.53
   3   2   8   -3.32    1.94
  -3   2  -8    0.29    2.21
  -3  -2  -8    2.78    2.37
   3  -2   8    0.94    2.03
  -3  -2  -8   -1.56    2.00
  -3   2  -9   10.13    2.93
  -3   2  -9   12.98    3.69
   3  -2   9   15.87    3.95
  -3  -2  -9    3.75    2.96
  -3  -2  -9   10.44    3.12
   3   3 -10    5.36    2.72
   3   3 -10    3.88    2.25
   3   3 -10    7.91    2.71
   3  -3 -10    4.77    2.93
   3  -3 -10   -2.48    1.92
   3   3  -9    4.11    2.14
   3   3  -9    0.53    2.13
   3   3  -9    0.01    1.52
   3  -3  -9    4.31    2.06
  -3  -3   9    0.72    2.78
   3  -3  -9    3.98    2.66
   3   3  -8    1.20    2.04
   3   3  -8    5.72    2.37
   3   3  -8    7.04    2.42
  -3  -3   8    6.11    2.98
   3  -3  -8    5.17    2.31
   3  -3  -8    3.16    2.21
   3   3  -7   24.32    3.51
   3   3  -7   24.76    3.53
   3   3  -7   21.28    3.38
  -3  -3   7   23.86    3.77
   3  -3  -7   22.93    3.42
   3  -3  -7   25.76    3.86
  -3  -3   7   31.41    4.57
   3   3  -6    7.97    2.31
   3   3  -6    9.18    2.06
   3   3  -6   12.40    2.52
  -3  -3   6   10.52    2.83
  -3  -3   6   11.40    3.03
   3  -3  -6    9.30    2.22
   3  -3  -6    9.08    2.50
   3   3  -5   84.68    5.07
   3   3  -5   84.04    5.44
   3   3  -5   93.06    5.21
   3  -3  -5   79.03    4.90
  -3  -3   5   76.49    5.44
  -3  -3   5   82.92    5.48
   3  -3  -5   90.15    5.06
   3   3  -4   27.57    2.95
  -3   3   4   25.53    2.83
  -3   3   4   33.98    2.86
   3   3  -4   29.28    3.18
   3   3  -4   30.27    3.02
   3  -3  -4   30.00    2.98
  -3  -3   4   27.50    3.44
  -3  -3   4   27.34    1.59
   3  -3  -4   28.86    2.87
  -3  -3   4   35.98    3.95
   3   3  -3   -0.16    0.93
   3   3  -3    1.18    0.80
  -3   3   3   -0.76    0.92
   3   3  -3   -0.57    0.93
  -3   3   3   -0.04    0.78
   3  -3  -3    0.75    0.95
   3  -3  -3    1.10    0.97
   3  -3  -3    2.30    1.12
  -3  -3   3   -1.15    0.97
  -3  -3   3   -0.73    0.82
   3   3  -2   13.86    1.79
  -3   3   2   13.91    1.28
  -3   3   2   13.86    1.36
   3   3  -2   17.96    2.14
   3   3  -2   11.80    1.58
  -3  -3   2   15.05    1.71
   3  -3  -2   12.54    1.36
  -3  -3   2   13.00    1.73
  -3  -3   2   13.89    2.22
   3  -3  -2   15.24    1.81
   3  -3  -2   15.20    1.38
   3  -3  -2   13.47    1.64
   3   3  -1   63.02    3.28
   3   3  -1   61.43    3.81
  -3   3   1   61.54    3.35
  -3   3   1   70.04    3.34
   3  -3  -1   69.51    3.52
   3  -3  -1   64.71    3.33
   3  -3  -1   64.21    3.35
  -3  -3   1   68.70    3.34
  -3  -3   1   61.20    3.84
   3  -3  -1   62.70    3.31
  -3  -3   1   64.58    3.40
  -3  -3   1   68.65    3.43
   3   3   0   56.98    3.49
   3   3   0   52.85    2.98
   3   3   0   48.42    2.91
   3   3   0   41.27    3.18
  -3   3   0   51.58    2.77
  -3   3   0   49.49    1.96
  -3   3   0   49.80    3.13
   3  -3   0   51.07    3.25
  -3  -3   0   47.04    2.88
   3  -3   0   52.02    2.89
  -3  -3   0   51.41    2.92
   3  -3   0   48.65    2.84
  -3  -3   0   52.62    2.93
   3  -3   0   58.78    3.25
  -3  -3   0   48.29    3.27
   3   3   1  157.39    7.26
   3   3   1  172.07    7.11
  -3   3  -1  174.87    6.45
   3   3   1  163.59    7.00
  -3   3  -1  160.86    6.82
   3   3   1  167.74    7.15
  -3   3  -1  159.55    6.52
  -3   3  -1  160.65    6.76
  -3  -3  -1  162.82    7.08
   3  -3   1  169.85    6.96
  -3  -3  -1  176.36    7.03
  -3  -3  -1  189.20    7.75
  -3  -3  -1  164.73    6.99
   3  -3   1  172.15    6.60
   3  -3   1  157.95    7.50
  -3   3  -2   10.51    1.64
  -3   3  -2   10.07    1.53
   3   3   2   10.15    1.78
   3   3   2    8.14    1.85
   3   3   2   12.26    1.88
   3   3   2   12.49    1.70
  -3   3  -2   12.02    1.48
  -3   3  -2   10.58    1.70
  -3  -3  -2   12.57    1.81
   3  -3   2   14.59    2.17
   3  -3   2    9.80    1.72
  -3  -3  -2   10.61    1.63
  -3  -3  -2   11.34    1.81
   3  -3   2    8.74    2.21
  -3   3  -3   -0.76    0.96
  -3   3  -3    1.35    1.31
  -3   3  -3   -0.19    0.94
   3   3   3   -0.17    1.53
   3   3   3   -1.32    0.85
   3   3   3   -1.15    1.41
   3  -3   3    1.22    1.59
  -3  -3  -3    1.72    1.67
   3  -3   3    0.88    1.20
  -3  -3  -3    0.18    1.36
  -3  -3  -3    0.25    1.52
   3   3   4   -0.43    0.91
   3   3   4    2.21    2.00
  -3   3  -4    0.23    1.22
   3   3   4    1.17    1.11
  -3   3  -4    3.89    1.82
  -3   3  -4   -0.01    1.48
  -3  -3  -4    2.88    1.85
  -3  -3  -4    1.88    2.06
  -3  -3  -4    0.71    1.67
   3  -3   4    0.14    1.63
   3   3   5   11.50    2.07
  -3   3  -5    6.91    1.92
   3   3   5    4.94    2.49
  -3   3  -5   10.60    2.20
  -3   3  -5    9.51    1.83
  -3  -3  -5   12.81    2.82
  -3  -3  -5   12.44    2.63
  -3  -3  -5   12.39    2.48
   3  -3   5   11.55    3.06
   3   3   6   10.52    2.99
  -3   3  -6   14.20    3.03
  -3   3  -6    9.23    2.05
   3   3   6   12.65    2.35
  -3   3  -6    4.30    2.15
  -3  -3  -6   15.38    2.92
  -3  -3  -6   14.43    3.11
  -3  -3  -6    9.79    2.71
   3  -3   6   15.03    3.14
  -3   3  -7    4.45    2.34
   3   3   7    3.28    2.62
  -3   3  -7    7.93    1.92
  -3   3  -7    2.88    2.25
  -3  -3  -7    9.13    2.96
  -3  -3  -7    4.25    2.40
  -3  -3  -7    8.86    2.81
   3  -3   7    2.99    2.78
  -3   3  -8   44.18    5.56
   3   3   8   42.70    5.79
  -3   3  -8   41.43    4.46
  -3   3  -8   37.01    5.03
  -3  -3  -8   48.27    5.82
  -3  -3  -8   41.45    5.46
   3  -3   8   40.11    5.71
  -3   3  -9   14.69    3.62
   3   3   9   14.56    4.14
  -3  -3  -9   21.41    4.33
   3  -3   9   13.76    4.06
  -3  -3  -9   10.02    3.59
   3   4  -9    0.12    2.29
   3   4  -9   -0.28    2.32
   3   4  -9    3.02    2.40
   3  -4  -9    2.77    2.47
  -3  -4   9    0.71    2.97
   3  -4  -9    3.51    2.54
   3   4  -8   14.51    3.31
   3   4  -8   14.32    3.31
   3   4  -8   18.89    3.42
  -3  -4   8   18.17    4.41
   3  -4  -8   25.12    4.04
   3  -4  -8   14.82    3.20
   3   4  -7   -0.35    1.71
   3   4  -7   -0.40    1.87
   3   4  -7    1.61    1.81
  -3  -4   7   -2.94    2.18
   3  -4  -7   -1.04    1.85
   3  -4  -7    2.51    1.71
   3   4  -6   -2.08    1.38
   3   4  -6    0.78    1.81
   3   4  -6   -2.75    1.23
   3  -4  -6   -0.67    1.37
  -3  -4   6   -2.09    1.31
  -3  -4   6    1.19    2.46
   3  -4  -6    0.64    1.80
   3   4  -5    7.86    2.14
   3   4  -5    6.30    1.96
   3   4  -5    8.94    1.93
  -3   4   5    4.25    1.78
   3  -4  -5    5.03    1.97
   3  -4  -5    7.14    2.00
  -3  -4   5    6.56    2.82
  -3  -4   5    5.42    2.14
  -3  -4   5   10.00    0.92
  -3  -4   5    6.87    0.77
   3   4  -4   11.27    2.01
   3   4  -4    9.81    2.06
  -3   4   4    8.24    1.95
   3   4  -4    9.77    2.07
   3  -4  -4    9.99    2.19
   3  -4  -4   11.36    2.16
  -3  -4   4   11.06    2.98
   3   4  -3   -0.71    0.80
   3   4  -3    0.77    1.58
  -3   4   3   -0.23    1.03
   3   4  -3    1.24    1.26
  -3   4   3    0.45    0.61
  -3  -4   3    0.76    1.56
   3  -4  -3   -0.44    0.53
   3  -4  -3    1.79    1.01
   3  -4  -3    0.00    0.99
   3  -4  -3   -0.07    1.27
   3   4  -2   22.78    2.88
  -3   4   2   26.24    2.08
   3   4  -2   22.50    2.51
   3   4  -2   21.88    2.46
  -3   4   2   20.89    1.60
  -3  -4   2   21.33    3.21
   3  -4  -2   28.94    2.68
  -3  -4   2   25.07    2.49
   3  -4  -2   24.71    2.49
  -3  -4   2   28.54    2.69
   3  -4  -2   27.48    1.63
  -3   4   1    4.57    1.34
   3   4  -1    3.54    1.38
  -3   4   1    2.60    0.50
  -3   4   1    2.39    1.29
  -3  -4   1    3.31    1.78
   3  -4  -1    3.50    1.26
   3  -4  -1    3.19    1.39
   3  -4  -1    3.65    1.21
  -3  -4   1    2.58    1.23
  -3  -4   1    1.65    1.23
   3   4   0    1.37    0.93
   3   4   0    2.16    1.50
   3   4   0    0.37    0.79
  -3   4   0    0.88    0.98
  -3  -4   0    2.38    1.00
  -3  -4   0    0.85    1.21
   3  -4   0    2.01    1.07
   3  -4   0    2.15    1.14
   3  -4   0    1.71    1.20
  -3  -4   0   -0.83    1.29
  -3   4  -1   15.85    2.14
  -3   4  -1   17.38    1.68
   3   4   1   14.81    2.34
   3   4   1   17.32    2.15
   3   4   1   20.52    2.35
  -3   4  -1   17.68    2.18
  -3   4  -1   14.13    1.88
  -3  -4  -1   17.39    2.09
   3  -4   1   10.87    1.76
   3  -4   1   15.05    2.36
  -3  -4  -1   18.04    2.28
   3  -4   1   17.08    2.23
  -3  -4  -1   18.06    2.29
  -3   4  -2    2.09    1.40
  -3   4  -2    2.70    1.20
   3   4   2    4.34    1.72
  -3   4  -2    3.99    1.33
   3   4   2    6.32    2.04
  -3   4  -2    7.48    1.56
   3   4   2    2.28    1.36
   3  -4   2    2.62    2.23
  -3  -4  -2    6.55    1.87
  -3  -4  -2    2.68    1.64
   3  -4   2    3.22    1.13
  -3  -4  -2    4.62    1.47
   3  -4   2    4.11    1.47
   3   4   3   13.85    2.36
  -3   4  -3   11.70    2.05
   3   4   3    9.57    2.20
  -3   4  -3   13.20    2.07
  -3   4  -3    9.07    2.01
   3   4   3   16.73    2.23
  -3  -4  -3   11.72    2.28
  -3  -4  -3   14.20    2.52
   3  -4   3   11.21    2.97
  -3  -4  -3   13.17    1.89
  -3   4  -4    2.03    1.46
   3   4   4    0.98    1.45
  -3   4  -4    1.02    1.59
   3   4   4    4.23    1.36
  -3   4  -4    2.58    1.72
  -3  -4  -4   -0.24    1.51
  -3  -4  -4   -0.27    1.73
  -3  -4  -4    2.28    1.81
   3  -4   4    1.71    1.87
  -3   4  -5   32.33    3.37
   3   4   5   25.86    3.64
   3   4   5   32.10    3.08
  -3   4  -5   31.27    3.74
  -3   4  -5   33.47    3.94
   3  -4   5   31.54    4.34
  -3  -4  -5   24.86    3.44
  -3  -4  -5   31.32    4.42
  -3  -4  -5   27.09    3.67
  -3   4  -6   16.36    3.21
   3   4   6   19.23    2.59
  -3   4  -6   18.67    3.40
   3   4   6   22.43    3.94
  -3   4  -6   18.61    2.75
   3  -4   6   20.51    3.79
  -3  -4  -6   14.16    3.33
  -3  -4  -6   14.66    3.07
  -3  -4  -6   21.96    3.72
  -3   4  -7   26.31    3.93
  -3   4  -7   22.40    3.26
  -3   4  -7   18.75    3.37
   3   4   7   18.09    3.91
   3  -4   7   20.17    4.27
  -3  -4  -7   23.42    3.78
  -3  -4  -7   22.30    3.97
  -3  -4  -7   17.78    3.66
  -3   4  -8   17.90    3.60
  -3   4  -8   19.31    3.67
   3   4   8   19.40    4.28
  -3  -4  -8   18.02    3.76
   3  -4   8   16.05    4.20
  -3  -4  -8   20.49    4.55
  -3  -4  -8   25.25    4.53
  -3   4  -9    2.94    2.70
   3   4   9    3.07    2.28
   3  -4   9    5.24    3.25
  -3  -4  -9   -2.01    2.43
   3   5  -9    4.97    2.67
   3   5  -9   -1.41    1.99
   3   5  -9    1.07    2.33
   3  -5  -9    1.34    2.47
  -3  -5   9    0.68    3.05
   3  -5  -9    1.64    2.49
   3   5  -8    2.76    1.86
   3   5  -8    0.43    2.07
   3   5  -8    7.68    2.88
   3  -5  -8    4.33    2.39
   3  -5  -8    2.38    2.41
  -3  -5   8    0.10    2.95
   3   5  -7    4.44    2.37
   3   5  -7   -0.43    1.94
   3   5  -7    0.71    2.07
   3  -5  -7    2.34    2.24
  -3  -5   7    2.27    2.93
   3  -5  -7    4.87    2.13
   3   5  -6   20.80    3.39
   3   5  -6   21.86    3.43
   3   5  -6   24.80    3.64
   3  -5  -6   24.74    3.86
  -3  -5   6   24.13    4.22
   3  -5  -6   16.24    3.02
  -3   5   5    3.34    1.64
   3   5  -5    3.71    1.58
   3   5  -5    1.39    1.61
   3   5  -5    2.83    2.11
  -3  -5   5    6.84    2.57
   3  -5  -5    3.70    1.93
   3  -5  -5    3.24    1.60
  -3  -5   5    2.76    1.22
   3   5  -4   69.70    4.88
   3   5  -4   76.69    5.46
  -3   5   4   80.17    4.43
   3   5  -4   75.20    4.96
  -3   5   4   75.52    2.84
   3  -5  -4   73.70    4.78
  -3  -5   4   63.68    5.48
   3  -5  -4   80.45    5.04
   3   5  -3    7.78    2.01
   3   5  -3   10.81    2.21
   3   5  -3   10.11    2.52
  -3   5   3    9.56    1.48
  -3   5   3   11.90    1.73
  -3  -5   3   11.98    3.16
  -3  -5   3    8.24    2.03
   3  -5  -3   13.94    1.75
  -3  -5   3    9.96    2.05
   3  -5  -3    8.97    2.27
   3  -5  -3    8.39    1.42
   3  -5  -3    8.37    1.94
  -3   5   2   26.58    2.65
  -3   5   2   19.92    1.59
  -3   5   2   22.56    2.93
   3   5  -2   21.65    3.26
   3   5  -2   18.84    2.48
   3   5  -2   24.25    2.78
  -3  -5   2   26.61    2.87
   3  -5  -2   22.73    2.88
  -3  -5   2   21.21    2.59
  -3  -5   2   23.35    3.46
   3  -5  -2   18.03    2.58
  -3   5   1   11.33    1.00
   3   5  -1   11.75    2.59
  -3   5   1    9.24    2.07
  -3  -5   1   12.52    2.20
   3  -5  -1   15.24    2.32
   3  -5  -1   11.44    2.07
   3  -5  -1   13.35    2.08
  -3  -5   1    9.94    2.03
   3  -5  -1   10.59    2.19
  -3  -5   1    6.62    2.41
   3   5   0  118.71    5.97
  -3   5   0  121.25    6.04
  -3   5   0  128.77    4.75
   3   5   0  128.62    6.81
  -3  -5   0  115.28    6.59
   3  -5   0  122.64    6.40
  -3  -5   0  116.62    6.09
  -3  -5   0  123.83    6.19
   3  -5   0  116.94    6.07
   3  -5   0  129.50    6.24
   3   5   1    1.82    1.41
   3   5   1   -0.42    1.20
  -3   5  -1    1.90    1.01
  -3   5  -1    0.21    1.27
   3  -5   1    1.25    1.29
  -3  -5  -1   -0.46    0.95
   3  -5   1    1.20    1.61
  -3  -5  -1    1.92    1.26
  -3  -5  -1    1.23    1.56
   3   5   2   47.18    3.98
  -3   5  -2   52.81    3.82
  -3   5  -2   57.35    4.01
   3   5   2   49.32    3.81
  -3   5  -2   54.73    3.65
  -3  -5  -2   49.28    3.94
   3  -5   2   57.11    4.58
  -3  -5  -2   54.20    3.85
  -3  -5  -2   58.45    3.98
  -3   5  -3    8.64    2.05
  -3   5  -3    7.82    1.99
   3   5   3    5.63    2.02
  -3   5  -3    9.17    2.24
   3   5   3    4.95    2.08
  -3  -5  -3    8.53    2.05
  -3  -5  -3    6.23    1.87
   3  -5   3    7.20    2.99
  -3  -5  -3    8.43    1.81
  -3   5  -4   29.37    3.27
  -3   5  -4   22.43    3.17
  -3   5  -4   19.47    3.10
   3   5   4   25.73    3.68
   3  -5   4   19.57    3.95
  -3  -5  -4   25.39    3.40
  -3  -5  -4   25.05    3.46
  -3   5  -5   -2.07    1.51
  -3   5  -5   -2.60    1.43
   3   5   5    0.11    1.96
   3   5   5   -0.07    1.08
  -3   5  -5    0.90    1.84
  -3  -5  -5    0.48    1.97
   3  -5   5   -0.87    2.53
  -3  -5  -5   -1.21    1.60
  -3  -5  -5   -1.58    2.30
  -3   5  -6   12.74    2.74
   3   5   6    2.26    1.88
  -3   5  -6   14.40    3.02
  -3   5  -6   14.51    3.19
  -3  -5  -6    9.56    2.63
  -3  -5  -6   14.41    3.82
  -3  -5  -6    5.86    2.32
   3  -5   6    7.40    3.38
   3   5   7    4.97    2.34
  -3   5  -7    1.56    2.26
  -3   5  -7    8.64    2.96
  -3   5  -7    5.99    2.30
  -3  -5  -7    5.66    2.48
  -3  -5  -7    4.10    2.62
  -3  -5  -7   -1.56    2.36
   3  -5   7    0.78    3.03
   3   5   8    0.49    1.83
  -3   5  -8    0.65    2.06
  -3  -5  -8    6.96    2.98
  -3  -5  -8   -3.61    2.30
  -3  -5  -8    0.00    1.94
   3  -5   8   -0.36    2.03
   3   6  -8    3.35    2.67
   3   6  -8   11.24    3.41
   3   6  -8    4.33    2.62
   3  -6  -8    2.04    2.43
  -3  -6   8   -0.67    3.39
   3  -6  -8    6.75    2.88
   3   6  -7   -0.24    1.46
   3   6  -7    1.03    1.59
   3   6  -7    0.15    1.61
   3  -6  -7   -0.99    1.68
  -3  -6   7   -0.19    3.23
   3  -6  -7   -1.44    1.87
   3   6  -6   -0.28    1.81
   3   6  -6    0.48    1.61
   3   6  -6   -0.33    1.21
  -3  -6   6   -3.19    1.67
   3  -6  -6    0.96    1.93
   3  -6  -6    1.84    2.01
   3   6  -5    5.38    1.92
  -3   6   5   11.88    2.16
   3   6  -5    3.10    2.39
   3   6  -5    6.49    2.09
   3  -6  -5    5.31    2.45
   3  -6  -5    7.94    2.16
  -3  -6   5   10.80    3.61
   3   6  -4    0.01    1.58
   3   6  -4    1.73    1.70
  -3   6   4    0.07    1.14
   3   6  -4    0.51    1.88
  -3  -6   4    0.46    1.92
   3  -6  -4    0.47    1.55
  -3  -6   4   -2.59    1.35
   3  -6  -4    0.60    1.30
   3   6  -3    1.93    1.70
   3   6  -3    1.01    2.01
  -3   6   3    1.96    1.06
   3   6  -3    6.15    2.04
   3  -6  -3    0.32    1.30
  -3  -6   3   -0.53    1.53
   3  -6  -3    2.41    1.25
  -3  -6   3   -2.06    1.20
  -3  -6   3    1.07    2.46
   3  -6  -3   -2.04    1.34
  -3   6   2   16.83    1.60
  -3   6   2   17.41    2.76
   3   6  -2   19.75    3.14
   3  -6  -2   20.70    2.92
  -3  -6   2   18.08    2.73
   3  -6  -2   18.02    2.69
   3  -6  -2   16.26    2.43
  -3  -6   2   14.39    2.60
  -3  -6   2   14.35    3.46
  -3   6   1    1.61    1.34
   3   6  -1    1.60    1.52
  -3   6   1    2.30    0.71
   3   6  -1    1.40    1.54
  -3  -6   1    1.16    1.58
   3  -6  -1    1.09    1.23
   3  -6  -1    2.41    1.36
  -3  -6   1    2.10    2.20
   3  -6  -1    0.79    1.84
   3  -6  -1    2.20    1.49
  -3  -6   1    0.14    1.61
   3   6   0   39.24    4.45
  -3   6   0   44.27    2.26
  -3   6   0   45.43    3.74
   3   6   0   41.13    3.36
   3  -6   0   49.60    4.31
   3  -6   0   40.77    4.12
  -3  -6   0   37.42    4.36
   3  -6   0   42.20    4.41
  -3  -6   0   41.33    4.04
  -3  -6   0   47.46    3.63
   3  -6   0   44.57    4.26
   3   6   1    6.21    2.12
   3   6   1   12.33    2.25
  -3   6  -1    6.75    2.10
  -3   6  -1   13.57    1.75
  -3  -6  -1    7.52    2.24
  -3  -6  -1   10.01    2.42
   3  -6   1    9.66    2.57
  -3  -6  -1   11.66    2.49
   3   6   2   16.44    2.79
  -3   6  -2   18.14    2.83
   3   6   2   15.33    3.08
  -3   6  -2   13.34    2.58
  -3  -6  -2   17.34    2.96
   3  -6   2   14.65    3.09
  -3  -6  -2   19.35    2.88
  -3  -6  -2   17.34    2.98
   3   6   3    1.27    1.66
  -3   6  -3    2.43    1.79
  -3   6  -3    3.84    1.78
   3   6   3    4.23    2.39
  -3   6  -3    1.46    1.39
   3  -6   3    1.42    2.58
  -3  -6  -3    4.17    1.64
  -3  -6  -3    1.18    1.91
  -3  -6  -3    2.27    1.92
  -3   6  -4    3.17    1.82
   3   6   4    2.93    1.96
  -3   6  -4    4.14    1.93
  -3   6  -4    3.19    1.86
  -3  -6  -4    1.83    1.29
   3  -6   4    1.11    2.13
  -3  -6  -4    6.54    2.42
  -3  -6  -4    0.03    1.87
  -3   6  -5    2.29    1.77
  -3   6  -5    5.53    2.33
   3   6   5    3.18    1.29
   3   6   5    0.06    1.42
  -3   6  -5   -0.49    1.73
  -3  -6  -5   -0.29    1.94
  -3  -6  -5    1.55    1.68
  -3  -6  -5    2.33    2.09
   3  -6   5    1.17    2.81
   3   6   6   18.14    3.60
  -3   6  -6   20.94    3.77
  -3   6  -6   12.46    3.02
  -3   6  -6   14.58    2.93
  -3  -6  -6   22.38    3.98
   3  -6   6   16.81    4.24
  -3  -6  -6   14.53    3.57
  -3  -6  -6   18.56    4.54
   3   6   7    9.57    3.29
  -3   6  -7    7.75    2.63
  -3  -6  -7    6.37    3.13
  -3  -6  -7    4.66    3.47
  -3  -6  -7   11.38    3.36
   3  -6   7    2.79    3.17
  -3   6  -8    0.88    2.69
   3   6   8    1.49    2.44
   3  -6   8    1.15    3.54
  -3  -6  -8   -0.43    3.01
  -3  -6  -8    3.29    2.86
   3   7  -8    1.85    2.79
   3   7  -8    0.85    2.74
   3   7  -8   -0.43    1.99
   3  -7  -8    0.50    2.34
   3  -7  -8    1.01    2.70
  -3  -7   8   -2.64    2.83
   3   7  -7   -0.79    1.89
   3   7  -7    0.51    2.68
   3   7  -7   -2.19    2.01
  -3  -7   7   -6.19    2.87
   3  -7  -7   -1.79    2.10
   3  -7  -7   -1.22    1.60
   3   7  -6   -0.09    2.15
   3   7  -6    2.23    2.81
   3   7  -6    2.57    2.34
  -3  -7   6    0.55    3.05
   3  -7  -6    3.95    2.14
   3  -7  -6    2.15    2.16
  -3  -7   6   -0.25    2.02
   3   7  -5   55.41    6.30
   3   7  -5   62.40    5.83
   3   7  -5   58.74    5.75
  -3  -7   5   52.17    6.76
   3  -7  -5   55.86    5.78
  -3  -7   5   52.12    5.29
   3  -7  -5   62.60    6.12
   3   7  -4   -1.58    1.94
   3   7  -4    1.54    1.42
  -3   7   4   -0.44    1.02
   3   7  -4   -0.27    1.83
  -3  -7   4   -0.71    2.06
  -3  -7   4    1.82    1.77
   3  -7  -4    0.42    1.30
   3  -7  -4   -1.52    1.64
  -3   7   3    4.96    1.23
   3   7  -3    2.72    2.37
   3  -7  -3    4.72    2.24
  -3  -7   3    9.68    3.44
  -3  -7   3    7.51    2.22
   3  -7  -3    6.42    2.37
   3  -7  -3    4.47    1.66
  -3  -7   3    3.08    1.94
  -3   7   2    0.05    1.26
  -3   7   2    2.15    0.87
   3   7  -2    4.32    2.06
   3  -7  -2    4.68    2.06
   3  -7  -2    4.14    1.67
   3  -7  -2    3.04    1.85
  -3  -7   2    3.26    1.99
  -3  -7   2   -0.64    2.34
  -3  -7   2    1.90    1.69
   3   7  -1   78.96    4.87
  -3   7   1   72.85    5.31
  -3   7   1   76.99    3.29
   3   7  -1   67.79    5.76
  -3  -7   1   75.17    5.06
  -3  -7   1   67.25    5.06
  -3  -7   1   78.81    6.17
   3  -7  -1   78.86    5.38
   3  -7  -1   80.03    5.35
  -3   7   0   15.01    2.86
   3   7   0   12.64    2.51
   3   7   0   17.87    3.16
  -3   7   0   14.49    1.44
  -3  -7   0   12.18    2.61
  -3  -7   0   17.04    3.37
  -3  -7   0   20.17    2.97
   3  -7   0   12.13    2.62
   3  -7   0   12.84    2.84
   3  -7   0   11.23    2.55
   3   7   1  110.00    6.93
   3   7   1  120.37    6.30
  -3   7  -1  103.30    6.32
  -3  -7  -1  114.42    6.92
   3  -7   1  125.96    7.66
  -3  -7  -1  101.95    6.55
   3  -7   1  110.79    6.48
   3  -7   1  112.82    6.67
  -3  -7  -1  118.42    6.86
  -3   7  -2    4.45    2.11
   3   7   2    3.41    1.83
   3   7   2    2.36    1.81
  -3  -7  -2    2.27    1.94
  -3  -7  -2    2.51    1.91
   3  -7   2    2.21    2.67
  -3  -7  -2    2.43    2.12
  -3   7  -3   -1.13    1.46
   3   7   3   -0.28    2.05
  -3   7  -3    1.29    1.90
  -3   7  -3    0.30    1.71
   3   7   3   -3.35    1.37
   3  -7   3    2.81    2.40
  -3  -7  -3   -3.26    0.85
  -3  -7  -3    1.54    1.71
  -3  -7  -3    1.47    1.55
  -3   7  -4    8.92    2.35
  -3   7  -4    9.35    2.76
   3   7   4    7.64    2.40
  -3   7  -4    7.17    2.66
   3  -7   4   12.61    3.88
  -3  -7  -4    5.66    2.55
  -3  -7  -4   11.17    3.02
  -3   7  -5   18.35    3.43
  -3   7  -5   21.88    3.86
   3   7   5   19.48    3.62
  -3   7  -5   19.49    3.48
  -3  -7  -5   12.28    4.49
   3  -7   5   16.33    4.03
  -3  -7  -5   27.19    4.12
  -3  -7  -5   18.60    3.65
  -3   7  -6    1.17    2.32
   3   7   6    8.11    2.81
   3  -7   6    0.55    3.23
  -3  -7  -6    6.18    3.89
  -3  -7  -6    5.85    2.61
  -3  -7  -6    3.76    2.92
  -3   7  -7    6.59    3.21
   3   7   7    2.10    2.41
  -3  -7  -7   -3.32    1.98
  -3  -7  -7    7.00    3.83
   3  -7   7    7.60    4.01
   3   8  -7    2.18    2.73
   3   8  -7   -1.81    2.26
   3   8  -7    3.34    2.61
  -3  -8   7   -1.89    3.45
   3  -8  -7   -0.13    1.74
   3  -8  -7   -1.40    2.26
  -3  -8   7    0.03    2.08
   3   8  -6   11.86    3.58
   3   8  -6   12.05    3.40
   3   8  -6   16.41    3.87
  -3  -8   6    9.30    3.80
   3  -8  -6   20.48    4.04
   3  -8  -6   15.93    3.88
  -3  -8   6   11.74    3.12
   3   8  -5    6.96    2.73
   3   8  -5   13.08    3.88
   3   8  -5    2.95    2.35
  -3  -8   5    5.33    3.76
   3  -8  -5    3.40    2.45
  -3  -8   5    7.75    2.63
   3  -8  -5    1.04    2.39
   3   8  -4   -0.91    2.33
  -3  -8   4    2.65    2.74
  -3  -8   4    0.39    1.97
   3  -8  -4   -0.99    1.61
   3  -8  -4   -1.89    1.89
   3   8  -3   30.34    4.77
   3  -8  -3   36.12    4.60
  -3  -8   3   35.44    5.55
  -3  -8   3   36.02    4.46
   3  -8  -3   34.52    4.62
   3   8  -2    3.23    1.65
   3   8  -2    1.24    2.44
  -3   8   2    1.41    1.67
  -3  -8   2    1.49    1.58
   3  -8  -2    2.74    1.68
  -3  -8   2   -0.42    2.57
   3  -8  -2    2.19    1.72
  -3  -8   2    6.90    2.39
   3  -8  -2    3.17    2.01
   3   8  -1    2.94    2.47
  -3   8   1    3.22    1.78
   3   8  -1    2.42    1.63
   3  -8  -1    0.80    1.95
   3  -8  -1   -0.75    1.18
  -3  -8   1    0.73    1.64
  -3  -8   1    3.60    2.03
   3  -8  -1    0.50    1.26
  -3  -8   1    0.80    2.42
   3   8   0   17.49    2.85
   3   8   0   14.08    3.48
  -3   8   0   12.19    2.98
  -3  -8   0   11.44    2.81
   3  -8   0   13.40    2.93
  -3  -8   0   14.95    3.01
  -3  -8   0   11.89    2.88
   3  -8   0    8.15    2.55
   3  -8   0    4.51    2.74
   3   8   1   17.62    2.87
  -3   8  -1    9.67    2.70
   3   8   1   13.09    3.16
  -3  -8  -1   12.33    2.86
   3  -8   1   15.29    3.80
  -3  -8  -1   11.18    3.03
   3  -8   1   12.16    2.90
   3  -8   1   14.86    2.81
  -3  -8  -1    9.20    2.39
   3   8   2    0.27    2.27
  -3   8  -2   -1.93    1.61
   3   8   2   -1.26    1.45
  -3  -8  -2   -1.97    1.56
  -3  -8  -2    1.29    2.16
  -3  -8  -2    0.80    2.09
   3  -8   2    1.19    1.81
   3  -8   2    2.25    2.26
   3  -8   2   -0.11    1.36
   3   8   3   34.11    4.77
  -3   8  -3   21.74    3.74
   3   8   3   26.33    3.73
   3  -8   3   27.39    5.05
  -3  -8  -3   30.86    4.53
  -3  -8  -3   36.65    4.77
  -3  -8  -3   32.39    4.03
  -3   8  -4    5.64    2.60
  -3   8  -4    7.85    2.53
   3   8   4    7.19    2.59
   3  -8   4    3.24    2.69
  -3  -8  -4    6.18    2.47
  -3  -8  -4    6.87    2.50
   3   8   5   -0.62    2.07
  -3   8  -5   -0.75    1.52
  -3  -8  -5   -7.71    3.12
   3  -8   5    1.94    2.77
  -3  -8  -5   -0.95    2.27
  -3  -8  -5    1.11    2.45
   3   8   6    7.85    3.04
  -3   8  -6    4.88    2.89
  -3  -8  -6    6.05    3.29
   3  -8   6    6.22    3.85
  -3  -8  -6    2.95    4.20
   3   9  -6   15.75    4.22
   3   9  -6   12.13    4.36
   3  -9  -6   28.71    4.80
   3  -9  -6   23.55    4.79
  -3  -9   6   16.04    4.53
  -3  -9   6   20.56    4.15
   3   9  -5    0.45    3.12
   3  -9  -5    0.88    2.36
  -3  -9   5    3.74    3.06
  -3  -9   5    3.26    2.54
   3  -9  -5    4.93    2.89
   3   9  -4    3.33    3.07
   3  -9  -4    0.62    2.25
   3  -9  -4    6.87    2.66
  -3  -9   4    4.94    3.50
  -3  -9   4    0.91    2.40
   3   9  -3   -5.18    2.41
   3  -9  -3   -1.78    2.05
   3  -9  -3    2.87    2.34
  -3  -9   3   -0.49    2.02
  -3  -9   3   -1.19    1.76
   3   9  -2    6.47    3.11
   3   9  -2    6.22    2.06
  -3   9   2    5.02    2.69
   3  -9  -2    4.26    2.11
   3  -9  -2    2.47    2.01
  -3  -9   2   11.64    3.29
   3  -9  -2   -1.13    2.94
  -3  -9   2    0.16    2.02
  -3   9   1   10.32    2.97
   3   9  -1   13.36    2.68
   3   9  -1   10.39    3.63
  -3  -9   1   11.64    3.76
   3  -9  -1    9.61    2.96
   3  -9  -1    8.05    2.81
  -3  -9   1   11.64    2.72
   3  -9  -1    7.00    3.16
   3   9   0   24.22    3.35
   3   9   0   17.08    4.13
  -3   9   0   19.06    3.65
  -3  -9   0   15.39    3.68
   3  -9   0   16.75    3.41
   3  -9   0   16.59    3.43
   3  -9   0   13.62    3.86
  -3  -9   0   14.52    3.32
   3   9   1   -1.68    1.32
  -3   9  -1   -0.87    1.86
   3   9   1    2.18    2.72
  -3  -9  -1    0.80    2.07
  -3  -9  -1    2.17    2.24
   3  -9   1    0.88    2.10
  -3  -9  -1    2.64    2.32
   3  -9   1    1.52    2.14
   3  -9   1    4.04    2.68
  -3   9  -2   -1.44    1.73
   3   9   2   -2.30    1.40
   3   9   2   -1.58    2.35
   3  -9   2    0.75    2.09
  -3  -9  -2   -0.02    1.94
   3  -9   2   -4.98    1.67
   3  -9   2   -3.17    2.13
  -3  -9  -2    0.00    2.13
   3  -9   2    0.23    2.96
  -3  -9  -2   -0.81    1.90
   3   9   3   19.30    3.39
   3   9   3   12.76    3.78
  -3   9  -3   13.51    3.39
   3  -9   3   15.02    3.50
   3  -9   3   13.85    3.53
   3  -9   3   24.08    5.37
  -3  -9  -3   12.40    3.61
  -3   9  -4    2.48    2.59
   3  -9   4    7.10    2.55
  -3  -9  -4    3.75    2.30
   3  -9   4    1.77    2.89
   3  -9   5    0.86    2.76
   3  -9   5    4.51    3.68
  -3  -9  -5    6.53    2.86
  -3  -9  -5   -3.03    3.95
  -3 -10   5    1.95    3.96
   3  10  -4   13.08    4.15
  -3 -10   4   17.07    3.98
   3 -10  -4   21.62    4.55
  -3 -10   4   27.55    6.15
   3 -10  -4   22.61    4.58
   3  10  -3   -0.03    2.22
   3 -10  -3    2.67    2.53
  -3 -10   3    2.58    2.61
   3 -10  -3    3.72    2.91
  -3 -10   3    0.69    3.34
   3  10  -2   14.06    3.79
   3 -10  -2   12.85    3.52
   3 -10  -2    9.04    3.05
  -3 -10   2   16.58    4.62
  -3 -10   2   10.02    3.26
   3  10  -1    2.97    3.15
  -3  10   1    5.57    2.75
   3 -10  -1    4.48    2.35
  -3 -10   1   10.38    3.23
  -3 -10   1    8.86    3.25
   3 -10  -1    9.19    3.32
   3 -10  -1   10.70    3.26
   3  10   0   -2.94    1.51
  -3  10   0   -0.61    2.15
   3 -10   0   -1.09    2.61
  -3 -10   0   -0.23    1.61
   3 -10   0    3.16    2.02
  -3 -10   0   -1.47    2.58
   3 -10   0   -0.15    2.31
  -3  10  -1   -0.26    2.12
   3  10   1    1.58    2.76
   3 -10   1   -4.20    2.75
  -3 -10  -1   -0.14    2.32
  -3 -10  -1   -1.00    2.03
   3 -10   1    2.06    1.86
   3 -10   1    1.56    2.22
  -3  10  -2    6.32    3.09
   3  10   2   12.92    3.95
   3 -10   2   10.57    3.33
  -3 -10  -2   11.85    3.61
   3 -10   2   12.65    3.21
   3 -10   2    9.89    4.55
   3  10   3    2.90    2.96
  -3  10  -3   -2.53    2.33
  -3 -10  -3    2.48    2.76
   3 -10   3   -0.32    3.55
   3 -10   3   -0.11    1.76
   3 -10   4   -8.08    3.67
  -3 -10  -4    0.74    2.13
   3 -10   4    0.90    2.62
   3  11  -2   -4.88    2.58
   3 -11  -2    1.80    2.63
   3 -11  -2   -0.39    2.57
  -3 -11   2    2.02    3.07
  -3 -11   2    0.10    1.78
   3  11  -1   -0.42    2.99
  -3  11   1    1.48    2.12
  -3 -11   1   -2.13    2.79
   3 -11  -1    3.80    2.86
   3 -11  -1   -1.91    1.38
  -3 -11   1    0.49    1.89
   3  11   0    6.78    3.82
  -3  11   0   10.27    3.45
   3 -11   0   11.88    3.51
   3 -11   0    1.11    3.09
  -3 -11   0    7.07    3.35
   3 -11   0   10.13    3.46
  -3 -11   0    9.51    3.24
  -3  11  -1    7.53    3.20
   3  11   1    6.13    3.42
   3 -11   1    2.67    2.81
  -3 -11  -1    4.75    3.09
   3 -11   1    2.59    3.87
   3 -11   2   33.92    6.75
   4   0 -10    2.84    2.35
   4   0 -10    6.20    2.97
   4   0  -9   -2.25    1.68
   4   0  -9    0.70    1.61
   4   0  -8   45.89    5.03
   4   0  -8   44.39    4.73
   4   0  -7   -0.24    1.43
  -4   0   7    0.62    1.32
   4   0  -7   -0.56    1.43
   4   0  -6  360.37   14.82
   4   0  -6  386.10   15.01
  -4   0   6  383.60   14.51
  -4   0   5   -1.59    0.86
   4   0  -5   -1.17    0.94
   4   0  -5   -0.72    0.99
  -4   0   5    0.61    1.25
   4   0  -5   -0.11    0.47
   4   0  -5   -0.50    1.16
   4   0  -4   49.40    2.98
   4   0  -4   49.50    2.36
  -4   0   4   53.17    2.75
   4   0  -4   44.58    2.87
  -4   0   4   57.27    3.21
   4   0  -4   52.35    3.00
   4   0  -3    0.75    0.81
  -4   0   3   -0.19    0.78
   4   0  -3   -0.65    0.65
   4   0  -3   -0.30    0.50
   4   0  -3   -0.35    0.57
   4   0  -3   -0.16    0.80
  -4   0   3   -0.92    0.43
   4   0  -2  114.29    4.35
   4   0  -2  118.02    4.33
   4   0  -2  121.73    5.07
  -4   0   2  112.68    4.99
   4   0  -2  119.38    4.78
  -4   0   2  121.09    4.00
  -4   0   1   -0.06    0.67
  -4   0   1    0.91    0.93
   4   0  -1   -1.19    0.69
   4   0  -1    0.86    0.89
   4   0   0  328.54   11.85
  -4   0   0  326.92   11.10
  -4   0   0  338.42   12.17
  -4   0   0  321.78   11.22
   4   0   0  347.13   12.16
   4   0   0  335.37   11.32
   4   0   0  324.05   11.34
  -4   0   0  335.26   11.84
   4   0   0  340.68   12.13
   4   0   0  326.66   11.44
  -4   0   0  328.46   12.12
  -4   0  -1   -0.28    0.67
  -4   0  -1    0.29    0.49
   4   0   1   -0.79    0.93
  -4   0  -1    1.53    1.19
   4   0   1   -0.65    0.65
   4   0   1   -0.81    0.69
   4   0   1    0.15    0.48
   4   0   1    0.00    0.85
   4   0   1   -0.66    1.08
  -4   0  -1    1.04    0.73
   4   0   1    0.33    0.69
   4   0   2  317.67   12.73
   4   0   2  312.99   12.73
  -4   0  -2  353.42   12.88
   4   0   2  352.90   12.82
  -4   0  -2  345.99   12.52
  -4   0  -2  335.29   12.44
   4   0   2  348.97   12.56
  -4   0  -2  349.13   12.02
  -4   0  -2  337.63   12.75
  -4   0  -3    1.12    1.16
  -4   0  -3   -0.93    1.04
  -4   0  -3   -1.32    0.77
   4   0   3   -0.97    0.66
   4   0   3   -1.03    1.35
  -4   0  -3    0.99    0.91
   4   0   3   -0.43    1.04
   4   0   3    1.64    1.30
  -4   0  -4  180.02    7.97
   4   0   4  178.89    8.55
  -4   0  -4  188.83    8.29
  -4   0  -4  188.66    8.31
   4   0   4  184.06    8.47
  -4   0  -5   -2.20    1.37
   4   0   5    1.28    1.37
  -4   0  -5   -1.56    1.24
   4   0   5   -1.53    1.84
  -4   0  -5    0.53    1.67
  -4   0  -6   41.27    4.44
   4   0   6   41.85    4.80
  -4   0  -6   44.88    4.54
  -4   0  -6   39.70    3.30
   4   0   6   44.11    4.63
   4   0   7    0.94    1.90
  -4   0  -7    2.74    1.64
  -4   0  -7    0.12    1.86
   4   0   7    0.86    2.10
  -4   0  -7   -0.35    1.64
  -4   0  -8    4.03    2.49
  -4   0  -8    2.99    2.06
   4   0   8    3.37    2.37
  -4   0  -9    2.06    2.71
   4   1 -10    8.26    2.89
   4   1 -10    2.92    2.83
   4  -1 -10    6.97    2.74
   4  -1 -10    1.83    2.45
   4   1  -9   -1.20    1.74
   4   1  -9    2.25    2.24
   4  -1  -9    0.03    1.83
   4  -1  -9    0.76    1.51
   4   1  -8    2.68    1.98
   4   1  -8   -0.35    1.54
  -4  -1   8    0.78    1.65
   4  -1  -8    2.12    1.97
   4  -1  -8   -3.00    1.62
   4   1  -7   41.14    4.24
   4   1  -7   30.73    3.65
  -4   1   7   34.97    2.78
   4  -1  -7   42.15    4.13
   4  -1  -7   37.19    4.20
  -4  -1   7   41.96    4.27
   4   1  -6    6.67    1.94
   4   1  -6    6.85    1.85
  -4   1   6    6.93    1.34
   4  -1  -6    7.62    1.15
   4  -1  -6    9.61    2.24
   4  -1  -6    5.42    1.88
  -4  -1   6   10.53    2.30
   4   1  -5   12.49    2.00
   4   1  -5   12.49    2.01
  -4   1   5    9.71    1.43
  -4   1   5   15.04    1.85
  -4  -1   5   11.24    2.24
  -4  -1   5   13.36    1.81
   4  -1  -5   13.92    1.37
   4  -1  -5   11.17    1.95
   4  -1  -5   16.21    2.36
  -4   1   4   11.60    1.40
   4   1  -4   11.28    2.13
   4   1  -4   11.47    1.58
  -4   1   4    9.88    1.25
   4   1  -4    9.65    1.52
  -4  -1   4   13.27    1.57
   4  -1  -4   12.42    1.82
   4  -1  -4    9.86    1.06
  -4  -1   4    9.56    1.90
   4  -1  -4    7.41    1.38
  -4   1   3   19.85    1.35
  -4   1   3   22.03    1.57
   4   1  -3   24.30    2.44
   4   1  -3   22.69    1.72
   4   1  -3   19.67    1.80
   4   1  -3   22.23    1.36
   4  -1  -3   22.11    1.84
  -4  -1   3   25.57    2.51
   4  -1  -3   23.08    1.41
  -4  -1   3   22.04    1.56
   4  -1  -3   24.09    1.69
   4  -1  -3   26.01    1.83
   4  -1  -3   23.30    2.30
   4   1  -2    9.59    1.06
   4   1  -2   12.28    1.14
   4   1  -2   10.18    1.72
  -4   1   2   10.95    1.20
   4   1  -2   13.75    1.39
  -4  -1   2   14.05    0.99
  -4  -1   2   14.38    0.94
  -4  -1   2   12.44    0.92
   4  -1  -2   12.81    1.06
  -4  -1   2   10.58    1.69
   4  -1  -2   11.38    1.00
  -4  -1   2   11.90    1.00
   4  -1  -2   12.19    1.55
   4  -1  -2   11.74    1.29
  -4  -1   2   12.73    1.29
   4   1  -1   54.49    2.37
   4   1  -1   58.76    3.07
   4   1  -1   62.30    3.25
   4   1  -1   58.87    2.43
   4   1  -1   56.79    2.40
   4   1  -1   61.15    3.06
   4   1  -1   54.48    2.43
  -4  -1   1   57.25    2.15
   4  -1  -1   58.32    2.86
  -4  -1   1   54.83    3.31
   4  -1  -1   59.27    3.05
   4  -1  -1   59.36    2.92
  -4  -1   1   59.42    2.30
  -4  -1   1   59.27    3.03
  -4  -1   1   63.23    2.32
   4   1   0  109.29    4.71
  -4   1   0  117.11    4.45
   4   1   0  116.03    4.44
   4   1   0  121.31    5.10
   4   1   0  118.01    4.95
  -4   1   0  117.31    4.95
  -4   1   0  114.02    4.20
   4   1   0  115.74    5.15
   4   1   0  116.14    4.42
  -4   1   0  106.28    4.94
  -4  -1   0  106.13    5.06
  -4  -1   0  114.99    4.35
   4  -1   0  112.44    4.85
   4  -1   0  118.06    5.01
   4  -1   0  109.17    4.25
   4  -1   0  111.02    4.41
  -4  -1   0  113.36    4.66
   4  -1   0  111.75    4.30
  -4  -1   0  125.28    5.21
  -4  -1   0  110.43    4.31
  -4   1  -1   41.59    2.58
  -4   1  -1   35.97    2.09
  -4   1  -1   42.22    2.34
   4   1   1   38.80    2.31
  -4   1  -1   37.23    2.52
   4   1   1   36.98    2.67
   4   1   1   42.19    2.31
   4   1   1   38.72    2.49
   4   1   1   40.49    2.34
   4   1   1   44.61    2.78
   4  -1   1   39.96    2.24
  -4  -1  -1   42.13    2.36
   4  -1   1   41.48    2.69
   4  -1   1   41.04    2.17
  -4  -1  -1   35.31    2.43
  -4  -1  -1   41.25    2.33
  -4  -1  -1   39.77    2.90
   4  -1   1   40.24    2.67
   4  -1   1   39.31    2.38
  -4  -1  -1   45.11    2.59
  -4   1  -2   39.62    2.39
   4   1   2   36.32    2.56
  -4   1  -2   35.11    2.27
  -4   1  -2   36.14    2.62
   4   1   2   42.04    2.56
   4   1   2   40.74    2.98
   4   1   2   35.45    2.28
   4   1   2   38.23    2.70
  -4   1  -2   42.90    2.75
   4   1   2   38.31    2.54
   4  -1   2   37.74    2.53
  -4  -1  -2   36.09    2.53
  -4  -1  -2   36.89    2.53
   4  -1   2   36.72    3.00
   4  -1   2   39.94    2.68
  -4  -1  -2   35.10    2.87
  -4  -1  -2   36.99    2.40
   4  -1   2   34.30    2.43
  -4   1  -3   21.92    2.36
   4   1   3   23.36    2.38
  -4   1  -3   18.97    2.30
   4   1   3   24.65    2.56
   4   1   3   20.35    2.57
   4   1   3   24.53    2.42
  -4   1  -3   23.34    2.46
   4  -1   3   20.74    2.41
   4  -1   3   24.25    2.50
  -4  -1  -3   19.93    2.19
  -4  -1  -3   20.13    2.30
   4  -1   3   21.22    2.77
  -4  -1  -3   20.87    2.40
   4  -1   3   20.90    2.47
  -4  -1  -3   20.98    2.63
   4   1   4    7.46    1.92
  -4   1  -4   13.76    2.31
  -4   1  -4   10.01    1.97
  -4   1  -4   11.00    1.89
   4   1   4    9.68    2.52
   4  -1   4    9.57    2.13
  -4  -1  -4   11.01    2.02
   4  -1   4   11.47    2.54
  -4  -1  -4   10.29    2.16
  -4  -1  -4   10.17    1.89
  -4   1  -5   47.19    4.31
   4   1   5   36.62    4.29
  -4   1  -5   51.98    3.85
   4   1   5   54.70    4.04
  -4   1  -5   49.72    3.48
   4  -1   5   44.77    4.60
  -4  -1  -5   46.14    3.81
  -4  -1  -5   46.79    4.41
   4  -1   5   49.76    4.83
  -4  -1  -5   50.67    4.56
  -4   1  -6   22.29    3.31
  -4   1  -6   21.39    2.64
  -4   1  -6   19.17    3.16
   4   1   6   24.76    3.38
   4   1   6   21.26    3.86
   4  -1   6   22.19    3.80
  -4  -1  -6   21.33    3.41
  -4  -1  -6   16.72    3.07
   4  -1   6   16.86    3.32
  -4  -1  -6   21.44    3.17
   4   1   7    8.80    2.54
  -4   1  -7    3.50    2.35
   4   1   7    5.52    2.93
  -4   1  -7    5.54    2.38
  -4  -1  -7    6.10    2.51
  -4  -1  -7    9.31    2.84
  -4  -1  -7    5.09    2.10
   4  -1   7    1.29    2.18
   4   1   8    2.27    2.18
  -4   1  -8   -0.25    2.17
  -4   1  -8   -0.46    2.14
   4   1   8    2.25    2.07
  -4  -1  -8   -0.20    2.15
   4  -1   8    2.81    2.33
  -4  -1  -8   -1.24    1.42
  -4   1  -9    9.39    3.39
  -4  -1  -9    9.22    3.09
   4   2 -10   11.78    3.23
   4   2 -10    5.98    2.88
   4  -2 -10    2.47    2.38
   4  -2 -10    6.60    3.09
   4   2  -9   17.96    3.36
   4   2  -9   21.70    3.99
   4  -2  -9   22.08    3.97
   4  -2  -9   19.93    3.75
   4   2  -8    2.76    2.10
   4   2  -8   -2.27    1.36
   4  -2  -8    2.09    1.76
  -4  -2   8    0.73    2.00
   4  -2  -8    8.25    2.56
   4   2  -7   83.81    5.30
   4   2  -7   78.84    5.37
   4  -2  -7   78.94    5.22
   4  -2  -7   85.59    5.62
  -4  -2   7   72.29    5.54
   4   2  -6    3.85    1.68
   4   2  -6    4.32    1.79
   4  -2  -6   -0.83    1.60
  -4  -2   6    2.74    2.02
   4  -2  -6    2.35    1.69
  -4   2   5   19.17    2.15
   4   2  -5   18.54    2.38
   4   2  -5   17.11    2.26
   4  -2  -5   21.14    2.71
   4  -2  -5   15.05    2.26
  -4  -2   5   14.61    2.79
  -4   2   4    3.84    1.09
   4   2  -4    1.85    1.18
   4   2  -4    4.68    1.40
   4  -2  -4    5.89    1.46
  -4  -2   4    2.26    1.85
   4  -2  -4    3.63    1.25
  -4  -2   4    3.48    1.09
   4   2  -3   86.02    4.78
  -4   2   3   91.39    3.79
   4   2  -3   87.79    4.18
   4   2  -3   81.93    4.16
   4  -2  -3   94.32    4.38
   4  -2  -3   88.55    4.15
  -4  -2   3   92.13    4.01
  -4  -2   3   87.39    3.65
  -4  -2   3   88.65    5.05
   4  -2  -3   90.67    3.50
   4  -2  -3   85.07    4.05
   4   2  -2   28.72    2.30
   4   2  -2   29.73    1.95
   4   2  -2   29.26    1.93
   4   2  -2   39.54    3.73
  -4  -2   2   28.60    2.01
  -4  -2   2   32.56    1.93
   4  -2  -2   30.53    1.84
   4  -2  -2   29.96    1.67
  -4  -2   2   32.47    2.82
   4  -2  -2   30.58    1.78
   4  -2  -2   30.68    1.85
   4  -2  -2   33.61    1.90
  -4  -2   2   30.84    1.83
  -4  -2   2   29.24    1.89
   4   2  -1  114.42    4.92
   4   2  -1  125.08    5.00
   4   2  -1  128.35    5.78
   4   2  -1  128.69    5.52
  -4   2   1  128.42    5.07
   4   2  -1  125.17    5.03
   4   2  -1  116.58    4.90
  -4  -2   1  130.31    5.46
  -4  -2   1  116.47    5.63
   4  -2  -1  118.14    5.06
  -4  -2   1  118.79    4.85
  -4  -2   1  126.93    4.91
   4  -2  -1  125.55    5.16
  -4  -2   1  125.33    4.91
  -4  -2   1  121.47    5.42
  -4  -2   1  126.95    4.83
   4   2   0  172.39    7.24
   4   2   0  170.26    7.28
   4   2   0  175.74    7.49
  -4   2   0  188.10    7.23
   4   2   0  183.27    6.92
   4   2   0  170.84    6.85
  -4   2   0  183.49    6.30
   4  -2   0  177.34    6.75
   4  -2   0  181.98    6.60
  -4  -2   0  172.68    6.79
  -4  -2   0  175.55    7.21
  -4  -2   0  176.78    7.44
   4  -2   0  176.74    6.72
   4  -2   0  181.78    6.31
   4  -2   0  173.74    7.21
   4  -2   0  179.93    7.42
  -4  -2   0  180.29    7.50
   4   2   1   22.20    2.34
  -4   2  -1   21.01    2.39
   4   2   1   23.71    2.11
  -4   2  -1   20.83    1.18
   4   2   1   22.27    2.23
  -4   2  -1   21.79    1.66
   4   2   1   19.28    2.32
   4   2   1   19.01    1.89
  -4   2  -1   20.44    1.55
  -4  -2  -1   22.76    1.98
   4  -2   1   20.70    2.26
  -4  -2  -1   23.81    2.28
   4  -2   1   20.49    1.14
  -4  -2  -1   20.68    2.08
   4  -2   1   21.43    1.67
   4  -2   1   21.08    2.25
  -4  -2  -1   21.57    2.21
  -4  -2  -1   14.87    1.79
   4  -2   1   22.58    1.64
  -4  -2  -1   19.65    2.33
   4  -2   1   22.65    1.79
   4   2   2  239.83    9.47
   4   2   2  228.68    9.33
  -4   2  -2  246.58    9.31
  -4   2  -2  220.63    9.06
   4   2   2  234.57    9.68
  -4   2  -2  240.03    8.42
   4   2   2  236.16    9.38
  -4   2  -2  240.71    9.29
  -4  -2  -2  235.99    9.38
   4  -2   2  242.35    9.51
   4  -2   2  241.67    9.36
   4  -2   2  232.04    9.30
  -4  -2  -2  255.34   10.10
  -4  -2  -2  230.50    9.83
  -4  -2  -2  232.26    9.32
  -4  -2  -2  238.10    9.38
   4  -2   2  224.20    9.82
   4   2   3   93.50    4.65
   4   2   3   90.80    5.11
   4   2   3   93.26    4.83
  -4   2  -3  102.24    4.14
  -4   2  -3   89.89    4.64
  -4   2  -3   95.30    4.96
   4   2   3   90.18    4.78
  -4   2  -3   96.19    4.78
   4  -2   3   88.31    4.86
   4  -2   3   95.36    4.98
  -4  -2  -3   86.18    5.25
  -4  -2  -3   88.33    4.94
   4  -2   3   81.02    5.37
  -4  -2  -3   94.69    4.87
  -4   2  -4   75.31    4.72
   4   2   4   73.52    4.32
  -4   2  -4   73.18    4.24
   4   2   4   70.22    4.78
  -4   2  -4   64.28    4.21
  -4  -2  -4   62.87    4.31
   4  -2   4   73.62    4.76
  -4  -2  -4   80.67    4.68
  -4  -2  -4   79.36    5.00
   4  -2   4   76.57    5.34
   4   2   5   10.51    2.16
  -4   2  -5   14.17    2.42
   4   2   5   10.01    2.85
  -4   2  -5    9.11    2.14
   4  -2   5   10.73    2.96
  -4  -2  -5   14.29    2.72
  -4  -2  -5   10.92    2.52
  -4  -2  -5   11.55    2.61
   4  -2   5   11.78    2.94
  -4   2  -6   33.30    4.05
   4   2   6   27.55    3.36
  -4   2  -6   27.75    3.66
   4   2   6   24.05    3.88
  -4  -2  -6   34.83    4.03
   4  -2   6   34.77    4.58
  -4  -2  -6   30.19    3.81
  -4  -2  -6   23.29    3.54
   4   2   7    4.03    1.94
  -4   2  -7    4.91    1.97
  -4   2  -7    5.42    2.12
   4   2   7    2.52    2.02
  -4  -2  -7    5.84    2.19
   4  -2   7    6.13    2.75
  -4  -2  -7    8.74    2.62
  -4  -2  -7    6.83    2.75
  -4   2  -8    5.97    2.90
  -4   2  -8    1.37    2.42
   4   2   8    5.55    3.14
  -4  -2  -8    8.00    3.13
  -4  -2  -8   11.62    3.47
   4  -2   8    6.78    3.06
  -4   2  -9    3.47    2.90
   4   2   9    2.36    2.18
   4  -2   9    2.04    2.77
  -4  -2  -9    1.94    2.65
   4   3 -10    6.92    2.83
   4   3 -10    2.50    2.42
   4   3 -10    1.04    2.31
   4  -3 -10    9.90    3.50
   4  -3 -10    2.02    2.49
   4   3  -9    7.47    2.84
   4   3  -9    3.55    2.57
   4   3  -9    6.45    2.89
  -4  -3   9    3.12    2.90
   4  -3  -9    7.23    2.63
   4  -3  -9    9.46    2.87
   4   3  -8    8.31    2.58
   4   3  -8   14.70    3.09
   4   3  -8   13.30    3.11
   4  -3  -8   14.93    3.18
   4  -3  -8   15.47    2.98
  -4  -3   8   14.89    3.51
   4   3  -7    3.23    1.55
   4   3  -7    5.21    2.22
   4   3  -7    4.51    2.09
  -4  -3   7    6.41    2.62
   4  -3  -7    4.14    2.19
   4  -3  -7    6.51    2.19
   4   3  -6    1.15    1.52
   4   3  -6    2.09    1.95
   4   3  -6    2.74    1.75
  -4  -3   6    2.46    1.83
   4  -3  -6    2.35    1.62
   4  -3  -6    2.00    1.86
   4   3  -5   64.38    4.34
   4   3  -5   72.28    5.07
   4   3  -5   71.66    4.31
   4  -3  -5   64.90    4.23
  -4  -3   5   66.36    5.19
   4  -3  -5   63.39    4.34
   4   3  -4   20.65    2.49
   4   3  -4   27.44    2.83
  -4   3   4   28.19    2.49
   4   3  -4   21.71    3.09
   4  -3  -4   24.22    2.63
  -4  -3   4   25.88    1.60
   4  -3  -4   26.34    2.74
  -4  -3   4   26.18    3.48
   4   3  -3    2.95    1.13
   4   3  -3    2.65    1.52
   4   3  -3    2.48    1.14
   4  -3  -3    3.21    1.13
   4  -3  -3    1.20    0.92
   4  -3  -3    2.11    0.53
  -4  -3   3    2.51    1.03
  -4  -3   3    3.43    1.95
  -4  -3   3    3.47    1.07
   4  -3  -3    2.54    1.10
  -4   3   2   89.92    3.71
   4   3  -2   82.78    4.61
   4   3  -2   89.02    4.25
   4   3  -2   85.00    4.20
  -4  -3   2   86.20    4.35
   4  -3  -2   88.93    3.82
  -4  -3   2   81.23    5.06
   4  -3  -2   90.22    3.57
  -4  -3   2   84.25    3.97
  -4  -3   2   81.82    4.07
   4  -3  -2   80.28    4.05
   4  -3  -2   91.84    4.19
  -4   3   1   49.94    2.84
   4   3  -1   47.55    3.23
  -4  -3   1   48.41    2.81
   4  -3  -1   47.79    2.95
  -4  -3   1   51.28    3.45
   4  -3  -1   50.01    2.80
   4  -3  -1   48.40    3.03
  -4  -3   1   46.11    2.67
  -4  -3   1   54.35    3.43
  -4   3   0   24.37    1.05
   4   3   0   24.38    2.70
  -4   3   0   22.54    1.76
  -4   3   0   27.92    2.63
   4   3   0   24.28    2.50
   4   3   0   28.70    2.02
  -4  -3   0   25.03    2.00
   4  -3   0   22.70    2.47
  -4  -3   0   19.89    2.10
  -4  -3   0   19.04    2.42
  -4  -3   0   22.05    2.03
   4  -3   0   23.62    2.13
   4  -3   0   23.51    1.88
  -4  -3   0   25.95    2.62
   4   3   1  105.38    5.17
   4   3   1   96.98    5.18
   4   3   1  102.94    4.92
   4   3   1   98.52    5.11
  -4   3  -1   99.32    4.59
  -4   3  -1  102.61    4.63
  -4   3  -1  101.83    4.29
  -4   3  -1  100.00    4.23
  -4  -3  -1  104.04    5.09
  -4  -3  -1   93.71    5.33
  -4  -3  -1  108.13    4.93
   4  -3   1  104.30    4.76
   4  -3   1  101.67    4.27
   4  -3   1   96.81    5.43
  -4  -3  -1   99.78    4.85
  -4   3  -2   16.36    2.03
   4   3   2   18.64    2.22
  -4   3  -2   16.01    2.07
  -4   3  -2   18.40    2.12
   4   3   2   16.24    2.37
   4   3   2   18.21    2.37
  -4   3  -2   16.49    1.62
   4   3   2   18.93    2.28
  -4  -3  -2   20.18    2.24
   4  -3   2   17.24    2.14
  -4  -3  -2   16.68    2.18
   4  -3   2   15.35    2.46
  -4  -3  -2   16.09    2.19
  -4  -3  -2   14.44    2.43
   4   3   3   11.61    2.24
   4   3   3   12.31    1.90
  -4   3  -3    8.51    1.64
   4   3   3    8.41    2.04
  -4   3  -3    8.22    1.82
  -4   3  -3    8.05    1.36
   4  -3   3   11.29    2.37
  -4  -3  -3    7.48    2.02
   4  -3   3   11.60    2.03
  -4  -3  -3    9.74    2.12
  -4  -3  -3    4.24    1.74
  -4   3  -4   35.19    3.63
   4   3   4   38.29    3.20
  -4   3  -4   31.08    3.28
   4   3   4   37.21    3.98
  -4   3  -4   36.75    2.72
   4  -3   4   34.06    4.13
  -4  -3  -4   33.48    3.64
  -4  -3  -4   44.53    4.40
  -4  -3  -4   37.62    3.79
  -4   3  -5   20.39    3.15
   4   3   5   19.21    3.22
   4   3   5   15.52    2.37
  -4   3  -5   14.95    2.78
  -4   3  -5   16.32    2.24
  -4  -3  -5   16.71    3.18
   4  -3   5   16.30    3.56
  -4  -3  -5   20.22    3.00
  -4  -3  -5    7.87    2.16
  -4   3  -6   -0.41    1.58
  -4   3  -6    1.29    1.18
   4   3   6    1.47    2.26
  -4   3  -6    2.58    1.65
   4   3   6    1.91    1.62
  -4  -3  -6   -0.11    1.72
  -4  -3  -6    0.75    1.43
   4  -3   6    0.86    2.37
  -4  -3  -6    1.61    1.64
  -4   3  -7    5.36    2.42
  -4   3  -7    4.94    1.83
  -4   3  -7    6.85    2.67
   4   3   7    5.80    3.04
  -4  -3  -7    7.42    2.85
   4  -3   7    5.22    2.78
  -4  -3  -7    4.42    2.61
  -4  -3  -7    5.73    2.55
   4   3   8    9.00    3.48
  -4   3  -8    6.94    2.33
  -4   3  -8    4.05    2.23
  -4  -3  -8    6.35    2.56
  -4  -3  -8    3.37    2.58
   4  -3   8    7.35    3.28
  -4   3  -9   16.17    3.98
   4   3   9    3.64    2.31
  -4  -3  -9   11.23    3.39
   4  -3   9   16.07    4.53
   4   4  -9    0.13    1.96
   4   4  -9   -2.51    2.00
   4   4  -9    2.71    2.56
   4  -4  -9    1.18    2.32
  -4  -4   9    5.92    3.48
   4  -4  -9    3.19    2.45
   4   4  -8   10.67    2.92
   4   4  -8    4.45    2.30
   4   4  -8   10.16    2.91
   4  -4  -8    8.73    2.71
  -4  -4   8    4.57    3.25
   4  -4  -8    4.85    2.54
   4   4  -7   -0.56    1.43
   4   4  -7    0.21    1.73
   4   4  -7   -1.50    1.67
   4  -4  -7   -2.94    1.42
  -4  -4   7   -0.95    2.31
   4  -4  -7    1.43    1.73
   4   4  -6    7.76    2.22
   4   4  -6    7.70    2.24
   4   4  -6    6.97    1.97
  -4  -4   6    4.13    2.20
   4  -4  -6    7.04    2.34
   4  -4  -6    5.18    2.07
   4   4  -5    8.79    2.16
   4   4  -5   10.57    2.45
   4   4  -5   13.88    2.45
  -4  -4   5    8.18    2.87
  -4  -4   5   12.11    0.92
   4  -4  -5    9.99    2.32
   4  -4  -5   13.68    2.38
   4   4  -4   25.06    2.86
   4   4  -4   29.80    3.23
   4   4  -4   25.39    3.17
   4  -4  -4   24.57    2.91
  -4  -4   4   23.29    3.46
   4  -4  -4   22.45    2.76
  -4  -4   4   24.63    2.25
   4   4  -3   19.50    2.54
   4   4  -3   20.56    2.54
  -4   4   3   24.66    1.49
   4   4  -3   21.55    3.07
  -4  -4   3   20.69    3.17
   4  -4  -3   25.51    1.97
  -4  -4   3   24.66    2.60
   4  -4  -3   25.50    2.76
  -4  -4   3   21.53    2.50
   4  -4  -3   17.53    2.33
   4   4  -2   10.99    2.33
   4   4  -2   12.25    1.94
   4   4  -2   11.93    1.92
  -4   4   2   12.95    1.63
  -4  -4   2   10.80    1.83
   4  -4  -2    8.01    1.57
  -4  -4   2    6.15    1.61
   4  -4  -2   11.08    0.98
   4  -4  -2   13.03    2.03
  -4  -4   2   12.89    2.43
   4  -4  -2    8.67    1.52
   4   4  -1    0.82    1.16
  -4   4   1    1.03    1.12
  -4   4   1    1.07    1.09
   4  -4  -1    1.36    1.20
  -4  -4   1   -0.26    0.72
   4  -4  -1   -0.67    0.92
  -4  -4   1    0.05    1.11
   4  -4  -1    1.30    0.89
   4  -4  -1   -0.40    0.80
  -4  -4   1    0.23    1.16
   4   4   0   18.96    2.17
  -4   4   0   18.82    0.84
  -4   4   0   15.25    1.91
   4   4   0   14.03    2.26
   4   4   0   23.16    2.51
   4  -4   0   17.65    2.18
  -4  -4   0   18.64    2.09
   4  -4   0   21.56    2.37
   4  -4   0   16.78    2.51
  -4  -4   0   20.20    2.20
  -4  -4   0   15.44    2.30
   4   4   1   43.46    3.43
  -4   4  -1   49.18    3.06
  -4   4  -1   49.15    3.26
   4   4   1   54.28    3.74
   4   4   1   59.89    3.66
  -4   4  -1   46.85    3.17
  -4   4  -1   51.66    2.65
  -4  -4  -1   51.33    3.48
   4  -4   1   42.43    4.21
   4  -4   1   54.57    3.14
  -4  -4  -1   57.38    3.57
   4  -4   1   53.37    3.29
  -4  -4  -1   50.09    3.66
   4   4   2    0.51    1.63
  -4   4  -2    3.05    1.21
  -4   4  -2    1.22    1.29
  -4   4  -2    1.35    1.26
   4   4   2    0.39    1.04
  -4   4  -2    0.51    1.05
   4  -4   2   -0.41    1.51
  -4  -4  -2   -0.18    1.14
  -4  -4  -2    0.07    1.38
   4  -4   2   -0.23    1.15
  -4  -4  -2    0.07    1.34
   4  -4   2    2.20    0.89
  -4   4  -3    5.91    1.51
  -4   4  -3    7.28    1.76
   4   4   3    5.31    1.88
  -4   4  -3    3.02    1.59
   4   4   3    7.03    1.94
  -4  -4  -3    4.55    1.51
   4  -4   3    7.52    2.78
  -4  -4  -3    8.23    2.17
  -4  -4  -3   13.78    3.14
  -4  -4  -3    5.12    1.57
   4   4   4    5.07    1.94
  -4   4  -4    2.18    1.82
  -4   4  -4    5.91    1.66
  -4   4  -4    4.44    1.62
  -4  -4  -4    8.21    2.98
  -4  -4  -4    2.61    1.59
   4  -4   4    1.12    1.86
  -4  -4  -4    3.70    1.72
   4   4   5   58.93    4.04
  -4   4  -5   51.83    4.19
  -4   4  -5   71.49    5.07
   4   4   5   51.26    5.22
  -4   4  -5   57.24    3.90
   4  -4   5   52.72    5.92
  -4  -4  -5   61.42    5.43
  -4  -4  -5   60.65    5.57
  -4  -4  -5   57.95    5.85
   4   4   6    0.24    2.16
  -4   4  -6    0.08    1.34
   4   4   6   -2.20    1.15
  -4   4  -6    0.02    1.88
  -4   4  -6   -1.47    1.09
  -4  -4  -6   -2.43    1.56
  -4  -4  -6   -0.28    2.27
   4  -4   6    0.58    2.52
  -4  -4  -6   -1.71    1.85
  -4   4  -7   64.12    4.87
  -4   4  -7   46.96    5.36
  -4   4  -7   52.40    5.70
   4   4   7   55.84    6.47
  -4  -4  -7   58.57    6.08
   4  -4   7   53.48    6.61
  -4  -4  -7   61.24    6.18
  -4  -4  -7   60.17    6.42
   4   4   8    0.39    2.52
  -4   4  -8   -3.18    1.80
   4  -4   8   -2.31    1.75
  -4  -4  -8    0.38    2.97
  -4  -4  -8   -0.49    2.38
  -4  -4  -8   -0.13    2.47
  -4   4  -9    1.87    2.71
   4   4   9    5.91    2.93
   4  -4   9   -1.51    2.59
  -4  -4  -9    0.16    1.89
   4   5  -9    3.63    2.57
   4   5  -9   -1.61    1.42
   4   5  -9    0.05    2.00
   4  -5  -9    1.68    2.64
   4  -5  -9    0.85    2.42
  -4  -5   9    0.64    2.88
   4   5  -8   21.51    4.03
   4   5  -8   27.56    4.15
   4   5  -8   26.33    4.52
   4  -5  -8   24.85    4.03
  -4  -5   8   21.39    4.77
   4  -5  -8   25.84    4.56
   4   5  -7    0.57    2.01
   4   5  -7    2.41    1.81
   4   5  -7   -0.16    1.37
  -4  -5   7    4.75    3.26
   4  -5  -7    7.16    2.38
   4  -5  -7    3.78    2.30
   4   5  -6    0.69    1.27
   4   5  -6    0.73    1.45
   4   5  -6    0.68    1.66
  -4  -5   6   -2.17    1.59
   4  -5  -6    0.34    1.87
   4  -5  -6   -0.86    1.50
   4   5  -5    9.99    2.19
   4   5  -5   17.52    2.99
   4   5  -5   12.19    2.88
  -4  -5   5   11.66    1.66
   4  -5  -5   11.34    2.46
  -4  -5   5   13.81    3.28
   4  -5  -5   15.29    2.84
   4   5  -4   17.32    2.78
   4   5  -4   27.07    3.73
   4   5  -4   19.83    2.93
   4  -5  -4   20.89    3.08
  -4  -5   4   21.78    2.56
  -4  -5   4   26.81    4.26
  -4  -5   4   17.84    2.76
   4  -5  -4   23.19    3.02
   4   5  -3   33.37    4.01
  -4   5   3   29.54    2.16
   4   5  -3   26.41    2.99
   4   5  -3   27.69    3.18
  -4  -5   3   21.75    2.82
   4  -5  -3   35.01    3.54
   4  -5  -3   32.09    2.16
  -4  -5   3   23.45    3.62
   4  -5  -3   30.64    2.34
   4  -5  -3   30.55    3.25
  -4  -5   3   34.78    3.36
   4   5  -2   -1.57    1.32
   4   5  -2    1.58    1.51
  -4   5   2   -1.11    1.07
  -4  -5   2    1.96    1.18
   4  -5  -2   -1.39    1.27
  -4  -5   2    2.30    1.43
   4  -5  -2    1.19    1.34
   4  -5  -2   -2.23    0.90
  -4  -5   2   -1.34    1.39
  -4   5   1   19.94    2.63
   4   5  -1   20.09    2.97
   4  -5  -1   20.97    2.50
  -4  -5   1   24.33    2.78
   4  -5  -1   16.57    2.31
  -4  -5   1   17.60    3.11
   4  -5  -1   21.63    2.72
  -4  -5   1   18.20    2.48
   4  -5  -1   18.11    2.53
   4   5   0   39.57    3.64
   4   5   0   30.82    3.57
   4   5   0   33.17    2.87
  -4   5   0   37.22    3.35
  -4   5   0   37.79    1.59
   4  -5   0   40.57    3.68
  -4  -5   0   39.96    3.58
   4  -5   0   37.36    3.70
  -4  -5   0   37.03    3.44
  -4  -5   0   39.32    4.04
   4   5   1   11.37    2.37
  -4   5  -1   10.15    1.93
   4   5   1    7.74    1.86
  -4   5  -1   10.31    1.37
   4  -5   1   10.94    2.02
  -4  -5  -1   11.00    1.98
  -4  -5  -1    5.29    1.96
  -4  -5  -1   13.05    2.35
   4  -5   1    7.64    2.57
  -4   5  -2   28.89    2.86
   4   5   2   33.97    3.98
  -4   5  -2   26.27    3.02
  -4   5  -2   31.66    3.31
   4   5   2   25.32    3.32
  -4  -5  -2   26.38    3.30
   4  -5   2   25.49    3.92
  -4  -5  -2   26.40    3.11
  -4  -5  -2   27.59    3.10
  -4   5  -3    0.72    1.47
  -4   5  -3    2.76    1.35
  -4   5  -3    2.28    1.59
   4   5   3    1.68    1.87
   4   5   3   -0.29    1.81
  -4  -5  -3    1.41    1.44
  -4  -5  -3    1.57    1.91
  -4  -5  -3    0.86    1.33
   4  -5   3    3.00    2.57
  -4  -5  -3    4.08    2.01
  -4   5  -4   -0.57    1.06
   4   5   4   -0.16    1.31
  -4   5  -4    3.41    1.69
  -4   5  -4    1.21    1.62
  -4  -5  -4    0.68    1.85
  -4  -5  -4    0.71    2.40
  -4  -5  -4   -0.59    1.73
   4  -5   4    1.25    1.93
  -4   5  -5    2.42    1.49
   4   5   5    2.25    1.45
  -4   5  -5    1.49    1.92
  -4   5  -5   -1.11    1.07
   4   5   5    1.30    2.12
  -4  -5  -5   -1.35    1.63
   4  -5   5    2.61    2.15
  -4  -5  -5    0.36    1.42
  -4  -5  -5   -0.34    1.39
   4   5   6   -0.02    2.00
  -4   5  -6    4.88    2.30
  -4   5  -6    2.21    2.23
  -4   5  -6   -0.19    1.68
  -4  -5  -6   -0.56    1.40
  -4  -5  -6    2.34    2.15
  -4  -5  -6   -0.96    2.59
   4  -5   6    0.33    1.92
   4   5   7    4.57    2.47
  -4   5  -7    0.05    1.54
  -4  -5  -7   -0.14    1.67
  -4  -5  -7    2.51    2.71
  -4  -5  -7    0.78    1.79
   4  -5   7   -2.78    2.39
   4   5   8   -0.86    1.67
  -4   5  -8   -0.97    2.40
  -4  -5  -8    3.57    2.74
  -4  -5  -8   -2.78    2.42
   4  -5   8    1.88    3.13
   4   6  -8    0.46    2.38
   4   6  -8   -0.38    2.15
   4   6  -8   -0.93    2.29
   4  -6  -8    0.68    2.21
  -4  -6   8   -0.22    2.19
   4  -6  -8    4.65    2.95
   4   6  -7   -1.54    2.14
   4   6  -7    2.36    2.28
   4   6  -7    0.32    1.97
   4  -6  -7    0.90    1.77
   4  -6  -7    1.13    2.16
  -4  -6   7   -5.24    2.32
   4   6  -6   12.62    3.35
   4   6  -6   11.01    2.95
   4   6  -6    4.85    2.30
   4  -6  -6   13.70    2.99
   4  -6  -6    4.65    2.24
  -4  -6   6    6.14    3.48
   4   6  -5    1.85    1.95
   4   6  -5    0.57    2.23
   4   6  -5    2.81    1.94
  -4  -6   5    2.54    2.92
  -4  -6   5    0.70    1.69
  -4  -6   5    0.35    1.69
   4  -6  -5    4.60    2.23
   4  -6  -5    4.61    2.13
   4   6  -4   19.54    3.09
   4   6  -4   27.09    4.04
   4   6  -4   22.57    3.10
  -4  -6   4   21.41    3.08
   4  -6  -4   24.82    3.57
   4  -6  -4   22.09    3.23
  -4  -6   4   26.12    3.28
  -4  -6   4   27.42    4.49
   4   6  -3    2.87    1.81
   4   6  -3    2.15    1.73
   4   6  -3   -0.36    1.59
  -4  -6   3   -0.78    1.01
   4  -6  -3   -1.16    1.25
  -4  -6   3    3.36    2.57
  -4  -6   3    0.09    1.35
   4  -6  -3    1.56    1.75
   4  -6  -3    0.62    1.26
   4   6  -2   -1.63    1.90
  -4  -6   2    0.68    1.50
   4  -6  -2    0.84    1.44
   4  -6  -2   -0.20    1.55
  -4  -6   2    1.60    1.17
  -4  -6   2    1.37    1.78
   4   6  -1   28.78    3.44
   4   6  -1   27.98    4.04
  -4   6   1   27.18    3.11
   4  -6  -1   23.22    3.10
   4  -6  -1   28.43    3.46
   4  -6  -1   23.20    3.21
  -4  -6   1   24.04    3.77
  -4  -6   1   26.20    3.22
  -4  -6   1   28.65    3.25
   4  -6  -1   33.31    3.47
   4   6   0   18.07    3.27
   4   6   0   15.59    2.56
  -4   6   0   12.44    0.89
  -4   6   0    8.60    2.12
  -4   6   0   15.87    0.98
  -4  -6   0   19.22    2.66
   4  -6   0   11.00    2.30
  -4  -6   0   18.26    3.22
  -4  -6   0   14.41    2.56
   4  -6   0   10.75    2.45
   4  -6   0   14.76    2.97
   4  -6   0   13.67    2.61
  -4   6  -1   20.90    2.76
   4   6   1   28.45    3.72
   4   6   1   23.75    3.23
  -4   6  -1   28.67    2.05
  -4  -6  -1   27.15    3.65
  -4  -6  -1   24.51    3.33
  -4  -6  -1   25.84    3.28
   4  -6   1   22.85    3.47
   4   6   2    3.29    2.37
  -4   6  -2    1.96    1.67
   4   6   2    1.38    1.65
  -4   6  -2    0.65    1.48
   4  -6   2   -0.97    1.64
  -4  -6  -2    1.00    1.78
  -4  -6  -2    1.97    1.82
  -4  -6  -2    1.62    1.78
   4   6   3    3.11    1.81
  -4   6  -3   -0.59    1.59
  -4   6  -3    4.61    1.97
   4   6   3    1.58    1.83
  -4   6  -3    2.45    1.44
  -4  -6  -3    3.38    1.69
  -4  -6  -3    3.24    2.01
  -4  -6  -3    8.01    2.38
   4  -6   3    3.16    2.80
   4   6   4    6.70    2.39
  -4   6  -4    5.78    2.21
  -4   6  -4    2.28    1.96
  -4   6  -4   10.71    2.52
   4   6   4    9.62    2.78
  -4  -6  -4   10.50    2.11
  -4  -6  -4    7.75    2.90
  -4  -6  -4    7.85    2.39
  -4  -6  -4    9.63    2.32
   4  -6   4    9.23    3.58
  -4   6  -5    6.35    2.36
  -4   6  -5    1.77    2.02
   4   6   5    2.48    1.39
   4   6   5    1.00    1.63
  -4   6  -5   -1.36    1.53
  -4  -6  -5    1.82    2.27
  -4  -6  -5   -1.01    1.89
  -4  -6  -5    1.92    2.98
   4  -6   5   -1.80    1.96
  -4   6  -6   20.98    3.85
   4   6   6   19.88    3.94
   4  -6   6   18.10    4.08
  -4  -6  -6   20.85    4.05
  -4  -6  -6   22.47    4.45
  -4  -6  -6   13.19    3.53
  -4   6  -7    8.49    3.07
   4   6   7    4.10    2.84
  -4  -6  -7    2.49    2.81
   4  -6   7    2.84    2.57
  -4  -6  -7    2.12    3.19
  -4  -6  -7   -0.59    3.89
   4   6   8   13.74    4.06
  -4   6  -8    8.85    3.36
   4  -6   8    8.29    4.05
  -4  -6  -8    8.91    3.95
  -4  -6  -8   14.95    3.95
   4   7  -8    0.93    2.35
   4   7  -8    0.93    2.82
   4   7  -8   -0.20    2.56
   4  -7  -8   -2.99    2.27
   4  -7  -8    1.36    2.23
  -4  -7   8   -0.78    2.00
  -4  -7   8    1.19    3.22
   4   7  -7   -1.90    2.19
   4   7  -7    4.20    2.64
   4   7  -7    6.20    3.37
   4  -7  -7    1.96    1.96
   4  -7  -7    1.47    2.49
  -4  -7   7    7.97    2.65
  -4  -7   7    1.03    2.39
   4   7  -6    0.15    1.37
   4   7  -6   -1.73    1.22
   4   7  -6   -0.10    2.45
  -4  -7   6    1.41    3.21
   4  -7  -6    0.02    1.57
  -4  -7   6   -0.41    1.84
   4  -7  -6    1.52    2.21
   4   7  -5   36.15    4.39
   4   7  -5   29.54    4.82
   4   7  -5   23.72    3.66
  -4  -7   5   26.08    5.03
  -4  -7   5   25.77    3.77
   4  -7  -5   29.48    4.26
   4  -7  -5   32.98    4.39
   4   7  -4    5.68    2.75
   4   7  -4    1.82    1.87
   4   7  -4    9.18    2.61
  -4  -7   4    1.75    3.00
  -4  -7   4    0.91    1.78
   4  -7  -4    0.32    1.96
   4  -7  -4    6.00    1.94
   4   7  -3   31.79    4.64
  -4  -7   3   22.68    4.55
   4  -7  -3   31.66    4.00
   4  -7  -3   32.64    3.23
  -4  -7   3   26.12    3.59
   4  -7  -3   21.78    3.33
  -4  -7   3   27.85    4.11
   4   7  -2   24.52    4.07
   4  -7  -2   18.39    3.08
  -4  -7   2   27.28    3.46
   4  -7  -2   22.19    3.36
   4  -7  -2   19.32    3.12
  -4  -7   2   16.70    3.44
  -4  -7   2   19.15    3.07
   4   7  -1   -0.42    1.37
   4   7  -1   -0.78    2.00
  -4   7   1    0.03    1.19
  -4  -7   1    0.57    2.17
   4  -7  -1   -0.77    1.07
   4  -7  -1   -1.89    1.59
   4  -7  -1   -0.70    1.36
  -4  -7   1   -1.36    1.17
  -4  -7   1   -1.65    1.46
   4   7   0   12.93    3.16
   4   7   0    9.69    2.36
  -4   7   0   13.01    2.67
   4  -7   0   11.72    2.47
  -4  -7   0    8.32    2.10
  -4  -7   0    9.40    2.86
  -4  -7   0   14.91    2.86
   4  -7   0   10.63    2.93
   4  -7   0    8.17    2.09
   4   7   1   20.59    3.81
  -4   7  -1   19.68    1.60
   4   7   1   16.73    2.84
  -4   7  -1   25.38    3.41
  -4  -7  -1   27.09    3.84
  -4  -7  -1   23.13    3.20
  -4  -7  -1   19.36    3.33
   4  -7   1   16.71    3.09
   4  -7   1   19.30    3.44
   4   7   2   -0.28    1.54
   4   7   2    1.79    1.77
  -4   7  -2    0.22    1.54
  -4  -7  -2   -0.89    1.73
  -4  -7  -2    3.87    1.94
  -4  -7  -2    1.13    1.84
   4  -7   2    0.68    1.90
  -4   7  -3   -2.65    1.54
   4   7   3   -0.91    1.44
   4   7   3    4.30    2.11
  -4   7  -3   -1.65    1.47
  -4   7  -3    0.06    1.31
   4  -7   3   -0.36    2.57
  -4  -7  -3   -1.07    1.83
  -4  -7  -3    2.88    1.86
  -4  -7  -3    0.59    1.91
  -4   7  -4   10.74    2.80
  -4   7  -4   12.81    2.82
   4   7   4    6.30    2.46
   4   7   4   11.74    2.88
   4  -7   4   14.39    3.58
  -4  -7  -4    8.56    2.46
  -4  -7  -4   11.22    2.88
  -4  -7  -4    9.03    3.93
  -4   7  -5   10.27    2.64
  -4   7  -5   16.07    3.36
   4   7   5    8.18    2.78
  -4  -7  -5   13.85    3.38
   4  -7   5   14.59    4.36
  -4  -7  -5   11.49    4.44
  -4  -7  -5   12.29    3.53
   4   7   6   -0.16    2.07
  -4   7  -6    8.27    2.97
  -4  -7  -6    7.75    4.10
   4  -7   6    3.35    2.95
  -4  -7  -6    3.47    3.00
  -4   7  -7    7.46    3.27
   4   7   7    2.32    2.61
  -4  -7  -7    5.28    3.15
  -4  -7  -7   11.45    4.48
   4  -7   7    5.37    3.18
   4   8  -7    6.42    3.24
   4   8  -7   -0.95    2.41
   4   8  -7    2.85    3.37
  -4  -8   7    4.40    2.70
   4  -8  -7    2.16    2.53
   4  -8  -7    2.48    2.83
  -4  -8   7    5.18    4.09
   4   8  -6   -0.51    2.15
   4   8  -6   -0.57    1.56
   4   8  -6   -2.49    2.45
   4  -8  -6    2.37    2.44
   4  -8  -6    0.69    1.98
  -4  -8   6    1.83    2.18
  -4  -8   6   -5.37    2.60
   4   8  -5   -1.84    1.70
   4   8  -5    4.29    2.42
   4   8  -5    8.29    2.69
   4  -8  -5    5.93    2.39
  -4  -8   5    5.31    2.57
   4  -8  -5    8.37    3.04
  -4  -8   5    2.08    3.23
   4   8  -4    4.26    2.45
   4  -8  -4    3.05    2.41
   4  -8  -4    2.21    1.70
  -4  -8   4    3.09    3.31
  -4  -8   4    3.16    2.13
   4   8  -3   16.16    3.92
   4  -8  -3   16.65    3.22
  -4  -8   3   13.85    3.03
  -4  -8   3   11.99    3.78
   4  -8  -3   10.34    2.98
   4   8  -2    1.50    1.46
   4   8  -2    1.95    2.12
   4  -8  -2    6.49    2.48
  -4  -8   2    3.01    1.64
  -4  -8   2   -0.23    2.45
   4  -8  -2    2.68    2.24
   4  -8  -2    6.16    2.24
  -4   8   1    2.54    2.05
   4   8  -1   -1.23    1.50
   4   8  -1    1.48    1.56
   4  -8  -1   -0.60    1.39
   4  -8  -1    0.86    1.90
  -4  -8   1   -1.35    1.42
   4  -8  -1   -3.43    1.80
  -4  -8   1    1.54    1.93
  -4  -8   1   -1.05    2.13
   4   8   0   26.99    3.63
   4   8   0   22.57    3.98
  -4   8   0   21.10    3.48
   4  -8   0   23.93    3.80
   4  -8   0   20.01    3.83
   4  -8   0   24.86    3.73
  -4  -8   0   25.37    4.19
  -4  -8   0   23.22    3.44
  -4  -8   0   19.29    3.49
   4   8   1   21.41    3.33
  -4   8  -1   15.98    3.13
   4   8   1   18.71    3.80
   4  -8   1   16.20    3.10
  -4  -8  -1   18.03    3.53
   4  -8   1   12.47    3.47
  -4  -8  -1   17.83    3.33
   4  -8   1   15.53    3.18
  -4  -8  -1   18.99    3.48
   4   8   2    9.77    2.80
  -4   8  -2   10.44    2.71
   4   8   2   12.38    2.87
   4  -8   2   10.66    2.81
  -4  -8  -2    3.81    2.09
  -4  -8  -2    8.71    2.76
  -4  -8  -2   10.52    2.95
   4  -8   2    9.45    3.58
   4   8   3   12.87    2.99
  -4   8  -3    6.86    2.55
   4   8   3   13.00    3.62
  -4  -8  -3   16.34    2.96
   4  -8   3    6.01    2.89
  -4  -8  -3   13.51    3.40
  -4  -8  -3    9.00    2.66
   4   8   4   -1.25    1.81
  -4   8  -4    1.43    2.14
   4   8   4    1.31    1.88
   4  -8   4    2.73    3.46
  -4  -8  -4   -4.99    2.93
  -4  -8  -4    5.06    2.60
  -4  -8  -4    3.28    2.34
  -4   8  -5    1.80    2.38
   4   8   5   -2.57    1.85
  -4  -8  -5   -5.24    2.16
   4  -8   5    2.01    3.47
  -4  -8  -5    2.96    2.82
  -4   8  -6   11.33    3.44
   4   8   6   18.62    4.14
  -4  -8  -6    8.85    3.64
   4  -8   6   15.74    5.00
  -4  -8  -6    9.29    4.02
   4   9  -6    8.50    2.95
   4   9  -6    0.00    3.31
  -4  -9   6    3.57    2.85
   4  -9  -6    5.98    2.90
   4  -9  -6   12.56    3.98
  -4  -9   6    3.77    3.64
   4   9  -5   -0.69    2.93
  -4  -9   5    0.32    2.10
   4  -9  -5    1.46    2.64
   4  -9  -5   -2.11    1.54
  -4  -9   5    3.37    3.77
   4   9  -4   17.33    4.43
  -4  -9   4   16.35    4.84
  -4  -9   4   24.22    4.12
   4  -9  -4   30.33    4.71
   4  -9  -4   30.67    4.79
   4   9  -3   -2.64    1.71
  -4  -9   3   -0.96    2.77
   4  -9  -3    1.58    2.28
  -4  -9   3    1.79    2.15
   4  -9  -3    3.15    2.51
   4   9  -2    8.00    3.64
   4   9  -2    5.97    2.28
  -4  -9   2    4.71    2.44
   4  -9  -2    4.16    2.78
   4  -9  -2    7.33    2.39
  -4  -9   2    8.64    3.49
   4  -9  -2    5.39    2.12
   4   9  -1   32.21    4.86
   4   9  -1   26.80    3.80
  -4   9   1   24.99    4.04
   4  -9  -1   24.63    4.13
  -4  -9   1   27.87    4.92
   4  -9  -1   22.84    3.94
  -4  -9   1   19.68    3.75
   4  -9  -1   19.09    3.98
  -4   9   0    4.20    2.49
   4   9   0    0.94    2.07
   4   9   0    6.20    2.38
  -4  -9   0    2.41    2.17
  -4  -9   0    3.29    2.43
   4  -9   0    3.16    2.87
   4  -9   0    0.97    2.17
   4  -9   0    8.01    2.71
   4   9   1    1.95    1.98
  -4   9  -1   -4.75    1.26
   4   9   1    0.70    1.95
  -4  -9  -1    1.48    2.12
   4  -9   1   -2.50    1.81
   4  -9   1   -1.90    1.74
  -4  -9  -1    1.03    2.31
   4  -9   1    0.79    2.77
   4   9   2    8.77    2.96
  -4   9  -2    8.18    2.75
   4   9   2    4.96    2.54
   4  -9   2    9.79    3.41
  -4  -9  -2    8.97    2.75
   4  -9   2    3.77    2.58
   4  -9   2    4.73    2.28
  -4  -9  -2    4.49    2.77
  -4   9  -3   14.33    3.37
   4   9   3    9.28    2.96
   4   9   3   13.80    3.61
  -4  -9  -3   10.65    3.41
   4  -9   3   14.77    4.56
   4  -9   3    6.11    2.72
   4  -9   3   12.65    3.50
   4   9   4   -3.19    1.85
   4  -9   4    0.62    2.55
  -4  -9  -4    0.05    2.27
  -4  -9  -4   -3.09    3.94
   4  -9   5   34.01    6.13
  -4  -9  -5   20.33    4.31
  -4  -9  -5   20.45    5.23
   4  10  -4   -2.69    2.82
  -4 -10   4    1.64    2.40
  -4 -10   4   -0.06    2.45
   4 -10  -4    4.03    2.47
   4 -10  -4    4.29    2.78
   4  10  -3    4.10    3.81
   4  10  -3    0.47    3.25
  -4 -10   3    1.12    1.72
   4 -10  -3   -1.94    2.09
   4 -10  -3   -0.33    2.27
  -4 -10   3    1.95    3.39
   4  10  -2   24.52    5.15
   4  10  -2   19.35    3.88
   4 -10  -2   25.75    4.64
  -4 -10   2   18.00    3.77
  -4 -10   2   20.09    4.28
   4 -10  -2   23.18    4.23
  -4  10   1    3.24    2.38
   4  10  -1    4.66    2.83
   4 -10  -1    6.25    3.28
  -4 -10   1    7.49    2.74
   4 -10  -1   10.77    2.98
   4 -10  -1    5.68    3.07
  -4 -10   1    6.27    3.50
  -4  10   0   18.69    3.86
   4  10   0   22.06    4.88
  -4 -10   0   17.94    3.97
   4 -10   0   17.43    4.40
  -4 -10   0   16.14    3.83
   4 -10   0   16.74    3.92
   4 -10   0   19.30    3.96
  -4  10  -1   18.41    3.93
   4  10   1   14.55    4.26
  -4 -10  -1   17.24    4.34
  -4 -10  -1   14.12    3.37
   4 -10   1   13.05    3.48
   4 -10   1   13.75    3.32
   4 -10   1   12.97    4.01
   4  10   2    6.95    3.05
  -4  10  -2    2.48    2.62
   4 -10   2    5.72    2.85
   4 -10   2    5.45    3.55
  -4 -10  -2    3.14    2.73
   4 -10   2    4.99    2.44
   4  10   3    3.53    2.52
   4 -10   3    5.77    4.07
   4 -10   3    2.95    2.47
   4 -10   3   -3.23    3.87
  -4 -10  -3    0.24    2.69
   4 -10   4   16.52    5.23
  -4 -10  -4    9.70    4.88
  -4 -10  -4   13.63    4.08
   4 -10   4   10.24    3.50
   4 -10   4    6.00    5.16
   4  11  -2    3.57    3.65
   4 -11  -2    6.71    3.15
   4 -11  -2    7.28    3.29
  -4 -11   2    2.15    3.19
  -4 -11   2    2.72    2.55
   4  11  -1    7.97    3.32
  -4 -11   1   10.27    3.69
   4 -11  -1   10.26    3.67
   4 -11  -1   10.84    3.35
  -4 -11   1    7.27    3.27
   4  11   0    6.16    3.83
  -4  11   0    9.45    3.09
   4 -11   0   -5.21    3.24
   4 -11   0    4.27    2.93
   4 -11   0    5.55    2.64
  -4 -11   0    7.25    3.42
  -4 -11   0    9.65    3.50
  -4  11  -1    4.06    2.50
   4  11   1   -4.28    2.71
   4 -11   1    1.71    2.62
  -4 -11  -1    4.63    2.62
   4 -11   1   -0.38    3.80
   5   0 -10    0.88    2.38
   5   0 -10    3.11    2.35
   5   0  -9    1.06    2.17
   5   0  -9    2.96    2.10
   5   0  -8    6.64    2.32
   5   0  -8    5.22    2.20
  -5   0   7   -0.42    1.19
   5   0  -7   -1.34    1.30
   5   0  -7    1.34    1.47
  -5   0   6  124.64    5.69
   5   0  -6  112.45    5.99
  -5   0   6  110.29    5.73
   5   0  -6  102.60    5.76
  -5   0   5   -0.89    0.78
   5   0  -5    0.60    1.36
  -5   0   5   -0.91    1.04
   5   0  -5   -0.14    0.59
   5   0  -5    0.03    1.07
   5   0  -5   -0.38    1.04
   5   0  -4   14.73    1.46
   5   0  -4   17.88    1.99
  -5   0   4   12.77    1.84
   5   0  -4   12.74    1.62
   5   0  -4   12.89    1.60
  -5   0   4   13.57    1.24
   5   0  -3    0.63    0.95
   5   0  -3   -0.58    0.52
   5   0  -3   -0.77    0.56
   5   0  -3   -0.55    0.57
  -5   0   3   -0.17    0.99
   5   0  -2   30.83    1.29
   5   0  -2   31.65    2.08
  -5   0   2   29.65    2.06
   5   0  -2   30.48    2.29
  -5   0   2   31.99    2.28
   5   0  -2   29.44    1.37
   5   0  -1   -0.81    0.85
  -5   0   1    0.53    1.09
  -5   0   1    0.35    1.03
   5   0  -1    0.78    0.78
   5   0   0  349.09   12.08
   5   0   0  366.27   13.10
  -5   0   0  358.03   12.67
   5   0   0  334.98   12.64
   5   0   0  362.29   13.10
  -5   0   0  340.07   13.03
   5   0   0  354.59   12.05
  -5   0   0  340.65   12.96
  -5   0   0  344.78   11.88
  -5   0   0  344.94   11.68
   5   0   0  359.16   12.21
   5   0   1    0.57    1.05
   5   0   1    0.73    0.71
  -5   0  -1    0.36    0.73
   5   0   1    0.31    0.98
   5   0   1    0.19    1.10
   5   0   1    0.30    1.19
   5   0   1    0.22    0.51
   5   0   1    0.17    0.64
  -5   0  -1   -0.98    0.43
  -5   0  -1    0.28    0.66
  -5   0  -1   -0.33    0.82
  -5   0  -1    0.26    0.67
   5   0   2   13.77    1.74
  -5   0  -2   15.02    2.12
  -5   0  -2   13.70    1.61
  -5   0  -2   15.30    1.39
   5   0   2   10.03    1.88
   5   0   2   18.05    2.26
  -5   0  -2   11.95    1.63
   5   0   3   -0.80    0.99
   5   0   3    0.44    0.85
  -5   0  -3   -0.45    0.83
  -5   0  -3   -0.89    1.12
  -5   0  -3    2.08    1.21
   5   0   3   -0.40    0.99
  -5   0  -3   -0.22    1.09
  -5   0  -4    1.84    1.52
   5   0   4    4.29    1.91
  -5   0  -4    2.26    1.58
   5   0   4    2.95    1.61
  -5   0  -4    0.10    1.44
  -5   0  -5   -0.79    1.45
  -5   0  -5    1.06    1.73
  -5   0  -5   -0.11    1.20
   5   0   5    3.30    2.02
   5   0   5   -1.47    1.47
  -5   0  -6   -1.43    1.63
   5   0   6   -0.64    1.63
  -5   0  -6    0.11    1.51
   5   0   6   -2.83    1.34
  -5   0  -6   -0.73    1.59
   5   0   7    2.09    2.45
   5   0   7   -1.41    1.78
  -5   0  -7    1.54    2.08
  -5   0  -7    0.23    1.44
  -5   0  -7    2.76    2.02
  -5   0  -8    6.88    2.48
   5   0   8    7.09    3.27
   5   0   8    6.96    3.06
  -5   0  -8    2.01    1.97
  -5   0  -9    1.15    2.48
   5   1 -10    3.07    2.61
   5   1 -10    3.72    2.57
   5  -1 -10    3.83    2.37
   5  -1 -10    5.99    2.93
   5   1  -9   -1.29    1.90
   5   1  -9    1.33    1.89
   5  -1  -9   -0.74    1.81
   5  -1  -9   -3.02    1.44
   5   1  -8    8.90    2.48
   5   1  -8    9.51    2.67
  -5  -1   8    5.51    1.95
   5  -1  -8    6.09    2.37
   5  -1  -8   11.04    2.72
   5   1  -7   24.82    3.37
  -5   1   7   33.31    3.90
   5   1  -7   24.54    3.17
  -5  -1   7   27.00    3.34
   5  -1  -7   25.76    3.41
   5  -1  -7   23.01    3.13
  -5   1   6   51.26    3.73
   5   1  -6   54.59    3.78
   5   1  -6   47.83    3.73
  -5   1   6   48.86    2.96
   5  -1  -6   47.38    3.02
  -5  -1   6   57.72    4.28
   5  -1  -6   53.94    3.94
   5  -1  -6   47.87    3.74
  -5   1   5   12.96    1.52
   5   1  -5   12.21    1.88
   5   1  -5   12.64    1.95
  -5   1   5    9.05    1.45
   5  -1  -5   10.16    1.80
   5  -1  -5   12.34    1.34
  -5  -1   5   14.28    1.74
   5  -1  -5   12.30    1.71
   5  -1  -5   11.15    2.07
  -5  -1   5   13.60    2.34
  -5   1   4    6.51    0.94
  -5   1   4    3.95    1.11
   5   1  -4    7.58    0.85
   5   1  -4    4.54    1.15
   5   1  -4    6.07    1.28
   5  -1  -4    5.96    0.99
   5  -1  -4    5.57    1.33
   5  -1  -4    4.59    1.18
  -5  -1   4    4.76    1.64
  -5  -1   4    5.79    1.05
   5  -1  -4    4.15    1.27
   5   1  -3    3.07    0.82
  -5   1   3    3.16    0.96
   5   1  -3    3.67    0.90
   5   1  -3    2.19    0.79
   5   1  -3    4.24    1.38
   5   1  -3    3.15    1.32
   5  -1  -3    2.10    0.89
  -5  -1   3    2.28    0.54
   5  -1  -3    3.02    0.83
  -5  -1   3    2.64    0.81
  -5  -1   3    2.55    0.57
   5  -1  -3    3.57    0.80
  -5  -1   3    2.86    1.12
   5  -1  -3    2.25    0.92
  -5   1   2   70.03    3.34
   5   1  -2   65.47    2.84
   5   1  -2   66.62    2.80
   5   1  -2   72.76    3.92
   5   1  -2   70.40    3.35
   5  -1  -2   66.42    3.53
   5  -1  -2   67.46    2.62
  -5  -1   2   64.91    2.52
   5  -1  -2   67.83    3.34
  -5  -1   2   67.46    2.54
  -5  -1   2   63.78    3.66
   5  -1  -2   66.23    2.67
  -5  -1   2   63.91    3.21
   5   1  -1   94.92    3.67
   5   1  -1   97.11    3.62
   5   1  -1   96.56    3.67
   5   1  -1  104.58    4.58
   5   1  -1   96.73    4.69
   5   1  -1   91.67    3.66
  -5   1   1   93.36    4.51
   5   1  -1   89.51    4.33
  -5  -1   1   92.32    3.40
  -5  -1   1   90.98    4.69
   5  -1  -1   96.82    4.51
   5  -1  -1  102.53    4.45
  -5  -1   1  100.20    3.42
  -5  -1   1   87.97    4.41
   5  -1  -1   97.12    4.31
  -5   1   0    7.80    1.15
   5   1   0    5.69    0.91
   5   1   0    5.79    1.48
   5   1   0    5.63    0.88
   5   1   0    8.96    1.68
  -5   1   0    6.60    1.56
  -5   1   0    7.02    0.72
   5   1   0    6.25    1.20
   5   1   0    6.34    1.38
   5  -1   0    6.33    1.31
   5  -1   0    7.40    1.11
  -5  -1   0    6.69    1.10
  -5  -1   0    7.09    1.67
   5  -1   0    5.70    0.80
  -5  -1   0    7.05    1.40
   5  -1   0    4.85    1.37
  -5  -1   0    6.25    0.81
  -5  -1   0    6.83    0.85
   5  -1   0    5.90    0.80
   5   1   1    3.11    1.11
   5   1   1    2.86    0.91
  -5   1  -1    2.70    1.10
  -5   1  -1    2.53    0.83
  -5   1  -1    4.31    1.08
   5   1   1    3.48    0.97
   5   1   1    3.87    1.13
   5   1   1    4.10    1.28
  -5   1  -1    2.53    0.78
   5   1   1    2.24    0.91
  -5   1  -1    3.07    1.09
  -5  -1  -1    1.73    0.92
   5  -1   1    2.57    0.84
  -5  -1  -1    1.73    1.14
  -5  -1  -1    2.95    1.10
   5  -1   1    2.80    0.88
   5  -1   1    2.74    1.43
  -5  -1  -1    5.26    1.36
   5  -1   1    2.82    0.86
  -5  -1  -1    3.43    0.94
   5  -1   1    6.61    1.55
  -5   1  -2    1.35    0.49
   5   1   2    2.29    1.07
   5   1   2    0.96    0.81
   5   1   2    0.92    1.46
  -5   1  -2    0.84    0.91
   5   1   2    1.27    0.83
  -5   1  -2    1.45    0.93
  -5   1  -2    0.43    1.20
  -5  -1  -2    1.19    1.00
   5  -1   2    2.53    0.90
  -5  -1  -2    1.56    1.02
  -5  -1  -2    2.58    1.22
   5  -1   2    1.32    1.25
  -5  -1  -2    2.41    0.97
   5  -1   2    1.79    1.18
   5   1   3    2.02    1.02
   5   1   3    1.61    1.42
  -5   1  -3    0.32    1.23
  -5   1  -3    1.61    1.31
   5   1   3   -0.33    1.53
  -5   1  -3   -0.08    1.08
  -5  -1  -3    1.36    1.49
  -5  -1  -3    2.63    1.38
   5  -1   3    1.71    1.01
  -5  -1  -3    1.47    1.04
  -5  -1  -3    0.90    1.09
   5  -1   3    2.08    1.38
   5  -1   3    2.23    1.29
   5   1   4    9.18    2.23
   5   1   4    9.39    2.22
  -5   1  -4    8.55    2.03
  -5   1  -4    9.40    2.07
  -5   1  -4    5.44    1.67
   5  -1   4    7.16    2.09
  -5  -1  -4    7.85    2.14
  -5  -1  -4    5.82    1.96
  -5  -1  -4   10.18    1.93
   5  -1   4   14.38    2.51
   5   1   5   38.82    4.71
  -5   1  -5   35.56    3.76
   5   1   5   51.39    4.08
  -5   1  -5   49.46    3.68
  -5   1  -5   47.25    4.31
  -5  -1  -5   47.20    4.47
   5  -1   5   34.96    4.25
   5  -1   5   41.32    4.42
  -5  -1  -5   45.54    3.89
  -5  -1  -5   44.75    4.19
  -5   1  -6    5.15    2.16
  -5   1  -6    3.33    1.90
   5   1   6    4.11    2.07
  -5   1  -6    3.28    1.76
   5   1   6    6.68    2.91
   5  -1   6    4.82    2.67
  -5  -1  -6    4.24    2.20
   5  -1   6    4.21    2.43
  -5  -1  -6    8.18    2.24
  -5  -1  -6    2.20    2.02
   5   1   7    3.95    2.76
  -5   1  -7    3.62    1.88
   5   1   7   -2.64    1.73
  -5   1  -7    1.76    1.68
   5  -1   7    1.86    2.45
   5  -1   7   -1.59    2.17
  -5  -1  -7    1.45    2.04
  -5  -1  -7    4.15    2.27
  -5  -1  -7    1.88    1.88
   5   1   8   -0.04    2.24
  -5   1  -8   -0.35    1.52
  -5   1  -8   -1.23    1.52
   5   1   8    2.83    2.18
  -5  -1  -8    0.91    1.71
  -5  -1  -8   -0.18    1.49
   5  -1   8    1.35    2.27
  -5   1  -9    3.19    2.72
  -5  -1  -9    5.70    3.06
   5  -1   9    4.87    3.04
   5   2 -10    6.74    2.88
   5   2 -10    7.06    2.99
   5  -2 -10   15.08    3.72
   5  -2 -10    8.64    2.91
   5   2  -9    4.67    2.38
   5   2  -9    6.80    2.69
   5  -2  -9    5.82    2.63
   5  -2  -9    3.69    2.30
   5   2  -8   11.53    2.88
   5   2  -8   10.70    2.62
   5  -2  -8   12.55    2.99
  -5  -2   8   20.52    3.57
   5  -2  -8   13.32    2.88
   5   2  -7   17.11    2.74
   5   2  -7   15.78    2.82
   5  -2  -7   11.92    2.50
  -5  -2   7   13.62    2.95
   5  -2  -7   22.59    3.36
   5   2  -6   -0.02    1.30
   5   2  -6    1.51    1.35
   5  -2  -6   -0.26    1.51
   5  -2  -6    0.36    1.41
  -5  -2   6    2.13    1.84
  -5   2   5   29.79    2.16
   5   2  -5   25.36    2.69
   5   2  -5   27.43    2.92
  -5  -2   5   31.49    3.65
   5  -2  -5   31.84    3.17
   5  -2  -5   28.44    2.83
  -5  -2   5   25.19    2.46
  -5   2   4    1.04    0.77
   5   2  -4   -1.08    0.76
   5   2  -4    0.88    1.03
   5  -2  -4    1.41    1.01
  -5  -2   4    0.58    1.59
   5  -2  -4    0.35    0.94
  -5  -2   4    0.75    0.46
  -5  -2   4    0.62    0.90
   5   2  -3    4.13    1.30
   5   2  -3    3.83    1.06
   5   2  -3    5.64    1.13
   5  -2  -3    3.20    1.25
  -5  -2   3    5.79    1.01
   5  -2  -3    6.72    1.19
  -5  -2   3    3.93    1.73
   5  -2  -3    6.21    1.02
  -5  -2   3    5.83    1.03
   5  -2  -3    4.64    0.96
   5  -2  -3    5.12    0.66
  -5  -2   3    4.72    0.98
   5   2  -2    0.42    0.67
   5   2  -2    0.61    0.67
   5   2  -2   -0.01    1.11
   5  -2  -2    0.72    0.71
  -5  -2   2    0.48    0.60
  -5  -2   2    1.07    0.63
   5  -2  -2    1.26    0.64
   5  -2  -2    0.81    0.66
  -5  -2   2    1.12    0.58
  -5  -2   2    0.10    0.96
   5  -2  -2    0.79    0.69
  -5  -2   2   -1.07    1.28
   5   2  -1   18.75    1.49
   5   2  -1   24.46    2.26
   5   2  -1   21.03    1.55
   5   2  -1   22.97    1.64
  -5   2   1   23.02    1.79
  -5  -2   1   23.85    2.35
  -5  -2   1   22.43    1.49
  -5  -2   1   17.30    2.21
   5  -2  -1   20.98    1.97
  -5  -2   1   21.30    1.36
   5  -2  -1   17.86    1.17
  -5  -2   1   21.04    2.08
  -5  -2   1   16.92    1.39
   5   2   0   55.44    3.29
  -5   2   0   56.28    3.17
  -5   2   0   55.47    2.48
   5   2   0   57.57    3.50
   5   2   0   61.48    3.57
   5   2   0   49.62    3.24
   5   2   0   60.61    2.96
   5   2   0   58.38    2.95
  -5  -2   0   65.53    3.34
  -5  -2   0   58.74    3.51
   5  -2   0   56.80    2.54
   5  -2   0   57.12    3.29
   5  -2   0   55.96    2.52
  -5  -2   0   55.01    3.53
   5  -2   0   55.51    2.70
  -5  -2   0   52.39    2.76
   5  -2   0   54.85    2.73
  -5  -2   0   56.73    2.88
   5   2   1    9.23    1.33
  -5   2  -1   11.05    1.35
   5   2   1    9.19    1.85
  -5   2  -1   10.27    1.35
   5   2   1   11.67    1.90
   5   2   1   10.67    1.74
  -5  -2  -1    8.98    1.74
  -5  -2  -1    7.62    1.99
   5  -2   1    9.87    1.43
  -5  -2  -1    8.49    1.47
   5  -2   1   12.10    2.07
  -5  -2  -1   10.17    1.53
   5  -2   1   11.64    1.45
   5   2   2   21.17    2.32
   5   2   2   21.97    2.29
  -5   2  -2   26.03    2.29
   5   2   2   26.74    2.79
  -5   2  -2   22.00    1.23
  -5   2  -2   22.87    2.47
  -5   2  -2   23.10    2.36
  -5   2  -2   21.60    2.20
  -5  -2  -2   17.49    2.14
   5  -2   2   23.40    2.30
   5  -2   2   25.26    2.47
  -5  -2  -2   21.87    2.48
  -5  -2  -2   20.01    2.59
   5  -2   2   24.87    3.04
  -5  -2  -2   20.26    2.30
   5   2   3   22.50    2.79
   5   2   3   27.95    3.18
   5   2   3   19.98    2.54
  -5   2  -3   23.94    2.72
  -5   2  -3   24.43    1.67
  -5   2  -3   23.23    2.56
  -5   2  -3   24.33    2.59
   5  -2   3   26.85    2.85
  -5  -2  -3   21.68    2.67
  -5  -2  -3   20.70    3.06
   5  -2   3   21.59    2.65
  -5  -2  -3   22.72    2.73
   5  -2   3   26.34    3.53
   5   2   4    6.34    2.06
  -5   2  -4    4.55    1.54
  -5   2  -4    5.31    1.80
   5   2   4    5.16    1.63
  -5   2  -4    5.96    1.83
  -5  -2  -4    4.22    1.84
  -5  -2  -4    5.52    1.97
   5  -2   4    5.95    1.93
  -5  -2  -4    7.65    2.04
   5  -2   4    6.49    2.09
  -5   2  -5   24.49    3.30
  -5   2  -5   13.48    2.55
  -5   2  -5   19.48    2.59
   5   2   5   15.28    3.25
   5   2   5   16.20    2.62
  -5  -2  -5   19.48    3.23
   5  -2   5   16.03    2.97
  -5  -2  -5   16.95    2.88
  -5  -2  -5   13.75    2.53
   5  -2   5   15.65    3.01
  -5   2  -6   26.58    3.62
   5   2   6   28.56    4.13
   5   2   6   28.40    3.65
  -5   2  -6   30.68    3.93
   5  -2   6   26.42    3.96
  -5  -2  -6   33.97    4.24
  -5  -2  -6   25.96    3.67
  -5  -2  -6   30.04    3.85
   5  -2   6   26.26    4.25
   5   2   7    0.93    1.85
  -5   2  -7    4.78    2.34
   5   2   7   -0.72    1.96
  -5   2  -7   -0.27    1.84
   5  -2   7   -4.39    1.85
  -5  -2  -7    2.73    2.10
  -5  -2  -7    1.12    1.58
  -5  -2  -7    2.99    2.32
   5   2   8   21.42    4.67
  -5   2  -8   16.49    3.71
  -5  -2  -8   15.72    3.78
  -5  -2  -8   12.36    3.39
   5  -2   8   21.97    4.50
   5   2   9    3.30    2.53
  -5   2  -9   -2.43    2.02
   5  -2   9   -0.84    2.42
  -5  -2  -9    0.45    2.37
   5   3 -10    6.79    2.63
   5   3 -10    2.36    2.36
   5   3 -10   -1.46    2.11
   5  -3 -10   -2.29    2.22
   5  -3 -10   -2.92    2.05
   5   3  -9    4.94    2.53
   5   3  -9    5.66    2.30
   5   3  -9   11.52    3.09
   5  -3  -9   13.55    3.32
  -5  -3   9   15.59    3.75
   5  -3  -9   10.21    3.20
   5   3  -8    6.97    2.38
   5   3  -8    9.81    2.77
   5   3  -8    4.69    2.26
   5  -3  -8    3.13    2.10
   5  -3  -8   12.81    3.02
  -5  -3   8    6.73    2.80
   5   3  -7    6.79    2.26
   5   3  -7    6.59    2.41
   5   3  -7    8.37    2.14
   5  -3  -7    6.99    2.19
   5  -3  -7    4.57    2.21
  -5  -3   7   10.20    2.94
   5   3  -6   10.06    2.20
   5   3  -6    5.39    1.83
   5   3  -6    8.85    2.16
   5  -3  -6    7.34    2.09
   5  -3  -6    6.61    1.85
  -5  -3   6    8.74    2.67
   5   3  -5    8.22    2.08
   5   3  -5   10.13    2.05
   5   3  -5   10.01    2.14
  -5   3   5   14.25    1.80
  -5  -3   5    6.59    2.57
   5  -3  -5    8.30    1.85
   5  -3  -5    8.51    1.93
   5   3  -4   27.09    2.74
   5   3  -4   22.84    2.55
   5   3  -4   21.74    3.14
  -5  -3   4   25.66    3.55
  -5  -3   4   27.31    2.47
   5  -3  -4   30.63    2.84
   5  -3  -4   23.12    2.49
  -5  -3   4   27.49    1.83
   5   3  -3    0.20    0.99
   5   3  -3   -1.07    0.79
   5   3  -3   -1.43    1.38
  -5  -3   3   -0.51    1.79
  -5  -3   3   -0.01    1.06
   5  -3  -3    0.12    0.90
  -5  -3   3   -0.03    0.84
   5  -3  -3   -0.95    0.88
  -5  -3   3    0.22    1.06
   5  -3  -3    1.11    1.01
  -5  -3   3    0.05    0.68
   5  -3  -3    0.76    0.52
   5  -3  -3   -0.37    0.57
   5   3  -2   17.15    1.83
  -5   3   2   18.40    1.54
   5   3  -2   20.85    2.02
   5   3  -2   16.78    2.26
  -5  -3   2   20.34    1.93
  -5  -3   2   20.23    1.80
  -5  -3   2   15.53    2.39
   5  -3  -2   14.07    1.59
   5  -3  -2   20.98    1.96
  -5  -3   2   15.68    1.75
   5  -3  -2   15.71    1.73
  -5  -3   2   15.36    2.04
   5  -3  -2   18.38    1.28
   5   3  -1    5.61    1.43
  -5   3   1    3.47    1.06
   5   3  -1    2.90    0.98
  -5  -3   1    2.36    0.83
   5  -3  -1    1.41    1.14
   5  -3  -1    2.40    1.00
  -5  -3   1    2.44    1.65
  -5  -3   1    3.35    1.03
  -5  -3   1    2.20    1.46
   5   3   0   67.93    4.08
   5   3   0   74.60    3.74
   5   3   0   67.41    3.99
  -5   3   0   71.12    2.72
  -5  -3   0   67.63    4.23
   5  -3   0   72.63    3.62
  -5  -3   0   75.16    3.71
   5  -3   0   74.50    4.27
   5  -3   0   76.50    3.55
  -5  -3   0   79.14    3.72
  -5  -3   0   62.20    4.23
  -5   3  -1   21.07    2.11
   5   3   1   19.05    2.11
   5   3   1   16.75    2.33
  -5   3  -1   19.14    1.57
  -5   3  -1   18.22    1.44
   5   3   1   17.96    2.31
  -5  -3  -1   16.49    1.95
  -5  -3  -1   17.63    2.06
   5  -3   1   19.29    2.07
   5  -3   1   17.86    2.45
   5  -3   1   19.48    1.64
   5  -3   1   18.34    1.37
  -5  -3  -1   17.69    2.36
  -5  -3  -1   19.14    2.66
   5   3   2    1.55    1.17
  -5   3  -2    3.14    1.19
  -5   3  -2    0.75    1.15
   5   3   2    1.18    1.47
  -5   3  -2   -0.42    0.97
  -5   3  -2    0.64    0.76
   5   3   2    2.00    1.54
   5  -3   2   -0.10    1.06
  -5  -3  -2    1.86    1.48
   5  -3   2    1.95    1.12
   5  -3   2    2.10    2.02
  -5  -3  -2   -1.19    1.17
  -5  -3  -2    1.50    1.25
  -5  -3  -2    3.98    1.51
   5   3   3    7.50    1.84
   5   3   3    5.24    1.84
  -5   3  -3    5.51    1.16
  -5   3  -3    4.86    1.74
  -5   3  -3    6.51    1.74
   5  -3   3    3.60    1.79
   5  -3   3    5.63    2.00
   5  -3   3    5.94    1.51
  -5  -3  -3    3.38    1.72
  -5  -3  -3    3.71    1.72
  -5  -3  -3    4.00    2.29
   5   3   4  172.36    8.07
  -5   3  -4  182.76    8.31
  -5   3  -4  180.66    7.22
   5   3   4  163.82    8.63
  -5   3  -4  190.68    8.47
  -5  -3  -4  162.06    8.86
   5  -3   4  163.12    9.19
  -5  -3  -4  171.20    8.34
  -5  -3  -4  178.98    8.57
  -5   3  -5   13.20    2.66
   5   3   5   16.88    3.05
  -5   3  -5   17.05    2.12
   5   3   5   17.74    2.66
  -5   3  -5   17.58    2.98
   5  -3   5   15.96    3.21
  -5  -3  -5   11.99    3.04
  -5  -3  -5   17.65    3.11
  -5  -3  -5   13.80    2.96
   5   3   6   70.19    6.82
   5   3   6   73.61    5.04
  -5   3  -6   78.97    4.60
  -5   3  -6   66.83    5.32
  -5   3  -6   77.83    5.69
  -5  -3  -6   72.59    5.40
  -5  -3  -6   83.45    5.70
  -5  -3  -6   63.67    5.50
   5  -3   6   68.72    5.88
   5   3   7   22.62    4.65
   5   3   7   26.04    3.75
  -5   3  -7   22.07    3.75
  -5   3  -7   25.96    3.53
  -5   3  -7   24.09    3.78
   5  -3   7   24.10    4.53
  -5  -3  -7   21.04    4.01
  -5  -3  -7   24.53    4.16
  -5  -3  -7   20.42    4.05
  -5   3  -8    0.62    2.31
   5   3   8    0.05    2.49
  -5  -3  -8   -1.23    2.13
   5  -3   8   -2.25    1.76
   5   3   9    2.17    2.30
  -5   3  -9    0.05    2.40
   5  -3   9   -0.95    2.77
  -5  -3  -9    2.76    2.28
   5   4  -9   11.15    3.37
   5   4  -9   11.97    3.65
   5   4  -9   10.58    3.11
  -5  -4   9   19.52    4.42
   5  -4  -9   13.23    3.55
   5  -4  -9    7.62    2.84
   5   4  -8   12.57    3.02
   5   4  -8   11.12    2.87
   5   4  -8    6.57    2.46
   5  -4  -8    8.47    2.61
  -5  -4   8   11.44    3.56
   5  -4  -8   11.34    2.87
   5   4  -7    8.56    2.82
   5   4  -7    1.97    1.93
   5   4  -7    4.61    1.96
   5  -4  -7    0.61    1.69
  -5  -4   7    7.01    2.95
   5  -4  -7    4.84    2.21
   5   4  -6    7.36    2.26
   5   4  -6    7.30    2.12
   5   4  -6    8.79    2.10
   5  -4  -6    6.35    2.05
  -5  -4   6   14.33    3.41
   5  -4  -6    8.74    2.33
   5   4  -5    0.60    1.86
   5   4  -5    0.27    1.33
   5   4  -5   -1.98    1.26
  -5  -4   5   -0.63    1.48
  -5  -4   5    0.56    0.52
   5  -4  -5    0.29    1.46
   5  -4  -5    1.33    1.38
   5   4  -4    9.55    2.46
   5   4  -4    4.20    1.72
   5   4  -4    6.85    1.91
  -5  -4   4    6.86    2.69
  -5  -4   4    4.63    1.64
  -5  -4   4    6.77    1.42
   5  -4  -4    5.21    1.56
   5  -4  -4    4.92    1.78
   5   4  -3   50.28    3.51
   5   4  -3   37.84    3.20
  -5   4   3   54.33    2.50
   5   4  -3   43.39    4.36
   5  -4  -3   51.70    3.44
   5  -4  -3   46.80    2.62
   5  -4  -3   54.75    3.48
  -5  -4   3   46.78    4.15
  -5  -4   3   50.62    3.35
  -5  -4   3   52.47    3.46
   5  -4  -3   51.19    2.78
   5   4  -2   61.32    4.56
  -5   4   2   67.48    3.47
   5   4  -2   65.19    3.88
   5   4  -2   64.79    3.89
   5  -4  -2   63.74    3.58
   5  -4  -2   60.64    3.74
  -5  -4   2   61.50    4.08
  -5  -4   2   66.17    3.78
   5  -4  -2   66.91    2.40
   5  -4  -2   69.76    3.84
  -5  -4   2   65.07    4.69
   5   4  -1    4.06    1.91
  -5  -4   1    4.35    1.37
  -5  -4   1    2.32    1.49
  -5  -4   1    2.34    1.29
   5  -4  -1    3.45    1.50
   5  -4  -1    2.48    1.06
  -5  -4   1    5.53    1.73
   5  -4  -1    5.08    1.33
   5   4   0    1.28    1.45
  -5   4   0    0.93    1.03
   5   4   0    0.44    1.10
   5   4   0    1.77    1.69
   5  -4   0    3.40    1.08
  -5  -4   0    3.47    1.61
  -5  -4   0    0.96    1.25
  -5  -4   0    4.83    1.24
   5  -4   0    0.65    1.03
   5  -4   0    3.95    1.72
  -5  -4   0    2.47    1.34
  -5   4  -1   31.97    2.78
  -5   4  -1   26.73    2.65
   5   4   1   24.27    2.96
  -5   4  -1   26.20    1.85
   5   4   1   21.52    3.14
  -5   4  -1   25.99    2.14
   5   4   1   26.36    2.82
  -5  -4  -1   22.06    2.69
  -5  -4  -1   28.53    2.87
   5  -4   1   26.23    2.08
   5  -4   1   30.10    2.89
  -5  -4  -1   28.60    3.19
  -5  -4  -1   24.99    3.58
   5  -4   1   24.93    3.14
   5   4   2   59.72    4.46
   5   4   2   60.02    4.11
  -5   4  -2   57.68    3.70
   5   4   2   58.51    4.34
  -5   4  -2   60.43    3.88
  -5   4  -2   64.24    3.50
  -5   4  -2   60.27    3.32
  -5  -4  -2   62.88    3.93
  -5  -4  -2   56.64    3.98
  -5  -4  -2   56.90    4.95
  -5  -4  -2   51.95    3.94
   5  -4   2   53.72    4.48
   5  -4   2   64.94    4.04
  -5   4  -3  115.25    6.02
  -5   4  -3  107.02    5.09
  -5   4  -3  111.49    5.82
   5   4   3  103.31    6.35
   5   4   3  101.37    6.16
  -5  -4  -3  109.39    6.17
   5  -4   3  105.69    7.07
  -5  -4  -3  117.71    5.90
  -5  -4  -3  114.69    6.05
  -5  -4  -3  116.12    6.89
  -5   4  -4   62.97    4.53
  -5   4  -4   58.50    3.55
   5   4   4   55.78    4.52
  -5   4  -4   51.05    4.08
   5   4   4   51.30    3.94
  -5  -4  -4   47.33    5.36
  -5  -4  -4   54.38    4.91
  -5  -4  -4   59.44    4.61
   5  -4   4   49.35    5.61
  -5   4  -5    0.72    1.30
   5   4   5    1.91    1.80
  -5   4  -5    3.53    1.95
  -5   4  -5    0.78    1.34
   5   4   5    1.81    1.44
  -5  -4  -5   -2.78    1.69
  -5  -4  -5   -0.59    1.75
   5  -4   5   -0.29    1.72
  -5  -4  -5    0.11    2.27
  -5   4  -6   -1.41    1.13
  -5   4  -6   -0.97    1.66
   5   4   6   -0.03    1.42
   5   4   6   -1.89    1.87
  -5   4  -6    0.63    1.21
  -5  -4  -6   -1.72    1.49
  -5  -4  -6   -2.16    1.86
  -5  -4  -6   -3.46    1.68
   5  -4   6   -0.63    2.51
  -5   4  -7    5.41    2.19
   5   4   7    6.64    3.00
   5  -4   7    0.85    2.04
  -5  -4  -7    3.92    2.29
  -5  -4  -7    3.84    2.76
  -5  -4  -7   10.57    2.72
  -5   4  -8    8.48    3.07
   5   4   8    8.35    3.63
  -5  -4  -8    8.73    3.25
  -5  -4  -8    4.76    3.13
   5  -4   8   11.39    4.12
   5   5  -9    6.92    2.93
   5   5  -9    6.56    3.11
   5   5  -9    6.48    2.90
   5  -5  -9    8.18    2.99
   5  -5  -9    8.33    3.36
  -5  -5   9   11.97    4.08
   5   5  -8   54.18    6.39
   5   5  -8   37.57    5.09
   5   5  -8   45.49    5.28
   5  -5  -8   34.97    4.72
   5  -5  -8   54.46    6.04
  -5  -5   8   42.21    6.06
   5   5  -7    1.50    1.46
   5   5  -7    4.29    2.14
   5   5  -7    3.04    2.04
   5  -5  -7    3.09    1.98
   5  -5  -7    5.64    2.50
  -5  -5   7    7.09    3.21
   5   5  -6    8.04    2.42
   5   5  -6   11.89    2.80
   5   5  -6   12.87    2.60
   5  -5  -6    9.25    2.62
   5  -5  -6   11.38    2.56
  -5  -5   6    7.01    3.06
   5   5  -5    4.55    1.94
   5   5  -5    2.83    2.13
   5   5  -5   -0.63    1.37
   5  -5  -5    1.73    1.77
  -5  -5   5    1.19    0.97
  -5  -5   5    2.03    2.01
  -5  -5   5    0.97    1.53
   5  -5  -5    2.06    1.61
   5   5  -4  154.27    7.57
   5   5  -4  160.83    7.76
   5   5  -4  168.02    8.71
  -5  -5   4  153.98    7.04
  -5  -5   4  155.94    7.43
   5  -5  -4  153.38    5.38
   5  -5  -4  139.99    5.23
  -5  -5   4  170.75    7.61
  -5  -5   4  157.22    9.06
   5  -5  -4  160.56    7.77
   5  -5  -4  156.02    7.57
  -5   5   3    0.77    0.78
   5   5  -3    0.29    1.39
   5   5  -3   -0.10    1.27
   5   5  -3   -1.79    1.85
   5  -5  -3    1.92    1.22
  -5  -5   3   -1.70    1.00
  -5  -5   3    0.62    2.25
  -5  -5   3   -1.43    1.33
  -5  -5   3    2.37    1.48
   5  -5  -3    0.79    0.70
   5  -5  -3    0.56    1.24
   5   5  -2  144.61    7.96
   5  -5  -2  159.68    7.08
  -5  -5   2  161.10    7.40
  -5  -5   2  162.72    8.74
   5  -5  -2  160.85    7.36
  -5  -5   2  155.75    7.25
   5  -5  -2  156.21    7.35
   5   5  -1   -1.64    1.30
   5   5  -1   -4.08    1.54
   5  -5  -1    1.19    1.37
   5  -5  -1   -0.63    1.10
  -5  -5   1    1.41    1.59
   5  -5  -1   -1.15    1.57
   5  -5  -1    1.57    1.30
  -5  -5   1    1.82    1.52
   5   5   0   32.43    3.28
   5   5   0   32.07    3.92
   5   5   0   31.24    3.54
  -5   5   0   27.88    2.87
   5  -5   0   28.51    3.50
  -5  -5   0   28.10    3.17
  -5  -5   0   29.30    3.10
   5  -5   0   32.17    3.15
  -5  -5   0   28.08    3.70
   5   5   1   -0.66    1.03
  -5   5  -1    1.29    1.22
   5   5   1   -0.66    1.44
   5   5   1    1.86    2.03
  -5   5  -1    1.67    0.80
  -5  -5  -1    0.34    1.68
  -5  -5  -1    0.96    1.67
   5  -5   1    3.20    1.52
  -5  -5  -1    1.10    1.50
   5  -5   1    0.00    1.97
  -5  -5  -1   -0.64    1.44
   5   5   2   39.80    4.17
   5   5   2   41.49    4.47
  -5   5  -2   42.48    3.14
  -5   5  -2   42.88    3.44
  -5   5  -2   51.67    3.72
  -5   5  -2   45.39    3.41
  -5  -5  -2   39.03    4.70
  -5  -5  -2   45.23    3.68
   5  -5   2   36.53    4.32
  -5  -5  -2   43.09    4.10
  -5  -5  -2   43.90    4.17
   5  -5   2   42.71    4.05
  -5   5  -3   19.27    2.85
   5   5   3   26.03    3.71
   5   5   3   15.22    3.27
  -5   5  -3   18.86    2.78
  -5   5  -3   18.01    2.39
  -5  -5  -3   21.90    3.66
  -5  -5  -3   24.29    3.27
  -5  -5  -3   21.13    3.10
   5  -5   3   26.08    3.97
  -5  -5  -3   25.91    3.01
  -5   5  -4   -0.24    1.45
   5   5   4    0.84    2.00
  -5   5  -4    1.02    1.29
  -5   5  -4    1.20    1.66
  -5  -5  -4    0.23    1.75
  -5  -5  -4   -0.27    1.80
   5  -5   4    1.49    2.72
  -5  -5  -4    0.51    1.37
  -5   5  -5   19.40    2.67
  -5   5  -5   21.24    3.39
   5   5   5   19.05    2.95
   5   5   5   22.91    3.91
  -5   5  -5   14.10    2.94
  -5  -5  -5   14.45    3.22
  -5  -5  -5   27.21    3.89
   5  -5   5   22.96    4.52
  -5  -5  -5   16.37    3.66
  -5   5  -6   27.15    3.84
   5   5   6   30.17    4.56
  -5  -5  -6   32.90    5.23
  -5  -5  -6   36.78    4.83
   5  -5   6   36.72    5.65
  -5  -5  -6   25.48    4.30
   5   5   7    0.17    2.18
  -5   5  -7   -0.68    2.10
  -5  -5  -7    5.53    3.02
   5  -5   7   -0.62    2.11
  -5  -5  -7    1.14    1.75
   5   5   8    4.04    3.01
  -5   5  -8    0.77    1.80
   5  -5   8    3.04    3.59
  -5  -5  -8    0.92    2.57
  -5  -5  -8   -0.11    2.70
   5   6  -8   20.12    4.28
   5   6  -8   14.59    3.50
   5   6  -8   13.81    3.60
   5  -6  -8   14.20    3.36
   5  -6  -8   16.18    3.90
  -5  -6   8   10.49    4.31
  -5  -6   8   16.24    3.51
   5   6  -7    6.73    2.79
   5   6  -7    8.14    3.15
   5   6  -7   12.37    2.68
   5  -6  -7    3.76    2.26
   5  -6  -7   10.89    3.20
  -5  -6   7    1.94    2.30
  -5  -6   7    9.07    2.57
   5   6  -6    2.45    2.51
   5   6  -6    2.13    1.65
   5   6  -6    0.29    1.84
   5  -6  -6   -2.49    1.56
  -5  -6   6   -2.20    2.47
   5  -6  -6    1.00    1.37
  -5  -6   6   -2.45    1.28
   5   6  -5    1.76    1.44
   5   6  -5    1.15    1.72
   5   6  -5   -0.32    1.65
   5  -6  -5   -0.54    1.64
   5  -6  -5   -1.81    1.37
  -5  -6   5   -3.08    2.25
  -5  -6   5    1.63    1.70
   5   6  -4   54.12    4.25
   5   6  -4   56.09    4.51
   5   6  -4   55.67    5.66
  -5  -6   4   60.01    4.15
   5  -6  -4   62.50    4.59
  -5  -6   4   56.96    6.04
   5  -6  -4   58.34    4.63
  -5  -6   4   57.13    4.28
   5   6  -3   13.39    2.97
   5   6  -3   17.70    2.99
  -5  -6   3   18.40    2.81
  -5  -6   3   15.54    3.25
  -5  -6   3   19.26    2.70
   5  -6  -3   21.40    2.99
   5  -6  -3   22.13    3.16
   5   6  -2  133.96    7.84
  -5  -6   2  137.90    7.07
   5  -6  -2  137.67    7.15
   5  -6  -2  133.72    7.12
   5  -6  -2  153.59    7.95
  -5  -6   2  121.48    8.16
  -5  -6   2  148.31    7.28
   5  -6  -2  149.13    7.04
   5   6  -1   -1.34    1.37
  -5   6   1    1.88    1.55
   5   6  -1   -0.84    1.40
  -5  -6   1   -0.47    1.17
   5  -6  -1    1.43    1.46
   5  -6  -1    2.10    1.75
  -5  -6   1    0.77    1.68
   5  -6  -1    0.07    1.42
   5  -6  -1    0.92    1.24
  -5  -6   1   -1.20    1.45
   5   6   0   23.14    3.15
  -5   6   0   17.48    2.62
   5   6   0   16.03    2.96
  -5  -6   0   13.56    2.80
   5  -6   0   19.26    2.86
  -5  -6   0   19.19    2.82
  -5  -6   0   19.55    2.98
   5  -6   0   20.99    3.00
   5  -6   0   13.99    3.06
   5   6   1    0.74    2.15
  -5   6  -1    0.18    1.46
   5   6   1   -2.71    1.30
  -5   6  -1   -0.10    0.81
  -5  -6  -1   -0.02    1.28
  -5  -6  -1    3.18    1.67
   5  -6   1    3.98    2.01
  -5  -6  -1    0.36    1.48
   5  -6   1   -0.85    1.48
  -5   6  -2   24.74    2.92
   5   6   2   24.29    3.52
  -5   6  -2   34.23    3.63
   5   6   2   33.18    4.14
  -5  -6  -2   24.85    4.22
  -5  -6  -2   26.05    3.50
   5  -6   2   25.59    3.96
  -5  -6  -2   27.60    3.64
  -5  -6  -2   26.09    3.48
   5   6   3   10.06    2.79
  -5   6  -3    6.56    1.97
   5   6   3   10.06    2.96
  -5   6  -3    9.50    1.96
  -5   6  -3    5.62    1.83
  -5  -6  -3    5.63    1.94
   5  -6   3    6.81    2.64
  -5  -6  -3    8.01    2.07
  -5  -6  -3    6.82    2.73
  -5  -6  -3    7.18    2.49
   5   6   4   20.81    3.99
  -5   6  -4   15.87    3.08
  -5   6  -4   19.11    2.73
   5   6   4   21.39    3.51
  -5   6  -4   18.61    3.13
  -5  -6  -4   17.62    3.47
  -5  -6  -4   17.43    3.89
  -5  -6  -4   23.13    3.06
  -5  -6  -4   17.99    3.34
   5  -6   4   22.88    4.53
   5   6   5    4.06    1.56
   5   6   5   -2.68    1.11
  -5   6  -5   -1.09    1.23
  -5  -6  -5    4.97    3.21
  -5  -6  -5   -1.74    1.94
   5  -6   5    0.88    2.23
  -5  -6  -5    0.48    1.93
  -5   6  -6    6.96    2.78
   5   6   6    9.50    3.29
  -5  -6  -6    6.94    2.97
  -5  -6  -6    5.66    3.60
   5  -6   6    5.43    3.03
  -5  -6  -6   10.32    3.22
   5   6   7    2.24    2.10
  -5   6  -7    4.90    2.76
  -5  -6  -7    0.28    3.18
   5  -6   7    0.50    2.43
  -5  -6  -7   -1.47    2.45
  -5   6  -8   25.83    4.86
   5   6   8   22.83    4.59
  -5  -6  -8   21.31    4.68
   5  -6   8   28.92    6.08
  -5  -6  -8   24.93    5.17
   5   7  -8    0.60    2.41
   5   7  -8    2.10    2.49
   5   7  -8    1.77    3.20
  -5  -7   8   -0.52    2.35
  -5  -7   8   -0.13    2.00
   5  -7  -8   -1.50    2.41
   5  -7  -8   -1.96    1.95
   5   7  -7   21.32    4.35
   5   7  -7   10.66    2.97
   5   7  -7   11.35    3.29
   5  -7  -7   13.76    3.40
  -5  -7   7   12.29    3.06
  -5  -7   7   13.24    4.34
   5  -7  -7   17.70    4.04
   5   7  -6   -0.16    2.12
   5   7  -6   -0.57    1.93
   5   7  -6    0.03    1.91
  -5  -7   6    0.74    1.89
   5  -7  -6    2.27    2.05
  -5  -7   6   -1.37    1.78
   5  -7  -6   -1.53    2.02
   5   7  -5   17.22    3.33
   5   7  -5    9.74    2.87
   5   7  -5   10.33    3.44
   5  -7  -5   12.28    2.90
  -5  -7   5   10.16    3.17
  -5  -7   5    9.97    2.60
   5  -7  -5   17.74    3.40
   5   7  -4   11.36    3.50
   5   7  -4    9.47    2.43
   5   7  -4   14.63    2.76
  -5  -7   4   12.68    2.77
  -5  -7   4   10.19    2.61
   5  -7  -4   12.47    2.60
  -5  -7   4   11.46    3.71
   5  -7  -4   16.42    3.10
   5   7  -3   81.74    6.20
  -5  -7   3   82.27    6.89
   5  -7  -3   80.46    5.52
   5  -7  -3   78.44    5.46
   5  -7  -3   72.45    4.74
  -5  -7   3   64.80    4.98
   5   7  -2    3.95    2.07
   5  -7  -2    1.68    1.80
  -5  -7   2    2.60    1.93
  -5  -7   2    2.24    2.08
   5  -7  -2   -0.02    1.65
  -5  -7   2    2.72    1.79
  -5   7   1   30.23    3.70
   5   7  -1   26.24    4.15
   5   7  -1   25.14    3.48
  -5  -7   1   24.50    3.83
   5  -7  -1   29.34    3.82
  -5  -7   1   31.62    3.79
   5  -7  -1   28.01    3.60
  -5  -7   1   29.77    3.74
   5  -7  -1   27.94    3.75
   5   7   0   16.66    3.31
   5   7   0   19.54    3.17
  -5   7   0   17.11    2.85
   5  -7   0   18.62    3.41
  -5  -7   0   18.89    3.09
   5  -7   0   17.00    2.96
  -5  -7   0   20.99    3.27
   5  -7   0   18.10    2.80
  -5  -7   0   16.73    3.43
   5   7   1   14.43    3.02
  -5   7  -1   16.12    2.69
   5   7   1   14.86    2.89
  -5  -7  -1    8.19    2.55
  -5  -7  -1   16.23    2.77
  -5  -7  -1    9.21    2.86
   5  -7   1    9.60    3.06
   5   7   2    7.20    2.10
  -5   7  -2    8.87    2.06
   5   7   2    4.76    2.20
  -5  -7  -2    6.18    2.13
   5  -7   2    6.52    3.13
  -5  -7  -2    6.13    2.26
  -5  -7  -2    8.88    2.56
   5   7   3   20.97    4.02
   5   7   3   17.72    3.40
  -5   7  -3   17.54    2.89
  -5  -7  -3   20.70    3.36
  -5  -7  -3   20.25    3.18
  -5  -7  -3   19.02    4.70
  -5  -7  -3   14.28    3.21
   5  -7   3   14.21    3.66
   5   7   4   25.84    4.11
   5   7   4   28.81    4.57
  -5   7  -4   21.45    3.20
  -5   7  -4   20.95    3.51
  -5  -7  -4   19.98    3.81
  -5  -7  -4   23.83    4.61
  -5  -7  -4   26.95    4.02
   5  -7   4   26.63    4.83
  -5   7  -5   -0.51    1.96
   5   7   5   -1.29    2.01
  -5  -7  -5    2.59    2.68
   5  -7   5    4.95    3.54
  -5  -7  -5   -4.51    1.55
   5   7   6   15.15    4.02
  -5   7  -6    9.78    3.04
   5  -7   6    8.08    3.54
  -5  -7  -6    3.81    3.06
  -5  -7  -6   11.05    3.60
   5   7   7    4.53    2.42
  -5   7  -7   -1.19    2.61
  -5  -7  -7    2.18    2.91
  -5  -7  -7   -4.88    3.25
   5  -7   7    3.90    2.86
   5   8  -7    9.80    3.46
   5   8  -7    4.14    2.73
   5   8  -7    5.82    3.69
   5  -8  -7    7.84    3.45
  -5  -8   7    3.70    2.72
   5  -8  -7    5.48    2.93
  -5  -8   7   13.31    4.71
   5   8  -6    0.72    2.47
   5   8  -6    3.43    3.34
   5   8  -6   -0.46    2.27
  -5  -8   6    4.70    2.95
   5  -8  -6    3.98    2.42
   5  -8  -6    8.11    3.21
  -5  -8   6    3.35    2.34
   5   8  -5    0.61    2.30
   5   8  -5   -4.83    2.04
   5  -8  -5   -0.47    2.00
  -5  -8   5    3.62    2.26
  -5  -8   5    3.52    2.55
   5  -8  -5    3.58    2.54
   5   8  -4    2.18    2.82
  -5  -8   4    0.13    2.30
   5  -8  -4    6.60    2.45
   5  -8  -4    1.97    2.23
  -5  -8   4    3.09    2.06
  -5  -8   4   -0.46    2.83
   5   8  -3    2.05    2.15
   5  -8  -3    2.04    2.21
  -5  -8   3   -0.64    1.61
   5  -8  -3    1.09    1.40
  -5  -8   3    0.87    2.68
   5   8  -2    2.31    1.60
   5   8  -2    2.97    2.90
  -5  -8   2    3.03    2.77
  -5  -8   2   -0.32    1.60
   5  -8  -2    2.68    2.13
   5  -8  -2    0.60    1.89
   5  -8  -2    2.17    1.67
  -5   8   1    1.37    1.68
   5   8  -1    1.18    2.71
   5   8  -1    3.49    1.92
   5  -8  -1    3.91    1.69
  -5  -8   1    2.93    2.12
  -5  -8   1    0.74    2.52
   5  -8  -1    2.73    2.14
   5  -8  -1    2.94    2.11
   5   8   0    9.45    2.54
  -5   8   0    7.15    2.37
   5   8   0    6.67    2.97
   5  -8   0   11.23    2.76
  -5  -8   0    9.63    3.12
   5  -8   0   10.37    2.74
  -5  -8   0    7.26    2.56
   5  -8   0    8.16    2.92
  -5   8  -1    1.83    1.82
   5   8   1    2.93    2.15
   5   8   1    5.34    2.20
   5  -8   1    8.66    2.67
   5  -8   1    8.80    3.07
  -5  -8  -1    8.00    2.90
  -5  -8  -1    2.53    2.12
  -5  -8  -1    1.72    1.93
   5  -8   1    5.08    1.98
  -5   8  -2    6.38    2.27
   5   8   2    5.75    3.02
   5   8   2   10.02    2.90
   5  -8   2    6.99    2.81
  -5  -8  -2   11.72    2.85
  -5  -8  -2   11.58    3.12
  -5   8  -3    2.67    2.05
   5   8   3    3.75    2.36
   5   8   3    4.87    2.43
  -5  -8  -3    4.08    2.22
  -5  -8  -3    0.16    2.14
  -5  -8  -3   -2.16    3.15
   5  -8   3    5.39    3.49
   5   8   4    6.20    3.16
   5   8   4    5.51    2.74
  -5  -8  -4    3.38    3.09
  -5  -8  -4    6.81    2.88
   5  -8   4    4.02    3.72
  -5   8  -5    0.05    2.40
   5   8   5   -0.91    2.29
  -5  -8  -5    0.68    2.68
  -5  -8  -5   -5.04    3.26
   5  -8   5    1.15    3.71
  -5   8  -6    3.45    2.26
   5   8   6    3.60    2.70
  -5  -8  -6    0.11    2.65
   5  -8   6    9.08    4.38
  -5  -8  -6   -0.81    3.72
   5   9  -6   -2.68    3.15
  -5  -9   6    3.15    2.40
   5  -9  -6    0.08    2.48
  -5  -9   6   -3.34    2.04
   5  -9  -6    0.55    2.18
   5   9  -5   -2.22    2.81
   5  -9  -5   -0.92    2.28
   5  -9  -5    0.65    1.81
  -5  -9   5    2.48    2.38
  -5  -9   5    3.63    2.91
   5   9  -4   -1.96    2.69
  -5  -9   4    0.31    2.12
   5  -9  -4    1.50    2.32
  -5  -9   4    3.43    3.72
   5  -9  -4    0.76    2.08
   5   9  -3    0.74    1.49
   5   9  -3    0.01    2.92
   5  -9  -3   -1.16    2.05
  -5  -9   3    1.21    3.05
   5  -9  -3    1.07    1.96
  -5  -9   3    0.51    1.79
   5   9  -2    1.92    1.79
   5   9  -2    1.88    2.21
  -5  -9   2    0.93    2.05
  -5  -9   2    3.43    3.15
   5  -9  -2    1.32    1.74
   5  -9  -2    3.58    2.20
   5   9  -1   18.58    3.36
  -5   9   1   19.88    3.56
   5   9  -1   13.59    4.00
   5  -9  -1   21.33    3.73
   5  -9  -1   16.20    3.61
   5  -9  -1   18.97    3.90
  -5  -9   1   22.42    3.94
  -5  -9   1   16.40    4.25
  -5   9   0    7.60    2.48
   5   9   0    2.68    2.92
   5   9   0    5.68    2.24
  -5  -9   0    3.53    2.42
   5  -9   0    2.25    2.59
   5  -9   0    2.52    2.28
   5  -9   0    4.38    2.48
  -5  -9   0    1.36    2.57
   5   9   1    6.13    3.31
   5   9   1    6.78    2.52
  -5   9  -1    9.77    2.76
  -5  -9  -1    3.89    2.08
  -5  -9  -1    6.28    2.94
   5  -9   1   10.95    3.50
   5  -9   1    8.39    2.77
   5  -9   1    5.75    2.70
   5   9   2    4.09    2.54
  -5   9  -2    7.47    2.56
   5   9   2    2.81    3.12
  -5  -9  -2    5.91    2.82
   5  -9   2    2.69    3.31
  -5  -9  -2    8.50    3.00
   5  -9   2    3.95    2.62
   5  -9   2    1.92    1.77
   5   9   3   11.52    3.87
   5   9   3    2.82    2.46
  -5  -9  -3    4.91    2.80
   5  -9   3    3.72    1.96
  -5  -9  -3    4.60    3.84
   5  -9   3    9.46    3.44
   5   9   4    0.90    2.31
   5   9   4   -0.33    1.79
   5  -9   4    0.10    2.72
  -5  -9  -4    2.97    2.90
  -5  -9  -4   -0.71    2.78
   5   9   5   37.34    5.65
  -5  -9  -5   34.39    5.72
   5  -9   5   37.00    6.62
  -5  -9  -5   38.10    7.21
   5  10  -4    0.96    1.92
   5  10  -4   -2.95    3.03
   5 -10  -4   -1.04    2.31
  -5 -10   4   -1.16    1.95
   5 -10  -4   -0.69    2.11
  -5 -10   4    1.46    3.22
   5  10  -3    2.65    2.81
   5  10  -3    3.92    2.31
  -5 -10   3    0.91    2.34
   5 -10  -3    4.18    2.92
  -5 -10   3   -0.03    3.46
   5 -10  -3    1.60    2.35
  -5 -10   3    7.10    3.83
   5  10  -2   -2.47    2.71
   5  10  -2    5.05    2.41
  -5 -10   2    3.01    3.12
   5 -10  -2    6.81    2.70
  -5 -10   2   -0.17    2.34
   5 -10  -2    1.12    2.37
   5  10  -1    0.15    2.10
   5  10  -1   -3.18    2.79
   5 -10  -1   -4.28    3.20
   5 -10  -1   -0.11    2.19
  -5 -10   1    0.36    2.19
   5 -10  -1    3.84    2.78
  -5 -10   1    6.93    3.27
  -5  10   0    1.50    2.09
   5  10   0    0.16    1.90
   5  10   0   -2.85    1.76
  -5 -10   0    2.17    2.04
   5 -10   0   -0.58    2.11
  -5 -10   0    1.78    2.81
   5 -10   0   -4.47    2.60
   5 -10   0    3.05    2.62
  -5  10  -1    0.74    2.40
   5  10   1    5.21    3.03
   5 -10   1    7.47    3.03
  -5 -10  -1    5.08    3.01
  -5 -10  -1    4.18    3.09
   5 -10   1   -3.46    3.23
   5 -10   1    6.42    2.86
   5  10   2    3.32    3.42
  -5 -10  -2    4.93    4.54
  -5 -10  -2   -0.01    2.52
   5 -10   2    7.62    2.64
   5 -10   2    3.97    2.89
   5 -10   2    4.33    3.68
   5  10   3   -0.29    2.90
   5 -10   3    3.39    3.66
  -5 -10  -3   -4.73    3.71
  -5 -10  -3   -0.74    2.29
   5 -10   3    2.06    2.80
   5 -10   3    1.27    2.48
   5  11  -1   -3.13    2.91
  -5 -11   1   -7.07    3.27
   5 -11  -1    2.52    2.21
   5 -11  -1    1.23    2.52
  -5 -11   1    4.47    3.75
  -5 -11   1    2.18    2.42
   5  11   0   34.13    5.58
  -5  11   0   34.62    5.07
  -5 -11   0   31.33    5.14
  -5 -11   0   30.31    6.35
   5 -11   0   35.95    5.72
  -5 -11   0   31.86    5.70
   5 -11   0   23.00    5.73
   5 -11   0   31.10    5.19
   5 -11   1   -7.83    3.10
   6   0 -10   24.55    4.35
   6   0 -10   21.12    3.97
   6   0  -9    1.15    2.07
   6   0  -9    4.10    2.10
   6   0  -8    0.83    1.85
   6   0  -8    0.66    1.59
  -6   0   7   -0.05    1.33
   6   0  -7    0.06    1.33
   6   0  -7   -0.56    1.36
   6   0  -6   45.14    3.45
   6   0  -6   48.87    3.61
  -6   0   6   49.37    3.43
   6   0  -6   48.33    2.46
  -6   0   6   45.29    3.52
   6   0  -5   -1.49    1.06
   6   0  -5   -0.29    1.13
   6   0  -5    1.38    0.74
  -6   0   5    0.05    0.56
   6   0  -5   -1.81    0.84
  -6   0   5    2.12    1.31
   6   0  -4   35.70    2.25
   6   0  -4   33.18    2.31
   6   0  -4   33.56    2.64
  -6   0   4   37.49    2.84
   6   0  -4   34.90    2.33
   6   0  -3   -0.81    0.44
   6   0  -3    0.11    0.56
   6   0  -3    0.17    1.01
  -6   0   3    0.11    0.92
   6   0  -3   -0.14    0.82
   6   0  -2  128.16    4.52
  -6   0   2  125.35    5.82
   6   0  -2  140.86    6.00
   6   0  -2  130.50    5.67
  -6   0   2  127.36    5.68
  -6   0   1   -2.32    0.89
   6   0  -1   -0.50    0.92
  -6   0   1   -0.41    1.08
   6   0  -1   -0.12    0.18
   6   0  -1    0.39    1.05
   6   0   0  391.46   14.57
   6   0   0  426.07   15.15
   6   0   0  414.42   13.88
  -6   0   0  412.51   14.60
   6   0   0  397.89   14.98
  -6   0   0  395.99   13.61
   6   0   0  394.64   13.89
  -6   0   0  378.19   14.89
  -6   0   0  405.75   15.04
   6   0   0  401.85   14.02
   6   0   1    0.12    0.55
  -6   0  -1    0.51    1.00
   6   0   1    0.78    0.79
  -6   0  -1   -0.18    0.46
  -6   0  -1    1.23    1.02
   6   0   1   -0.97    0.62
   6   0   1   -0.77    0.82
  -6   0  -1    0.87    0.71
  -6   0  -1   -0.30    0.54
   6   0   1    1.59    0.78
  -6   0  -2   46.80    2.79
   6   0   2   44.49    2.87
  -6   0  -2   43.39    3.12
   6   0   2   38.87    3.06
  -6   0  -2   37.37    3.05
   6   0   2   40.97    3.18
  -6   0  -2   42.80    2.27
  -6   0  -3    0.08    0.98
   6   0   3   -0.76    1.07
   6   0   3   -0.14    1.18
  -6   0  -3   -0.14    1.29
  -6   0  -3   -2.13    0.87
   6   0   3    0.55    1.75
  -6   0  -3   -0.20    0.85
  -6   0  -4    3.73    1.74
   6   0   4    2.22    2.11
  -6   0  -4    1.15    1.54
   6   0   4    2.56    1.98
  -6   0  -4    3.91    1.72
   6   0   5   -0.47    1.82
  -6   0  -5    0.14    1.20
   6   0   5   -0.02    1.55
  -6   0  -5    0.43    1.61
  -6   0  -5   -0.41    1.56
   6   0   6   -0.70    1.55
   6   0   6   -1.41    1.77
  -6   0  -6   -0.25    1.73
  -6   0  -6    3.91    2.10
  -6   0  -6   -0.83    1.16
   6   0   7    0.07    1.93
   6   0   7    3.47    2.78
  -6   0  -7   -0.09    1.69
  -6   0  -7    1.31    1.75
  -6   0  -7   -2.17    1.71
  -6   0  -8    1.91    2.38
   6   0   8    1.52    2.09
   6   0   8    2.63    2.62
  -6   0  -9    1.24    2.43
   6   1 -10    8.74    3.06
   6   1 -10   12.77    3.46
   6  -1 -10   14.92    3.56
   6  -1 -10   16.40    3.49
   6   1  -9   13.03    3.15
   6   1  -9   23.54    3.69
   6  -1  -9   20.34    3.76
   6  -1  -9   21.04    3.60
   6   1  -8    4.42    1.77
   6   1  -8    5.91    2.28
   6  -1  -8    2.29    2.08
  -6  -1   8    3.41    2.05
   6  -1  -8    0.84    1.71
   6   1  -7    2.32    1.56
   6   1  -7    3.17    1.77
  -6  -1   7    1.97    1.67
   6  -1  -7    3.61    1.72
   6  -1  -7    2.02    1.63
   6   1  -6   17.26    2.38
   6   1  -6   16.92    2.55
  -6   1   6   16.95    1.93
  -6  -1   6   19.97    3.06
   6  -1  -6   19.57    2.71
   6  -1  -6   15.51    2.37
   6   1  -5   67.18    3.92
  -6   1   5   65.85    3.58
   6   1  -5   65.65    3.92
   6  -1  -5   69.87    3.82
   6  -1  -5   69.04    3.98
   6  -1  -5   67.35    3.30
  -6  -1   5   70.61    3.31
   6  -1  -5   74.57    4.10
  -6  -1   5   75.76    4.66
   6   1  -4   66.21    3.13
   6   1  -4   57.26    3.35
  -6   1   4   67.47    3.53
   6   1  -4   69.77    3.52
   6  -1  -4   74.82    3.82
  -6  -1   4   67.82    2.68
   6  -1  -4   60.93    3.35
   6  -1  -4   64.10    3.42
   6  -1  -4   64.37    3.58
  -6  -1   4   57.03    4.09
   6  -1  -4   62.84    3.20
   6   1  -3   51.92    2.56
   6   1  -3   49.27    2.79
   6   1  -3   50.66    2.55
  -6   1   3   46.22    2.89
  -6  -1   3   50.62    2.79
   6  -1  -3   49.73    2.93
   6  -1  -3   51.34    3.12
  -6  -1   3   50.51    3.55
  -6  -1   3   53.64    2.09
   6  -1  -3   49.70    2.41
   6  -1  -3   48.05    2.40
   6   1  -2    9.51    0.90
   6   1  -2   11.65    1.62
   6   1  -2    9.33    1.51
  -6   1   2    8.90    1.50
   6   1  -2   10.52    0.96
   6   1  -2    9.82    0.97
   6  -1  -2    8.72    0.70
  -6  -1   2   10.68    1.54
  -6  -1   2   10.47    1.90
   6  -1  -2    9.65    1.52
   6  -1  -2   10.45    1.55
   6   1  -1   57.53    3.33
   6   1  -1   48.28    2.28
   6   1  -1   55.54    2.29
   6   1  -1   57.27    3.10
   6   1  -1   53.68    2.32
  -6   1   1   56.26    3.45
   6  -1  -1   49.92    3.11
  -6  -1   1   53.98    3.48
   6  -1  -1   56.68    3.25
   6  -1  -1   52.38    2.10
  -6  -1   1   49.14    3.20
   6  -1  -1   52.62    3.10
   6   1   0   58.62    2.76
   6   1   0   66.30    4.04
  -6   1   0   58.12    3.67
  -6   1   0   57.32    2.39
   6   1   0   59.70    2.80
  -6   1   0   58.43    2.95
   6   1   0   57.84    3.10
   6   1   0   59.12    3.54
   6  -1   0   69.15    4.03
   6  -1   0   60.90    2.62
  -6  -1   0   57.31    3.68
  -6  -1   0   65.89    2.67
  -6  -1   0   56.01    2.47
   6  -1   0   60.63    2.98
  -6  -1   0   52.68    3.45
   6  -1   0   55.50    2.61
  -6  -1   0   58.43    2.98
   6  -1   0   57.89    3.52
   6   1   1  253.03    9.93
   6   1   1  282.90   10.58
  -6   1  -1  284.86    9.84
   6   1   1  270.13    9.99
  -6   1  -1  251.11   10.60
  -6   1  -1  257.86    9.60
  -6   1  -1  281.43   10.20
   6   1   1  258.81   10.59
   6  -1   1  271.91    9.94
   6  -1   1  266.39    9.93
   6  -1   1  256.16   10.13
  -6  -1  -1  260.55    9.80
  -6  -1  -1  271.63    9.92
   6  -1   1  273.98   10.76
  -6  -1  -1  263.67   10.68
  -6  -1  -1  258.70    9.90
  -6  -1  -1  262.48   10.87
   6   1   2    9.36    1.57
  -6   1  -2    7.62    1.89
   6   1   2    8.09    1.80
  -6   1  -2    9.14    1.45
   6   1   2    9.90    1.46
   6   1   2   10.88    1.90
  -6   1  -2   10.06    0.68
   6  -1   2   10.78    1.56
  -6  -1  -2    7.25    1.76
  -6  -1  -2    8.80    1.53
  -6  -1  -2   10.28    1.62
   6  -1   2   10.51    2.21
  -6  -1  -2   10.18    1.53
   6  -1   2   10.60    1.70
  -6   1  -3   43.26    3.24
  -6   1  -3   43.90    3.21
  -6   1  -3   45.86    2.34
   6   1   3   49.37    3.43
  -6   1  -3   43.58    3.27
   6   1   3   39.45    4.05
   6   1   3   42.67    3.32
   6  -1   3   42.30    4.18
  -6  -1  -3   44.58    3.10
  -6  -1  -3   41.96    4.07
  -6  -1  -3   47.86    3.03
   6  -1   3   32.03    3.55
  -6  -1  -3   41.49    3.06
   6  -1   3   50.52    3.45
  -6   1  -4   19.50    2.79
  -6   1  -4   17.03    2.60
   6   1   4   19.02    2.91
   6   1   4   17.45    2.92
  -6   1  -4   14.81    2.51
  -6   1  -4   22.91    2.13
   6  -1   4   15.05    2.66
  -6  -1  -4   19.40    3.02
  -6  -1  -4   17.94    2.57
  -6  -1  -4   21.92    2.92
   6  -1   4   20.90    3.35
  -6   1  -5   15.07    2.76
   6   1   5   17.26    3.10
  -6   1  -5   15.20    2.45
  -6   1  -5   15.78    2.66
   6   1   5   15.05    3.30
   6  -1   5   18.32    3.36
  -6  -1  -5   11.42    2.59
  -6  -1  -5   14.09    2.82
   6  -1   5   11.21    2.95
  -6  -1  -5   15.98    2.83
  -6   1  -6   28.11    3.76
   6   1   6   31.21    4.04
  -6   1  -6   25.59    3.44
   6   1   6   22.52    3.81
  -6   1  -6   31.38    3.67
   6  -1   6   22.78    4.05
  -6  -1  -6   25.30    3.69
  -6  -1  -6   33.94    4.12
   6  -1   6   23.61    4.07
  -6  -1  -6   20.93    3.48
   6   1   7   42.95    5.04
  -6   1  -7   36.16    4.37
   6   1   7   38.72    5.56
  -6   1  -7   39.13    4.74
  -6  -1  -7   38.44    4.59
   6  -1   7   40.23    5.34
  -6  -1  -7   35.88    4.48
  -6  -1  -7   37.28    4.76
   6  -1   7   29.56    4.89
   6   1   8    4.04    2.87
   6   1   8    8.47    3.14
  -6   1  -8    5.67    2.67
   6  -1   8    6.53    3.00
  -6  -1  -8    6.43    2.97
   6   1   9    2.45    2.92
  -6   1  -9    3.60    2.63
  -6  -1  -9    0.03    2.63
   6  -1   9    2.79    3.07
   6   2 -10    2.48    2.41
   6   2 -10    3.70    1.87
   6   2 -10    0.33    2.20
   6  -2 -10    2.84    2.59
   6  -2 -10   -2.03    1.75
   6   2  -9   39.74    4.88
   6   2  -9   25.07    3.97
   6  -2  -9   30.82    4.32
   6  -2  -9   24.64    4.22
   6   2  -8    0.46    1.52
   6   2  -8    2.64    1.84
   6  -2  -8   -0.44    1.76
   6  -2  -8    0.07    1.47
  -6  -2   8    2.24    1.86
   6   2  -7    5.02    1.95
   6   2  -7    3.75    1.77
   6  -2  -7    3.70    1.80
   6  -2  -7    1.80    1.68
  -6  -2   7    3.91    2.22
   6   2  -6    0.69    1.33
   6   2  -6    0.86    1.36
   6  -2  -6    1.32    1.51
  -6  -2   6   -3.62    1.29
   6  -2  -6    0.87    1.28
   6   2  -5   25.82    2.68
   6   2  -5   19.94    2.48
  -6  -2   5   25.54    2.04
  -6  -2   5   25.61    3.26
   6  -2  -5   25.43    2.57
   6  -2  -5   25.92    2.77
   6   2  -4    7.58    2.10
   6   2  -4   14.56    1.80
   6   2  -4   14.64    1.98
  -6  -2   4   15.22    2.45
   6  -2  -4   14.96    0.89
   6  -2  -4   15.22    1.90
  -6  -2   4   15.15    1.44
  -6  -2   4   14.71    1.53
  -6  -2   4   13.98    1.55
   6  -2  -4   15.78    1.61
   6  -2  -4   14.33    1.76
   6  -2  -4   14.35    0.85
   6   2  -3    3.76    1.00
   6   2  -3    4.11    1.34
   6   2  -3    1.98    0.88
   6  -2  -3    2.48    0.80
   6  -2  -3    3.40    0.98
  -6  -2   3    4.29    1.12
  -6  -2   3   -0.43    1.05
  -6  -2   3    2.17    0.68
   6  -2  -3    2.16    0.77
   6  -2  -3    4.71    1.22
  -6  -2   3    4.22    0.77
  -6  -2   3    2.11    0.75
   6  -2  -3    3.07    0.89
   6   2  -2  108.07    4.72
   6   2  -2  116.99    5.36
   6   2  -2  116.40    4.75
   6   2  -2  113.99    5.54
  -6  -2   2  118.51    4.51
  -6  -2   2  118.43    4.28
   6  -2  -2  104.80    4.49
  -6  -2   2  108.45    5.19
   6  -2  -2  116.27    5.11
  -6  -2   2  113.44    4.29
   6  -2  -2  119.05    4.94
  -6  -2   2  108.36    5.74
   6   2  -1  161.42    6.16
   6   2  -1  154.47    6.85
   6   2  -1  153.83    6.11
   6   2  -1  160.95    6.97
  -6  -2   1  151.06    5.78
  -6  -2   1  148.07    7.06
   6  -2  -1  155.69    5.82
   6  -2  -1  153.66    5.90
   6  -2  -1  155.61    6.60
  -6  -2   1  147.53    6.85
  -6  -2   1  160.27    5.75
  -6  -2   1  160.57    5.94
   6   2   0   38.02    2.72
   6   2   0   45.27    2.54
  -6   2   0   41.73    2.17
   6   2   0   41.44    3.11
   6   2   0   40.91    2.49
   6  -2   0   43.74    2.36
   6  -2   0   40.98    2.90
   6  -2   0   42.87    2.06
  -6  -2   0   44.54    2.43
   6  -2   0   41.95    2.25
   6  -2   0   46.07    2.32
  -6  -2   0   43.33    2.79
  -6  -2   0   42.47    2.33
  -6  -2   0   42.03    3.08
  -6  -2   0   41.21    3.22
  -6  -2   0   41.89    2.38
  -6   2  -1   37.76    3.19
   6   2   1   42.27    3.23
   6   2   1   40.64    2.63
  -6   2  -1   40.72    2.42
   6   2   1   35.86    2.62
  -6   2  -1   40.25    2.30
  -6   2  -1   35.79    2.29
  -6  -2  -1   37.30    2.53
   6  -2   1   39.35    3.09
  -6  -2  -1   36.45    3.11
   6  -2   1   42.49    2.62
   6  -2   1   44.64    2.59
  -6  -2  -1   39.62    3.73
  -6  -2  -1   43.60    2.84
  -6   2  -2   24.60    2.73
  -6   2  -2   22.98    2.26
  -6   2  -2   22.60    2.29
   6   2   2   26.34    2.54
   6   2   2   21.98    2.96
   6   2   2   30.23    2.82
  -6  -2  -2   29.86    3.06
  -6  -2  -2   26.04    3.01
  -6  -2  -2   29.15    2.70
  -6  -2  -2   28.52    2.64
   6  -2   2   24.95    2.62
   6  -2   2   27.01    2.56
   6  -2   2   20.34    2.83
   6   2   3   -0.35    1.39
  -6   2  -3    0.02    1.26
  -6   2  -3   -0.61    1.34
  -6   2  -3   -0.31    0.53
   6   2   3   -0.18    1.25
  -6   2  -3    0.73    1.30
   6   2   3   -0.36    1.18
  -6  -2  -3    0.47    1.79
   6  -2   3   -0.75    1.35
   6  -2   3    0.43    1.15
   6  -2   3    0.76    1.22
  -6  -2  -3    1.62    1.48
  -6  -2  -3    0.81    1.34
   6   2   4   15.19    2.79
  -6   2  -4   16.17    2.54
  -6   2  -4   18.37    2.67
   6   2   4    9.95    2.23
  -6   2  -4   13.46    1.53
  -6   2  -4   15.36    2.47
  -6  -2  -4    8.68    2.20
   6  -2   4   12.23    3.04
  -6  -2  -4   12.89    2.41
   6  -2   4   11.22    2.80
  -6  -2  -4   16.08    2.80
  -6   2  -5   10.11    2.21
   6   2   5   11.77    2.52
  -6   2  -5   11.23    2.54
  -6   2  -5   12.10    2.39
   6   2   5    7.62    2.85
  -6  -2  -5   10.68    2.67
   6  -2   5   17.21    3.50
   6  -2   5   12.30    2.74
  -6  -2  -5   13.35    2.67
  -6  -2  -5   17.47    2.82
  -6   2  -6   19.61    3.35
  -6   2  -6   19.46    2.92
   6   2   6   23.04    3.79
   6   2   6   22.09    3.45
  -6   2  -6   18.18    3.22
  -6  -2  -6   12.70    2.98
  -6  -2  -6    9.50    2.81
  -6  -2  -6   14.53    2.83
   6  -2   6   22.43    3.62
   6  -2   6   14.90    3.26
   6   2   7    0.85    2.02
   6   2   7    2.60    2.04
  -6   2  -7    0.70    1.94
  -6   2  -7    2.98    1.84
  -6  -2  -7   -1.04    1.92
  -6  -2  -7    0.31    1.89
   6  -2   7    0.60    2.47
  -6  -2  -7    2.09    1.97
   6   2   8   49.19    6.34
  -6   2  -8   52.50    5.74
   6  -2   8   42.41    5.95
  -6  -2  -8   44.96    5.64
   6   2   9    7.72    3.42
  -6   2  -9    5.37    2.87
  -6  -2  -9    2.15    2.05
   6  -2   9   -0.33    2.84
   6   3 -10    3.49    2.84
   6   3 -10   -0.23    2.23
   6   3 -10   11.24    3.09
   6  -3 -10    3.60    2.67
   6  -3 -10    1.38    2.54
   6   3  -9   13.21    3.32
   6   3  -9    7.66    2.64
   6   3  -9   11.59    3.30
   6  -3  -9   11.00    3.01
  -6  -3   9    9.55    3.15
   6  -3  -9    4.01    2.61
   6   3  -8    1.19    1.88
   6   3  -8    3.41    1.93
   6   3  -8    3.74    1.97
   6  -3  -8    3.49    2.06
   6  -3  -8    1.48    1.92
  -6  -3   8    2.24    2.27
   6   3  -7    6.91    2.12
   6   3  -7    4.02    2.04
   6   3  -7    9.98    2.54
   6  -3  -7   10.04    2.38
  -6  -3   7   10.01    2.96
   6  -3  -7   10.93    2.65
   6   3  -6    3.24    2.05
   6   3  -6    2.85    1.60
   6   3  -6    1.71    1.40
  -6  -3   6    0.45    2.00
   6  -3  -6    1.56    1.52
   6  -3  -6    3.22    1.50
   6   3  -5    3.59    1.60
   6   3  -5    3.96    1.46
   6   3  -5    4.87    2.18
  -6  -3   5    5.65    1.42
   6  -3  -5    2.99    1.37
  -6  -3   5    6.58    1.58
  -6  -3   5    3.72    2.26
   6  -3  -5    1.27    1.37
   6   3  -4   27.84    2.77
   6   3  -4   25.08    2.66
   6   3  -4   26.00    3.26
   6  -3  -4   24.28    2.53
   6  -3  -4   27.51    2.70
  -6  -3   4   28.46    2.55
  -6  -3   4   27.22    3.76
   6  -3  -4   28.02    1.67
  -6  -3   4   28.86    2.49
  -6  -3   4   30.84    2.07
  -6  -3   4   29.17    2.17
   6   3  -3   23.50    2.32
   6   3  -3   14.19    2.39
   6   3  -3   17.87    2.02
   6  -3  -3   22.59    2.03
  -6  -3   3   18.75    2.17
  -6  -3   3   18.96    2.84
  -6  -3   3   17.01    1.82
   6  -3  -3   20.08    1.73
  -6  -3   3   19.00    1.79
  -6  -3   3   22.28    2.08
   6  -3  -3   20.27    2.04
   6  -3  -3   19.72    2.08
   6  -3  -3   17.39    1.52
   6   3  -2    2.67    0.99
   6   3  -2    1.63    1.21
   6   3  -2    1.57    0.98
   6  -3  -2    2.06    1.05
  -6  -3   2    2.08    0.79
   6  -3  -2    3.62    0.96
  -6  -3   2    3.03    0.96
   6  -3  -2    2.25    0.96
   6  -3  -2    2.55    0.71
  -6  -3   2    2.31    1.00
  -6  -3   2    0.05    1.57
  -6  -3   2    1.62    1.23
   6   3  -1    0.25    0.76
  -6   3   1    0.94    0.90
   6   3  -1    0.44    0.94
   6  -3  -1    0.00    1.10
   6  -3  -1    0.10    0.68
   6  -3  -1   -0.71    0.77
  -6  -3   1    0.46    0.70
  -6  -3   1    0.54    1.17
  -6  -3   1    0.53    0.65
  -6  -3   1    0.36    1.03
  -6  -3   1    1.50    0.87
   6   3   0   -0.39    0.84
   6   3   0   -0.03    0.93
   6   3   0   -0.46    0.88
  -6  -3   0    2.36    1.56
  -6  -3   0    1.14    0.92
   6  -3   0    0.32    0.55
  -6  -3   0    0.51    1.18
   6  -3   0    0.68    0.78
   6  -3   0    1.11    1.42
   6  -3   0    0.63    0.78
  -6  -3   0   -0.40    1.00
  -6   3  -1   17.16    1.87
  -6   3  -1   18.69    1.72
   6   3   1   16.68    2.59
   6   3   1   13.35    2.30
   6   3   1   19.87    2.26
   6  -3   1   17.09    2.48
  -6  -3  -1   16.16    2.00
   6  -3   1   15.05    1.15
  -6  -3  -1   16.13    2.56
  -6  -3  -1   19.99    2.28
   6  -3   1   16.35    1.74
   6  -3   1   16.60    2.03
  -6  -3  -1   15.75    2.30
   6   3   2   28.12    3.16
  -6   3  -2   25.13    2.52
   6   3   2   24.96    3.20
  -6   3  -2   26.07    2.53
  -6   3  -2   23.42    1.39
   6   3   2   26.61    2.80
  -6  -3  -2   28.65    2.92
   6  -3   2   28.72    3.41
  -6  -3  -2   22.20    2.55
   6  -3   2   25.47    2.66
  -6  -3  -2   23.03    2.90
  -6  -3  -2   23.74    3.21
   6  -3   2   27.54    2.71
   6   3   3    2.56    1.77
   6   3   3    2.75    1.75
  -6   3  -3    1.32    1.21
   6   3   3    2.11    2.15
  -6   3  -3    3.78    0.89
  -6   3  -3    5.10    1.57
  -6  -3  -3    4.18    1.91
  -6  -3  -3    3.56    1.51
   6  -3   3    2.53    1.21
  -6  -3  -3    4.91    1.56
   6  -3   3    3.00    2.30
   6  -3   3    3.93    1.86
  -6   3  -4   15.89    2.69
   6   3   4    9.75    2.24
  -6   3  -4   11.98    1.51
  -6   3  -4   12.84    2.37
   6   3   4   10.60    2.55
  -6  -3  -4    9.76    2.91
   6  -3   4   13.84    2.95
  -6  -3  -4   13.09    2.39
  -6  -3  -4    9.39    2.43
   6  -3   4   10.04    2.29
  -6   3  -5   12.19    1.74
   6   3   5    9.71    2.96
  -6   3  -5    7.60    2.06
  -6   3  -5    7.52    2.22
   6   3   5    8.60    2.22
  -6  -3  -5    5.67    2.65
  -6  -3  -5    9.75    2.60
  -6  -3  -5    7.12    2.15
   6  -3   5    8.12    3.04
  -6   3  -6   16.81    2.21
  -6   3  -6   12.21    2.86
  -6   3  -6   17.36    3.36
   6   3   6   13.07    3.54
   6   3   6    9.83    2.51
   6  -3   6   12.76    3.62
  -6  -3  -6   14.88    3.41
  -6  -3  -6   14.47    2.98
  -6  -3  -6    9.75    2.74
   6   3   7    8.54    3.01
   6   3   7    8.71    2.54
  -6   3  -7   10.89    2.69
  -6  -3  -7   13.93    3.45
  -6  -3  -7    9.52    3.08
   6  -3   7    8.29    3.57
  -6  -3  -7    7.06    3.05
  -6   3  -8    7.06    3.01
   6   3   8    3.47    3.27
  -6  -3  -8    5.57    3.05
   6  -3   8    1.47    2.94
   6   3   9    1.85    3.00
  -6   3  -9   -0.72    2.44
   6  -3   9    0.09    2.99
  -6  -3  -9   -0.98    2.65
   6   4  -9    9.50    2.79
   6   4  -9    5.39    3.01
   6   4  -9    3.10    2.26
  -6  -4   9    9.45    3.56
   6  -4  -9    8.95    2.78
   6  -4  -9    5.25    2.69
   6   4  -8   -0.51    2.25
   6   4  -8    0.39    1.49
   6   4  -8    1.66    1.84
  -6  -4   8    1.36    2.47
   6  -4  -8   -2.61    1.86
   6  -4  -8    0.65    1.84
   6   4  -7    5.59    2.12
   6   4  -7    7.97    2.39
   6   4  -7    5.09    2.71
   6  -4  -7    5.32    1.92
   6  -4  -7    8.71    2.47
  -6  -4   7    7.40    2.92
   6   4  -6    1.89    1.70
   6   4  -6    1.12    1.59
   6   4  -6   -2.99    1.60
   6  -4  -6    3.05    1.71
   6  -4  -6    1.28    1.89
  -6  -4   6    1.50    1.37
  -6  -4   6   -2.84    2.03
   6   4  -5    2.51    1.48
   6   4  -5    4.42    1.75
   6   4  -5    2.20    2.07
  -6  -4   5    3.19    0.79
  -6  -4   5    2.62    2.19
   6  -4  -5    1.10    1.46
  -6  -4   5    4.87    1.61
   6  -4  -5    1.90    1.40
   6   4  -4    1.30    1.85
   6   4  -4    0.04    1.16
   6   4  -4   -1.74    1.15
  -6  -4   4    0.01    1.05
   6  -4  -4    0.84    0.55
   6  -4  -4    0.94    1.21
  -6  -4   4   -1.27    2.02
  -6  -4   4    0.83    1.36
  -6  -4   4    0.91    1.12
   6  -4  -4    1.34    1.18
   6   4  -3  103.05    5.12
   6   4  -3   92.56    5.86
   6   4  -3   89.03    4.91
  -6  -4   3   75.57    5.92
   6  -4  -3   84.47    4.75
   6  -4  -3   97.51    4.44
  -6  -4   3   91.93    4.76
   6  -4  -3   92.18    4.19
  -6  -4   3   98.96    4.90
  -6  -4   3  104.94    4.73
   6  -4  -3   99.83    4.18
  -6  -4   3   95.47    5.00
   6  -4  -3   88.72    4.81
  -6   4   2    1.40    0.98
   6   4  -2    2.66    1.28
   6   4  -2    2.78    1.99
   6  -4  -2    2.03    1.11
  -6  -4   2    1.35    1.51
  -6  -4   2    1.80    1.02
  -6  -4   2    0.43    1.21
  -6  -4   2    1.88    1.70
   6  -4  -2    0.50    0.95
   6  -4  -2    1.41    1.26
   6   4  -1   69.65    4.03
   6   4  -1   70.86    4.34
   6   4  -1   63.60    4.76
  -6  -4   1   74.04    4.21
  -6  -4   1   74.10    4.86
   6  -4  -1   71.02    4.31
   6  -4  -1   69.75    3.82
  -6  -4   1   65.90    4.66
  -6  -4   1   64.50    3.90
   6   4   0    2.76    1.70
   6   4   0    6.04    1.78
   6   4   0    5.59    1.40
  -6  -4   0    3.79    1.41
   6  -4   0    4.95    1.32
  -6  -4   0    2.11    1.90
   6  -4   0    5.75    2.04
  -6  -4   0    5.65    1.86
   6  -4   0    3.06    1.30
  -6  -4   0    5.34    1.39
  -6   4  -1   -0.21    0.85
   6   4   1    0.24    0.99
  -6   4  -1    0.62    0.77
   6   4   1    1.56    1.32
   6   4   1    1.37    1.31
  -6  -4  -1    1.40    1.63
  -6  -4  -1    1.03    1.21
  -6  -4  -1   -0.89    1.28
   6  -4   1    1.99    1.06
  -6  -4  -1    0.61    1.54
   6  -4   1    2.01    1.61
   6  -4   1    1.75    0.88
  -6   4  -2    0.56    1.26
  -6   4  -2    0.66    0.90
   6   4   2   -0.35    1.22
   6   4   2    2.06    1.87
   6   4   2   -1.11    1.35
  -6   4  -2   -0.49    1.09
  -6  -4  -2   -0.41    0.99
  -6  -4  -2   -0.07    1.43
   6  -4   2   -0.18    0.84
   6  -4   2    0.32    2.09
  -6  -4  -2   -1.52    1.50
  -6  -4  -2    0.79    1.13
  -6   4  -3  170.91    7.70
   6   4   3  169.19    8.29
  -6   4  -3  164.18    6.59
   6   4   3  152.86    8.45
  -6   4  -3  162.41    7.77
  -6  -4  -3  160.83    8.05
  -6  -4  -3  170.26    8.13
   6  -4   3  153.56    8.74
  -6  -4  -3  149.32    8.60
  -6  -4  -3  167.10    7.96
   6  -4   3  167.76    8.01
   6   4   4    2.04    1.66
  -6   4  -4   -0.77    0.99
   6   4   4    0.39    1.67
  -6   4  -4    1.36    1.22
  -6   4  -4   -0.53    0.97
  -6  -4  -4   -0.64    1.17
  -6  -4  -4   -2.26    1.98
  -6  -4  -4    0.41    1.76
   6  -4   4    0.11    1.83
   6   4   5   26.10    4.39
  -6   4  -5   29.96    2.80
  -6   4  -5   28.36    3.57
  -6   4  -5   35.66    4.17
   6   4   5   28.70    3.62
  -6  -4  -5   27.03    3.84
  -6  -4  -5   27.35    4.00
   6  -4   5   32.15    5.06
  -6  -4  -5   27.50    4.46
  -6   4  -6    3.73    1.81
   6   4   6    2.48    1.98
   6   4   6    1.73    1.85
  -6  -4  -6    0.53    2.17
  -6  -4  -6    0.53    2.04
   6  -4   6    1.60    2.12
  -6  -4  -6   -0.43    2.18
  -6   4  -7    4.96    2.73
   6   4   7    6.41    2.71
   6  -4   7    6.90    3.74
  -6  -4  -7    4.95    3.04
  -6  -4  -7    6.62    2.84
  -6   4  -8    9.32    3.20
   6   4   8    7.65    3.25
  -6  -4  -8    9.36    5.47
  -6  -4  -8    7.31    3.26
   6  -4   8    7.20    3.84
   6   5  -9    2.32    2.45
   6   5  -9    5.12    2.81
   6   5  -9    9.99    3.27
   6  -5  -9    2.78    2.39
   6  -5  -9    4.43    2.81
  -6  -5   9    9.95    3.76
   6   5  -8   12.75    3.34
   6   5  -8   13.00    3.21
   6   5  -8   13.87    3.64
  -6  -5   8   11.54    2.70
   6  -5  -8   16.94    3.81
  -6  -5   8   10.28    3.64
   6  -5  -8   19.58    3.60
   6   5  -7    9.60    2.80
   6   5  -7    7.95    2.62
   6   5  -7    9.17    2.47
   6  -5  -7   11.29    2.90
  -6  -5   7    9.64    2.39
  -6  -5   7    8.88    3.49
   6  -5  -7    7.21    2.46
   6   5  -6   -0.32    1.61
   6   5  -6   -0.35    1.47
   6   5  -6    0.42    1.58
   6  -5  -6    0.58    1.66
  -6  -5   6    0.79    2.56
   6  -5  -6   -0.76    1.21
  -6  -5   6    3.90    1.80
   6   5  -5    5.03    1.90
   6   5  -5    4.92    1.69
   6   5  -5    7.79    2.66
  -6  -5   5   10.19    2.05
   6  -5  -5    6.09    2.10
  -6  -5   5    5.51    1.35
   6  -5  -5    8.98    2.12
  -6  -5   5    7.53    3.00
   6   5  -4    3.70    2.35
   6   5  -4    3.60    1.62
   6   5  -4    3.83    1.69
   6  -5  -4    5.51    1.77
  -6  -5   4    4.65    2.22
   6  -5  -4    6.08    1.87
  -6  -5   4    3.49    1.51
  -6  -5   4    2.29    1.46
  -6   5   3    4.57    1.08
   6   5  -3    6.05    2.47
   6   5  -3    4.27    1.70
   6   5  -3    2.14    1.49
  -6  -5   3    0.92    1.72
   6  -5  -3    2.74    1.55
  -6  -5   3    1.04    1.32
   6  -5  -3    2.97    0.66
   6  -5  -3    1.39    1.23
   6  -5  -3    4.56    1.39
  -6  -5   3    2.93    1.84
   6   5  -2   87.68    5.83
  -6  -5   2   94.61    5.50
  -6  -5   2   86.94    4.94
   6  -5  -2   96.87    5.11
   6  -5  -2   92.31    5.12
  -6  -5   2   85.55    5.99
  -6  -5   2  110.66    6.17
   6  -5  -2   92.56    5.08
   6   5  -1    1.39    1.55
   6   5  -1    1.40    1.66
   6  -5  -1    1.12    1.59
   6  -5  -1    2.76    1.28
  -6  -5   1    0.92    1.40
  -6  -5   1   -0.52    1.11
   6  -5  -1   -0.85    1.10
  -6  -5   1    0.41    1.40
  -6  -5   1    1.90    2.03
   6   5   0    5.96    2.03
   6   5   0    5.21    1.70
  -6   5   0    4.30    1.52
   6   5   0    2.64    1.72
  -6  -5   0    1.19    1.54
  -6  -5   0    3.97    1.93
   6  -5   0    2.81    1.98
  -6  -5   0    3.31    1.51
  -6  -5   0    1.35    1.49
   6  -5   0    3.23    1.53
  -6   5  -1   -1.15    0.60
  -6   5  -1    1.43    1.22
   6   5   1    1.54    1.39
   6   5   1    0.71    1.56
   6   5   1    1.12    1.54
  -6  -5  -1    3.49    1.75
   6  -5   1   -1.63    1.17
  -6  -5  -1   -0.87    1.37
  -6  -5  -1    1.07    2.36
   6  -5   1    1.02    2.13
  -6  -5  -1   -2.02    1.48
   6   5   2   -1.44    1.12
   6   5   2   -0.92    1.93
  -6   5  -2    0.90    1.34
  -6   5  -2    0.43    1.31
  -6   5  -2   -0.85    1.06
  -6  -5  -2   -1.48    1.62
   6  -5   2    1.01    1.16
  -6  -5  -2   -0.14    1.57
  -6  -5  -2   -0.86    1.53
   6  -5   2    1.92    0.86
   6  -5   2   -2.35    1.59
  -6  -5  -2    0.77    1.57
  -6   5  -3    3.03    1.22
   6   5   3    2.64    1.70
  -6   5  -3    6.71    1.84
   6   5   3    2.12    2.10
  -6   5  -3    4.42    1.84
  -6  -5  -3    0.57    2.63
   6  -5   3    8.34    3.20
  -6  -5  -3    4.10    1.72
  -6  -5  -3    1.33    1.64
  -6  -5  -3    2.74    1.80
   6   5   4    4.20    2.42
  -6   5  -4    5.16    1.74
  -6   5  -4    2.61    1.52
  -6   5  -4    3.41    1.37
   6   5   4    3.91    1.92
   6  -5   4    5.96    2.55
  -6  -5  -4    1.80    1.65
  -6  -5  -4   -0.04    1.85
  -6  -5  -4    5.35    2.36
   6   5   5    3.69    1.98
  -6   5  -5    1.41    1.45
   6   5   5    1.74    2.58
  -6  -5  -5    6.84    2.43
   6  -5   5    1.37    2.18
  -6  -5  -5    1.90    2.67
  -6  -5  -5    5.01    2.13
   6   5   6    3.29    2.22
  -6   5  -6    2.64    2.16
   6   5   6    1.41    2.45
  -6  -5  -6    8.26    4.03
   6  -5   6    3.59    3.19
  -6  -5  -6    6.59    2.70
  -6  -5  -6    0.07    2.30
  -6   5  -7    0.80    2.13
   6   5   7    1.39    2.88
   6  -5   7    0.43    2.19
  -6  -5  -7    3.59    2.86
  -6  -5  -7    1.66    2.39
  -6   5  -8    1.11    2.39
   6   5   8    1.84    2.81
   6  -5   8   -1.57    3.05
  -6  -5  -8   -1.99    2.59
  -6  -5  -8    1.05    2.56
   6   6  -8   20.36    4.24
   6   6  -8   18.96    3.80
   6   6  -8   15.07    3.58
   6  -6  -8   28.05    4.68
  -6  -6   8   19.62    3.34
  -6  -6   8   24.27    5.15
   6  -6  -8   24.62    4.15
   6   6  -7    4.74    2.54
   6   6  -7    7.62    3.26
   6   6  -7    2.77    2.33
   6  -6  -7    9.34    3.07
  -6  -6   7    9.89    3.65
   6  -6  -7    4.41    2.40
  -6  -6   7    5.58    2.32
   6   6  -6    8.86    2.62
   6   6  -6   15.39    3.38
   6   6  -6   13.18    3.58
  -6  -6   6    8.05    3.48
   6  -6  -6   16.53    3.16
   6  -6  -6   13.62    3.26
  -6  -6   6   15.62    2.96
   6   6  -5    1.08    1.86
   6   6  -5    0.42    1.57
   6   6  -5    0.24    1.67
  -6  -6   5    4.69    2.88
   6  -6  -5    0.19    1.74
   6  -6  -5    3.40    1.93
  -6  -6   5    2.75    1.72
   6   6  -4    3.32    1.89
   6   6  -4    1.72    1.36
   6   6  -4    3.86    1.98
   6  -6  -4    3.95    1.94
  -6  -6   4    2.03    1.63
  -6  -6   4    3.85    2.19
  -6  -6   4    3.21    1.83
   6  -6  -4    1.42    1.53
   6   6  -3   92.33    5.50
   6   6  -3   83.03    6.13
  -6  -6   3   92.63    6.68
  -6  -6   3   85.21    5.23
  -6  -6   3   94.78    6.21
  -6  -6   3   86.23    5.75
   6  -6  -3   92.37    5.45
   6  -6  -3   91.15    5.53
   6   6  -2    9.24    2.55
  -6  -6   2   11.20    2.20
  -6  -6   2    6.14    2.38
   6  -6  -2    9.60    2.14
  -6  -6   2   10.54    2.21
  -6  -6   2    6.48    2.45
   6  -6  -2   10.05    2.32
   6  -6  -2    3.16    1.74
   6   6  -1   25.90    3.25
   6   6  -1   22.48    3.81
  -6  -6   1   14.07    2.93
  -6  -6   1   18.99    2.82
  -6  -6   1   17.46    2.74
   6  -6  -1   23.72    3.82
   6  -6  -1   21.75    3.08
  -6  -6   1   15.85    3.15
   6  -6  -1   24.00    2.94
   6  -6  -1   23.42    3.24
  -6   6   0   -0.55    1.33
   6   6   0   -0.10    1.68
   6   6   0    4.17    2.06
  -6  -6   0    1.52    1.67
  -6  -6   0   -0.72    1.63
  -6  -6   0    2.99    2.24
   6  -6   0    4.97    3.00
   6  -6   0    5.31    2.41
  -6  -6   0    2.07    1.54
   6   6   1    2.14    2.25
   6   6   1    2.47    1.89
  -6   6  -1    0.86    1.41
  -6  -6  -1    4.15    2.04
   6  -6   1    0.73    1.70
  -6  -6  -1    1.50    1.97
  -6  -6  -1   -1.44    1.38
  -6  -6  -1    2.85    2.18
  -6   6  -2   49.22    3.82
   6   6   2   39.38    4.87
   6   6   2   43.33    4.56
  -6   6  -2   43.78    3.32
   6  -6   2   39.40    5.11
  -6  -6  -2   48.89    4.16
  -6  -6  -2   46.90    4.49
  -6  -6  -2   42.26    4.47
  -6  -6  -2   36.40    4.96
  -6   6  -3   20.07    2.49
  -6   6  -3   24.35    3.24
   6   6   3   20.81    3.48
   6   6   3   22.22    3.66
  -6   6  -3   17.72    2.95
  -6  -6  -3   22.66    3.39
   6  -6   3   11.05    3.59
  -6  -6  -3   19.69    4.26
  -6  -6  -3   26.79    3.70
  -6  -6  -3   21.48    3.49
   6   6   4   49.11    5.58
  -6   6  -4   40.53    4.44
   6   6   4   46.47    5.42
  -6  -6  -4   32.74    5.42
  -6  -6  -4   46.24    5.13
   6  -6   4   41.82    5.50
  -6  -6  -4   52.95    5.38
   6   6   5    2.39    1.71
  -6   6  -5   -2.45    1.75
   6   6   5   -4.52    1.88
  -6  -6  -5    1.88    2.18
  -6  -6  -5    2.14    3.18
   6  -6   5    0.18    1.97
  -6  -6  -5   -0.98    2.03
   6   6   6    5.52    2.73
  -6   6  -6    3.82    1.98
  -6  -6  -6    0.94    3.28
   6  -6   6    5.30    3.68
  -6  -6  -6    4.90    2.33
   6   6   7    3.86    2.85
  -6   6  -7   -0.36    2.14
   6  -6   7    1.40    2.66
  -6  -6  -7   -0.53    2.33
  -6  -6  -7    1.23    3.22
   6   7  -8   -3.45    2.42
   6   7  -8   -1.07    1.95
   6   7  -8   -0.31    2.87
  -6  -7   8    1.11    2.54
   6  -7  -8    2.18    2.39
   6  -7  -8   -3.25    2.37
  -6  -7   8    4.99    3.63
   6   7  -7   20.07    4.33
   6   7  -7   18.43    3.88
   6   7  -7   10.90    3.10
   6  -7  -7   19.04    4.12
   6  -7  -7    8.13    3.04
  -6  -7   7    7.82    3.58
  -6  -7   7   14.91    3.27
   6   7  -6   -0.86    1.82
   6   7  -6    2.06    1.69
   6   7  -6    3.78    2.29
   6  -7  -6    0.65    1.97
  -6  -7   6   -0.45    1.87
   6  -7  -6   -1.13    2.01
  -6  -7   6   -2.05    1.70
   6   7  -5   -3.70    2.00
   6   7  -5    0.43    1.83
   6   7  -5   -1.89    1.07
   6  -7  -5   -0.95    1.45
  -6  -7   5    1.94    1.89
  -6  -7   5    1.99    2.30
   6  -7  -5    2.16    2.00
   6   7  -4    6.13    2.52
   6   7  -4    4.98    2.95
  -6  -7   4    8.56    2.53
  -6  -7   4    3.41    3.20
   6  -7  -4    8.36    2.32
  -6  -7   4   10.18    2.52
   6  -7  -4    7.48    2.47
   6   7  -3   14.51    3.40
  -6  -7   3   12.04    3.67
   6  -7  -3   15.79    2.96
  -6  -7   3   15.76    3.11
   6  -7  -3   15.68    2.93
  -6  -7   3   10.80    2.44
   6   7  -2   -0.08    2.26
   6   7  -2    1.83    1.83
   6  -7  -2   -0.68    1.09
  -6  -7   2   -3.70    1.71
   6  -7  -2    1.11    1.81
   6  -7  -2   -0.23    1.52
  -6  -7   2   -0.27    1.61
  -6  -7   2   -2.19    1.43
   6   7  -1    0.27    1.61
   6   7  -1   -0.76    1.50
   6  -7  -1   -0.83    1.56
  -6  -7   1    6.29    2.40
   6  -7  -1    1.50    1.50
  -6  -7   1    1.69    1.74
   6  -7  -1    4.33    2.09
  -6  -7   1   -2.06    2.18
  -6  -7   1    2.09    1.60
  -6   7   0    0.36    1.53
   6   7   0    2.18    1.88
   6   7   0    2.42    2.46
  -6  -7   0    2.12    1.66
   6  -7   0    1.31    1.85
  -6  -7   0    1.28    1.89
   6  -7   0    1.31    1.65
   6  -7   0    3.62    1.61
  -6  -7   0   -0.55    1.50
  -6  -7   0    0.34    2.55
  -6   7  -1    9.39    2.14
   6   7   1   12.31    2.88
   6   7   1    7.60    3.07
  -6  -7  -1   11.71    2.62
   6  -7   1   15.89    3.65
  -6  -7  -1   16.35    3.15
  -6  -7  -1    9.96    2.94
  -6  -7  -1    9.18    3.60
   6   7   2   -0.66    2.28
  -6   7  -2    6.18    1.87
   6   7   2    3.54    2.22
   6  -7   2   -0.11    2.41
  -6  -7  -2    4.69    1.85
  -6  -7  -2    0.98    1.44
  -6  -7  -2    0.64    1.70
  -6  -7  -2    1.87    2.98
   6   7   3   10.04    3.30
  -6   7  -3    8.82    2.10
   6   7   3    9.76    2.95
  -6  -7  -3   16.26    3.10
  -6  -7  -3    4.07    3.50
  -6  -7  -3   14.46    3.00
  -6  -7  -3   12.17    2.87
   6  -7   3    6.18    3.71
   6   7   4    4.13    2.68
   6   7   4    3.35    2.28
  -6   7  -4    8.27    2.48
  -6  -7  -4    2.00    1.88
  -6  -7  -4    1.94    2.60
   6  -7   4    7.25    3.75
   6   7   5   -2.11    2.22
  -6   7  -5   -0.39    1.80
  -6  -7  -5   -6.84    2.67
   6  -7   5   -2.08    3.21
  -6  -7  -5    1.65    1.97
  -6   7  -6    0.36    2.33
   6   7   6   -1.16    1.62
  -6  -7  -6    1.64    2.75
   6  -7   6    5.81    3.13
  -6  -7  -6   -2.52    3.31
  -6   7  -7   -1.73    2.40
   6   7   7   -0.37    2.36
   6  -7   7    3.14    3.05
  -6  -7  -7   -5.82    2.24
  -6  -7  -7   -2.18    3.50
   6   8  -7   17.74    4.02
   6   8  -7   16.47    3.88
   6   8  -7   18.12    4.82
   6  -8  -7   11.71    3.59
   6  -8  -7   16.53    3.86
  -6  -8   7   16.37    4.97
  -6  -8   7   18.60    3.82
   6   8  -6    0.72    2.34
   6   8  -6   -0.81    2.09
   6   8  -6   -1.45    2.74
  -6  -8   6   -0.96    2.08
   6  -8  -6    5.01    2.82
   6  -8  -6   -0.75    1.94
  -6  -8   6    2.94    3.51
   6   8  -5    0.81    1.70
   6   8  -5   -0.97    2.66
  -6  -8   5   -1.17    2.55
   6  -8  -5    1.04    2.11
   6  -8  -5    2.09    2.35
  -6  -8   5   -2.48    1.89
   6   8  -4   11.04    4.00
  -6  -8   4   21.96    3.56
   6  -8  -4   24.65    3.78
   6  -8  -4   19.13    3.62
  -6  -8   4   18.12    3.40
  -6  -8   4   13.85    3.62
   6   8  -3    7.59    3.45
   6  -8  -3    5.43    2.28
  -6  -8   3   10.26    2.69
  -6  -8   3    9.20    3.16
  -6  -8   3    7.83    3.17
   6  -8  -3    6.01    2.52
   6   8  -2   36.05    5.40
   6   8  -2   35.48    4.47
  -6  -8   2   35.76    4.29
  -6  -8   2   33.30    4.87
  -6  -8   2   31.16    5.11
   6  -8  -2   38.70    4.46
   6  -8  -2   31.43    4.27
   6   8  -1   13.45    3.33
   6   8  -1   17.44    3.21
  -6  -8   1   11.29    3.58
   6  -8  -1   22.84    3.46
   6  -8  -1   20.70    3.51
  -6  -8   1   12.99    3.82
  -6  -8   1   15.63    3.16
   6  -8  -1   21.58    3.76
   6   8   0    1.45    1.92
  -6   8   0    1.57    1.73
   6   8   0    0.34    2.57
   6  -8   0   -0.36    2.08
   6  -8   0    0.47    1.91
  -6  -8   0    3.05    2.53
   6  -8   0    0.99    1.92
  -6  -8   0    0.42    2.83
  -6  -8   0   -0.55    1.89
   6   8   1    3.38    2.25
   6   8   1    3.32    1.75
  -6   8  -1    2.26    1.72
   6  -8   1    4.02    2.87
  -6  -8  -1    4.48    2.52
  -6  -8  -1    1.94    2.12
   6  -8   1    5.70    2.29
  -6  -8  -1   -3.58    2.80
   6  -8   1    3.29    2.11
   6   8   2   19.99    3.65
  -6   8  -2   16.63    2.87
   6   8   2   22.26    4.31
  -6  -8  -2   13.04    3.29
  -6  -8  -2   14.74    4.42
   6  -8   2   13.85    3.93
  -6  -8  -2   15.43    3.22
   6   8   3   10.11    2.83
   6   8   3   12.40    3.46
   6  -8   3    7.69    3.76
  -6  -8  -3   10.15    2.87
  -6  -8  -3    5.16    4.08
  -6  -8  -3    4.33    2.54
   6   8   4   10.86    3.71
   6   8   4   12.19    3.39
  -6  -8  -4   16.62    3.75
   6  -8   4   14.35    4.64
  -6  -8  -4   16.99    5.13
  -6   8  -5   10.39    3.21
   6   8   5    5.46    3.20
  -6  -8  -5    7.50    3.17
   6  -8   5    5.41    4.23
  -6  -8  -5    9.59    4.43
  -6   8  -6   -0.66    2.43
   6   8   6   -1.48    2.24
   6  -8   6    0.37    3.73
  -6  -8  -6   -1.45    2.78
  -6  -8  -6   -1.71    2.35
   6   9  -6    1.90    3.54
   6  -9  -6    7.00    3.17
   6  -9  -6    8.56    3.27
  -6  -9   6    7.80    2.86
  -6  -9   6    3.66    3.50
   6   9  -5   19.17    5.29
  -6  -9   5   21.07    3.84
  -6  -9   5   20.95    5.20
   6  -9  -5   28.06    4.86
   6  -9  -5   27.35    4.50
   6   9  -4    1.43    3.09
   6  -9  -4   -0.19    1.36
  -6  -9   4    1.18    2.08
   6  -9  -4    2.50    2.54
  -6  -9   4   -2.54    2.01
   6   9  -3   14.35    4.37
   6   9  -3   13.58    3.23
  -6  -9   3    7.57    3.68
   6  -9  -3   12.64    3.29
  -6  -9   3   10.95    3.14
  -6  -9   3   12.14    3.77
   6  -9  -3   13.63    3.17
   6   9  -2    1.87    1.85
   6   9  -2    1.01    3.02
   6  -9  -2    1.60    2.20
   6  -9  -2   -0.67    1.34
  -6  -9   2   -0.28    2.65
  -6  -9   2    1.67    3.09
  -6  -9   2   -0.30    1.99
   6   9  -1    7.12    2.56
   6   9  -1    0.94    2.92
   6  -9  -1    3.64    2.48
  -6  -9   1    6.49    2.83
  -6  -9   1    5.81    3.83
  -6  -9   1    6.66    2.87
   6  -9  -1    4.13    2.39
   6   9   0    1.61    2.18
  -6   9   0   -1.85    1.79
   6   9   0    0.58    1.85
   6  -9   0    1.75    2.07
  -6  -9   0   -2.37    3.10
   6  -9   0    0.03    2.39
  -6  -9   0    0.32    1.56
  -6  -9   0    4.17    2.94
   6  -9   0    1.09    2.14
   6   9   1   53.73    5.70
  -6   9  -1   47.67    4.94
   6   9   1   49.04    6.13
   6  -9   1   48.11    6.31
  -6  -9  -1   51.19    5.85
  -6  -9  -1   61.41    6.60
   6  -9   1   53.35    5.86
   6  -9   1   44.40    5.53
  -6  -9  -1   37.59    6.31
   6   9   2    1.04    2.16
   6   9   2   -0.96    2.72
  -6  -9  -2   -5.72    2.99
   6  -9   2    1.56    2.31
  -6  -9  -2    2.07    2.19
  -6  -9  -2    1.80    2.54
   6  -9   2   -0.98    2.01
   6  -9   2    4.49    3.55
   6   9   3    9.92    3.94
   6   9   3   -1.48    2.49
  -6  -9  -3    6.18    4.42
   6  -9   3    2.57    2.85
  -6  -9  -3    5.39    3.00
   6   9   4    8.01    3.52
   6   9   4    3.28    3.14
  -6  -9  -4    1.92    2.04
  -6  -9  -4   -3.42    3.92
   6  -9   4    5.23    4.27
   6   9   5    2.25    3.03
  -6  -9  -5    2.64    3.08
  -6  -9  -5    0.97    3.50
   6  -9   5    6.48    3.87
   6  10  -4    0.56    3.66
   6  10  -4    9.99    2.78
   6 -10  -4    7.75    3.00
  -6 -10   4    3.88    2.95
  -6 -10   4    3.58    2.30
   6 -10  -4    0.44    2.65
   6  10  -3   -3.24    3.03
   6  10  -3    2.82    1.94
  -6 -10   3    0.83    2.13
   6 -10  -3    1.90    2.42
   6 -10  -3   -0.95    1.51
  -6 -10   3   -9.17    2.33
  -6 -10   3   -3.77    1.85
   6  10  -2    4.04    2.31
   6  10  -2    0.49    2.24
  -6 -10   2   -0.47    2.07
  -6 -10   2    0.86    3.08
   6 -10  -2    2.66    2.46
   6 -10  -2   -1.20    2.04
  -6 -10   2   -2.30    3.15
   6  10  -1    4.46    3.63
   6  10  -1   -0.04    1.81
  -6 -10   1    1.77    2.55
  -6 -10   1   -0.76    2.05
  -6 -10   1   -0.32    2.66
   6 -10  -1    1.02    2.63
   6 -10  -1    3.77    2.42
   6  10   0    6.44    3.18
   6  10   0    2.04    2.28
   6 -10   0    5.25    3.06
   6 -10   0    7.18    2.88
  -6 -10   0    5.11    2.84
  -6 -10   0    3.84    3.17
   6 -10   0    3.43    3.65
  -6 -10   0    9.06    3.77
   6  10   1   -2.84    3.01
   6  10   1    1.93    2.36
  -6 -10  -1   -1.75    3.58
   6 -10   1   -2.52    2.03
   6 -10   1    2.69    3.17
   6 -10   1    2.16    2.41
  -6 -10  -1    5.55    2.97
  -6 -10  -1    4.48    2.95
   6  10   2   -1.41    2.69
   6 -10   2    0.55    2.20
  -6 -10  -2    0.94    3.24
  -6 -10  -2    4.66    2.86
   6 -10   2   -2.05    2.86
   6 -10   2   -2.62    1.42
   6  10   3    7.14    3.62
   6 -10   3    4.51    2.46
   6 -10   3   11.21    4.64
  -6 -10  -3   -1.14    2.61
  -6 -10  -3   -3.29    3.94
   6 -10   3    2.81    2.84
   7   0 -10   22.06    4.41
   7   0 -10   22.37    3.92
   7   0  -9   -0.29    1.78
   7   0  -9    1.35    1.89
   7   0  -8   12.32    2.55
   7   0  -8   14.30    2.89
   7   0  -7   -0.38    1.33
   7   0  -7   -0.93    1.20
  -7   0   7    0.35    1.24
   7   0  -6    2.75    1.38
  -7   0   6   -0.45    1.29
   7   0  -6    0.90    1.17
   7   0  -5   -1.24    0.75
   7   0  -5   -0.22    1.04
  -7   0   5    0.32    1.40
   7   0  -5   -2.13    0.82
   7   0  -5    0.76    1.42
   7   0  -4   39.36    2.95
   7   0  -4   40.18    2.57
  -7   0   4   32.39    2.80
   7   0  -4   28.79    2.13
   7   0  -4   35.37    2.27
  -7   0   3   -0.49    1.08
   7   0  -3   -0.92    0.78
   7   0  -3    0.68    0.50
   7   0  -3    0.19    0.46
   7   0  -2   34.21    1.31
  -7   0   2   38.12    2.94
   7   0  -2   36.71    2.69
  -7   0   2   29.83    2.58
   7   0  -2   37.44    1.33
  -7   0   1    0.40    0.92
   7   0  -1   -0.18    0.27
   7   0  -1   -0.29    0.65
   7   0  -1    0.12    0.17
   7   0  -1   -0.34    0.98
  -7   0   1    0.39    1.19
   7   0   0   61.50    2.86
   7   0   0   65.82    2.87
   7   0   0   67.03    3.64
  -7   0   0   65.95    2.52
   7   0   0   61.07    2.99
  -7   0   0   63.13    4.03
  -7   0  -1   -0.26    0.48
  -7   0  -1   -0.53    0.90
   7   0   1    0.17    0.60
   7   0   1   -0.08    0.72
   7   0   1    1.04    1.43
  -7   0  -1   -0.18    0.63
   7   0   1    1.98    1.28
  -7   0  -1   -0.51    0.62
   7   0   2    0.83    1.51
  -7   0  -2    1.82    1.31
  -7   0  -2    0.96    1.01
  -7   0  -2    0.14    0.70
   7   0   2    0.18    1.54
   7   0   2   -0.95    0.86
  -7   0  -3   -0.30    1.22
  -7   0  -3    0.33    0.96
   7   0   3   -3.93    1.44
  -7   0  -3   -1.33    1.04
  -7   0  -3    2.17    1.29
   7   0   3   -0.38    1.12
   7   0   3   -2.47    1.48
  -7   0  -4   78.15    5.10
  -7   0  -4   92.02    5.37
  -7   0  -4  101.72    4.72
  -7   0  -4   92.48    5.65
   7   0   4   92.27    5.75
   7   0   4   82.06    5.79
   7   0   5    0.11    1.53
   7   0   5   -0.94    1.81
  -7   0  -5   -1.80    1.24
  -7   0  -5   -0.80    1.02
  -7   0  -5    2.76    1.79
   7   0   6    4.33    2.62
  -7   0  -6    4.14    1.94
  -7   0  -6    5.34    1.95
   7   0   6    5.38    2.42
  -7   0  -6    1.69    2.13
  -7   0  -7    3.40    2.37
   7   0   7   -1.48    1.82
  -7   0  -7   -1.08    1.75
   7   0   7   -0.46    2.47
   7   0   8   -2.74    2.36
  -7   0  -8    4.74    2.65
   7   0   8    1.27    2.23
  -7   0  -9    0.47    1.96
   7   1 -10   13.81    3.67
   7   1 -10   13.52    3.31
   7  -1 -10   22.95    4.01
   7   1  -9    6.13    2.52
   7   1  -9    9.85    2.69
   7  -1  -9    7.25    2.48
   7  -1  -9    9.17    2.70
   7   1  -8   38.25    4.44
   7   1  -8   42.37    4.37
   7  -1  -8   36.46    4.33
  -7  -1   8   37.31    4.33
   7  -1  -8   38.29    4.19
   7   1  -7   -0.22    1.28
   7   1  -7    0.54    1.39
  -7  -1   7    2.60    1.84
   7  -1  -7    1.87    1.51
   7  -1  -7    1.28    1.44
  -7   1   6    0.04    0.98
   7   1  -6    1.54    1.26
   7   1  -6    2.97    1.51
   7  -1  -6   -0.10    1.20
  -7  -1   6    1.85    1.65
   7  -1  -6    0.34    1.18
   7   1  -5  115.68    5.62
  -7   1   5  122.43    5.59
   7   1  -5  124.78    4.97
   7   1  -5  119.46    5.65
   7  -1  -5  124.77    5.30
   7  -1  -5  120.60    5.76
   7  -1  -5  117.97    5.62
  -7  -1   5  124.91    6.52
   7   1  -4   52.55    2.88
   7   1  -4   55.46    2.99
   7   1  -4   51.80    2.90
  -7   1   4   46.38    3.17
   7  -1  -4   50.91    2.89
  -7  -1   4   44.24    3.71
   7  -1  -4   54.17    3.36
   7  -1  -4   48.66    2.78
  -7   1   3   44.93    3.04
   7   1  -3   48.67    2.34
   7   1  -3   46.88    2.85
   7   1  -3   43.29    2.29
   7  -1  -3   40.49    2.11
   7  -1  -3   46.54    2.12
  -7  -1   3   37.77    3.09
  -7  -1   3   45.18    2.78
   7  -1  -3   43.01    3.00
   7   1  -2    3.44    1.22
   7   1  -2    5.35    0.72
   7   1  -2    4.59    1.37
   7   1  -2    3.38    0.63
  -7   1   2    5.43    1.46
   7   1  -2    3.17    0.61
  -7  -1   2    4.84    1.30
  -7  -1   2    1.89    1.42
   7  -1  -2    2.91    1.19
   7   1  -1    3.44    0.69
   7   1  -1    4.03    0.69
   7   1  -1    3.75    1.16
  -7   1   1    3.64    1.60
   7  -1  -1    3.75    1.38
  -7  -1   1    4.67    1.64
   7  -1  -1    2.28    1.07
  -7  -1   1    6.36    1.45
   7  -1  -1    3.35    0.50
   7   1   0   43.81    2.80
  -7   1   0   49.17    2.74
   7   1   0   47.35    2.49
  -7   1   0   46.16    1.96
   7   1   0   45.18    3.25
   7   1   0   46.93    2.45
  -7   1   0   45.98    3.25
  -7  -1   0   44.77    3.47
  -7  -1   0   49.59    2.69
   7  -1   0   46.00    2.27
   7  -1   0   44.17    3.10
  -7  -1   0   47.08    2.01
  -7  -1   0   45.58    3.49
   7  -1   0   42.28    2.73
   7  -1   0   43.12    2.28
  -7  -1   0   44.67    1.99
  -7  -1   0   47.39    2.23
   7  -1   0   49.24    2.17
  -7   1  -1  189.69    8.44
  -7   1  -1  194.18    7.17
  -7   1  -1  193.60    7.89
   7   1   1  182.74    8.28
  -7   1  -1  187.70    7.31
   7   1   1  191.55    7.64
   7   1   1  187.32    7.59
  -7  -1  -1  208.74    7.56
   7  -1   1  194.54    7.58
  -7  -1  -1  200.38    7.53
  -7  -1  -1  189.22    8.44
  -7  -1  -1  187.62    7.35
  -7  -1  -1  174.78    8.47
   7  -1   1  193.96    8.57
   7  -1   1  181.50    7.82
   7   1   2   66.52    3.85
  -7   1  -2   71.67    3.60
   7   1   2   67.37    3.55
  -7   1  -2   61.77    4.32
   7   1   2   66.20    4.52
   7   1   2   67.67    4.28
   7  -1   2   72.05    3.83
   7  -1   2   71.00    4.23
  -7  -1  -2   70.25    3.66
   7  -1   2   62.08    4.54
  -7  -1  -2   69.28    3.75
  -7  -1  -2   66.66    4.40
   7   1   3   10.71    2.09
  -7   1  -3   11.06    1.79
   7   1   3   10.67    2.16
  -7   1  -3   10.12    2.35
  -7   1  -3   14.15    2.15
  -7   1  -3   13.56    1.27
   7   1   3   12.97    2.71
  -7  -1  -3   18.90    2.40
   7  -1   3   13.18    2.35
  -7  -1  -3   15.55    2.27
   7  -1   3   18.65    2.39
  -7  -1  -3   18.05    2.94
   7  -1   3   12.41    2.80
  -7  -1  -3   16.01    2.33
  -7   1  -4    1.07    0.94
   7   1   4    2.99    1.54
  -7   1  -4    1.20    1.51
   7   1   4    5.22    1.99
  -7   1  -4   -0.81    1.43
  -7   1  -4    1.73    1.73
   7  -1   4    1.87    2.04
   7  -1   4    0.76    2.10
   7  -1   4    0.77    1.96
  -7  -1  -4    4.03    1.76
  -7  -1  -4    0.23    1.81
  -7  -1  -4   -0.90    1.50
  -7   1  -5    6.76    2.17
  -7   1  -5    7.86    2.27
   7   1   5    5.24    2.24
   7   1   5    5.45    2.23
  -7   1  -5    6.48    2.15
  -7  -1  -5    8.62    2.35
   7  -1   5    7.59    2.77
   7  -1   5    8.57    2.82
  -7  -1  -5    5.26    2.29
  -7  -1  -5    6.05    1.88
  -7   1  -6   17.26    3.10
  -7   1  -6   10.36    2.69
   7   1   6   12.18    2.98
  -7   1  -6   18.63    3.23
   7   1   6   12.88    3.17
  -7  -1  -6   18.32    3.07
  -7  -1  -6   21.02    3.39
   7  -1   6   21.07    3.94
   7  -1   6   18.69    3.78
  -7  -1  -6   15.13    3.00
   7   1   7   54.96    6.46
   7   1   7   55.36    6.05
  -7   1  -7   56.64    5.60
  -7   1  -7   51.98    6.01
   7  -1   7   57.35    6.61
  -7  -1  -7   59.83    6.04
   7  -1   7   58.38    6.49
  -7  -1  -7   57.85    5.81
   7   1   8   26.16    5.35
   7   1   8   14.01    3.86
  -7   1  -8   15.92    3.76
   7  -1   8   24.34    4.56
   7  -1   8   25.61    4.85
  -7  -1  -8   20.22    3.95
  -7   1  -9    1.26    2.69
   7   1   9    2.68    2.59
   7  -1   9   -2.76    2.47
  -7  -1  -9    6.49    3.18
   7   2 -10    6.92    3.14
   7   2 -10   14.94    3.66
   7   2 -10    9.07    2.88
   7  -2 -10    5.69    2.83
   7   2  -9    6.32    2.61
   7   2  -9   11.54    2.85
   7  -2  -9    4.44    2.22
   7  -2  -9   10.74    2.99
   7   2  -8    4.56    1.95
   7   2  -8    0.04    1.59
   7  -2  -8    6.20    2.20
  -7  -2   8    2.63    2.33
   7  -2  -8    2.06    1.81
   7   2  -7    0.35    1.39
   7   2  -7    0.00    1.58
   7  -2  -7    0.74    1.36
   7  -2  -7   -0.07    1.59
  -7  -2   7   -0.21    1.63
   7   2  -6   12.71    2.24
   7   2  -6    7.55    1.81
   7  -2  -6    9.45    1.98
  -7  -2   6   12.30    2.79
   7  -2  -6   10.37    2.11
   7   2  -5    4.31    1.50
   7   2  -5    2.44    1.22
  -7  -2   5    0.67    0.81
   7  -2  -5    0.96    1.12
  -7  -2   5    0.66    1.77
  -7  -2   5   -0.35    0.65
   7  -2  -5    2.43    1.27
   7   2  -4    1.98    1.03
   7   2  -4    2.22    1.07
   7   2  -4   -0.20    1.16
  -7  -2   4    1.04    0.92
   7  -2  -4    3.41    1.16
  -7  -2   4    0.65    0.57
   7  -2  -4    1.02    0.95
  -7  -2   4    2.19    0.79
  -7  -2   4    0.87    1.28
   7  -2  -4    1.68    0.68
   7  -2  -4    1.80    0.94
   7   2  -3    3.31    0.96
   7   2  -3    3.53    1.47
   7   2  -3    2.51    0.95
   7   2  -3    2.55    1.20
  -7  -2   3    3.77    1.24
  -7  -2   3    2.47    1.48
   7  -2  -3    1.78    0.82
  -7  -2   3    2.57    0.65
   7  -2  -3    1.82    0.83
   7  -2  -3    2.63    1.12
   7  -2  -3    1.86    0.91
   7   2  -2   10.82    1.33
   7   2  -2    8.65    1.17
   7   2  -2   11.54    1.85
   7   2  -2   11.39    1.32
   7  -2  -2    8.24    1.02
  -7  -2   2    6.22    1.56
   7  -2  -2   10.47    1.58
  -7  -2   2   10.98    0.98
   7  -2  -2    9.77    1.64
  -7  -2   2    9.45    1.90
   7   2  -1   17.85    1.65
   7   2  -1   17.00    2.25
   7   2  -1   18.60    1.67
   7   2  -1   17.81    2.15
   7  -2  -1   17.58    1.35
  -7  -2   1   14.37    2.08
  -7  -2   1   15.72    1.15
  -7  -2   1   17.75    2.38
   7  -2  -1   17.53    2.15
   7  -2  -1   18.16    1.58
  -7  -2   1   17.82    1.27
  -7  -2   1   18.00    1.08
   7   2   0  129.35    6.05
   7   2   0  134.01    5.55
   7   2   0  122.02    6.28
   7  -2   0  132.55    4.92
  -7  -2   0  136.59    5.33
   7  -2   0  121.48    5.29
  -7  -2   0  128.59    6.55
   7  -2   0  129.53    5.32
   7  -2   0  129.13    6.32
   7  -2   0  137.13    5.32
  -7  -2   0  129.57    5.21
  -7  -2   0  113.80    6.33
  -7  -2   0  132.77    5.18
  -7   2  -1    3.95    1.18
   7   2   1    4.43    1.69
  -7   2  -1    1.31    0.81
   7   2   1    2.29    1.08
   7   2   1    1.48    1.26
  -7   2  -1    2.30    0.90
  -7   2  -1   -0.05    1.49
  -7  -2  -1    2.59    1.04
   7  -2   1    2.26    0.95
  -7  -2  -1    3.84    1.34
  -7  -2  -1    2.45    1.45
   7  -2   1    4.06    1.88
   7  -2   1    1.80    1.21
   7   2   2    4.18    1.50
  -7   2  -2    2.56    1.27
   7   2   2    4.01    1.62
  -7   2  -2    3.44    1.93
   7   2   2    4.34    1.50
  -7  -2  -2    4.39    1.52
   7  -2   2    3.07    1.70
   7  -2   2    3.01    1.63
  -7  -2  -2    1.77    1.12
   7  -2   2    2.26    0.97
  -7  -2  -2    4.59    1.86
  -7   2  -3    2.65    1.80
   7   2   3    2.91    1.57
   7   2   3    3.43    1.90
  -7   2  -3    0.98    1.31
  -7   2  -3    1.12    1.30
   7   2   3    0.85    1.29
  -7   2  -3    1.06    0.41
   7   2   3    2.25    2.07
   7  -2   3    0.20    1.71
  -7  -2  -3   -1.37    1.80
  -7  -2  -3    1.18    1.50
   7  -2   3    2.67    1.81
   7  -2   3    0.68    1.08
  -7  -2  -3   -2.18    1.15
   7   2   4   31.61    4.05
  -7   2  -4   40.84    3.81
   7   2   4   41.79    4.25
  -7   2  -4   38.90    4.13
  -7   2  -4   37.73    3.81
  -7  -2  -4   35.24    3.78
  -7  -2  -4   39.92    4.35
   7  -2   4   36.69    4.19
  -7  -2  -4   44.95    4.16
   7  -2   4   41.15    4.79
   7   2   5    0.02    1.63
   7   2   5   -0.27    1.08
  -7   2  -5    3.57    2.00
  -7   2  -5    0.27    1.63
  -7   2  -5   -0.67    1.49
  -7  -2  -5    1.69    2.29
   7  -2   5    2.94    1.88
  -7  -2  -5    0.76    1.57
  -7  -2  -5    2.91    1.62
   7  -2   5    1.76    2.53
  -7   2  -6   23.74    3.49
  -7   2  -6   27.28    3.89
  -7   2  -6   27.26    3.76
   7   2   6   27.63    4.03
   7   2   6   26.72    4.50
  -7  -2  -6   25.40    3.70
  -7  -2  -6   29.54    4.35
   7  -2   6   30.46    4.38
  -7  -2  -6   28.13    4.02
   7  -2   6   28.62    4.40
   7   2   7   19.76    4.35
   7   2   7   18.50    3.60
  -7   2  -7    9.38    2.74
  -7  -2  -7   10.52    3.16
   7  -2   7   14.79    4.00
  -7  -2  -7   14.04    3.28
   7   2   8   -1.53    2.65
  -7   2  -8    0.21    2.41
   7  -2   8    1.97    2.75
  -7  -2  -8   -1.35    2.03
   7   2   9    7.55    3.31
  -7   2  -9    2.27    2.65
  -7  -2  -9    8.68    3.13
   7  -2   9    5.76    3.74
   7   3  -9   10.81    3.04
   7   3  -9   12.14    3.01
   7   3  -9   17.79    3.88
  -7  -3   9   14.64    3.61
   7  -3  -9   11.36    3.15
   7  -3  -9    7.66    2.63
   7   3  -8   -0.17    1.67
   7   3  -8    2.25    2.18
   7   3  -8    0.58    1.62
  -7  -3   8    1.82    2.04
   7  -3  -8    0.71    1.73
   7  -3  -8    2.97    1.93
   7   3  -7   10.75    2.94
   7   3  -7    6.48    2.02
   7   3  -7    3.42    1.73
   7  -3  -7   12.07    2.61
   7  -3  -7   11.13    2.37
  -7  -3   7    8.25    2.67
  -7  -3   7    5.65    1.53
   7   3  -6    0.59    1.48
   7   3  -6    1.20    1.42
   7   3  -6   -1.46    1.02
  -7  -3   6    1.72    1.16
   7  -3  -6    0.22    1.22
  -7  -3   6   -1.57    1.73
   7  -3  -6    1.69    1.54
   7   3  -5   -0.49    1.01
   7   3  -5   -0.24    1.17
   7   3  -5    0.69    1.37
  -7  -3   5    0.10    1.38
   7  -3  -5    0.46    1.20
  -7  -3   5    0.06    0.51
  -7  -3   5    0.04    0.99
  -7  -3   5    2.05    1.09
   7  -3  -5    0.33    1.18
  -7  -3   5   -0.29    1.44
   7   3  -4   18.89    2.32
   7   3  -4   15.37    2.67
   7   3  -4   19.24    2.22
   7  -3  -4   17.21    2.06
  -7  -3   4   22.22    2.14
   7  -3  -4   18.96    1.84
  -7  -3   4   17.12    1.74
  -7  -3   4   22.30    1.96
  -7  -3   4   17.29    2.98
  -7  -3   4   19.33    2.04
   7  -3  -4   18.54    2.26
   7  -3  -4   18.20    0.90
   7   3  -3   21.00    2.24
   7   3  -3   19.30    2.94
   7   3  -3   23.75    2.31
   7  -3  -3   24.39    2.31
  -7  -3   3   20.63    2.43
   7  -3  -3   23.37    2.11
  -7  -3   3   22.03    2.00
  -7  -3   3   22.69    1.68
  -7  -3   3   22.87    1.82
   7  -3  -3   24.58    2.29
   7  -3  -3   22.16    2.11
   7  -3  -3   21.31    1.94
  -7  -3   3   19.63    3.25
   7   3  -2   -0.42    0.98
   7   3  -2   -0.92    1.49
  -7  -3   2    0.59    0.76
   7  -3  -2    0.13    0.96
   7  -3  -2    1.04    0.88
  -7  -3   2   -1.26    1.16
   7  -3  -2    0.84    0.66
  -7  -3   2    2.28    0.98
  -7  -3   2    2.27    1.61
  -7  -3   2    1.53    0.70
   7   3  -1   -1.16    1.32
   7   3  -1   -1.00    0.72
   7   3  -1    0.00    1.03
   7  -3  -1   -0.25    1.19
  -7  -3   1    0.70    1.66
   7  -3  -1    0.85    0.89
   7  -3  -1    0.10    0.45
  -7  -3   1    0.10    0.67
  -7  -3   1    0.04    0.84
   7  -3  -1    1.46    0.79
  -7  -3   1    1.31    1.13
  -7  -3   1    0.35    0.81
   7   3   0   21.44    2.84
   7   3   0   22.13    2.25
   7   3   0   22.09    2.84
   7  -3   0   23.75    2.25
  -7  -3   0   20.88    2.77
   7  -3   0   28.18    1.87
  -7  -3   0   26.16    2.35
  -7  -3   0   31.41    2.51
  -7  -3   0   22.34    2.92
  -7  -3   0   25.28    2.33
   7  -3   0   22.47    2.87
   7  -3   0   25.18    1.66
   7   3   1   -0.19    1.55
  -7   3  -1   -0.45    0.73
   7   3   1    1.39    1.06
   7   3   1   -0.29    1.08
  -7   3  -1   -0.20    0.83
  -7   3  -1    0.98    0.92
   7  -3   1   -0.26    0.33
   7  -3   1    0.25    0.98
   7  -3   1    0.48    1.43
  -7  -3  -1    0.16    1.20
   7  -3   1    2.05    1.12
  -7  -3  -1   -0.63    1.18
  -7  -3  -1    1.02    1.98
   7   3   2  107.98    6.00
   7   3   2  104.59    6.30
  -7   3  -2  107.64    5.26
   7   3   2  117.46    5.82
   7  -3   2  112.20    5.51
   7  -3   2  114.21    5.68
   7  -3   2  111.36    6.75
  -7  -3  -2  111.62    6.15
  -7  -3  -2  118.14    5.64
  -7  -3  -2  106.70    5.63
  -7  -3  -2  108.95    6.41
   7   3   3    3.76    1.84
   7   3   3    0.79    1.26
  -7   3  -3    1.86    1.37
  -7   3  -3    1.45    1.07
   7   3   3    3.33    1.41
   7  -3   3    0.80    1.06
  -7  -3  -3    2.88    1.41
  -7  -3  -3    3.95    1.97
   7  -3   3    1.27    1.65
   7  -3   3    2.71    1.92
  -7  -3  -3    2.40    1.55
  -7   3  -4    7.83    2.02
  -7   3  -4    4.55    0.95
   7   3   4    4.78    1.95
  -7   3  -4    5.02    1.94
   7   3   4    5.04    2.56
   7  -3   4    8.88    3.05
  -7  -3  -4    4.34    2.01
   7  -3   4    4.51    2.25
  -7  -3  -4    6.92    2.24
  -7  -3  -4    0.27    2.12
  -7   3  -5    0.26    0.84
   7   3   5    2.14    1.60
   7   3   5    2.29    2.49
  -7   3  -5    2.02    1.82
  -7   3  -5   -0.29    1.51
  -7  -3  -5    2.90    1.62
   7  -3   5   -1.05    2.48
  -7  -3  -5    0.82    1.83
  -7  -3  -5    0.81    1.65
   7  -3   5    3.23    2.33
  -7   3  -6    8.46    2.35
   7   3   6   13.66    3.33
   7   3   6   10.18    2.73
  -7  -3  -6    7.12    2.80
   7  -3   6    8.13    3.51
  -7  -3  -6   11.70    3.28
  -7  -3  -6   13.78    3.01
   7   3   7    4.35    2.28
  -7   3  -7   -1.58    2.05
   7   3   7    3.38    3.04
  -7  -3  -7    7.37    3.15
   7  -3   7   -2.93    2.58
  -7  -3  -7    1.86    2.44
   7   3   8   17.67    4.27
  -7   3  -8   13.93    3.62
   7  -3   8    5.65    2.94
  -7  -3  -8   14.33    3.77
   7   4  -9   16.48    4.05
   7   4  -9   12.48    3.33
   7   4  -9    8.55    2.87
   7  -4  -9    6.58    2.84
  -7  -4   9    7.54    3.37
   7  -4  -9    9.39    2.62
   7   4  -8    3.25    2.11
   7   4  -8    3.71    2.10
   7   4  -8    1.36    2.56
  -7  -4   8    2.46    2.52
   7  -4  -8   -0.83    1.95
   7  -4  -8    3.28    2.00
   7   4  -7   34.65    4.25
   7   4  -7   37.78    4.92
   7   4  -7   33.89    4.00
  -7  -4   7   38.76    3.51
  -7  -4   7   38.57    5.30
   7  -4  -7   37.40    4.07
   7  -4  -7   34.67    4.40
   7   4  -6   15.09    2.67
   7   4  -6   20.24    3.01
   7   4  -6   15.66    3.37
  -7  -4   6   16.38    2.33
  -7  -4   6   16.54    3.69
   7  -4  -6   19.60    2.97
   7  -4  -6    9.59    2.22
   7   4  -5   26.35    3.74
   7   4  -5   28.25    3.14
   7   4  -5   30.63    3.40
  -7  -4   5   28.87    2.01
   7  -4  -5   31.75    3.24
   7  -4  -5   31.85    3.44
  -7  -4   5   28.67    4.04
  -7  -4   5   34.43    3.05
   7   4  -4    4.61    1.92
   7   4  -4    1.94    1.46
   7   4  -4    2.94    1.39
   7  -4  -4    3.64    1.41
  -7  -4   4    3.16    1.25
   7  -4  -4    3.48    0.98
   7  -4  -4    3.80    1.51
  -7  -4   4   -0.01    1.62
  -7  -4   4    3.22    1.39
  -7  -4   4    3.31    1.39
   7  -4  -4    3.73    1.41
  -7  -4   4    8.37    1.60
   7   4  -3   39.56    3.03
   7   4  -3   35.71    3.21
   7   4  -3   29.42    3.60
  -7  -4   3   40.21    2.83
  -7  -4   3   33.72    2.49
   7  -4  -3   36.06    2.15
   7  -4  -3   36.17    3.10
  -7  -4   3   35.37    2.65
   7  -4  -3   34.47    2.47
  -7  -4   3   27.56    4.07
   7  -4  -3   41.06    2.89
  -7  -4   3   38.61    3.08
   7  -4  -3   37.31    2.64
   7   4  -2    0.09    1.81
   7  -4  -2    0.38    1.36
   7  -4  -2   -0.17    0.91
  -7  -4   2   -2.32    0.85
  -7  -4   2   -0.04    1.53
  -7  -4   2   -0.28    0.93
  -7  -4   2    0.17    0.84
  -7  -4   2    1.10    2.16
   7  -4  -2   -1.44    1.01
   7   4  -1  105.31    5.37
   7   4  -1  102.15    6.25
   7   4  -1  100.86    5.76
  -7  -4   1  116.00    5.07
  -7  -4   1  105.61    6.51
   7  -4  -1  109.41    5.76
  -7  -4   1  108.90    5.19
   7  -4  -1  107.33    5.19
  -7  -4   1  103.33    6.13
  -7  -4   1  108.24    5.27
   7   4   0    5.25    1.58
   7   4   0    6.49    1.93
   7   4   0    6.94    1.88
  -7  -4   0    5.01    2.39
   7  -4   0    7.28    1.49
   7  -4   0    5.63    1.46
  -7  -4   0    4.44    1.47
  -7  -4   0    3.40    1.62
   7  -4   0    6.27    1.86
   7   4   1   53.26    4.05
   7   4   1   54.36    4.33
   7   4   1   51.04    3.55
  -7   4  -1   52.44    2.76
   7  -4   1   45.47    4.57
   7  -4   1   54.95    2.77
   7  -4   1   53.13    3.63
  -7  -4  -1   51.34    3.60
  -7  -4  -1   48.05    4.15
  -7  -4  -1   58.64    3.77
  -7  -4  -1   55.61    4.50
  -7   4  -2   -0.09    0.90
  -7   4  -2    0.05    1.26
   7   4   2   -0.18    1.25
  -7   4  -2    0.02    0.57
   7   4   2   -1.53    1.03
   7   4   2    1.83    1.52
  -7  -4  -2    0.59    1.57
   7  -4   2    0.27    1.27
   7  -4   2   -1.08    1.48
  -7  -4  -2    1.03    1.53
  -7  -4  -2   -0.26    1.25
  -7  -4  -2   -1.51    2.10
  -7   4  -3   23.57    2.87
  -7   4  -3   21.04    1.59
  -7   4  -3   24.04    2.85
   7   4   3   22.52    3.41
   7   4   3   23.74    3.51
  -7  -4  -3   22.74    4.11
  -7  -4  -3   23.13    3.26
  -7  -4  -3   28.77    3.40
   7  -4   3   22.27    3.10
   7  -4   3   18.86    3.82
  -7  -4  -3   28.44    3.44
  -7   4  -4    3.08    1.77
  -7   4  -4   -0.53    0.81
   7   4   4   -3.51    1.87
  -7   4  -4   -0.17    1.49
   7   4   4   -0.40    1.25
  -7  -4  -4    2.36    2.03
   7  -4   4   -0.25    1.76
  -7  -4  -4    1.98    2.36
  -7  -4  -4   -0.65    1.61
   7   4   5   12.78    3.58
   7   4   5   19.63    3.19
  -7   4  -5   17.69    3.99
  -7   4  -5   25.29    3.50
   7  -4   5   23.74    4.67
  -7  -4  -5   20.17    3.33
  -7  -4  -5   22.37    4.24
  -7  -4  -5   21.21    3.51
   7   4   6   -0.82    1.60
   7   4   6    0.01    1.79
  -7   4  -6   -3.27    1.64
   7  -4   6    1.00    2.28
  -7  -4  -6    4.67    2.49
  -7  -4  -6   -3.48    2.16
  -7   4  -7    1.85    2.30
   7   4   7   -1.31    2.39
  -7  -4  -7    0.54    2.39
   7  -4   7    0.89    2.39
  -7  -4  -7   -2.53    2.16
  -7   4  -8    0.92    1.90
   7   4   8    2.31    3.16
  -7  -4  -8    1.49    2.75
   7  -4   8    4.56    3.56
  -7  -4  -8    9.49    4.16
   7   5  -9    3.47    2.70
   7   5  -9    1.87    2.03
   7   5  -9    0.67    2.02
   7  -5  -9   -0.94    1.94
  -7  -5   9    3.50    2.85
   7   5  -8   23.82    4.34
   7   5  -8   13.41    3.26
   7   5  -8   18.29    3.51
   7  -5  -8   19.77    3.96
  -7  -5   8   25.76    4.62
   7  -5  -8   21.75    3.70
   7   5  -7    2.58    2.62
   7   5  -7    5.36    2.16
   7   5  -7    3.97    2.09
  -7  -5   7    0.90    2.77
   7  -5  -7    2.80    1.90
  -7  -5   7    4.27    1.86
   7  -5  -7    9.15    2.65
   7   5  -6   20.88    3.27
   7   5  -6   29.17    3.82
   7   5  -6   28.72    4.52
  -7  -5   6   28.72    3.29
   7  -5  -6   29.35    3.84
  -7  -5   6   29.66    4.85
   7  -5  -6   26.86    3.44
   7   5  -5   15.48    3.39
   7   5  -5   12.32    2.47
   7   5  -5   13.55    2.60
  -7  -5   5   15.75    2.49
   7  -5  -5   16.97    2.83
  -7  -5   5   13.34    1.88
   7  -5  -5   10.69    2.32
  -7  -5   5   12.95    3.56
   7   5  -4    4.41    2.50
   7   5  -4    5.32    1.54
   7   5  -4    4.51    1.76
  -7  -5   4    7.46    1.93
   7  -5  -4    4.55    1.66
  -7  -5   4    5.96    2.74
   7  -5  -4   10.27    2.16
  -7  -5   4    5.70    1.63
   7   5  -3    1.39    1.22
   7   5  -3    2.01    2.28
  -7  -5   3    3.64    1.88
   7  -5  -3    5.94    1.65
   7  -5  -3    3.11    1.38
  -7  -5   3    3.92    2.60
  -7  -5   3    4.86    1.70
   7  -5  -3    6.40    1.90
  -7  -5   3    2.68    1.38
   7   5  -2   14.41    2.88
  -7  -5   2   10.62    2.55
  -7  -5   2   14.51    2.31
   7  -5  -2   14.27    2.15
   7  -5  -2   14.28    2.23
   7  -5  -2   16.24    2.21
   7  -5  -2   12.36    2.16
  -7  -5   2   11.91    3.18
   7   5  -1    5.93    2.24
   7   5  -1   10.45    2.46
  -7  -5   1    5.63    2.25
  -7  -5   1    6.73    2.12
   7  -5  -1    6.22    1.68
   7  -5  -1    9.15    2.35
  -7  -5   1    3.84    1.63
   7  -5  -1    8.60    1.77
   7   5   0    4.87    1.76
   7   5   0    3.33    1.61
   7   5   0    3.71    1.93
  -7  -5   0    5.96    2.41
  -7  -5   0    4.87    1.75
  -7  -5   0    7.75    1.80
   7  -5   0    4.90    2.26
   7  -5   0    6.56    1.71
  -7  -5   0    5.48    2.57
   7   5   1   29.76    3.37
  -7   5  -1   25.75    1.66
   7   5   1   21.47    3.35
  -7   5  -1   20.70    2.20
   7   5   1   27.35    3.69
  -7  -5  -1   18.06    3.15
  -7  -5  -1   20.46    3.81
   7  -5   1   27.61    2.26
   7  -5   1   29.39    3.16
  -7  -5  -1   23.94    3.01
  -7  -5  -1   26.75    3.08
   7  -5   1   28.27    4.13
  -7   5  -2   23.26    2.07
   7   5   2   23.19    3.68
   7   5   2   26.37    3.58
  -7   5  -2   21.66    2.80
  -7   5  -2   26.59    3.02
  -7  -5  -2   17.53    3.91
  -7  -5  -2   24.04    3.47
   7  -5   2   22.14    4.00
  -7  -5  -2   25.34    3.31
  -7  -5  -2   28.65    3.33
  -7   5  -3   24.59    2.04
  -7   5  -3   24.45    3.10
  -7   5  -3   18.03    2.71
   7   5   3   28.50    4.24
   7   5   3   24.00    3.56
  -7  -5  -3   27.37    3.54
  -7  -5  -3   17.78    3.98
  -7  -5  -3   29.26    3.51
   7  -5   3   21.64    3.85
  -7  -5  -3   21.08    3.12
  -7   5  -4   23.34    3.31
   7   5   4   18.44    3.51
   7   5   4   26.70    4.07
   7  -5   4   20.76    3.94
  -7  -5  -4   19.62    3.78
  -7  -5  -4   21.69    3.33
  -7  -5  -4   26.85    3.85
   7   5   5    2.28    1.87
   7   5   5   -1.82    1.48
  -7   5  -5    0.61    1.80
  -7  -5  -5    0.42    2.60
  -7  -5  -5    2.02    2.08
   7  -5   5    1.04    2.13
  -7  -5  -5    0.58    2.14
   7   5   6   -3.35    2.27
  -7   5  -6    0.30    1.91
   7   5   6    0.97    1.55
  -7  -5  -6    1.67    2.85
  -7  -5  -6    3.24    2.04
   7  -5   6    0.16    3.08
   7   5   7    1.53    2.32
  -7   5  -7    0.94    2.33
  -7  -5  -7    2.52    2.71
  -7  -5  -7    2.27    3.06
   7  -5   7   -0.57    2.17
   7   5   8   -1.63    1.67
  -7   5  -8    0.22    2.34
  -7  -5  -8   -0.15    2.35
  -7  -5  -8    4.80    3.39
   7  -5   8   -2.50    3.06
   7   6  -8   12.85    3.44
   7   6  -8   16.87    4.09
   7   6  -8   19.81    3.90
   7  -6  -8   18.17    3.79
  -7  -6   8   24.31    4.99
   7  -6  -8   18.03    4.07
   7   6  -7    3.86    2.29
   7   6  -7    7.13    3.31
   7   6  -7    3.61    2.26
  -7  -6   7    5.82    3.36
  -7  -6   7    3.36    2.11
   7  -6  -7    2.80    2.22
   7  -6  -7    5.19    2.52
   7   6  -6   53.58    5.29
   7   6  -6   62.81    5.86
   7   6  -6   61.88    6.75
  -7  -6   6   53.67    6.66
   7  -6  -6   54.54    5.31
   7  -6  -6   61.70    5.86
  -7  -6   6   56.15    4.39
   7   6  -5    6.02    2.25
   7   6  -5    4.49    2.39
   7   6  -5   10.51    2.46
  -7  -6   5    2.93    2.88
   7  -6  -5    6.35    2.25
  -7  -6   5    6.89    2.04
   7  -6  -5    8.21    2.15
   7   6  -4   10.36    2.37
   7   6  -4    7.43    2.26
   7   6  -4    3.96    2.21
  -7  -6   4    9.82    2.90
   7  -6  -4   11.68    2.66
  -7  -6   4   10.18    2.22
  -7  -6   4    4.99    1.78
   7  -6  -4    4.42    1.86
   7   6  -3   20.21    3.52
  -7  -6   3   21.92    4.14
   7  -6  -3   27.09    2.85
   7  -6  -3   22.66    3.17
   7  -6  -3   21.91    2.92
  -7  -6   3   24.80    2.98
  -7  -6   3   23.15    3.39
   7   6  -2   21.21    3.66
   7  -6  -2   19.06    2.82
  -7  -6   2   15.70    3.12
  -7  -6   2   19.63    3.53
  -7  -6   2   14.72    2.54
   7  -6  -2   19.39    2.78
   7  -6  -2   22.54    2.97
   7   6  -1   23.58    4.00
   7   6  -1   28.88    3.63
   7  -6  -1   26.75    3.31
  -7  -6   1   26.46    3.16
   7  -6  -1   26.94    3.60
   7  -6  -1   24.33    3.05
  -7  -6   1   20.63    3.82
  -7  -6   1   19.25    3.58
  -7  -6   1   26.51    3.24
   7   6   0   23.68    3.35
   7   6   0   21.34    3.76
  -7  -6   0   20.10    3.76
  -7  -6   0   20.05    2.92
   7  -6   0   21.49    3.61
  -7  -6   0   29.83    3.39
  -7  -6   0   19.24    3.47
   7   6   1    8.76    2.29
  -7   6  -1    5.59    1.53
   7   6   1    9.50    2.60
  -7  -6  -1    7.96    3.12
  -7  -6  -1    8.27    2.34
  -7  -6  -1    4.76    2.35
   7  -6   1    8.19    2.91
  -7  -6  -1    6.45    2.12
   7   6   2    7.27    2.79
   7   6   2    3.82    1.84
  -7   6  -2    5.57    1.43
  -7  -6  -2    9.38    2.50
  -7  -6  -2    2.59    1.57
  -7  -6  -2    2.68    1.68
  -7  -6  -2    0.87    2.07
   7  -6   2    4.59    2.43
  -7   6  -3   21.98    3.17
   7   6   3   25.15    4.16
   7   6   3   23.11    3.68
  -7   6  -3   22.96    2.37
  -7  -6  -3   21.58    3.33
  -7  -6  -3   25.39    3.63
   7  -6   3   16.54    4.05
  -7  -6  -3   21.43    3.34
  -7  -6  -3   20.17    3.99
   7   6   4   53.74    5.82
   7   6   4   45.00    5.35
  -7   6  -4   44.36    4.60
   7  -6   4   41.16    5.63
  -7  -6  -4   43.95    6.11
  -7  -6  -4   46.93    5.09
   7   6   5   16.79    3.96
  -7   6  -5   16.93    3.02
   7   6   5   26.28    3.83
   7  -6   5   10.88    4.10
  -7  -6  -5   29.88    4.53
  -7  -6  -5   14.25    4.24
   7   6   6   22.06    4.54
  -7   6  -6   17.54    3.80
   7  -6   6   15.48    4.25
  -7  -6  -6   22.85    4.33
  -7  -6  -6   26.55    4.97
   7   6   7    0.79    2.88
  -7   6  -7    2.64    2.70
  -7  -6  -7   10.98    4.03
   7  -6   7    1.15    2.51
  -7  -6  -7    1.28    2.15
   7   7  -8   -0.38    2.10
   7   7  -8    4.97    3.46
  -7  -7   8    6.48    3.86
   7  -7  -8    4.82    2.55
   7   7  -7   12.93    3.41
   7   7  -7    7.89    2.93
   7   7  -7   11.20    3.60
   7  -7  -7   13.39    3.66
  -7  -7   7   11.45    2.66
   7  -7  -7   10.50    3.03
  -7  -7   7    9.19    4.20
   7   7  -6   -0.60    1.89
   7   7  -6    1.45    2.29
   7   7  -6    6.08    2.62
   7  -7  -6    1.95    1.99
  -7  -7   6    1.58    1.84
   7  -7  -6    2.71    2.36
  -7  -7   6    6.14    3.45
   7   7  -5   11.75    2.95
   7   7  -5   10.56    3.61
   7   7  -5   14.58    2.97
   7  -7  -5   15.93    3.22
  -7  -7   5    6.68    3.24
   7  -7  -5   13.64    3.18
  -7  -7   5   17.97    3.09
   7   7  -4    4.71    3.06
  -7  -7   4    2.51    2.20
   7  -7  -4    3.47    1.95
  -7  -7   4    2.82    1.89
   7  -7  -4    0.09    1.71
  -7  -7   4    1.16    2.74
   7   7  -3    3.78    2.75
  -7  -7   3    1.58    1.89
   7  -7  -3    2.45    1.74
  -7  -7   3   -0.25    2.11
   7  -7  -3    2.61    2.02
  -7  -7   3    3.89    3.00
   7   7  -2    2.23    1.81
   7   7  -2    1.96    2.59
  -7  -7   2    0.10    1.71
   7  -7  -2   -3.05    1.57
   7  -7  -2   -3.03    1.13
   7  -7  -2   -0.13    1.53
  -7  -7   2   -0.72    1.82
  -7  -7   2   -0.09    2.20
   7   7  -1    4.13    2.34
   7   7  -1    2.81    1.97
   7  -7  -1    5.83    2.13
  -7  -7   1    7.62    3.06
  -7  -7   1    8.84    3.14
  -7  -7   1    9.74    2.54
   7  -7  -1    8.49    2.54
   7  -7  -1    7.21    2.17
   7   7   0    2.31    2.70
   7   7   0   -0.65    1.65
  -7  -7   0   -4.68    2.25
   7  -7   0    2.01    2.33
   7  -7   0    0.18    1.16
  -7  -7   0    4.10    1.99
  -7  -7   0   -0.90    1.53
   7   7   1   -1.20    2.22
  -7   7  -1    0.81    1.26
   7   7   1   -0.67    1.57
   7  -7   1   -1.49    1.71
  -7  -7  -1    0.06    2.07
  -7  -7  -1   -1.86    2.38
  -7  -7  -1    2.31    1.94
   7   7   2   19.12    3.63
   7   7   2   22.07    3.92
  -7   7  -2   16.08    2.44
  -7  -7  -2   16.22    3.31
  -7  -7  -2   10.30    3.84
   7  -7   2   17.85    4.16
  -7  -7  -2   20.76    3.45
   7   7   3    5.62    2.27
   7   7   3    2.61    2.12
  -7  -7  -3   -0.79    1.96
   7  -7   3    2.50    2.98
  -7  -7  -3    0.90    2.96
  -7  -7  -3    0.69    2.05
   7   7   4    0.91    1.94
  -7   7  -4    0.92    1.76
   7   7   4    0.64    1.77
   7  -7   4   -3.97    2.68
  -7  -7  -4   -1.61    3.08
  -7  -7  -4   -2.92    1.85
  -7   7  -5    0.37    2.00
   7   7   5   -2.36    2.17
  -7  -7  -5   -2.43    3.21
   7  -7   5   -6.30    2.62
  -7  -7  -5    1.64    2.55
   7   7   6    1.83    2.79
  -7   7  -6    3.60    2.70
   7  -7   6    6.10    3.51
  -7  -7  -6    7.69    3.26
  -7  -7  -6    3.72    3.54
   7   8  -7   -0.14    2.40
   7   8  -7    4.51    2.83
   7   8  -7    6.33    3.14
  -7  -8   7    1.58    3.17
   7  -8  -7    9.77    3.63
   7  -8  -7    4.48    2.72
   7   8  -6   12.16    3.71
   7   8  -6   18.41    3.87
  -7  -8   6   19.89    3.72
  -7  -8   6   18.19    4.54
   7  -8  -6   24.14    4.70
   7  -8  -6   17.57    3.85
   7   8  -5   11.64    4.10
   7  -8  -5    6.28    2.56
  -7  -8   5    7.18    2.47
  -7  -8   5   11.61    4.01
   7  -8  -5   12.79    3.42
   7   8  -4   -3.70    2.19
  -7  -8   4   -0.97    2.14
   7  -8  -4    1.00    1.72
  -7  -8   4    2.11    2.41
  -7  -8   4    0.77    1.92
   7  -8  -4   -0.40    1.48
   7   8  -3   -1.11    2.67
   7  -8  -3    1.35    1.84
  -7  -8   3   -1.07    1.83
   7  -8  -3    1.51    1.88
  -7  -8   3    1.87    2.16
  -7  -8   3   -2.35    2.16
   7   8  -2   20.68    4.04
   7   8  -2   16.45    3.38
   7  -8  -2   23.17    3.62
   7  -8  -2   24.59    3.85
  -7  -8   2   22.13    4.23
  -7  -8   2   21.76    3.50
  -7  -8   2   28.93    5.08
   7  -8  -2   22.11    3.46
   7   8  -1    9.59    3.01
   7   8  -1   13.62    3.06
   7  -8  -1    7.95    2.46
  -7  -8   1   10.20    3.57
   7  -8  -1   11.03    2.85
  -7  -8   1    4.96    3.07
   7  -8  -1    7.28    2.86
  -7  -8   1   14.75    3.02
   7   8   0   35.37    5.08
   7   8   0   42.78    4.98
   7  -8   0   47.74    5.13
   7  -8   0   38.29    4.63
  -7  -8   0   35.03    4.48
   7  -8   0   48.09    5.57
  -7  -8   0   44.72    5.57
  -7  -8   0   41.74    5.88
  -7   8  -1    1.34    1.57
   7   8   1   -0.71    1.32
   7   8   1   -2.01    2.23
   7  -8   1   -0.65    1.75
   7  -8   1    0.89    2.52
  -7  -8  -1   -1.38    1.96
  -7  -8  -1    0.15    2.97
  -7  -8  -1   -0.26    2.16
   7   8   2    2.29    2.33
   7   8   2    0.59    2.01
  -7  -8  -2    2.57    2.18
  -7  -8  -2    1.76    2.20
   7  -8   2   -1.13    2.81
  -7  -8  -2   -2.58    1.96
   7   8   3    0.62    2.31
   7   8   3    6.40    3.31
   7  -8   3    5.51    3.50
  -7  -8  -3    3.23    2.44
  -7  -8  -3    5.96    3.29
  -7  -8  -3    4.53    2.20
   7   8   4   -1.57    2.30
   7   8   4    9.77    3.19
   7  -8   4    3.87    3.90
  -7  -8  -4    7.40    3.21
  -7  -8  -4    0.22    3.60
   7   8   5    5.86    3.35
  -7   8  -5   12.21    3.44
   7  -8   5    9.68    4.71
  -7  -8  -5    6.69    4.33
  -7  -8  -5   -1.15    2.46
   7   8   6    2.29    3.05
  -7  -9   6    1.26    3.38
   7   9  -5   10.62    4.37
  -7  -9   5    6.01    3.23
   7  -9  -5    8.20    3.16
   7  -9  -5    8.35    3.06
  -7  -9   5    9.79    3.00
   7   9  -4    1.25    2.59
   7  -9  -4   -1.28    2.09
  -7  -9   4    6.29    2.42
  -7  -9   4    5.91    3.50
   7  -9  -4    7.81    2.82
   7   9  -3   14.39    3.96
   7   9  -3   20.13    3.75
   7  -9  -3   21.46    3.87
  -7  -9   3   27.02    5.47
  -7  -9   3   13.09    4.02
   7  -9  -3   22.67    4.13
  -7  -9   3   23.18    3.97
   7   9  -2    8.14    3.92
   7   9  -2   10.67    3.03
  -7  -9   2   17.51    4.35
  -7  -9   2   21.39    4.56
   7  -9  -2   14.88    3.45
   7  -9  -2   10.25    3.10
  -7  -9   2   13.58    3.26
   7   9  -1   -0.88    2.06
   7   9  -1    2.59    2.15
  -7  -9   1   -1.01    2.34
   7  -9  -1   -0.83    1.61
   7  -9  -1    5.00    2.47
   7  -9  -1   -0.11    2.07
  -7  -9   1    2.31    2.27
  -7  -9   1   -4.62    2.65
   7   9   0    9.24    3.33
   7   9   0   15.90    3.54
   7  -9   0    9.22    3.04
  -7  -9   0   11.60    3.17
   7  -9   0   15.12    3.39
  -7  -9   0    3.32    3.65
   7  -9   0   13.71    3.74
  -7  -9   0   11.46    3.98
   7   9   1   44.59    6.01
   7   9   1   49.87    5.92
  -7  -9  -1   42.97    6.62
  -7  -9  -1   43.67    5.49
   7  -9   1   43.76    5.40
   7  -9   1   47.07    6.37
   7  -9   1   38.26    5.04
  -7  -9  -1   47.30    5.93
   7   9   2   -4.96    1.34
   7   9   2    2.83    2.51
  -7  -9  -2    2.47    2.43
   7  -9   2    0.41    3.07
   7  -9   2    0.38    2.08
  -7  -9  -2   -2.75    2.10
  -7  -9  -2    0.02    2.24
   7   9   3   10.91    3.64
   7   9   3   15.64    4.46
   7  -9   3   20.24    4.64
  -7  -9  -3   20.04    4.19
  -7  -9  -3   10.13    4.11
   7   9   4    0.91    3.14
   7   9   4    2.60    2.99
  -7  -9  -4   -7.09    3.31
  -7  -9  -4    1.83    3.01
   7  -9   4   -0.58    2.32
   7  10  -4   -3.02    3.16
   7  10  -4    6.19    2.70
  -7 -10   4    5.00    3.91
   7 -10  -4    2.37    2.74
   7 -10  -4    7.48    2.81
  -7 -10   4    2.57    2.36
   7  10  -3   -1.81    3.25
   7  10  -3    4.57    2.44
  -7 -10   3   -1.53    3.12
  -7 -10   3   -0.06    3.21
   7 -10  -3    2.29    2.38
  -7 -10   3    1.57    2.26
   7 -10  -3    0.76    2.37
   7  10  -2    4.29    2.66
   7  10  -2    1.70    3.51
  -7 -10   2    6.89    3.07
   7 -10  -2    6.43    2.78
  -7 -10   2    1.07    3.26
  -7 -10   2   -3.07    3.10
   7 -10  -2    7.96    3.10
   7  10  -1   -1.45    1.87
   7  10  -1   -0.45    2.29
  -7 -10   1    5.51    3.45
   7 -10  -1    1.39    1.77
  -7 -10   1   -3.74    3.32
   7 -10  -1   -1.94    2.06
  -7 -10   1    2.78    2.44
   7  10   0    5.89    2.89
   7  10   0    5.10    3.85
  -7 -10   0    3.99    2.76
  -7 -10   0    4.02    3.98
   7 -10   0   11.26    3.90
   7 -10   0    6.64    2.70
   7 -10   0   11.31    3.05
  -7 -10   0   11.48    3.95
   7  10   1    0.46    2.40
   7  10   1   -1.13    3.32
   7 -10   1    3.19    3.19
   7 -10   1    0.96    2.41
   7 -10   1    0.69    2.48
  -7 -10  -1   -1.56    2.40
  -7 -10  -1    3.09    2.75
  -7 -10  -1   -1.19    2.42
   7  10   2    0.04    3.16
   7  10   2    2.30    2.71
   7 -10   2   -1.99    2.23
  -7 -10  -2   -0.08    4.00
   7 -10   2    1.17    3.23
   7 -10   2    4.56    2.84
  -7 -10  -2    6.52    3.05
   7  10   3    2.51    2.60
  -7 -10  -3    1.08    2.90
  -7 -10  -3   -2.51    3.80
   7 -10   3   -0.62    2.38
   7 -10   3    5.41    3.98
   7 -10   3    1.01    1.88
   8   0 -10    1.51    2.05
   8   0  -9    1.59    1.83
   8   0  -9    0.11    1.73
   8   0  -8    9.86    2.26
   8   0  -8   10.04    2.77
   8   0  -7   -0.32    1.25
  -8   0   7    1.55    1.44
   8   0  -7   -0.67    1.41
  -8   0   6   24.56    3.02
   8   0  -6   23.58    2.58
   8   0  -6   27.61    2.89
   8   0  -5    0.47    0.90
   8   0  -5   -0.32    0.95
  -8   0   5   -1.31    1.04
   8   0  -5   -0.69    1.00
   8   0  -4   24.28    2.49
   8   0  -4   22.18    1.76
   8   0  -4   23.05    1.75
  -8   0   4   23.64    2.85
  -8   0   3    1.82    1.46
   8   0  -3   -0.38    0.44
  -8   0   3    0.77    1.32
   8   0  -3   -0.30    0.40
  -8   0   2    5.44    1.44
   8   0  -2    4.96    0.30
   8   0  -2    5.11    0.31
  -8   0   2    6.39    1.83
   8   0  -1   -0.48    0.30
  -8   0   1   -1.58    1.22
   8   0  -1    0.78    1.11
  -8   0   1    0.81    1.05
   8   0  -1    0.23    0.79
   8   0  -1    0.04    0.37
   8   0   0   12.46    1.96
   8   0   0   14.41    1.37
  -8   0   0    8.10    2.02
   8   0   0   12.63    1.43
   8   0   0   11.29    1.22
  -8   0   0   12.58    0.80
   8   0   1   -0.99    1.48
   8   0   1   -1.37    0.67
   8   0   1   -1.42    1.10
  -8   0  -1    0.36    0.64
  -8   0  -1   -1.25    0.95
  -8   0  -1   -0.59    0.45
   8   0   1    0.95    0.72
  -8   0  -1    0.99    0.72
  -8   0  -2    4.26    1.23
  -8   0  -2    3.14    0.84
   8   0   2    3.58    1.98
  -8   0  -2    0.32    1.33
   8   0   2    2.10    1.23
   8   0   2    3.10    1.76
   8   0   3   -1.60    1.66
  -8   0  -3    0.75    1.35
  -8   0  -3   -0.32    1.23
   8   0   3   -0.45    1.25
   8   0   3    0.57    1.27
  -8   0  -3   -0.45    0.88
  -8   0  -3    0.35    1.20
   8   0   4   35.91    4.34
   8   0   4   32.72    4.03
  -8   0  -4   42.45    2.94
  -8   0  -4   40.07    4.36
   8   0   4   46.76    4.36
  -8   0  -4   31.96    3.42
  -8   0  -4   34.90    3.62
   8   0   5   -0.19    1.99
  -8   0  -5    0.08    1.06
  -8   0  -5    1.33    1.72
   8   0   5    2.36    2.45
  -8   0  -5   -1.44    1.60
   8   0   6    1.17    1.83
  -8   0  -6    2.48    1.92
   8   0   6    1.79    2.40
  -8   0  -6   -0.71    1.76
  -8   0  -7    4.62    2.50
   8   0   7   -0.23    2.26
  -8   0  -7    1.29    2.17
   8   0   7    0.43    1.89
   8   0   8    3.46    3.10
  -8   0  -8    5.46    2.80
   8   0   8    9.44    3.47
   8   1 -10    2.15    2.28
   8  -1 -10   -1.37    1.82
   8   1  -9    4.88    2.13
   8   1  -9    5.61    2.49
   8  -1  -9    5.42    2.13
   8  -1  -9   15.16    5.14
   8   1  -8   16.88    2.83
   8   1  -8   19.76    3.14
  -8  -1   8   23.70    3.37
   8  -1  -8   25.12    3.58
   8  -1  -8   20.49    3.14
   8   1  -7   29.63    3.22
   8   1  -7   31.75    3.53
   8  -1  -7   25.51    3.26
  -8  -1   7   30.52    3.87
   8  -1  -7   30.23    3.31
   8   1  -6    1.39    1.28
   8   1  -6    4.94    1.53
  -8   1   6    3.17    1.26
  -8  -1   6    3.16    1.96
   8  -1  -6    2.61    1.38
   8  -1  -6    2.87    1.48
   8   1  -5   15.96    2.02
  -8   1   5   17.59    2.27
   8   1  -5   20.53    2.02
   8   1  -5   15.70    1.92
   8  -1  -5   23.36    2.31
  -8  -1   5   16.78    2.81
   8  -1  -5   12.58    1.93
   8  -1  -5   14.41    1.88
  -8   1   4   28.13    2.90
   8   1  -4   26.62    2.01
   8   1  -4   28.23    2.41
   8   1  -4   29.64    2.07
   8  -1  -4   26.91    1.96
  -8  -1   4   26.60    3.32
   8  -1  -4   31.94    2.07
   8   1  -3   50.83    3.52
   8   1  -3   45.11    2.25
  -8   1   3   44.29    3.22
   8   1  -3   41.32    2.25
  -8  -1   3   46.57    3.20
  -8  -1   3   44.66    3.68
   8  -1  -3   42.29    2.05
   8  -1  -3   44.66    1.98
   8   1  -2   45.75    1.98
   8   1  -2   40.50    3.05
   8   1  -2   42.13    2.03
   8   1  -2   40.72    1.99
   8   1  -2   42.97    1.96
  -8  -1   2   43.96    3.14
  -8  -1   2   37.54    3.14
   8   1  -1   63.19    2.85
  -8   1   1   62.96    4.24
   8   1  -1   60.84    3.58
   8   1  -1   64.32    4.01
   8   1  -1   64.82    2.87
   8  -1  -1   70.90    3.98
  -8  -1   1   65.00    4.35
   8  -1  -1   64.47    3.49
   8  -1  -1   66.62    2.58
  -8  -1   1   65.31    4.13
   8  -1  -1   66.88    2.67
  -8   1   0    1.44    0.37
   8   1   0    1.25    0.96
   8   1   0    1.03    0.70
  -8   1   0   -0.79    0.98
   8   1   0   -1.00    1.15
   8   1   0    0.44    0.64
   8  -1   0    2.71    1.11
  -8  -1   0    1.29    1.19
   8  -1   0    1.21    0.59
  -8  -1   0    1.77    0.82
   8  -1   0    0.36    0.61
  -8  -1   0    0.86    0.55
   8  -1   0    0.00    1.01
  -8  -1   0    0.93    0.36
  -8  -1   0    0.39    1.08
   8  -1   0    0.54    0.60
   8   1   1   77.30    4.82
   8   1   1   82.78    4.09
  -8   1  -1   85.26    3.78
  -8   1  -1   80.53    4.89
   8   1   1   76.35    4.09
  -8   1  -1   81.98    3.60
  -8  -1  -1   88.16    3.99
  -8  -1  -1   80.42    3.78
  -8  -1  -1   85.33    4.00
  -8  -1  -1   76.86    4.88
   8  -1   1   83.21    4.47
   8  -1   1   86.41    4.99
   8  -1   1   86.24    4.08
  -8   1  -2   17.31    1.91
   8   1   2   16.57    2.61
  -8   1  -2   15.53    2.60
   8   1   2   10.44    2.53
  -8   1  -2   17.64    2.78
   8   1   2   16.05    2.10
   8   1   2   15.55    1.83
  -8  -1  -2   15.62    1.90
   8  -1   2   18.56    2.18
   8  -1   2   13.19    2.44
  -8  -1  -2   13.45    2.72
   8  -1   2   15.27    2.44
  -8  -1  -2   15.70    2.07
   8   1   3   51.72    4.11
   8   1   3   58.07    3.84
  -8   1  -3   50.50    4.30
  -8   1  -3   60.60    3.88
  -8   1  -3   60.01    2.45
   8   1   3   57.28    4.36
  -8   1  -3   53.66    3.63
  -8  -1  -3   50.71    4.19
   8  -1   3   53.39    4.33
   8  -1   3   65.03    4.10
  -8  -1  -3   55.02    3.77
  -8  -1  -3   63.87    3.96
   8  -1   3   53.63    4.42
   8   1   4   20.13    3.64
  -8   1  -4   17.95    2.64
   8   1   4   18.69    3.21
  -8   1  -4   20.01    1.81
  -8   1  -4   13.49    2.51
  -8   1  -4   17.81    2.65
  -8  -1  -4   13.90    2.58
  -8  -1  -4   14.59    2.40
   8  -1   4   13.59    2.88
  -8  -1  -4   16.66    3.19
   8  -1   4   27.84    3.98
   8  -1   4   16.20    2.91
   8   1   5   22.81    3.77
  -8   1  -5   19.99    3.11
   8   1   5   15.66    3.24
  -8   1  -5   20.08    3.09
  -8   1  -5   27.38    3.58
  -8  -1  -5   21.52    3.09
   8  -1   5   19.16    3.38
   8  -1   5   17.21    3.69
  -8  -1  -5   19.33    2.92
  -8  -1  -5   20.03    3.19
   8   1   6    0.53    2.56
  -8   1  -6   -0.69    1.80
  -8   1  -6    2.84    1.98
   8   1   6    1.09    2.06
  -8  -1  -6    1.31    1.98
   8  -1   6    3.92    2.70
   8  -1   6    0.77    2.38
  -8  -1  -6    1.03    1.87
  -8   1  -7   23.97    3.92
  -8   1  -7   21.11    4.22
   8   1   7   23.91    4.24
   8   1   7   22.65    4.71
   8  -1   7   24.63    4.44
  -8  -1  -7   24.04    4.13
  -8  -1  -7   20.85    3.76
   8  -1   7   18.23    4.25
   8   1   8    6.29    3.23
  -8   1  -8    4.97    2.73
   8   1   8    3.07    2.48
   8  -1   8    0.93    3.03
   8  -1   8    9.79    3.67
  -8  -1  -8    6.57    3.08
   8   2 -10    4.46    2.45
   8   2 -10    0.85    2.14
   8  -2 -10   -1.31    1.84
   8   2  -9    2.91    2.00
   8   2  -9   14.37    3.35
   8   2  -9   10.30    2.89
   8  -2  -9    9.81    2.62
   8   2  -8    2.01    2.07
   8   2  -8   -0.16    1.42
   8  -2  -8   -0.47    1.46
   8  -2  -8    1.43    1.77
  -8  -2   8    0.63    2.01
   8   2  -7    0.81    1.36
   8   2  -7   -0.79    1.15
   8  -2  -7    2.53    1.86
  -8  -2   7   -0.23    1.93
   8  -2  -7    1.48    1.36
   8   2  -6   20.98    2.68
   8   2  -6   26.49    3.02
   8  -2  -6   21.92    2.66
   8  -2  -6   30.80    3.17
  -8  -2   6   22.88    1.24
  -8  -2   6   26.55    3.65
   8   2  -5   32.70    2.97
   8   2  -5   25.52    3.56
   8   2  -5   30.86    2.84
   8  -2  -5   27.57    1.55
   8  -2  -5   27.41    2.69
   8  -2  -5   27.82    1.67
   8  -2  -5   27.92    2.60
  -8  -2   5   23.27    3.51
   8   2  -4   43.51    2.80
   8   2  -4   45.39    2.88
   8   2  -4   48.12    3.82
   8  -2  -4   45.84    2.70
  -8  -2   4   48.91    3.93
   8  -2  -4   38.93    2.46
   8  -2  -4   45.64    2.67
   8  -2  -4   46.37    3.09
  -8  -2   4   42.17    2.85
   8   2  -3   67.42    3.45
   8   2  -3   72.14    3.47
   8   2  -3   64.56    4.56
  -8  -2   3   68.90    4.69
   8  -2  -3   72.96    3.71
   8  -2  -3   77.66    3.31
   8  -2  -3   71.75    3.24
  -8  -2   3   66.75    3.93
   8   2  -2   77.77    3.54
   8   2  -2   72.06    4.39
   8   2  -2   76.27    3.62
   8   2  -2   82.48    3.93
   8  -2  -2   79.66    4.24
  -8  -2   2   78.46    4.49
  -8  -2   2   69.82    4.88
   8   2  -1    6.20    1.10
   8   2  -1    8.86    1.83
   8   2  -1    5.44    1.84
  -8  -2   1    4.61    1.81
   8  -2  -1    8.68    1.04
  -8  -2   1    7.14    0.86
  -8  -2   1    4.75    2.00
   8  -2  -1    6.63    1.72
   8  -2  -1    6.19    1.15
   8  -2  -1    7.01    1.01
   8   2   0   33.36    3.15
  -8   2   0   32.13    3.50
   8   2   0   28.55    2.21
   8   2   0   31.48    3.45
   8  -2   0   32.66    1.73
  -8  -2   0   32.29    2.07
  -8  -2   0   29.50    3.41
   8  -2   0   30.58    2.25
  -8  -2   0   33.48    1.89
   8  -2   0   35.03    3.49
  -8  -2   0   32.70    3.69
   8  -2   0   28.37    2.05
  -8  -2   0   34.77    2.01
  -8   2  -1    3.92    1.05
  -8   2  -1    6.91    1.97
   8   2   1    8.66    1.56
  -8   2  -1    9.70    1.84
   8   2   1    7.06    1.93
   8   2   1    5.96    1.65
  -8   2  -1    5.00    1.10
   8  -2   1    7.89    2.45
   8  -2   1    6.01    1.25
  -8  -2  -1    4.98    1.26
  -8  -2  -1    7.22    2.11
   8  -2   1    5.69    1.52
  -8  -2  -1    3.89    1.64
  -8  -2  -1    6.07    1.33
  -8   2  -2    1.01    0.95
   8   2   2    1.98    1.51
  -8   2  -2    0.49    1.30
   8   2   2    1.12    1.33
   8   2   2    2.83    1.44
  -8  -2  -2    0.46    1.52
  -8  -2  -2    1.14    1.19
   8  -2   2    1.96    1.69
   8  -2   2    1.14    1.51
   8  -2   2    4.76    1.43
  -8   2  -3    1.17    1.80
  -8   2  -3   -0.57    0.98
   8   2   3    2.69    1.66
   8   2   3    2.12    1.55
   8   2   3    1.67    1.67
   8   2   3    0.56    1.27
  -8   2  -3    3.83    1.62
   8  -2   3   -0.32    0.96
  -8  -2  -3    3.09    2.29
  -8  -2  -3    2.27    1.59
  -8  -2  -3    0.96    1.05
   8  -2   3    0.09    1.63
   8  -2   3    3.25    1.94
  -8   2  -4   13.88    2.51
  -8   2  -4   15.25    2.86
  -8   2  -4   14.14    2.48
   8   2   4   12.65    3.21
   8   2   4    7.82    2.47
  -8   2  -4   13.70    1.01
  -8  -2  -4   13.97    2.62
  -8  -2  -4   12.18    2.52
   8  -2   4   10.74    2.76
   8  -2   4   14.85    3.39
  -8  -2  -4   14.59    3.27
  -8   2  -5    4.82    2.15
   8   2   5    4.33    2.24
  -8   2  -5    7.01    2.22
  -8   2  -5    7.10    2.31
   8   2   5    4.86    2.79
   8  -2   5   10.02    3.30
  -8  -2  -5    8.61    2.44
  -8  -2  -5    2.87    2.00
  -8  -2  -5    7.52    2.44
   8  -2   5    5.50    2.16
   8   2   6   57.10    5.81
   8   2   6   50.87    6.19
  -8   2  -6   53.17    5.11
  -8   2  -6   57.01    4.64
   8  -2   6   54.73    6.01
   8  -2   6   58.41    6.27
  -8  -2  -6   44.23    4.87
  -8  -2  -6   50.67    5.55
   8   2   7   -0.62    1.94
  -8   2  -7   -0.86    1.76
   8   2   7    0.79    2.49
  -8  -2  -7   -2.66    2.07
   8  -2   7    2.60    2.87
  -8  -2  -7    1.75    2.26
   8  -2   7    0.43    2.92
  -8   2  -8    1.70    2.50
   8   2   8    2.89    3.13
   8  -2   8    0.77    3.14
  -8  -2  -8    1.46    2.45
   8   3  -9    7.48    2.46
   8   3  -9    5.50    2.81
   8   3  -9    8.68    2.88
   8  -3  -9   10.35    2.78
  -8  -3   9    4.44    2.86
   8   3  -8   31.73    4.03
   8   3  -8   26.68    4.44
   8   3  -8   31.33    4.12
  -8  -3   8   35.71    5.08
   8  -3  -8   32.57    3.90
   8  -3  -8   34.23    4.42
   8   3  -7   25.48    3.32
   8   3  -7   31.47    3.74
   8   3  -7   22.87    3.83
   8  -3  -7   27.27    3.33
   8  -3  -7   23.63    3.45
  -8  -3   7   25.81    4.21
   8   3  -6    5.71    2.49
   8   3  -6    9.55    2.02
   8   3  -6    6.46    1.95
  -8  -3   6    6.93    2.40
  -8  -3   6   10.28    1.40
   8  -3  -6    5.49    1.68
   8  -3  -6    5.94    1.96
   8   3  -5   12.73    2.87
   8   3  -5    7.85    1.75
   8   3  -5   14.70    2.24
  -8  -3   5   14.22    1.42
   8  -3  -5   12.21    1.89
  -8  -3   5   11.52    1.39
   8  -3  -5   11.26    2.04
  -8  -3   5   13.70    3.07
   8   3  -4   17.03    2.15
   8   3  -4   16.69    3.14
   8   3  -4   14.81    2.17
  -8  -3   4   21.06    1.91
   8  -3  -4   20.92    2.20
  -8  -3   4   18.23    1.51
   8  -3  -4   17.70    1.51
  -8  -3   4   19.48    2.23
   8  -3  -4   14.62    1.93
   8  -3  -4   18.95    2.17
  -8  -3   4   15.99    3.22
   8   3  -3   33.48    2.56
   8   3  -3   34.77    3.74
   8   3  -3   29.23    2.38
  -8  -3   3   30.77    2.06
  -8  -3   3   25.10    3.67
  -8  -3   3   33.33    3.20
  -8  -3   3   33.77    1.81
   8  -3  -3   33.51    2.50
   8  -3  -3   33.29    2.32
   8  -3  -3   30.70    2.30
   8  -3  -3   33.88    2.38
   8   3  -2   44.86    2.94
   8   3  -2   49.39    3.72
  -8  -3   2   42.28    4.34
  -8  -3   2   48.93    2.29
  -8  -3   2   45.31    3.60
  -8  -3   2   46.28    2.33
   8  -3  -2   45.03    2.65
   8  -3  -2   44.27    2.34
   8  -3  -2   43.50    3.15
  -8  -3   2   49.02    2.56
   8   3  -1   11.20    2.40
   8   3  -1   11.96    2.28
   8   3  -1   11.02    1.61
   8  -3  -1   12.17    1.54
  -8  -3   1   12.96    1.38
  -8  -3   1   12.01    1.43
  -8  -3   1   12.96    2.48
   8  -3  -1   12.33    1.71
   8  -3  -1    9.23    1.09
  -8  -3   1   11.88    2.31
   8  -3  -1   10.67    2.13
  -8  -3   1   13.41    1.51
   8   3   0    0.09    1.13
   8   3   0    1.55    1.04
   8   3   0    1.05    1.23
  -8  -3   0    0.59    0.91
   8  -3   0    0.94    0.91
  -8  -3   0    3.13    2.09
  -8  -3   0    2.18    1.01
   8  -3   0    0.99    1.67
  -8  -3   0    0.08    1.30
   8  -3   0    1.36    0.92
   8  -3   0   -0.05    0.76
  -8  -3   0    1.48    0.99
   8   3   1    3.53    1.47
  -8   3  -1    2.35    1.13
   8   3   1    0.86    1.15
  -8   3  -1    2.56    1.09
   8   3   1    3.15    1.63
  -8   3  -1    3.35    1.10
  -8  -3  -1    2.59    1.88
  -8  -3  -1    0.46    1.48
   8  -3   1   -0.28    0.90
   8  -3   1    2.75    1.27
  -8  -3  -1    3.76    1.40
   8  -3   1    4.43    1.79
  -8   3  -2   60.52    3.64
   8   3   2   67.32    4.53
   8   3   2   67.02    4.99
   8   3   2   66.85    4.25
   8  -3   2   63.29    5.26
  -8  -3  -2   62.55    4.02
  -8  -3  -2   69.97    4.18
  -8  -3  -2   65.68    4.81
  -8  -3  -2   56.68    5.53
   8  -3   2   64.18    4.17
   8  -3   2   66.45    4.10
   8   3   3   13.48    3.14
   8   3   3   17.67    2.74
  -8   3  -3   12.88    2.16
   8   3   3   14.74    2.66
  -8   3  -3   12.59    2.28
  -8  -3  -3   11.11    2.74
   8  -3   3   10.29    2.67
  -8  -3  -3   16.47    2.60
  -8  -3  -3   15.48    2.59
   8  -3   3   17.39    2.63
   8  -3   3   15.87    2.72
   8   3   4   26.88    3.82
   8   3   4   30.79    4.27
  -8   3  -4   29.51    3.34
  -8   3  -4   36.36    3.78
   8  -3   4   38.01    4.99
  -8  -3  -4   32.53    4.53
  -8  -3  -4   32.81    3.67
   8  -3   4   34.28    4.04
  -8  -3  -4   32.53    3.81
  -8   3  -5    1.77    1.85
   8   3   5   -0.92    1.62
   8   3   5    2.56    1.84
   8  -3   5    0.88    2.21
  -8  -3  -5    0.57    2.16
   8  -3   5   -1.16    2.56
  -8  -3  -5    0.55    1.40
  -8  -3  -5    0.68    1.74
   8   3   6   -3.10    1.61
  -8   3  -6    1.73    2.05
   8   3   6    0.30    2.63
   8  -3   6   -2.68    2.53
  -8  -3  -6    1.07    2.42
  -8  -3  -6    1.51    1.58
  -8   3  -7    6.85    2.92
   8   3   7    2.94    2.69
   8   3   7   -1.82    2.61
  -8  -3  -7    5.86    2.79
   8  -3   7    5.71    3.36
  -8  -3  -7    2.54    2.07
  -8   3  -8    7.06    3.03
   8   3   8   11.65    4.14
  -8  -3  -8    3.01    2.80
   8  -3   8    8.13    3.81
   8   4  -9   -0.20    1.63
   8   4  -9    2.35    2.25
   8   4  -9    0.45    1.79
   8  -4  -9    1.37    1.86
  -8  -4   9    1.43    2.94
   8   4  -8    2.27    2.11
   8   4  -8    1.42    1.87
   8   4  -8   -1.25    1.42
  -8  -4   8    2.36    2.61
   8  -4  -8    3.53    2.08
   8  -4  -8    5.22    2.70
   8   4  -7   13.72    3.48
   8   4  -7   12.57    2.68
   8   4  -7   17.73    3.03
   8  -4  -7   14.92    2.70
   8  -4  -7   12.39    2.87
  -8  -4   7   12.72    3.18
   8   4  -6   51.45    4.05
   8   4  -6   43.84    5.11
   8   4  -6   40.28    4.07
   8  -4  -6   43.83    4.07
  -8  -4   6   42.46    3.00
  -8  -4   6   51.38    5.72
   8  -4  -6   52.33    4.03
   8   4  -5   48.80    5.22
   8   4  -5   46.95    3.70
   8   4  -5   44.59    3.58
  -8  -4   5   52.15    2.97
   8  -4  -5   48.11    3.60
  -8  -4   5   45.32    2.99
  -8  -4   5   40.14    5.18
   8  -4  -5   47.58    4.14
   8   4  -4    4.82    1.58
   8   4  -4    4.12    1.48
   8   4  -4    7.10    2.49
  -8  -4   4    4.07    2.10
  -8  -4   4    2.96    1.81
  -8  -4   4    5.32    1.38
   8  -4  -4    3.88    1.47
   8  -4  -4    5.49    0.90
   8  -4  -4    5.80    1.53
  -8  -4   4    3.63    1.44
   8   4  -3    1.22    1.52
   8   4  -3    3.01    1.40
   8   4  -3    0.70    1.15
   8  -4  -3    2.37    1.20
  -8  -4   3    3.14    1.20
   8  -4  -3    2.09    1.25
  -8  -4   3    3.18    1.04
   8  -4  -3    4.13    1.37
   8  -4  -3    1.48    0.87
  -8  -4   3    1.28    1.71
  -8  -4   3    4.85    1.30
  -8  -4   3    1.25    1.64
   8   4  -2   18.54    2.91
  -8  -4   2   16.11    1.93
  -8  -4   2   17.32    1.82
  -8  -4   2    9.24    2.49
   8  -4  -2   12.44    2.23
   8  -4  -2   10.56    1.74
   8  -4  -2   16.13    1.94
  -8  -4   2   11.06    2.41
  -8  -4   2   15.43    1.93
   8   4  -1   76.52    5.44
   8   4  -1   72.93    5.16
   8   4  -1   77.97    4.48
   8  -4  -1   92.35    4.44
  -8  -4   1   80.69    5.15
  -8  -4   1   87.56    4.37
   8  -4  -1   81.61    5.04
  -8  -4   1   82.11    4.06
  -8  -4   1   79.02    4.12
  -8  -4   1   72.10    5.28
   8   4   0   31.97    3.68
   8   4   0   32.42    3.77
   8   4   0   29.32    3.03
  -8  -4   0   30.90    3.78
   8  -4   0   31.35    2.93
  -8  -4   0   33.36    4.07
   8  -4   0   34.46    3.89
   8  -4   0   32.59    2.45
  -8  -4   0   31.69    2.97
   8   4   1   76.22    4.55
   8   4   1   70.15    5.02
   8   4   1   62.93    4.96
  -8   4  -1   77.78    4.01
  -8   4  -1   68.56    3.42
  -8  -4  -1   69.34    4.25
  -8  -4  -1   73.53    5.20
   8  -4   1   66.63    5.35
  -8  -4  -1   67.35    4.76
  -8  -4  -1   67.88    5.14
   8  -4   1   74.80    3.13
   8  -4   1   58.69    4.07
   8   4   2    7.50    2.04
   8   4   2    1.16    1.62
   8   4   2    3.51    2.12
  -8   4  -2    2.45    1.44
  -8  -4  -2    4.60    2.81
   8  -4   2    4.67    1.56
  -8  -4  -2    1.92    1.58
   8  -4   2    3.02    1.64
   8  -4   2   -0.21    2.34
  -8  -4  -2    3.16    1.98
  -8  -4  -2    3.19    1.47
  -8   4  -3   11.30    2.17
  -8   4  -3    9.95    2.03
   8   4   3    7.68    2.49
   8   4   3   12.49    2.90
  -8  -4  -3    8.72    2.38
   8  -4   3    5.60    3.11
  -8  -4  -3   11.57    2.55
  -8  -4  -3   10.36    3.17
  -8  -4  -3   13.67    2.62
  -8   4  -4    1.40    1.60
   8   4   4    2.06    1.95
   8   4   4    8.13    2.40
  -8  -4  -4    5.97    2.81
  -8  -4  -4    2.11    1.57
  -8  -4  -4    3.41    1.70
   8  -4   4    2.16    2.14
  -8   4  -5   88.90    5.89
   8   4   5   98.45    6.28
   8   4   5   79.52    6.48
   8  -4   5   78.92    7.92
  -8  -4  -5   91.92    7.12
  -8  -4  -5   88.52    6.21
   8   4   6    3.31    2.10
   8   4   6    0.12    2.54
  -8   4  -6    3.85    2.33
  -8  -4  -6    2.03    2.56
  -8  -4  -6    3.48    2.46
   8  -4   6   -0.96    2.24
  -8   4  -7   18.51    3.79
   8   4   7   20.47    4.39
   8  -4   7   13.53    3.89
  -8  -4  -7   16.62    3.77
  -8  -4  -7   13.58    4.06
   8   4   8   -1.17    1.71
  -8   4  -8   -1.83    2.00
  -8  -4  -8    1.86    4.21
   8  -4   8   -2.16    2.00
  -8  -4  -8    0.39    2.67
   8   5  -9    4.96    2.64
   8   5  -9    1.35    2.31
   8   5  -9    6.79    2.84
   8  -5  -9    3.72    2.47
  -8  -5   9    7.36    3.55
   8   5  -8    1.06    2.01
   8   5  -8    1.09    1.88
   8   5  -8    1.85    1.96
   8  -5  -8   -0.60    1.71
   8  -5  -8   -6.19    2.88
  -8  -5   8   -1.06    2.45
   8   5  -7    3.42    2.73
   8   5  -7    3.54    1.98
   8   5  -7    3.02    1.91
   8  -5  -7    3.49    1.95
   8  -5  -7    4.99    2.38
  -8  -5   7    6.89    3.14
   8   5  -6   -0.02    1.47
   8   5  -6   -0.26    1.42
   8   5  -6    1.83    2.31
   8  -5  -6    1.63    1.51
   8  -5  -6   -0.15    1.73
  -8  -5   6    0.94    1.32
  -8  -5   6    0.80    2.59
   8   5  -5    3.44    1.95
   8   5  -5    5.15    1.74
   8   5  -5    4.30    1.87
   8  -5  -5    1.57    1.48
  -8  -5   5    3.51    2.60
   8  -5  -5    0.64    1.50
  -8  -5   5    1.35    1.33
  -8  -5   5    3.78    1.55
   8   5  -4    0.40    1.57
   8   5  -4   -0.45    1.32
   8   5  -4   -1.85    1.10
   8  -5  -4   -0.75    1.20
  -8  -5   4    0.57    2.42
  -8  -5   4    0.95    1.42
   8  -5  -4   -1.30    1.04
  -8  -5   4    0.50    1.19
   8   5  -3   -2.94    1.82
   8   5  -3   -0.46    1.37
   8  -5  -3    1.64    1.27
  -8  -5   3    1.43    1.29
  -8  -5   3    0.26    1.60
   8  -5  -3    1.43    1.31
  -8  -5   3    1.78    1.75
   8  -5  -3    1.95    1.31
   8   5  -2    2.05    1.83
  -8  -5   2   -0.41    1.56
   8  -5  -2    1.24    1.15
   8  -5  -2    0.22    1.19
   8  -5  -2   -0.26    1.07
  -8  -5   2    4.10    2.08
   8  -5  -2    0.23    1.61
  -8  -5   2    2.36    1.47
  -8  -5   2    0.12    1.05
   8   5  -1    2.14    1.98
   8   5  -1    1.28    1.39
   8   5  -1    2.40    1.82
   8  -5  -1    3.63    1.39
  -8  -5   1    3.72    2.52
  -8  -5   1    0.89    2.20
   8  -5  -1    5.71    2.19
  -8  -5   1    3.05    1.49
   8   5   0   29.51    3.93
   8   5   0   39.95    4.50
   8   5   0   37.62    3.73
  -8  -5   0   37.63    3.53
  -8  -5   0   33.26    4.26
   8  -5   0   34.60    4.23
  -8  -5   0   33.44    4.30
   8  -5   0   37.27    3.56
  -8   5  -1    2.47    0.78
   8   5   1    2.88    2.06
   8   5   1    1.76    1.99
   8   5   1   -1.01    1.98
   8  -5   1    5.67    1.79
  -8  -5  -1    0.81    1.87
  -8  -5  -1    3.20    2.14
   8  -5   1    0.15    1.71
  -8  -5  -1    2.61    1.63
  -8  -5  -1    2.72    1.52
  -8   5  -2   42.82    3.30
   8   5   2   37.75    4.40
   8   5   2   33.58    4.47
  -8  -5  -2   43.89    4.72
  -8  -5  -2   33.28    4.95
   8  -5   2   32.31    4.70
  -8  -5  -2   43.56    4.23
  -8  -5  -2   46.09    4.31
  -8   5  -3    0.43    1.46
   8   5   3    2.19    2.24
   8   5   3    1.71    2.20
  -8  -5  -3    2.58    1.88
   8  -5   3    0.92    1.99
  -8  -5  -3    2.24    1.89
  -8  -5  -3    0.11    1.58
  -8  -5  -3    2.12    2.75
  -8   5  -4    1.11    1.78
   8   5   4   -1.95    2.13
   8   5   4   -1.54    1.86
  -8  -5  -4    0.85    2.11
  -8  -5  -4   -0.23    2.59
   8  -5   4    1.41    2.31
   8   5   5   -0.37    1.64
   8   5   5    1.19    2.60
  -8   5  -5   -0.41    1.83
   8  -5   5   -0.22    2.16
  -8  -5  -5    0.12    2.67
  -8  -5  -5    3.59    1.96
   8   5   6   15.87    3.35
  -8   5  -6   18.18    3.48
   8   5   6   15.63    3.81
  -8  -5  -6   18.63    4.60
  -8  -5  -6   19.30    3.78
   8  -5   6   12.33    4.44
   8   5   7   -0.45    2.84
  -8   5  -7   -0.27    2.10
  -8  -5  -7    2.44    2.86
  -8  -5  -7   -1.11    2.16
   8  -5   7    9.29    4.02
   8   6  -8    3.06    2.88
   8   6  -8    0.83    2.24
   8   6  -8   -0.52    1.94
   8  -6  -8    4.65    2.56
  -8  -6   8    2.76    3.21
   8   6  -7   20.11    3.83
   8   6  -7   17.24    4.04
   8   6  -7   14.75    3.13
   8  -6  -7   17.97    3.33
   8  -6  -7   19.66    3.73
  -8  -6   7   17.44    4.36
   8   6  -6   31.64    4.30
   8   6  -6   26.17    3.74
   8   6  -6   30.80    4.86
  -8  -6   6   34.41    5.38
  -8  -6   6   31.60    3.58
   8  -6  -6   30.95    4.42
   8  -6  -6   33.84    4.10
   8   6  -5   18.51    3.07
   8   6  -5   21.34    3.39
   8   6  -5   17.50    3.88
  -8  -6   5   16.86    2.66
  -8  -6   5    7.72    3.12
   8  -6  -5   15.64    2.88
   8  -6  -5   24.83    3.61
   8   6  -4    2.54    2.54
   8   6  -4   -0.07    1.66
  -8  -6   4   -0.98    1.43
   8  -6  -4   -1.45    1.22
  -8  -6   4    0.72    1.93
   8  -6  -4   -0.23    1.41
  -8  -6   4    1.61    1.68
   8   6  -3   -0.44    1.57
  -8  -6   3   -0.65    1.69
   8  -6  -3    1.96    1.58
   8  -6  -3    1.75    1.46
   8  -6  -3    0.74    1.29
  -8  -6   3   -1.86    2.14
  -8  -6   3   -0.04    1.27
   8   6  -2  114.60    6.94
   8   6  -2  108.87    7.26
   8  -6  -2  118.77    6.31
  -8  -6   2  108.40    5.94
  -8  -6   2  108.72    6.95
   8  -6  -2  106.99    6.26
  -8  -6   2  121.43    7.74
   8  -6  -2  112.35    6.14
   8   6  -1   10.28    2.62
   8   6  -1    9.37    3.13
  -8  -6   1    8.76    3.02
   8  -6  -1    8.88    1.99
  -8  -6   1   10.98    3.10
   8  -6  -1   10.87    2.60
  -8  -6   1   11.18    2.32
   8   6   0  119.96    7.78
   8   6   0  115.26    7.20
  -8  -6   0  134.66    6.93
  -8  -6   0  130.76    7.39
  -8  -6   0  125.82    8.12
   8  -6   0  130.40    7.69
  -8  -6   0  122.69    7.81
   8   6   1    0.04    1.56
   8   6   1    1.41    1.93
  -8  -6  -1    0.50    1.52
   8  -6   1   -1.40    1.60
  -8  -6  -1   -3.12    2.19
  -8  -6  -1   -0.65    1.43
  -8  -6  -1    1.36    1.88
   8   6   2    4.20    2.09
   8   6   2    6.04    2.72
  -8  -6  -2    7.05    2.41
  -8  -6  -2    5.99    2.52
  -8  -6  -2    6.74    2.72
   8  -6   2    4.88    2.49
   8   6   3    8.43    2.94
   8   6   3   12.04    3.27
  -8   6  -3    9.13    2.34
   8  -6   3    7.60    3.52
  -8  -6  -3    5.37    2.12
  -8  -6  -3    3.04    2.15
  -8  -6  -3    4.25    2.56
  -8   6  -4   13.22    2.91
   8   6   4   13.90    3.74
   8   6   4   15.39    3.36
  -8  -6  -4   16.82    3.40
  -8  -6  -4    9.91    3.97
   8  -6   4   16.41    4.00
   8   6   5   26.98    5.06
   8   6   5   22.45    3.80
  -8   6  -5   19.64    3.44
  -8  -6  -5   21.51    4.06
   8  -6   5   22.05    4.62
  -8  -6  -5   19.64    4.37
   8   6   6    5.85    3.36
  -8   6  -6    4.69    2.79
  -8  -6  -6   14.91    3.76
  -8  -6  -6   17.00    4.62
   8  -6   6    9.43    3.51
   8   6   7   15.90    4.05
  -8   6  -7    9.41    3.34
  -8  -6  -7   10.72    4.32
  -8  -6  -7    3.25    2.98
   8  -6   7    5.78    4.26
   8   7  -7   -1.28    2.01
   8   7  -7    0.11    1.92
   8   7  -7   -3.17    1.68
   8  -7  -7   -0.47    2.44
  -8  -7   7    1.79    2.98
   8  -7  -7   -0.21    1.84
   8   7  -6    1.41    2.32
   8   7  -6    3.14    2.26
   8   7  -6    0.95    2.26
  -8  -7   6    0.53    1.84
  -8  -7   6   -0.21    2.79
   8  -7  -6    1.76    2.19
   8  -7  -6    3.26    2.30
   8   7  -5    8.14    3.38
   8   7  -5    6.77    2.54
  -8  -7   5    5.51    2.03
  -8  -7   5    9.18    3.74
   8  -7  -5   10.15    2.84
   8  -7  -5    6.85    2.32
   8   7  -4    8.23    3.36
  -8  -7   4    4.31    2.14
  -8  -7   4    5.50    2.64
  -8  -7   4    5.60    1.95
   8  -7  -4    2.47    1.74
   8  -7  -4    6.24    2.32
   8   7  -3    1.93    2.58
  -8  -7   3    1.03    1.84
   8  -7  -3    1.66    1.54
  -8  -7   3   -2.61    1.97
   8  -7  -3   -0.49    1.52
  -8  -7   3    4.19    3.11
   8   7  -2    8.20    3.33
   8   7  -2   15.15    3.13
  -8  -7   2   11.80    3.28
   8  -7  -2   11.47    2.55
   8  -7  -2   11.99    2.76
   8  -7  -2   10.31    2.37
  -8  -7   2   11.35    2.55
  -8  -7   2   12.84    3.30
   8   7  -1    1.60    1.89
   8   7  -1   -2.48    1.52
   8  -7  -1   -1.34    1.87
   8  -7  -1   -0.07    1.45
  -8  -7   1    0.07    1.59
  -8  -7   1   -0.58    1.43
  -8  -7   1   -1.92    2.06
   8  -7  -1   -1.39    1.25
   8   7   0    0.69    1.95
   8   7   0    2.04    2.65
  -8  -7   0   -0.23    1.52
   8  -7   0   -2.87    1.92
   8  -7   0   -0.97    1.41
  -8  -7   0    0.81    2.61
  -8  -7   0   -0.30    1.64
   8   7   1   -0.83    1.28
   8   7   1    1.57    1.99
  -8  -7  -1    0.13    2.07
  -8  -7  -1   -0.37    2.90
  -8  -7  -1    0.72    1.39
   8  -7   1   -1.76    2.44
   8   7   2   10.12    3.01
   8   7   2   13.34    3.24
  -8  -7  -2   10.08    2.82
   8  -7   2   12.69    3.85
  -8  -7  -2   10.96    3.89
  -8  -7  -2    8.20    2.73
   8   7   3    3.40    2.36
   8   7   3    0.45    2.49
   8  -7   3    0.48    3.11
  -8  -7  -3    3.30    2.44
  -8  -7  -3    1.36    3.21
  -8  -7  -3    2.19    2.12
   8   7   4   -1.00    2.52
   8   7   4    1.37    2.59
  -8   7  -4    5.12    2.35
  -8  -7  -4    4.23    3.91
  -8  -7  -4    0.70    2.16
   8  -7   4    1.38    3.52
  -8   7  -5    3.95    2.42
   8   7   5    4.34    3.09
  -8  -7  -5   -0.79    2.36
  -8  -7  -5    2.63    2.81
   8  -7   5    2.83    3.91
   8   7   6    1.78    2.97
  -8   7  -6    0.96    2.73
  -8  -7  -6    1.97    2.82
  -8  -7  -6   -6.22    2.85
   8  -7   6    0.86    3.63
   8   8  -6    8.54    3.48
   8   8  -6    9.50    3.31
  -8  -8   6   11.84    2.89
  -8  -8   6   13.89    4.28
   8  -8  -6    6.42    2.56
   8  -8  -6   11.31    3.52
   8   8  -5   20.33    5.01
  -8  -8   5   27.09    5.23
   8  -8  -5   22.45    4.01
   8  -8  -5   20.93    3.72
  -8  -8   5   20.11    3.44
   8   8  -4   -0.26    2.95
  -8  -8   4    2.32    2.34
  -8  -8   4    4.65    2.03
  -8  -8   4    2.77    3.28
   8  -8  -4    5.04    2.22
   8  -8  -4    3.15    2.25
   8   8  -3    4.84    2.24
   8   8  -3   10.05    3.80
   8  -8  -3    3.22    2.30
  -8  -8   3   -0.77    2.22
   8  -8  -3    3.72    2.04
  -8  -8   3    4.74    2.27
  -8  -8   3    3.15    3.34
   8   8  -2    1.05    1.50
   8   8  -2   -0.41    1.89
   8  -8  -2    4.21    1.98
   8  -8  -2    2.23    1.82
  -8  -8   2    2.12    2.01
  -8  -8   2    0.26    2.03
   8  -8  -2   -1.44    1.55
  -8  -8   2   -1.23    1.66
   8   8  -1    0.97    1.49
   8   8  -1    6.61    2.83
   8  -8  -1    1.55    1.89
  -8  -8   1   -1.20    2.50
   8  -8  -1    8.01    2.38
  -8  -8   1    3.13    2.05
  -8  -8   1    0.20    2.80
   8  -8  -1    3.85    2.27
   8   8   0    7.31    2.92
   8   8   0   10.76    2.83
   8  -8   0   14.09    3.57
   8  -8   0   10.79    2.94
   8  -8   0   10.63    2.74
  -8  -8   0   12.19    3.50
  -8  -8   0   11.87    3.13
  -8  -8   0   16.28    3.90
   8   8   1    2.86    2.30
   8   8   1    3.78    3.18
   8  -8   1   -1.19    1.94
  -8  -8  -1    5.90    2.46
  -8  -8  -1    1.44    2.34
  -8  -8  -1   -3.18    2.97
   8   8   2    1.41    2.35
   8   8   2   -2.05    1.66
  -8  -8  -2    4.22    2.48
   8  -8   2    1.58    3.24
  -8  -8  -2    2.64    2.28
  -8  -8  -2   -0.30    2.25
   8   8   3    0.79    2.45
   8   8   3   -2.52    2.57
   8  -8   3   -1.05    2.35
  -8  -8  -3    1.38    2.19
  -8  -8  -3   -0.87    2.28
  -8  -8  -3    1.67    2.53
   8   8   4    9.78    3.17
   8   8   4    5.23    3.13
   8  -8   4   14.52    4.73
  -8  -8  -4   15.04    3.87
  -8  -8  -4    5.52    3.43
   8   8   5   -2.40    2.48
  -8  -8  -5    2.84    2.34
   8  -8   5    2.13    3.02
  -8  -8  -5   -1.81    3.88
   8   9  -5   -0.54    3.35
  -8  -9   5    5.44    2.53
   8  -9  -5    0.38    2.01
  -8  -9   5    0.92    3.67
   8  -9  -5    0.09    1.86
   8   9  -4   -3.94    1.86
   8   9  -4    3.02    2.00
  -8  -9   4    1.55    2.11
   8  -9  -4    2.41    2.28
   8  -9  -4    1.17    1.88
  -8  -9   4   -3.74    1.81
   8   9  -3   25.08    4.29
   8   9  -3   17.33    4.45
  -8  -9   3   14.41    3.16
   8  -9  -3   17.02    3.61
   8  -9  -3   20.83    3.81
  -8  -9   3   20.13    4.67
  -8  -9   3   12.17    3.88
   8   9  -2    0.63    3.08
   8   9  -2    3.60    2.14
   8  -9  -2    3.03    2.12
  -8  -9   2    1.04    2.13
   8  -9  -2    1.10    2.30
  -8  -9   2    0.43    2.72
  -8  -9   2   -1.12    2.79
   8   9  -1   27.91    5.01
   8   9  -1   28.92    4.73
   8  -9  -1   30.42    4.47
  -8  -9   1   31.96    4.49
   8  -9  -1   30.47    4.63
  -8  -9   1   20.91    4.95
   8  -9  -1   28.40    4.38
  -8  -9   1   25.27    5.18
   8   9   0    0.82    3.08
   8   9   0    1.54    2.29
   8  -9   0    3.91    2.82
   8  -9   0    3.26    2.35
  -8  -9   0    2.60    2.45
  -8  -9   0   -3.64    1.84
  -8  -9   0    0.77    2.02
   8  -9   0   -0.62    1.39
   8   9   1    6.60    3.34
   8   9   1    1.92    2.32
   8  -9   1   -0.94    1.94
   8  -9   1    3.02    2.50
  -8  -9  -1    1.09    2.47
   8  -9   1    3.38    3.04
  -8  -9  -1   -3.00    3.37
  -8  -9  -1    7.20    2.97
   8   9   2   -0.13    2.29
   8   9   2   -0.14    2.39
  -8  -9  -2   -0.94    2.27
   8  -9   2    0.26    3.00
  -8  -9  -2   -0.93    2.14
  -8  -9  -2   -0.30    2.67
   8  -9   2   -0.18    1.88
   8   9   3    4.49    3.07
   8   9   3    6.23    2.88
  -8  -9  -3    8.85    4.88
   8  -9   3    9.39    3.66
  -8  -9  -3    4.49    3.05
   8   9   4   -3.19    2.18
   8   9   4   -0.04    2.76
  -8  -9  -4    3.85    2.86
  -8  -9  -4   -4.25    3.48
   8  -9   4    2.68    3.14
   8  10  -3    3.19    3.85
   8  10  -3    1.00    2.15
   8 -10  -3    3.59    2.36
  -8 -10   3   -3.85    1.99
  -8 -10   3   -2.56    2.73
  -8 -10   3   -2.87    1.92
   8 -10  -3    7.28    3.19
   8  10  -2    2.63    2.45
   8  10  -2   -4.33    3.09
   8 -10  -2    0.81    2.36
   8 -10  -2   -0.29    2.14
  -8 -10   2    3.95    3.56
  -8 -10   2    4.27    3.96
  -8 -10   2    2.18    2.64
   8  10  -1    6.81    2.99
   8  10  -1    3.25    2.96
  -8 -10   1   -4.11    2.58
   8 -10  -1    1.74    2.34
  -8 -10   1   -0.01    3.47
   8 -10  -1    1.26    2.34
  -8 -10   1    5.56    2.73
   8  10   0   -0.88    2.36
   8  10   0   -4.93    2.90
   8 -10   0    1.70    2.55
  -8 -10   0   -3.60    3.25
   8 -10   0    0.25    2.16
  -8 -10   0   -1.97    2.30
  -8 -10   0   -0.28    2.71
   8 -10   0    7.15    3.37
   8  10   1   11.71    3.49
   8  10   1   11.99    4.51
  -8 -10  -1   17.32    4.36
   8 -10   1   10.68    4.03
   8 -10   1   18.86    3.88
  -8 -10  -1   14.41    3.75
  -8 -10  -1    2.16    3.80
   8 -10   1   13.63    3.37
   8  10   2   -2.65    2.16
   8  10   2    0.05    2.52
   8 -10   2   -0.63    2.28
   8 -10   2    0.45    1.68
  -8 -10  -2    1.38    2.54
  -8 -10  -2   -4.39    2.19
   8 -10   2    1.94    3.61
   9   0 -10    1.89    1.93
   9   0  -9   -0.37    1.50
   9   0  -8    6.19    1.86
   9   0  -8    5.82    2.13
   9   0  -7    2.20    1.53
  -9   0   7    2.00    1.48
   9   0  -7   -0.24    1.13
   9   0  -6    0.21    1.05
  -9   0   6    0.05    1.46
   9   0  -6    0.19    1.13
  -9   0   5    1.98    1.71
   9   0  -5    0.42    0.86
   9   0  -5   -0.25    0.90
   9   0  -4    4.73    0.99
  -9   0   4    3.78    1.66
   9   0  -4    5.05    0.94
  -9   0   3    0.52    1.34
   9   0  -3   -0.27    0.35
  -9   0   3    0.02    1.35
   9   0  -3   -0.48    0.34
  -9   0   2   -0.29    1.46
  -9   0   2    1.65    1.31
   9   0  -2    2.10    0.29
   9   0  -1    0.36    0.89
   9   0  -1   -0.20    0.43
   9   0  -1    0.94    1.19
  -9   0   1   -0.33    1.35
  -9   0   1    0.07    1.52
   9   0  -1   -0.82    0.40
   9   0   0    6.21    1.79
   9   0   0    5.56    1.06
  -9   0   0    4.05    1.59
   9   0   0    7.96    1.27
   9   0   0    5.29    0.98
   9   0   0    5.56    2.09
  -9   0  -1    0.01    0.67
   9   0   1   -0.23    1.44
   9   0   1    0.70    0.80
  -9   0  -1    0.39    0.71
  -9   0  -1    0.10    1.87
   9   0   1   -1.51    1.16
   9   0   1    0.07    0.90
  -9   0  -2    4.62    1.84
   9   0   2    9.29    1.82
  -9   0  -2   10.30    1.11
  -9   0  -2    9.61    1.61
   9   0   2   10.11    2.39
   9   0   2    9.03    2.45
  -9   0  -2    9.61    1.57
   9   0   3    1.70    1.97
   9   0   3   -1.25    1.03
  -9   0  -3    0.72    1.29
  -9   0  -3    0.34    0.81
  -9   0  -3   -0.83    1.24
   9   0   3   -0.27    1.88
   9   0   4   44.28    5.00
  -9   0  -4   52.48    3.95
   9   0   4   52.73    4.53
  -9   0  -4   43.04    4.08
  -9   0  -4   49.41    5.09
   9   0   5   -0.79    1.48
  -9   0  -5   -0.53    1.89
  -9   0  -5    0.77    1.81
   9   0   5    0.04    2.24
   9   0   6   -2.80    1.86
  -9   0  -6   -0.05    1.75
   9   0   6   -5.10    1.98
  -9   0  -6    0.83    2.05
   9   0   7   -4.91    2.11
  -9   0  -7    1.38    2.33
   9   0   7   -0.92    2.69
  -9   0  -7    2.60    2.35
   9   0   8   10.25    3.95
   9   0   8   17.27    4.18
  -9   0  -8   16.01    3.72
   9   1 -10   -0.07    1.80
   9  -1 -10    0.61    1.79
   9   1  -9    3.88    2.00
   9  -1  -9    5.34    2.07
   9   1  -8   14.92    2.69
   9   1  -8   23.53    3.50
   9  -1  -8   20.02    2.99
  -9  -1   8   27.34    4.46
   9  -1  -8   22.83    4.06
   9   1  -7   40.32    4.01
   9   1  -7   36.47    3.58
  -9  -1   7   45.99    4.71
   9  -1  -7   37.90    3.66
   9  -1  -7   51.04    4.37
   9   1  -6   -0.12    0.99
  -9   1   6    2.96    1.37
   9   1  -6    3.27    1.30
   9  -1  -6    3.22    1.36
   9  -1  -6    3.51    1.47
  -9  -1   6    3.38    1.87
   9   1  -5    0.92    1.14
   9   1  -5    0.11    1.27
   9   1  -5   -0.02    0.87
  -9   1   5   -0.64    1.21
   9  -1  -5   -0.89    0.81
   9  -1  -5    0.32    1.04
  -9  -1   5    0.03    1.59
  -9   1   4   64.39    4.03
   9   1  -4   65.58    3.19
   9   1  -4   55.83    3.09
   9  -1  -4   61.97    3.01
  -9  -1   4   63.29    4.50
   9  -1  -4   64.56    3.05
  -9  -1   4   63.90    3.77
   9   1  -3   10.98    1.15
   9   1  -3   11.70    1.15
   9   1  -3   10.59    1.98
  -9   1   3    8.79    1.96
   9  -1  -3   10.11    0.86
  -9  -1   3   11.06    1.98
  -9  -1   3    8.35    1.97
   9  -1  -3   11.96    0.81
  -9   1   2   82.49    5.21
   9   1  -2   93.40    3.55
   9   1  -2   87.16    3.56
   9   1  -2   81.87    4.66
   9   1  -2   91.43    3.51
  -9  -1   2   88.45    5.25
   9  -1  -2   84.83    4.86
  -9  -1   2   87.70    5.06
   9   1  -1   23.37    3.01
   9   1  -1   28.27    1.70
   9   1  -1   22.51    2.47
   9   1  -1   24.55    1.63
  -9   1   1   25.04    3.20
  -9  -1   1   25.25    3.21
   9  -1  -1   25.21    2.46
   9  -1  -1   25.38    3.01
   9  -1  -1   25.20    1.41
   9  -1  -1   23.53    1.34
  -9  -1   1   23.50    3.00
   9   1   0    0.13    0.99
   9   1   0    0.28    0.69
  -9   1   0    0.46    1.24
   9   1   0   -0.79    1.41
   9  -1   0   -0.03    0.63
   9  -1   0    0.89    1.08
   9  -1   0   -0.23    0.65
  -9  -1   0    0.41    1.65
  -9  -1   0    0.58    1.74
   9  -1   0   -0.91    1.14
  -9  -1   0    0.66    0.49
   9  -1   0   -0.29    0.56
   9   1   1   44.24    3.46
  -9   1  -1   39.81    2.35
   9   1   1   41.88    2.90
   9   1   1   36.06    2.71
  -9   1  -1   39.27    2.18
  -9   1  -1   45.19    3.68
   9  -1   1   39.63    3.19
   9  -1   1   33.97    3.69
  -9  -1  -1   37.23    4.11
  -9  -1  -1   41.15    2.45
  -9  -1  -1   47.12    2.65
   9  -1   1   46.23    2.86
  -9  -1  -1   44.41    2.69
   9   1   2   10.06    1.62
   9   1   2    9.99    2.32
  -9   1  -2   10.73    1.67
   9   1   2    9.90    1.81
  -9   1  -2    7.65    2.50
  -9   1  -2    8.93    1.50
   9   1   2    9.00    2.27
   9  -1   2    8.85    2.59
  -9  -1  -2   13.03    2.57
  -9  -1  -2   11.46    1.78
  -9  -1  -2   12.77    1.84
   9  -1   2   13.84    2.29
   9  -1   2    8.77    1.74
  -9  -1  -2   10.62    1.56
   9   1   3   41.09    4.29
  -9   1  -3   43.01    3.37
  -9   1  -3   46.26    4.60
   9   1   3   38.89    4.53
   9   1   3   46.51    3.72
   9  -1   3   52.47    3.83
  -9  -1  -3   49.56    4.99
   9  -1   3   45.63    4.92
  -9  -1  -3   45.43    3.44
   9  -1   3   43.01    4.34
  -9  -1  -3   52.73    3.63
  -9   1  -4    7.38    2.48
   9   1   4    5.21    2.22
  -9   1  -4    7.09    1.98
  -9   1  -4    8.82    2.13
   9   1   4    2.12    2.09
   9  -1   4    6.47    2.18
  -9  -1  -4    4.76    1.94
  -9  -1  -4    7.02    1.98
   9  -1   4    9.47    3.03
  -9  -1  -4    5.85    1.94
  -9   1  -5   22.32    3.65
  -9   1  -5   17.29    3.03
   9   1   5   14.38    3.29
   9   1   5   20.04    3.94
   9  -1   5   17.74    3.60
  -9  -1  -5   23.08    3.69
   9  -1   5   25.84    4.04
  -9  -1  -5   21.08    3.24
   9   1   6   -2.25    1.81
  -9   1  -6   -1.11    1.74
   9   1   6   -3.05    1.32
  -9   1  -6    0.53    1.84
  -9  -1  -6   -0.61    1.87
  -9  -1  -6   -1.27    1.65
   9  -1   6    0.57    2.44
   9  -1   6   -2.38    1.45
   9   1   7    6.14    3.19
   9   1   7   13.14    4.10
  -9   1  -7    6.95    2.76
  -9   1  -7   16.95    3.86
   9  -1   7   11.21    3.70
  -9  -1  -7   16.67    3.62
   9  -1   7    9.30    3.73
  -9  -1  -7    7.32    2.89
   9   1   8   -0.54    2.99
   9   1   8    5.37    3.71
  -9   1  -8    2.21    2.57
   9  -1   8    2.12    3.30
   9  -1   8    4.38    2.62
  -9  -1  -8    2.61    2.65
   9   2  -9    1.82    2.04
   9   2  -9    3.59    2.39
   9  -2  -9    2.78    1.96
   9   2  -8    0.72    1.48
   9   2  -8   -0.61    1.14
   9   2  -8   -1.26    1.43
   9  -2  -8    1.04    1.72
  -9  -2   8    3.62    2.28
   9   2  -7   -0.77    1.14
   9   2  -7    1.56    1.56
   9   2  -7    2.03    1.50
  -9  -2   7    0.27    1.78
   9  -2  -7    0.62    1.61
   9  -2  -7    0.75    1.25
   9   2  -6   53.61    3.85
   9   2  -6   38.65    4.75
   9   2  -6   57.16    3.81
   9  -2  -6   61.12    3.96
   9  -2  -6   61.60    3.81
  -9  -2   6   55.63    4.91
   9   2  -5    4.04    1.34
   9   2  -5    3.45    2.05
   9   2  -5    6.40    1.48
   9  -2  -5    5.69    1.38
   9  -2  -5    4.86    0.97
   9  -2  -5    9.80    1.69
  -9  -2   5    6.14    2.29
   9   2  -4   54.66    3.17
   9   2  -4   54.21    3.18
   9   2  -4   56.31    4.25
  -9  -2   4   61.28    4.79
  -9  -2   4   59.40    3.61
   9  -2  -4   57.43    3.00
   9  -2  -4   54.55    3.17
   9  -2  -4   50.57    2.88
   9   2  -3   -0.41    0.75
   9   2  -3    1.01    0.80
   9   2  -3   -1.09    1.52
   9  -2  -3   -1.00    0.56
  -9  -2   3   -2.62    1.63
   9  -2  -3    0.99    1.08
  -9  -2   3   -0.53    1.22
   9  -2  -3    0.39    0.63
   9   2  -2   21.69    2.87
   9   2  -2   19.21    1.80
   9   2  -2   21.61    1.88
   9  -2  -2   22.10    2.16
  -9  -2   2   19.78    2.90
  -9  -2   2   21.22    2.78
   9  -2  -2   21.81    2.53
   9   2  -1   11.07    1.38
   9   2  -1    6.74    1.87
   9   2  -1   11.03    2.10
  -9  -2   1    6.85    0.80
  -9  -2   1    9.09    1.99
  -9  -2   1    8.95    2.44
   9  -2  -1    7.95    1.04
   9  -2  -1    7.85    1.96
   9  -2  -1    8.09    1.10
   9  -2  -1    6.88    1.37
   9   2   0   60.42    3.31
   9   2   0   54.78    4.05
   9   2   0   61.87    3.95
  -9   2   0   61.08    4.65
  -9  -2   0   57.63    2.67
   9  -2   0   63.53    2.67
  -9  -2   0   61.50    3.00
   9  -2   0   48.63    3.91
   9  -2   0   59.64    3.35
  -9  -2   0   49.69    4.41
   9  -2   0   61.53    3.16
  -9  -2   0   60.48    2.78
  -9  -2   0   53.53    4.18
   9   2   1    9.07    2.00
   9   2   1    6.83    1.57
   9   2   1   12.16    2.63
  -9   2  -1    9.45    2.29
  -9   2  -1    9.89    1.28
  -9   2  -1    8.12    1.30
  -9  -2  -1    8.47    2.25
  -9  -2  -1    7.38    1.51
   9  -2   1    6.93    1.69
  -9  -2  -1    8.23    2.46
  -9  -2  -1    9.56    1.52
   9  -2   1    9.74    1.60
   9  -2   1    7.08    2.04
   9   2   2   46.48    4.56
   9   2   2   41.82    3.26
   9   2   2   47.58    3.43
  -9   2  -2   38.51    2.75
  -9   2  -2   41.03    2.85
  -9   2  -2   41.01    4.42
  -9  -2  -2   37.99    3.29
   9  -2   2   39.58    3.13
  -9  -2  -2   31.92    4.02
   9  -2   2   40.04    4.31
   9  -2   2   43.81    3.57
   9   2   3   27.54    3.80
   9   2   3   37.67    3.73
  -9   2  -3   31.11    3.97
   9   2   3   27.48    2.87
   9   2   3   21.67    3.42
  -9   2  -3   26.90    2.80
   9  -2   3   29.42    3.25
  -9  -2  -3   20.55    3.74
   9  -2   3   27.58    3.54
   9  -2   3   28.45    4.24
  -9  -2  -3   27.16    3.12
  -9  -2  -3   27.97    3.14
   9   2   4   12.18    2.73
  -9   2  -4   13.31    2.96
  -9   2  -4   12.96    2.39
  -9   2  -4   17.54    2.69
   9   2   4   12.12    2.88
  -9  -2  -4   16.31    2.75
  -9  -2  -4   13.82    2.61
   9  -2   4   14.90    3.11
   9  -2   4    9.99    3.34
  -9  -2  -4   11.20    3.13
   9   2   5   31.45    4.57
   9   2   5   32.23    4.32
  -9   2  -5   29.06    4.02
  -9   2  -5   28.19    3.68
   9  -2   5   32.39    4.63
  -9  -2  -5   30.71    3.84
   9  -2   5   26.86    4.18
  -9  -2  -5   31.58    4.61
  -9   2  -6    1.15    1.89
   9   2   6   -0.36    2.08
   9   2   6    2.49    2.86
  -9   2  -6    5.39    2.27
  -9  -2  -6    0.14    2.18
   9  -2   6   -3.21    2.36
  -9  -2  -6    0.36    1.89
   9  -2   6   -2.53    2.25
  -9   2  -7    4.10    2.48
   9   2   7    1.38    3.03
   9   2   7    9.06    3.21
   9  -2   7    3.30    3.23
  -9  -2  -7    3.87    2.59
   9  -2   7    2.72    2.34
  -9  -2  -7    3.19    2.53
   9   2   8    1.51    3.06
  -9   2  -8   -0.05    2.42
  -9  -2  -8    1.38    2.62
   9  -2   8   -1.87    2.77
   9   3  -9    6.09    2.91
   9   3  -9    2.03    1.92
   9  -3  -9    4.04    2.21
   9   3  -8    8.26    2.70
   9   3  -8    8.41    2.75
   9   3  -8   13.55    2.69
   9  -3  -8   11.16    2.48
  -9  -3   8   11.57    3.42
   9   3  -7   14.15    2.69
   9   3  -7   12.67    3.10
   9   3  -7   10.24    2.19
   9  -3  -7   11.53    2.54
  -9  -3   7   10.99    3.25
   9  -3  -7   12.60    2.39
   9   3  -6   18.93    2.71
   9   3  -6   15.72    3.13
   9   3  -6   13.16    2.33
   9  -3  -6   19.92    2.73
  -9  -3   6   20.15    3.75
   9  -3  -6   19.62    2.51
   9   3  -5    0.21    1.40
   9   3  -5   -0.87    0.90
   9   3  -5    1.15    1.27
   9  -3  -5    0.97    1.01
  -9  -3   5    2.20    1.05
   9  -3  -5   -0.15    1.12
  -9  -3   5   -0.74    1.27
   9   3  -4    4.65    1.46
   9   3  -4    1.94    1.12
   9   3  -4    2.06    1.60
   9  -3  -4    2.52    1.08
  -9  -3   4    1.69    1.81
  -9  -3   4    1.75    1.29
   9  -3  -4    3.28    1.25
   9  -3  -4    3.58    1.15
   9   3  -3   38.85    2.79
   9   3  -3   39.32    2.69
   9   3  -3   45.37    3.76
   9  -3  -3   39.86    2.99
  -9  -3   3   38.15    3.67
   9  -3  -3   36.79    2.49
   9  -3  -3   42.92    2.64
  -9  -3   3   39.50    4.41
   9   3  -2  113.03    6.39
   9  -3  -2  116.87    4.92
  -9  -3   2  116.65    6.36
   9  -3  -2  118.07    5.10
   9  -3  -2  122.20    6.00
  -9  -3   2  105.38    6.61
  -9  -3   2  125.88    4.88
  -9  -3   2  124.18    4.28
   9   3  -1    4.60    1.26
   9   3  -1    6.52    1.83
   9   3  -1    6.68    1.93
  -9  -3   1    6.06    1.08
  -9  -3   1    5.36    0.90
   9  -3  -1    8.42    2.07
   9  -3  -1    7.65    1.17
   9  -3  -1    5.38    1.17
   9  -3  -1    5.02    1.35
  -9  -3   1    4.30    2.21
  -9  -3   1    8.99    1.30
  -9  -3   1    5.82    1.99
   9   3   0   98.58    5.86
   9   3   0  100.51    5.81
   9   3   0  101.19    5.12
  -9  -3   0   91.44    5.89
  -9  -3   0  104.31    4.54
  -9  -3   0  104.32    4.76
  -9  -3   0  102.51    6.38
   9  -3   0  104.62    4.28
   9  -3   0  101.48    4.90
  -9  -3   0  104.15    4.68
   9  -3   0  101.96    4.63
   9  -3   0   92.08    5.94
   9   3   1    2.14    1.88
  -9   3  -1    3.16    1.14
   9   3   1    4.22    1.49
   9   3   1    3.93    1.56
  -9  -3  -1    2.87    1.87
   9  -3   1    3.41    1.42
   9  -3   1    3.13    1.27
  -9  -3  -1    3.95    1.36
   9  -3   1    3.03    1.87
  -9  -3  -1    1.99    1.49
  -9  -3  -1    5.10    1.59
  -9   3  -2   -0.34    1.10
   9   3   2    0.85    1.52
  -9   3  -2   -0.68    0.96
   9   3   2    1.02    1.53
   9   3   2   -0.04    0.92
  -9  -3  -2   -0.75    2.06
  -9  -3  -2    0.78    1.83
   9  -3   2    0.94    2.28
  -9  -3  -2    0.56    1.32
   9  -3   2   -1.31    1.39
   9  -3   2    1.08    1.21
   9   3   3   21.19    3.04
  -9   3  -3   16.31    2.41
   9   3   3   19.02    3.58
  -9   3  -3   22.64    3.24
   9   3   3   19.16    3.27
  -9  -3  -3   21.04    2.91
   9  -3   3   19.67    3.50
   9  -3   3   20.19    3.04
  -9  -3  -3   15.75    3.18
  -9  -3  -3   19.20    2.79
  -9   3  -4   73.46    4.71
   9   3   4   74.88    5.51
   9   3   4   67.68    5.55
  -9  -3  -4   68.82    5.61
  -9  -3  -4   74.81    5.12
   9  -3   4   57.24    6.07
   9  -3   4   69.10    5.30
  -9  -3  -4   64.11    4.62
  -9   3  -5    1.18    1.67
   9   3   5    1.41    1.89
   9   3   5   -1.17    2.45
  -9  -3  -5    0.76    2.35
  -9  -3  -5    1.12    2.04
   9  -3   5    0.63    2.03
   9  -3   5    1.84    2.32
  -9   3  -6    0.48    1.95
   9   3   6    1.04    2.14
   9   3   6   -0.44    2.06
  -9  -3  -6    2.33    2.51
  -9  -3  -6   -0.91    2.08
   9  -3   6    2.81    2.52
   9  -3   6    0.36    2.22
  -9   3  -7   10.30    3.10
   9   3   7    8.57    3.62
   9   3   7    3.39    2.74
  -9  -3  -7   10.24    3.45
  -9  -3  -7    4.63    2.77
   9  -3   7    2.39    2.57
   9   3   8   16.01    4.77
  -9   3  -8   14.78    3.67
   9  -3   8   12.00    4.51
  -9  -3  -8   17.38    3.95
   9   4  -9   38.07    5.94
   9   4  -9   32.22    4.42
  -9  -4   9   32.46    5.29
   9  -4  -9   36.01    4.62
   9   4  -8   10.20    2.81
   9   4  -8   12.16    3.68
   9   4  -8   10.65    2.75
  -9  -4   8   12.28    3.69
   9  -4  -8   12.39    2.74
   9   4  -7    2.04    2.36
   9   4  -7    1.96    1.83
   9   4  -7    0.01    1.34
   9  -4  -7   -0.98    1.52
  -9  -4   7    1.91    2.01
   9  -4  -7    3.25    1.73
   9   4  -6    5.22    1.72
   9   4  -6    2.42    2.44
   9   4  -6    3.21    1.64
  -9  -4   6    0.80    1.70
   9  -4  -6    3.82    1.52
   9  -4  -6    5.78    1.93
   9   4  -5   15.74    3.06
   9   4  -5   15.54    2.40
   9   4  -5   16.74    2.62
  -9  -4   5   16.92    1.61
   9  -4  -5   17.73    2.63
  -9  -4   5   19.91    2.28
  -9  -4   5   20.12    3.92
   9  -4  -5   20.11    2.51
   9   4  -4   24.14    2.82
   9   4  -4   17.00    2.34
   9   4  -4   21.40    3.40
  -9  -4   4   14.86    3.47
   9  -4  -4   17.48    2.23
   9  -4  -4   22.22    2.62
   9  -4  -4   20.24    1.90
  -9  -4   4   20.62    2.65
  -9  -4   4   20.16    1.75
   9   4  -3   42.13    4.72
   9   4  -3   37.83    3.10
  -9  -4   3   42.73    3.64
   9  -4  -3   40.36    3.01
  -9  -4   3   48.04    2.82
  -9  -4   3   37.05    4.57
  -9  -4   3   45.71    2.45
   9  -4  -3   37.97    3.14
  -9  -4   3   42.91    2.56
   9  -4  -3   39.68    2.91
   9  -4  -3   46.04    2.38
   9   4  -2    5.37    2.43
  -9  -4   2    7.23    1.43
   9  -4  -2    7.75    1.53
  -9  -4   2    4.46    2.11
   9  -4  -2    5.34    1.34
  -9  -4   2    6.43    2.23
  -9  -4   2    7.67    1.42
  -9  -4   2    6.49    1.16
   9  -4  -2    6.60    1.95
   9   4  -1    8.43    2.53
   9   4  -1   10.09    1.85
   9   4  -1    5.96    2.04
  -9  -4   1    9.30    1.66
  -9  -4   1   10.64    1.68
  -9  -4   1   13.99    2.80
  -9  -4   1   12.11    1.57
   9  -4  -1   13.24    1.92
   9  -4  -1    9.33    2.31
  -9  -4   1    8.26    2.34
   9   4   0   27.44    2.93
   9   4   0   26.07    3.52
   9   4   0   30.18    3.66
  -9  -4   0   23.19    2.54
  -9  -4   0   21.10    3.47
   9  -4   0   25.68    1.68
  -9  -4   0   23.79    3.73
   9  -4   0   25.30    2.28
   9  -4   0   26.92    2.74
   9  -4   0   24.54    3.33
  -9  -4   0   24.83    2.60
   9   4   1   30.55    3.35
  -9   4  -1   31.56    2.23
   9   4   1   34.18    4.02
   9   4   1   33.76    4.18
   9  -4   1   30.61    4.19
   9  -4   1   30.13    3.16
  -9  -4  -1   33.68    4.10
  -9  -4  -1   29.18    4.02
  -9  -4  -1   32.35    3.20
   9  -4   1   33.13    1.49
   9  -4   1   32.90    2.50
   9   4   2   19.15    3.33
   9   4   2   21.02    3.35
  -9   4  -2   19.06    2.47
   9  -4   2   19.66    3.88
  -9  -4  -2   19.62    3.90
  -9  -4  -2   19.52    3.35
  -9  -4  -2   22.80    2.91
  -9  -4  -2   17.74    2.68
   9  -4   2   22.65    2.59
  -9   4  -3    8.83    1.98
   9   4   3    1.45    2.32
   9   4   3    6.50    2.47
  -9  -4  -3    5.79    1.89
   9  -4   3    1.75    2.75
  -9  -4  -3    4.04    2.88
   9  -4   3    5.66    1.88
  -9  -4  -3    3.97    1.99
   9   4   4   -1.52    1.48
  -9   4  -4    1.90    1.67
   9   4   4    0.26    1.64
   9  -4   4   -0.05    1.87
  -9  -4  -4    2.57    1.90
  -9  -4  -4    0.55    2.49
  -9   4  -5   34.45    4.09
   9   4   5   44.37    5.04
   9   4   5   37.90    5.60
   9  -4   5   33.61    5.75
  -9  -4  -5   43.60    4.92
  -9  -4  -5   38.90    5.26
  -9   4  -6   11.74    2.96
   9   4   6    5.90    3.26
   9   4   6   13.83    3.28
  -9  -4  -6   10.90    3.71
   9  -4   6   11.12    4.19
  -9  -4  -6   11.53    2.78
   9   4   7   14.00    4.54
  -9   4  -7   15.42    3.53
  -9  -4  -7   19.37    3.81
   9  -4   7   16.01    4.85
  -9  -4  -7   25.84    5.09
  -9  -5   9    3.42    3.14
   9   5  -8    7.20    2.43
   9   5  -8   13.63    3.91
   9   5  -8   13.12    3.35
   9  -5  -8   14.06    2.87
  -9  -5   8    4.87    3.19
   9   5  -7    1.32    1.89
   9   5  -7    1.49    1.66
   9   5  -7    1.40    1.85
   9  -5  -7   -2.02    1.37
  -9  -5   7    4.22    2.99
   9   5  -6    5.46    1.95
   9   5  -6    4.56    2.05
   9   5  -6    9.40    2.76
   9  -5  -6    3.85    1.68
   9  -5  -6    7.80    2.44
  -9  -5   6   10.14    3.60
   9   5  -5    3.25    1.71
   9   5  -5    8.23    2.82
   9   5  -5    3.19    1.72
  -9  -5   5    3.62    1.38
   9  -5  -5    4.61    2.05
   9  -5  -5    0.26    1.24
  -9  -5   5    2.21    2.11
  -9  -5   5   -0.60    2.34
   9   5  -4    4.04    1.71
   9   5  -4   -0.25    2.14
   9   5  -4    5.71    1.73
  -9  -5   4    7.34    3.09
  -9  -5   4    4.51    1.48
  -9  -5   4    3.21    1.56
   9  -5  -4    5.46    1.71
   9  -5  -4    5.09    1.68
   9   5  -3   27.49    4.00
  -9  -5   3   30.24    3.77
   9  -5  -3   32.06    3.27
  -9  -5   3   27.98    2.68
   9  -5  -3   30.47    2.97
   9  -5  -3   28.14    3.05
  -9  -5   3   28.12    4.20
   9   5  -2    2.71    2.32
   9   5  -2    3.74    1.82
   9  -5  -2    1.45    1.32
   9  -5  -2    2.39    1.71
   9  -5  -2    3.23    1.36
  -9  -5   2    1.07    1.81
   9  -5  -2    2.57    1.29
  -9  -5   2    2.46    1.40
  -9  -5   2    0.16    1.69
   9   5  -1   57.64    4.86
   9   5  -1   62.25    5.91
  -9  -5   1   61.40    3.97
   9  -5  -1   55.66    4.65
  -9  -5   1   64.49    3.97
  -9  -5   1   60.63    5.09
   9  -5  -1   62.16    4.02
  -9  -5   1   56.09    5.80
   9   5   0   40.55    4.68
   9   5   0   44.43    4.87
  -9  -5   0   44.89    4.98
   9  -5   0   43.03    3.47
  -9  -5   0   45.23    3.91
   9  -5   0   40.57    4.43
  -9  -5   0   43.14    4.94
   9   5   1   27.66    3.98
   9   5   1   25.17    3.65
  -9  -5  -1   25.09    3.14
  -9  -5  -1   27.94    4.20
  -9  -5  -1   26.49    3.19
   9  -5   1   23.91    3.74
  -9  -5  -1   27.89    4.01
   9   5   2    2.10    2.29
   9   5   2    0.64    1.67
  -9  -5  -2    1.73    1.64
  -9  -5  -2    0.01    1.88
  -9  -5  -2   -2.14    2.31
   9  -5   2   -0.57    2.55
   9   5   3   -0.22    2.11
  -9   5  -3    0.56    1.48
   9   5   3   -1.65    2.05
  -9  -5  -3    3.98    2.97
  -9  -5  -3    1.80    1.82
   9  -5   3   -1.44    1.80
  -9  -5  -3    2.04    1.92
   9   5   4    2.08    2.39
   9   5   4    1.49    1.69
   9   5   4    2.65    2.80
  -9   5  -4    1.85    1.71
   9  -5   4   -0.21    2.08
  -9  -5  -4    4.74    2.44
  -9  -5  -4    0.19    2.51
  -9   5  -5   -0.11    1.80
   9   5   5    3.26    2.22
   9   5   5    1.63    2.62
   9  -5   5   -1.04    2.97
  -9  -5  -5    2.00    2.25
  -9  -5  -5    3.24    2.29
   9   5   6    6.34    3.59
   9   5   6   10.09    2.99
  -9   5  -6   13.92    3.43
  -9  -5  -6   10.94    3.27
   9  -5   6    3.41    2.91
  -9  -5  -6    8.71    3.76
  -9   5  -7   -3.22    1.83
   9   5   7   -1.07    1.74
  -9  -5  -7   -0.99    2.30
   9  -5   7   -3.41    3.26
  -9  -5  -7    0.00    2.86
   9   6  -8   15.08    4.45
   9   6  -8   16.18    3.47
   9   6  -8   14.71    3.61
  -9  -6   8   22.51    5.08
   9  -6  -8   19.57    3.66
   9   6  -7    5.25    2.73
   9   6  -7    2.05    2.54
   9   6  -7    5.30    2.35
  -9  -6   7    1.70    2.42
   9  -6  -7    1.36    2.03
   9   6  -6   -2.58    1.31
   9   6  -6    1.96    1.80
   9   6  -6    0.08    1.81
  -9  -6   6    3.80    2.59
   9  -6  -6    3.25    1.83
   9  -6  -6    3.38    2.24
   9   6  -5   21.23    3.25
   9   6  -5   21.64    3.47
   9   6  -5   17.52    3.93
   9  -6  -5   19.44    3.28
   9  -6  -5   18.11    3.01
  -9  -6   5   21.70    4.64
   9   6  -4   37.75    5.31
   9   6  -4   42.13    4.39
   9  -6  -4   43.90    4.29
  -9  -6   4   46.51    4.48
  -9  -6   4   45.23    3.47
   9  -6  -4   42.21    4.35
  -9  -6   4   32.35    5.03
   9   6  -3   11.66    3.03
   9  -6  -3   12.81    2.38
   9  -6  -3   16.99    2.57
  -9  -6   3   17.33    2.61
  -9  -6   3   19.03    3.21
  -9  -6   3   18.42    3.98
   9  -6  -3   17.93    2.83
   9   6  -2    6.79    2.56
   9   6  -2   10.17    2.88
  -9  -6   2    5.49    2.59
  -9  -6   2    6.02    2.11
   9  -6  -2   10.23    2.48
  -9  -6   2    7.10    2.07
   9  -6  -2    7.89    2.08
   9  -6  -2    5.92    1.84
   9   6  -1    8.55    2.99
   9   6  -1   11.26    2.92
  -9  -6   1   10.54    2.80
  -9  -6   1   10.72    2.31
   9  -6  -1    8.31    1.98
   9  -6  -1    9.61    2.60
  -9  -6   1    3.41    2.64
   9   6   0   29.27    4.40
   9   6   0   23.13    3.69
  -9  -6   0   26.92    4.55
  -9  -6   0   30.44    3.52
  -9  -6   0   30.80    4.53
   9  -6   0   34.22    4.47
   9   6   1    7.20    2.51
   9   6   1    9.43    2.91
   9  -6   1    8.41    2.70
  -9  -6  -1    8.20    2.44
  -9  -6  -1    8.04    3.21
  -9  -6  -1    4.77    2.13
   9   6   2   46.69    5.25
   9   6   2   38.57    5.01
  -9  -6  -2   40.23    4.45
   9  -6   2   37.90    5.14
  -9  -6  -2   43.20    5.08
  -9  -6  -2   31.85    4.95
   9   6   3    5.76    2.86
   9   6   3    2.97    2.64
  -9   6  -3    5.25    2.03
  -9  -6  -3    6.40    2.92
  -9  -6  -3    6.89    2.51
   9  -6   3    1.40    3.01
  -9  -6  -3    2.70    2.17
   9   6   4   -1.26    2.45
   9   6   4    1.18    1.83
  -9   6  -4    3.32    1.92
  -9  -6  -4    1.25    2.19
  -9  -6  -4    0.64    2.17
   9  -6   4   -0.25    2.29
  -9   6  -5    8.09    2.59
   9   6   5    3.73    2.54
   9   6   5    0.81    2.19
  -9  -6  -5   -0.46    2.27
   9  -6   5   -0.47    2.66
  -9  -6  -5    5.61    3.53
  -9   6  -6   15.73    3.62
   9   6   6   15.20    4.51
  -9  -6  -6   22.01    5.26
  -9  -6  -6   23.56    4.33
   9  -6   6   12.46    4.56
   9   7  -7   -0.82    1.87
   9   7  -7   -0.60    2.01
   9   7  -7    2.21    2.46
  -9  -7   7   -0.84    2.06
   9  -7  -7    1.79    1.96
   9   7  -6   -1.82    1.95
   9   7  -6    9.83    2.86
   9   7  -6    4.72    2.74
   9  -7  -6    9.35    3.05
   9  -7  -6    8.04    2.55
  -9  -7   6    7.80    3.32
   9   7  -5    2.35    3.19
   9   7  -5   -1.05    1.95
   9  -7  -5    0.38    1.76
   9  -7  -5    3.54    2.13
  -9  -7   5    1.84    1.76
  -9  -7   5    2.89    3.13
   9   7  -4   -0.55    2.56
  -9  -7   4    1.07    2.15
  -9  -7   4    0.59    1.69
  -9  -7   4    2.22    1.71
   9  -7  -4   -1.11    1.44
   9  -7  -4    3.61    1.90
   9   7  -3   -0.35    2.00
   9  -7  -3    0.25    1.64
  -9  -7   3   -1.11    1.52
  -9  -7   3   -0.38    2.04
  -9  -7   3   -1.06    2.48
   9  -7  -3   -0.65    1.38
   9   7  -2   41.52    5.61
   9   7  -2   38.90    4.94
  -9  -7   2   45.71    4.35
   9  -7  -2   46.89    4.79
  -9  -7   2   40.01    5.54
   9  -7  -2   45.68    4.60
  -9  -7   2   43.28    5.36
   9  -7  -2   42.43    4.36
   9   7  -1   -1.20    1.84
   9   7  -1    1.19    1.39
   9  -7  -1   -1.05    1.40
  -9  -7   1   -1.88    1.77
   9  -7  -1    0.58    1.86
   9  -7  -1    1.16    1.86
  -9  -7   1    1.83    1.95
  -9  -7   1   -1.49    1.58
   9   7   0   20.89    4.25
   9   7   0   30.69    4.17
  -9  -7   0   23.71    4.22
  -9  -7   0   23.86    4.59
   9  -7   0   19.63    3.95
  -9  -7   0   25.88    3.54
   9   7   1   -2.46    1.80
   9   7   1    1.84    2.09
   9  -7   1    1.91    2.88
  -9  -7  -1    0.60    2.90
  -9  -7  -1    4.54    2.59
  -9  -7  -1   -0.06    1.80
   9   7   2    0.33    1.93
   9   7   2   -2.56    1.80
  -9  -7  -2    3.02    2.26
  -9  -7  -2   -0.44    2.04
  -9  -7  -2    1.31    2.03
   9  -7   2    2.50    3.02
   9   7   3    5.17    2.91
   9   7   3    2.03    2.16
  -9  -7  -3    4.12    2.48
  -9  -7  -3    6.05    2.55
   9  -7   3    3.52    3.32
  -9  -7  -3    3.70    2.75
   9   7   4   15.89    4.33
  -9   7  -4   21.43    3.66
   9   7   4   24.41    4.76
  -9  -7  -4   20.62    4.79
  -9  -7  -4   15.86    3.39
   9  -7   4   20.99    4.72
  -9   7  -5    5.84    2.45
   9   7   5   -0.53    2.03
  -9  -7  -5    2.81    2.75
  -9  -7  -5    7.24    3.98
   9  -7   5    1.26    3.76
  -9   7  -6   -2.04    2.10
   9   7   6   -1.05    2.85
  -9  -7  -6    0.95    2.57
  -9  -7  -6    1.09    3.21
   9  -7   6    2.93    4.08
   9   8  -6    7.19    3.53
  -9  -8   6    9.90    4.35
   9  -8  -6    2.08    2.30
   9   8  -5   22.86    5.35
  -9  -8   5   28.00    5.81
   9  -8  -5   34.04    4.53
   9  -8  -5   34.27    4.99
  -9  -8   5   28.05    3.85
   9   8  -4    8.12    3.87
  -9  -8   4   19.84    4.99
  -9  -8   4   11.17    3.90
   9  -8  -4   14.44    3.20
  -9  -8   4   10.52    2.75
   9  -8  -4    9.17    2.72
   9   8  -3    6.74    3.50
   9   8  -3    4.56    2.40
  -9  -8   3    0.82    2.04
   9  -8  -3    5.03    2.23
   9  -8  -3    3.42    2.14
  -9  -8   3    1.40    2.44
  -9  -8   3    0.41    3.06
   9   8  -2    6.00    2.26
   9   8  -2    3.87    2.68
  -9  -8   2    4.21    2.67
  -9  -8   2    6.60    2.40
   9  -8  -2    7.78    2.31
  -9  -8   2   10.44    3.08
   9  -8  -2   11.98    2.87
   9   8  -1   15.32    3.49
   9   8  -1    6.76    2.91
   9  -8  -1   11.67    2.77
  -9  -8   1    7.98    3.58
  -9  -8   1    7.90    2.50
  -9  -8   1    6.18    2.74
   9  -8  -1   11.38    3.12
   9  -8  -1    8.49    2.50
   9   8   0   -1.71    1.98
   9   8   0    2.36    2.30
  -9  -8   0   -1.65    2.47
  -9  -8   0   -0.97    2.06
  -9  -8   0   -0.56    1.83
   9  -8   0   -2.00    1.66
   9  -8   0    4.53    2.71
   9  -8   0   -1.43    1.55
   9   8   1   18.23    4.41
   9   8   1   24.42    4.38
   9  -8   1   22.21    4.48
  -9  -8  -1   28.76    4.79
  -9  -8  -1   22.61    3.83
  -9  -8  -1   18.19    4.40
   9   8   2   -2.85    1.72
   9   8   2    1.93    2.54
   9  -8   2   -2.40    3.08
  -9  -8  -2    1.19    2.43
  -9  -8  -2    3.74    2.42
  -9  -8  -2   -4.35    2.74
   9   8   3   -5.53    2.43
   9   8   3   -4.18    2.03
   9  -8   3   -2.09    3.06
  -9  -8  -3   -1.49    2.15
  -9  -8  -3   -1.85    2.34
  -9  -8  -3   -0.81    3.59
   9   8   4    2.46    2.21
   9   8   4    3.38    2.56
   9  -8   4   -1.91    3.56
  -9  -8  -4   -2.47    3.36
  -9  -8  -4   -0.87    2.28
   9   8   5    1.58    3.22
  -9  -8  -5    1.17    3.11
  -9  -8  -5    0.50    2.86
   9  -8   5   -1.93    2.78
   9   9  -5    1.81    3.65
  -9  -9   5    0.11    2.09
   9  -9  -5   -2.11    1.78
   9  -9  -5   -1.03    2.35
   9   9  -4    2.43    1.64
   9   9  -4   -1.79    2.45
   9  -9  -4   -4.65    1.40
  -9  -9   4    1.82    2.32
   9  -9  -4    0.11    2.11
  -9  -9   4    4.46    3.65
   9   9  -3   16.75    3.95
   9   9  -3    6.31    3.25
  -9  -9   3   18.96    4.52
  -9  -9   3   16.39    4.74
  -9  -9   3   12.04    3.00
   9  -9  -3    9.76    3.08
   9  -9  -3   10.66    3.23
   9   9  -2    0.58    2.08
   9   9  -2   -3.66    2.58
  -9  -9   2   -0.81    3.07
  -9  -9   2   -4.02    2.49
   9  -9  -2   -3.00    1.78
  -9  -9   2   -0.53    1.89
   9  -9  -2    2.35    2.12
   9   9  -1   30.62    5.40
   9   9  -1   33.45    5.07
   9  -9  -1   35.40    4.77
  -9  -9   1   41.53    6.37
   9  -9  -1   35.90    5.22
  -9  -9   1   31.39    5.30
  -9  -9   1   34.55    4.60
   9  -9  -1   39.64    5.23
   9   9   0    4.92    2.77
   9   9   0    2.76    3.64
   9  -9   0    5.24    3.19
  -9  -9   0    6.21    3.41
  -9  -9   0    6.12    3.29
  -9  -9   0    4.32    2.54
   9  -9   0    9.08    3.11
   9  -9   0    6.79    2.76
   9   9   1    3.73    2.74
   9   9   1    0.59    3.21
  -9  -9  -1    1.57    2.41
  -9  -9  -1    1.79    2.86
   9  -9   1   -0.35    2.17
   9  -9   1    1.02    2.16
   9  -9   1    1.49    1.80
  -9  -9  -1   -0.04    2.70
   9   9   2    1.38    2.84
   9   9   2    2.86    2.56
  -9  -9  -2    0.97    3.66
  -9  -9  -2    5.62    3.23
  -9  -9  -2    5.78    2.79
   9  -9   2   10.10    4.14
   9   9   3   34.64    5.70
   9   9   3   31.81    5.36
  -9  -9  -3   47.52    5.96
  -9  -9  -3   26.18    6.43
   9  -9   3   39.81    6.27
   9  10  -3    4.92    3.99
   9  10  -3    6.51    2.83
   9 -10  -3    4.67    2.90
   9 -10  -3   10.04    3.26
  -9 -10   3    9.36    4.26
  -9 -10   3   10.58    3.14
   9  10  -2    2.85    3.84
   9  10  -2    0.64    2.17
   9 -10  -2    4.74    2.80
  -9 -10   2    4.28    3.49
  -9 -10   2   -0.24    2.16
  -9 -10   2   -3.88    1.83
   9 -10  -2    0.85    2.21
   9  10  -1    1.29    2.51
   9  10  -1    0.38    3.68
  -9 -10   1    7.80    3.69
  -9 -10   1   -1.81    2.44
  -9 -10   1   -2.72    3.17
   9 -10  -1    2.45    2.26
   9 -10  -1    1.42    2.32
   9  10   0   -0.38    2.47
   9  10   0   -2.30    3.17
   9 -10   0    2.93    2.24
  -9 -10   0   -4.79    1.87
   9 -10   0    1.79    2.62
  -9 -10   0   -0.91    2.47
  -9 -10   0    1.96    2.45
   9 -10   0   -0.02    2.80
   9  10   1   -1.41    2.31
   9  10   1    4.14    3.12
  -9 -10  -1   -1.71    3.35
   9 -10   1    7.23    3.20
  -9 -10  -1   -1.36    2.46
   9 -10   1    2.62    2.76
   9 -10   1   10.83    3.99
  -9 -10  -1   12.55    4.06
  10   0 -10    2.10    2.15
  10   0  -9    0.61    1.68
  10   0  -8    5.24    1.90
 -10   0   7   -0.04    1.33
  10   0  -7   -0.96    1.09
  10   0  -7   -0.08    1.49
  10   0  -6    7.49    1.60
  10   0  -6    5.67    1.41
 -10   0   6    7.67    2.11
 -10   0   5    0.67    1.47
  10   0  -5    0.98    0.96
  10   0  -5    0.34    0.82
  10   0  -4    2.46    0.77
 -10   0   4    4.95    1.77
  10   0  -4    3.20    0.75
  10   0  -3   -0.04    0.32
 -10   0   3    0.56    1.32
  10   0  -3    0.38    0.30
 -10   0   3   -0.91    1.04
  10   0  -2    4.01    1.42
 -10   0   2    6.28    1.76
  10   0  -2    4.88    0.49
 -10   0   2    5.87    2.06
 -10   0   1   -2.06    0.93
  10   0  -1    0.10    0.50
  10   0  -1   -0.86    1.28
  10   0  -1    0.08    0.89
  10   0  -1   -0.16    0.48
 -10   0   1   -0.91    1.63
  10   0   0   20.89    2.09
  10   0   0   24.19    3.19
  10   0   0   24.89    1.88
  10   0   0   25.54    3.00
 -10   0   0   22.37    3.05
  10   0   1    1.11    0.87
 -10   0  -1   -0.56    0.64
 -10   0  -1   -3.76    1.72
 -10   0  -1   -1.44    0.60
  10   0   1   -0.17    1.54
  10   0   1    0.76    0.98
  10   0   1   -4.48    1.59
 -10   0  -2   16.69    2.00
 -10   0  -2   14.51    1.92
  10   0   2   22.15    3.44
  10   0   2   14.55    2.79
 -10   0  -2   15.74    2.89
 -10   0  -2   20.16    1.41
  10   0   2   18.29    2.38
  10   0   3   -0.77    1.97
  10   0   3   -0.42    1.38
 -10   0  -3    0.97    0.76
 -10   0  -3   -1.96    1.22
  10   0   3    0.34    1.49
 -10   0  -3    3.15    1.41
  10   0   4   12.33    3.20
 -10   0  -4   18.43    2.71
 -10   0  -4   13.45    3.20
  10   0   4   10.01    3.06
  10   0   5   -2.00    1.96
  10   0   5   -1.61    1.90
 -10   0  -5   -1.72    1.84
 -10   0  -5    2.17    1.77
  10   0   6   30.51    4.60
 -10   0  -6   25.47    3.78
 -10   0  -6   21.61    3.99
  10   0   6   28.74    4.92
  10   0   7    1.23    2.32
 -10   0  -7   -2.21    1.79
  10   0   7   -1.15    1.83
 -10   0  -7   -1.48    1.95
  10   0   8    3.97    3.43
 -10   0  -8    3.43    2.58
  10   0   8    4.39    3.46
  10   1  -9    9.08    2.49
  10  -1  -9    5.07    2.10
  10   1  -8   19.66    2.90
  10  -1  -8   15.89    2.68
  10   1  -7   20.84    2.89
  10   1  -7   18.11    2.53
  10  -1  -7   16.29    2.39
 -10  -1   7   19.50    3.23
  10   1  -6   64.15    3.96
  10   1  -6   67.53    4.09
 -10   1   6   70.09    4.37
 -10  -1   6   73.31    5.29
  10  -1  -6   59.99    3.84
  10  -1  -6   76.57    4.22
  10   1  -5   39.22    2.71
 -10   1   5   38.94    3.30
  10   1  -5   38.11    2.65
  10  -1  -5   44.59    2.67
 -10  -1   5   42.64    4.35
  10  -1  -5   41.60    2.74
  10   1  -4    7.24    1.18
 -10   1   4    9.21    2.08
  10   1  -4    8.18    1.18
  10   1  -4    7.15    1.93
  10  -1  -4    6.49    1.00
  10  -1  -4    8.43    1.13
 -10  -1   4   10.55    2.02
 -10  -1   4    6.83    2.26
  10   1  -3   -0.64    1.44
 -10   1   3   -0.48    1.37
  10   1  -3    1.08    0.62
  10   1  -3    0.27    0.58
 -10  -1   3   -2.06    1.16
 -10  -1   3    1.60    1.75
  10  -1  -3    0.20    0.34
  10   1  -2   61.11    2.75
  10   1  -2   64.18    4.11
 -10   1   2   70.19    4.69
  10   1  -2   66.40    2.78
 -10  -1   2   54.05    4.16
  10  -1  -2   53.35    4.06
  10  -1  -2   62.12    2.37
  10  -1  -2   57.48    3.72
 -10  -1   2   67.76    4.60
  10   1  -1   57.67    3.92
 -10   1   1   47.46    3.93
  10   1  -1   49.67    2.69
  10   1  -1   55.57    3.58
  10   1  -1   55.46    2.74
  10  -1  -1   50.62    4.07
  10  -1  -1   58.83    3.61
  10  -1  -1   54.27    2.50
  10  -1  -1   57.08    2.48
 -10  -1   1   56.23    4.21
  10  -1  -1   54.00    3.03
 -10  -1   1   52.37    4.19
  10   1   0   19.77    1.90
  10   1   0   20.00    2.32
  10   1   0   16.71    2.87
 -10   1   0   17.86    2.80
  10  -1   0   16.79    1.67
  10  -1   0   17.26    2.39
  10  -1   0   17.09    1.55
  10  -1   0   20.14    3.09
 -10  -1   0   16.75    3.06
 -10  -1   0   17.45    2.79
  10   1   1   61.25    3.69
  10   1   1   62.39    3.61
 -10   1  -1   62.62    2.80
  10   1   1   68.47    4.83
 -10   1  -1   61.49    4.91
  10   1   1   62.46    4.65
 -10   1  -1   64.11    3.11
  10  -1   1   57.43    3.50
 -10  -1  -1   62.97    3.27
 -10  -1  -1   59.42    3.01
 -10  -1  -1   58.54    4.56
  10  -1   1   61.94    4.60
  10  -1   1   64.94    4.23
 -10  -1  -1   64.85    3.45
  10   1   2    9.96    2.66
  10   1   2    6.49    2.58
  10   1   2   10.72    1.69
 -10   1  -2    9.13    2.36
 -10   1  -2    6.74    1.40
 -10   1  -2   10.66    1.67
  10   1   2   10.54    1.97
  10  -1   2   12.02    2.51
 -10  -1  -2   10.59    1.76
 -10  -1  -2    9.41    1.74
  10  -1   2    9.05    2.81
  10  -1   2    9.68    1.87
 -10  -1  -2    9.82    1.55
 -10  -1  -2    8.12    2.74
 -10   1  -3    1.78    1.32
  10   1   3    3.36    2.39
  10   1   3    2.61    1.69
 -10   1  -3   -1.12    1.80
  10   1   3    2.48    1.99
 -10  -1  -3    1.43    1.38
  10  -1   3    0.37    1.75
  10  -1   3    3.78    1.95
 -10  -1  -3    2.68    2.29
  10  -1   3   -0.60    1.35
 -10   1  -4   47.35    3.69
  10   1   4   49.16    5.39
  10   1   4   42.10    5.20
 -10   1  -4   36.48    4.33
  10  -1   4   40.10    4.78
 -10  -1  -4   49.41    5.27
 -10  -1  -4   40.84    4.02
  10  -1   4   39.00    4.84
  10   1   5    3.09    2.04
 -10   1  -5    4.00    1.97
  10   1   5    2.98    2.20
 -10   1  -5    1.77    2.21
 -10  -1  -5    3.70    2.51
  10  -1   5    0.43    2.33
  10  -1   5    8.80    3.26
 -10  -1  -5    6.39    2.27
  10   1   6    2.44    2.42
  10   1   6   -1.12    2.53
 -10   1  -6   -3.10    1.87
 -10   1  -6   -0.82    1.75
  10  -1   6   -0.51    2.61
 -10  -1  -6    1.77    2.10
 -10  -1  -6    1.15    1.97
  10  -1   6    3.06    2.85
  10   1   7   -2.34    2.80
 -10   1  -7   -0.88    1.95
  10   1   7    0.25    2.47
 -10  -1  -7    1.38    2.29
  10  -1   7    0.76    2.05
  10  -1   7    2.93    2.99
 -10  -1  -7    0.44    2.25
  10   1   8    8.02    3.45
 -10   1  -8   -0.17    2.54
  10   1   8   -2.83    2.51
  10  -1   8    2.79    2.82
 -10  -1  -8    7.65    2.98
  10  -1   8   11.14    4.12
  10   2  -9    0.77    1.50
  10   2  -9    2.21    1.86
  10  -2  -9   -1.67    1.48
  10   2  -8   16.37    3.69
  10   2  -8   14.31    2.68
 -10  -2   8   15.25    3.45
  10  -2  -8   10.67    2.36
  10   2  -7    2.83    1.56
  10   2  -7    2.77    2.35
  10   2  -7    6.40    1.88
  10  -2  -7    5.41    1.70
 -10  -2   7    9.34    2.79
  10   2  -6   -0.31    1.21
  10   2  -6    3.65    1.36
  10   2  -6   -0.63    1.28
  10  -2  -6    0.25    1.15
  10  -2  -6    2.05    1.37
 -10  -2   6    5.56    2.31
  10   2  -5    0.71    1.71
  10   2  -5    0.63    0.99
  10   2  -5    1.69    1.09
  10  -2  -5   -0.10    0.83
  10  -2  -5   -0.91    0.77
 -10  -2   5    2.60    2.09
  10  -2  -5   -1.34    0.89
  10   2  -4   20.42    3.08
  10   2  -4   25.98    2.28
  10   2  -4   28.14    2.42
  10  -2  -4   24.94    1.94
 -10  -2   4   29.83    3.10
  10  -2  -4   29.14    1.93
 -10  -2   4   27.51    3.79
  10  -2  -4   28.37    2.64
  10   2  -3   -0.64    1.55
  10   2  -3    1.53    0.85
  10   2  -3    2.16    0.92
  10  -2  -3    0.81    1.38
 -10  -2   3    2.15    1.50
  10  -2  -3    1.52    0.67
  10  -2  -3    1.02    0.64
 -10  -2   3    0.38    1.81
  10   2  -2   18.73    1.77
  10   2  -2   16.39    2.66
  10  -2  -2   17.84    1.32
 -10  -2   2   21.54    3.02
  10  -2  -2   15.27    1.97
  10  -2  -2   18.26    2.53
 -10  -2   2   12.27    2.53
  10   2  -1    1.19    1.84
  10   2  -1    2.64    1.67
  10   2  -1    2.25    0.97
  10  -2  -1    2.76    1.67
 -10  -2   1    2.33    1.97
  10  -2  -1    0.76    1.16
 -10  -2   1    5.50    1.92
  10  -2  -1    3.42    1.18
  10  -2  -1    3.29    0.84
  10   2   0   61.25    4.10
  10   2   0   63.72    3.53
 -10   2   0   53.79    4.39
  10   2   0   47.39    4.04
  10  -2   0   57.90    4.63
 -10  -2   0   63.01    2.61
 -10  -2   0   65.50    4.98
 -10  -2   0   62.98    3.04
  10  -2   0   62.89    2.70
  10  -2   0   57.11    3.54
 -10  -2   0   58.93    4.80
  10  -2   0   62.20    3.29
  10  -2   0   57.78    2.62
 -10   2  -1   25.97    3.83
  10   2   1   37.80    2.91
  10   2   1   39.61    3.64
 -10   2  -1   40.88    2.38
  10   2   1   32.97    3.97
 -10  -2  -1   32.94    4.20
 -10  -2  -1   34.72    2.51
 -10  -2  -1   41.03    2.72
  10  -2   1   26.59    3.91
 -10  -2  -1   32.48    4.07
  10  -2   1   34.83    2.72
  10  -2   1   37.82    3.52
  10   2   2  171.09    8.89
  10   2   2  167.53    8.75
 -10   2  -2  168.72    7.10
 -10   2  -2  163.51    8.90
  10   2   2  170.58    7.81
 -10   2  -2  185.05    7.50
  10   2   2  171.69    7.98
 -10  -2  -2  165.23    9.15
 -10  -2  -2  181.95    7.56
  10  -2   2  167.97    9.23
  10  -2   2  173.85    8.18
 -10  -2  -2  166.88    7.62
  10  -2   2  175.21    7.89
  10   2   3    2.53    1.35
  10   2   3   -0.36    2.24
 -10   2  -3    0.84    1.95
 -10   2  -3    2.34    1.34
  10   2   3   -0.91    1.28
  10  -2   3   -0.27    1.70
 -10  -2  -3    2.04    1.73
 -10  -2  -3    1.92    1.89
  10  -2   3    0.40    1.78
 -10  -2  -3    0.79    1.45
 -10   2  -4   18.54    2.71
  10   2   4   14.18    3.12
  10   2   4   13.13    3.03
 -10   2  -4   14.29    3.12
 -10  -2  -4   13.44    2.63
 -10  -2  -4    9.83    3.05
  10  -2   4   12.52    3.10
  10  -2   4   15.83    3.25
 -10   2  -5   -0.27    1.72
  10   2   5    2.88    2.77
 -10   2  -5    2.02    1.92
  10   2   5    1.21    2.15
  10  -2   5    2.90    2.53
  10  -2   5   -0.49    2.68
 -10  -2  -5   -1.33    1.72
 -10  -2  -5    3.10    2.43
  10   2   6   17.22    3.88
 -10   2  -6   16.98    3.36
 -10   2  -6   20.82    3.78
  10   2   6   30.30    4.65
 -10  -2  -6   20.48    4.14
 -10  -2  -6   22.11    3.77
  10  -2   6   19.14    3.82
  10  -2   6   16.10    4.11
 -10   2  -7   -1.47    2.13
  10   2   7    4.32    2.94
  10   2   7   -1.05    2.53
  10  -2   7   -0.50    3.22
  10  -2   7    6.79    3.34
 -10  -2  -7    2.11    2.37
 -10  -2  -7    3.93    2.73
  10   2   8   21.40    4.69
 -10   2  -8   17.59    4.03
  10  -2   8   23.39    5.52
 -10  -2  -8   18.92    4.26
  10   3  -9    2.75    1.92
  10   3  -9   -0.71    1.98
  10  -3  -9    1.74    1.80
  10   3  -8    4.90    1.98
  10   3  -8    8.86    3.08
 -10  -3   8    1.21    2.57
  10  -3  -8    3.67    1.81
  10   3  -7    3.95    1.72
  10   3  -7    2.01    1.92
  10   3  -7    4.32    1.86
 -10  -3   7    1.10    2.41
  10  -3  -7    2.09    1.43
  10   3  -6    5.29    1.84
  10   3  -6    5.40    1.65
  10   3  -6    6.03    2.71
  10  -3  -6    5.25    1.82
  10  -3  -6    4.92    1.51
 -10  -3   6    5.77    2.82
  10   3  -5    0.28    1.01
  10   3  -5    0.32    1.00
  10   3  -5    0.49    1.45
 -10  -3   5   -0.77    0.99
 -10  -3   5    1.86    2.21
  10  -3  -5    0.86    1.15
  10  -3  -5    1.83    1.05
  10   3  -4    6.47    1.55
  10   3  -4    4.13    1.93
  10   3  -4    5.69    1.41
  10  -3  -4    4.56    1.36
 -10  -3   4    5.46    1.72
  10  -3  -4    3.34    1.12
  10  -3  -4    4.69    1.38
 -10  -3   4    3.88    2.38
  10   3  -3   21.96    2.30
  10   3  -3   21.54    3.36
 -10  -3   3   20.27    2.86
  10  -3  -3   23.07    2.10
  10  -3  -3   23.58    2.12
  10  -3  -3   22.36    2.67
 -10  -3   3   16.96    3.11
  10   3  -2   40.40    4.21
  10   3  -2   35.75    2.63
 -10  -3   2   37.61    4.01
  10  -3  -2   38.88    2.41
  10  -3  -2   32.42    3.42
 -10  -3   2   40.36    4.53
  10  -3  -2   36.50    2.39
  10   3  -1   25.11    2.41
  10   3  -1   26.69    3.50
  10   3  -1   21.97    3.38
 -10  -3   1   24.47    1.46
 -10  -3   1   24.98    1.84
 -10  -3   1   23.23    3.39
  10  -3  -1   26.66    2.39
  10  -3  -1   20.18    2.84
  10  -3  -1   21.17    1.99
 -10  -3   1   22.51    3.43
  10  -3  -1   27.94    2.12
  10   3   0   56.76    4.63
  10   3   0   47.04    4.50
  10   3   0   52.20    3.48
  10  -3   0   60.54    3.33
 -10  -3   0   52.89    2.98
 -10  -3   0   54.22    3.16
 -10  -3   0   50.87    5.21
  10  -3   0   46.98    4.10
 -10  -3   0   49.89    5.11
 -10  -3   0   55.21    2.87
  10  -3   0   52.29    3.23
  10  -3   0   53.42    2.61
  10   3   1    1.22    1.33
  10   3   1    2.94    1.87
 -10   3  -1   -0.10    0.86
  10   3   1    1.84    1.56
  10  -3   1    1.69    1.35
  10  -3   1    3.73    1.27
 -10  -3  -1    0.45    1.14
 -10  -3  -1   -0.04    0.98
 -10  -3  -1    2.81    2.00
 -10  -3  -1    1.33    1.95
  10  -3   1    2.53    2.29
 -10   3  -2   32.09    2.93
  10   3   2   24.97    3.69
 -10   3  -2   33.85    2.86
  10   3   2   27.48    3.47
  10   3   2   34.23    3.86
 -10  -3  -2   27.87    3.91
 -10  -3  -2   23.40    3.75
  10  -3   2   27.87    3.90
  10  -3   2   27.91    3.18
 -10  -3  -2   33.42    3.19
  10  -3   2   34.37    3.38
  10   3   3   19.53    2.94
 -10   3  -3   18.53    2.45
  10   3   3   19.15    3.75
  10   3   3   20.27    3.34
 -10  -3  -3   18.30    2.71
  10  -3   3   18.40    2.97
 -10  -3  -3   16.35    3.68
  10  -3   3   21.60    4.19
  10   3   4    5.51    2.10
 -10   3  -4    6.93    2.03
  10   3   4    7.56    3.20
  10  -3   4    5.57    3.20
 -10  -3  -4    8.77    3.18
 -10  -3  -4    6.03    2.21
  10  -3   4    8.07    2.68
  10   3   5    8.40    3.34
  10   3   5    9.05    2.79
 -10   3  -5   11.06    2.58
 -10  -3  -5   11.32    3.23
  10  -3   5   13.43    2.99
 -10  -3  -5   10.14    2.80
  10  -3   5   13.21    4.01
 -10   3  -6    5.07    2.40
  10   3   6    5.68    2.57
  10   3   6    1.43    2.65
 -10  -3  -6    5.93    2.55
 -10  -3  -6    6.82    3.16
  10  -3   6    3.21    3.52
  10  -3   6    7.00    2.56
 -10   3  -7   -1.90    1.93
  10   3   7    0.21    2.26
  10   3   7   -1.12    2.30
 -10  -3  -7    2.75    2.71
 -10  -3  -7    1.65    2.57
  10  -3   7    1.62    3.41
  10   4  -9   21.54    4.67
  10   4  -9   28.49    4.20
 -10  -4   9   26.21    5.05
  10  -4  -9   28.92    4.09
  10   4  -8    8.31    2.35
  10   4  -8    3.58    2.88
  10  -4  -8    6.85    2.34
 -10  -4   8   13.93    4.06
  10   4  -7    5.59    2.28
  10   4  -7   10.72    2.44
  10   4  -7    5.77    2.52
 -10  -4   7    5.19    2.57
  10  -4  -7    1.73    1.70
  10   4  -6    8.14    2.06
  10   4  -6    1.98    1.92
  10   4  -6    5.16    1.74
 -10  -4   6    8.05    2.68
  10  -4  -6    5.10    1.66
  10   4  -5    2.30    2.23
  10   4  -5    2.52    1.47
  10   4  -5    1.33    1.24
  10  -4  -5    3.28    1.40
 -10  -4   5    1.58    1.26
 -10  -4   5   -0.73    2.29
  10  -4  -5    0.48    1.38
  10   4  -4   13.11    2.10
  10   4  -4    9.96    2.92
  10   4  -4   11.81    2.12
 -10  -4   4    8.27    3.04
  10  -4  -4   13.45    1.97
  10  -4  -4   12.72    2.02
  10  -4  -4   13.37    1.87
 -10  -4   4   12.05    2.24
  10   4  -3   72.06    4.41
  10   4  -3   78.95    5.58
  10  -4  -3   77.15    4.20
 -10  -4   3   79.60    3.14
  10  -4  -3   79.32    3.48
  10  -4  -3   77.18    4.23
 -10  -4   3   83.55    5.18
 -10  -4   3   76.05    6.12
  10  -4  -3   76.70    4.56
  10   4  -2    1.20    1.57
  10   4  -2    2.18    1.67
 -10  -4   2    1.66    0.70
 -10  -4   2    0.09    2.02
  10  -4  -2    3.35    1.22
  10  -4  -2    1.29    0.49
  10  -4  -2    1.62    1.06
 -10  -4   2   -0.50    1.60
  10  -4  -2    1.64    0.53
 -10  -4   2    0.09    0.90
  10  -4  -2    2.17    1.71
 -10  -4   2    2.34    0.91
  10   4  -1   -0.43    1.36
  10   4  -1    1.84    2.06
  10   4  -1   -1.27    0.94
 -10  -4   1   -0.48    2.06
 -10  -4   1    1.45    1.66
  10  -4  -1    1.52    0.52
  10  -4  -1   -0.35    1.79
 -10  -4   1    1.09    0.99
 -10  -4   1    1.06    1.13
  10  -4  -1   -0.02    0.98
 -10  -4   1    2.58    0.92
  10   4   0   15.02    3.07
  10   4   0   16.50    3.31
  10   4   0   14.15    2.29
  10  -4   0   14.92    2.83
 -10  -4   0   17.15    2.19
 -10  -4   0   14.58    3.21
  10  -4   0   14.79    1.55
 -10  -4   0   15.10    2.00
 -10  -4   0   13.14    3.24
 -10  -4   0   12.60    1.96
  10  -4   0   15.68    2.21
  10  -4   0   16.01    1.75
  10   4   1   34.67    3.91
  10   4   1   26.80    4.11
  10  -4   1   23.71    3.97
 -10  -4  -1   31.13    3.10
 -10  -4  -1   30.48    3.16
  10  -4   1   31.22    3.16
 -10  -4  -1   27.58    4.12
  10  -4   1   32.19    2.62
 -10  -4  -1   32.42    4.13
  10   4   2    2.31    2.03
 -10   4  -2    3.26    1.32
  10   4   2    1.57    2.19
 -10  -4  -2    1.25    2.49
 -10  -4  -2   -0.45    1.48
  10  -4   2    0.63    1.40
  10  -4   2   -3.04    2.14
 -10  -4  -2    0.49    1.46
  10   4   3   65.81    6.73
  10   4   3   69.74    5.36
 -10   4  -3   76.48    4.52
 -10  -4  -3   69.30    4.88
 -10  -4  -3   59.17    6.28
  10  -4   3   75.69    4.93
  10  -4   3   72.54    6.07
  10   4   4    0.08    1.95
 -10   4  -4    0.89    1.55
  10   4   4    6.29    2.56
 -10  -4  -4    1.46    1.86
 -10  -4  -4    2.68    2.05
  10  -4   4    0.14    2.83
  10  -4   4    4.43    2.18
 -10   4  -5    2.48    1.89
  10   4   5   -5.28    2.30
  10   4   5    0.65    1.80
 -10  -4  -5    0.07    2.67
  10  -4   5    0.02    2.38
 -10  -4  -5    2.02    2.21
 -10   4  -6    5.43    2.36
  10   4   6    0.47    2.23
  10   4   6    5.95    2.72
 -10  -4  -6    4.12    3.05
 -10  -4  -6    3.94    2.58
  10  -4   6    9.55    4.33
  10   4   7   12.90    4.07
 -10   4  -7   11.98    3.33
 -10  -4  -7    7.21    3.44
  10  -4   7    3.37    3.83
 -10  -4  -7    9.02    3.14
  10   5  -8   -0.87    1.68
  10   5  -8    1.86    2.75
 -10  -5   8   -0.55    2.55
  10  -5  -8    0.44    1.71
  10   5  -7   -2.14    2.29
  10   5  -7    0.46    1.93
  10   5  -7   -0.56    1.55
  10  -5  -7    2.37    1.77
 -10  -5   7    0.19    2.60
  10   5  -6   -0.28    1.61
  10   5  -6    1.37    2.27
  10   5  -6   -1.42    1.17
  10  -5  -6    0.16    1.40
 -10  -5   6    0.85    2.45
  10   5  -5    3.41    1.54
  10   5  -5    4.21    1.84
  10   5  -5    0.96    2.28
  10  -5  -5    1.64    1.56
 -10  -5   5    0.93    2.59
  10  -5  -5    0.40    1.33
  10   5  -4   14.18    3.18
  10   5  -4   14.67    2.65
 -10  -5   4   13.90    3.80
 -10  -5   4   14.11    1.73
  10  -5  -4   15.19    2.35
  10  -5  -4   13.99    2.34
 -10  -5   4   20.69    2.92
  10   5  -3    2.01    2.30
  10  -5  -3    1.55    1.50
  10  -5  -3    1.67    1.21
 -10  -5   3    1.80    1.80
  10  -5  -3    2.19    1.47
 -10  -5   3    1.21    1.05
 -10  -5   3   -1.14    1.63
  10   5  -2    0.62    1.94
  10   5  -2    0.59    2.14
  10  -5  -2    1.25    1.79
  10  -5  -2    2.24    1.23
 -10  -5   2   -0.48    1.61
 -10  -5   2    1.30    1.24
 -10  -5   2    1.46    1.94
  10   5  -1    1.06    2.20
  10   5  -1   -0.04    1.93
  10  -5  -1    2.62    2.14
 -10  -5   1    0.69    1.30
 -10  -5   1    0.67    2.08
 -10  -5   1    2.52    2.41
  10   5   0   -1.62    1.37
  10   5   0    0.53    1.44
  10  -5   0   -0.04    2.17
 -10  -5   0   -0.76    1.50
 -10  -5   0    4.46    2.46
 -10  -5   0    1.99    1.48
  10   5   1   -0.84    1.93
  10   5   1    1.14    1.69
  10  -5   1    1.06    1.85
 -10  -5  -1    0.91    1.50
 -10  -5  -1    3.49    2.20
 -10  -5  -1    2.66    1.83
  10   5   2   28.79    4.16
  10   5   2   27.01    4.08
 -10  -5  -2   25.09    4.47
  10  -5   2   19.57    4.24
 -10  -5  -2   25.08    3.36
 -10  -5  -2   22.27    3.58
 -10   5  -3    4.46    1.73
  10   5   3   -3.28    1.91
  10   5   3    6.15    2.70
  10  -5   3    1.94    3.06
 -10  -5  -3   -0.18    1.88
 -10  -5  -3    6.57    2.76
 -10  -5  -3    1.91    1.83
  10   5   4    1.28    2.11
  10   5   4   -2.30    2.39
  10   5   4   -1.22    1.61
 -10   5  -4    0.31    1.64
  10  -5   4   -2.13    2.86
 -10  -5  -4   -3.82    2.26
 -10  -5  -4    0.45    1.86
  10   5   5    8.15    2.79
 -10   5  -5    3.04    2.42
  10   5   5    9.71    3.32
  10  -5   5    5.00    3.92
 -10  -5  -5    9.63    3.00
 -10  -5  -5    5.44    3.52
  10   5   6    7.38    3.72
  10   5   6    3.46    2.38
 -10   5  -6    6.72    2.68
 -10  -5  -6    8.14    3.89
 -10  -5  -6    5.65    2.95
  10  -5   6   13.92    4.33
  10   5   7    3.29    3.24
 -10   5  -7    4.18    2.66
 -10  -5  -7   -0.70    2.88
 -10  -5  -7    3.83    3.17
  10  -5   7   -2.07    3.47
  10   6  -8    7.00    2.71
  10   6  -8   16.02    4.30
  10  -6  -8   10.24    2.88
 -10  -6   8    9.96    3.61
  10   6  -7    2.95    2.10
  10   6  -7    1.60    2.88
  10   6  -7    6.05    2.71
 -10  -6   7    1.10    3.22
  10  -6  -7    4.98    2.25
  10   6  -6   18.48    3.36
  10   6  -6    7.03    3.63
  10   6  -6   14.22    2.94
 -10  -6   6   15.80    4.40
  10  -6  -6    9.66    2.50
  10   6  -5    0.21    1.56
  10   6  -5    0.35    1.83
 -10  -6   5    0.48    2.08
  10  -6  -5    0.47    1.42
  10  -6  -5    1.09    1.68
  10   6  -4   59.76    6.56
 -10  -6   4   63.75    6.91
  10  -6  -4   62.75    4.55
 -10  -6   4   58.04    4.81
  10  -6  -4   57.86    4.39
  10   6  -3    8.70    3.38
 -10  -6   3   10.00    3.69
 -10  -6   3    8.65    2.68
  10  -6  -3    9.75    2.21
  10  -6  -3   15.01    2.57
  10  -6  -3    9.40    2.04
 -10  -6   3    4.01    1.66
  10   6  -2   19.53    4.18
  10   6  -2   19.66    3.67
  10  -6  -2   22.18    2.94
 -10  -6   2   26.91    4.03
 -10  -6   2   24.26    2.90
 -10  -6   2   26.33    4.47
  10  -6  -2   25.34    3.23
  10  -6  -2   25.02    3.51
  10   6  -1    8.87    2.80
  10   6  -1    2.77    2.26
 -10  -6   1    3.66    2.02
  10  -6  -1    8.25    2.10
 -10  -6   1    6.60    2.01
  10  -6  -1    2.62    2.21
 -10  -6   1   -0.40    2.37
  10   6   0   -2.76    1.98
  10   6   0   -0.29    1.98
 -10  -6   0    2.91    2.42
 -10  -6   0   -3.27    2.16
 -10  -6   0    0.79    1.42
  10  -6   0    2.35    2.43
  10   6   1    3.08    2.13
  10   6   1    3.91    2.05
 -10  -6  -1    4.27    2.49
  10  -6   1    3.42    2.72
 -10  -6  -1    6.17    2.10
 -10  -6  -1    4.91    3.05
  10   6   2    3.66    2.48
  10   6   2    0.11    2.35
 -10  -6  -2    0.22    2.01
 -10  -6  -2    2.30    2.30
  10  -6   2    3.20    2.54
 -10  -6  -2    1.19    1.81
  10   6   3   19.68    4.14
  10   6   3   10.85    3.41
 -10  -6  -3   10.89    4.04
 -10  -6  -3   13.49    3.25
 -10  -6  -3   17.20    3.35
  10  -6   3   13.12    4.07
 -10   6  -4    1.36    1.81
  10   6   4   -1.34    1.84
  10   6   4    3.44    2.15
  10  -6   4    2.94    3.42
 -10  -6  -4    1.91    2.26
 -10  -6  -4    1.30    3.13
  10   6   5    1.59    2.28
  10   6   5    3.50    3.09
 -10   6  -5   -0.49    2.00
 -10  -6  -5   -2.31    1.98
 -10  -6  -5    1.22    2.49
  10  -6   5    0.97    3.80
  10   6   6   12.82    4.47
 -10   6  -6   16.44    3.51
 -10  -6  -6    8.77    4.22
 -10  -6  -6   13.00    3.50
  10  -6   6    7.87    4.55
  10   7  -7    0.98    3.22
  10   7  -7    3.73    2.48
  10   7  -7    1.01    2.46
  10  -7  -7    3.31    2.27
 -10  -7   7   -3.62    2.92
  10   7  -6   -1.09    3.04
  10   7  -6   -0.89    2.01
 -10  -7   6    2.26    3.30
  10  -7  -6    3.15    2.09
  10   7  -5    2.39    2.36
  10  -7  -5    2.16    3.25
  10  -7  -5    3.14    1.89
 -10  -7   5   -0.03    2.15
  10   7  -4   -0.20    2.76
 -10  -7   4    3.23    2.29
 -10  -7   4    0.76    2.13
 -10  -7   4    1.39    1.57
  10  -7  -4   -0.63    1.27
  10  -7  -4    3.71    2.09
  10   7  -3    2.94    2.28
  10   7  -3    4.50    2.64
  10  -7  -3    3.64    1.72
 -10  -7   3    3.48    2.54
 -10  -7   3    1.98    1.72
  10  -7  -3    0.43    1.80
 -10  -7   3    1.20    2.05
  10   7  -2   13.69    3.06
  10   7  -2   10.76    3.65
 -10  -7   2    7.42    2.09
 -10  -7   2    9.36    3.62
  10  -7  -2   14.63    2.72
 -10  -7   2   11.00    3.18
  10  -7  -2   14.54    2.88
  10  -7  -2   14.46    3.12
  10   7  -1    1.26    2.01
  10   7  -1   -1.96    1.76
  10  -7  -1   -1.42    1.31
 -10  -7   1    1.13    1.75
  10  -7  -1    3.87    2.48
 -10  -7   1    0.81    1.98
 -10  -7   1    2.35    2.10
  10  -7  -1    5.28    2.11
  10   7   0    2.54    2.96
  10   7   0    3.15    2.37
 -10  -7   0    5.82    3.22
 -10  -7   0    0.88    1.69
  10  -7   0    4.77    2.56
 -10  -7   0   -0.13    2.35
  10   7   1    3.63    2.39
  10   7   1    4.66    2.57
 -10  -7  -1    1.99    2.04
 -10  -7  -1    5.63    3.46
 -10  -7  -1    5.81    2.80
  10  -7   1    2.52    3.12
  10   7   2   -2.07    2.13
  10   7   2    1.37    2.10
 -10  -7  -2    4.52    2.62
 -10  -7  -2   -0.64    2.14
 -10  -7  -2    2.16    2.27
  10  -7   2   -5.47    2.48
  10   7   3    6.53    2.85
  10   7   3    7.58    3.33
  10  -7   3    5.11    3.78
 -10  -7  -3    7.24    2.82
 -10  -7  -3    2.97    2.36
 -10  -7  -3    3.79    3.37
  10   7   4    7.03    3.50
  10   7   4    7.67    3.17
 -10  -7  -4   10.19    4.20
  10  -7   4    7.13    3.51
 -10  -7  -4    6.20    2.94
  10   7   5   -1.41    2.02
 -10   7  -5    0.02    2.19
 -10  -7  -5    0.56    2.47
  10  -7   5    0.58    2.82
 -10  -7  -5   -4.49    1.77
  10   8  -6   -4.38    2.76
  10  -8  -6    0.94    2.04
 -10  -8   6   -2.62    2.65
  10   8  -5   15.81    4.82
 -10  -8   5   15.78    4.43
  10  -8  -5   14.82    3.31
  10   8  -4   10.19    3.98
 -10  -8   4    7.36    2.49
  10  -8  -4   13.07    3.33
 -10  -8   4   14.39    4.01
  10  -8  -4    8.26    2.66
  10   8  -3    1.72    2.34
  10   8  -3    3.68    3.72
 -10  -8   3    4.38    2.90
  10  -8  -3    0.99    1.87
 -10  -8   3    2.57    2.11
 -10  -8   3    1.39    2.45
  10  -8  -3    7.56    2.76
  10   8  -2    6.65    3.17
  10   8  -2   13.33    3.47
 -10  -8   2    8.70    2.95
  10  -8  -2   13.17    3.03
  10  -8  -2    5.59    2.29
 -10  -8   2   10.79    2.84
 -10  -8   2    2.18    3.08
  10   8  -1    1.82    2.47
  10   8  -1    0.65    1.96
 -10  -8   1   -0.18    2.89
  10  -8  -1    5.94    2.84
 -10  -8   1    2.04    2.30
  10  -8  -1    2.38    1.98
 -10  -8   1   -1.02    2.73
  10  -8  -1    2.74    2.24
  10   8   0    6.18    2.74
  10   8   0    8.65    3.19
 -10  -8   0    6.43    2.51
  10  -8   0    7.12    2.44
  10  -8   0    2.51    3.02
 -10  -8   0   12.40    3.85
 -10  -8   0    2.46    2.46
  10   8   1   19.38    4.75
  10   8   1   21.76    4.37
  10  -8   1   27.70    5.07
 -10  -8  -1   22.39    4.40
 -10  -8  -1   25.52    3.97
 -10  -8  -1   19.65    4.59
  10   8   2   55.43    6.66
  10   8   2   40.75    5.86
 -10  -8  -2   46.41    5.55
 -10  -8  -2   43.35    5.63
 -10  -8  -2   38.42    6.40
  10  -8   2   50.86    6.94
  10   8   3   -2.97    2.64
  10   8   3   -1.07    2.43
  10  -8   3   -2.08    3.33
 -10  -8  -3   -0.46    2.49
 -10  -8  -3    6.39    3.09
 -10  -8  -3   -2.78    2.17
  10   8   4   16.94    4.61
  10   8   4   16.88    3.96
 -10  -8  -4   20.87    4.21
 -10  -8  -4   19.52    5.00
  10  -8   4    8.23    4.52
  10   9  -5    9.17    4.64
  10  -9  -5    8.60    2.96
 -10  -9   5   15.23    4.89
  10   9  -4    5.80    2.72
  10   9  -4   -0.66    2.37
  10  -9  -4    0.44    1.70
 -10  -9   4    2.55    3.38
  10   9  -3   -2.17    1.80
  10   9  -3   -1.53    2.29
 -10  -9   3   -4.44    2.91
  10  -9  -3    0.75    1.93
 -10  -9   3   -2.07    2.25
  10  -9  -3    0.04    2.21
 -10  -9   3   -0.62    2.11
  10   9  -2   19.82    4.18
  10   9  -2   17.82    4.88
 -10  -9   2   12.77    4.24
  10  -9  -2   14.45    3.59
 -10  -9   2   16.98    3.61
 -10  -9   2    8.74    3.47
  10  -9  -2   13.93    3.34
  10   9  -1   19.74    4.70
  10   9  -1   14.77    3.81
  10  -9  -1   21.08    4.10
 -10  -9   1   17.64    4.63
  10  -9  -1   12.01    3.17
 -10  -9   1   16.52    4.15
 -10  -9   1   16.51    3.64
  10   9   0   -1.10    2.21
  10   9   0   -4.94    2.95
  10  -9   0    1.06    2.39
 -10  -9   0    4.63    3.27
 -10  -9   0    3.20    2.50
  10  -9   0    3.03    2.93
  10  -9   0    2.91    2.24
 -10  -9   0   -0.60    3.40
  10   9   1    3.66    2.78
  10   9   1    0.70    3.39
  10  -9   1    6.03    2.72
 -10  -9  -1    5.20    3.25
  10  -9   1    4.40    3.20
  10  -9   1    3.92    2.57
 -10  -9  -1    8.34    2.99
 -10  -9  -1    2.94    3.67
  10   9   2    1.57    2.99
  10   9   2    1.14    2.68
 -10  -9  -2    0.05    2.36
 -10  -9  -2    3.17    3.10
 -10  -9  -2    8.99    3.29
  10  -9   2    5.59    3.95
  10   9   3    8.17    3.91
  10   9   3   15.91    4.66
 -10  -9  -3   11.74    4.19
  10  -9   3   15.52    4.88
 -10  -9  -3   12.03    3.59
  10  10  -2   -5.11    3.13
  10  10  -2   -0.87    2.23
 -10 -10   2    2.37    3.67
 -10 -10   2   -3.05    2.96
  10 -10  -2    1.61    2.14
 -10 -10   2   -1.84    2.07
  10 -10  -2    0.61    2.40
  10  10  -1   -6.95    3.10
  10  10  -1    2.32    2.70
 -10 -10   1    2.51    3.15
 -10 -10   1    4.68    2.72
  10 -10  -1    4.28    2.85
 -10 -10   1    8.32    3.94
  10 -10  -1    3.08    2.72
  10  10   0    9.52    4.52
  10  10   0    3.82    2.97
 -10 -10   0    8.95    3.08
  10 -10   0    6.01    3.19
 -10 -10   0    7.92    4.76
  10 -10   0    1.57    2.23
  10 -10   0    4.99    4.21
 -10 -10   0   10.11    3.87
  11   0  -9   -1.94    1.29
  11   0  -8   10.59    2.26
 -11   0   7    0.81    1.58
  11   0  -7    0.14    1.10
 -11   0   6    5.83    2.04
  11   0  -6    4.25    1.28
 -11   0   5    0.09    1.44
  11   0  -5   -0.33    0.80
  11   0  -5    0.09    0.76
  11   0  -4   18.96    1.39
 -11   0   4   21.56    3.12
  11   0  -4   19.18    1.35
 -11   0   3    0.31    1.56
 -11   0   3    0.04    1.72
  11   0  -3   -0.17    0.27
  11   0  -3   -0.17    0.21
  11   0  -3   -0.22    0.22
  11   0  -2   -0.95    1.53
 -11   0   2    3.34    1.74
  11   0  -2    2.91    0.44
  11   0  -2    2.10    0.46
  11   0  -2    3.02    1.35
 -11   0   2    5.18    1.70
  11   0  -1    0.64    0.63
  11   0  -1   -0.39    0.92
  11   0  -1   -1.16    1.45
  11   0  -1   -0.78    0.53
 -11   0   1   -1.00    1.79
  11   0   0   56.20    3.00
  11   0   0   50.14    4.23
  11   0   0   50.90    3.11
 -11   0   0   50.50    5.08
  11   0   0   47.11    3.86
 -11   0  -1    0.20    0.68
 -11   0  -1    0.18    2.06
  11   0   1    0.24    1.25
 -11   0  -1   -0.19    0.54
  11   0   1   -0.15    1.42
  11   0   1   -0.29    0.91
  11   0   1   -0.39    0.80
  11   0   2   14.68    3.31
 -11   0  -2   16.09    1.94
  11   0   2   19.04    3.22
  11   0   2   22.16    2.66
 -11   0  -2   21.57    3.38
 -11   0  -2   16.39    2.06
  11   0   3   -0.75    1.93
  11   0   3   -0.14    1.99
 -11   0  -3    4.27    2.23
 -11   0  -3   -1.26    1.20
 -11   0  -4    0.27    2.16
 -11   0  -4    0.11    1.40
  11   0   4   -0.72    2.23
  11   0   4    2.91    2.53
  11   0   5   -0.79    1.51
 -11   0  -5   -1.27    1.78
 -11   0  -5    0.03    1.61
  11   0   5    0.34    2.64
 -11   0  -6   31.27    4.23
  11   0   6   33.12    5.41
 -11   0  -6   28.38    4.69
  11   0   6   34.96    5.10
  11   0   7   -4.51    2.42
 -11   0  -7    4.27    2.75
  11   0   7    2.96    3.05
 -11   0  -7   -2.33    1.69
  11   0   8    0.60    3.36
  11   0   8    2.07    3.47
  11   1  -9    6.14    2.32
  11  -1  -9    7.45    2.27
  11   1  -8    2.10    1.60
  11  -1  -8    1.57    1.53
  11   1  -7    7.61    1.83
 -11  -1   7    5.63    2.44
  11  -1  -7    6.60    1.72
  11   1  -6   35.48    2.82
 -11   1   6   37.20    3.68
  11  -1  -6   32.42    2.61
 -11  -1   6   31.32    4.07
 -11   1   5   76.26    5.03
  11   1  -5   79.53    3.99
  11   1  -5   82.40    4.05
  11  -1  -5   78.18    3.81
 -11  -1   5   75.75    5.46
  11  -1  -5   84.51    3.99
  11   1  -4   15.37    1.51
  11   1  -4   18.91    1.68
  11   1  -4   22.75    3.04
 -11   1   4   20.16    3.02
  11  -1  -4   19.82    1.42
 -11  -1   4   19.68    2.76
  11  -1  -4   17.47    1.32
 -11  -1   4   16.80    3.10
  11   1  -3    2.37    1.69
  11   1  -3    2.31    0.70
  11   1  -3    0.53    0.61
  11  -1  -3    0.67    0.29
  11  -1  -3    1.79    1.55
 -11  -1   3    1.14    1.39
 -11  -1   3    0.97    1.56
  11   1  -2    3.09    1.59
  11   1  -2    6.53    2.22
 -11   1   2    6.15    1.93
  11   1  -2    4.75    0.83
  11   1  -2    4.48    0.87
 -11  -1   2    5.23    2.36
  11  -1  -2    3.66    1.69
  11  -1  -2    4.54    0.55
 -11  -1   2    2.79    1.51
  11  -1  -2    3.12    1.74
  11  -1  -2    4.33    0.51
  11   1  -1   31.16    3.67
  11   1  -1   25.31    1.90
 -11   1   1   28.96    3.73
  11   1  -1   26.20    2.87
  11  -1  -1   32.24    3.16
 -11  -1   1   33.92    4.06
  11  -1  -1   32.83    1.81
  11  -1  -1   21.78    3.23
 -11  -1   1   27.62    3.63
  11  -1  -1   28.95    2.27
  11  -1  -1   26.82    1.74
  11   1   0    3.56    1.50
  11   1   0    6.81    1.30
 -11   1   0    4.28    1.89
  11   1   0    4.86    2.09
  11  -1   0    5.24    1.18
 -11  -1   0    3.52    2.16
  11  -1   0    4.90    1.74
 -11  -1   0    1.68    1.62
  11  -1   0    4.77    1.05
  11  -1   0    4.76    2.30
  11   1   1   82.14    4.43
  11   1   1   67.65    5.31
  11   1   1   85.38    4.51
 -11   1  -1   76.58    5.48
 -11   1  -1   80.29    3.20
  11   1   1   84.18    5.33
 -11   1  -1   85.77    3.74
  11  -1   1   85.66    5.13
 -11  -1  -1   68.43    4.54
  11  -1   1   80.18    5.54
 -11  -1  -1   84.31    3.95
 -11  -1  -1   89.11    5.76
  11  -1   1   82.61    4.38
 -11  -1  -1   84.05    3.55
 -11   1  -2    1.12    1.03
  11   1   2   -0.36    0.92
 -11   1  -2   -0.88    2.01
  11   1   2   -0.11    1.44
 -11   1  -2   -0.45    0.82
  11   1   2   -1.45    1.30
  11   1   2   -0.81    1.02
  11  -1   2    1.69    1.99
  11  -1   2   -2.13    1.07
 -11  -1  -2    0.19    0.91
  11  -1   2    1.26    2.24
 -11  -1  -2    0.88    1.10
 -11  -1  -2   -0.74    1.05
 -11  -1  -2   -1.22    2.02
 -11   1  -3    0.86    1.13
 -11   1  -3    1.86    1.59
  11   1   3   -1.76    2.03
  11   1   3   -0.11    1.87
 -11  -1  -3   -1.10    1.36
 -11  -1  -3   -2.10    1.25
  11  -1   3   -0.94    1.86
  11  -1   3   -2.30    1.25
  11   1   4    1.71    2.52
  11   1   4    2.44    2.49
 -11   1  -4    5.79    1.88
 -11   1  -4    5.16    2.46
 -11  -1  -4    4.04    1.84
  11  -1   4    2.21    2.70
  11  -1   4    3.95    2.09
 -11  -1  -4    4.45    2.59
 -11   1  -5    6.56    2.58
  11   1   5    8.57    2.62
 -11   1  -5    6.61    2.22
  11   1   5    9.13    2.84
 -11  -1  -5    6.75    2.42
  11  -1   5    9.72    3.40
 -11  -1  -5   11.08    3.15
  11  -1   5   11.50    3.30
 -11   1  -6    1.04    2.30
  11   1   6    8.20    3.43
  11   1   6    5.71    2.65
 -11   1  -6    5.69    2.45
 -11  -1  -6    2.81    2.19
 -11  -1  -6    2.29    2.37
  11  -1   6   -0.25    1.84
  11  -1   6    2.60    2.44
 -11   1  -7   20.56    3.88
  11   1   7   18.89    4.46
  11   1   7   10.81    3.79
  11  -1   7   20.94    4.89
 -11  -1  -7   21.20    3.87
 -11  -1  -7   15.97    3.83
  11  -1   7   22.27    4.77
  11   2  -9    0.06    1.56
  11   2  -9    5.58    2.70
  11  -2  -9   -1.03    1.40
  11   2  -8    9.31    2.33
  11   2  -8   16.30    3.88
  11  -2  -8   12.89    2.41
 -11  -2   8   12.06    3.38
  11   2  -7    0.89    2.01
  11   2  -7   -0.20    1.22
 -11  -2   7    1.47    2.12
  11  -2  -7    0.10    1.18
  11   2  -6   28.04    2.85
  11   2  -6   25.32    3.86
  11   2  -6   26.98    2.96
  11  -2  -6   27.72    2.67
 -11  -2   6   31.05    4.32
  11   2  -5   20.46    2.24
  11   2  -5   25.37    3.56
  11   2  -5   29.42    2.71
  11  -2  -5   26.35    2.47
 -11  -2   5   27.39    2.98
  11  -2  -5   26.17    3.28
 -11  -2   5   23.95    3.75
  11  -2  -5   25.09    2.19
  11   2  -4   -0.97    1.22
  11   2  -4    0.88    0.84
  11   2  -4    0.73    0.90
 -11  -2   4    0.72    1.37
 -11  -2   4    1.46    1.53
  11  -2  -4    1.76    1.31
  11  -2  -4   -0.93    0.64
  11  -2  -4   -0.52    0.60
  11   2  -3    9.93    2.21
  11   2  -3   12.22    1.55
  11  -2  -3   13.59    1.23
 -11  -2   3   10.32    2.82
  11  -2  -3   11.74    2.12
 -11  -2   3   12.19    2.45
  11   2  -2    7.84    1.28
  11   2  -2   11.13    2.65
  11   2  -2    9.14    2.26
 -11  -2   2    9.15    2.33
  11  -2  -2    5.39    1.94
 -11  -2   2    8.27    2.41
  11  -2  -2    7.40    1.74
  11  -2  -2   10.80    1.16
  11  -2  -2    7.57    0.98
  11   2  -1    7.71    2.12
  11   2  -1    6.37    1.30
  11   2  -1    8.67    2.53
 -11  -2   1    6.15    1.96
  11  -2  -1    5.97    2.19
  11  -2  -1   11.06    1.83
  11  -2  -1    9.98    1.26
 -11  -2   1    7.92    2.33
  11   2   0   17.19    2.03
  11   2   0   19.81    3.04
 -11   2   0   14.37    2.83
  11   2   0   13.78    2.46
 -11  -2   0   14.21    2.83
 -11  -2   0   16.96    2.97
  11  -2   0   17.79    1.88
  11  -2   0   18.56    2.39
  11  -2   0   17.53    1.28
  11  -2   0   15.09    3.10
  11  -2   0   18.02    1.27
  11   2   1   80.97    4.92
  11   2   1   78.86    5.78
 -11   2  -1   82.60    6.05
 -11   2  -1   90.40    3.99
  11   2   1   85.43    4.75
 -11  -2  -1   87.41    6.15
  11  -2   1   80.19    6.06
 -11  -2  -1   85.32    5.87
 -11  -2  -1   83.23    4.05
  11  -2   1   86.00    4.64
 -11  -2  -1   93.66    4.43
 -11   2  -2    9.04    2.53
  11   2   2   11.03    2.78
  11   2   2    8.14    2.79
  11   2   2   14.16    2.89
 -11   2  -2   11.41    1.67
 -11   2  -2   10.28    2.07
  11   2   2   11.55    2.17
 -11  -2  -2   13.65    2.06
 -11  -2  -2    7.48    1.66
 -11  -2  -2    9.38    2.61
  11  -2   2   14.68    3.47
  11  -2   2   11.26    2.14
  11  -2   2   11.49    2.56
  11   2   3    8.90    3.10
 -11   2  -3   10.48    1.79
  11   2   3    9.33    1.84
  11   2   3    5.59    2.50
 -11   2  -3    8.04    2.72
 -11  -2  -3   11.91    2.32
 -11  -2  -3    5.42    2.72
  11  -2   3    8.93    2.46
  11  -2   3    7.08    3.03
 -11   2  -4    4.06    2.29
  11   2   4   -2.74    2.18
  11   2   4    1.97    1.67
 -11   2  -4    2.14    1.56
 -11  -2  -4    2.78    1.75
 -11  -2  -4   -2.99    1.19
  11  -2   4    2.07    2.26
  11  -2   4    3.22    2.88
 -11   2  -5   13.89    2.76
 -11   2  -5    7.44    2.86
  11   2   5   19.03    4.16
  11   2   5   15.38    3.43
  11  -2   5    7.82    2.51
  11  -2   5    7.77    3.03
 -11  -2  -5   10.02    3.38
 -11  -2  -5   15.87    2.97
 -11   2  -6    2.85    2.39
 -11   2  -6    0.99    1.95
  11   2   6    2.50    3.22
  11   2   6    1.49    2.47
 -11  -2  -6    3.02    2.48
 -11  -2  -6    4.16    2.43
  11  -2   6   -2.43    2.75
  11  -2   6    0.76    2.65
  11   2   7   25.28    5.51
 -11   2  -7   19.53    3.75
  11   2   7   19.26    4.63
  11  -2   7   25.30    4.61
  11  -2   7   17.93    4.88
 -11  -2  -7   21.66    4.53
  11   3  -9   -0.92    1.65
  11   3  -9    1.10    2.54
  11  -3  -9   -0.03    1.64
  11   3  -8   -0.50    2.04
  11   3  -8   -1.72    1.21
  11  -3  -8    0.43    1.54
 -11  -3   8    2.61    2.55
  11   3  -7   25.11    4.37
  11   3  -7   17.74    2.80
  11  -3  -7   23.70    2.90
 -11  -3   7   30.89    4.68
  11   3  -6    3.70    1.49
  11   3  -6    4.96    1.65
  11   3  -6    5.06    2.70
 -11  -3   6    6.22    2.72
  11  -3  -6    3.36    1.32
  11   3  -5    4.52    1.46
  11   3  -5    5.51    2.52
  11   3  -5    5.53    1.48
 -11  -3   5    6.10    1.64
 -11  -3   5    3.47    2.57
  11  -3  -5    6.18    1.38
  11   3  -4   21.43    2.44
  11   3  -4   25.39    3.79
  11   3  -4   23.24    2.50
  11  -3  -4   26.04    2.21
  11  -3  -4   26.66    2.43
 -11  -3   4   22.72    3.92
  11  -3  -4   22.78    2.57
 -11  -3   4   29.03    3.16
  11   3  -3   16.41    3.13
  11   3  -3   14.42    2.02
 -11  -3   3   11.77    2.38
  11  -3  -3   19.40    1.88
  11  -3  -3   14.43    1.65
  11  -3  -3   18.68    2.63
  11  -3  -3   13.65    1.89
 -11  -3   3   12.48    2.73
  11   3  -2    1.52    1.63
  11   3  -2    2.24    1.99
  11   3  -2   -0.23    0.89
  11  -3  -2    2.72    1.77
  11  -3  -2    2.20    0.92
 -11  -3   2    1.39    2.16
  11  -3  -2    0.70    1.02
 -11  -3   2    0.13    1.72
  11   3  -1   56.77    4.88
  11   3  -1   55.92    3.57
  11   3  -1   57.69    4.67
  11  -3  -1   56.37    4.69
  11  -3  -1   63.21    3.43
  11  -3  -1   66.50    3.54
 -11  -3   1   65.68    5.13
  11  -3  -1   63.56    3.43
 -11  -3   1   58.02    4.83
  11   3   0   22.85    2.62
  11   3   0   22.73    3.57
  11   3   0   21.67    3.11
 -11  -3   0   20.39    3.63
 -11  -3   0   19.47    2.00
  11  -3   0   20.59    3.57
  11  -3   0   19.21    2.20
 -11  -3   0   19.36    3.34
  11  -3   0   19.04    1.22
  11  -3   0   20.77    2.34
 -11  -3   0   17.97    1.71
 -11  -3   0   20.33    1.70
  11  -3   0   18.48    1.37
  11   3   1   -0.18    2.00
  11   3   1    0.67    1.67
  11   3   1   -1.00    1.02
 -11  -3  -1   -2.20    1.37
 -11  -3  -1   -1.07    0.93
 -11  -3  -1    0.85    1.11
  11  -3   1    0.67    2.21
 -11  -3  -1   -1.24    1.83
  11  -3   1    0.75    1.10
  11  -3   1    2.32    1.51
  11   3   2    8.57    2.28
  11   3   2    9.17    2.58
 -11   3  -2    8.50    1.57
  11  -3   2   10.32    3.22
 -11  -3  -2    9.06    2.04
 -11  -3  -2   11.23    3.04
  11  -3   2    8.55    2.18
  11   3   3   17.92    3.60
 -11   3  -3   17.46    2.48
  11   3   3   16.96    2.95
  11   3   3   22.68    4.08
  11  -3   3   16.86    3.57
 -11  -3  -3   15.12    2.63
 -11  -3  -3   14.65    3.76
  11  -3   3   13.23    2.81
  11   3   4   21.97    4.39
  11   3   4   24.50    4.06
 -11   3  -4   27.24    3.21
  11  -3   4   24.92    3.86
 -11  -3  -4   23.26    4.00
  11  -3   4   17.85    4.46
 -11  -3  -4   24.39    3.40
  11   3   5   11.88    3.35
 -11   3  -5   16.78    3.06
  11   3   5   15.15    3.80
  11  -3   5   10.80    3.96
 -11  -3  -5   10.35    3.53
 -11  -3  -5   13.63    2.90
  11  -3   5   11.37    3.28
 -11   3  -6   31.52    4.20
  11   3   6   33.07    5.85
  11   3   6   31.49    4.82
 -11  -3  -6   24.60    4.03
  11  -3   6   30.62    4.97
 -11  -3  -6   24.88    4.88
  11  -3   6   24.23    5.36
  11   3   7    0.01    2.92
  11   3   7    7.92    4.06
 -11   3  -7    1.47    2.21
 -11  -3  -7    8.84    3.49
  11  -3   7    3.46    3.11
 -11  -3  -7    4.91    2.70
  11   4  -9   25.75    4.82
  11   4  -9   16.49    3.34
 -11  -4   9   13.19    4.01
  11  -4  -9   16.04    3.26
  11   4  -8    1.81    2.63
  11   4  -8    1.62    1.85
  11  -4  -8   -0.12    1.52
 -11  -4   8    1.78    2.61
  11   4  -7   16.68    4.03
  11   4  -7   21.57    3.17
 -11  -4   7   22.65    4.58
  11  -4  -7   22.80    3.05
  11   4  -6    0.07    2.22
  11   4  -6    2.81    1.50
  11   4  -6    0.99    1.42
  11  -4  -6    1.76    1.33
 -11  -4   6    2.97    2.21
  11   4  -5    0.61    1.25
  11   4  -5    2.00    1.72
  11   4  -5   -1.23    1.35
 -11  -4   5   -2.60    2.11
  11  -4  -5    0.98    1.14
 -11  -4   5    0.97    1.29
  11   4  -4   29.00    3.08
  11   4  -4   24.12    3.74
 -11  -4   4   27.26    3.31
 -11  -4   4   23.13    4.16
  11  -4  -4   26.94    2.78
  11  -4  -4   25.67    2.67
  11  -4  -4   25.68    2.63
  11   4  -3   97.30    6.23
  11  -4  -3   85.71    4.48
  11  -4  -3   79.77    4.26
  11  -4  -3   84.25    5.01
 -11  -4   3   94.38    5.66
 -11  -4   3   85.03    6.53
  11  -4  -3   75.77    4.29
  11  -4  -3   80.94    3.74
  11   4  -2   -0.83    1.93
  11   4  -2    1.69    2.04
 -11  -4   2    1.06    2.19
  11  -4  -2   -0.34    0.89
  11  -4  -2   -0.90    1.47
  11  -4  -2   -0.07    0.66
 -11  -4   2    2.70    1.94
 -11  -4   2    0.79    0.37
  11   4  -1   42.00    4.81
  11   4  -1   44.64    3.48
  11   4  -1   37.46    4.54
 -11  -4   1   48.16    5.10
  11  -4  -1   44.65    2.27
  11  -4  -1   43.24    3.04
  11  -4  -1   39.36    4.31
 -11  -4   1   41.29    4.75
  11   4   0   11.54    2.89
  11   4   0    7.12    2.68
 -11  -4   0    9.02    1.68
 -11  -4   0    9.54    3.11
  11  -4   0   11.25    1.57
  11  -4   0   13.60    2.11
 -11  -4   0    6.44    2.29
  11  -4   0    9.56    2.95
  11   4   1    0.32    1.44
  11   4   1   -1.62    1.77
  11  -4   1   -1.09    1.11
 -11  -4  -1    2.76    2.03
  11  -4   1    0.99    1.74
 -11  -4  -1    4.76    2.44
 -11  -4  -1   -0.93    1.09
  11   4   2   10.34    2.65
  11   4   2   12.76    3.38
 -11  -4  -2    8.87    2.07
  11  -4   2   17.96    2.66
 -11  -4  -2   16.48    3.79
 -11  -4  -2    9.62    2.97
  11  -4   2   11.01    3.09
 -11   4  -3   42.81    3.81
  11   4   3   45.34    4.88
  11   4   3   39.86    5.24
  11  -4   3   39.53    4.14
 -11  -4  -3   47.34    4.42
  11  -4   3   37.08    5.43
 -11  -4  -3   37.72    5.23
  11   4   4   -0.64    1.90
  11   4   4    1.35    2.83
 -11   4  -4    0.86    1.49
  11  -4   4   -1.86    1.83
  11  -4   4    2.40    1.96
 -11  -4  -4    4.03    3.03
 -11  -4  -4    1.97    1.91
  11   4   5    8.77    3.05
  11   4   5    4.19    3.27
 -11   4  -5    7.22    2.42
  11  -4   5    9.29    4.07
 -11  -4  -5    4.61    2.69
 -11  -4  -5    6.87    2.62
  11   4   6    4.04    2.75
  11   4   6   -0.94    3.03
 -11   4  -6    4.72    2.52
  11  -4   6    3.45    3.92
 -11  -4  -6    2.73    2.41
 -11  -4  -6   11.46    4.03
  11   4   7    1.55    2.43
 -11   4  -7   -0.40    2.03
  11  -4   7   -4.25    2.13
 -11  -4  -7   -0.60    2.89
 -11  -4  -7    2.71    2.70
  11   5  -8   -0.59    1.71
  11   5  -8   -3.34    1.29
 -11  -5   8   -4.07    2.36
  11  -5  -8   -1.67    1.54
  11   5  -7   -0.37    1.56
  11   5  -7    2.86    2.74
 -11  -5   7   -1.01    1.91
  11  -5  -7   -0.63    1.44
  11   5  -6    7.85    2.41
  11   5  -6    4.74    1.87
  11   5  -6    8.47    3.27
  11  -5  -6    5.37    1.83
 -11  -5   6    2.55    2.46
  11   5  -5    5.91    1.94
  11   5  -5    8.37    2.27
  11   5  -5    5.91    2.88
  11  -5  -5    4.91    1.74
 -11  -5   5    6.48    3.27
  11   5  -4    0.47    2.44
  11   5  -4   -0.34    1.35
  11  -5  -4   -0.25    1.07
  11  -5  -4   -1.58    1.04
 -11  -5   4    0.59    1.45
 -11  -5   4    0.72    2.73
  11   5  -3   22.75    3.86
  11  -5  -3   27.31    3.23
 -11  -5   3   33.18    4.13
 -11  -5   3   17.99    1.66
 -11  -5   3   17.31    3.59
  11  -5  -3   19.10    2.52
  11  -5  -3   23.99    2.91
  11   5  -2    0.87    1.96
  11   5  -2    0.66    1.67
 -11  -5   2    1.54    2.00
  11  -5  -2   -1.19    1.52
  11  -5  -2   -0.68    1.01
 -11  -5   2    1.46    1.02
 -11  -5   2    0.39    1.71
  11   5  -1    1.67    1.88
  11   5  -1    5.51    2.44
 -11  -5   1    2.96    2.53
 -11  -5   1    6.87    2.70
 -11  -5   1    4.00    1.45
  11  -5  -1    1.95    2.12
  11   5   0    0.59    1.46
  11   5   0    5.30    2.57
 -11  -5   0    0.88    2.10
  11  -5   0    0.68    2.26
 -11  -5   0   -0.38    1.28
 -11  -5   0   -0.41    1.60
  11   5   1   -0.72    1.43
  11   5   1   -2.71    1.23
 -11  -5  -1    0.35    2.15
  11  -5   1   -1.31    1.86
 -11  -5  -1   -0.52    1.37
 -11  -5  -1   -0.66    1.71
  11   5   2   27.52    4.52
  11   5   2   32.03    4.20
 -11  -5  -2   25.00    3.31
 -11  -5  -2   28.08    4.94
  11  -5   2   26.30    4.72
 -11  -5  -2   37.80    4.81
 -11   5  -3    1.84    1.60
  11   5   3    0.60    1.69
  11   5   3    0.96    2.60
 -11  -5  -3   -0.79    1.54
  11  -5   3   -2.41    2.75
 -11  -5  -3    2.01    2.16
  11   5   4   20.28    3.91
  11   5   4   21.22    3.96
 -11   5  -4   15.83    2.85
  11   5   4   19.46    4.60
 -11  -5  -4   28.95    3.99
  11  -5   4   25.66    5.40
 -11  -5  -4   25.50    4.82
  11   5   5    8.92    3.24
 -11   5  -5    8.49    2.74
  11   5   5    4.74    2.67
  11  -5   5   12.56    4.04
 -11  -5  -5    9.38    3.40
 -11  -5  -5    8.80    2.87
 -11   5  -6   -2.94    1.98
  11   5   6    1.67    3.17
  11   5   6   -0.94    2.19
  11  -5   6   -5.35    3.26
 -11  -5  -6    2.73    2.40
 -11  -5  -6    1.24    3.26
 -11  -6   8   44.18    6.98
  11   6  -7   23.14    3.78
  11   6  -7   19.59    4.73
 -11  -6   7   29.95    5.76
  11  -6  -7   22.29    3.57
  11   6  -6   13.70    2.79
  11   6  -6    7.22    3.46
  11   6  -6   10.43    2.85
 -11  -6   6    8.50    3.90
  11  -6  -6    9.69    2.43
  11   6  -5    4.75    2.14
  11   6  -5    5.22    3.06
  11  -6  -5    5.54    2.01
 -11  -6   5    6.41    2.91
  11   6  -4   11.03    3.15
  11  -6  -4   10.28    2.28
  11  -6  -4   18.46    3.38
 -11  -6   4   16.92    3.95
 -11  -6   4   11.22    2.91
  11   6  -3   15.25    4.09
  11   6  -3   24.21    4.04
 -11  -6   3   14.23    3.70
 -11  -6   3   26.44    4.01
  11  -6  -3   26.26    3.34
  11  -6  -3   20.95    2.96
 -11  -6   3   23.75    2.46
  11  -6  -3   25.00    5.06
  11   6  -2   22.76    3.92
  11   6  -2   26.98    4.75
  11  -6  -2   20.89    3.39
  11  -6  -2   22.26    3.03
  11  -6  -2   20.60    3.12
 -11  -6   2   21.90    3.92
 -11  -6   2   21.14    2.53
 -11  -6   2   20.88    3.98
  11   6  -1   15.64    3.35
  11   6  -1   13.86    3.29
 -11  -6   1   18.84    4.01
 -11  -6   1    7.52    2.62
  11  -6  -1   10.60    3.02
 -11  -6   1   15.36    2.44
  11   6   0   -1.51    1.69
  11   6   0   -1.79    2.00
 -11  -6   0    2.59    2.01
  11  -6   0   -2.31    2.11
 -11  -6   0   -2.76    2.13
 -11  -6   0    0.01    1.59
  11   6   1    2.08    2.28
  11   6   1    1.35    2.02
 -11  -6  -1   -2.01    2.09
 -11  -6  -1    2.24    2.00
  11  -6   1    3.94    2.52
 -11  -6  -1    2.27    2.94
  11   6   2   13.25    3.65
  11   6   2   15.03    3.67
 -11  -6  -2    9.39    3.02
  11  -6   2    9.84    3.28
 -11  -6  -2    8.32    3.62
 -11  -6  -2   11.02    2.92
  11   6   3    9.67    3.53
  11   6   3    8.09    3.15
 -11  -6  -3   11.07    3.93
  11  -6   3    7.19    3.96
 -11  -6  -3   14.12    3.35
 -11  -6  -3    6.16    2.66
 -11   6  -4    9.10    2.57
  11   6   4    4.79    2.80
  11   6   4   15.48    3.66
  11   6   4    8.33    2.83
 -11  -6  -4   12.22    3.17
 -11  -6  -4    7.20    3.82
  11  -6   4    8.45    4.43
 -11   6  -5    3.65    2.23
  11   6   5    4.12    2.45
  11   6   5    6.78    3.72
 -11  -6  -5    3.23    2.53
 -11  -6  -5   -0.37    3.14
  11  -6   5    8.73    4.65
  11   6   6   -1.40    2.09
 -11   6  -6   -0.15    2.35
  11  -6   6   -3.51    2.36
 -11  -6  -6    0.04    3.34
 -11  -6  -6    6.64    2.97
  11   7  -7    3.96    3.53
  11   7  -7    1.23    1.94
  11  -7  -7    0.32    1.85
 -11  -7   7   -0.70    2.92
  11   7  -6    0.78    3.18
  11   7  -6   -2.28    2.07
 -11  -7   6    3.61    3.30
  11  -7  -6   -0.69    1.66
  11   7  -5    5.38    3.02
  11  -7  -5   -0.20    1.59
 -11  -7   5    0.38    3.01
  11   7  -4    5.48    2.89
  11  -7  -4    0.46    1.38
 -11  -7   4   -2.72    2.79
 -11  -7   4    0.86    2.00
  11   7  -3    1.77    1.79
  11   7  -3    4.09    3.24
 -11  -7   3   -1.01    1.28
 -11  -7   3    6.09    3.00
  11  -7  -3    1.47    1.56
 -11  -7   3   -1.45    1.90
  11  -7  -3   -0.26    1.48
  11   7  -2    0.59    1.65
  11   7  -2    2.82    2.44
  11  -7  -2    5.06    1.99
  11  -7  -2    9.10    2.63
 -11  -7   2    9.45    3.77
  11  -7  -2    0.86    1.65
 -11  -7   2    5.48    1.96
 -11  -7   2    2.89    2.48
  11   7  -1    3.22    2.38
  11   7  -1    3.32    2.51
  11  -7  -1    4.87    2.61
 -11  -7   1    4.59    2.92
 -11  -7   1    5.34    2.88
  11  -7  -1    6.09    2.14
 -11  -7   1    6.39    2.22
  11   7   0   -1.30    2.67
  11   7   0   -3.75    1.85
 -11  -7   0   -1.85    2.45
 -11  -7   0    0.18    1.75
  11  -7   0    5.88    2.83
 -11  -7   0   -1.82    2.19
  11   7   1   -1.13    1.59
  11   7   1   -0.69    2.59
 -11  -7  -1   -2.23    2.17
  11  -7   1   -1.42    2.72
 -11  -7  -1   -2.49    2.63
 -11  -7  -1   -0.30    1.94
  11   7   2   -0.57    1.85
  11   7   2   -0.05    2.60
 -11  -7  -2    1.53    3.20
  11  -7   2   -0.56    3.18
 -11  -7  -2   -3.76    1.67
 -11  -7  -2   -1.41    1.86
  11   7   3   10.43    3.78
  11   7   3   21.50    4.19
 -11  -7  -3    9.64    3.62
 -11  -7  -3    6.48    4.17
  11  -7   3   13.53    4.69
 -11  -7  -3   17.51    3.65
  11   7   4   11.29    4.31
  11   7   4   14.94    3.67
 -11  -7  -4   22.04    5.59
  11  -7   4   27.27    5.94
 -11  -7  -4   13.40    3.49
  11   7   5    7.28    4.03
 -11   7  -5    8.23    2.95
 -11  -7  -5   12.47    3.61
  11  -7   5   18.80    5.71
 -11  -7  -5    8.93    4.56
  11   8  -6   18.24    5.27
  11  -8  -6   17.70    3.54
 -11  -8   6    7.24    4.07
  11   8  -5   12.93    4.14
  11  -8  -5    9.46    2.82
 -11  -8   5   12.53    4.51
  11   8  -4    1.17    2.05
  11   8  -4    2.27    3.31
 -11  -8   4   -2.25    3.00
  11  -8  -4    0.63    1.73
  11   8  -3   17.48    3.83
  11   8  -3    8.01    4.14
  11  -8  -3   14.96    3.08
 -11  -8   3   14.53    3.72
  11  -8  -3   17.54    3.49
 -11  -8   3   19.78    5.15
 -11  -8   3   14.47    2.80
  11   8  -2    9.45    3.27
  11   8  -2    2.12    3.41
 -11  -8   2    1.90    3.21
  11  -8  -2    6.09    2.33
  11  -8  -2    9.00    2.78
 -11  -8   2    3.68    2.89
 -11  -8   2    7.48    2.41
  11   8  -1    1.82    2.29
  11   8  -1    2.16    2.49
  11  -8  -1    6.80    3.05
  11  -8  -1    1.87    2.15
 -11  -8   1    3.20    3.13
 -11  -8   1    0.67    2.26
  11  -8  -1   -0.06    1.77
 -11  -8   1   -0.06    2.00
  11   8   0   10.88    3.83
  11   8   0    1.55    2.59
 -11  -8   0    5.35    2.99
 -11  -8   0    3.16    3.30
  11  -8   0    3.72    3.01
 -11  -8   0   12.70    3.13
  11  -8   0    5.99    2.42
  11   8   1   17.41    4.63
  11   8   1   12.28    3.35
 -11  -8  -1   16.25    4.97
 -11  -8  -1   15.73    4.12
  11  -8   1   19.26    4.19
 -11  -8  -1   16.65    3.60
  11   8   2    1.96    2.51
  11   8   2    2.26    2.98
 -11  -8  -2    5.02    3.08
 -11  -8  -2    6.53    2.93
  11  -8   2   14.25    4.56
 -11  -8  -2    2.11    2.81
  11   8   3    1.63    3.00
  11   8   3    7.49    3.80
  11  -8   3    4.53    4.06
 -11  -8  -3    7.73    3.25
 -11  -8  -3    5.66    2.95
 -11  -8  -3    0.77    3.70
  11   8   4   23.59    4.74
  11   8   4   13.13    4.42
 -11  -8  -4    7.19    4.56
  11  -8   4   24.34    5.28
  11   9  -4    3.44    2.61
  11   9  -4   -2.24    2.56
  11  -9  -4    4.44    2.37
 -11  -9   4   -0.18    2.54
  11   9  -3    2.98    3.08
  11   9  -3    1.40    2.41
 -11  -9   3    6.15    3.16
  11  -9  -3    5.14    2.40
 -11  -9   3    3.74    3.09
  11   9  -2   11.33    4.83
  11   9  -2   11.60    3.68
  11  -9  -2   12.66    3.19
  11  -9  -2    5.35    2.79
 -11  -9   2   17.53    4.78
 -11  -9   2    4.47    3.35
 -11  -9   2    1.04    2.18
  11   9  -1   11.58    3.69
  11   9  -1   21.61    4.71
  11  -9  -1   17.24    3.88
  11  -9  -1   16.05    3.48
 -11  -9   1    9.84    3.89
 -11  -9   1    7.41    3.94
 -11  -9   1   19.21    3.50
  11   9   0    4.63    2.99
  11   9   0    2.79    3.65
  11  -9   0   -0.43    2.70
 -11  -9   0   -1.22    1.95
 -11  -9   0    2.03    2.86
 -11  -9   0    3.92    3.98
  11  -9   0    4.28    2.58
  11  -9   0    1.78    2.10
  11   9   1   35.57    6.09
  11   9   1   39.72    5.88
  11  -9   1   38.95    6.10
 -11  -9  -1   24.70    4.21
 -11  -9  -1   46.03    6.53
  11  -9   1   33.75    4.89
 -11  -9  -1   27.36    5.89
  11   9   2   -6.48    2.08
  11   9   2   -2.88    2.05
 -11  -9  -2    0.09    3.78
 -11  -9  -2    0.54    2.72
  11  -9   2   -4.58    3.24
 -11  -9  -2    0.02    2.35
  12   0  -9    0.34    1.41
  12   0  -8    6.42    1.84
 -12   0   7    0.58    1.75
  12   0  -7    0.96    1.16
 -12   0   6    8.76    2.36
  12   0  -6    4.02    1.18
 -12   0   5    3.48    1.80
  12   0  -5    0.30    0.71
 -12   0   4   15.60    2.95
  12   0  -4   11.40    1.03
  12   0  -3    0.53    0.26
 -12   0   3    2.25    1.76
  12   0  -3   -0.06    0.23
 -12   0   3    1.94    1.49
  12   0  -3   -0.71    1.26
  12   0  -2   70.43    4.36
  12   0  -2   68.56    2.83
 -12   0   2   76.71    5.28
  12   0  -2   66.24    4.70
 -12   0   2   65.23    4.91
  12   0  -2   71.16    2.82
  12   0  -1   -2.66    1.07
  12   0  -1    0.42    1.49
 -12   0   1   -0.22    1.31
  12   0  -1   -0.63    0.94
  12   0  -1   -1.19    0.57
  12   0   0    0.01    1.09
  12   0   0    0.01    1.27
  12   0   0    0.06    1.96
 -12   0   0   -1.78    1.21
  12   0   0    0.25    0.85
  12   0   1    3.08    1.97
  12   0   1    0.69    0.87
  12   0   1    0.36    1.10
 -12   0  -1    1.69    1.68
  12   0   1    0.26    1.55
 -12   0  -2    8.78    1.44
  12   0   2    9.49    2.83
  12   0   2    9.08    2.50
 -12   0  -2   12.06    3.21
  12   0   3    0.23    1.57
 -12   0  -3   -0.51    2.07
 -12   0  -3    0.24    1.21
  12   0   3   -1.82    1.98
 -12   0  -4    5.59    2.30
  12   0   4    2.64    2.83
  12   0   4    5.80    2.92
 -12   0  -4    9.17    2.15
  12   0   5   -1.49    2.41
 -12   0  -5    1.91    1.70
  12   0   5   -0.69    2.49
 -12   0  -5   -1.48    1.80
  12   0   6   34.18    5.72
 -12   0  -6   41.86    5.63
 -12   0  -6   42.08    4.86
  12   0   6   36.35    5.80
 -12   0  -7    2.02    2.94
 -12   0  -7   -0.92    2.12
  12   0   7   -1.80    2.82
  12   0   7    0.75    3.08
  12   1  -9    6.86    2.14
  12  -1  -9    8.40    2.25
  12   1  -8    2.96    1.69
  12  -1  -8    3.74    1.57
  12   1  -7    1.11    1.27
  12  -1  -7    2.54    1.28
 -12  -1   7   -0.40    1.94
  12   1  -6    3.63    1.81
 -12   1   6    8.30    2.23
  12   1  -6    5.23    1.35
  12  -1  -6    5.81    1.32
 -12  -1   6    6.42    2.51
 -12   1   5   77.13    5.27
  12   1  -5   77.14    5.70
  12   1  -5   75.81    3.76
  12  -1  -5   74.44    3.52
 -12  -1   5   72.81    5.55
  12   1  -4    4.32    1.99
  12   1  -4    7.18    1.08
  12   1  -4    3.07    0.85
 -12  -1   4    8.02    2.06
 -12  -1   4    2.92    1.73
  12  -1  -4    6.34    0.77
  12   1  -3   54.02    2.51
  12   1  -3   54.25    2.72
  12   1  -3   54.05    4.23
 -12  -1   3   53.33    4.02
  12  -1  -3   52.07    1.91
  12  -1  -3   50.66    1.89
 -12  -1   3   51.33    4.37
  12   1  -2    8.27    1.05
  12   1  -2    8.37    2.41
 -12   1   2   10.71    2.74
  12   1  -2    8.82    1.29
  12   1  -2    7.90    2.04
 -12  -1   2    8.85    2.38
  12  -1  -2    6.95    0.75
  12  -1  -2    4.45    1.42
  12  -1  -2   10.75    0.81
  12  -1  -2    5.50    2.01
 -12  -1   2    7.88    2.25
  12  -1  -2    9.81    2.47
  12   1  -1   18.60    3.14
  12   1  -1   21.51    2.69
  12   1  -1   23.38    1.96
 -12   1   1   22.82    3.59
  12  -1  -1   19.28    2.16
  12  -1  -1   22.25    2.82
  12  -1  -1   20.42    3.35
 -12  -1   1   17.24    3.23
 -12  -1   1   20.69    3.57
  12  -1  -1   21.07    1.62
  12   1   0   36.77    2.54
 -12   1   0   27.28    4.11
  12   1   0   33.35    3.22
  12   1   0   30.71    3.79
 -12  -1   0   24.27    3.54
  12  -1   0   31.24    3.88
  12  -1   0   35.82    3.60
  12  -1   0   27.78    2.45
  12  -1   0   29.02    2.10
  12   1   1   21.30    3.80
 -12   1  -1   23.79    3.93
  12   1   1   21.50    2.52
  12   1   1   24.97    2.59
  12   1   1   23.82    3.66
 -12  -1  -1   22.10    1.37
 -12  -1  -1   17.79    3.29
  12  -1   1   21.13    3.18
  12  -1   1   23.89    2.59
  12  -1   1   21.90    3.57
 -12   1  -2   10.80    2.71
  12   1   2    8.86    2.97
 -12   1  -2   11.07    1.51
  12   1   2   13.06    1.82
  12   1   2    5.69    2.16
  12  -1   2   17.09    2.98
 -12  -1  -2   13.84    1.82
  12  -1   2   11.77    3.27
 -12  -1  -2   10.17    2.58
 -12   1  -3    4.70    1.40
  12   1   3    3.67    2.35
  12   1   3   -0.67    2.17
 -12   1  -3    5.45    2.61
 -12  -1  -3    3.88    2.12
  12  -1   3    1.01    1.96
  12  -1   3    2.41    2.23
 -12  -1  -3    1.30    1.44
 -12   1  -4    0.50    1.63
  12   1   4    0.25    2.25
  12   1   4    4.72    2.21
 -12   1  -4   -1.32    1.26
 -12  -1  -4   -1.22    1.29
 -12  -1  -4    1.09    2.30
  12  -1   4   -0.24    2.16
  12  -1   4   -0.53    2.57
 -12   1  -5    0.08    2.11
  12   1   5   -0.20    2.58
 -12   1  -5   -2.36    1.42
  12   1   5   -1.84    1.32
 -12  -1  -5    3.10    2.67
 -12  -1  -5    2.25    1.88
  12  -1   5    0.07    2.02
  12  -1   5    1.74    2.05
  12   1   6    3.16    2.97
 -12   1  -6    4.94    2.36
 -12   1  -6    6.74    2.90
  12   1   6    5.62    2.97
 -12  -1  -6    7.06    3.25
  12  -1   6    0.06    2.99
  12  -1   6    4.55    3.21
 -12  -1  -6    1.42    2.05
  12   1   7   10.74    3.85
 -12   1  -7   12.76    3.32
  12   1   7   11.00    3.59
  12  -1   7   13.37    4.22
  12  -1   7    8.54    4.13
 -12  -1  -7   12.39    3.78
 -12  -1  -7   12.92    3.41
  12   2  -9    0.37    1.64
  12   2  -9    4.55    2.77
  12  -2  -9    1.69    1.71
  12   2  -8    2.96    1.68
  12   2  -8    2.17    1.82
  12  -2  -8    3.10    1.62
 -12  -2   8    2.52    2.49
  12   2  -7    0.71    1.24
  12   2  -7    1.20    2.21
  12  -2  -7    0.85    1.22
 -12  -2   7    2.43    2.18
  12   2  -6   10.66    2.67
  12   2  -6    8.48    1.71
  12  -2  -6    6.78    1.46
 -12  -2   6   10.84    2.89
  12   2  -5    0.45    1.91
  12   2  -5    5.22    1.33
 -12  -2   5    6.71    1.76
  12  -2  -5    6.04    1.55
 -12  -2   5    5.12    2.62
  12  -2  -5    4.04    1.04
  12   2  -4   -0.50    0.73
  12   2  -4   -0.94    1.16
  12   2  -4   -0.92    0.77
 -12  -2   4    1.51    1.56
 -12  -2   4    0.68    1.60
  12  -2  -4   -0.35    1.29
  12  -2  -4    0.14    0.57
  12   2  -3   13.14    1.63
  12   2  -3   10.61    2.34
  12  -2  -3   14.23    2.46
 -12  -2   3   11.00    2.96
  12  -2  -3    9.78    2.00
 -12  -2   3    8.14    2.28
  12  -2  -3   12.25    1.12
  12  -2  -3   11.20    1.12
  12   2  -2    7.41    1.97
  12   2  -2    2.13    1.66
  12   2  -2    4.99    1.15
  12  -2  -2    4.11    2.04
 -12  -2   2    1.81    1.67
 -12  -2   2    3.19    2.07
  12  -2  -2    6.33    1.73
  12  -2  -2    5.08    1.42
  12  -2  -2    6.61    0.94
  12   2  -1    0.91    1.53
  12   2  -1   -0.12    1.51
  12   2  -1   -1.39    0.73
  12  -2  -1   -0.36    1.77
 -12  -2   1    0.82    2.02
 -12  -2   1   -0.99    2.01
  12  -2  -1   -0.73    0.69
  12  -2  -1    0.16    0.84
  12  -2  -1   -1.44    1.15
  12   2   0   36.27    4.27
  12   2   0   47.23    4.25
 -12   2   0   40.49    4.63
  12   2   0   43.09    3.08
  12  -2   0   45.31    2.91
  12  -2   0   43.20    3.55
 -12  -2   0   40.42    4.93
 -12  -2   0   46.36    4.83
  12  -2   0   46.05    2.12
  12  -2   0   35.30    4.50
  12  -2   0   46.43    2.17
  12   2   1   15.25    2.23
  12   2   1    8.98    2.50
 -12   2  -1   11.59    3.15
  12   2   1   14.60    2.56
 -12  -2  -1   12.22    3.20
 -12  -2  -1   12.83    1.45
  12  -2   1   10.75    3.16
  12  -2   1   11.53    1.95
  12  -2   1   11.00    2.36
 -12   2  -2    2.62    1.86
  12   2   2   -0.58    1.42
  12   2   2    2.35    2.29
  12   2   2    0.81    2.25
 -12   2  -2    0.74    0.95
  12  -2   2    0.36    1.84
  12  -2   2    0.71    1.91
 -12  -2  -2    1.56    1.23
 -12  -2  -2    1.74    2.38
  12   2   3    1.04    1.77
 -12   2  -3    3.51    1.41
 -12   2  -3    1.48    2.18
  12   2   3    0.91    1.88
 -12  -2  -3    1.27    1.35
  12  -2   3    0.73    2.00
  12  -2   3    4.20    2.95
 -12  -2  -3    0.09    2.48
 -12   2  -4    6.79    2.02
  12   2   4    5.31    2.70
  12   2   4    6.74    3.10
 -12   2  -4    9.27    2.63
 -12  -2  -4    6.99    3.05
  12  -2   4    5.25    3.29
  12  -2   4    6.69    2.62
 -12  -2  -4    4.07    1.84
 -12   2  -5   26.25    3.45
 -12   2  -5   21.72    4.15
  12   2   5   20.47    4.53
  12   2   5   22.22    4.39
 -12  -2  -5   20.32    4.40
  12  -2   5   30.90    4.71
 -12  -2  -5   27.31    3.75
  12  -2   5   26.31    5.12
  12   2   6    0.80    2.60
 -12   2  -6    5.22    2.41
  12   2   6    1.54    3.24
 -12   2  -6   13.12    3.54
 -12  -2  -6    1.70    2.62
  12  -2   6    5.62    2.99
  12  -2   6    4.84    2.94
 -12  -2  -6    4.06    2.35
  12   2   7   44.96    6.98
  12   2   7   32.51    5.72
 -12   2  -7   42.26    5.20
  12  -2   7   41.52    6.89
 -12  -2  -7   45.28    6.55
  12  -2   7   51.12    6.66
 -12  -2  -7   35.62    5.10
  12   3  -9    1.25    1.78
  12   3  -9    0.04    1.91
  12  -3  -9    3.71    2.10
  12   3  -8   12.44    3.55
  12   3  -8   10.40    2.57
  12  -3  -8   11.45    2.40
 -12  -3   8   10.03    3.45
  12   3  -7    8.32    3.25
  12   3  -7    4.17    1.77
  12  -3  -7    6.57    1.80
 -12  -3   7    4.47    2.72
  12   3  -6    1.70    1.36
  12   3  -6    0.49    1.68
 -12  -3   6    0.10    2.17
  12  -3  -6    3.71    1.28
  12   3  -5    3.56    2.35
  12   3  -5    2.80    1.29
  12   3  -5    4.43    1.67
  12  -3  -5    1.64    1.02
 -12  -3   5    5.21    2.60
 -12  -3   5    4.08    1.56
  12   3  -4   58.90    3.57
  12   3  -4   65.86    6.08
  12  -3  -4   58.84    3.93
  12  -3  -4   50.52    2.99
 -12  -3   4   57.16    4.20
 -12  -3   4   56.74    5.97
  12   3  -3    2.10    1.96
 -12  -3   3   -0.10    1.50
  12  -3  -3   -1.79    0.57
  12  -3  -3    2.41    1.54
  12  -3  -3    0.76    0.72
  12  -3  -3    0.56    1.08
 -12  -3   3    3.79    1.99
  12   3  -2   58.98    4.85
  12   3  -2   62.62    3.62
  12   3  -2   54.37    5.51
  12  -3  -2   58.14    4.52
  12  -3  -2   59.58    3.42
  12  -3  -2   57.33    3.16
 -12  -3   2   49.58    5.36
 -12  -3   2   60.92    4.85
  12   3  -1   25.81    3.73
  12   3  -1   29.26    2.75
  12   3  -1   23.69    3.33
 -12  -3   1   24.96    4.03
  12  -3  -1   24.51    3.40
  12  -3  -1   23.74    2.28
 -12  -3   1   25.18    3.59
  12  -3  -1   25.59    2.60
  12   3   0   -0.47    1.96
  12   3   0   -0.72    1.59
  12   3   0    0.48    1.15
 -12  -3   0   -0.45    2.06
  12  -3   0    0.34    0.34
 -12  -3   0   -0.37    1.49
  12  -3   0   -2.35    1.37
 -12  -3   0    0.35    0.57
  12  -3   0   -0.56    0.80
  12  -3   0    0.53    1.41
  12   3   1    1.03    1.85
  12   3   1    1.17    1.73
 -12  -3  -1    0.43    1.62
 -12  -3  -1    2.88    1.22
  12  -3   1   -1.58    2.10
  12  -3   1   -1.61    1.48
 -12  -3  -1   -1.35    2.07
 -12   3  -2    6.76    1.49
  12   3   2    8.01    2.25
  12   3   2    6.10    2.83
  12  -3   2    8.33    2.77
 -12  -3  -2    8.37    1.88
  12  -3   2    9.14    2.28
 -12  -3  -2    7.93    3.17
  12   3   3   22.83    4.11
  12   3   3   19.65    4.14
  12   3   3   12.35    2.42
 -12   3  -3   10.86    2.08
 -12  -3  -3   15.95    3.54
 -12  -3  -3   17.10    2.71
  12  -3   3   14.55    2.95
  12  -3   3   11.68    3.81
  12   3   4   -2.36    2.34
  12   3   4    0.54    1.59
 -12   3  -4   -1.72    1.22
 -12  -3  -4    2.08    2.63
 -12  -3  -4    0.47    1.70
  12  -3   4    0.01    2.22
  12  -3   4   -2.87    2.50
 -12   3  -5   25.30    3.43
  12   3   5   29.69    5.04
  12   3   5   24.68    4.43
 -12  -3  -5   27.21    5.06
 -12  -3  -5   24.10    3.71
  12  -3   5   27.95    4.38
  12  -3   5   31.01    5.71
  12   3   6    9.33    3.47
 -12   3  -6    2.81    2.17
  12   3   6    2.25    3.48
 -12  -3  -6    5.48    2.55
 -12  -3  -6   11.86    3.59
  12  -3   6    6.41    4.29
  12  -3   6    6.50    2.99
  12   3   7   -3.09    2.79
 -12   3  -7   -0.49    1.99
  12   3   7   -3.80    2.89
  12  -3   7   -3.95    3.38
 -12  -3  -7    0.24    2.58
 -12  -3  -7    5.54    2.74
  12   4  -8    1.93    2.21
  12   4  -8    2.41    1.84
 -12  -4   8    9.51    3.47
  12  -4  -8    2.32    1.67
  12   4  -7   27.23    4.82
  12   4  -7   32.35    3.79
 -12  -4   7   24.05    4.86
  12  -4  -7   31.70    3.43
  12   4  -6    0.85    1.33
  12   4  -6   -0.21    2.32
  12  -4  -6    2.04    1.32
 -12  -4   6    2.37    2.03
  12   4  -5   16.78    3.68
  12   4  -5   18.52    2.76
  12   4  -5   15.45    2.38
 -12  -4   5   17.82    3.99
  12  -4  -5   17.08    2.27
 -12  -4   5   19.14    2.76
  12   4  -4   18.89    2.58
  12   4  -4   22.65    3.75
 -12  -4   4   18.77    2.95
 -12  -4   4   15.94    3.74
  12  -4  -4   16.52    2.48
  12  -4  -4   18.36    2.21
  12   4  -3    9.36    3.04
  12  -4  -3   10.50    1.65
 -12  -4   3   13.34    2.71
  12  -4  -3   12.75    1.81
  12  -4  -3    9.86    2.35
 -12  -4   3   13.31    3.13
  12  -4  -3   12.42    1.88
  12   4  -2    7.26    2.33
  12   4  -2   10.07    2.53
 -12  -4   2    5.24    2.24
  12  -4  -2    5.64    1.42
 -12  -4   2    6.84    2.55
  12  -4  -2    3.82    2.03
  12   4  -1   51.95    5.53
  12   4  -1   54.41    5.64
 -12  -4   1   55.65    5.99
  12  -4  -1   62.62    3.13
 -12  -4   1   59.89    5.00
  12  -4  -1   59.42    4.98
  12  -4  -1   64.11    3.83
 -12  -4   1   58.38    2.55
  12   4   0    8.95    2.79
  12   4   0    4.80    2.56
 -12  -4   0    3.56    2.09
 -12  -4   0    6.42    2.87
 -12  -4   0    6.06    1.37
  12  -4   0    5.84    1.43
  12  -4   0    6.01    2.71
  12   4   1    5.22    2.47
  12   4   1    6.25    2.67
 -12  -4  -1    4.28    2.28
 -12  -4  -1    2.44    2.36
 -12  -4  -1    6.55    1.72
  12  -4   1    3.54    2.69
  12  -4   1    6.88    1.72
  12   4   2   37.19    4.41
  12   4   2   29.20    4.45
 -12  -4  -2   38.77    5.17
  12  -4   2   37.15    3.74
  12  -4   2   36.14    5.32
 -12  -4  -2   33.65    4.80
  12   4   3   12.63    3.02
 -12   4  -3   14.51    2.29
  12   4   3   10.74    3.17
  12   4   3   15.20    3.66
  12  -4   3   11.09    3.43
  12  -4   3   19.31    3.20
 -12  -4  -3   12.63    3.83
 -12  -4  -3   14.30    2.59
  12   4   4    1.52    1.73
 -12   4  -4    0.79    1.74
  12   4   4    1.37    2.82
 -12  -4  -4   -4.50    2.39
  12  -4   4    1.94    2.14
 -12  -4  -4    0.47    1.80
  12  -4   4    0.42    3.17
  12   4   5   14.79    3.65
 -12   4  -5   10.03    2.69
  12   4   5   11.65    4.20
 -12  -4  -5    7.53    3.84
  12  -4   5    7.81    3.59
  12  -4   5   12.39    3.27
 -12  -4  -5    6.72    2.60
 -12   4  -6    3.85    2.31
  12   4   6    2.05    2.57
  12   4   6    2.37    3.51
 -12  -4  -6    8.29    3.09
  12  -4   6   -2.87    3.31
 -12  -4  -6    3.51    2.96
  12   5  -8    3.28    2.04
  12   5  -8    3.17    3.15
  12  -5  -8    2.18    1.82
 -12  -5   8    3.72    3.27
  12   5  -7    0.10    1.58
  12   5  -7    4.03    2.99
  12  -5  -7    0.48    1.53
 -12  -5   7    1.74    3.05
  12   5  -6   29.70    5.14
  12   5  -6   24.39    3.42
  12  -5  -6   27.14    3.26
 -12  -5   6   23.95    4.63
  12   5  -5    1.44    2.22
  12   5  -5    0.18    1.49
 -12  -5   5    1.00    2.72
  12  -5  -5    1.81    1.44
  12   5  -4   10.62    3.10
 -12  -5   4    9.96    3.32
 -12  -5   4   10.84    2.71
  12  -5  -4    8.84    1.83
  12   5  -3   -0.13    1.83
  12   5  -3    1.76    2.53
 -12  -5   3    2.87    2.13
  12  -5  -3   -0.50    1.82
  12  -5  -3    1.01    1.16
 -12  -5   3    3.11    1.92
  12  -5  -3    0.98    1.29
  12   5  -2   19.44    3.93
  12   5  -2   19.57    3.84
 -12  -5   2   20.68    3.61
  12  -5  -2   16.31    3.19
  12  -5  -2   18.78    2.53
 -12  -5   2   15.70    3.42
  12   5  -1    0.11    2.45
  12   5  -1    3.17    2.52
 -12  -5   1    0.17    2.16
  12  -5  -1   -1.19    1.93
 -12  -5   1   -0.03    0.99
 -12  -5   1   -1.56    1.50
  12   5   0   40.82    5.20
  12   5   0   49.06    5.57
  12  -5   0   47.54    5.28
 -12  -5   0   47.68    5.52
 -12  -5   0   46.95    3.42
 -12  -5   0   45.86    5.46
  12   5   1    0.06    2.26
  12   5   1    1.95    2.35
 -12  -5  -1   -0.67    1.52
 -12  -5  -1    2.13    1.64
  12  -5   1   -0.17    2.57
 -12  -5  -1    1.33    2.54
  12   5   2   -0.91    2.07
  12   5   2   -0.11    2.21
 -12  -5  -2   -0.07    1.66
 -12  -5  -2   -1.96    1.59
 -12  -5  -2    1.50    2.17
  12  -5   2   -3.09    1.75
  12   5   3    4.28    2.62
  12   5   3   10.57    3.88
 -12  -5  -3   -3.89    2.75
  12  -5   3    7.15    3.25
 -12  -5  -3    5.49    2.16
  12   5   4   56.98    6.40
  12   5   4   41.55    6.47
 -12   5  -4   55.79    4.30
  12  -5   4   67.57    7.99
 -12  -5  -4   46.26    6.67
 -12  -5  -4   58.70    5.57
 -12   5  -5   -1.53    1.59
  12   5   5   -0.09    2.11
  12   5   5   -0.50    2.27
  12  -5   5   -2.17    3.58
 -12  -5  -5   -0.26    2.10
 -12  -5  -5    1.35    3.27
  12   5   6   19.48    4.27
 -12   5  -6   16.81    3.57
  12   5   6   16.96    4.50
 -12  -5  -6   15.71    4.43
 -12  -5  -6   23.16    4.24
  12  -5   6   27.59    5.83
  12   6  -7    3.78    2.73
  12   6  -7    3.26    2.14
 -12  -6   7    6.69    3.34
  12  -6  -7    6.63    2.31
  12   6  -6   21.24    4.56
  12  -6  -6   27.89    3.61
 -12  -6   6   34.85    6.04
  12   6  -5    1.97    2.93
  12  -6  -5    2.43    1.60
 -12  -6   5   -0.51    2.68
  12   6  -4    2.77    3.11
 -12  -6   4    7.66    3.39
 -12  -6   4    2.42    2.11
  12  -6  -4    4.56    1.79
  12   6  -3   32.03    4.73
  12   6  -3   22.26    4.29
  12  -6  -3   21.68    2.96
 -12  -6   3   22.18    3.80
 -12  -6   3   22.60    4.35
  12   6  -2   36.69    5.21
  12   6  -2   38.95    5.18
 -12  -6   2   36.07    5.22
  12  -6  -2   38.12    4.12
  12  -6  -2   33.89    4.28
 -12  -6   2   38.35    4.77
  12  -6  -2   36.65    3.70
  12   6  -1   14.86    3.88
  12   6  -1   12.67    3.27
 -12  -6   1   16.64    3.53
 -12  -6   1   12.96    2.23
  12  -6  -1   18.29    3.70
 -12  -6   1   13.96    3.39
  12   6   0    1.65    2.63
  12   6   0    3.24    1.99
 -12  -6   0    1.03    1.69
 -12  -6   0    1.69    2.60
  12  -6   0   -0.59    2.41
 -12  -6   0   -0.55    2.09
  12   6   1    0.45    1.67
  12   6   1    4.81    2.84
 -12  -6  -1    1.12    1.85
 -12  -6  -1    4.54    2.71
 -12  -6  -1    1.13    2.13
  12  -6   1   -0.04    2.59
  12   6   2   25.99    4.52
  12   6   2   21.93    4.35
 -12  -6  -2   17.97    4.61
 -12  -6  -2   30.42    3.75
 -12  -6  -2   27.90    4.60
  12  -6   2   22.97    4.91
  12   6   3   -1.00    2.30
  12   6   3   -1.80    2.52
  12  -6   3    1.47    2.58
 -12  -6  -3    3.35    2.00
 -12  -6  -3    2.06    2.53
  12   6   4   29.78    4.81
  12   6   4   28.52    5.50
  12   6   4   27.94    4.73
  12  -6   4   34.91    6.05
 -12  -6  -4   28.01    4.33
 -12  -6  -4   20.24    4.78
  12   6   5    6.88    2.96
  12   6   5   -2.07    2.82
 -12   6  -5    3.53    2.35
 -12  -6  -5    5.16    3.80
  12  -6   5   -0.04    3.80
 -12  -6  -5    9.47    3.30
  12   7  -6    0.23    2.16
 -12  -7   6    0.28    2.27
  12  -7  -6    1.18    1.80
  12   7  -5    5.67    4.03
 -12  -7   5    4.33    3.51
  12  -7  -5    6.40    2.24
  12   7  -4    2.46    3.45
  12   7  -4    7.59    2.57
 -12  -7   4    8.64    3.79
  12  -7  -4    6.42    2.09
 -12  -7   4    1.62    2.12
  12   7  -3    2.91    2.08
  12   7  -3   -0.24    3.00
 -12  -7   3    1.23    2.28
 -12  -7   3   -0.18    2.78
  12  -7  -3   -0.36    1.43
  12   7  -2   -2.03    2.76
  12   7  -2    2.04    1.76
  12  -7  -2   -3.76    1.99
 -12  -7   2    0.72    2.46
 -12  -7   2    0.85    2.87
 -12  -7   2    1.67    1.72
  12  -7  -2   -1.45    1.44
  12  -7  -2    2.03    1.54
  12   7  -1   22.38    4.29
  12   7  -1   12.23    4.21
 -12  -7   1   25.43    4.84
  12  -7  -1   17.87    3.79
 -12  -7   1   14.47    2.73
  12  -7  -1   15.44    2.93
 -12  -7   1   12.71    3.83
  12   7   0    3.70    2.63
  12   7   0    5.27    2.52
 -12  -7   0   10.50    3.23
  12  -7   0    5.74    3.04
 -12  -7   0    8.82    2.41
 -12  -7   0    5.82    2.76
  12   7   1    0.15    2.48
  12   7   1    0.00    2.91
  12  -7   1    3.24    3.23
 -12  -7  -1    1.49    2.53
 -12  -7  -1   -1.25    1.57
 -12  -7  -1   -1.64    1.84
  12   7   2   -3.84    2.64
  12   7   2   -1.48    2.28
  12  -7   2    1.76    3.44
 -12  -7  -2    0.88    2.49
 -12  -7  -2    4.27    3.78
 -12  -7  -2    0.06    1.96
  12   7   3   17.34    4.24
  12   7   3   18.61    4.41
 -12  -7  -3   16.67    4.51
  12  -7   3   15.13    4.95
 -12  -7  -3   21.11    3.85
 -12  -7  -3   13.54    4.05
  12   7   4   -1.90    2.98
  12   7   4    0.51    2.60
 -12  -7  -4    1.30    2.30
  12  -7   4   -1.35    2.78
 -12  -7  -4    2.80    3.00
  12   8  -5    9.80    3.86
 -12  -8   5    2.44    3.69
  12  -8  -5    0.52    1.54
  12   8  -4    0.64    2.57
  12   8  -4    3.70    2.60
  12  -8  -4    0.91    1.80
 -12  -8   4   -0.46    3.38
  12   8  -3    2.31    2.75
  12   8  -3   11.33    3.49
  12  -8  -3    5.30    2.14
 -12  -8   3    9.36    4.18
 -12  -8   3    6.17    2.93
  12   8  -2    6.35    4.26
  12   8  -2   17.54    4.02
 -12  -8   2   12.39    3.81
 -12  -8   2    8.77    3.50
  12  -8  -2   12.73    2.94
  12   8  -1   -4.06    3.17
  12   8  -1    0.78    2.41
 -12  -8   1   -0.63    1.83
  12  -8  -1   -1.09    1.76
 -12  -8   1   -0.29    2.51
  12  -8  -1    2.17    1.95
 -12  -8   1    0.87    1.86
  12  -8  -1   -1.11    2.52
  12   8   0   46.02    5.89
  12   8   0   23.92    5.27
 -12  -8   0   22.07    5.06
  12  -8   0   32.11    4.29
 -12  -8   0   28.48    3.92
 -12  -8   0   27.58    5.44
  12  -8   0   34.40    5.45
  12   8   1    1.44    3.14
  12   8   1    3.21    3.01
 -12  -8  -1    2.39    3.57
  12  -8   1    5.24    3.68
 -12  -8  -1    0.45    2.75
 -12  -8  -1    5.70    2.46
  12   8   2    1.62    2.26
  12   8   2    0.54    3.26
 -12  -8  -2    8.02    3.46
 -12  -8  -2    4.12    2.64
  12  -8   2    6.30    3.28
 -12  -8  -2    1.65    3.43
  12   8   3   -0.23    3.07
  12   8   3    3.69    3.41
 -12  -8  -3    0.92    3.69
 -12  -8  -3   -0.24    4.00
 -12  -8  -3   -1.18    2.28
  12  -8   3    0.56    2.85
  12   9  -3    0.22    3.85
  12   9  -3    6.45    2.89
  12  -9  -3    5.64    2.46
 -12  -9   3    2.05    3.14
 -12  -9   3    0.77    3.25
  12   9  -2   -0.02    1.65
  12   9  -2   -4.44    3.50
 -12  -9   2    7.68    3.40
 -12  -9   2    3.13    3.16
  12  -9  -2    1.80    1.88
  12   9  -1   -3.94    3.27
  12   9  -1   -1.41    1.45
 -12  -9   1    0.44    2.54
  12  -9  -1   -0.77    1.52
 -12  -9   1    0.62    2.21
  12  -9  -1    1.40    2.28
 -12  -9   1    0.92    3.04
  12   9   0   -0.98    2.43
  12   9   0   -0.40    2.31
  12  -9   0    7.04    3.54
  12  -9   0   -1.56    1.84
 -12  -9   0    6.52    2.84
 -12  -9   0    2.25    2.56
 -12  -9   0    1.71    3.26
  12  -9   0    1.05    2.18
  12   9   1   11.77    3.92
  12   9   1    9.72    3.87
 -12  -9  -1   14.78    4.52
 -12  -9  -1    8.09    3.90
  12  -9   1   11.32    4.42
 -12  -9  -1   16.62    3.78
  12  -9   1   17.52    3.74
  13   0  -9    0.45    1.57
  13   0  -8   11.53    2.16
  13   0  -7   -0.23    0.99
 -13   0   7    0.17    1.76
 -13   0   6   27.78    3.92
  13   0  -6   20.40    2.06
  13   0  -5   -0.76    0.60
 -13   0   5    2.11    1.91
 -13   0   4  155.34    8.54
  13   0  -4  161.56    8.35
  13   0  -4  159.95    5.77
  13   0  -3   -0.35    1.52
 -13   0   3   -0.85    1.61
 -13   0   3    1.92    2.06
  13   0  -3    0.90    1.34
  13   0  -2  228.79    9.90
 -13   0   2  231.04   11.06
  13   0  -2  226.33    8.15
  13   0  -2  224.67   10.36
 -13   0   2  232.12   11.01
  13   0  -1    1.25    1.79
 -13   0   1   -0.68    2.02
  13   0  -1   -0.92    0.66
  13   0  -1   -0.20    1.49
  13   0  -1    0.28    1.20
  13   0   0   -1.32    2.01
  13   0   0    0.06    1.68
  13   0   0    0.19    0.92
  13   0   0   -0.51    1.08
 -13   0   0   -0.47    1.45
  13   0   1    0.11    1.07
  13   0   1    0.14    1.60
 -13   0  -1   -0.32    1.65
  13   0   1   -1.13    1.25
  13   0   1   -0.43    0.80
 -13   0  -2   66.63    6.59
  13   0   2   78.41    5.72
  13   0   2   68.09    5.94
 -13   0  -2   68.93    3.40
 -13   0  -3   -2.36    1.01
 -13   0  -3    1.09    2.18
  13   0   3    4.34    2.64
  13   0   3   -0.83    1.45
  13   0   4   26.97    4.57
  13   0   4   38.81    5.51
 -13   0  -4   30.83    4.58
 -13   0  -4   32.82    3.49
  13   0   5    1.04    2.98
  13   0   5    1.58    2.79
 -13   0  -5   -2.86    1.41
 -13   0  -5   -2.39    2.12
  13   0   6   25.10    5.18
 -13   0  -6   21.31    4.29
  13   0   6   13.22    4.10
 -13   0  -6   18.89    3.58
  13   0   7    0.37    3.30
 -13   0  -7   -1.96    2.23
  13   0   7    1.24    3.01
 -13   0  -7    3.95    3.30
  13   1  -9   15.16    3.93
  13   1  -9    9.23    2.37
  13  -1  -9    9.59    2.29
  13   1  -8   10.72    2.19
  13   1  -8   15.19    3.81
  13  -1  -8    9.48    1.98
  13   1  -7   10.28    3.09
  13   1  -7    7.84    1.72
  13  -1  -7    7.24    1.63
 -13  -1   7    8.48    2.76
  13   1  -6   13.66    3.02
  13   1  -6    9.74    1.61
 -13  -1   6   13.28    3.07
  13  -1  -6   11.39    1.56
  13   1  -5   18.42    3.17
  13   1  -5   16.21    1.69
 -13  -1   5   15.20    3.34
  13  -1  -5   14.05    1.37
  13  -1  -5   19.53    2.73
  13   1  -4   13.06    2.82
  13   1  -4   16.22    1.43
 -13  -1   4   16.02    3.26
 -13  -1   4   12.40    2.64
  13  -1  -4   14.23    0.88
  13  -1  -4   10.84    2.48
  13   1  -3   13.64    2.70
 -13  -1   3   15.87    3.02
  13  -1  -3   14.69    2.72
 -13  -1   3   18.27    3.47
  13  -1  -3   13.39    2.45
  13   1  -2    8.09    1.09
 -13   1   2    7.52    2.22
  13   1  -2    5.28    1.97
  13   1  -2    7.79    2.10
  13  -1  -2    5.92    2.34
 -13  -1   2    6.13    2.50
  13  -1  -2    7.86    2.03
 -13  -1   2    8.98    2.81
  13  -1  -2    7.32    1.77
  13  -1  -2    6.98    0.82
  13   1  -1    0.96    0.88
 -13   1   1    2.99    2.31
  13   1  -1    0.10    1.35
  13   1  -1    3.31    1.68
  13  -1  -1    0.86    1.52
 -13  -1   1    0.03    2.06
  13  -1  -1    0.22    1.98
  13  -1  -1    0.98    0.76
 -13  -1   1    1.37    1.73
  13  -1  -1    0.25    0.96
  13   1   0   28.16    3.72
  13   1   0   36.69    2.66
  13   1   0   33.48    3.30
 -13   1   0   30.34    4.21
  13  -1   0   32.84    2.27
  13  -1   0   40.66    4.75
 -13  -1   0   28.65    4.00
  13  -1   0   34.77    2.53
  13  -1   0   30.98    3.65
  13   1   1   37.04    4.79
  13   1   1   38.65    3.13
  13   1   1   41.61    3.78
  13   1   1   35.38    4.25
 -13   1  -1   37.74    4.70
  13  -1   1   46.77    5.29
  13  -1   1   38.34    4.19
 -13  -1  -1   25.73    3.96
  13  -1   1   36.61    2.93
  13   1   2    1.35    1.03
  13   1   2   -0.41    2.22
 -13   1  -2   -0.65    0.73
  13   1   2   -1.15    1.91
 -13   1  -2   -1.53    2.12
  13  -1   2   -1.77    2.20
 -13  -1  -2   -0.63    0.90
  13  -1   2    1.68    1.97
 -13  -1  -2    1.81    1.93
  13   1   3   20.56    3.74
 -13   1  -3   24.00    4.24
  13   1   3   18.67    3.89
 -13   1  -3   20.86    2.37
 -13  -1  -3   21.22    2.66
  13  -1   3   20.45    3.78
  13  -1   3   26.42    4.35
 -13  -1  -3   20.00    3.79
 -13   1  -4    2.30    2.59
  13   1   4    4.49    3.07
 -13   1  -4    3.78    1.76
  13   1   4    2.60    2.02
 -13  -1  -4    2.87    2.55
 -13  -1  -4    1.60    1.51
  13  -1   4    2.72    2.63
  13  -1   4    0.58    2.74
  13   1   5    4.95    3.33
 -13   1  -5    3.66    2.69
  13   1   5    1.22    2.04
 -13   1  -5    2.85    1.94
 -13  -1  -5    1.65    2.01
  13  -1   5    2.25    2.83
  13  -1   5    0.50    2.26
 -13  -1  -5    3.06    2.87
 -13   1  -6    5.32    3.07
 -13   1  -6    2.71    2.39
  13   1   6    4.91    3.18
  13   1   6   -3.63    2.14
 -13  -1  -6   -0.90    1.81
  13  -1   6   -1.13    2.70
  13  -1   6   -3.39    2.84
 -13  -1  -6   -2.16    2.25
 -13   1  -7    4.92    2.79
  13   1   7    3.83    3.52
  13   1   7    3.80    3.41
 -13  -1  -7    4.92    3.15
  13  -1   7    1.03    2.88
 -13  -1  -7    5.49    2.96
  13  -1   7    0.71    3.10
  13   2  -9    7.51    2.92
  13   2  -9    6.45    2.24
  13  -2  -9    8.04    2.19
  13   2  -8    4.57    2.38
  13   2  -8    1.83    1.52
  13  -2  -8    0.52    1.35
 -13  -2   8    3.23    2.39
  13   2  -7    9.05    1.92
  13   2  -7   11.47    3.26
 -13  -2   7    3.56    2.33
  13  -2  -7    8.24    1.74
  13   2  -6    9.10    2.59
  13   2  -6    7.81    1.60
 -13  -2   6    9.03    2.95
  13  -2  -6    9.56    1.54
  13   2  -5    0.33    0.92
  13   2  -5    1.65    2.04
 -13  -2   5    1.91    1.56
  13  -2  -5    0.24    0.73
  13  -2  -5    1.29    1.34
 -13  -2   5    0.28    2.08
  13   2  -4    1.91    2.18
  13  -2  -4    2.92    1.55
  13  -2  -4    4.09    0.70
 -13  -2   4    1.74    1.64
 -13  -2   4    3.61    2.29
  13   2  -3   40.99    4.40
  13  -2  -3   44.54    3.80
  13  -2  -3   44.10    3.36
  13  -2  -3   42.54    2.07
 -13  -2   3   51.09    4.24
 -13  -2   3   38.37    4.97
  13  -2  -3   40.94    2.07
  13   2  -2    0.45    0.76
  13   2  -2   -1.04    1.46
  13   2  -2   -0.78    1.78
  13  -2  -2    1.52    1.47
  13  -2  -2   -1.94    1.48
 -13  -2   2    1.41    1.88
 -13  -2   2    1.68    2.27
  13  -2  -2   -1.06    0.51
  13   2  -1   16.42    3.20
  13   2  -1   13.59    2.60
  13   2  -1   13.45    1.80
  13  -2  -1   11.15    1.45
 -13  -2   1   14.12    3.01
  13  -2  -1    4.85    1.99
  13  -2  -1   11.06    1.56
 -13  -2   1    9.79    2.81
  13  -2  -1   15.16    2.39
  13   2   0   11.91    1.83
 -13   2   0   12.55    2.86
  13   2   0   11.45    2.68
  13   2   0   12.11    2.53
  13  -2   0    6.02    1.93
 -13  -2   0   11.87    3.26
  13  -2   0   10.45    1.72
 -13  -2   0   12.22    3.15
  13  -2   0    9.28    1.06
  13  -2   0   13.83    3.33
  13   2   1   10.34    2.34
 -13   2  -1   12.69    2.97
  13   2   1   10.55    3.12
  13  -2   1    6.06    2.90
 -13  -2  -1    6.67    2.38
  13  -2   1    8.60    2.36
 -13  -2  -1   10.29    1.08
  13   2   2    1.93    2.06
  13   2   2    0.49    2.26
  13   2   2    0.43    1.38
 -13   2  -2   -0.26    0.81
 -13   2  -2    2.52    2.36
  13  -2   2    2.43    2.05
 -13  -2  -2    1.06    2.40
  13  -2   2   -0.14    1.79
 -13  -2  -2    0.05    1.15
 -13   2  -3   52.99    3.55
 -13   2  -3   51.76    5.76
  13   2   3   51.93    6.04
  13   2   3   48.80    5.70
 -13  -2  -3   50.27    5.77
 -13  -2  -3   49.68    3.75
  13  -2   3   47.68    5.89
  13  -2   3   50.61    5.24
 -13   2  -4   -0.47    1.43
 -13   2  -4    2.85    2.53
  13   2   4    1.99    2.86
  13   2   4    1.38    2.50
  13  -2   4    0.31    2.31
 -13  -2  -4    0.45    2.49
  13  -2   4   -0.34    2.69
 -13  -2  -4    2.33    1.77
  13   2   5    0.33    1.81
 -13   2  -5    3.27    1.90
 -13   2  -5    1.36    2.22
  13   2   5   -3.38    1.75
  13  -2   5    1.68    2.64
  13  -2   5    2.64    3.28
 -13  -2  -5    0.52    1.81
 -13  -2  -5    3.02    2.93
  13   2   6    2.36    3.41
 -13   2  -6   -1.09    1.77
  13   2   6   -3.19    2.15
 -13   2  -6    6.14    3.19
 -13  -2  -6    1.24    2.11
 -13  -2  -6   -0.69    2.52
  13  -2   6    0.56    1.90
  13  -2   6   -0.73    3.10
  13   2   7   19.93    4.90
  13   2   7   19.37    5.22
  13  -2   7   15.32    4.23
  13  -2   7   21.44    5.52
 -13  -2  -7   24.80    5.08
  13   3  -8   13.20    2.68
  13   3  -8   11.01    3.91
 -13  -3   8   19.79    4.23
  13  -3  -8   11.80    2.40
  13   3  -7   -1.39    1.53
  13   3  -7   -1.64    1.12
 -13  -3   7    3.77    2.39
  13  -3  -7    0.74    1.17
  13   3  -6   11.45    3.12
  13   3  -6   14.52    2.24
 -13  -3   6   22.59    4.24
  13  -3  -6   10.62    1.72
  13   3  -5    8.13    1.71
  13   3  -5   12.57    3.32
  13  -3  -5    9.41    1.42
 -13  -3   5    6.16    2.71
 -13  -3   5   10.69    2.30
  13   3  -4    4.35    2.29
  13  -3  -4    0.24    1.49
 -13  -3   4    2.01    2.41
  13  -3  -4    1.12    0.76
 -13  -3   4    1.57    1.58
  13   3  -3    9.15    2.44
  13   3  -3    5.62    2.47
 -13  -3   3   12.59    2.72
  13  -3  -3    8.78    1.26
  13  -3  -3   10.53    2.39
 -13  -3   3    7.24    2.51
  13  -3  -3    9.27    1.77
  13  -3  -3    6.85    1.20
  13   3  -2   51.58    3.38
  13   3  -2   56.66    5.65
  13   3  -2   52.33    4.44
  13  -3  -2   50.60    3.45
  13  -3  -2   56.53    4.60
 -13  -3   2   61.59    5.19
 -13  -3   2   54.78    5.50
  13  -3  -2   53.31    3.03
  13   3  -1   12.67    2.78
  13   3  -1   10.75    1.84
  13   3  -1    7.44    2.45
  13  -3  -1    6.52    2.52
  13  -3  -1    9.75    1.91
 -13  -3   1    8.87    2.96
  13  -3  -1   10.86    1.60
 -13  -3   1   11.77    3.21
  13   3   0    0.49    1.86
  13   3   0   -0.11    2.19
  13  -3   0    3.84    2.10
 -13  -3   0    4.43    2.69
 -13  -3   0    0.84    1.73
  13  -3   0    2.57    1.68
  13  -3   0    1.43    1.09
  13   3   1    4.07    2.10
  13   3   1    0.48    2.32
 -13  -3  -1    1.93    0.98
 -13  -3  -1    1.18    1.87
  13  -3   1    4.04    2.25
 -13  -3  -1    2.33    1.91
  13  -3   1    3.75    1.90
  13   3   2   19.28    3.62
  13   3   2   17.19    3.61
  13   3   2   24.73    3.41
 -13  -3  -2   20.37    2.48
 -13  -3  -2   19.92    3.90
  13  -3   2   17.49    3.02
  13  -3   2   22.83    4.50
 -13   3  -3    5.99    1.65
  13   3   3    4.26    1.93
  13   3   3    6.08    2.89
  13   3   3    5.95    2.38
 -13  -3  -3    4.55    3.05
  13  -3   3    1.07    2.94
 -13  -3  -3    6.58    1.94
  13  -3   3    1.47    2.06
 -13   3  -4   32.30    3.58
  13   3   4   32.13    4.99
  13   3   4   21.02    4.61
 -13  -3  -4   38.58    5.36
 -13  -3  -4   43.01    4.40
  13  -3   4   34.70    4.59
  13  -3   4   35.09    5.35
 -13   3  -5   20.33    3.40
  13   3   5   26.06    4.46
  13   3   5   28.28    5.12
  13  -3   5   31.40    4.70
  13  -3   5   32.10    5.56
 -13  -3  -5   29.16    4.85
 -13  -3  -5   29.32    4.01
  13   3   6   -1.49    2.35
 -13   3  -6    1.51    2.09
  13   3   6   -1.44    3.17
  13  -3   6   -1.41    2.46
 -13  -3  -6    2.34    2.42
  13  -3   6    1.38    2.50
 -13  -3  -6    1.81    2.90
  13   4  -8   -1.16    1.48
  13   4  -8    7.84    3.48
  13  -4  -8    2.86    1.73
 -13  -4   8    4.46    3.08
  13   4  -7   25.30    4.50
  13   4  -7   21.79    3.17
  13  -4  -7   21.71    2.87
 -13  -4   7   26.43    5.09
  13   4  -6   10.18    2.24
  13   4  -6   13.45    3.40
  13  -4  -6    8.57    1.86
 -13  -4   6   14.91    3.79
  13   4  -5   30.33    4.81
 -13  -4   5   28.10    4.94
  13  -4  -5   31.39    2.93
 -13  -4   5   31.73    3.70
  13   4  -4   -0.16    2.19
 -13  -4   4    6.14    2.85
 -13  -4   4    3.18    1.82
  13  -4  -4    0.04    0.94
  13   4  -3    7.65    2.88
  13   4  -3    9.06    2.93
  13  -4  -3    9.25    1.63
  13  -4  -3    9.99    1.66
 -13  -4   3   15.03    3.29
 -13  -4   3   11.13    2.61
  13  -4  -3    7.28    2.24
  13   4  -2    1.55    2.28
  13   4  -2    1.14    1.69
 -13  -4   2    0.49    1.69
  13  -4  -2   -0.98    1.67
 -13  -4   2    0.65    1.98
  13  -4  -2    0.68    0.99
  13   4  -1   18.19    3.31
  13   4  -1   17.08    3.37
 -13  -4   1   15.40    3.71
 -13  -4   1   20.56    3.94
  13  -4  -1   21.26    3.62
  13   4   0    0.07    1.60
  13   4   0    0.54    2.02
  13  -4   0    0.82    2.43
 -13  -4   0    1.31    1.96
 -13  -4   0   -1.23    1.59
 -13  -4   0   -0.02    0.79
  13   4   1    8.44    2.76
  13   4   1    5.23    2.81
 -13  -4  -1    5.61    1.52
 -13  -4  -1   12.59    3.18
 -13  -4  -1    1.53    2.80
  13  -4   1    9.30    2.06
  13  -4   1    6.99    2.78
  13   4   2    2.70    2.50
  13   4   2    2.88    2.19
 -13  -4  -2   -1.86    2.52
 -13  -4  -2    0.43    1.38
  13  -4   2    1.32    2.32
  13  -4   2    2.62    1.87
 -13   4  -3   -1.10    1.32
  13   4   3   -0.58    1.94
  13   4   3   -1.77    1.57
  13   4   3    0.82    2.06
  13  -4   3    2.40    3.25
 -13  -4  -3    1.55    1.88
  13  -4   3    1.62    1.87
 -13  -4  -3    0.85    2.22
 -13   4  -4    2.76    1.75
  13   4   4    0.93    2.22
  13   4   4   -2.68    1.66
  13  -4   4   -2.33    1.65
 -13  -4  -4    4.70    3.09
  13  -4   4    1.67    2.67
 -13  -4  -4    1.36    2.14
  13   4   5   11.11    3.34
  13   4   5    5.82    3.96
 -13   4  -5    6.28    2.42
  13  -4   5    9.35    4.38
  13  -4   5   14.25    3.52
 -13  -4  -5    5.74    2.60
 -13  -4  -5    7.76    3.69
 -13   4  -6    0.50    2.45
  13   4   6    4.05    3.83
  13   4   6    1.49    2.75
  13  -4   6   -3.02    3.85
 -13  -4  -6   10.06    3.92
 -13  -4  -6    4.47    2.66
  13   5  -8    3.33    3.12
  13   5  -8    3.47    2.08
  13  -5  -8    5.61    2.19
 -13  -5   8    0.06    2.94
  13   5  -7   10.46    2.60
  13   5  -7    8.92    3.24
  13  -5  -7   11.09    2.38
 -13  -5   7    7.61    3.90
  13   5  -6    4.34    2.72
 -13  -5   6    6.80    3.39
  13  -5  -6    5.70    1.81
  13   5  -5    8.78    3.37
 -13  -5   5    2.60    2.92
  13  -5  -5   11.32    2.08
  13   5  -4    4.55    3.01
 -13  -5   4    9.19    2.40
  13  -5  -4    3.11    1.49
 -13  -5   4    7.66    3.36
  13   5  -3    1.56    2.24
  13   5  -3   -0.12    1.66
  13  -5  -3   -0.51    0.96
  13  -5  -3    1.57    1.97
 -13  -5   3    1.39    1.86
 -13  -5   3   -1.91    2.17
  13   5  -2   12.52    3.02
  13   5  -2    6.84    3.03
 -13  -5   2   10.13    3.11
  13  -5  -2    8.66    1.90
  13  -5  -2   12.55    3.11
 -13  -5   2   14.01    3.82
  13   5  -1    3.10    2.47
  13   5  -1    7.69    2.80
 -13  -5   1    5.51    2.90
 -13  -5   1    5.09    2.79
  13  -5  -1    7.60    2.73
  13   5   0   27.47    4.59
  13   5   0   26.64    4.42
 -13  -5   0   33.93    2.61
  13  -5   0   28.61    4.63
 -13  -5   0   26.71    4.83
 -13  -5   0   31.38    5.01
  13   5   1    0.73    2.26
  13   5   1   -0.77    1.97
 -13  -5  -1    1.33    1.48
  13  -5   1    0.36    2.11
 -13  -5  -1   -0.92    2.32
 -13  -5  -1    3.17    2.89
  13   5   2   17.48    3.83
  13   5   2   14.75    3.57
 -13  -5  -2   27.98    4.86
  13  -5   2   16.84    4.43
 -13  -5  -2   24.44    3.21
 -13  -5  -2   22.18    4.87
  13   5   3    6.35    2.87
  13   5   3    6.26    2.91
 -13  -5  -3    8.08    2.57
 -13  -5  -3    7.43    3.23
  13  -5   3    7.39    4.05
  13   5   4    9.65    4.23
 -13   5  -4   10.65    2.48
  13   5   4   11.59    3.16
 -13  -5  -4    7.04    2.48
  13  -5   4   12.78    4.21
 -13  -5  -4   14.69    4.11
 -13   5  -5    0.81    2.18
  13   5   5    1.43    2.64
  13   5   5    1.50    2.46
 -13  -5  -5    0.20    2.46
 -13  -5  -5   -1.41    1.99
  13  -5   5   -5.63    3.07
  13   6  -7    8.25    3.88
 -13  -6   7    1.42    3.22
  13  -6  -7    5.36    2.12
  13   6  -6    8.93    4.09
  13  -6  -6   11.65    2.45
 -13  -6   6   13.41    4.04
  13   6  -5    4.44    3.46
  13  -6  -5    6.51    2.00
 -13  -6   5    4.89    3.43
  13   6  -4    1.64    1.86
  13   6  -4    0.29    2.01
 -13  -6   4    4.39    3.28
 -13  -6   4    3.67    2.09
  13  -6  -4   -1.76    1.22
  13   6  -3    3.43    3.14
  13   6  -3    3.13    2.32
  13  -6  -3    2.97    1.51
 -13  -6   3    0.98    2.17
 -13  -6   3    1.06    2.60
  13   6  -2    4.58    3.21
  13   6  -2    8.60    3.03
  13  -6  -2    5.01    1.82
 -13  -6   2    8.48    3.45
  13  -6  -2    4.97    2.84
 -13  -6   2    1.16    2.28
  13   6  -1   18.20    3.83
  13   6  -1   18.08    3.74
 -13  -6   1    9.39    3.51
  13  -6  -1   10.22    3.51
 -13  -6   1   18.83    4.06
  13   6   0   10.71    3.68
  13   6   0   10.25    2.99
 -13  -6   0   10.47    3.24
 -13  -6   0   12.62    2.34
  13  -6   0   14.41    3.91
 -13  -6   0   10.10    3.23
  13   6   1    0.35    2.71
  13   6   1    4.09    2.97
  13  -6   1   -3.76    2.82
 -13  -6  -1    3.62    2.40
 -13  -6  -1    3.81    2.52
 -13  -6  -1    3.47    1.87
  13   6   2    1.88    2.59
  13   6   2    0.38    2.52
 -13  -6  -2    6.81    3.25
  13  -6   2   -1.13    2.29
 -13  -6  -2    1.41    1.86
 -13  -6  -2    3.63    2.58
  13   6   3   -0.01    2.42
  13   6   3   -3.60    1.32
 -13  -6  -3   -1.66    1.69
 -13  -6  -3    0.33    3.21
  13  -6   3   -3.44    3.23
  13   6   4    2.57    3.61
  13   6   4    1.85    2.41
  13   6   4    4.25    2.73
  13  -6   4   -2.02    4.00
 -13  -6  -4   -0.13    2.20
 -13  -6  -4   -4.58    2.82
  13   6   5   -0.15    3.40
  13   6   5    8.40    3.27
 -13   6  -5    5.49    2.62
  13  -6   5    6.76    4.64
 -13  -6  -5    7.99    3.98
 -13  -6  -5    8.73    3.20
  13   7  -6    1.16    3.56
 -13  -7   6    2.35    3.44
  13  -7  -6    1.99    1.93
  13   7  -5    0.58    2.65
  13  -7  -5    4.93    2.13
 -13  -7   5    6.99    3.18
  13   7  -4    3.81    2.61
  13   7  -4   -3.25    2.70
 -13  -7   4   -1.73    1.63
  13  -7  -4   -0.78    1.54
  13   7  -3    2.06    1.84
  13   7  -3    0.13    2.38
 -13  -7   3    5.71    3.43
 -13  -7   3    4.94    2.91
  13  -7  -3    0.04    1.36
  13   7  -2    9.80    2.93
  13   7  -2   12.82    4.26
 -13  -7   2    7.17    3.09
  13  -7  -2    7.55    2.26
 -13  -7   2    5.01    2.94
  13   7  -1   26.20    4.43
  13   7  -1   19.46    4.75
 -13  -7   1   19.76    4.37
 -13  -7   1   27.08    5.04
  13  -7  -1   27.07    4.54
  13  -7  -1   17.60    3.15
  13   7   0    1.62    2.53
  13   7   0   -3.35    2.45
 -13  -7   0    2.42    2.40
 -13  -7   0   -1.63    1.57
  13  -7   0   -2.35    2.71
 -13  -7   0    0.69    2.81
  13   7   1   39.90    5.84
  13   7   1   30.51    5.09
 -13  -7  -1   44.28    6.54
 -13  -7  -1   34.02    5.59
  13  -7   1   35.20    5.53
  13   7   2    5.84    3.40
  13   7   2    0.54    2.72
 -13  -7  -2   -2.34    2.53
 -13  -7  -2    0.47    2.39
  13  -7   2    2.61    3.60
 -13  -7  -2    2.14    2.34
  13   7   3   -1.18    2.85
  13   7   3   -0.46    2.24
 -13  -7  -3   -0.19    1.98
  13  -7   3   -3.66    3.18
 -13  -7  -3    1.77    3.50
  13   7   4   12.52    3.58
  13   7   4    3.23    3.84
  13   7   4    9.04    3.38
 -13  -7  -4    0.53    3.59
 -13  -7  -4    4.08    2.59
  13  -7   4    0.77    4.28
  13   8  -5    5.77    4.34
  13   8  -5   14.61    3.87
  13  -8  -5    7.99    2.60
 -13  -8   5   -0.32    2.21
  13   8  -4    3.28    2.20
  13   8  -4   -5.72    3.16
 -13  -8   4   -1.37    2.22
  13  -8  -4   -0.43    1.64
  13   8  -3   -0.08    2.05
  13   8  -3    0.92    3.67
 -13  -8   3    3.56    3.21
 -13  -8   3    4.40    2.94
  13  -8  -3    5.39    2.30
  13   8  -2   -0.36    2.24
  13   8  -2   -5.44    2.84
 -13  -8   2   -1.28    2.59
 -13  -8   2    5.85    3.71
  13  -8  -2    1.58    1.64
  13   8  -1   -0.68    3.65
  13   8  -1    2.71    2.92
 -13  -8   1   -0.05    3.09
 -13  -8   1    8.91    3.98
  13  -8  -1    2.46    1.92
  13  -8  -1    0.16    2.58
  13   8   0   14.33    4.16
  13   8   0   15.73    4.89
 -13  -8   0   15.25    3.99
 -13  -8   0   13.24    3.10
 -13  -8   0   10.25    3.60
  13  -8   0   15.53    3.30
  13  -8   0   11.95    3.87
  13   8   1   -2.62    2.07
  13   8   1   -0.67    2.60
  13  -8   1    4.23    3.71
 -13  -8  -1    5.38    3.37
 -13  -8  -1    1.18    2.54
 -13  -8  -1   -1.60    2.21
  13   8   2    9.99    4.14
  13   8   2    9.09    4.07
 -13  -8  -2   11.43    3.18
 -13  -8  -2   17.08    4.49
  13  -8   2   16.01    4.96
 -13  -8  -2    7.55    4.03
  13   8   3    9.07    4.46
  13   9  -2    5.48    3.34
  13   9  -2   -3.29    2.34
  13  -9  -2    6.59    2.63
 -13  -9   2    2.29    3.37
 -13  -9   2    5.03    3.49
  13   9  -1    1.20    3.80
  13   9  -1    6.72    3.50
 -13  -9   1    7.12    3.89
  13  -9  -1    1.81    2.15
 -13  -9   1   -0.83    2.20
  13   9   0    6.75    4.18
  13   9   0    6.87    3.61
  13  -9   0    4.61    2.65
 -13  -9   0    5.45    4.06
  13  -9   0    8.54    4.03
 -13  -9   0    9.40    3.91
  14   0  -9   -0.99    1.40
  14   0  -8   14.37    2.37
  14   0  -7    1.43    1.12
 -14   0   7    0.42    1.84
  14   0  -6   23.29    2.08
 -14   0   6   19.77    3.53
  14   0  -5   -0.11    1.21
  14   0  -5   -0.31    0.52
 -14   0   5    1.43    1.77
 -14   0   4    5.41    2.30
  14   0  -4    6.92    2.21
  14   0  -3   -1.50    1.21
 -14   0   3   -0.40    1.96
 -14   0   3    0.80    1.92
  14   0  -3   -1.35    0.98
  14   0  -2    8.92    0.99
  14   0  -2    6.00    2.27
  14   0  -2    9.70    2.13
 -14   0   2    6.76    2.27
  14   0  -2   12.86    2.70
  14   0  -1   -1.77    1.05
  14   0  -1    0.94    1.60
  14   0  -1    0.33    0.74
 -14   0   1   -1.24    1.37
  14   0  -1    0.86    1.84
 -14   0   0    9.22    3.09
  14   0   0   14.22    2.99
  14   0   0    8.58    1.57
  14   0   0    8.03    1.71
  14   0   0    9.24    2.66
  14   0   1    0.94    2.12
  14   0   1    3.56    2.59
 -14   0  -1   -2.13    1.32
 -14   0  -2   46.43    2.60
  14   0   2   47.77    5.53
  14   0   2   43.91    5.10
 -14   0  -2   50.00    5.86
 -14   0  -3   -0.45    1.13
 -14   0  -3   -1.09    2.16
  14   0   3    1.71    2.37
  14   0   3    2.05    2.57
  14   0   4  108.57    7.91
 -14   0  -4  112.37    8.14
  14   0   4  113.45    8.16
 -14   0  -4  107.60    6.00
 -14   0  -5   -1.11    1.48
  14   0   5    3.00    3.17
  14   0   5   -2.56    2.82
 -14   0  -5    7.58    3.18
  14   0   6    1.32    3.37
 -14   0  -6    8.36    3.39
  14   0   6    9.12    4.05
 -14   0  -6    9.24    2.73
  14   1  -9   10.11    3.08
  14   1  -9    2.37    1.67
  14  -1  -9    5.34    1.89
  14   1  -8   27.82    3.21
  14   1  -8   28.90    4.84
  14  -1  -8   24.21    2.78
  14   1  -7   19.02    2.35
  14   1  -7   29.36    4.70
  14  -1  -7   15.76    2.06
 -14  -1   7   17.38    3.66
  14   1  -6    3.07    1.17
  14   1  -6    5.95    2.28
  14  -1  -6    5.05    1.09
 -14  -1   6    2.81    2.32
  14   1  -5    8.11    1.25
  14   1  -5    6.05    2.55
  14  -1  -5    9.41    1.02
  14  -1  -5   10.81    2.31
 -14  -1   5   12.26    3.22
  14   1  -4   22.80    3.49
 -14  -1   4   17.03    3.47
 -14  -1   4   19.64    3.33
  14  -1  -4   17.55    3.08
  14   1  -3    2.59    1.69
  14   1  -3    3.01    2.09
  14  -1  -3   -1.78    1.66
  14  -1  -3    1.52    1.46
 -14  -1   3    1.96    1.87
  14  -1  -3    2.53    1.60
 -14  -1   3    1.73    1.54
  14   1  -2   50.78    4.06
 -14   1   2   62.15    4.95
  14   1  -2   51.67    2.67
  14   1  -2   56.52    5.42
  14  -1  -2   54.55    5.42
  14  -1  -2   48.40    2.37
 -14  -1   2   45.98    5.07
 -14  -1   2   45.99    5.10
  14  -1  -2   56.61    3.83
  14  -1  -2   44.37    4.35
  14   1  -1    1.20    0.84
 -14   1   1    2.43    1.98
  14   1  -1    0.23    1.48
  14   1  -1   -1.69    1.71
 -14  -1   1    2.34    1.82
  14  -1  -1    0.17    1.61
  14  -1  -1    1.70    0.84
 -14  -1   1   -0.20    2.11
  14  -1  -1    2.86    1.78
  14  -1  -1   -0.01    1.09
  14   1   0    7.09    2.80
  14   1   0    5.23    1.38
  14   1   0    6.36    1.94
 -14   1   0    6.48    2.72
  14   1   0    4.56    2.01
 -14  -1   0    4.75    2.17
  14  -1   0    7.14    1.46
  14  -1   0    3.80    1.93
  14  -1   0    3.59    1.17
  14  -1   0    4.63    2.59
  14   1   1   -1.26    1.90
  14   1   1    1.93    1.89
  14   1   1    0.83    1.33
 -14   1  -1   -2.53    2.10
  14  -1   1    1.70    2.01
 -14  -1  -1    1.65    2.29
  14  -1   1    0.67    1.77
  14   1   2    1.12    1.82
 -14   1  -2   -1.94    1.41
  14   1   2   -0.25    2.09
  14  -1   2    0.43    1.90
 -14  -1  -2    1.34    0.83
 -14  -1  -2    2.08    2.06
  14  -1   2   -1.35    2.06
  14   1   3    0.42    2.36
  14   1   3   -0.15    2.47
 -14   1  -3    6.36    2.58
 -14   1  -3    1.19    1.21
  14  -1   3    3.94    2.40
 -14  -1  -3    2.08    2.13
 -14  -1  -3    1.73    1.42
  14  -1   3    2.47    2.64
 -14   1  -4    1.42    1.57
  14   1   4   -2.68    1.97
 -14   1  -4   -2.13    2.08
  14   1   4    1.06    2.96
  14  -1   4   -0.38    2.81
  14  -1   4   -1.01    2.33
 -14  -1  -4    1.92    2.65
 -14  -1  -4    2.36    1.67
  14   1   5    2.81    3.14
 -14   1  -5    2.82    1.89
 -14   1  -5   -0.85    1.77
  14   1   5   -3.14    2.30
  14  -1   5    3.76    2.89
  14  -1   5   -2.46    2.00
 -14  -1  -5    3.58    3.00
 -14  -1  -5    4.95    2.37
  14   1   6    2.67    3.08
  14   1   6   -0.68    2.83
 -14   1  -6    3.95    2.58
 -14   1  -6    4.81    2.21
 -14  -1  -6    4.60    3.10
 -14  -1  -6    1.04    2.43
  14  -1   6   -0.82    3.18
  14  -1   6    6.13    3.63
  14   2  -8    3.22    1.76
  14   2  -8   10.16    3.32
  14  -2  -8    6.15    1.68
 -14  -2   8    2.85    3.20
  14   2  -7   12.25    2.10
  14   2  -7   14.02    3.38
 -14  -2   7   11.09    3.29
  14  -2  -7   13.35    1.96
  14   2  -6    5.42    1.50
  14   2  -6    3.05    2.00
  14  -2  -6    7.29    1.37
 -14  -2   6    8.19    2.95
  14   2  -5    4.18    2.48
  14   2  -5    1.42    0.94
  14  -2  -5    6.81    2.23
 -14  -2   5   -0.38    1.96
  14  -2  -5    2.32    0.77
 -14  -2   5    0.96    1.61
  14   2  -4   53.31    5.46
  14  -2  -4   56.80    2.46
  14  -2  -4   63.28    4.58
 -14  -2   4   51.28    5.79
  14  -2  -4   53.93    2.45
 -14  -2   4   61.56    4.72
  14   2  -3   26.39    4.03
  14   2  -3   28.43    3.96
  14  -2  -3   29.65    1.59
  14  -2  -3   28.53    1.61
  14  -2  -3   31.12    3.80
  14  -2  -3   39.51    3.67
 -14  -2   3   32.60    4.43
 -14  -2   3   31.46    4.11
  14   2  -2   16.93    3.36
  14   2  -2   20.18    3.15
  14   2  -2   11.21    1.65
  14  -2  -2   16.50    2.21
  14  -2  -2   12.11    2.79
  14  -2  -2   14.98    1.41
  14  -2  -2   16.57    2.48
 -14  -2   2   11.49    2.91
 -14  -2   2   17.52    3.42
  14   2  -1   17.41    3.56
  14   2  -1   19.85    3.13
  14   2  -1   23.18    2.32
  14  -2  -1   14.85    2.52
  14  -2  -1   15.30    3.31
  14  -2  -1   18.48    2.00
  14  -2  -1   18.95    1.92
 -14  -2   1   18.42    3.52
 -14  -2   1   20.58    3.51
  14   2   0   16.32    3.16
  14   2   0   21.58    3.20
 -14   2   0   15.70    3.22
 -14  -2   0   21.09    3.91
 -14  -2   0   19.28    3.51
  14  -2   0   17.89    2.17
  14  -2   0   20.46    3.87
  14  -2   0   19.74    3.02
  14   2   1    5.11    2.83
 -14   2  -1    1.97    2.07
  14   2   1    3.77    1.89
  14   2   1    3.86    2.10
 -14  -2  -1    1.88    1.97
  14  -2   1    3.76    2.11
  14  -2   1    1.94    2.78
  14   2   2   26.09    4.28
  14   2   2   22.58    2.95
  14   2   2   25.05    4.40
 -14   2  -2   24.65    4.40
  14  -2   2   38.56    5.22
 -14  -2  -2   22.78    4.12
  14  -2   2   24.26    3.70
 -14   2  -3   64.88    3.73
  14   2   3   66.04    6.76
  14   2   3   60.76    6.75
 -14   2  -3   70.39    7.25
 -14  -2  -3   56.43    6.43
 -14  -2  -3   66.47    4.16
  14  -2   3   56.99    5.82
  14  -2   3   66.02    7.03
 -14   2  -4    0.52    2.42
  14   2   4   -1.43    1.81
  14   2   4   -0.21    1.46
 -14   2  -4   -0.51    1.44
 -14  -2  -4   -0.47    2.53
  14  -2   4    1.05    2.35
  14  -2   4   -1.22    1.97
 -14  -2  -4    0.54    1.60
  14   2   5    3.05    2.92
 -14   2  -5   11.45    2.72
  14   2   5    8.06    3.97
 -14   2  -5   21.75    4.42
 -14  -2  -5   12.56    3.93
 -14  -2  -5   18.70    3.37
  14  -2   5   18.72    4.18
  14  -2   5   16.59    4.99
 -14   2  -6   -1.47    1.84
 -14   2  -6    4.68    3.12
  14   2   6    7.19    3.79
  14   2   6   -1.28    2.75
 -14  -2  -6    1.26    2.07
  14  -2   6    3.04    2.70
 -14  -2  -6    2.14    2.35
  14  -2   6   -1.72    3.55
  14   3  -8   11.52    2.52
  14   3  -8   12.49    4.22
  14  -3  -8   12.44    2.31
 -14  -3   8   17.00    4.17
  14   3  -7   -1.00    1.78
  14   3  -7    0.54    1.32
  14  -3  -7   -0.17    1.11
 -14  -3   7    0.77    2.32
  14   3  -6   22.13    4.02
  14   3  -6   13.57    2.26
  14  -3  -6   15.84    2.00
 -14  -3   6   19.63    4.28
  14   3  -5   22.03    4.19
 -14  -3   5   22.98    3.33
 -14  -3   5   33.18    4.84
  14  -3  -5   24.86    2.17
  14   3  -4   16.89    3.59
  14  -3  -4   22.79    2.77
  14  -3  -4   22.94    1.80
  14  -3  -4   21.43    1.88
  14  -3  -4   23.10    3.12
 -14  -3   4   27.67    4.29
 -14  -3   4   20.15    3.27
  14   3  -3   11.63    3.09
  14   3  -3   15.86    3.47
  14  -3  -3   10.87    1.39
  14  -3  -3    9.00    2.57
 -14  -3   3   18.47    3.34
  14  -3  -3   14.37    2.22
 -14  -3   3    8.21    3.07
  14  -3  -3   13.36    1.54
  14   3  -2    3.30    1.85
  14   3  -2    2.67    1.87
 -14  -3   2    2.54    2.58
  14  -3  -2   -3.55    1.57
  14  -3  -2    0.56    0.84
 -14  -3   2    3.12    2.32
  14  -3  -2    0.77    1.37
  14   3  -1   12.03    2.95
  14   3  -1   19.70    3.39
  14  -3  -1   14.78    3.24
 -14  -3   1   14.15    2.98
 -14  -3   1   10.39    2.89
  14  -3  -1   14.12    1.81
  14  -3  -1   14.70    2.34
  14   3   0   -0.49    1.68
  14   3   0   -0.74    1.56
  14  -3   0    1.75    1.70
 -14  -3   0    3.87    2.81
  14  -3   0    0.53    2.41
 -14  -3   0   -1.75    1.39
  14   3   1   45.62    5.66
  14   3   1   52.12    4.94
 -14  -3  -1   45.95    5.84
  14  -3   1   53.28    6.00
  14  -3   1   47.97    4.03
  14   3   2   -1.54    1.63
  14   3   2    5.62    2.92
  14   3   2    1.89    1.86
  14  -3   2    1.32    2.08
 -14  -3  -2    2.39    1.29
  14  -3   2    0.78    3.02
 -14  -3  -2    1.88    2.83
  14   3   3    2.95    2.18
  14   3   3    9.43    2.51
  14   3   3    8.15    3.13
 -14   3  -3    7.05    2.50
  14  -3   3    5.57    2.56
 -14  -3  -3    7.34    3.26
  14  -3   3    3.80    2.83
 -14  -3  -3    7.39    2.02
  14   3   4    9.20    3.04
  14   3   4   12.47    4.21
 -14   3  -4   10.65    2.36
 -14  -3  -4   15.52    2.89
 -14  -3  -4    9.22    3.55
  14  -3   4   12.81    3.84
  14  -3   4   10.23    3.24
  14   3   5    0.53    2.53
  14   3   5    8.75    3.38
 -14   3  -5    3.55    1.97
  14  -3   5    3.21    3.01
  14  -3   5    2.85    2.79
 -14  -3  -5    3.34    2.35
 -14  -3  -5    6.03    3.47
  14   3   6   -1.56    2.66
  14   3   6    2.65    4.01
 -14   3  -6    9.04    2.92
  14  -3   6    6.73    3.74
 -14  -3  -6   11.59    4.11
  14  -3   6    8.73    3.45
 -14  -3  -6    4.43    2.69
  14   4  -8    7.51    2.30
  14   4  -8   10.99    3.49
  14  -4  -8    7.70    2.09
 -14  -4   8    5.55    3.08
  14   4  -7   -0.39    1.34
  14   4  -7    1.33    2.82
 -14  -4   7    0.91    2.48
  14  -4  -7   -0.53    1.24
  14   4  -6   14.75    3.95
  14   4  -6   21.73    2.90
 -14  -4   6   25.54    4.85
  14  -4  -6   19.85    2.41
  14   4  -5   -1.06    2.22
  14  -4  -5   -0.38    1.00
 -14  -4   5    2.08    2.66
  14   4  -4    2.04    2.46
 -14  -4   4    1.11    1.98
  14  -4  -4   -0.58    0.91
 -14  -4   4   -3.51    2.05
  14   4  -3    1.72    1.87
  14   4  -3    0.06    1.53
 -14  -4   3    1.54    1.77
  14  -4  -3    2.28    2.11
  14  -4  -3    2.79    1.12
 -14  -4   3    3.72    2.81
  14   4  -2   20.33    3.95
  14   4  -2   21.36    3.99
  14  -4  -2   16.19    3.31
 -14  -4   2   12.77    3.64
 -14  -4   2   19.52    3.72
  14   4  -1   13.65    3.31
  14   4  -1   15.76    3.42
 -14  -4   1    9.81    2.90
  14  -4  -1   18.79    3.77
 -14  -4   1   10.35    3.35
  14   4   0    3.44    2.07
  14   4   0    4.66    2.63
  14  -4   0    3.54    2.12
 -14  -4   0    1.82    2.55
 -14  -4   0    3.23    2.77
  14   4   1    5.56    2.42
  14   4   1    8.04    2.81
 -14  -4  -1    3.28    2.72
 -14  -4  -1    1.38    1.04
 -14  -4  -1    1.52    2.01
  14  -4   1    5.68    3.19
  14   4   2    0.97    2.00
  14   4   2    0.66    2.14
 -14  -4  -2   -0.26    1.44
  14  -4   2   -0.83    2.02
 -14  -4  -2    3.82    2.36
  14   4   3   -0.11    1.64
  14   4   3   -3.38    2.67
  14   4   3    3.18    2.39
 -14  -4  -3   -0.17    1.61
  14  -4   3   -0.44    3.27
 -14  -4  -3    3.53    3.06
  14   4   4   -4.16    1.69
  14   4   4   -2.72    2.06
 -14   4  -4    0.81    1.79
 -14  -4  -4   -0.72    2.05
 -14  -4  -4    0.70    2.01
  14  -4   4   -3.93    3.36
 -14   4  -5    8.44    2.62
  14   4   5    5.52    3.19
  14   4   5    1.45    3.78
 -14  -4  -5    7.65    2.90
  14  -4   5    4.88    4.40
 -14  -4  -5    5.13    3.44
  14   5  -7    3.57    1.89
  14   5  -7    3.43    3.45
  14  -5  -7    1.87    1.52
 -14  -5   7    3.88    2.95
  14   5  -6    6.55    3.78
  14  -5  -6   11.71    2.16
 -14  -5   6    7.23    3.59
  14   5  -5    6.78    2.91
  14  -5  -5    7.04    1.74
 -14  -5   5    6.49    2.87
  14   5  -4   34.55    4.85
  14   5  -4   35.74    5.31
 -14  -5   4   45.36    5.92
 -14  -5   4   35.40    4.46
  14  -5  -4   31.94    3.21
  14   5  -3    1.99    2.81
  14   5  -3    3.22    2.19
 -14  -5   3    0.15    1.83
  14  -5  -3    2.44    2.19
 -14  -5   3    2.93    2.84
  14  -5  -3    0.49    1.11
  14   5  -2    5.65    2.50
  14   5  -2    4.99    2.58
  14  -5  -2    8.67    1.90
 -14  -5   2    4.22    2.35
  14  -5  -2    4.95    2.65
 -14  -5   2    9.68    3.14
  14   5  -1   20.59    4.14
  14   5  -1   15.39    3.86
  14  -5  -1   19.85    3.87
 -14  -5   1   14.46    3.50
 -14  -5   1   20.21    4.37
  14   5   0   43.34    5.61
  14   5   0   51.19    5.92
  14  -5   0   49.47    5.76
 -14  -5   0   53.64    6.47
 -14  -5   0   56.35    6.50
  14   5   1   14.35    3.55
  14   5   1   15.25    3.58
 -14  -5  -1   11.01    3.36
 -14  -5  -1   15.32    4.08
  14  -5   1   13.86    3.97
 -14  -5  -1   12.30    2.10
  14   5   2   47.11    6.39
  14   5   2   50.57    5.76
 -14  -5  -2   49.58    6.23
  14  -5   2   47.66    6.83
 -14  -5  -2   50.94    3.97
 -14  -5  -2   50.42    6.36
  14   5   3    1.40    2.38
  14   5   3    5.28    2.81
  14   5   3   -1.32    1.95
 -14  -5  -3   -1.51    1.49
 -14  -5  -3    1.10    3.48
  14  -5   3   -1.93    3.18
  14   5   4   15.77    4.07
  14   5   4    5.56    3.87
 -14  -5  -4    5.12    2.33
  14  -5   4    5.13    4.47
 -14  -5  -4    3.06    3.55
  14   5   5    3.50    2.59
  14   5   5    0.89    2.62
 -14  -5  -5    1.53    3.35
 -14  -5  -5    4.20    2.74
  14  -5   5   -7.26    1.97
  14   6  -6    9.50    4.21
 -14  -6   6   15.90    4.72
  14  -6  -6   14.38    2.66
  14   6  -5    7.16    3.79
 -14  -6   5    3.95    2.82
  14  -6  -5    1.44    1.54
  14   6  -4    7.20    3.52
  14   6  -4   -0.67    1.55
 -14  -6   4    0.63    2.09
  14  -6  -4    1.58    1.47
 -14  -6   4    0.65    2.05
  14   6  -3    3.60    2.51
  14   6  -3    2.47    2.54
 -14  -6   3    3.32    2.33
  14  -6  -3    3.13    1.56
 -14  -6   3    7.06    3.41
  14   6  -2    5.19    2.38
  14   6  -2    5.21    2.91
 -14  -6   2    5.44    2.84
  14  -6  -2    3.47    2.66
 -14  -6   2    3.28    2.51
  14  -6  -2    2.74    1.55
  14   6  -1    2.03    2.03
  14   6  -1   -1.49    2.80
 -14  -6   1    2.98    2.94
 -14  -6   1    2.79    2.31
  14  -6  -1   -0.15    2.56
  14   6   0    2.37    2.66
  14   6   0    0.75    2.85
 -14  -6   0    5.18    3.27
 -14  -6   0   -2.40    2.31
  14  -6   0   -0.21    2.14
  14   6   1   -0.06    2.67
  14   6   1    0.32    1.93
  14  -6   1    1.73    2.70
 -14  -6  -1    1.86    3.19
 -14  -6  -1    1.98    3.23
 -14  -6  -1    3.48    1.93
  14   6   2    0.49    2.99
  14   6   2    1.08    2.88
 -14  -6  -2   -1.43    2.34
  14  -6   2   -2.33    3.31
 -14  -6  -2   -1.84    2.92
 -14  -6  -2    1.78    1.82
  14   6   3   -1.88    2.33
  14   6   3    0.14    2.15
  14  -6   3   -5.16    3.36
 -14  -6  -3   -2.41    1.80
 -14  -6  -3    1.03    2.55
  14   6   4   -2.20    2.99
  14   6   4    5.32    2.96
 -14  -6  -4    2.02    2.80
 -14  -6  -4   -3.97    1.64
  14  -6   4   -1.70    4.02
  14   7  -5   14.06    3.72
  14   7  -5   10.12    4.47
 -14  -7   5   19.76    4.99
  14  -7  -5   10.71    2.56
  14   7  -4    0.98    2.32
  14   7  -4    1.67    3.39
  14  -7  -4   -0.87    1.50
 -14  -7   4    3.14    3.42
  14   7  -3    3.86    2.48
  14   7  -3   -3.54    3.23
  14  -7  -3    3.54    1.70
 -14  -7   3    1.33    2.58
 -14  -7   3    3.93    2.81
  14   7  -2    5.11    3.69
  14   7  -2    8.06    2.84
 -14  -7   2   -0.29    2.74
 -14  -7   2    6.71    3.06
  14  -7  -2    7.06    2.32
  14   7  -1   22.68    4.30
  14   7  -1   23.50    5.08
  14  -7  -1   20.24    4.42
 -14  -7   1   14.59    4.35
 -14  -7   1   18.93    4.16
  14  -7  -1   23.60    3.50
  14   7   0   -0.45    2.28
  14   7   0   -1.78    3.11
 -14  -7   0    2.01    3.00
 -14  -7   0   -1.72    2.84
  14  -7   0    2.17    3.30
  14   7   1   45.95    6.55
  14   7   1   49.60    6.52
 -14  -7  -1   47.96    6.64
  14  -7   1   54.22    7.14
 -14  -7  -1   46.51    7.02
  14   7   2   -0.15    2.63
  14   7   2   -0.43    2.01
 -14  -7  -2   -3.00    2.62
 -14  -7  -2   -1.24    3.13
 -14  -7  -2    3.47    2.33
  14  -7   2    2.29    3.97
  14   7   3   -0.27    2.52
  14   7   3   -3.63    2.78
 -14  -7  -3    8.66    2.90
  14  -7   3    2.35    4.11
 -14  -7  -3    2.08    2.77
  14   8  -4   12.76    3.40
  14   8  -4    8.96    4.86
 -14  -8   4   15.92    4.85
  14  -8  -4   12.70    2.98
  14   8  -3    4.42    4.05
  14   8  -3    6.97    3.18
  14  -8  -3    6.74    2.36
 -14  -8   3    3.62    3.08
 -14  -8   3    5.65    3.89
  14   8  -2    2.90    3.89
  14   8  -2    5.88    2.63
 -14  -8   2    7.99    3.25
  14  -8  -2    5.84    2.29
 -14  -8   2    5.45    2.98
  14   8  -1    0.87    2.15
  14   8  -1    0.79    2.75
  14  -8  -1   -1.95    1.48
 -14  -8   1    6.51    3.03
 -14  -8   1    6.30    3.52
  14   8   0    2.44    2.34
  14   8   0   -2.82    2.28
  14  -8   0    0.74    3.07
  14  -8   0   -0.34    1.70
 -14  -8   0    1.41    3.24
 -14  -8   0   -3.10    2.75
  14   8   1   -1.08    2.90
  14   8   1    2.17    3.46
 -14  -8  -1    4.32    3.68
 -14  -8  -1    0.80    2.80
  14  -8   1    1.08    3.35
  14   8   2    0.12    3.27
  14   8   2    2.44    3.29
 -14  -8  -2    9.45    3.89
 -14  -8  -2    4.99    4.14
  14  -8   2   -0.33    3.68
  15   0  -8   32.39    3.22
  15   0  -7    0.61    1.01
  15   0  -7    1.13    1.89
 -15   0   6   84.97    6.35
  15   0  -6   82.10    3.92
  15   0  -6   91.46    6.84
  15   0  -5    0.32    0.42
 -15   0   5   -3.25    1.73
  15   0  -5    4.24    2.08
  15   0  -4    2.33    1.86
 -15   0   4   -0.85    2.00
  15   0  -3   -0.70    1.58
  15   0  -3   -0.10    1.34
 -15   0   3    0.86    1.55
  15   0  -2   15.75    1.35
  15   0  -2   17.34    2.66
  15   0  -2   17.67    3.20
  15   0  -2   14.07    3.02
 -15   0   2   15.68    3.55
  15   0  -1   -0.28    1.22
 -15   0   1   -1.68    1.99
  15   0  -1    2.00    1.80
  15   0  -1    0.73    0.73
  15   0  -1   -0.70    1.19
 -15   0   0   31.23    4.80
  15   0   0   27.31    3.92
  15   0   0   25.41    3.01
  15   0   0   25.41    4.14
 -15   0  -1    0.23    2.35
  15   0   1    1.20    1.85
  15   0   1    0.01    1.60
  15   0   2   26.20    4.30
  15   0   2   33.00    5.09
 -15   0  -2   28.32    4.58
  15   0   3   -0.65    2.27
 -15   0  -3   -1.12    2.28
  15   0   3   -2.21    1.61
 -15   0  -4   60.65    7.19
  15   0   4   87.31    7.22
  15   0   4   73.32    7.47
  15   0   5   -0.96    3.01
 -15   0  -5    2.37    2.93
  15   0   5    2.82    3.46
 -15   0  -5   -1.31    1.59
  15   0   6   28.15    5.41
  15   0   6   28.46    5.97
 -15   0  -6   27.64    5.41
 -15   0  -6   33.60    4.36
  15   1  -8    8.97    2.05
  15   1  -8   13.47    3.69
  15  -1  -8    9.30    1.87
  15   1  -7    1.80    2.40
  15   1  -7   -0.09    1.03
  15  -1  -7   -0.57    0.87
 -15  -1   7   -0.15    2.37
  15   1  -6    0.93    0.90
  15   1  -6   -1.87    2.00
 -15  -1   6    0.71    2.08
  15  -1  -6   -0.16    0.66
  15   1  -5    5.94    2.48
 -15  -1   5    6.24    2.63
  15  -1  -5    4.67    0.57
  15  -1  -5    6.17    2.01
  15   1  -4   12.75    2.97
 -15  -1   4   21.05    3.56
 -15  -1   4   15.04    3.51
  15  -1  -4   13.37    2.94
  15  -1  -4   16.36    2.89
  15  -1  -4   12.75    2.70
  15   1  -3    4.16    1.94
  15   1  -3    1.53    1.79
 -15  -1   3    3.51    2.53
  15  -1  -3    0.81    1.42
  15  -1  -3    1.69    1.94
 -15  -1   3    4.33    2.32
  15  -1  -3    2.93    1.77
  15   1  -2    4.20    0.94
  15   1  -2    3.09    1.89
  15   1  -2   -0.26    1.92
 -15   1   2    2.82    1.94
 -15  -1   2    0.90    1.76
  15  -1  -2    2.43    1.74
  15  -1  -2    3.82    1.90
  15  -1  -2    2.86    1.42
 -15  -1   2    2.44    1.83
  15  -1  -2    2.39    0.69
  15   1  -1    3.03    1.76
 -15   1   1    3.01    2.65
  15   1  -1    5.43    2.58
  15   1  -1    2.69    1.04
 -15  -1   1    3.01    2.49
  15  -1  -1    1.80    0.95
  15  -1  -1    1.31    1.73
  15  -1  -1    2.54    2.51
  15  -1  -1    3.24    1.29
  15   1   0    7.11    2.37
  15   1   0    6.50    2.99
  15   1   0    4.79    1.87
 -15   1   0    8.83    2.79
  15  -1   0    7.46    3.04
 -15  -1   0    6.50    2.58
  15  -1   0    7.28    2.42
  15   1   1   16.55    3.58
 -15   1  -1    8.85    2.86
  15   1   1   11.34    3.12
 -15  -1  -1    5.34    3.07
  15  -1   1   11.82    3.00
  15  -1   1   13.27    3.41
  15   1   2    1.85    2.56
  15   1   2    1.63    2.47
 -15   1  -2    2.19    2.53
  15  -1   2    2.92    2.06
 -15  -1  -2    3.83    2.37
  15  -1   2   -0.80    2.13
  15   1   3    1.43    2.04
  15   1   3    1.23    1.94
 -15   1  -3    3.23    2.87
  15  -1   3   -2.95    2.09
  15  -1   3    1.44    2.71
 -15  -1  -3    1.30    2.06
  15   1   4   -0.01    2.49
 -15   1  -4    0.76    1.96
  15   1   4   -2.68    2.92
  15  -1   4   -2.71    2.89
 -15  -1  -4    1.09    2.98
  15  -1   4    0.77    2.61
 -15  -1  -4    2.95    1.72
 -15   1  -5    2.59    1.83
 -15   1  -5    2.55    3.02
  15   1   5    0.36    3.02
  15   1   5    3.39    3.54
  15  -1   5   -0.03    2.48
  15  -1   5    0.78    2.72
 -15  -1  -5    1.64    2.02
 -15  -1  -5    4.54    3.40
  15   1   6   -0.32    3.18
  15   1   6    2.93    3.47
 -15   1  -6    0.75    2.80
 -15   1  -6    1.35    1.96
 -15  -1  -6    0.35    3.14
 -15  -1  -6    3.42    2.51
  15  -1   6   -1.27    2.95
  15  -1   6   -3.30    3.35
  15   2  -8   -3.02    2.34
  15   2  -8   -0.63    1.32
  15  -2  -8    0.62    1.25
  15   2  -7   24.75    2.81
  15   2  -7   27.71    4.65
 -15  -2   7   19.33    4.08
  15  -2  -7   23.69    2.36
  15   2  -6    0.07    1.68
  15   2  -6   -0.06    0.96
  15  -2  -6   -0.38    0.74
 -15  -2   6   -3.59    1.86
  15   2  -5   33.70    4.72
 -15  -2   5   27.33    3.77
 -15  -2   5   28.42    4.38
  15  -2  -5   31.84    1.75
  15   2  -4    9.32    2.84
 -15  -2   4   11.23    3.13
  15  -2  -4    9.32    2.41
  15  -2  -4    9.25    0.71
  15  -2  -4   10.67    0.73
 -15  -2   4    6.82    2.32
  15  -2  -4   10.17    2.28
  15   2  -3    3.88    1.98
  15   2  -3    1.51    2.07
  15  -2  -3    3.97    1.67
 -15  -2   3    3.57    2.46
  15  -2  -3    2.74    0.56
  15  -2  -3    2.96    0.63
  15  -2  -3   -0.57    1.66
 -15  -2   3    1.63    2.03
  15   2  -2   10.10    2.64
  15   2  -2    9.55    2.89
  15   2  -2    9.97    1.53
 -15  -2   2    9.68    2.90
  15  -2  -2    9.45    2.79
  15  -2  -2   12.56    2.09
 -15  -2   2    9.90    3.23
  15  -2  -2    6.93    2.18
  15  -2  -2   10.05    1.26
  15   2  -1   52.99    5.62
  15   2  -1   48.51    4.76
 -15  -2   1   44.73    5.34
  15  -2  -1   46.62    5.45
 -15  -2   1   46.30    5.78
  15  -2  -1   47.64    2.98
  15  -2  -1   45.46    3.86
 -15   2   0    8.63    3.33
  15   2   0    5.38    2.63
  15   2   0    6.43    2.28
  15  -2   0    7.30    2.28
  15  -2   0    7.38    2.61
 -15  -2   0    4.03    2.23
 -15   2  -1   18.22    4.05
  15   2   1   18.52    2.86
  15   2   1   13.27    3.16
  15   2   1   17.34    3.83
  15  -2   1   15.26    3.99
  15  -2   1   22.24    3.56
 -15  -2  -1   17.45    4.04
  15   2   2    3.01    2.33
 -15   2  -2    5.36    2.56
  15   2   2    4.43    2.26
  15  -2   2    4.38    3.26
 -15  -2  -2    7.24    2.81
  15  -2   2    2.29    2.58
  15   2   3   29.00    5.13
  15   2   3   16.01    4.07
 -15   2  -3   18.77    4.00
  15  -2   3   17.57    4.25
 -15  -2  -3   14.10    2.43
  15  -2   3   18.75    3.82
 -15  -2  -3   19.04    4.48
  15   2   4    0.51    2.72
 -15   2  -4    2.12    2.64
  15   2   4    3.61    2.71
 -15  -2  -4    2.13    1.72
  15  -2   4    0.02    2.38
 -15  -2  -4    0.58    2.04
  15  -2   4    1.40    3.32
  15   2   5   39.82    6.38
 -15   2  -5   30.36    5.55
  15   2   5   32.72    5.80
 -15  -2  -5   43.86    6.53
  15  -2   5   31.13    6.26
 -15  -2  -5   37.74    4.31
  15  -2   5   33.26    5.45
  15   2   6    1.60    3.40
  15   2   6    8.64    4.30
  15  -2   6   -0.27    3.84
 -15  -2  -6    1.01    2.25
  15  -2   6    2.91    3.05
 -15  -2  -6    0.00    2.28
  15   3  -8    3.13    1.71
  15   3  -8    1.34    2.99
  15  -3  -8    1.54    1.28
 -15  -3   8   -2.03    2.17
  15   3  -7    8.67    3.60
  15   3  -7   12.99    2.31
  15  -3  -7   14.55    2.07
 -15  -3   7   17.29    4.26
  15   3  -6    7.35    3.11
 -15  -3   6    5.20    2.41
  15  -3  -6    6.88    1.38
  15   3  -5    8.09    3.24
  15  -3  -5    9.67    1.32
 -15  -3   5   15.73    3.87
 -15  -3   5   13.67    2.85
  15   3  -4    1.96    1.74
  15   3  -4    3.16    2.44
  15  -3  -4    6.31    1.10
  15  -3  -4    6.75    1.08
  15  -3  -4    4.20    1.99
 -15  -3   4    5.73    2.93
 -15  -3   4    7.68    2.53
  15   3  -3   32.98    4.58
  15   3  -3   36.86    4.88
 -15  -3   3   23.53    4.23
  15  -3  -3   26.72    1.92
 -15  -3   3   21.51    3.54
  15  -3  -3   24.21    1.87
  15  -3  -3   22.36    3.61
  15   3  -2   14.59    3.20
  15   3  -2   17.92    3.72
  15  -3  -2   13.59    2.70
 -15  -3   2   12.80    3.24
  15  -3  -2   24.26    3.76
 -15  -3   2   13.94    3.36
  15  -3  -2   12.17    1.63
  15   3  -1    2.12    2.09
  15   3  -1    1.00    2.21
  15  -3  -1    4.30    2.63
 -15  -3   1    0.58    1.83
 -15  -3   1    0.54    2.22
  15  -3  -1    0.31    1.68
  15   3   0   16.58    3.15
  15   3   0   18.55    3.54
  15  -3   0   20.15    3.92
 -15  -3   0   14.29    3.70
 -15  -3   0   20.65    4.39
  15  -3   0   16.08    2.83
  15   3   1   27.85    3.88
  15   3   1   32.07    4.73
 -15  -3  -1   32.72    5.13
  15  -3   1   33.87    3.88
  15  -3   1   25.84    4.50
  15   3   2    0.50    1.85
  15   3   2   -1.41    2.01
  15   3   2    7.87    3.00
  15  -3   2    2.37    2.37
  15  -3   2    5.13    3.36
 -15  -3  -2    9.28    3.47
  15   3   3   11.82    4.22
  15   3   3    6.77    3.14
 -15  -3  -3   14.96    3.75
  15  -3   3   10.02    3.08
  15  -3   3   10.79    3.66
 -15  -3  -3   13.14    3.60
  15   3   4    1.02    2.47
  15   3   4    2.24    2.75
 -15  -3  -4   -0.74    2.74
  15  -3   4    1.19    2.66
  15  -3   4    3.81    2.63
 -15  -3  -4   -0.49    1.62
  15   3   5    1.96    2.79
  15   3   5    0.34    3.52
  15  -3   5   -5.11    3.32
 -15  -3  -5   -1.39    1.94
 -15  -3  -5   -0.15    2.57
  15  -3   5    7.97    3.29
  15   4  -7    8.76    2.21
  15   4  -7    8.75    3.83
  15  -4  -7   10.00    1.99
 -15  -4   7    5.53    2.73
  15   4  -6   15.62    4.15
 -15  -4   6   11.60    3.84
  15  -4  -6   12.19    1.96
  15   4  -5   -1.82    1.48
 -15  -4   5    2.73    2.35
  15  -4  -5    1.18    1.05
  15   4  -4    8.59    3.18
  15   4  -4    1.67    2.81
 -15  -4   4    3.98    2.23
  15  -4  -4    2.71    1.14
 -15  -4   4    9.13    3.06
  15   4  -3   16.45    3.48
  15   4  -3   11.81    3.47
 -15  -4   3   13.07    3.27
 -15  -4   3    7.17    3.18
  15  -4  -3   12.26    2.96
  15  -4  -3   12.29    1.76
  15   4  -2   27.30    4.74
  15   4  -2   22.66    4.19
 -15  -4   2   19.72    4.06
  15  -4  -2   27.94    4.07
 -15  -4   2   15.98    3.51
  15   4  -1    3.00    2.47
  15   4  -1    0.78    1.81
  15  -4  -1    8.32    2.97
 -15  -4   1    2.27    2.77
 -15  -4   1    0.97    2.46
  15   4   0   13.72    3.32
  15   4   0   12.65    3.22
 -15  -4   0   13.84    3.42
 -15  -4   0   18.92    4.25
  15  -4   0   15.37    3.91
  15   4   1   -0.58    1.97
  15   4   1    2.66    2.93
 -15  -4  -1    0.13    2.70
 -15  -4  -1   -1.48    2.49
  15  -4   1    6.40    3.41
  15   4   2    0.03    2.25
  15   4   2    2.32    2.05
  15   4   2    0.83    2.87
 -15  -4  -2   -4.45    2.44
  15  -4   2    2.90    3.26
  15   4   3    4.52    2.88
  15   4   3    3.00    2.23
 -15  -4  -3    2.70    2.51
  15  -4   3   -2.58    2.33
  15   4   4   28.03    5.74
  15   4   4   19.97    4.14
 -15  -4  -4   11.27    4.16
 -15  -4  -4   23.93    3.48
  15  -4   4   22.01    5.71
  15   4   5   -4.48    3.25
  15   4   5    1.74    2.67
 -15  -4  -5    0.41    2.15
 -15  -4  -5   10.45    4.01
  15  -4   5   -0.20    3.85
  15   5  -7    1.24    2.37
 -15  -5   7    3.83    2.98
  15  -5  -7   -1.03    1.26
  15   5  -6    0.94    2.82
  15  -5  -6    0.16    1.22
 -15  -5   6    1.36    2.11
  15   5  -5    3.20    3.24
  15  -5  -5    3.87    1.48
 -15  -5   5    2.07    3.06
  15   5  -4   29.78    4.84
  15   5  -4   29.48    4.99
  15  -5  -4   23.85    2.80
 -15  -5   4   29.85    4.17
 -15  -5   4   41.16    6.18
  15   5  -3    3.47    2.31
  15   5  -3    3.81    3.10
  15  -5  -3    2.63    1.31
 -15  -5   3    1.48    2.07
 -15  -5   3    2.42    2.17
  15   5  -2    8.09    2.79
  15   5  -2    2.52    2.95
 -15  -5   2   16.04    3.45
  15  -5  -2    4.56    2.88
  15  -5  -2    7.91    1.81
 -15  -5   2    5.48    3.22
  15   5  -1    9.63    3.44
  15   5  -1    4.11    2.83
 -15  -5   1    6.74    3.22
  15  -5  -1    5.44    3.00
 -15  -5   1    8.48    3.06
  15   5   0   10.12    3.37
  15   5   0   10.31    2.96
 -15  -5   0   12.78    3.65
  15  -5   0   10.99    3.80
 -15  -5   0    7.28    2.95
  15   5   1    7.11    3.46
  15   5   1    0.05    2.78
 -15  -5  -1    5.45    2.71
  15  -5   1   -0.05    3.08
 -15  -5  -1    0.20    2.72
  15   5   2   50.74    5.82
  15   5   2   42.55    6.01
  15  -5   2   53.13    6.89
 -15  -5  -2   53.30    7.02
  15   5   3   -0.92    2.82
  15   5   3   -1.27    2.05
  15   5   3    4.49    3.69
  15  -5   3   -4.43    2.03
 -15  -5  -3    1.16    2.45
  15   5   4    2.33    2.62
  15   5   4   -1.06    2.38
  15  -5   4   -3.72    3.64
 -15  -5  -4   -0.88    2.62
 -15  -5  -4   -0.84    2.93
  15   6  -6    0.49    2.44
  15  -6  -6    3.80    1.78
 -15  -6   6    2.73    3.14
  15   6  -5    2.19    2.14
  15   6  -5    3.48    3.70
 -15  -6   5    1.20    2.82
  15  -6  -5    1.00    1.46
  15   6  -4    1.05    3.52
  15   6  -4   -1.61    1.95
  15  -6  -4    0.90    1.38
 -15  -6   4    5.00    2.34
 -15  -6   4    5.86    3.46
  15   6  -3    7.97    3.93
  15   6  -3    9.60    3.14
 -15  -6   3    3.36    2.56
 -15  -6   3    0.52    2.31
  15  -6  -3    7.33    1.86
  15   6  -2    0.05    1.67
  15   6  -2   -3.91    2.83
  15  -6  -2   -0.78    2.46
  15  -6  -2   -0.59    1.24
 -15  -6   2   -0.71    2.71
 -15  -6   2    1.94    2.25
  15   6  -1    2.47    2.55
  15   6  -1    1.88    2.16
 -15  -6   1    0.10    2.69
 -15  -6   1    1.03    2.15
  15  -6  -1    3.09    3.06
  15   6   0   -2.97    2.30
  15   6   0   -3.64    2.42
 -15  -6   0   -3.09    1.58
  15  -6   0   -2.01    2.87
 -15  -6   0    2.92    3.23
  15   6   1   -1.31    2.67
  15   6   1   -0.85    2.59
 -15  -6  -1    2.30    2.57
 -15  -6  -1   -0.85    2.56
  15  -6   1    3.12    3.73
  15   6   2   -0.34    2.47
  15   6   2    0.76    2.07
  15  -6   2   -0.31    3.52
 -15  -6  -2    3.22    3.10
 -15  -6  -2    0.91    3.15
  15   6   3    1.26    2.71
  15   6   3    2.95    2.55
  15   6   3    0.16    3.41
 -15  -6  -3   -0.82    3.18
  15  -6   3    1.23    3.05
  15   7  -5   13.09    4.36
  15   7  -5   11.16    3.68
 -15  -7   5    7.14    4.09
  15  -7  -5   13.29    2.77
  15   7  -4    1.66    2.68
  15   7  -4    1.86    3.60
 -15  -7   4    3.31    2.61
  15  -7  -4   -0.13    1.39
  15   7  -3   22.03    4.50
  15   7  -3   17.13    4.51
 -15  -7   3   23.51    4.60
  15  -7  -3   24.82    3.43
 -15  -7   3   19.42    5.31
  15   7  -2    6.17    3.21
  15   7  -2    4.84    3.82
 -15  -7   2    9.42    3.40
 -15  -7   2    3.97    3.28
  15  -7  -2    6.69    2.18
  15   7  -1   11.03    3.78
  15   7  -1    7.77    4.03
  15  -7  -1    2.93    2.99
 -15  -7   1    5.62    3.51
  15  -7  -1    7.24    2.34
 -15  -7   1    0.91    2.06
  15   7   0   -6.02    2.46
  15   7   0   -2.24    1.48
 -15  -7   0    6.07    3.45
 -15  -7   0    2.41    2.55
  15  -7   0   -3.47    2.82
  15   7   1    8.52    3.23
  15   7   1    5.46    3.50
 -15  -7  -1    6.54    3.41
 -15  -7  -1    9.94    3.53
  15  -7   1   11.34    4.49
  15   7   2   -6.18    2.51
  15   7   2    0.65    3.28
 -15  -7  -2   -3.08    2.38
  15  -7   2    0.23    3.67
 -15  -7  -2    1.75    2.61
  15   8  -3   -1.64    3.55
  15   8  -3    3.54    2.69
 -15  -8   3    3.62    3.04
  15  -8  -3   -0.82    1.75
 -15  -8   3    2.30    2.79
  15   8  -2    5.00    4.25
  15   8  -2   23.08    4.65
 -15  -8   2   13.07    4.72
  15  -8  -2   14.62    3.01
 -15  -8   2   14.36    4.09
  15   8  -1    2.22    3.95
  15   8  -1    4.87    3.16
 -15  -8   1   13.30    4.50
 -15  -8   1    0.02    2.98
  15  -8  -1    8.94    2.78
  15   8   0   16.78    4.66
  15   8   0   17.23    5.22
  15  -8   0   16.96    3.44
  15  -8   0    6.59    3.91
 -15  -8   0   15.90    4.81
 -15  -8   0   16.10    4.80
  16   0  -8    6.70    2.80
  16   0  -8    4.44    1.39
  16   0  -7   -0.70    0.82
  16   0  -7   -1.85    1.37
  16   0  -6    9.03    2.76
  16   0  -6    6.15    0.98
 -16   0   6    8.02    2.99
 -16   0   5   -0.32    2.01
  16   0  -5    1.22    1.75
  16   0  -4    0.80    1.64
  16   0  -4    0.91    1.82
  16   0  -3   -0.17    1.56
 -16   0   3   -0.06    1.92
  16   0  -3    2.57    1.55
  16   0  -3    1.63    2.18
  16   0  -2   14.85    3.04
  16   0  -2   12.30    1.27
  16   0  -2    7.91    2.18
 -16   0   2    9.79    2.74
  16   0  -2   16.43    3.21
  16   0  -1    0.99    0.85
  16   0  -1   -1.66    1.69
 -16   0   1    1.24    2.41
  16   0  -1    0.29    1.41
  16   0  -1    0.61    2.33
  16   0   0  106.26    7.70
 -16   0   0   93.06    7.11
  16   0   0  104.81    6.90
  16   0   1   -1.02    2.10
  16   0   1    1.45    2.67
 -16   0  -1   -1.71    2.15
 -16   0  -2   19.39    4.10
  16   0   2   18.01    4.15
  16   0   2   15.58    3.78
 -16   0  -3    0.17    2.00
  16   0   3    2.43    2.38
  16   0   3   -0.80    2.50
  16   0   4    4.01    3.31
 -16   0  -4    4.91    3.54
  16   0   4    7.38    3.51
  16   0   5   -1.94    2.86
  16   0   5    1.39    2.49
 -16   0  -5   -1.85    2.61
  16   1  -8    1.63    1.34
  16   1  -8    6.40    3.03
  16  -1  -8    0.32    1.15
  16   1  -7    6.37    2.96
  16   1  -7   -0.01    1.00
 -16  -1   7    2.82    2.53
  16  -1  -7    1.87    1.01
  16   1  -6    2.22    2.51
  16   1  -6    1.82    0.98
 -16  -1   6    5.31    2.83
  16  -1  -6    1.70    0.62
  16   1  -5    6.10    2.57
  16  -1  -5   10.07    2.63
 -16  -1   5    8.44    3.20
  16  -1  -5    8.54    2.53
  16   1  -4   -0.27    1.72
  16   1  -4    1.81    2.14
  16  -1  -4    0.61    1.75
  16  -1  -4   -0.95    1.94
 -16  -1   4   -0.10    2.32
 -16  -1   4    0.98    1.91
  16  -1  -4    0.79    1.39
  16   1  -3   -0.13    1.93
  16   1  -3    1.39    1.51
  16  -1  -3    1.74    1.60
 -16  -1   3    0.09    1.85
 -16  -1   3   -0.02    2.28
  16  -1  -3   -0.56    1.72
  16  -1  -3    1.41    1.62
  16   1  -2   -0.23    1.45
  16   1  -2    0.46    2.05
  16   1  -2   -0.42    0.66
 -16   1   2   -2.12    1.98
  16  -1  -2   -2.51    1.37
 -16  -1   2    1.97    1.83
  16  -1  -2   -0.62    1.17
  16  -1  -2   -0.24    0.54
  16  -1  -2    1.11    2.22
 -16   1   1    2.61    2.76
  16   1  -1    2.10    1.77
  16   1  -1    2.92    2.37
  16   1  -1    8.24    3.13
 -16  -1   1    5.06    2.46
  16  -1  -1    2.02    1.00
  16  -1  -1    1.68    2.36
  16  -1  -1    4.38    2.13
  16   1   0    8.91    2.98
  16   1   0    8.85    3.31
 -16   1   0    8.39    3.21
  16  -1   0    6.42    2.60
 -16  -1   0    9.00    2.70
  16  -1   0    8.61    2.53
  16   1   1   10.87    3.08
 -16   1  -1   10.61    3.49
  16   1   1   10.38    2.79
 -16  -1  -1    1.76    2.59
  16  -1   1   11.82    3.66
  16  -1   1    4.31    2.45
  16   1   2   12.84    3.42
 -16   1  -2    7.07    2.92
  16   1   2    7.01    3.28
  16  -1   2   10.77    3.07
  16  -1   2    6.22    3.67
 -16  -1  -2    9.64    3.16
  16   1   3    4.54    3.50
  16   1   3    8.12    3.35
 -16   1  -3    4.77    2.61
 -16  -1  -3    0.73    2.01
  16  -1   3   -2.27    2.39
  16  -1   3    4.63    3.44
  16   1   4   -1.48    2.94
 -16   1  -4   -2.57    2.59
  16   1   4    2.49    2.97
  16  -1   4    1.47    2.58
  16  -1   4    3.88    3.07
 -16  -1  -4   -1.09    2.55
  16   1   5   10.14    3.67
  16   1   5   19.03    4.47
 -16   1  -5   15.04    4.24
  16  -1   5   15.53    4.31
 -16  -1  -5   14.10    4.36
  16  -1   5   15.57    4.44
  16   2  -8    0.88    1.35
  16   2  -8    2.04    2.73
  16  -2  -8    0.61    1.15
  16   2  -7   12.96    3.83
  16   2  -7   13.24    2.13
  16  -2  -7   14.15    1.75
 -16  -2   7   12.78    3.84
  16   2  -6    6.46    2.59
  16  -2  -6    3.18    0.82
 -16  -2   6    3.31    2.62
  16   2  -5   39.24    5.27
  16  -2  -5   37.22    1.49
  16  -2  -5   34.38    4.09
 -16  -2   5   39.88    5.67
  16  -2  -5   42.14    1.55
 -16  -2   5   41.72    4.91
  16   2  -4   -1.74    1.79
  16   2  -4    0.04    1.41
  16  -2  -4    1.71    1.69
 -16  -2   4    2.37    2.72
  16  -2  -4   -1.09    1.79
 -16  -2   4    3.19    2.15
  16   2  -3    4.74    2.73
  16   2  -3    4.60    2.21
  16  -2  -3    5.43    1.94
  16  -2  -3    2.99    0.58
  16  -2  -3    5.77    2.39
 -16  -2   3    3.18    1.77
  16  -2  -3    2.75    1.39
 -16  -2   3    2.08    1.99
  16  -2  -3    1.95    0.52
  16   2  -2   -0.32    1.52
  16   2  -2    1.34    2.09
  16  -2  -2    0.39    0.74
  16  -2  -2   -0.76    1.42
 -16  -2   2    1.80    2.41
 -16  -2   2    0.71    2.11
  16  -2  -2    1.35    1.61
  16   2  -1   41.95    4.68
  16   2  -1   31.91    4.68
 -16  -2   1   32.64    5.26
  16  -2  -1   36.53    4.03
 -16  -2   1   33.55    5.11
  16  -2  -1   39.18    4.90
  16   2   0    1.37    1.95
  16   2   0   -0.71    1.67
 -16   2   0    3.34    2.62
  16   2   0    1.50    2.56
  16  -2   0    1.42    1.91
  16  -2   0    1.73    2.63
 -16  -2   0   -0.22    1.71
  16   2   1   39.78    5.49
 -16   2  -1   29.77    4.92
  16   2   1   31.69    5.29
  16  -2   1   36.95    4.49
 -16  -2  -1   37.84    5.51
  16  -2   1   33.06    5.02
  16   2   2    2.81    3.17
  16   2   2    4.16    2.47
 -16   2  -2    6.88    3.23
  16  -2   2    7.30    2.80
  16  -2   2    5.45    3.57
 -16  -2  -2   15.71    4.13
  16   2   3    2.18    2.47
 -16   2  -3    6.27    3.18
  16   2   3   -1.67    2.40
 -16  -2  -3   -2.24    2.55
  16  -2   3    2.56    2.76
  16  -2   3    4.56    3.76
 -16   2  -4    1.70    2.80
  16   2   4   -2.82    3.08
  16   2   4   -0.02    2.01
  16  -2   4    3.97    3.71
 -16  -2  -4   -2.23    1.73
  16  -2   4    1.07    2.55
  16   2   5   27.11    5.18
 -16   2  -5   28.26    5.44
  16   2   5   27.87    5.89
  16  -2   5   28.02    6.28
  16  -2   5   23.80    4.85
 -16  -2  -5   21.17    4.74
  16   3  -7   21.48    2.82
  16   3  -7   33.72    5.53
 -16  -3   7   29.31    5.28
  16  -3  -7   24.44    2.41
  16   3  -6    2.94    2.64
  16  -3  -6    1.95    0.90
 -16  -3   6    1.09    2.87
  16   3  -5   10.02    3.23
 -16  -3   5    6.57    3.52
  16  -3  -5    6.55    1.03
 -16  -3   5    7.63    3.40
  16   3  -4    2.30    2.53
  16   3  -4    3.80    2.89
 -16  -3   4    6.74    3.21
  16  -3  -4    5.67    0.95
  16  -3  -4    3.56    2.16
 -16  -3   4    7.51    2.63
  16  -3  -4    4.37    0.89
  16   3  -3   61.11    6.62
  16   3  -3   59.35    6.21
  16  -3  -3   54.83    2.91
  16  -3  -3   52.83    2.92
 -16  -3   3   66.40    7.22
  16  -3  -3   67.82    5.33
 -16  -3   3   55.68    5.93
  16   3  -2    2.01    2.21
  16   3  -2    0.33    2.16
  16  -3  -2    0.62    2.21
 -16  -3   2    2.18    2.67
 -16  -3   2    3.76    1.96
  16   3  -1   40.53    5.41
  16   3  -1   37.37    4.67
 -16  -3   1   36.01    5.31
 -16  -3   1   31.39    5.19
  16  -3  -1   29.99    4.50
  16   3   0    9.24    3.01
  16   3   0   15.07    3.42
 -16  -3   0   11.04    3.39
 -16  -3   0    5.53    3.07
  16  -3   0    7.05    2.88
  16   3   1   11.38    3.16
  16   3   1    4.13    2.95
  16   3   1    7.24    2.71
  16  -3   1   10.77    4.98
 -16  -3  -1    4.69    2.58
  16  -3   1    7.06    3.46
  16   3   2   12.00    4.16
  16   3   2   13.27    3.88
  16  -3   2   12.80    4.57
 -16  -3  -2   13.23    3.67
  16  -3   2   17.51    3.58
  16   3   3   10.70    3.79
  16   3   3    8.13    3.29
  16  -3   3    9.71    3.36
  16  -3   3   13.08    4.04
 -16  -3  -3   13.24    3.82
  16   3   4    8.25    4.57
  16   3   4   11.93    3.78
  16  -3   4    6.80    3.64
 -16  -3  -4   12.09    4.15
  16  -3   4    6.55    3.22
  16   3   5   -1.10    3.55
  16   3   5    1.83    2.87
  16  -3   5    2.11    4.23
 -16  -3  -5    0.37    3.03
  16   4  -7    1.85    2.87
  16  -4  -7    0.04    1.07
 -16  -4   7    3.44    3.10
  16   4  -6    9.48    3.79
 -16  -4   6    6.05    2.84
  16  -4  -6    6.23    1.40
  16   4  -5    1.06    2.18
 -16  -4   5   -2.13    2.53
  16  -4  -5    1.14    0.99
  16   4  -4   19.12    3.95
  16   4  -4   18.17    4.20
  16  -4  -4   15.91    1.90
 -16  -4   4   18.39    3.59
 -16  -4   4   20.72    4.65
  16   4  -3   11.75    3.20
  16   4  -3    7.10    3.08
  16  -4  -3    4.94    2.55
  16  -4  -3   11.51    1.68
 -16  -4   3   10.21    3.04
 -16  -4   3   10.94    3.37
  16   4  -2    0.10    2.34
  16   4  -2   -2.30    1.26
 -16  -4   2    5.15    2.84
 -16  -4   2    3.87    2.91
  16  -4  -2   -1.20    2.29
  16   4  -1   11.82    3.61
  16   4  -1    5.95    2.98
 -16  -4   1    3.75    2.24
  16  -4  -1   12.25    3.61
 -16  -4   1   12.36    3.89
  16   4   0    5.35    2.72
  16   4   0    3.08    2.82
 -16  -4   0    0.47    2.44
 -16  -4   0    6.36    2.81
  16  -4   0    6.64    3.46
  16   4   1    1.43    2.35
  16   4   1   -0.25    2.84
  16  -4   1    1.93    3.04
 -16  -4  -1   -1.17    1.63
  16   4   2   -0.63    1.63
  16   4   2   -0.48    2.24
  16  -4   2    0.30    3.40
 -16  -4  -2   -1.91    1.82
  16   4   3    0.69    2.69
  16   4   3   -1.09    3.46
 -16  -4  -3    0.05    2.25
  16  -4   3   -2.95    2.49
  16   4   4    7.48    4.37
  16   4   4    6.29    3.31
  16  -4   4    6.35    4.56
 -16  -4  -4    6.89    3.55
  16   5  -6    0.18    2.44
 -16  -5   6    2.41    3.00
  16  -5  -6    3.37    1.52
  16   5  -5   -0.80    2.39
  16   5  -5    3.13    3.15
  16  -5  -5    1.29    1.27
 -16  -5   5   -2.21    2.96
  16   5  -4   21.29    4.42
  16   5  -4   18.41    4.62
 -16  -5   4   23.01    5.02
  16  -5  -4   16.49    2.27
 -16  -5   4   17.97    3.63
  16   5  -3   -4.49    2.47
  16   5  -3    8.86    3.30
 -16  -5   3    1.19    2.89
  16  -5  -3    4.04    1.46
 -16  -5   3    3.90    2.45
  16   5  -2   51.37    6.56
  16   5  -2   50.48    6.49
  16  -5  -2   56.75    6.20
  16  -5  -2   51.20    3.79
 -16  -5   2   52.67    7.28
 -16  -5   2   46.69    6.00
  16   5  -1    3.60    2.79
  16   5  -1    0.85    2.58
 -16  -5   1   -0.28    1.80
  16  -5  -1    0.94    2.86
 -16  -5   1    0.54    2.79
  16   5   0    1.45    2.68
  16   5   0    3.34    3.02
 -16  -5   0    5.18    3.18
 -16  -5   0    4.71    3.18
  16  -5   0   -1.70    2.95
  16   5   1    0.43    1.94
  16   5   1    1.76    2.77
  16  -5   1   -1.85    2.15
 -16  -5  -1   -3.26    1.61
 -16  -5  -1   -0.29    1.80
  16   5   2    7.78    4.31
  16   5   2   20.88    4.21
  16  -5   2   28.70    5.33
 -16  -5  -2   13.83    3.83
  16   5   3   -0.37    2.33
  16   5   3   -0.86    2.34
  16  -5   3    0.51    2.79
 -16  -5  -3    0.25    3.26
  16   5   4   19.39    4.73
  16   5   4    9.05    4.64
 -16  -5  -4   18.00    4.85
  16  -5   4   19.28    5.44
  16   6  -5   -1.19    2.55
  16   6  -5    4.44    2.81
 -16  -6   5   -1.79    2.82
  16  -6  -5   -0.65    1.27
  16   6  -4   -5.21    2.08
  16   6  -4   -1.92    2.29
  16  -6  -4   -0.59    1.28
 -16  -6   4    0.74    3.05
  16   6  -3    3.90    2.52
  16   6  -3    1.14    3.29
 -16  -6   3    0.23    2.24
 -16  -6   3    2.07    3.13
  16  -6  -3    2.41    1.53
  16   6  -2    4.49    2.55
  16   6  -2   -0.57    3.21
 -16  -6   2    0.38    2.61
 -16  -6   2    1.80    3.07
  16  -6  -2   -2.17    1.14
  16   6  -1   -4.44    2.75
  16   6  -1    0.88    1.94
  16  -6  -1    5.81    3.40
 -16  -6   1    4.01    2.86
 -16  -6   1    5.73    3.29
  16   6   0    0.10    3.13
  16   6   0   -1.26    1.73
 -16  -6   0    2.92    3.23
  16  -6   0    0.94    3.29
 -16  -6   0    0.80    2.10
  16   6   1   -0.19    2.74
  16   6   1   -0.66    2.79
 -16  -6  -1    1.54    2.45
 -16  -6  -1    2.78    3.29
  16  -6   1   -6.93    2.87
  16   6   2   -1.23    2.71
  16   6   2    0.91    3.21
  16  -6   2   -0.47    3.18
 -16  -6  -2    0.96    3.28
  16   6   3   -2.79    2.15
  16   6   3    4.38    2.65
 -16  -6  -3    3.85    3.20
  16  -6   3   -2.13    3.65
  16   7  -4    1.45    3.71
  16   7  -4   -0.38    2.47
  16  -7  -4    0.54    1.51
 -16  -7   4    1.85    3.42
  16   7  -3   24.72    5.91
  16   7  -3   39.61    5.90
 -16  -7   3   42.23    5.98
 -16  -7   3   45.74    6.87
  16  -7  -3   41.79    4.36
  16   7  -2    3.03    3.09
  16   7  -2   -5.45    3.16
 -16  -7   2    2.49    3.49
  16  -7  -2   -1.42    1.44
 -16  -7   2    1.97    2.71
  16   7  -1   17.30    4.47
  16   7  -1   13.10    4.70
  16  -7  -1   16.58    4.54
 -16  -7   1   11.20    4.11
  16  -7  -1   15.15    3.04
 -16  -7   1   15.59    4.67
  16   7   0   -1.16    2.61
  16   7   0   -0.48    3.34
 -16  -7   0   -2.21    2.67
 -16  -7   0   -1.63    3.01
  16  -7   0   -1.96    3.13
  16   7   1   18.71    4.77
  16   7   1   19.27    4.88
 -16  -7  -1   19.49    5.03
 -16  -7  -1    7.59    4.30
  16  -7   1   21.64    5.55
  17   0  -7    6.25    2.68
  17   0  -6   18.64    3.77
  17   0  -5    0.75    2.11
  17   0  -5    1.81    2.00
  17   0  -5   -1.54    1.77
  17   0  -4   63.09    5.18
  17   0  -4   62.31    6.11
  17   0  -3    1.91    2.01
  17   0  -3   -0.58    1.50
 -17   0   3    1.75    2.22
  17   0  -3    3.28    2.43
  17   0  -2    3.24    1.86
  17   0  -2    7.48    1.10
  17   0  -2    2.11    1.94
  17   0  -2    8.08    2.69
 -17   0   2    6.17    2.87
  17   0  -1    1.67    2.17
  17   0  -1    2.08    2.58
 -17   0   1   -0.15    1.81
  17   0   0   95.73    7.49
 -17   0   0   92.78    7.22
  17   0   0   86.26    6.59
  17   0   1    1.27    2.67
  17   0   1    0.71    2.53
 -17   0  -1   -0.75    1.71
  17   0   2   59.27    7.42
  17   0   2   80.61    6.69
 -17   0  -2   70.92    7.68
  17   0   3    2.87    3.16
  17   0   3   -3.90    2.73
 -17   0  -3   -1.82    1.73
  17   0   4   -3.50    2.71
  17   0   4    0.61    3.30
 -17   0  -4   -1.35    2.69
  17   0   5   -2.32    3.10
  17   0   5    0.49    2.99
 -17   0  -5    0.37    2.25
  17   1  -7   -0.05    0.89
  17   1  -7    4.29    2.91
 -17  -1   7    3.24    2.87
  17  -1  -7    1.62    0.77
  17  -1  -7   -0.17    1.51
  17   1  -6   25.74    4.53
  17  -1  -6   23.05    4.02
 -17  -1   6   23.61    4.56
  17   1  -5    8.75    2.71
  17   1  -5    8.56    3.01
  17  -1  -5   10.53    2.66
 -17  -1   5    9.57    3.43
  17  -1  -5    7.95    2.52
  17   1  -4    5.20    2.38
  17   1  -4    7.95    2.53
  17  -1  -4    3.66    2.09
  17  -1  -4    4.37    2.44
  17  -1  -4    5.82    2.34
 -17  -1   4    6.74    3.39
 -17  -1   4    0.54    2.10
  17   1  -3    3.03    2.02
  17   1  -3    8.01    2.79
  17  -1  -3    1.84    1.70
 -17  -1   3    5.65    2.78
  17  -1  -3    4.51    2.57
  17  -1  -3    5.20    2.32
 -17  -1   3    2.77    2.29
  17   1  -2   25.17    4.01
  17   1  -2   25.73    4.22
 -17   1   2   23.06    4.35
  17   1  -2   29.33    3.95
  17  -1  -2   27.57    3.82
 -17  -1   2   23.03    4.28
  17  -1  -2   21.02    1.60
  17  -1  -2   25.60    4.35
  17   1  -1   11.33    2.99
  17   1  -1    6.28    2.71
 -17   1   1   13.49    3.33
  17   1  -1    8.57    3.32
  17  -1  -1   11.98    3.16
  17  -1  -1   10.65    2.80
 -17  -1   1   12.70    3.28
  17   1   0    4.30    2.63
 -17   1   0    0.61    1.83
  17   1   0    0.29    2.55
  17  -1   0   -1.07    2.37
  17  -1   0    0.18    2.10
 -17  -1   0   -0.91    1.55
  17   1   1    4.37    3.14
  17   1   1   -1.03    2.43
 -17   1  -1    2.42    2.20
  17  -1   1    0.45    2.01
 -17  -1  -1    1.61    2.68
  17  -1   1   -0.47    2.16
  17   1   2   15.90    3.84
 -17   1  -2   10.43    3.34
  17   1   2    3.13    3.13
 -17  -1  -2   10.84    3.49
  17  -1   2   12.83    3.66
  17  -1   2   14.03    3.92
 -17   1  -3   -0.58    1.98
  17   1   3    5.85    2.78
  17   1   3   -4.98    2.64
 -17  -1  -3   -0.30    1.96
  17  -1   3   -4.01    2.39
  17  -1   3    0.95    2.61
 -17   1  -4   -0.08    2.40
  17   1   4   -2.02    2.63
  17   1   4    5.45    3.04
  17  -1   4    0.61    2.08
  17  -1   4   -1.37    2.32
 -17  -1  -4    4.75    3.38
 -17   1  -5    1.85    2.25
  17   1   5    5.25    3.93
  17   1   5   -2.07    3.46
  17  -1   5    0.56    3.04
 -17  -1  -5    5.37    3.76
  17  -1   5    0.70    4.03
  17   2  -7   -0.20    2.65
  17  -2  -7    0.65    0.78
 -17  -2   7    1.81    2.71
  17   2  -6    5.42    2.88
 -17  -2   6   -0.01    2.51
  17   2  -5   23.95    4.31
  17   2  -5   22.78    4.07
 -17  -2   5   20.84    4.12
 -17  -2   5   19.63    3.73
  17   2  -4    8.67    3.23
  17   2  -4    5.48    2.49
 -17  -2   4   -0.16    1.76
 -17  -2   4    5.13    2.41
  17  -2  -4    0.26    1.93
  17  -2  -4    5.12    1.95
  17   2  -3   12.69    3.15
  17   2  -3   11.83    3.12
  17  -2  -3   11.99    0.89
  17  -2  -3   11.36    2.61
 -17  -2   3   17.98    4.11
  17  -2  -3    9.82    2.91
  17  -2  -3   12.18    0.83
 -17  -2   3   11.91    3.21
  17   2  -2    6.81    3.07
  17   2  -2    6.20    2.57
  17  -2  -2    8.55    2.55
  17  -2  -2    6.39    1.15
 -17  -2   2    6.55    2.78
  17  -2  -2    6.91    2.93
 -17  -2   2    4.15    2.54
  17   2  -1   15.37    3.46
  17   2  -1   17.58    3.24
  17  -2  -1   23.26    4.41
 -17  -2   1   18.20    4.07
  17  -2  -1   16.90    3.11
 -17   2   0    3.31    2.59
  17   2   0    4.24    2.86
  17   2   0    3.23    2.24
 -17  -2   0   -0.39    2.37
  17  -2   0    0.15    2.16
  17  -2   0    0.73    2.86
 -17   2  -1   42.67    6.24
  17   2   1   50.01    6.22
  17   2   1   37.01    6.02
  17  -2   1   40.92    5.00
 -17  -2  -1   49.50    6.51
  17  -2   1   39.31    6.12
  17   2   2    2.18    2.78
  17   2   2    0.97    2.35
 -17   2  -2   -1.26    1.86
  17  -2   2    1.11    2.65
  17  -2   2   -1.68    2.17
 -17  -2  -2   -0.73    2.87
  17   2   3    9.18    3.18
  17   2   3    9.47    4.18
 -17   2  -3    7.14    3.03
  17  -2   3    6.61    3.29
  17  -2   3    9.77    4.46
 -17  -2  -3    8.92    3.77
  17   2   4    0.64    2.92
  17   2   4    2.52    3.51
 -17   2  -4    2.53    3.37
 -17  -2  -4    4.05    3.44
  17  -2   4    3.04    3.14
  17  -2   4    2.28    4.18
  17   3  -7   19.53    4.75
 -17  -3   7   17.89    4.63
  17  -3  -7   13.53    1.71
  17   3  -6    5.99    3.10
 -17  -3   6    2.68    3.12
  17  -3  -6    4.43    0.95
  17   3  -5    6.57    3.13
  17   3  -5    5.67    2.92
 -17  -3   5    1.97    2.44
  17   3  -4    2.60    2.65
  17   3  -4    1.97    2.14
 -17  -3   4    0.82    1.94
 -17  -3   4   -0.12    1.85
  17  -3  -4   -0.32    0.48
  17  -3  -4   -0.38    0.45
  17   3  -3   14.93    3.99
  17   3  -3   19.70    4.07
 -17  -3   3   20.42    3.84
  17  -3  -3   20.69    1.81
  17  -3  -3   24.16    4.08
 -17  -3   3   20.04    4.23
  17   3  -2   24.23    4.26
  17   3  -2   21.15    3.89
 -17  -3   2   19.57    4.12
  17  -3  -2   18.29    3.84
 -17  -3   2   12.27    3.40
  17   3  -1   10.95    3.78
  17   3  -1   16.01    3.63
 -17  -3   1   15.91    4.20
 -17  -3   1   14.48    3.71
  17  -3  -1   16.86    4.07
  17   3   0    1.78    2.00
  17   3   0   -1.50    1.82
 -17  -3   0   -1.87    2.33
  17  -3   0    0.13    2.84
  17   3   1    9.23    3.68
  17   3   1    2.24    2.18
  17  -3   1    3.66    3.57
 -17  -3  -1    5.62    3.31
  17   3   2   -5.34    1.43
  17   3   2   -0.38    2.54
  17  -3   2    3.08    3.62
 -17  -3  -2    1.68    2.35
  17   3   3   13.24    4.04
  17   3   3   10.32    4.46
 -17  -3  -3   15.12    4.49
  17  -3   3   16.96    5.06
  17   3   4    1.77    2.22
  17   3   4   -3.03    3.35
 -17  -3  -4   -2.48    1.73
  17  -3   4    0.07    3.00
  17   4  -6    3.70    3.50
 -17  -4   6    2.75    3.06
  17  -4  -6    4.63    1.18
  17   4  -5    4.83    2.57
  17   4  -5    2.40    2.50
 -17  -4   5    0.12    2.89
  17  -4  -5    2.85    1.00
  17   4  -4    5.93    3.11
  17   4  -4   11.06    3.64
 -17  -4   4    8.24    2.85
 -17  -4   4    7.00    3.19
  17  -4  -4    8.32    1.42
  17   4  -3    8.95    3.09
  17   4  -3    0.32    2.54
  17  -4  -3    5.26    1.31
 -17  -4   3    6.74    3.30
 -17  -4   3    6.44    2.84
  17  -4  -3    3.87    2.59
  17   4  -2    3.80    2.39
  17   4  -2    2.61    2.89
 -17  -4   2    0.25    2.31
 -17  -4   2   -0.19    1.61
  17  -4  -2    1.35    2.82
  17   4  -1   -1.06    2.42
  17   4  -1    1.83    2.92
  17  -4  -1    0.90    2.73
 -17  -4   1   -0.75    1.85
 -17  -4   1    5.16    3.06
  17   4   0   16.07    4.31
  17   4   0   11.49    3.65
  17  -4   0   13.11    4.01
 -17  -4   0   13.39    3.94
 -17  -4   0   10.71    4.14
  17   4   1    4.46    2.79
  17  -4   1    7.83    3.92
 -17  -4  -1    3.79    3.07
  17   4   2   10.21    4.35
  17   4   2    9.24    3.22
 -17  -4  -2   13.28    3.72
  17  -4   2    6.82    4.35
  17   4   3   15.45    4.88
  17   4   3   13.61    4.08
 -17  -4  -3    5.37    3.65
  17  -4   3    8.61    4.17
  17   4   4   -2.63    2.41
  17   5  -6   -2.66    3.13
 -17  -5   6    3.53    3.62
  17  -5  -6    5.19    1.54
  17   5  -5    3.02    3.18
  17   5  -5    6.01    3.82
  17  -5  -5    0.32    1.09
 -17  -5   5   -0.06    2.13
  17   5  -4   -0.32    1.79
  17   5  -4    5.56    3.55
 -17  -5   4   -0.07    2.16
  17  -5  -4    2.01    1.21
 -17  -5   4    2.20    2.46
  17   5  -3    5.37    3.52
  17   5  -3    7.60    3.43
  17  -5  -3    3.03    1.34
 -17  -5   3   -1.23    1.92
 -17  -5   3    5.54    2.84
  17   5  -2   29.14    5.34
  17   5  -2   42.63    6.18
  17  -5  -2   32.44    3.40
  17  -5  -2   47.52    5.86
 -17  -5   2   31.52    5.64
 -17  -5   2   38.48    5.72
  17   5  -1    0.79    2.85
  17   5  -1    1.04    2.81
  17  -5  -1    0.46    2.79
 -17  -5   1   -3.50    2.47
 -17  -5   1   -2.89    2.12
  17   5   0    9.62    3.72
  17   5   0   15.21    4.13
 -17  -5   0    7.98    3.39
  17  -5   0    8.38    3.98
 -17  -5   0   14.28    4.36
  17   5   1   -1.07    2.48
  17   5   1    0.29    2.31
  17  -5   1   -2.72    2.33
 -17  -5  -1    0.54    2.86
  17   5   2    0.37    2.38
  17   5   2   12.94    3.60
 -17  -5  -2    0.42    3.08
  17  -5   2    3.71    4.31
  17   5   3    1.85    3.90
  17   5   3    1.58    2.63
  17  -5   3    1.55    3.20
 -17  -5  -3   -0.02    2.27
  17   6  -5    9.27    3.73
 -17  -6   5    2.55    2.73
  17   6  -4    0.18    3.24
  17   6  -4    6.59    3.42
 -17  -6   4   -3.22    1.97
  17  -6  -4    0.71    1.40
  17   6  -3    2.09    2.28
  17   6  -3   -0.94    3.52
  17  -6  -3    0.68    1.36
 -17  -6   3    0.76    2.23
 -17  -6   3    2.42    2.70
  17   6  -2    0.39    3.20
  17   6  -2    1.86    2.27
  17  -6  -2   -1.07    1.29
 -17  -6   2   -3.38    2.64
 -17  -6   2   -1.83    2.10
  17   6  -1   -7.09    2.40
  17   6  -1    1.02    2.98
  17  -6  -1    1.41    3.16
 -17  -6   1    1.83    2.34
 -17  -6   1    1.44    3.34
  17   6   0    0.98    3.11
  17   6   0   -1.42    1.89
  17  -6   0   -1.75    2.54
 -17  -6   0    1.30    2.93
 -17  -6   0   -0.17    2.78
  17   6   1    2.03    2.71
  17   6   1   -3.47    2.43
 -17  -6  -1    2.11    2.54
 -17  -6  -1   -2.77    3.05
  17  -6   1   -2.23    3.49
  17   6   2    2.60    3.64
 -17  -6  -2    6.79    3.35
  17  -6   2   -2.97    3.58
  17   7  -2    0.35    2.70
  17   7  -2   -4.29    2.17
  17  -7  -2    0.31    1.53
 -17  -7   2    3.15    2.93
 -17  -7   2    0.65    2.96
  17   7  -1    2.76    3.09
  17   7  -1   11.58    4.10
  17  -7  -1    9.27    2.69
 -17  -7   1   12.85    4.66
 -17  -7   1   17.43    4.54
  17   7   0   -0.50    2.92
  17  -7   0    0.86    3.97
 -17  -7   0    4.41    3.16
 -17  -7   0    2.92    3.40
  18   0  -7    3.39    2.71
  18   0  -6    3.06    2.42
  18   0  -5   -1.42    1.60
  18   0  -5    1.04    2.01
  18   0  -5    0.42    2.10
  18   0  -4   52.02    5.91
  18   0  -4   55.31    5.63
  18   0  -4   56.42    6.06
  18   0  -3    0.12    1.90
  18   0  -3    0.68    1.79
  18   0  -3    1.69    2.34
 -18   0   3    0.29    2.31
 -18   0   2   68.69    7.48
  18   0  -2   63.07    6.28
  18   0  -2   64.09    6.75
  18   0  -1   -4.48    2.20
  18   0  -1   -0.37    2.30
 -18   0   1   -3.47    2.13
 -18   0   0   12.75    3.94
  18   0   0    7.13    3.02
  18   0   0    8.12    3.16
  18   0   1   -2.44    1.55
  18   0   1   -2.82    2.28
 -18   0  -1    3.23    2.44
 -18   0  -2    7.05    3.86
  18   0   2    9.45    3.51
  18   0   2   14.29    4.10
  18   0   3    1.99    2.36
  18   0   3   -0.19    2.39
 -18   0  -3   -1.22    2.77
  18   0   4   -0.13    3.23
  18   0   4    4.16    4.22
 -18   0  -4    3.89    3.15
  18   1  -7    2.52    2.22
  18  -1  -7   10.41    3.12
  18   1  -6    2.10    2.01
 -18  -1   6   -2.50    2.40
  18  -1  -6    5.14    2.49
  18   1  -5    1.80    2.25
  18   1  -5    3.38    2.55
  18  -1  -5    0.16    1.85
 -18  -1   5   -1.45    1.73
  18  -1  -5    0.38    1.92
  18   1  -4    3.67    2.49
  18   1  -4    2.98    2.35
  18  -1  -4    2.80    2.06
 -18  -1   4    1.55    2.37
  18  -1  -4   -3.65    1.85
 -18  -1   4   -0.18    2.48
  18  -1  -4    8.12    2.61
  18   1  -3    1.60    2.03
  18   1  -3    0.15    2.11
 -18  -1   3   -0.33    2.14
  18  -1  -3    3.48    2.08
  18  -1  -3   -0.94    2.09
  18   1  -2   -1.63    1.45
  18   1  -2    2.15    2.48
  18  -1  -2    3.58    2.24
 -18  -1   2    6.95    3.33
  18  -1  -2    4.14    2.69
  18   1  -1    2.03    2.06
 -18   1   1    0.21    2.74
  18   1  -1   -0.80    2.39
  18  -1  -1   -2.35    2.23
 -18  -1   1    1.09    2.04
  18  -1  -1    0.04    1.90
 -18   1   0    0.45    2.47
  18   1   0   -1.92    2.17
  18   1   0    1.26    2.89
 -18  -1   0   -0.05    1.92
  18  -1   0   -1.85    1.68
  18  -1   0    0.78    2.40
 -18   1  -1   10.78    3.41
  18   1   1    5.56    3.24
  18   1   1   12.80    3.99
 -18  -1  -1   12.21    3.87
  18  -1   1    5.95    3.21
  18  -1   1    5.84    3.52
 -18   1  -2   -1.11    2.98
  18   1   2    4.11    3.22
  18   1   2    2.67    3.21
  18  -1   2    0.56    3.40
  18  -1   2   -4.19    2.40
 -18  -1  -2    3.49    2.75
 -18   1  -3    4.95    3.59
  18   1   3   -2.14    3.02
  18   1   3    6.76    3.33
  18  -1   3    0.58    2.98
  18  -1   3   -2.04    3.62
 -18  -1  -3    6.39    3.04
 -18   1  -4    3.24    2.41
  18   1   4   -2.72    3.09
  18   1   4    0.91    2.56
 -18  -1  -4   -0.52    3.02
  18  -1   4    0.00    2.94
  18  -1   4    1.47    3.91
  18   2  -7    9.77    3.52
 -18  -2   7    3.77    3.23
  18   2  -6    5.09    3.03
 -18  -2   6    0.42    2.65
  18   2  -5   11.89    3.36
  18   2  -5    4.59    2.86
 -18  -2   5    8.41    2.91
 -18  -2   5    3.52    3.01
  18  -2  -5    7.03    2.34
  18   2  -4    9.44    3.38
  18   2  -4   15.71    3.65
 -18  -2   4   13.51    3.41
 -18  -2   4    4.67    3.17
  18  -2  -4    9.80    3.03
  18   2  -3   34.05    4.72
  18   2  -3   32.60    5.02
 -18  -2   3   19.46    4.05
  18  -2  -3   30.58    1.26
  18  -2  -3   31.96    4.85
  18  -2  -3   26.97    1.18
 -18  -2   3   34.17    5.66
  18   2  -2   -0.21    2.52
  18   2  -2    1.12    2.09
 -18  -2   2    0.19    2.28
 -18  -2   2    1.79    2.30
  18  -2  -2    0.07    2.29
  18   2  -1   -1.54    1.59
  18   2  -1    0.88    1.96
 -18  -2   1   -0.21    2.46
  18  -2  -1    1.02    2.00
  18   2   0    1.29    2.94
  18   2   0    4.60    2.54
  18  -2   0    4.44    3.21
  18  -2   0   -2.30    2.57
 -18  -2   0    8.28    3.49
  18   2   1   28.65    5.10
 -18   2  -1   22.27    4.71
  18   2   1   25.61    4.77
 -18  -2  -1   27.08    5.23
  18  -2   1   31.12    4.48
  18  -2   1   32.44    5.94
 -18   2  -2    1.04    3.22
  18   2   2    1.38    2.84
  18   2   2    3.96    3.64
  18  -2   2    1.39    3.19
  18  -2   2    3.40    2.91
 -18  -2  -2    6.42    3.65
  18   2   3   18.42    4.80
 -18   2  -3   20.84    5.22
  18   2   3   16.72    4.43
  18  -2   3   26.70    5.65
 -18  -2  -3   20.33    5.05
  18  -2   3   21.43    4.69
 -18   2  -4   -1.23    2.97
  18   2   4   -1.26    2.62
  18   2   4    1.55    2.81
 -18  -2  -4    5.91    3.46
  18  -2   4    0.31    3.93
  18   3  -6    5.30    2.92
 -18  -3   6    1.92    3.00
  18   3  -5   20.95    4.64
  18   3  -5   13.14    3.72
 -18  -3   5   15.96    4.49
  18   3  -4    0.62    2.60
  18   3  -4    7.81    3.13
 -18  -3   4    6.60    2.80
  18  -3  -4    2.46    0.37
 -18  -3   4    2.37    3.15
  18  -3  -4    2.14    0.27
  18   3  -3    0.52    2.34
  18   3  -3    0.18    1.92
 -18  -3   3    8.55    3.53
 -18  -3   3    2.79    2.61
  18  -3  -3    2.47    0.84
  18  -3  -3    3.85    2.75
  18   3  -2   14.10    3.97
  18   3  -2   10.36    3.36
 -18  -3   2   10.53    3.39
  18  -3  -2   11.69    3.54
 -18  -3   2    6.72    3.28
  18   3  -1   10.60    3.45
  18   3  -1   10.00    3.86
 -18  -3   1   16.32    3.97
 -18  -3   1   12.25    3.66
  18  -3  -1   11.63    3.82
  18   3   0   27.97    4.95
  18   3   0   30.18    5.32
 -18  -3   0   29.86    5.18
  18  -3   0   26.76    5.48
  18   3   1    0.81    1.89
  18   3   1   -1.03    2.93
  18  -3   1   -3.67    2.96
 -18  -3  -1    1.05    2.97
  18   3   2   28.29    5.72
  18   3   2   24.91    5.20
 -18  -3  -2   23.51    5.21
  18  -3   2   25.98    5.39
  18   3   3   44.13    6.72
  18   3   3   35.02    5.85
 -18  -3  -3   28.57    5.92
  18  -3   3   35.29    6.89
  18   4  -6    7.19    3.38
  18   4  -6   -0.19    3.07
 -18  -4   6    3.51    2.91
  18  -4  -6    1.23    0.83
  18   4  -5   -0.67    2.29
  18   4  -5    0.82    2.53
 -18  -4   5    1.45    2.78
  18  -4  -5   -0.18    0.68
  18   4  -4    7.61    3.51
  18   4  -4    9.99    3.81
  18  -4  -4    9.03    1.33
 -18  -4   4   11.31    3.36
 -18  -4   4    5.29    3.59
  18   4  -3    2.91    2.96
  18   4  -3    5.45    2.99
  18  -4  -3    3.50    1.19
 -18  -4   3   -1.20    2.18
 -18  -4   3   -0.17    2.40
  18   4  -2    0.14    2.03
  18   4  -2    2.29    3.07
 -18  -4   2    4.27    2.58
  18  -4  -2    2.44    2.72
 -18  -4   2    1.81    2.75
  18   4  -1    0.57    2.86
  18   4  -1    3.07    3.29
 -18  -4   1    0.01    2.98
 -18  -4   1   -0.63    2.45
  18  -4  -1    1.24    3.09
  18   4   0   23.92    5.11
 -18  -4   0   23.31    4.78
  18  -4   0   27.60    5.00
  18   4   1   12.18    3.63
  18   4   1    6.16    3.62
  18  -4   1    4.42    3.92
 -18  -4  -1    4.66    3.38
  18   4   2    5.02    2.77
  18   4   2    2.54    2.98
  18  -4   2   12.97    4.24
 -18  -4  -2    3.31    3.36
  18   4   3   -2.53    2.61
  18   4   3   -6.31    3.38
  18  -4   3   -3.18    2.79
 -18  -4  -3    0.74    3.26
  18   5  -5   -5.42    2.90
  18   5  -5    4.21    2.66
 -18  -5   5    1.48    3.02
  18  -5  -5    0.68    1.04
  18   5  -4    5.10    2.79
  18   5  -4    8.48    4.03
 -18  -5   4    8.60    4.06
  18  -5  -4   14.53    1.99
  18   5  -3    8.56    3.67
  18   5  -3   -0.05    2.30
 -18  -5   3    3.90    2.78
 -18  -5   3    1.94    3.42
  18  -5  -3    4.69    1.49
  18   5  -2   25.59    5.29
  18   5  -2   13.01    4.18
 -18  -5   2   33.26    5.57
  18  -5  -2   25.60    4.97
 -18  -5   2   23.58    5.02
  18  -5  -2   28.58    3.19
  18   5  -1    4.47    3.35
  18   5  -1    5.61    3.47
  18  -5  -1    6.34    3.67
 -18  -5   1    7.60    3.05
 -18  -5   1   13.79    4.00
  18   5   0   15.86    4.65
  18   5   0    9.47    5.90
  18  -5   0   16.48    5.00
 -18  -5   0   10.23    3.92
 -18  -5   0   13.73    4.31
  18   5   1   10.59    4.25
  18  -5   1    8.89    3.86
 -18  -5  -1   -1.44    1.97
  18   5   2   -1.33    3.31
  18   5   2    0.42    2.69
 -18  -5  -2    5.86    3.22
  18  -5   2   -1.99    3.58
  18   6  -3    7.79    3.86
  18   6  -3   -1.64    2.60
 -18  -6   3    7.49    3.24
 -18  -6   3    0.74    3.54
  18  -6  -3    0.90    1.37
  18   6  -2   -0.66    2.11
  18   6  -2   -2.04    2.96
 -18  -6   2    1.06    2.59
  18  -6  -2    2.32    1.54
 -18  -6   2    0.61    2.56
  18   6  -1   -9.56    2.46
  18   6  -1    1.27    3.13
  18  -6  -1   -3.47    3.22
 -18  -6   1    1.62    2.94
 -18  -6   1   -0.18    2.52
  18   6   0    5.66    4.18
  18   6   0    9.14    4.40
  18  -6   0   -0.81    3.40
 -18  -6   0    1.63    2.63
 -18  -6   0   12.17    4.28
  19   0  -6   14.11    3.39
  19   0  -6    6.45    2.86
  19   0  -5    1.74    2.18
  19   0  -5    2.52    2.31
  19   0  -5    3.59    2.51
  19   0  -4   37.54    5.51
  19   0  -4   44.92    5.69
  19   0  -4   40.93    5.25
 -19   0   3    0.74    2.58
  19   0  -3    1.89    2.43
  19   0  -3   -1.33    1.58
 -19   0   2   50.96    6.35
  19   0  -2   52.58    5.95
  19   0  -2   50.88    6.13
  19   0  -1   -4.01    1.99
 -19   0   1   -1.01    2.43
  19   0  -1    3.33    2.97
  19   0   0    6.34    3.21
  19   0   0    5.43    2.83
 -19   0   0    6.29    3.50
  19   0   1   -3.01    2.43
  19   0   1    3.58    3.22
 -19   0  -1   -2.41    2.72
 -19   0  -2   44.26    6.96
  19   0   2   40.02    5.99
  19   0   2   33.25    6.23
 -19   0  -3   -0.94    3.22
  19   0   3   -4.34    2.90
  19   0   3    0.79    3.59
  19   1  -6   11.57    3.54
  19   1  -6    8.13    3.37
 -19  -1   6    7.69    3.45
  19  -1  -6   12.07    3.25
  19   1  -5    4.09    2.46
  19   1  -5    4.60    2.84
  19  -1  -5    4.45    2.29
  19   1  -4    3.33    2.45
  19   1  -4    0.02    1.72
  19   1  -4    1.95    2.22
  19  -1  -4   -1.98    2.05
 -19  -1   4   -0.39    2.36
  19  -1  -4    0.30    2.09
  19   1  -3    4.84    2.98
  19   1  -3   10.60    3.18
  19  -1  -3   13.20    3.56
  19  -1  -3   12.43    3.19
 -19  -1   3    4.09    2.71
  19   1  -2   16.88    3.86
  19   1  -2   13.70    4.00
 -19  -1   2   12.56    3.83
  19  -1  -2   12.16    3.45
  19  -1  -2   15.56    3.91
  19   1  -1   17.26    4.04
  19   1  -1   18.71    4.60
 -19   1   1   11.57    4.06
  19  -1  -1   14.55    4.10
  19  -1  -1    8.93    2.99
 -19  -1   1   17.89    4.32
  19   1   0    4.10    3.36
 -19   1   0    5.02    2.84
  19   1   0    1.12    2.80
  19  -1   0    3.26    3.13
 -19  -1   0    3.73    2.62
  19  -1   0   -1.25    2.44
  19   1   1   -4.08    2.52
 -19   1  -1    2.80    3.11
  19   1   1    0.54    3.04
  19  -1   1    2.72    3.36
 -19  -1  -1    3.55    3.29
  19  -1   1    2.02    2.87
  19   1   2   16.17    4.76
  19   1   2   15.63    4.77
 -19   1  -2   19.07    4.86
  19  -1   2   17.55    4.31
 -19  -1  -2    6.66    3.02
  19  -1   2   17.38    4.52
 -19   1  -3   12.71    4.46
  19   1   3    3.67    3.51
  19   1   3    0.48    3.50
  19  -1   3    1.93    3.05
  19  -1   3    6.86    4.46
 -19  -1  -3    5.28    3.21
  19   2  -6    7.73    2.71
  19   2  -6    7.82    3.25
 -19  -2   6    6.34    3.61
  19  -2  -6   12.66    4.05
  19   2  -5    3.27    3.04
  19   2  -5    1.81    2.70
 -19  -2   5    2.27    2.93
  19   2  -4    1.64    2.45
  19   2  -4    0.68    2.52
 -19  -2   4    0.79    3.02
 -19  -2   4    1.59    2.44
  19   2  -3   42.24    5.52
  19   2  -3   45.09    6.06
 -19  -2   3   42.24    5.85
 -19  -2   3   43.25    6.33
  19  -2  -3   45.68    5.72
  19   2  -2    3.12    2.84
 -19  -2   2    4.37    2.93
  19  -2  -2   -0.58    2.66
  19   2  -1   19.38    4.55
  19   2  -1   15.10    4.21
  19  -2  -1   15.10    4.27
 -19  -2   1   17.49    4.39
  19   2   0    3.33    3.38
  19   2   0    6.38    2.87
  19  -2   0    6.88    3.92
 -19  -2   0    5.65    3.48
  19   2   1    3.00    2.49
  19   2   1    0.74    2.46
 -19  -2  -1    2.41    2.44
  19  -2   1   -2.71    2.22
  19   2   2    8.00    3.70
  19   2   2    2.38    3.75
 -19   2  -2    7.56    3.48
  19  -2   2    8.76    4.76
 -19  -2  -2    4.37    3.48
  19   2   3   14.83    4.55
  19   2   3    8.97    4.28
 -19   2  -3    8.69    3.82
  19  -2   3   12.60    5.16
 -19  -2  -3   13.43    4.09
  19   3  -5   19.60    4.53
  19   3  -5    9.37    3.64
 -19  -3   5   15.81    4.39
  19   3  -4    3.45    2.97
  19   3  -4    1.64    2.69
 -19  -3   4    6.71    3.02
 -19  -3   4    6.93    3.61
  19   3  -3   -2.10    2.28
  19   3  -3    2.77    3.00
  19  -3  -3    2.24    0.73
  19  -3  -3   -2.98    2.41
 -19  -3   3    3.40    2.64
 -19  -3   3   -0.80    2.05
  19   3  -2   -3.69    4.75
  19   3  -2   -0.64    2.71
 -19  -3   2    3.30    3.58
 -19  -3   2    4.97    3.02
  19  -3  -2   10.41    3.91
  19   3  -1   14.48    4.24
  19  -3  -1    5.18    3.13
 -19  -3   1    5.76    2.87
  19   3   0    4.31    3.40
  19   3   0    1.69    2.22
  19  -3   0    0.13    3.15
 -19  -3   0    0.76    2.26
  19   3   1    1.90    2.43
  19   3   1    1.28    2.58
 -19  -3  -1    3.56    3.32
  19  -3   1    9.32    3.73
  19   3   2    5.07    3.33
  19   3   2    2.99    3.99
  19  -3   2   -0.43    3.71
 -19  -3  -2    4.85    3.58
  19   4  -5   15.29    4.24
  19   4  -5   11.52    3.74
 -19  -4   5    9.79    4.14
  19  -4  -5    8.45    0.81
  19   4  -4    0.57    3.24
  19   4  -4    0.88    2.03
 -19  -4   4    2.45    2.59
  19  -4  -4    2.50    0.82
 -19  -4   4    0.67    2.36
  19   4  -3   -4.31    2.30
  19   4  -3    6.04    3.34
 -19  -4   3   -3.40    2.36
 -19  -4   3    2.54    2.20
  19  -4  -3    0.81    0.90
  19   4  -2   15.85    4.40
  19   4  -2   14.74    4.37
  19  -4  -2   15.86    4.41
 -19  -4   2   11.55    3.98
 -19  -4   2    1.60    3.27
  19   4  -1    6.16    3.60
  19  -4  -1   -0.19    3.07
 -19  -4   1    0.63    3.35
 -19  -4   1    1.97    2.31
  19   4   0   -6.20    2.51
  19  -4   0   -1.04    3.10
 -19  -4   0    1.35    2.81
  19   4   1   10.13    4.45
  19   4   1   12.65    4.09
 -19  -4  -1   11.73    4.19
  19  -4   1    4.54    3.36
  19   4   2   -5.85    3.16
  19   4   2    0.38    1.95
 -19  -4  -2   -0.63    3.24
  19  -4   2   -1.66    2.81
  19   5  -4   28.62    5.60
 -19  -5   4   34.63    6.46
  19   5  -3    1.35    2.37
  19   5  -3   -0.59    3.10
 -19  -5   3   -0.32    2.35
  19  -5  -3   -0.21    1.05
 -19  -5   3    0.19    2.41
  19   5  -2   -6.26    2.57
  19   5  -2    0.43    3.12
 -19  -5   2    0.36    2.57
 -19  -5   2    1.99    3.64
  19  -5  -2    0.46    1.31
  19   5  -1    8.53    3.95
  19   5  -1   -3.92    2.92
 -19  -5   1    3.76    3.10
 -19  -5   1    1.80    3.69
  19  -5  -1    0.84    3.35
  19   5   0   21.76    5.36
  19  -5   0   30.48    6.19
 -19  -5   0   27.37    5.69
  20   0  -5   -1.37    2.12
  20   0  -4   -0.98    2.31
  20   0  -4    4.24    2.51
  20   0  -3    2.91    2.28
  20   0  -3   -2.99    2.23
  20   0  -2    1.71    2.68
  20   0  -2    3.91    2.69
 -20   0   2    6.27    3.37
 -20   0   1    3.08    2.43
  20   0  -1    1.72    2.55
  20   0  -1    6.83    3.45
 -20   0   0    7.57    3.52
  20   0   0    6.42    3.47
  20   0   0   -1.14    2.87
  20   0   1   -0.10    2.97
  20   0   1    2.32    3.43
 -20   0  -1   -0.49    2.88
 -20   0  -2   18.27    5.09
  20   0   2   22.13    4.91
  20   0   2   24.92    5.11
  20   1  -5    0.64    2.40
  20   1  -5    0.81    2.21
  20   1  -5    4.25    2.62
  20   1  -4    6.57    3.14
  20   1  -4    3.09    2.65
  20  -1  -4    5.37    2.97
  20   1  -3    5.23    2.90
  20   1  -3    3.99    2.94
  20  -1  -3    8.59    3.29
 -20  -1   3    7.07    3.21
  20   1  -2    6.40    3.63
  20   1  -2    8.95    3.01
  20  -1  -2    7.22    2.86
 -20  -1   2    6.60    2.90
 -20   1   1   18.96    4.83
  20   1  -1   12.82    4.10
  20   1  -1   18.01    4.59
  20  -1  -1   28.82    4.95
 -20  -1   1   10.45    4.01
  20   1   0   11.72    4.27
  20   1   0   13.69    4.06
 -20   1   0    2.76    2.78
  20  -1   0    2.16    2.92
 -20  -1   0    5.28    3.55
  20  -1   0    3.63    3.59
 -20   1  -1    2.21    3.20
  20   1   1   -0.54    2.03
  20   1   1    3.46    2.71
  20  -1   1   -2.26    2.23
 -20  -1  -1    0.65    2.29
  20  -1   1   -1.14    3.48
 -20   1  -2    4.30    3.39
  20   1   2    6.41    3.94
  20   1   2    9.70    3.58
  20  -1   2    0.89    3.21
  20  -1   2    0.45    3.74
 -20  -1  -2    5.43    3.20
  20   2  -5    5.96    3.29
  20   2  -5    3.12    2.91
 -20  -2   5   -1.97    3.02
  20   2  -4    2.10    2.74
  20   2  -4   -1.20    2.33
 -20  -2   4    3.76    2.84
 -20  -2   4    4.22    2.87
  20   2  -3    3.28    2.89
  20  -2  -3   13.11    3.79
 -20  -2   3    5.12    2.94
  20   2  -2    5.02    2.78
  20   2  -2    3.97    2.95
  20  -2  -2   -2.74    2.59
 -20  -2   2    4.39    2.97
  20   2  -1   18.92    4.62
  20   2  -1   23.55    5.38
  20  -2  -1   32.94    5.83
 -20  -2   1   16.34    4.44
  20   2   0    1.97    3.41
  20   2   0    8.39    3.42
 -20  -2   0    0.58    3.00
  20  -2   0    3.89    3.62
  20   2   1   -0.29    3.45
  20   2   1    0.39    2.44
 -20  -2  -1    2.17    2.48
  20  -2   1    2.79    3.99
  20   2   2    2.97    3.10
  20   2   2    4.22    2.77
  20  -2   2    1.32    3.06
 -20  -2  -2    3.32    3.66
  20   3  -4   17.70    4.54
  20   3  -4   23.02    4.97
 -20  -3   4   15.14    4.45
 -20  -3   4   18.95    4.17
  20   3  -3    7.69    3.66
 -20  -3   3    2.07    2.65
  20  -3  -3    3.45    0.69
 -20  -3   3    4.22    3.71
  20  -3  -3   12.90    6.00
  20   3  -2   22.09    5.05
 -20  -3   2   20.86    4.77
  20  -3  -2   23.03    4.97
  20   3  -1    4.93    3.50
  20   3  -1    4.91    3.34
 -20  -3   1    3.75    2.67
  20  -3  -1   -2.43    3.01
  20   3   0    3.65    3.47
  20   3   0   -1.84    2.48
 -20  -3   0    3.56    3.05
  20  -3   0    0.61    3.84
  20   3   1   14.87    4.57
  20   3   1   20.80    5.03
  20  -3   1   24.68    5.90
 -20  -3  -1   25.61    5.45
  20   4  -3    4.93    3.74
  20   4  -3    1.93    3.58
 -20  -4   3    8.41    3.40
  20  -4  -3    8.00    1.39
 -20  -4   3   10.92    4.41
  20   4  -2    3.20    3.52
  20  -4  -2   10.04    3.90
 -20  -4   2    9.35    3.88
 -20  -4   2   12.90    4.07
  20   4  -1   -2.57    2.92
  20  -4  -1    1.73    3.48
 -20  -4   1    5.82    3.30
  20   4   0    2.13    3.67
  20   4   0    5.47    3.42
 -20  -4   0    0.45    2.87
  20  -4   0    2.52    3.63
  21   0  -4    7.95    3.18
  21   0  -3    2.81    2.69
  21   0  -3   -0.80    2.49
  21   0  -2    4.87    2.92
  21   0  -2    2.81    2.51
 -21   0   2   10.68    4.03
  21   0  -1   -0.97    2.89
  21   0  -1   -0.57    2.86
 -21   0   1    0.30    2.05
  21   0   0   17.10    4.44
 -21   0   0   25.93    5.33
  21   0   0   27.07    5.64
 -21   0  -1   -1.33    3.30
  21   0   1   -1.38    2.38
  21   0   1   -0.95    3.31
  21   1  -4   20.82    4.31
  21   1  -4   19.20    4.49
  21   1  -3   -0.02    2.61
  21   1  -3    4.18    3.06
 -21  -1   3    0.28    2.49
  21  -1  -3    2.85    2.79
  21   1  -2   -1.38    2.73
  21   1  -2    1.94    3.16
 -21  -1   2    2.35    2.82
  21  -1  -2    4.54    3.20
  21   1  -1   26.86    5.09
  21   1  -1   36.59    6.36
  21  -1  -1   31.13    5.66
 -21  -1   1   24.40    5.43
 -21   1   0    6.40    4.04
  21   1   0   16.21    4.79
  21   1   0   18.12    4.80
  21  -1   0   12.05    3.90
 -21  -1   0   19.55    5.11
  21   1   1    1.32    2.58
 -21   1  -1    5.68    3.23
  21   1   1   -3.06    2.88
 -21  -1  -1    6.97    3.25
  21  -1   1    4.48    4.23
  21   2  -4    1.64    2.06
  21   2  -4    2.00    2.79
 -21  -2   4   -0.37    2.44
  21   2  -3    3.50    2.53
  21   2  -3   -2.20    2.74
  21  -2  -3    1.35    2.81
 -21  -2   3    4.20    2.93
  21   2  -2   -3.91    2.72
  21   2  -2    4.55    2.68
 -21  -2   2    5.03    3.21
  21  -2  -2    0.77    2.86
  21   2  -1    6.87    3.69
  21   2  -1   14.05    4.35
  21  -2  -1    6.65    4.05
 -21  -2   1    3.85    3.49
  21   2   0   -1.75    3.09
  21   2   0    2.86    2.59
 -21  -2   0    1.95    3.54
  21  -2   0    1.56    3.36
  21   3  -2    6.58    3.39
  21   3  -2    6.36    3.60
  21  -3  -2    2.73    3.50
 -21  -3   2    3.09    3.35
  21   3  -1    0.78    2.85
  21   3  -1    3.33    3.57
  21  -3  -1   -1.25    3.27
 -21  -3   1    4.11    3.45
   0   0   0    0.00    0.00
;
_shelx_hkl_checksum              9341
#END Tags that were not found in dictionaries
loop_
_space_group_symop_operation_xyz
'x, y, z'
'-x, y+1/2, -z+1/2'
'-x, -y, -z'
'x, -y-1/2, z-1/2'
loop_
_atom_site_type_symbol
_atom_site_label
_atom_site_fract_x
_atom_site_fract_y
_atom_site_fract_z
_atom_site_U_iso_or_equiv
_atom_site_adp_type
_atom_site_calc_flag
_atom_site_refinement_flags_adp
_atom_site_refinement_flags_posn
_atom_site_occupancy
C C1 0.18649(15) 0.0078(3) 0.7322(3) 0.0102(5) Uani d . . 1
C C2 0.09835(15) 0.0623(3) 0.6767(3) 0.0127(5) Uani d . . 1
H H2 0.0501 -0.0167 0.6667 0.015 Uiso calc U R 1
C C3 0.08145(16) 0.2324(3) 0.6362(3) 0.0143(5) Uani d . . 1
H H3 0.0216 0.2707 0.5946 0.017 Uiso calc U R 1
C C4 0.15235(15) 0.3470(3) 0.6565(3) 0.0134(5) Uani d . . 1
H H4 0.141 0.4645 0.6315 0.016 Uiso calc U R 1
C C5 0.24018(15) 0.2900(3) 0.7133(3) 0.0121(5) Uani d . . 1
H H5 0.288 0.3701 0.7273 0.014 Uiso calc U R 1
C C6 0.25980(14) 0.1198(3) 0.7502(3) 0.0086(4) Uani d . . 1
K K1 0.43785(3) -0.34679(7) 0.84940(7) 0.01055(12) Uani d . . 1
N N1 0.19671(12) -0.1752(3) 0.7745(3) 0.0123(4) Uani d . . 1
O O1 0.13890(11) -0.2429(2) 0.8514(3) 0.0206(4) Uani d . . 1
O O2 0.25984(11) -0.2526(2) 0.7288(2) 0.0174(4) Uani d . . 1
O O3 0.37397(10) -0.0426(2) 0.9973(2) 0.0118(3) Uani d . . 1
O O4 0.40713(10) -0.0261(2) 0.6815(2) 0.0110(3) Uani d . . 1
O O5 0.42106(10) 0.2260(2) 0.8766(2) 0.0130(4) Uani d . . 1
S S1 0.37539(4) 0.06461(8) 0.83398(8) 0.00863(13) Uani d . . 1
loop_
_atom_site_aniso_label
_atom_site_aniso_U_11
_atom_site_aniso_U_22
_atom_site_aniso_U_33
_atom_site_aniso_U_12
_atom_site_aniso_U_13
_atom_site_aniso_U_23
C1 0.0125(11) 0.0097(11) 0.0088(11) 0.0016(9) 0.0025(9) 0.0009(9)
C2 0.0097(11) 0.0152(12) 0.0129(11) -0.0014(10) 0.0007(8) -0.0007(10)
C3 0.0120(11) 0.0171(13) 0.0134(12) 0.0041(10) 0.0014(9) 0.0001(10)
C4 0.0155(11) 0.0107(11) 0.0141(11) 0.0045(10) 0.0032(9) -0.0001(10)
C5 0.0121(11) 0.0122(11) 0.0124(11) -0.0012(9) 0.0033(9) 0.0006(9)
C6 0.0092(10) 0.0100(11) 0.0069(10) 0.0010(9) 0.0021(8) -0.0004(8)
K1 0.0098(2) 0.0138(2) 0.0081(2) 0.0018(2) 0.00172(17) 0.00050(19)
N1 0.0090(9) 0.0117(10) 0.0154(10) -0.0017(8) -0.0005(7) -0.0006(8)
O1 0.0163(9) 0.0182(10) 0.0292(10) -0.0035(8) 0.0093(8) 0.0066(8)
O2 0.0097(8) 0.0147(9) 0.0275(10) 0.0014(7) 0.0028(7) -0.0014(8)
O3 0.0127(8) 0.0156(9) 0.0073(8) 0.0021(7) 0.0022(6) 0.0020(6)
O4 0.0102(8) 0.0127(9) 0.0108(8) -0.0001(6) 0.0036(6) -0.0017(6)
O5 0.0104(8) 0.0125(9) 0.0157(9) -0.0030(7) 0.0010(6) -0.0036(7)
S1 0.0065(3) 0.0113(3) 0.0080(3) -0.0004(2) 0.00124(19) -0.0004(2)
loop_
_atom_type_symbol
_atom_type_description
_atom_type_scat_dispersion_real
_atom_type_scat_dispersion_imag
_atom_type_scat_source
C C 0.0033 0.0016 'International Tables Vol C Tables 4.2.6.8 and 6.1.1.4'
H H 0.0000 0.0000 'International Tables Vol C Tables 4.2.6.8 and 6.1.1.4'
N N 0.0061 0.0033 'International Tables Vol C Tables 4.2.6.8 and 6.1.1.4'
O O 0.0106 0.0060 'International Tables Vol C Tables 4.2.6.8 and 6.1.1.4'
S S 0.1246 0.1234 'International Tables Vol C Tables 4.2.6.8 and 6.1.1.4'
K K 0.2009 0.2494 'International Tables Vol C Tables 4.2.6.8 and 6.1.1.4'
loop_
_geom_angle_atom_site_label_1
_geom_angle_atom_site_label_2
_geom_angle_atom_site_label_3
_geom_angle_site_symmetry_1
_geom_angle_site_symmetry_3
_geom_angle
C2 C1 C6 . . 122.3(2)
C2 C1 N1 . . 114.9(2)
C6 C1 N1 . . 122.7(2)
C3 C2 C1 . . 119.4(2)
C2 C3 C4 . . 119.6(2)
C3 C4 C5 . . 120.0(2)
C6 C5 C4 . . 121.9(2)
C5 C6 C1 . . 116.7(2)
C5 C6 S1 . . 117.37(17)
C1 C6 S1 . . 125.78(18)
O3 K1 O4 4 4_556 128.80(5)
O3 K1 O4 4 2_646 85.86(5)
O4 K1 O4 4_556 2_646 99.32(4)
O3 K1 O2 4 . 67.92(5)
O4 K1 O2 4_556 . 93.98(5)
O4 K1 O2 2_646 . 153.38(5)
O3 K1 O4 4 . 82.90(5)
O4 K1 O4 4_556 . 132.34(5)
O4 K1 O4 2_646 . 120.00(3)
O2 K1 O4 . . 63.03(5)
O3 K1 O5 4 3_657 150.98(5)
O4 K1 O5 4_556 3_657 74.14(5)
O4 K1 O5 2_646 3_657 71.43(5)
O2 K1 O5 . 3_657 134.80(5)
O4 K1 O5 . 3_657 92.83(5)
O3 K1 O3 4 . 122.26(6)
O4 K1 O3 4_556 . 81.68(5)
O4 K1 O3 2_646 . 143.19(5)
O2 K1 O3 . . 61.47(5)
O4 K1 O3 . . 50.78(5)
O5 K1 O3 3_657 . 73.59(5)
O3 K1 O5 4 2_646 73.43(5)
O4 K1 O5 4_556 2_646 144.17(5)
O4 K1 O5 2_646 2_646 49.78(5)
O2 K1 O5 . 2_646 121.76(5)
O4 K1 O5 . 2_646 70.57(5)
O5 K1 O5 3_657 2_646 78.07(4)
O3 K1 O5 . 2_646 111.61(5)
O3 K1 S1 4 . 103.07(4)
O4 K1 S1 4_556 . 107.00(4)
O4 K1 S1 2_646 . 136.13(4)
O2 K1 S1 . . 58.88(4)
O4 K1 S1 . . 25.40(3)
O5 K1 S1 3_657 . 82.68(4)
O3 K1 S1 . . 25.38(3)
O5 K1 S1 2_646 . 91.20(4)
O3 K1 O5 4 1_545 73.56(5)
O4 K1 O5 4_556 1_545 63.65(4)
O4 K1 O5 2_646 1_545 64.72(4)
O2 K1 O5 . 1_545 101.81(5)
O4 K1 O5 . 1_545 155.78(5)
O5 K1 O5 3_657 1_545 110.51(4)
O3 K1 O5 . 1_545 141.00(5)
O5 K1 O5 2_646 1_545 107.06(4)
S1 K1 O5 . 1_545 159.11(3)
O3 K1 S1 4 2_646 75.52(4)
O4 K1 S1 4_556 2_646 123.57(4)
O4 K1 S1 2_646 2_646 24.94(3)
O2 K1 S1 . 2_646 139.24(4)
O4 K1 S1 . 2_646 95.81(3)
O5 K1 S1 3_657 2_646 76.39(4)
O3 K1 S1 . 2_646 132.60(4)
O5 K1 S1 2_646 2_646 25.24(3)
S1 K1 S1 . 2_646 115.59(2)
O5 K1 S1 1_545 2_646 83.97(3)
O3 K1 K1 4 3_647 114.98(4)
O4 K1 K1 4_556 3_647 50.41(3)
O4 K1 K1 2_646 3_647 48.92(3)
O2 K1 K1 . 3_647 138.68(4)
O4 K1 K1 . 3_647 154.81(4)
O5 K1 K1 3_657 3_647 62.78(4)
O3 K1 K1 . 3_647 120.98(4)
O5 K1 K1 2_646 3_647 96.61(4)
S1 K1 K1 . 3_647 141.84(3)
O5 K1 K1 1_545 3_647 47.73(3)
S1 K1 K1 2_646 3_647 73.40(2)
O2 N1 O1 . . 123.6(2)
O2 N1 C1 . . 119.18(19)
O1 N1 C1 . . 117.22(19)
N1 O2 K1 . . 143.58(15)
S1 O3 K1 . 4_556 153.86(10)
S1 O3 K1 . . 97.29(8)
K1 O3 K1 4_556 . 89.72(5)
S1 O4 K1 . 4 167.32(10)
S1 O4 K1 . 2_656 101.90(8)
K1 O4 K1 4 2_656 80.67(4)
S1 O4 K1 . . 99.39(8)
K1 O4 K1 4 . 90.65(5)
K1 O4 K1 2_656 . 114.43(5)
S1 O5 K1 . 3_657 135.98(10)
S1 O5 K1 . 2_656 94.31(8)
K1 O5 K1 3_657 2_656 85.63(5)
S1 O5 K1 . 1_565 153.50(9)
K1 O5 K1 3_657 1_565 69.49(4)
K1 O5 K1 2_656 1_565 95.23(4)
O5 S1 O3 . . 114.08(10)
O5 S1 O4 . . 112.32(9)
O3 S1 O4 . . 112.55(10)
O5 S1 C6 . . 104.98(10)
O3 S1 C6 . . 105.16(10)
O4 S1 C6 . . 106.91(10)
O5 S1 K1 . . 135.46(7)
O3 S1 K1 . . 57.34(7)
O4 S1 K1 . . 55.21(7)
C6 S1 K1 . . 119.54(8)
O5 S1 K1 . 2_656 60.45(6)
O3 S1 K1 . 2_656 124.61(7)
O4 S1 K1 . 2_656 53.16(6)
C6 S1 K1 . 2_656 130.08(7)
K1 S1 K1 . 2_656 87.847(16)
loop_
_geom_bond_atom_site_label_1
_geom_bond_atom_site_label_2
_geom_bond_site_symmetry_2
_geom_bond_distance
C1 C2 . 1.388(3)
C1 C6 . 1.401(3)
C1 N1 . 1.471(3)
C2 C3 . 1.382(3)
C3 C4 . 1.386(3)
C4 C5 . 1.392(3)
C5 C6 . 1.385(3)
C6 S1 . 1.797(2)
K1 O3 4 2.7015(16)
K1 O4 4_556 2.7130(16)
K1 O4 2_646 2.7735(16)
K1 O2 . 2.7761(17)
K1 O4 . 2.7982(17)
K1 O5 3_657 2.8062(17)
K1 O3 . 2.8529(18)
K1 O5 2_646 2.9583(17)
K1 S1 . 3.3614(10)
K1 O5 1_545 3.3720(19)
K1 S1 2_646 3.3910(8)
K1 K1 3_647 3.5516(11)
N1 O2 . 1.224(2)
N1 O1 . 1.234(2)
O3 S1 . 1.4523(16)
O3 K1 4_556 2.7015(16)
O4 S1 . 1.4614(16)
O4 K1 4 2.7130(16)
O4 K1 2_656 2.7734(16)
O5 S1 . 1.4500(17)
O5 K1 3_657 2.8062(17)
O5 K1 2_656 2.9582(16)
O5 K1 1_565 3.3720(19)
S1 K1 2_656 3.3910(8)
