#------------------------------------------------------------------------------
#$Date: 2015-08-05 22:19:24 +0300 (Wed, 05 Aug 2015) $
#$Revision: 152860 $
#$URL: svn://www.crystallography.net/cod/cif/4/12/39/4123949.cif $
#------------------------------------------------------------------------------
#
# This file is available in the Crystallography Open Database (COD),
# http://www.crystallography.net/
#
# All data on this site have been placed in the public domain by the
# contributors.
#
data_4123949
loop_
_publ_author_name
'Brown, Alec N.'
'Li, Bo'
'Liu, Shih-Yuan'
_publ_section_title
;
 Negishi Cross-Coupling Is Compatible with a Reactive B-Cl Bond:
 Development of a Versatile Late-Stage Functionalization of 1,2-Azaborines
 and Its Application to the Synthesis of New BN Isosteres of Naphthalene
 and Indenyl.
;
_journal_issue                   28
_journal_name_full               'Journal of the American Chemical Society'
_journal_page_first              8932
_journal_page_last               8935
_journal_paper_doi               10.1021/jacs.5b05879
_journal_volume                  137
_journal_year                    2015
_chemical_formula_moiety         'C8 H8 B N'
_chemical_formula_sum            'C8 H8 B N'
_chemical_formula_weight         128.96
_space_group_crystal_system      monoclinic
_space_group_IT_number           14
_space_group_name_Hall           '-P 2ybc'
_space_group_name_H-M_alt        'P 1 21/c 1'
_symmetry_space_group_name_Hall  '-P 2ybc'
_symmetry_space_group_name_H-M   'P 1 21/c 1'
_atom_sites_solution_hydrogens   difmap
_atom_sites_solution_primary     direct
_atom_sites_solution_secondary   difmap
_audit_creation_method           SHELXL-2014/6
_cell_angle_alpha                90
_cell_angle_beta                 107.059(6)
_cell_angle_gamma                90
_cell_formula_units_Z            2
_cell_length_a                   8.1542(6)
_cell_length_b                   5.7395(4)
_cell_length_c                   7.7590(5)
_cell_measurement_reflns_used    2001
_cell_measurement_temperature    100(2)
_cell_measurement_theta_max      66.49
_cell_measurement_theta_min      5.68
_cell_volume                     347.15(4)
_computing_cell_refinement       'SAINT (Bruker, 2014)'
_computing_data_collection       'APEX2 (Bruker, 2014)'
_computing_data_reduction        'SAINT (Bruker, 2014)'
_computing_molecular_graphics    'Bruker SHELXTL'
_computing_publication_material  'Bruker SHELXTL'
_computing_structure_refinement  'SHELXL-2014 (Sheldrick, 2014)'
_computing_structure_solution    'SHELXL-2014 (Sheldrick, 2014)'
_diffrn_ambient_temperature      100(2)
_diffrn_measured_fraction_theta_full 0.981
_diffrn_measured_fraction_theta_max 0.998
_diffrn_measurement_device_type  'Bruker Kappa DUO CCD diffractometer'
_diffrn_measurement_method       '\f and \w scans'
_diffrn_radiation_monochromator  mirrors
_diffrn_radiation_type           CuK\a
_diffrn_radiation_wavelength     1.54178
_diffrn_reflns_av_R_equivalents  0.0336
_diffrn_reflns_av_unetI/netI     0.0242
_diffrn_reflns_laue_measured_fraction_full 0.981
_diffrn_reflns_laue_measured_fraction_max 0.998
_diffrn_reflns_limit_h_max       9
_diffrn_reflns_limit_h_min       -9
_diffrn_reflns_limit_k_max       6
_diffrn_reflns_limit_k_min       -6
_diffrn_reflns_limit_l_max       9
_diffrn_reflns_limit_l_min       -9
_diffrn_reflns_number            3226
_diffrn_reflns_point_group_measured_fraction_full 0.981
_diffrn_reflns_point_group_measured_fraction_max 0.998
_diffrn_reflns_theta_full        67.679
_diffrn_reflns_theta_max         66.487
_diffrn_reflns_theta_min         5.675
_diffrn_source                   'microfocus sealed tube'
_diffrn_source_type              'Incoatec I\uS'
_exptl_absorpt_coefficient_mu    0.541
_exptl_absorpt_correction_T_max  0.7528
_exptl_absorpt_correction_T_min  0.6336
_exptl_absorpt_correction_type   multi-scan
_exptl_absorpt_process_details
;
Sheldrick, G.M. (2013). SADABS. Bruker AXS Inc. Madison, WI USA.
;
_exptl_crystal_colour            colorless
_exptl_crystal_density_diffrn    1.234
_exptl_crystal_density_meas      ?
_exptl_crystal_density_method    none
_exptl_crystal_description       block
_exptl_crystal_F_000             136
_exptl_crystal_size_max          0.120
_exptl_crystal_size_mid          0.040
_exptl_crystal_size_min          0.030
_refine_diff_density_max         0.497
_refine_diff_density_min         -0.186
_refine_diff_density_rms         0.051
_refine_ls_extinction_coef       na
_refine_ls_extinction_method     none
_refine_ls_goodness_of_fit_ref   1.076
_refine_ls_hydrogen_treatment    refall
_refine_ls_matrix_type           full
_refine_ls_number_parameters     62
_refine_ls_number_reflns         616
_refine_ls_number_restraints     0
_refine_ls_restrained_S_all      1.076
_refine_ls_R_factor_all          0.0666
_refine_ls_R_factor_gt           0.0566
_refine_ls_shift/su_max          0.000
_refine_ls_shift/su_mean         0.000
_refine_ls_structure_factor_coef Fsqd
_refine_ls_weighting_details
'w=1/[\s^2^(Fo^2^)+(0.0929P)^2^+0.1717P] where P=(Fo^2^+2Fc^2^)/3'
_refine_ls_weighting_scheme      calc
_refine_ls_wR_factor_gt          0.1557
_refine_ls_wR_factor_ref         0.1641
_reflns_Friedel_coverage         0.000
_reflns_number_gt                511
_reflns_number_total             616
_reflns_threshold_expression     'I > 2\s(I)'
_cod_data_source_file            ja5b05879_si_003.cif
_cod_data_source_block           C8H8BN
_cod_depositor_comments
;
The following automatic conversions were performed:

'_exptl_crystal_density_meas' value 'not measured' was changed to '?'
- the value is perceived as not measured.

Automatic conversion script
Id: cif_fix_values 3271 2015-04-21 07:52:19Z andrius 

 Adding full bibliography for 4123948--4123949.cif.
;
_cod_database_code               4123949
_shelx_space_group_comment
;
The symmetry employed for this shelxl refinement is uniquely defined
by the following loop, which should always be used as a source of
symmetry information in preference to the above space-group names.
They are only intended as comments.
;
_shelx_estimated_absorpt_t_min   0.938
_shelx_estimated_absorpt_t_max   0.984
_shelxl_version_number           2014/6
_shelx_res_file
;
TITL p21c_a.res in P2(1)/c

CELL  1.54178   8.1542   5.7395   7.7590   90.000  107.059   90.000
ZERR    2.000   0.0006   0.0004   0.0005    0.000    0.006    0.000
LATT  1
SYMM -X, 1/2+Y, 1/2-Z
SFAC C H B N
UNIT 16 16 2 2
TEMP -173
SIZE 0.12 0.04 0.03
EXYZ N1 C1
EXYZ B1 C2
EADP N1 C1
EADP B1 C2

L.S. 10
BOND $H
FMAP 2
PLAN -20
CONF
ACTA
WGHT    0.092900    0.171700
FVAR       2.11066
PART  1
N1    4    0.628527    0.250670    0.440019    10.50000    0.06433    0.02917 =
         0.03425    0.00438    0.01510    0.00356
B1    3    0.483835    0.387555    0.449666    10.50000    0.05065    0.02400 =
         0.02465    0.00641    0.01187   -0.00333
PART  2
C1    1    0.628527    0.250670    0.440019    10.50000    0.06433    0.02917 =
         0.03425    0.00438    0.01510    0.00356
C2    1    0.483835    0.387555    0.449666    10.50000    0.05065    0.02400 =
         0.02465    0.00641    0.01187   -0.00333
PART 0
C3    1    0.786980    0.322144    0.522554    11.00000    0.05653    0.04211 =
         0.03669    0.00888    0.01510    0.00508
C4    1    0.824280    0.528657    0.620368    11.00000    0.03683    0.05230 =
         0.03644    0.01237    0.00799   -0.00603

C5    1    0.696680    0.680043    0.639705    11.00000    0.06993    0.03371 =
         0.03336    0.00585    0.01549   -0.01248
H1    2    0.720208    0.812169    0.702375    11.00000    0.07291
H2    2    0.615504    0.088611    0.372661    11.00000    0.06125
H3    2    0.948420    0.557500    0.676195    11.00000    0.05291
H4    2    0.879975    0.215794    0.515191    11.00000    0.05942
HKLF 4

REM  p21c_a.res in P2(1)/c
REM R1 =  0.0566 for     511 Fo > 4sig(Fo)  and  0.0666 for all     616 data
REM     62 parameters refined using      0 restraints

END

WGHT      0.0929      0.1713

REM Highest difference peak  0.497,  deepest hole -0.186,  1-sigma level  0.051
Q1    1   0.4147  0.2246  0.3615  11.00000  0.05    0.50
Q2    1   0.5000  0.5000  0.5000  10.50000  0.05    0.27
Q3    1   0.7967  0.7144  0.6952  11.00000  0.05    0.22
Q4    1   0.7627  0.8250  0.7117  11.00000  0.05    0.19
Q5    1   0.5442  0.3526  0.4358  11.00000  0.05    0.15
Q6    1   0.4289  0.0491  0.3063  11.00000  0.05    0.12
Q7    1   0.6984  0.3554  0.5129  11.00000  0.05    0.11
Q8    1   0.3563  0.2626  0.5842  11.00000  0.05    0.10
Q9    1   0.4948  0.0295  0.4396  11.00000  0.05    0.09
Q10   1   0.5085 -0.0969  0.3675  11.00000  0.05    0.09
Q11   1   0.8324  1.0060  0.7455  11.00000  0.05    0.09
Q12   1   0.2372  0.3563  0.4285  11.00000  0.05    0.09
Q13   1   0.8496  0.4715  0.8773  11.00000  0.05    0.09
Q14   1   0.6162  0.2373  0.6887  11.00000  0.05    0.08
Q15   1   0.8703  0.5352  0.6273  11.00000  0.05    0.08
Q16   1   0.5557  0.0360  0.4834  11.00000  0.05    0.08
Q17   1   0.8230  0.3962  0.5930  11.00000  0.05    0.08
Q18   1   0.8152  0.3638  0.6545  11.00000  0.05    0.08
Q19   1   0.4051  0.4316  0.2452  11.00000  0.05    0.08
Q20   1   0.5121  0.7191  0.3639  11.00000  0.05    0.08
;
_shelx_res_checksum              43688
_shelx_hkl_file
;
   0   1   0   -2.60    1.10
   0   2   0 2004.10   72.09
   0   2   0 1998.10   72.39
   0   2   0 2063.69   72.29
   0  -2   0 2071.39   72.69
   0  -2   0 2074.89   72.29
   0   3   0    1.40    2.20
   0   3   0    2.00    1.80
   0   3   0    0.80    2.30
   0  -3   0    3.70    2.40
   0  -3   0    1.20    2.10
   0   4   0   31.60    3.70
   0  -4   0   31.00    5.50
   0  -5   0    2.40    3.60
   0  -5   0   -2.60    3.30
   0  -6   0    0.50    3.40
   0  -6   0    0.40    3.80
   0  -6  -1   13.40    3.30
   0  -6  -1   10.80    3.40
   0  -5  -1   32.70    5.70
   0  -5  -1   25.90    4.40
   0  -4  -1   -1.00    3.40
   0   4   1    0.20    2.60
   0  -3  -1  717.73   26.30
   0   3   1  682.93   25.50
   0  -2  -1  677.63   24.10
   0  -2  -1  648.44   23.90
   0   2   1  647.64   23.50
   0   2   1  648.74   23.50
   0   0  -1  -10.10    2.30
   0   0  -1   -7.30    2.30
   0   0   1   -9.70    2.30
   0   0   1  -10.20    2.50
   0   1  -1 6362.26  220.88
   0   1  -1 6275.87  220.98
   0  -1   1 6155.38  220.88
   0  -1   1 6284.37  220.88
   0   2  -1  692.03   24.30
   0   2  -1  661.13   24.60
   0   2  -1  694.33   24.40
   0  -2   1  647.84   24.60
   0  -2   1  681.43   24.30
   0   3  -1  684.53   24.80
   0   3  -1  647.94   25.20
   0   3  -1  721.33   25.10
   0  -3   1  656.43   25.40
   0  -3   1  709.33   24.90
   0   4  -1    4.50    2.70
   0   4  -1    2.20    3.20
   0  -4   1    2.00    2.80
   0  -4   1    3.80    3.20
   0  -5   1   29.70    5.40
   0  -5   1   28.80    5.00
   0  -6   1   10.10    5.90
   0  -6   1   10.10    3.60
   0  -6  -2   24.50    3.70
   0  -6  -2   20.30    4.00
   0  -5  -2   46.20    4.80
   0  -5  -2   43.10    5.80
   0  -4  -2    4.00    3.70
   0   4   2    4.80    4.00
   0  -3  -2    2.50    2.00
   0  -3  -2    0.50    2.40
   0   3   2    2.00    3.10
   0  -2  -2  772.72   27.40
   0  -2  -2  740.03   27.40
   0   2   2  722.53   27.70
   0  -1  -2 4959.50  173.38
   0  -1  -2 5052.79  173.48
   0   1   2 4715.63  173.48
   0   0  -2 6077.69  218.88
   0   0  -2 6164.58  218.98
   0   0   2 6239.88  218.68
   0   0   2 6353.06  218.78
   0   1  -2 4802.02  174.48
   0   1  -2 4896.21  174.48
   0   1  -2 5006.90  174.78
   0  -1   2 5093.49  174.48
   0  -1   2 4948.80  174.48
   0   2  -2  770.12   27.40
   0   2  -2  764.42   27.80
   0   2  -2  765.82   27.40
   0  -2   2  733.53   27.10
   0  -2   2  773.62   27.40
   0  -2   2  743.93   27.40
   0   3  -2    4.10    2.80
   0   3  -2   -0.40    3.10
   0   3  -2    3.10    2.70
   0  -3   2    0.90    2.60
   0   4  -2    1.30    3.00
   0   4  -2   -2.90    3.70
   0   4  -2    0.50    3.80
   0  -4   2    1.10    3.10
   0   5  -2   34.00    5.10
   0  -5   2   30.30    5.60
   0  -5   2   50.39    4.10
   0   6  -2   18.20    3.30
   0  -6   2   12.10    3.90
   0  -6  -3    6.00    3.10
   0  -6  -3   10.40    2.70
   0  -5  -3   57.29    4.70
   0  -5  -3   41.40    5.70
   0  -4  -3    7.90    4.30
   0   4   3   15.80    4.40
   0  -3  -3  162.48    8.60
   0  -3  -3  158.28    8.30
   0   3   3  162.78    9.20
   0  -2  -3  420.46   16.40
   0  -2  -3  429.06   16.70
   0  -1  -3   25.40    4.30
   0   1   3   17.50    2.60
   0   0  -3   -1.00    2.00
   0   0  -3   -0.60    2.00
   0   0   3    2.70    1.80
   0   0   3    2.40    1.90
   0   1  -3   21.60    2.70
   0   1  -3   21.40    3.30
   0   1  -3   27.60    4.20
   0   1  -3   23.10    2.60
   0  -1   3   25.10    2.80
   0  -1   3   25.90    3.00
   0   2  -3  452.05   17.10
   0   2  -3  427.36   16.30
   0   2  -3  432.26   16.30
   0   2  -3  441.36   16.50
   0  -2   3  445.06   16.50
   0  -2   3  429.56   16.40
   0   3  -3  162.18    7.80
   0   3  -3  170.28    8.00
   0   3  -3  160.68    7.60
   0   3  -3  164.88    8.90
   0  -3   3  168.48    7.70
   0   4  -3    8.50    4.00
   0   4  -3   13.10    4.70
   0   4  -3   10.80    3.50
   0  -4   3    8.80    3.40
   0   5  -3   42.90    5.90
   0  -5   3   43.90    6.20
   0  -5   3   49.80    4.50
   0   6  -3    6.10    3.40
   0  -6   3    4.60    3.30
   0  -6  -4   22.40    4.10
   0  -5  -4   57.89    5.60
   0  -4  -4   36.00    5.30
   0  -3  -4    4.70    3.10
   0   3   4    5.50    2.70
   0  -2  -4  197.88    9.80
   0   2   4  196.38    8.30
   0  -1  -4  149.49    8.00
   0   1   4  150.38    6.70
   0   0  -4  208.38    9.70
   0   0  -4  229.58    9.30
   0   0   4  214.88    8.70
   0   0   4  221.18    9.00
   0   1  -4  143.69    7.50
   0  -1   4  147.29    6.80
   0  -1   4  148.79    7.00
   0   2  -4  197.38    9.50
   0   2  -4  180.78    8.50
   0   2  -4  201.18    7.90
   0  -2   4  188.48    8.00
   0  -2   4  189.58    8.70
   0   3  -4    6.20    3.60
   0   3  -4    5.60    3.20
   0   3  -4    5.80    4.60
   0   3  -4    8.20    3.90
   0  -3   4    3.70    1.90
   0  -3   4    2.70    3.20
   0   4  -4   39.70    5.40
   0   4  -4   37.30    6.20
   0  -4   4   37.90    4.80
   0  -4   4   32.70    6.60
   0   5  -4   54.49    6.50
   0  -5   4   42.30    5.70
   0  -5   4   55.29    5.10
   0   6  -4   15.80    3.20
   0  -5  -5   -1.10    3.20
   0  -4  -5   97.49    6.40
   0  -4  -5   88.89    7.90
   0  -3  -5   71.59    5.60
   0  -3  -5   87.79    6.20
   0  -3  -5   77.19    7.00
   0  -2  -5   26.70    6.10
   0   2   5   29.10    4.50
   0  -1  -5   49.00    6.30
   0   1   5   47.50    4.70
   0   0  -5   -1.40    3.20
   0   0   5    0.40    2.60
   0   0   5   -5.50    3.00
   0   1  -5   45.40    5.50
   0  -1   5   59.59    5.30
   0   2  -5   29.10    4.70
   0  -2   5   26.70    4.00
   0  -2   5   27.20    3.70
   0  -2   5   29.40    4.30
   0   3  -5   80.19    6.00
   0  -3   5   68.59    5.50
   0  -3   5   79.99    4.60
   0  -3   5   66.49    6.60
   0   4  -5  100.69    8.00
   0  -4   5   82.59    5.90
   0   5  -5    0.80    4.20
   0  -5   5   -1.20    2.90
   0  -5  -6   17.60    3.60
   0  -4  -6    9.20    3.40
   0  -4  -6    6.20    4.30
   0  -3  -6    8.40    4.30
   0  -3  -6    4.50    3.70
   0  -3  -6    4.50    3.10
   0  -2  -6   15.30    4.50
   0  -2  -6   14.90    3.70
   0  -1  -6    2.60    3.70
   0  -1  -6   -2.70    6.50
   0  -1  -6   -1.30    4.10
   0   1   6    1.00    3.50
   0   0   6    4.00    3.60
   0   1  -6    0.20    5.30
   0   1  -6   -0.60    4.20
   0   1  -6   -0.20    4.10
   0  -1   6    3.20    3.90
   0  -1   6    1.00    6.00
   0   2  -6   13.10    5.60
   0   2  -6    8.10    3.40
   0  -2   6   14.80    3.30
   0  -2   6    8.60    3.90
   0   3  -6   -1.90    3.50
   0  -3   6    2.40    4.00
   0   4  -6   10.70    3.30
   0  -4   6    7.20    2.90
   0  -5   6   10.30    2.20
   0  -4  -7   18.30    3.60
   0  -4  -7   10.40    2.90
   0  -3  -7   17.70    3.70
   0  -3  -7   19.80    4.50
   0  -2  -7    3.10    3.70
   0  -2  -7   -0.70    4.40
   0  -1  -7   25.00    5.60
   0  -1  -7   27.10    5.70
   0  -1  -7   29.10    4.70
   0   0  -7   -5.50    4.90
   0   0   7   -0.80    3.20
   0   1  -7   18.80    5.50
   0   1  -7   21.80    3.30
   0  -1   7   25.70    5.30
   0   2  -7    3.10    3.30
   0   2  -7   -2.60    4.60
   0  -2   7   -0.70    4.00
   0   3  -7   14.90    3.30
   0  -3   7   16.80    4.30
   0   4  -7   11.70    2.50
   0  -4   7   11.70    2.50
   0  -2  -8   45.30    6.20
   0  -2  -8   44.20    5.10
   0  -1  -8    6.40    4.30
   0  -1  -8    5.80    3.40
   0   0  -8    0.30    4.60
   0   0   8    1.00    3.10
   0   1  -8    8.40    4.40
   0  -1   8   11.10    3.60
   0   2  -8   31.50    3.70
   0  -2   8   47.00    5.50
   1  -2   8   44.90    4.30
  -1   2  -8   33.60    3.20
   1  -1   8  136.59    6.90
   1   0   8  330.07   12.90
  -1  -1  -8  100.99    6.20
  -1  -2  -8   29.50    5.40
  -1  -2  -8   34.70    4.30
   1  -3   7   56.49    5.30
  -1   3  -7   55.49    4.70
   1  -2   7  133.49    7.80
  -1   2  -7  118.39    6.80
   1  -1   7    5.90    3.90
  -1   1  -7    6.30    2.90
  -1   1  -7    3.20    4.90
   1   0   7    0.60    3.30
  -1   0  -7    2.80    3.30
  -1   0  -7    3.70    4.80
  -1  -1  -7    4.70    3.00
  -1  -1  -7    6.40    3.90
  -1  -2  -7  127.79    6.70
  -1  -2  -7  131.09    8.80
  -1  -2  -7  122.29    7.70
  -1  -3  -7   65.59    7.10
  -1  -3  -7   62.59    4.90
  -1  -3  -7   63.09    5.50
   1  -4   6   56.09    4.90
  -1   4  -6   62.89    4.80
   1  -3   6   -1.10    4.40
  -1   3  -6   -2.30    3.20
   1  -2   6   27.70    4.40
   1  -2   6   22.50    4.50
  -1   2  -6   26.80    3.90
   1  -1   6  197.88    9.50
  -1   1  -6  207.48   11.20
  -1   1  -6  206.68    9.20
   1   0   6   25.10    4.90
  -1   0  -6   28.10    4.00
  -1   0  -6   37.40    6.70
  -1   0  -6   15.80    4.10
  -1  -1  -6  198.78    8.90
  -1  -1  -6  177.68    9.80
  -1  -1  -6  204.98    9.90
  -1  -2  -6   25.30    4.70
  -1  -2  -6   28.10    4.60
  -1  -2  -6   19.60    4.10
  -1  -3  -6   -1.80    3.20
  -1  -3  -6   -0.70    3.70
  -1  -3  -6   10.20    4.80
  -1  -4  -6   79.29    7.90
  -1  -4  -6   87.59    5.90
   1  -5   5   18.00    3.00
  -1   5  -5   17.00    3.80
   1  -4   5   83.29    5.90
   1  -3   5   34.60    6.80
   1  -3   5   30.90    4.70
  -1   3  -5   41.30    5.00
   1  -2   5    3.60    3.00
   1  -2   5   -3.50    3.60
  -1   2  -5   -2.50    3.90
   1  -1   5  100.49    6.80
   1  -1   5  107.99    6.40
   1   0   5    1.40    3.20
   1   0   5   -0.60    2.90
   1   1   5  107.89    6.40
  -1  -1  -5  112.19    8.10
   1   2   5    3.70    3.30
  -1  -2  -5    0.40    4.00
  -1  -3  -5   40.10    5.90
  -1  -3  -5   43.40    7.00
  -1  -3  -5   39.90    5.00
  -1  -4  -5  109.29    6.70
  -1  -4  -5  103.49    8.70
  -1  -5  -5   22.90    3.40
   1  -5   4    4.20    3.70
   1  -5   4   11.80    3.20
  -1   5  -4   15.50    4.60
   1  -4   4   96.79    7.20
   1  -4   4   91.59    6.20
  -1   4  -4   96.59    7.80
  -1   4  -4   92.19    6.70
   1  -3   4   11.70    3.80
  -1   3  -4   15.50    5.20
  -1   3  -4   16.10    3.50
   1  -2   4    1.50    2.40
   1  -2   4   -3.70    3.40
   1  -2   4   -1.50    3.10
  -1   2  -4    2.50    3.90
  -1   2  -4    4.90    3.30
  -1   2  -4   -0.90    2.40
   1  -1   4   27.80    3.50
   1  -1   4   34.40    4.30
   1  -1   4   32.20    4.40
  -1   1  -4   29.50    4.60
   1   0   4  176.48    7.50
   1   0   4  173.88    7.70
  -1   0  -4  161.58    8.40
   1   1   4   34.30    3.30
   1   1   4   28.70    4.00
  -1  -1  -4   31.80    5.60
   1   2   4    2.30    2.70
  -1  -2  -4    0.70    3.20
   1   3   4   21.00    3.40
  -1  -3  -4   12.80    3.70
  -1  -4  -4  106.59    6.60
  -1  -4  -4   99.79    8.60
  -1  -5  -4   20.00    3.80
   1  -6   3  167.48    8.00
   1  -5   3  130.49    6.70
   1  -5   3  133.99    8.10
  -1   5  -3  134.69    8.00
   1  -4   3   92.89    7.40
   1  -4   3  113.19    5.90
   1  -4   3   91.29    7.00
  -1   4  -3   92.39    7.50
  -1   4  -3   86.99    8.60
  -1   4  -3   94.29    7.30
  -1   4  -3   93.49    6.70
   1  -3   3   95.89    6.00
  -1   3  -3   88.19    7.60
  -1   3  -3   89.59    6.00
  -1   3  -3   91.69    5.80
  -1   3  -3   96.39    6.10
   1  -2   3  133.99    5.90
   1  -2   3  139.29    6.80
   1  -2   3  139.69    6.70
  -1   2  -3  133.19    6.70
  -1   2  -3  134.49    7.70
  -1   2  -3  136.09    6.40
   1  -1   3  113.59    5.40
   1  -1   3   97.79    4.90
   1  -1   3  106.39    5.50
  -1   1  -3  114.39    6.00
  -1   1  -3   97.19    6.60
  -1   1  -3  103.79    5.40
  -1   1  -3  105.59    4.80
   1   0   3    1.00    2.20
   1   0   3    0.90    2.20
  -1   0  -3    1.20    2.10
  -1   0  -3   -2.30    3.90
  -1   0  -3    2.20    2.20
   1   1   3  104.69    4.80
   1   1   3  112.09    5.20
  -1  -1  -3   98.19    7.30
  -1  -1  -3  112.99    6.50
   1   2   3  139.59    8.00
  -1  -2  -3  137.89    7.60
   1   3   3   96.69    7.40
  -1  -3  -3   76.59    6.40
   1   4   3  100.89    8.70
  -1  -4  -3  104.89    6.50
  -1  -5  -3  151.88    8.30
  -1  -5  -3  147.19    7.30
  -1  -6  -3  213.18    9.30
  -1  -6  -3  207.88    8.60
   1  -6   2  356.96   14.30
  -1   6  -2  349.07   14.10
   1  -5   2   11.00    3.80
   1  -5   2    8.90    2.80
  -1   5  -2   10.40    3.40
   1  -4   2    4.00    3.40
  -1   4  -2    8.30    3.80
  -1   4  -2   -0.70    4.30
  -1   4  -2    2.20    3.20
   1  -3   2   91.49    5.30
  -1   3  -2   91.69    5.80
  -1   3  -2   81.19    6.50
  -1   3  -2   88.69    5.30
   1  -2   2  223.18    8.70
   1  -2   2  216.78    8.70
   1  -2   2  179.68    8.90
   1  -2   2  212.28    8.00
  -1   2  -2  220.28    8.70
  -1   2  -2  209.48    8.70
  -1   2  -2  227.68    8.80
  -1   2  -2  229.48    9.50
   1  -1   2  246.88    9.00
   1  -1   2  214.18    9.60
   1  -1   2  228.38    9.10
   1  -1   2  232.78    8.80
  -1   1  -2  225.78    8.70
  -1   1  -2  229.58    9.70
  -1   1  -2  228.48    9.20
  -1   1  -2  238.68    8.90
   1   0   2  640.44   22.00
   1   0   2  624.34   22.10
   1   0   2  599.24   22.60
  -1   0  -2  621.44   22.70
  -1   0  -2  608.04   22.40
  -1   0  -2  600.64   22.10
  -1   0  -2  591.04   22.00
   1   1   2  256.07    9.20
   1   1   2  235.18   10.40
  -1  -1  -2  257.57   10.30
  -1  -1  -2  242.58   10.40
   1   2   2  223.48   10.40
  -1  -2  -2  226.58    9.70
  -1  -2  -2  228.18    9.80
   1   3   2   83.39    7.00
  -1  -3  -2   83.09    5.60
  -1  -3  -2   87.49    6.10
   1   4   2    5.00    3.90
  -1  -4  -2   -1.70    3.90
  -1  -5  -2   11.40    3.70
  -1  -5  -2   14.20    3.70
  -1  -6  -2  418.06   16.20
  -1  -6  -2  401.66   15.70
   1  -6   1    5.00    3.70
   1  -5   1  233.18   11.00
   1  -4   1   21.90    3.60
   1  -4   1    9.90    3.30
  -1   4  -1   14.70    3.00
  -1   4  -1   11.90    3.80
  -1   4  -1   14.00    3.80
   1  -3   1   82.19    5.50
   1  -3   1   80.99    4.70
  -1   3  -1   77.19    5.70
  -1   3  -1   81.59    5.10
  -1   3  -1   73.79    4.70
   1  -2   1   59.69    3.50
   1  -2   1   59.89    4.20
  -1   2  -1   68.69    3.90
  -1   2  -1   60.59    3.90
  -1   2  -1   61.09    4.80
   1  -1   1  833.82   29.20
   1  -1   1  792.82   28.60
   1  -1   1  861.71   29.00
   1  -1   1  765.52   28.60
  -1   1  -1  801.82   28.80
  -1   1  -1  810.72   28.60
  -1   1  -1  750.22   28.60
   1   0   1   -1.50    1.50
  -1   0  -1   -2.00    1.50
   1   1   1  824.22   29.20
   1   1   1  838.32   29.90
  -1  -1  -1  851.71   29.80
  -1  -1  -1  828.72   29.70
  -1  -1  -1  769.12   29.60
   1   2   1   62.09    5.60
   1   2   1   58.19    2.90
  -1  -2  -1   62.79    4.10
  -1  -2  -1   65.59    4.40
   1   3   1   78.39    6.70
  -1  -3  -1   71.69    4.90
  -1  -3  -1   78.69    5.50
   1   4   1   15.00    4.50
  -1  -4  -1   13.90    4.10
  -1  -5  -1  264.87   11.30
  -1  -5  -1  275.97   12.00
  -1  -6  -1    5.60    3.60
  -1  -6  -1    7.30    3.20
   1  -6   0  110.59    7.10
   1  -6   0   97.49    6.70
   1  -5   0   12.20    3.80
   1  -5   0    8.40    3.70
   1  -4   0   53.09    6.10
  -1   4   0   49.70    5.40
   1  -3   0  589.04   22.00
   1  -3   0  569.94   20.90
  -1   3   0  578.54   21.10
  -1   3   0  572.44   20.80
  -1   3   0  551.64   21.40
   1  -2   0 1125.79   39.50
   1  -2   0 1034.50   38.80
  -1   2   0 1112.69   39.00
  -1   2   0 1122.29   39.20
  -1   2   0 1067.49   38.80
   1  -1   0  354.56   12.70
   1  -1   0  318.47   12.70
  -1   1   0  326.17   11.90
  -1   1   0  318.97   12.30
   1   0   0 3184.88  112.79
   1   0   0 3202.98  112.79
  -1   0   0 3119.79  112.69
  -1   0   0 3163.58  112.79
   1   1   0  334.77   13.20
   1   1   0  334.87   12.10
   1   2   0 1144.49   40.90
   1   2   0 1139.89   41.00
  -1  -2   0 1134.19   41.40
  -1  -2   0 1168.38   41.00
  -1  -2   0 1169.98   41.40
   1   3   0  565.24   20.50
   1   3   0  563.84   20.90
  -1  -3   0  567.24   21.50
   1   4   0   54.39    8.40
   1   4   0   49.60    4.90
   1   4   0   44.70    5.00
  -1  -4   0   46.70    6.00
  -1  -5   0    9.70    3.60
  -1  -5   0    5.50    3.20
  -1  -6   0   99.69    6.80
  -1  -6   0   99.19    6.10
   1  -6  -1   16.70    3.80
   1  -6  -1   20.40    3.80
   1  -5  -1    7.50    3.60
   1  -5  -1    2.70    3.40
   1  -4  -1  207.68   10.80
  -1   4   1  223.88    9.60
   1  -3  -1  426.66   16.20
  -1   3   1  383.36   15.40
  -1   3   1  413.06   15.40
   1  -2  -1    8.80    2.30
   1  -2  -1    5.20    1.40
  -1   2   1    2.40    1.70
   1  -1  -1 2423.56   85.89
  -1   0   1   -2.70    1.00
   1   1  -1 2288.57   78.19
   1   1  -1 2245.78   78.19
  -1  -1   1 2140.29   78.19
  -1  -1   1 2184.78   78.19
   1   2  -1    7.10    2.20
   1   2  -1    9.20    2.00
   1   2  -1    6.20    2.40
  -1  -2   1    7.30    1.80
  -1  -2   1    9.60    1.80
  -1  -2   1    5.60    1.60
   1   3  -1  404.46   15.60
   1   3  -1  408.66   15.20
  -1  -3   1  394.66   15.90
  -1  -3   1  425.26   15.40
   1   4  -1  205.68    9.60
   1   4  -1  218.98   12.40
   1   4  -1  213.58    8.70
  -1  -4   1  201.18   11.50
   1   5  -1    4.00    3.40
  -1  -5   1    3.60    3.60
  -1  -5   1    2.20    3.10
  -1  -6   1   21.10    4.10
  -1  -6   1   17.80    3.80
   1  -6  -2   16.50    3.80
   1  -6  -2   15.40    3.40
   1  -5  -2    4.20    3.40
   1  -5  -2    0.40    3.50
   1  -4  -2   56.19    6.50
   1  -3  -2  599.44   23.50
  -1   3   2  635.24   22.60
   1  -2  -2   94.39    5.10
   1  -2  -2   96.29    5.30
   1  -1  -2 9321.57  332.37
   1  -1  -2 9530.55  332.27
   1   0  -2 9465.05  334.67
   1   0  -2 9202.98  334.57
   1   0  -2 9812.42  334.87
  -1   0   2 9522.35  334.47
   1   1  -2 9955.80  348.67
   1   1  -2 9764.62  348.47
   1   1  -2 9993.30  348.57
  -1  -1   2 9999.00  348.47
  -1  -1   2 9753.02  348.47
   1   2  -2   98.09    4.80
   1   2  -2   94.19    5.60
   1   2  -2   91.39    5.10
  -1  -2   2   90.69    4.70
  -1  -2   2   92.29    4.20
  -1  -2   2   88.59    4.70
   1   3  -2  582.94   22.80
   1   3  -2  601.14   22.30
   1   3  -2  630.14   22.70
  -1  -3   2  622.34   22.40
   1   4  -2   44.50    4.60
   1   4  -2   41.90    5.60
  -1  -4   2   46.80    4.90
   1   5  -2    0.90    3.30
  -1  -5   2    3.80    2.70
  -1  -5   2    1.50    3.20
   1   6  -2   13.60    3.30
  -1  -6   2    7.20    3.60
   1  -6  -3    1.20    2.80
   1  -6  -3    4.80    3.40
   1  -5  -3   -0.20    3.40
   1  -5  -3   -0.80    3.30
   1  -4  -3  237.88   12.00
   1  -3  -3    0.90    2.30
   1  -3  -3    3.00    2.70
  -1   3   3   -0.40    3.80
   1  -2  -3 2313.47   83.69
   1  -2  -3 2376.06   83.89
   1  -1  -3 2426.86   82.89
  -1   1   3 2225.18   82.29
   1   0  -3   -1.60    2.10
   1   0  -3   -0.30    2.30
   1   0  -3   -1.90    1.50
  -1   0   3   -2.80    1.50
   1   1  -3 2549.65   88.29
   1   1  -3 2407.26   87.99
   1   1  -3 2452.15   88.19
   1   1  -3 2525.95   88.49
  -1  -1   3 2456.45   88.19
  -1  -1   3 2561.04   88.19
   1   2  -3 2304.97   83.49
   1   2  -3 2388.66   83.69
   1   2  -3 2314.07   83.99
   1   2  -3 2423.66   83.69
  -1  -2   3 2362.96   83.59
  -1  -2   3 2360.16   83.39
  -1  -2   3 2343.17   83.59
   1   3  -3    2.20    2.90
   1   3  -3    4.60    3.30
   1   3  -3    3.40    2.70
   1   3  -3    3.90    3.50
  -1  -3   3    4.10    2.80
   1   4  -3  226.08   10.60
   1   4  -3  217.98    9.90
  -1  -4   3  221.68    9.80
   1   5  -3   -2.80    3.40
  -1  -5   3   -3.00    2.90
   1   6  -3   -3.80    3.20
   1  -6  -4   12.20    2.60
   1  -6  -4   13.70    3.10
   1  -5  -4   -3.10    2.90
   1  -5  -4   -4.20    3.30
   1  -4  -4   72.29    5.80
   1  -3  -4   -0.80    2.70
   1  -2  -4  889.31   32.70
  -1   2   4  864.31   31.60
   1  -1  -4 3746.93  129.39
  -1   1   4 3528.95  128.59
   1   0  -4  104.09    5.70
   1   0  -4  100.49    6.60
  -1   0   4   95.19    5.00
   1   1  -4 3920.01  135.69
   1   1  -4 3741.73  135.29
  -1  -1   4 3851.31  135.39
  -1  -1   4 3793.12  135.29
   1   2  -4  849.22   32.60
   1   2  -4  875.71   32.50
   1   2  -4  926.21   33.20
   1   2  -4  918.91   32.20
  -1  -2   4  898.51   32.60
  -1  -2   4  916.61   32.60
  -1  -2   4  891.21   32.30
   1   3  -4   -1.20    3.00
   1   3  -4   -0.60    3.20
   1   3  -4   -0.50    4.10
   1   3  -4    2.40    3.20
  -1  -3   4    0.30    2.00
  -1  -3   4    0.90    3.10
   1   4  -4   71.19    6.10
   1   4  -4   70.29    6.80
  -1  -4   4   79.79    5.70
   1   5  -4    3.60    4.10
  -1  -5   4    2.80    3.10
   1   6  -4   15.20    3.30
  -1  -6   4   15.30    2.20
   1  -5  -5   17.80    3.40
   1  -4  -5   -8.30    4.90
   1  -4  -5    2.80    4.60
   1  -3  -5   30.40    5.50
   1  -3  -5   29.80    4.40
   1  -3  -5   31.70    6.40
   1  -2  -5  820.62   31.50
   1  -1  -5   19.80    3.80
  -1   1   5   22.40    3.60
   1   0  -5   -1.30    3.60
   1   0  -5   -2.60    3.00
  -1   0   5    1.80    2.50
  -1   0   5    1.20    2.70
   1   1  -5   26.90    5.20
  -1  -1   5   29.70    3.70
  -1  -1   5   24.30    3.50
   1   2  -5  796.52   30.20
  -1  -2   5  811.02   29.20
  -1  -2   5  817.82   29.60
  -1  -2   5  777.92   29.40
   1   3  -5   40.30    7.10
   1   3  -5   29.50    5.20
  -1  -3   5   24.80    4.20
  -1  -3   5   34.30    5.90
  -1  -3   5   33.30    3.90
   1   4  -5    1.40    4.30
  -1  -4   5   -0.60    3.20
   1   5  -5   26.10    4.70
  -1  -5   5   11.30    3.00
   1  -4  -6   72.69    6.90
   1  -3  -6   75.49    7.10
   1  -3  -6   79.49    6.30
   1  -2  -6   24.00    4.30
   1  -2  -6   34.70    6.30
   1  -2  -6   24.10    5.30
   1  -1  -6   74.49    8.50
   1   0  -6  419.76   21.50
   1   0  -6  473.05   19.50
  -1   0   6  532.75   18.60
  -1   0   6  502.95   18.10
   1   1  -6   60.79    6.20
  -1  -1   6   72.79    5.80
   1   2  -6   11.80    5.60
   1   2  -6   21.10    3.80
  -1  -2   6   22.90    4.80
  -1  -2   6   13.40    4.00
   1   3  -6   66.79    6.20
  -1  -3   6   76.99    4.80
  -1  -3   6   66.49    6.50
   1   4  -6   69.39    5.60
  -1  -4   6   55.59    4.80
  -1  -5   6    5.10    2.30
   1  -4  -7   -1.00    2.40
   1  -4  -7    4.00    3.70
   1  -3  -7   57.99    6.80
   1  -3  -7   63.79    5.90
   1  -2  -7   20.70    5.30
   1  -2  -7   17.90    3.90
   1  -2  -7   20.40    4.70
   1  -1  -7   83.09    8.30
   1  -1  -7   76.89    7.50
   1  -1  -7   76.89    6.40
   1   0  -7   -1.80    5.10
  -1   0   7   -0.80    3.00
   1   1  -7   63.29    8.00
   1   1  -7   70.89    5.30
  -1  -1   7   71.09    5.90
   1   2  -7   11.30    5.10
   1   2  -7   20.30    3.70
  -1  -2   7   19.60    4.30
   1   3  -7   47.00    5.30
  -1  -3   7   56.59    6.30
   1   4  -7   -0.40    2.60
  -1  -4   7   -0.20    2.30
   1  -3  -8   10.50    2.70
   1  -3  -8   28.20    5.20
   1  -2  -8   28.20    5.60
   1  -2  -8   28.80    6.10
   1  -2  -8   18.40    3.60
   1  -1  -8    1.60    3.40
   1  -1  -8   -0.90    4.00
   1  -1  -8    4.10    5.00
   1   0  -8   22.50    5.40
  -1   0   8   13.30    3.40
   1   1  -8   -4.80    4.30
  -1  -1   8   -0.50    3.40
   1   2  -8   24.10    3.90
  -1  -2   8   26.70    5.50
   1   3  -8    9.00    2.40
  -1  -3   8   14.10    3.10
   1   0  -9   -0.10    3.30
   2   0   8  154.78    6.50
  -2   0  -8  141.39    6.40
  -2   3  -7    3.10    2.20
   2  -2   7  130.69    7.10
  -2   2  -7  123.19    6.40
   2  -1   7  146.99    7.50
  -2   1  -7  130.69    6.90
  -2   1  -7  131.99    6.60
   2   0   7   -1.10    3.20
  -2   0  -7   -0.10    2.90
   2   1   7  123.29    7.00
  -2  -1  -7  132.39    6.60
  -2  -1  -7  120.89    7.70
  -2  -2  -7  128.19    8.30
  -2  -2  -7  126.99    6.50
  -2  -2  -7  123.79    7.30
  -2  -3  -7    9.00    2.60
  -2  -3  -7    6.10    2.60
  -2  -3  -7    0.70    3.80
   2  -4   6   22.50    3.60
  -2   4  -6   25.90    3.50
   2  -3   6   -1.30    2.70
  -2   3  -6    2.40    3.00
   2  -2   6  105.79    7.40
  -2   2  -6   98.79    6.30
   2  -1   6  559.64   21.60
   2  -1   6  565.74   21.30
  -2   1  -6  572.44   21.30
  -2   1  -6  564.34   22.60
   2   0   6   11.20    3.40
  -2   0  -6    6.60    4.20
  -2   0  -6   16.40    3.00
  -2   0  -6   19.60    4.90
  -2   0  -6   18.30    3.40
   2   1   6  496.35   19.80
  -2  -1  -6  530.65   19.60
  -2  -1  -6  520.35   20.20
  -2  -2  -6  113.39    6.70
  -2  -2  -6  105.69    8.70
  -2  -2  -6  119.39    7.70
  -2  -3  -6    7.90    4.00
  -2  -3  -6   -3.20    3.10
  -2  -3  -6   10.40    5.00
  -2  -4  -6   39.20    6.50
  -2  -4  -6   38.30    4.60
   2  -5   5    4.10    2.10
  -2   5  -5    4.60    2.80
   2  -4   5    4.50    3.20
  -2   4  -5    8.30    3.90
   2  -3   5    1.80    3.20
  -2   3  -5    8.40    3.40
   2  -2   5  416.96   17.90
   2  -2   5  475.95   17.20
  -2   2  -5  462.45   17.70
   2  -1   5    5.10    4.00
   2  -1   5    3.40    3.00
   2   0   5   -1.00    3.40
   2   1   5    4.10    3.30
  -2  -1  -5    4.10    4.80
  -2  -2  -5  443.16   18.50
  -2  -2  -5  454.35   17.50
  -2  -2  -5  470.25   18.30
  -2  -3  -5    4.80    3.00
  -2  -3  -5    1.30    3.70
  -2  -3  -5    8.30    5.10
  -2  -4  -5   10.10    4.90
  -2  -4  -5   10.10    3.50
  -2  -5  -5    7.90    3.10
  -2  -5  -5    5.90    2.70
   2  -5   4    9.40    3.00
  -2   5  -4    8.70    4.00
   2  -4   4  102.69    6.40
   2  -3   4  177.48    8.30
  -2   3  -4  171.98    8.40
   2  -2   4   57.69    5.90
   2  -2   4   59.09    4.50
   2  -2   4   59.49    5.70
  -2   2  -4   57.79    6.30
  -2   2  -4   57.99    4.50
  -2   2  -4   48.40    5.80
   2  -1   4  307.97   12.60
   2  -1   4  313.17   12.60
   2  -1   4  305.37   12.20
   2   0   4 1033.30   37.20
   2   0   4 1016.10   37.00
  -2   0  -4 1024.30   38.40
   2   1   4  307.77   12.30
   2   1   4  294.27   11.80
  -2  -1  -4  303.67   13.70
   2   2   4   59.99    5.00
  -2  -2  -4   56.99    6.80
  -2  -3  -4  173.68    8.30
  -2  -3  -4  173.68   10.20
  -2  -3  -4  177.98    9.70
  -2  -4  -4  128.59    7.20
  -2  -4  -4  117.99    9.20
  -2  -5  -4    7.10    3.30
  -2   6  -3   31.70    4.70
   2  -5   3    3.00    4.00
   2  -5   3   -2.20    3.00
   2  -4   3   40.80    6.60
   2  -4   3   44.50    4.90
  -2   4  -3   42.80    6.60
  -2   4  -3   33.90    5.70
   2  -3   3  112.29    6.70
  -2   3  -3  117.29    6.70
  -2   3  -3  110.09    8.50
  -2   3  -3  109.89    6.80
   2  -2   3  113.99    6.50
   2  -2   3  108.99    6.20
   2  -2   3  114.89    5.30
  -2   2  -3  110.89    7.30
  -2   2  -3  111.79    6.00
  -2   2  -3  113.49    6.40
   2  -1   3  362.36   13.80
   2  -1   3  363.66   13.80
   2  -1   3  354.36   13.50
  -2   1  -3  347.77   13.70
  -2   1  -3  349.27   14.10
  -2   1  -3  366.96   14.90
  -2   1  -3  356.26   13.30
   2   0   3    1.60    2.50
   2   0   3   -3.40    2.60
  -2   0  -3    2.10    2.40
  -2   0  -3   -2.50    4.00
   2   1   3  377.46   14.20
   2   1   3  373.86   16.00
   2   1   3  382.86   14.40
  -2  -1  -3  379.16   15.50
  -2  -1  -3  370.06   15.90
   2   2   3  114.09    5.70
   2   2   3  114.19    7.70
   2   2   3  107.99    5.20
  -2  -2  -3  109.59    7.30
   2   3   3  118.79    8.60
  -2  -3  -3  105.29    7.60
  -2  -4  -3   36.40    7.50
  -2  -4  -3   48.60    5.40
  -2  -5  -3    2.90    3.20
  -2  -5  -3   -2.60    3.50
  -2  -6  -3   31.90    4.60
  -2  -6  -3   37.90    3.00
   2  -6   2  106.19    6.80
  -2   6  -2   94.69    6.20
   2  -5   2  117.59    8.40
   2  -5   2  116.79    6.20
  -2   5  -2  117.29    7.40
  -2   4  -2   53.09    6.30
  -2   4  -2   40.50    7.00
   2  -3   2  332.97   12.90
  -2   3  -2  300.47   13.10
  -2   3  -2  339.77   14.20
  -2   3  -2  337.17   13.10
   2  -2   2  252.77    9.60
   2  -2   2  254.47   10.50
   2  -2   2  263.17   11.10
   2  -2   2  261.67   12.00
   2  -2   2  263.07   10.30
  -2   2  -2  273.57   11.30
  -2   2  -2  275.17   10.50
  -2   2  -2  249.88   10.30
  -2   2  -2  244.38   10.30
   2  -1   2  184.98    7.60
   2  -1   2  198.48    8.00
   2  -1   2  183.08    8.30
   2  -1   2  190.48    9.10
   2  -1   2  186.98    7.50
  -2   1  -2  181.68    8.00
  -2   1  -2  198.98    7.90
  -2   1  -2  184.98    7.70
  -2   1  -2  192.98    9.00
   2   0   2  839.42   31.30
   2   0   2  927.81   31.30
   2   0   2  866.51   32.10
  -2   0  -2  877.21   32.00
  -2   0  -2  889.31   31.30
  -2   0  -2  827.72   31.00
  -2   0  -2  880.51   31.70
   2   1   2  195.18    9.70
   2   1   2  203.68    8.10
   2   1   2  206.78    8.10
  -2  -1  -2  209.48    9.50
  -2  -1  -2  203.68    9.30
   2   2   2  274.27   10.30
   2   2   2  278.27   12.40
  -2  -2  -2  271.07   11.70
  -2  -2  -2  252.97   11.50
   2   3   2  333.87   15.00
  -2  -3  -2  328.37   14.10
   2   4   2   54.59    8.30
  -2  -5  -2  129.39    7.80
  -2  -5  -2  128.89    7.00
  -2  -6  -2  106.19    5.30
  -2  -6  -2  101.49    6.50
   2  -6   1   65.09    6.50
   2  -5   1  281.37   12.30
  -2   5  -1  252.67   11.80
   2  -4   1   45.20    6.30
  -2   4  -1   35.60    6.50
  -2   4  -1   42.40    5.90
  -2   4  -1   35.00    4.30
   2  -3   1  493.75   19.10
  -2   3  -1  461.85   18.30
  -2   3  -1  493.95   18.00
  -2   3  -1  483.05   19.00
   2  -2   1  103.49    6.10
   2  -2   1  102.09    7.40
   2  -2   1   99.69    4.90
  -2   2  -1  115.49    6.40
  -2   2  -1  105.69    5.40
  -2   2  -1  103.69    5.30
   2  -1   1    4.00    1.40
   2  -1   1    1.10    2.20
   2  -1   1    4.40    2.60
   2  -1   1    3.10    2.00
  -2   1  -1    3.50    2.20
  -2   1  -1    7.90    3.00
  -2   1  -1    3.20    2.20
   2   0   1    1.80    2.10
   2   0   1    0.80    1.30
   2   0   1   -0.20    2.60
  -2   0  -1   -0.30    2.80
  -2   0  -1   -1.30    2.20
  -2   0  -1   -0.30    1.80
   2   1   1    2.20    1.80
   2   1   1    1.10    2.50
  -2  -1  -1    7.20    2.60
  -2  -1  -1    6.10    1.70
  -2  -1  -1    3.20    2.40
   2   2   1  100.59    7.10
   2   2   1  104.59    4.60
  -2  -2  -1  100.79    6.00
   2   3   1  472.55   19.30
   2   3   1  472.15   17.30
  -2  -3  -1  480.05   18.70
   2   4   1   59.49    8.00
  -2  -5  -1  312.97   13.30
  -2  -5  -1  305.37   12.60
  -2  -6  -1   60.59    4.60
  -2  -6  -1   54.49    5.80
   2  -6   0  183.98    9.30
   2  -6   0  185.28    9.10
   2  -5   0  358.46   14.60
   2  -5   0  345.87   14.90
   2  -4   0  120.69    8.00
  -2   4   0  108.49    7.60
  -2   4   0  121.39    7.40
   2  -3   0   36.60    4.90
  -2   3   0   35.40    3.40
  -2   3   0   46.60    4.40
  -2   3   0   34.30    4.80
   2  -2   0  439.56   17.00
   2  -2   0  436.96   17.70
  -2   2   0  453.55   16.70
  -2   2   0  428.96   16.10
   2  -1   0    2.10    2.00
   2  -1   0    5.30    2.40
   2  -1   0    1.50    1.90
  -2   1   0    3.90    2.20
  -2   1   0    3.80    1.90
   2   0   0 2639.94   92.49
   2   0   0 2556.24   91.99
  -2   0   0 2599.34   92.29
  -2   0   0 2624.84   91.89
   2   1   0    3.50    1.70
   2   1   0   -0.90    2.40
   2   1   0    2.00    2.00
  -2  -1   0    4.80    1.70
  -2  -1   0    4.90    2.40
   2   2   0  449.46   17.60
   2   2   0  441.76   16.20
   2   2   0  429.06   16.40
  -2  -2   0  460.05   17.10
   2   3   0   37.20    3.10
   2   3   0   51.39    4.70
   2   3   0   42.60    6.20
  -2  -3   0   39.50    4.40
  -2  -3   0   38.20    4.90
   2   4   0  121.29    9.70
   2   4   0  102.59    5.10
  -2  -5   0  336.87   14.00
  -2  -5   0  340.47   13.60
  -2  -6   0  186.38    8.30
  -2  -6   0  183.38    9.00
   2  -6  -1   15.10    4.00
   2  -6  -1   13.50    4.20
   2  -5  -1  353.76   14.60
   2  -5  -1  356.36   15.00
   2  -4  -1  182.98    9.80
  -2   4   1  165.28    9.00
  -2   4   1  179.48    8.60
   2  -3  -1   30.40    4.80
  -2   3   1   35.40    3.80
  -2   3   1   28.10    4.10
   2  -2  -1  328.47   12.20
  -2   2   1  303.07   11.70
  -2   2   1  264.07   11.60
   2  -1  -1  593.14   21.60
   2  -1  -1  568.94   21.80
  -2   1   1  589.94   20.90
  -2   1   1  580.14   21.50
   2   0  -1    1.80    1.90
   2   0  -1   -1.20    1.50
  -2   0   1   -4.20    2.50
  -2   0   1   -1.00    1.50
   2   1  -1  573.54   20.10
   2   1  -1  524.75   20.60
   2   1  -1  590.44   20.00
  -2  -1   1  527.25   20.30
  -2  -1   1  560.54   20.00
   2   2  -1  308.47   11.80
   2   2  -1  301.27   12.90
   2   2  -1  322.67   11.60
  -2  -2   1  303.37   11.50
  -2  -2   1  300.07   11.50
   2   3  -1   30.50    3.40
   2   3  -1   38.30    6.50
   2   3  -1   27.90    3.20
  -2  -3   1   30.20    3.80
  -2  -3   1   17.60    4.10
   2   4  -1  183.18   11.70
   2   4  -1  175.98    7.90
   2   4  -1  187.38    8.70
   2   5  -1  319.17   13.50
  -2  -5   1  342.17   13.50
   2   6  -1   15.80    3.20
  -2  -6   1   18.30    3.90
   2  -6  -2    5.30    3.70
   2  -6  -2    0.80    3.20
   2  -5  -2   34.70    5.10
   2  -5  -2   29.90    5.80
   2  -4  -2  482.75   20.00
  -2   4   2  483.55   18.60
   2  -3  -2   68.39    5.70
  -2   3   2   70.39    5.00
   2  -2  -2    2.20    2.30
   2  -2  -2    0.50    1.70
   2  -1  -2    0.50    1.70
   2  -1  -2    1.60    1.80
  -2   1   2   -2.90    2.70
   2   0  -2 1132.29   42.50
   2   0  -2 1217.58   42.60
   2   0  -2 1247.98   42.80
  -2   0   2 1181.38   43.10
  -2   0   2 1213.78   42.50
   2   1  -2   -0.60    2.00
   2   1  -2    2.60    2.40
   2   1  -2    2.50    2.00
  -2  -1   2    0.30    1.90
  -2  -1   2    0.80    1.40
  -2  -1   2   -2.30    2.20
   2   2  -2   -1.30    2.60
   2   2  -2    1.30    2.50
   2   2  -2    0.00    2.20
   2   2  -2   -0.30    2.30
  -2  -2   2    1.20    1.50
  -2  -2   2    1.50    2.10
  -2  -2   2   -0.40    2.00
   2   3  -2   68.59    5.30
   2   3  -2   64.19    4.50
  -2  -3   2   65.09    4.70
   2   4  -2  477.15   18.10
   2   4  -2  472.05   18.60
  -2  -4   2  486.55   18.30
   2   5  -2   34.30    5.30
  -2  -5   2   39.60    4.00
   2   6  -2    4.40    3.00
   2  -6  -3   69.39    4.90
   2  -6  -3   74.59    5.60
   2  -5  -3   58.39    6.10
   2  -5  -3   62.89    5.50
   2  -4  -3   36.70    6.20
   2  -3  -3   80.29    5.80
  -2   3   3   58.99    4.60
   2  -2  -3   33.10    4.50
   2  -2  -3   32.70    3.70
   2  -1  -3   45.80    4.90
   2   0  -3   -0.60    2.80
   2   0  -3    1.30    1.90
   2   0  -3    0.30    2.50
  -2   0   3    0.30    1.30
  -2   0   3   -1.80    1.80
   2   1  -3   40.90    2.70
   2   1  -3   40.80    4.50
   2   1  -3   45.80    3.60
   2   1  -3   42.50    3.80
  -2  -1   3   39.30    3.20
  -2  -1   3   47.30    3.50
   2   2  -3   41.50    4.60
   2   2  -3   39.30    4.30
   2   2  -3   39.80    4.00
  -2  -2   3   38.50    3.70
  -2  -2   3   36.50    3.80
   2   3  -3   88.89    5.90
   2   3  -3   81.59    5.30
   2   3  -3   75.09    5.70
   2   3  -3   77.19    5.30
  -2  -3   3   83.79    5.50
   2   4  -3   37.90    5.30
   2   4  -3   44.80    5.90
  -2  -4   3   43.20    5.10
   2   5  -3   57.29    6.30
  -2  -5   3   64.19    4.80
   2   6  -3   68.89    5.80
   2  -6  -4   11.20    2.50
   2  -5  -4  114.19    6.40
   2  -3  -4   -4.20    3.10
   2  -2  -4 1149.89   42.40
   2  -1  -4  683.13   26.00
   2   0  -4  251.97   11.00
   2   0  -4  222.38    9.20
   2   0  -4  241.28    9.80
  -2   0   4  210.68    9.40
  -2   0   4  231.68    9.00
   2   1  -4  619.24   23.20
   2   1  -4  628.44   22.70
  -2  -1   4  624.84   22.70
  -2  -1   4  610.04   22.70
   2   2  -4 1067.49   39.30
   2   2  -4 1079.39   39.30
   2   2  -4 1105.79   38.80
   2   2  -4 1083.79   39.80
  -2  -2   4 1109.29   39.30
  -2  -2   4 1111.59   39.30
  -2  -2   4 1062.79   39.10
   2   3  -4   -0.30    2.80
   2   3  -4   -0.20    3.30
   2   3  -4   -0.10    3.60
   2   3  -4    3.60    3.40
  -2  -3   4   -0.10    3.20
  -2  -3   4   -6.00    3.40
  -2  -3   4    0.60    2.20
   2   4  -4  180.88    9.60
   2   4  -4  192.08    9.00
  -2  -4   4  193.48    8.70
   2   5  -4  116.59    7.60
  -2  -5   4  110.19    6.40
   2   6  -4   17.40    3.20
  -2  -6   4   14.40    2.10
   2  -3  -5  384.16   18.10
   2  -3  -5  445.66   17.70
   2  -2  -5  832.82   32.20
   2  -1  -5   90.09    7.70
   2   0  -5    1.70    3.10
   2   0  -5   -1.50    3.80
  -2   0   5    2.60    2.40
   2   1  -5   87.39    6.40
  -2  -1   5   79.89    5.20
  -2  -1   5   85.39    5.30
   2   2  -5  747.53   28.20
   2   2  -5  770.62   29.00
  -2  -2   5  786.42   28.10
  -2  -2   5  766.82   28.30
  -2  -2   5  768.82   28.30
   2   3  -5  367.86   15.20
   2   3  -5  370.76   14.90
   2   3  -5  354.16   15.80
  -2  -3   5  376.06   14.10
  -2  -3   5  363.76   14.80
   2   4  -5   57.79    6.70
  -2  -4   5   46.80    5.00
   2   5  -5   32.50    6.40
  -2  -5   5   35.20    4.30
   2  -4  -6   -2.10    3.80
   2  -3  -6  381.56   16.20
   2  -3  -6  405.16   15.80
   2  -3  -6  380.46   15.90
   2  -2  -6  905.11   35.50
   2  -2  -6  954.90   35.60
   2  -2  -6 1037.90   36.40
   2  -1  -6   26.10    5.40
  -2   0   6  493.75   18.40
   2   1  -6   36.00    5.70
   2   2  -6  981.40   34.30
  -2  -2   6  944.61   34.00
  -2  -2   6  865.11   34.20
   2   3  -6  365.46   15.40
  -2  -3   6  369.46   15.50
  -2  -3   6  402.66   14.60
   2   4  -6   -2.40    3.30
  -2  -4   6    4.70    2.90
  -2  -5   6   55.19    3.90
   2  -4  -7   42.40    5.70
   2  -4  -7   36.10    4.50
   2  -3  -7  326.57   13.20
   2  -3  -7  290.77   13.70
   2  -3  -7  319.17   13.40
   2  -2  -7  154.28    8.60
   2  -2  -7  151.98    9.40
   2  -2  -7  163.68    9.80
   2  -1  -7   62.89    7.60
   2  -1  -7   50.99    6.10
   2  -1  -7   50.49    7.00
   2   0  -7    4.70    5.30
   2   0  -7   -4.50    4.10
   2   1  -7   39.50    7.50
   2   1  -7   56.29    4.90
  -2  -1   7   55.39    5.50
   2   2  -7  152.68    7.90
  -2  -2   7  143.69    8.30
   2   3  -7  303.87   12.70
  -2  -3   7  306.87   13.00
   2   4  -7   27.30    4.10
  -2  -4   7   19.60    3.50
   2  -3  -8  212.48    9.70
   2  -3  -8  235.58   10.00
   2  -2  -8    2.30    4.60
   2  -2  -8    5.60    3.30
   2  -2  -8   -1.90    4.00
   2  -1  -8   31.80    6.80
   2  -1  -8   38.40    7.60
   2  -1  -8   28.50    5.40
   2   0  -8  193.98   11.10
   2   1  -8   22.80    5.10
  -2  -1   8   36.00    5.20
   2   2  -8    2.60    2.80
   2   2  -8   -4.90    3.40
  -2  -2   8    1.30    3.70
   2   3  -8  201.68    8.70
  -2  -3   8  213.28    9.00
   2  -1  -9   66.69    5.60
   2  -1  -9   60.69    5.40
   2  -1  -9   43.30    4.70
   2   0  -9    2.10    3.60
   2   1  -9   43.00    4.70
   3  -2   7   -3.50    2.30
  -3   2  -7   -0.90    2.00
  -3   2  -7    2.50    2.40
   3  -1   7    3.00    3.10
  -3   1  -7    6.90    2.20
  -3   1  -7   -1.30    2.60
   3   0   7   -0.40    2.80
  -3   0  -7    0.60    2.60
   3   1   7    1.00    2.40
  -3  -1  -7    3.00    2.90
  -3  -1  -7    0.80    2.70
  -3  -2  -7   -1.40    2.40
  -3  -2  -7   -0.10    2.30
   3  -3   6    2.30    2.50
  -3   3  -6    0.30    2.60
   3  -2   6  102.19    7.20
  -3   2  -6  105.89    6.20
   3  -1   6   26.20    5.50
  -3   1  -6   22.50    3.50
   3   0   6   -1.50    3.30
  -3   0  -6   -0.40    3.30
  -3   0  -6    3.50    2.60
  -3   0  -6    0.20    3.70
   3   1   6   16.00    3.30
  -3  -1  -6   25.60    4.50
  -3  -1  -6   18.90    4.20
  -3  -2  -6  109.69    6.50
  -3  -2  -6  114.99    7.40
  -3  -2  -6  116.49    8.60
  -3  -3  -6    0.50    2.80
  -3  -3  -6    3.80    2.80
  -3  -3  -6    3.80    4.40
   3  -4   5   28.70    4.10
  -3   4  -5   35.80    4.70
   3  -3   5   39.50    4.60
  -3   3  -5   53.29    4.90
   3  -2   5  153.08    6.80
   3  -2   5  137.69    8.10
  -3   2  -5  149.88    7.80
   3  -1   5   54.59    5.90
   3  -1   5   54.79    5.30
  -3   1  -5   49.50    5.30
   3   0   5    3.30    3.30
  -3   0  -5   -1.30    3.90
  -3   0  -5   -0.90    2.90
   3   1   5   52.59    5.00
  -3  -1  -5   51.59    4.90
  -3  -1  -5   50.29    4.00
  -3  -1  -5   51.29    6.90
  -3  -2  -5  143.79    9.50
  -3  -2  -5  139.19    7.20
  -3  -2  -5  144.09    8.60
  -3  -3  -5   57.29    7.00
  -3  -3  -5   61.59    5.40
  -3  -3  -5   67.79    8.50
  -3  -4  -5   42.10    4.70
  -3  -4  -5   47.00    7.20
   3  -5   4   69.29    5.40
   3  -5   4   83.59    4.60
  -3   5  -4   88.59    5.90
   3  -4   4   -1.30    3.20
  -3   4  -4   -2.90    3.70
   3  -3   4  158.28    8.10
  -3   3  -4  157.88    8.70
  -3   3  -4  176.48    7.80
   3  -2   4  554.64   20.50
   3  -1   4   61.49    5.30
   3  -1   4   59.59    6.00
   3  -1   4   60.79    5.80
  -3   1  -4   81.69    7.80
   3   0   4  176.08    8.50
   3   0   4  183.78    8.90
  -3   0  -4  190.08   11.30
   3   1   4   62.79    5.10
   3   1   4   63.29    5.50
  -3  -1  -4   66.99    7.20
  -3  -1  -4   84.89    8.60
   3   2   4  549.35   20.70
  -3  -2  -4  555.64   22.10
  -3  -2  -4  513.35   20.40
  -3  -2  -4  548.95   22.30
  -3  -3  -4  192.28    8.90
  -3  -3  -4  196.38   11.00
  -3  -3  -4  186.38   10.00
  -3  -4  -4    3.10    4.80
  -3  -4  -4    0.30    3.20
  -3  -5  -4  114.09    7.10
   3  -5   3   16.10    3.90
   3  -5   3   18.00    2.90
  -3   5  -3   18.30    4.10
   3  -4   3    7.40    3.50
   3  -4   3    4.50    4.00
  -3   4  -3    3.90    3.90
  -3   4  -3    4.80    3.70
   3  -3   3  457.45   19.80
  -3   3  -3  433.96   17.40
  -3   3  -3  443.06   18.60
   3  -2   3  300.27   11.40
   3  -2   3  258.97   12.60
  -3   2  -3  299.37   12.60
  -3   2  -3  315.87   12.10
  -3   2  -3  312.87   13.20
   3  -1   3   49.40    4.30
   3  -1   3   47.50    4.50
   3  -1   3   53.59    5.00
  -3   1  -3   51.09    7.00
  -3   1  -3   50.29    3.80
  -3   1  -3   47.20    4.80
   3   0   3    1.60    2.80
   3   0   3    3.30    3.10
   3   0   3   -2.80    3.70
  -3   0  -3    0.60    4.70
   3   1   3   41.20    7.30
   3   1   3   49.80    4.40
   3   1   3   44.20    4.40
  -3  -1  -3   51.09    6.20
  -3  -1  -3   49.10    7.10
   3   2   3  290.07   14.80
   3   2   3  282.67   11.80
   3   2   3  306.97   12.10
  -3  -2  -3  321.17   14.10
  -3  -2  -3  311.67   13.80
   3   3   3  425.46   16.30
   3   3   3  409.86   18.90
  -3  -3  -3  427.06   18.10
  -3  -4  -3    6.50    3.40
  -3  -4  -3    3.10    4.70
  -3  -5  -3   24.40    3.80
   3  -6   2   27.40    4.20
  -3   6  -2   29.80    3.90
   3  -5   2   24.30    4.50
   3  -5   2   27.40    4.40
   3  -5   2   22.40    4.50
  -3   5  -2   31.40    4.40
   3  -4   2   94.29    5.90
   3  -4   2   81.99    7.50
  -3   3  -2  647.74   24.80
  -3   3  -2  620.34   23.80
   3  -2   2   43.10    7.00
   3  -2   2   36.20    5.50
  -3   2  -2   40.20    5.70
  -3   2  -2   45.40    4.80
  -3   2  -2   35.90    4.40
   3  -1   2  145.29    7.70
   3  -1   2  138.39    6.90
   3  -1   2  133.59    6.30
   3  -1   2  140.39    8.50
   3  -1   2  144.39    6.10
  -3   1  -2  140.69    8.20
  -3   1  -2  139.39    6.90
  -3   1  -2  153.28    6.90
   3   0   2 1846.32   65.19
   3   0   2 1879.91   66.39
   3   0   2 1847.92   65.29
   3   0   2 1777.52   65.19
  -3   0  -2 1804.92   65.29
  -3   0  -2 1861.81   65.89
  -3   0  -2 1861.51   66.09
  -3   0  -2 1797.02   64.89
   3   1   2  155.88    6.80
   3   1   2  154.38    7.00
   3   1   2  148.39    9.60
  -3  -1  -2  156.58    8.30
  -3  -1  -2  157.18    8.80
   3   2   2   43.60    4.00
   3   2   2   48.50    7.00
  -3  -2  -2   39.30    5.70
  -3  -2  -2   43.80    5.90
   3   3   2  617.54   24.70
  -3  -3  -2  598.64   24.10
  -3  -4  -2   81.19    6.50
  -3  -4  -2   81.29    5.50
  -3  -4  -2   73.59    7.90
  -3  -5  -2   34.40    5.50
  -3  -5  -2   37.80    4.50
  -3  -6  -2   36.30    3.00
  -3  -6  -2   33.60    4.00
   3  -6   1    5.40    3.70
   3  -5   1    1.30    4.30
  -3   5  -1   -1.30    3.70
   3  -4   1   53.79    7.50
   3  -4   1   61.79   11.00
  -3   4  -1   49.80    7.00
  -3   4  -1   64.69    6.40
   3  -3   1    5.00    3.50
  -3   3  -1    8.30    3.10
  -3   3  -1    5.60    4.20
  -3   3  -1    8.10    3.30
   3  -2   1  133.59    7.70
   3  -2   1  132.39    8.80
  -3   2  -1  133.49    6.40
  -3   2  -1  128.19    7.40
  -3   2  -1  117.69    6.20
   3  -1   1 1085.59   39.70
   3  -1   1 1113.69   41.10
   3  -1   1 1096.29   40.80
  -3   1  -1 1160.18   40.10
  -3   1  -1 1128.19   40.30
  -3   1  -1 1124.39   40.60
   3   0   1    0.60    1.60
   3   0   1   -1.20    2.50
   3   0   1    0.50    3.10
  -3   0  -1    1.10    2.30
  -3   0  -1   -0.50    2.50
  -3   0  -1   -0.20    3.30
  -3   0  -1   -1.50    1.90
   3   1   1 1180.48   43.60
   3   1   1 1246.38   42.40
  -3  -1  -1 1120.89   42.90
  -3  -1  -1 1192.98   43.30
   3   2   1  128.19    6.00
   3   2   1  127.49    8.20
  -3  -2  -1  128.49    7.50
  -3  -2  -1  128.89    7.20
   3   3   1    7.40    2.40
   3   3   1    5.10    3.90
  -3  -3  -1    6.60    3.10
   3   4   1   65.09    8.70
  -3  -5  -1    1.90    3.60
  -3  -5  -1   -0.80    3.30
  -3  -6  -1    5.20    2.70
   3  -6   0   15.30    4.10
   3  -5   0   39.60    6.60
   3  -5   0   43.70    6.70
   3  -4   0  126.59    9.10
  -3   4   0  125.69    8.10
  -3   4   0  128.79    8.60
   3  -3   0  133.79    8.00
  -3   3   0  143.39    7.80
  -3   3   0  133.79    6.40
  -3   3   0  133.89    7.20
   3  -2   0 1639.04   60.09
   3  -2   0 1665.73   59.89
  -3   2   0 1666.13   59.29
  -3   2   0 1641.54   58.79
   3  -1   0  201.98    9.60
   3  -1   0  176.38    8.10
   3  -1   0  216.78    9.20
  -3   1   0  194.88    9.10
  -3   1   0  214.28    8.10
  -3   1   0  201.68    8.40
   3   0   0  472.75   17.30
   3   0   0  461.15   17.20
   3   0   0  479.25   18.40
  -3   0   0  461.65   17.20
  -3   0   0  478.75   17.90
  -3   0   0  471.55   17.20
   3   1   0  202.58    8.10
   3   1   0  213.98   10.00
  -3  -1   0  203.38    8.00
  -3  -1   0  200.38    7.90
  -3  -1   0  196.58    8.80
   3   2   0 1635.94   59.49
   3   2   0 1685.63   60.79
  -3  -2   0 1700.83   60.49
   3   3   0  138.09    9.60
   3   3   0  137.59    6.20
  -3  -3   0  133.09    8.00
  -3  -5   0   46.40    5.00
  -3  -6   0   14.50    3.30
   3  -6  -1    5.60    4.50
   3  -6  -1   -0.90    3.90
   3  -5  -1   77.79    7.20
   3  -5  -1   82.79    7.00
   3  -4  -1  201.98   11.10
  -3   4   1  221.78   10.20
  -3   4   1  202.88   10.60
   3  -3  -1   44.40    5.50
  -3   3   1   51.69    5.40
   3  -2  -1  164.78    8.00
   3  -2  -1  152.48    9.20
  -3   2   1  154.38    7.40
  -3   2   1  141.79    7.70
  -3   2   1  151.98    6.40
   3  -1  -1 1203.58   43.80
   3  -1  -1 1168.78   43.90
  -3   1   1 1239.78   43.00
  -3   1   1 1226.58   43.70
   3   0  -1    0.70    2.60
   3   0  -1   -0.40    1.90
   3   0  -1    5.10    2.00
  -3   0   1   -2.50    1.90
  -3   0   1   -2.70    3.30
   3   1  -1 1098.39   41.80
   3   1  -1 1153.48   41.00
   3   1  -1 1259.57   41.00
   3   1  -1 1151.28   41.00
  -3  -1   1 1198.48   41.00
  -3  -1   1 1150.78   41.50
  -3  -1   1 1051.89   41.00
   3   2  -1  138.19    6.40
   3   2  -1  129.69    6.60
   3   2  -1  145.09    6.20
   3   2  -1  142.19    8.50
  -3  -2   1  151.08    6.20
  -3  -2   1  139.49    5.60
   3   3  -1   48.50    4.50
   3   3  -1   51.09    7.40
   3   3  -1   44.60    3.70
  -3  -3   1   35.70    5.50
   3   4  -1  220.68   13.30
   3   5  -1   65.69    5.80
  -3  -5   1   74.19    5.80
   3   6  -1   -1.20    2.80
  -3  -6   1    4.80    3.50
   3  -6  -2    6.70    3.50
   3  -6  -2   10.20    3.70
   3  -5  -2  122.19    7.60
   3  -5  -2  124.89    8.30
   3  -4  -2  288.77   13.80
  -3   4   2  285.87   13.20
  -3   4   2  310.97   12.70
   3  -3  -2  258.47   11.80
  -3   3   2  245.58   11.10
   3  -2  -2  449.26   17.60
  -3   2   2  451.35   17.40
   3  -1  -2 1035.40   37.70
   3  -1  -2  978.50   37.60
  -3   1   2 1073.69   36.80
  -3   1   2 1051.19   37.60
   3   0  -2   10.80    2.80
   3   0  -2   16.50    3.20
   3   0  -2   15.50    2.50
  -3   0   2   16.90    3.40
  -3   0   2   17.70    2.60
   3   1  -2 1010.20   36.80
   3   1  -2 1028.20   37.00
   3   1  -2 1073.19   37.00
   3   1  -2 1003.00   37.00
  -3  -1   2 1037.70   37.40
  -3  -1   2 1052.79   36.90
   3   2  -2  461.15   17.00
   3   2  -2  471.45   17.20
   3   2  -2  465.25   17.00
  -3  -2   2  444.46   16.70
  -3  -2   2  462.15   16.90
  -3  -2   2  439.56   16.80
   3   3  -2  239.48   10.10
   3   3  -2  249.28   10.40
   3   3  -2  243.78    9.90
  -3  -3   2  240.18    9.90
   3   4  -2  287.67   12.20
   3   5  -2  109.79    7.30
  -3  -5   2  128.39    6.00
  -3  -5   2  109.49    6.80
   3   6  -2   10.90    3.20
   3  -6  -3   40.50    4.40
   3  -5  -3   26.50    5.30
   3  -4  -3  466.55   18.60
   3  -4  -3  464.65   18.30
  -3   4   3  471.15   18.60
   3  -3  -3  268.87   12.50
  -3   3   3  295.07   12.20
   3  -2  -3   89.99    6.00
   3  -2  -3   78.39    5.50
  -3   2   3   91.79    6.10
  -3   1   3    3.40    1.70
  -3   1   3    4.20    3.50
   3   0  -3    2.60    2.50
  -3   0   3   -1.00    1.90
  -3   0   3   -1.10    3.40
   3   1  -3    2.70    2.60
   3   1  -3    2.90    1.50
   3   1  -3    3.40    2.30
   3   1  -3    0.00    2.60
  -3  -1   3    2.30    1.90
  -3  -1   3    4.70    2.30
  -3  -1   3    1.90    3.00
   3   2  -3   95.19    4.80
   3   2  -3   85.99    5.10
   3   2  -3   84.89    5.30
   3   2  -3   91.89    5.60
  -3  -2   3   89.99    4.90
  -3  -2   3   89.49    4.90
  -3  -2   3   89.69    5.00
   3   3  -3  294.87   11.70
   3   3  -3  286.77   12.10
   3   3  -3  291.27   11.70
  -3  -3   3  286.07   11.70
   3   4  -3  419.46   16.40
   3   4  -3  399.66   16.60
  -3  -4   3  433.56   16.00
   3   5  -3   23.60    4.20
  -3  -5   3   24.00    4.20
   3   6  -3   39.90    5.10
   3  -6  -4   24.40    3.30
   3  -5  -4    8.60    3.60
   3  -4  -4  349.47   14.30
   3  -4  -4  341.57   14.60
   3  -2  -4  153.38    8.90
  -3   2   4  156.58    8.80
  -3   1   4  406.96   16.70
   3   0  -4   -2.00    2.40
  -3   0   4    5.30    3.90
  -3   0   4    1.90    2.20
   3   1  -4  416.76   15.40
   3   1  -4  391.16   15.70
  -3  -1   4  394.36   16.00
  -3  -1   4  405.96   15.20
   3   2  -4  148.59    7.70
   3   2  -4  161.78    6.40
   3   2  -4  153.58    7.80
  -3  -2   4  141.99    7.00
  -3  -2   4  146.59    6.90
   3   3  -4  198.68    8.50
   3   3  -4  184.28    9.00
   3   3  -4  198.88    9.70
  -3  -3   4  206.08    8.20
  -3  -3   4  194.08    8.90
   3   4  -4  305.97   12.50
   3   4  -4  308.27   13.20
  -3  -4   4  308.97   12.60
   3   5  -4   11.10    4.20
  -3  -5   4   13.20    3.10
   3   6  -4   21.30    4.30
  -3  -6   4   23.80    2.50
   3  -4  -5    0.60    3.60
   3  -3  -5  190.88    9.80
   3  -3  -5  185.78    9.10
   3  -2  -5    3.20    4.20
  -3   2   5   16.20    5.10
  -3   1   5   11.50    5.00
   3   0  -5   -0.40    2.50
  -3   0   5    4.00    2.40
  -3   0   5    2.80    4.70
   3   1  -5   10.50    3.00
   3   1  -5    8.60    3.60
  -3  -1   5   17.20    6.50
  -3  -1   5   14.50    3.20
   3   2  -5    8.50    3.20
   3   2  -5   12.30    4.20
  -3  -2   5   11.50    2.90
  -3  -2   5    9.50    3.20
   3   3  -5  189.18    8.70
  -3  -3   5  179.38    7.70
  -3  -3   5  165.78    9.10
  -3  -3   5  157.98   10.20
   3   4  -5   -0.30    4.40
  -3  -4   5    3.40    3.10
   3   5  -5    0.90    4.10
  -3  -5   5    0.70    2.70
   3  -3  -6  146.09    8.90
   3  -3  -6  155.98    8.70
   3  -3  -6  154.38    7.90
   3  -2  -6    4.80    3.30
   3  -2  -6   13.20    4.70
   3  -2  -6    5.20    3.60
  -3   1   6   51.49    8.40
  -3   0   6   20.30    5.50
  -3   0   6   11.40    3.60
   3   1  -6   33.50    5.50
   3   2  -6    7.00    3.50
  -3  -2   6    5.90    4.00
  -3  -2   6    6.50    3.10
   3   3  -6  149.49    8.10
  -3  -3   6  156.78    7.10
  -3  -3   6  160.38    8.50
   3   4  -6    3.50    3.40
  -3  -4   6   -0.90    2.70
  -3  -5   6  116.09    5.40
   3  -4  -7    3.40    2.50
   3  -3  -7  171.48    9.30
   3  -3  -7  169.28    8.70
   3  -3  -7  162.28    9.10
   3  -2  -7   27.70    6.60
   3  -2  -7   36.40    5.50
   3  -2  -7   39.90    7.00
   3  -1  -7    1.30    4.80
   3  -1  -7    3.80    4.10
   3  -1  -7    0.20    3.30
   3   0  -7   -0.80    4.20
   3   0  -7   -4.40    5.20
   3   1  -7   -1.80    5.30
   3   1  -7   -0.50    3.00
  -3  -1   7   -4.00    3.70
   3   2  -7   25.10    4.10
  -3  -2   7   29.80    5.90
   3   3  -7  157.88    8.30
  -3  -3   7  162.68    8.30
   3   4  -7    3.70    2.80
  -3  -4   7    2.10    2.20
   3  -3  -8  170.08    8.60
   3  -3  -8  194.18    8.60
   3  -3  -8  175.38    8.10
   3  -2  -8   35.20    6.10
   3  -2  -8   31.30    4.90
   3  -2  -8   32.90    6.50
   3  -1  -8   79.39    8.40
   3  -1  -8   55.99    5.80
   3  -1  -8   72.69    6.90
   3   0  -8    9.50    5.20
   3   0  -8    7.70    4.10
   3   1  -8   44.10    6.80
  -3  -1   8   74.09    5.60
   3   2  -8   23.60    3.20
  -3  -2   8   32.10    5.30
   3   3  -8  178.28    8.00
  -3  -3   8  187.38    8.30
   3  -1  -9    9.70    3.30
   3  -1  -9    9.50    3.70
   3  -1  -9    3.50    2.80
   3   0  -9   -0.90    3.50
   3   1  -9    2.30    2.90
  -3  -1   9   12.10    2.60
   4  -2   6   10.40    2.80
  -4   2  -6   11.40    2.50
   4  -1   6   61.39    5.30
  -4   1  -6   63.09    5.10
  -4   1  -6   56.89    4.50
   4   0   6    1.00    3.10
  -4   0  -6   -4.10    2.90
  -4   0  -6    3.40    2.90
  -4   0  -6    2.50    2.30
   4   1   6   53.69    4.80
  -4  -1  -6   55.69    4.50
  -4  -1  -6   41.60    5.00
   4   2   6    9.30    2.80
  -4  -2  -6    7.40    2.90
  -4  -2  -6   18.10    3.00
   4  -4   5    8.70    2.10
   4  -3   5   89.19    5.50
  -4   3  -5  104.79    5.50
   4  -2   5    0.20    3.60
  -4   2  -5    0.00    3.00
   4  -1   5    3.10    3.70
  -4   1  -5   -5.30    3.00
   4   0   5   -0.50    3.40
  -4   0  -5   -0.70    3.70
  -4   0  -5   -2.30    3.20
  -4   0  -5    1.10    2.90
   4   1   5   -0.80    3.00
  -4  -1  -5    1.30    2.40
  -4  -1  -5    0.80    3.80
  -4  -1  -5   -1.50    2.80
   4   2   5    2.80    3.00
  -4  -2  -5   -2.20    3.60
  -4  -2  -5    3.80    3.20
  -4  -2  -5    2.40    4.70
  -4  -3  -5  135.49    7.20
  -4  -3  -5  133.99    6.90
  -4  -3  -5  134.99    8.90
  -4  -4  -5    8.90    3.40
  -4  -4  -5   16.40    2.80
   4  -4   4    5.90    3.00
  -4   4  -4    8.70    3.30
   4  -3   4   85.99    5.80
  -4   3  -4   93.99    6.30
   4  -2   4   13.90    3.70
   4  -2   4    8.60    3.40
  -4   2  -4    8.80    3.40
   4  -1   4   35.80    5.70
   4  -1   4   41.30    4.90
  -4   1  -4   40.50    5.20
   4   0   4   14.40    3.30
   4   0   4   18.20    3.70
  -4   0  -4    7.90    3.90
  -4   0  -4   13.20    3.20
   4   1   4   36.90    4.90
  -4  -1  -4   41.10    6.20
  -4  -1  -4   42.10    4.90
  -4  -1  -4   36.50    4.20
   4   2   4    7.40    2.90
  -4  -2  -4    8.80    3.90
  -4  -2  -4   11.30    3.10
  -4  -2  -4    7.20    4.60
  -4  -3  -4  118.69    7.40
  -4  -3  -4  115.29    9.40
  -4  -3  -4  115.69    6.60
  -4  -4  -4    7.40    3.10
  -4  -4  -4    5.90    4.60
   4  -5   3   -4.00    2.80
   4  -5   3    0.20    2.10
  -4   5  -3    2.50    3.30
   4  -4   3    5.50    3.40
  -4   4  -3    4.30    3.70
   4  -3   3   57.49    5.30
  -4   3  -3   57.89    5.90
  -4   3  -3   58.39    5.80
  -4   2  -3   51.89    5.40
   4  -1   3   11.30    4.00
   4  -1   3   11.30    2.90
  -4   1  -3   22.30    5.50
   4   0   3   -3.20    4.60
   4   0   3    1.10    2.70
   4   0   3    2.60    3.50
  -4   0  -3   -0.90    5.60
   4   1   3    9.20    5.00
   4   1   3    6.30    3.30
   4   1   3   14.20    3.20
  -4  -1  -3   12.90    3.90
  -4  -1  -3   15.40    5.80
   4   2   3   55.59    4.90
   4   2   3   35.10    6.70
  -4  -2  -3   48.00    7.10
  -4  -2  -3   81.39    8.00
  -4  -3  -3   59.19    8.40
  -4  -3  -3   68.39    5.60
  -4  -4  -3    0.80    4.60
  -4  -4  -3    6.90    3.30
  -4  -5  -3    0.90    3.30
  -4  -5  -3   -0.80    2.90
   4  -5   2   28.90    4.90
  -4   5  -2   34.00    5.00
   4  -4   2  260.87   11.80
   4  -4   2  256.77   10.80
  -4   4  -2  259.87   11.70
   4  -3   2  181.08    8.10
   4  -3   2  163.48    9.10
  -4   3  -2  160.98    8.60
  -4   3  -2  172.48   10.00
  -4   3  -2  166.88    8.70
   4  -2   2   44.40    7.00
   4  -2   2   59.79    9.30
  -4   2  -2   57.29    6.30
  -4   2  -2   51.39    5.50
  -4   2  -2   58.19    5.40
   4  -1   2   67.19    4.40
   4  -1   2   64.69    6.60
   4  -1   2   60.79    5.40
   4  -1   2   67.39    8.30
  -4   1  -2   72.69    5.10
  -4   1  -2   62.19    7.30
  -4   1  -2   63.99    5.20
   4   0   2   16.90    4.50
   4   0   2   24.00    3.60
  -4   0  -2   19.60    5.00
   4   1   2   78.09    5.20
   4   1   2   70.09    8.90
  -4  -1  -2   60.49    7.50
  -4  -1  -2   66.39    6.90
   4   2   2   40.10    9.30
   4   2   2   49.80    4.40
   4   2   2   49.99    4.60
  -4  -2  -2   50.39    7.30
  -4  -2  -2   48.20    6.80
   4   3   2  167.88   11.90
   4   3   2  154.98    7.60
  -4  -3  -2  157.48   10.00
  -4  -3  -2  156.58    9.70
  -4  -4  -2  254.07   11.70
  -4  -4  -2  248.68   10.00
  -4  -4  -2  185.98   12.40
  -4  -5  -2   44.20    3.80
   4  -5   1    4.70    4.30
   4  -5   1   -1.60    3.70
  -4   5  -1    2.70    3.40
   4  -4   1  190.18    9.90
   4  -4   1  188.48    8.40
   4  -4   1  198.08   11.00
  -4   4  -1  189.08    9.50
   4  -3   1  560.94   23.70
  -4   3  -1  573.74   21.80
  -4   3  -1  595.94   22.90
   4  -2   1    1.30    3.80
   4  -2   1   -2.40    4.50
  -4   2  -1    3.20    3.30
  -4   2  -1   -1.00    3.70
   4  -1   1   18.30    3.80
   4  -1   1   26.00    2.90
   4  -1   1   29.70    6.90
   4  -1   1   20.00    3.30
  -4   1  -1   25.80    4.50
  -4   1  -1   26.80    4.20
  -4   1  -1   24.70    3.90
   4   0   1    4.70    3.00
   4   0   1   -0.90    2.40
   4   0   1    0.90    3.60
  -4   0  -1   -1.80    2.60
  -4   0  -1   -1.10    3.70
  -4   0  -1   -0.70    2.80
  -4   0  -1   -0.60    2.20
   4   1   1   30.30    7.00
   4   1   1   25.50    3.90
   4   1   1   29.70    4.00
  -4  -1  -1   26.40    5.80
  -4  -1  -1   18.10    3.70
   4   2   1   -2.30    2.80
   4   2   1    2.30    4.30
  -4  -2  -1    2.40    3.20
  -4  -2  -1   -2.20    4.00
   4   3   1  615.34   25.10
   4   3   1  584.14   22.20
  -4  -3  -1  601.74   24.10
   4   4   1  177.98    8.80
  -4  -4  -1  180.38    8.30
  -4  -4  -1  172.28    9.60
  -4  -5  -1   -2.50    3.10
  -4  -6  -1   20.20    2.60
   4  -6   0   49.80    5.00
   4  -5   0  123.49    8.00
   4  -5   0  104.39    7.50
   4  -4   0  433.16   21.70
   4  -4   0  527.95   20.10
   4  -3   0  110.99    8.20
  -4   3   0   95.49    5.80
  -4   3   0   97.19    6.60
  -4   3   0  114.59    7.70
   4  -2   0   71.89    8.00
   4  -2   0   70.69    6.80
  -4   2   0   72.79    6.00
  -4   2   0   62.19    7.20
  -4   2   0   65.39    5.00
   4  -1   0  343.57   14.30
   4  -1   0  331.47   14.70
  -4   1   0  345.57   12.90
  -4   1   0  348.07   14.20
  -4   1   0  317.97   13.20
   4   0   0    6.60    3.60
   4   0   0    4.10    2.20
   4   0   0    3.70    2.70
  -4   0   0   13.50    3.90
  -4   0   0    7.00    2.50
  -4   0   0    3.80    2.30
   4   1   0  342.77   12.80
   4   1   0  348.77   15.00
   4   1   0  307.07   12.70
  -4  -1   0  342.57   14.10
  -4  -1   0  331.07   12.40
  -4  -1   0  328.27   13.70
  -4  -1   0  327.87   12.60
   4   2   0   78.19    8.30
   4   2   0   70.19    4.80
  -4  -2   0   74.69    6.80
   4   3   0  113.99    9.60
   4   3   0  116.59    6.00
  -4  -3   0  108.49    8.30
   4   4   0  470.75   18.80
  -4  -4   0  489.25   18.50
  -4  -4   0  496.55   18.00
   4   5   0  108.89    7.10
  -4  -5   0  118.19    6.40
  -4  -6   0   52.99    4.20
   4  -6  -1   -8.10    4.20
   4  -5  -1   37.50    6.40
   4  -5  -1   34.10    5.70
   4  -4  -1  275.87   12.70
   4  -4  -1  290.67   13.00
   4  -3  -1   27.00    6.00
  -4   3   1   34.40    6.00
   4  -2  -1  167.48    9.10
   4  -2  -1  168.08   10.40
  -4   2   1  172.28    8.30
  -4   2   1  161.98    8.50
  -4   2   1  156.38    7.20
   4  -1  -1  641.54   24.80
   4  -1  -1  663.43   24.60
  -4   1   1  620.94   23.70
  -4   1   1  634.74   23.30
  -4   1   1  643.54   24.40
   4   0  -1   -0.80    2.50
   4   0  -1    2.20    3.30
   4   0  -1    0.70    1.70
  -4   0   1    0.20    2.10
  -4   0   1   -3.70    3.70
  -4   0   1    1.70    2.20
   4   1  -1  593.84   22.20
   4   1  -1  616.24   22.30
   4   1  -1  613.24   23.80
   4   1  -1  601.84   22.20
  -4  -1   1  630.64   22.20
  -4  -1   1  621.44   22.30
  -4  -1   1  594.54   22.90
   4   2  -1  169.68    9.70
   4   2  -1  159.68    7.30
   4   2  -1  168.08    7.30
   4   3  -1   43.10    7.90
   4   3  -1   32.10    4.00
   4   4  -1  255.77   11.50
  -4  -4   1  263.47   11.10
  -4  -4   1  276.97   10.60
   4   5  -1   42.30    5.60
  -4  -5   1   39.50    4.80
  -4  -5   1   46.20    4.70
   4   6  -1   -2.70    2.50
  -4  -6   1   -1.00    3.20
   4  -6  -2    3.40    4.00
   4  -5  -2  137.49    8.00
   4  -5  -2  145.79    8.10
   4  -4  -2   93.79    7.10
   4  -4  -2   97.89    7.20
   4  -3  -2   95.49    7.80
  -4   3   2  111.89    7.40
   4  -2  -2  919.21   34.60
   4  -2  -2  918.11   34.30
  -4   2   2  915.41   33.90
  -4   2   2  870.21   32.70
  -4   2   2  944.51   33.60
   4  -1  -2   21.90    4.70
   4  -1  -2   19.50    3.80
  -4   1   2   21.70    3.20
  -4   1   2   23.50    4.10
   4   0  -2  179.68    9.60
   4   0  -2  183.98    7.90
  -4   0   2  193.48    9.30
  -4   0   2  186.38    7.70
   4   1  -2   22.40    3.20
   4   1  -2   21.10    2.80
   4   1  -2   22.60    3.40
  -4  -1   2   18.20    3.50
  -4  -1   2   24.90    5.10
  -4  -1   2   18.50    2.70
   4   2  -2  891.71   32.00
   4   2  -2  869.61   31.80
   4   2  -2  859.21   31.90
  -4  -2   2  934.91   31.70
  -4  -2   2  852.71   31.90
   4   3  -2   95.89    5.30
   4   3  -2   96.39    5.70
   4   3  -2   95.19    6.40
  -4  -3   2   78.59    7.20
   4   4  -2   90.09    6.50
   4   4  -2   86.79    6.10
  -4  -4   2   91.49    6.20
  -4  -4   2   96.29    5.40
   4   5  -2  151.88    8.40
  -4  -5   2  151.68    7.00
  -4  -5   2  148.69    7.60
   4   6  -2    1.50    2.70
  -4  -6   2   -1.40    3.00
   4  -6  -3    8.40    3.40
   4  -5  -3    1.70    3.50
   4  -5  -3    7.40    3.90
   4  -4  -3   32.80    6.00
   4  -4  -3   30.50    5.40
   4  -3  -3    9.40    3.60
  -4   3   3   14.40    4.50
   4  -2  -3   60.29    5.30
  -4   1   3  735.43   27.70
  -4   1   3  736.03   26.50
   4   0  -3    2.10    2.60
  -4   0   3   -0.60    3.80
  -4   0   3    4.10    2.30
   4   1  -3  732.73   25.80
  -4  -1   3  742.73   26.60
  -4  -1   3  711.23   25.70
  -4  -1   3  645.24   25.70
   4   2  -3   81.59    4.70
   4   2  -3   84.19    5.60
   4   2  -3   77.89    5.00
  -4  -2   3   79.19    4.70
  -4  -2   3   81.09    5.00
   4   3  -3   11.80    3.80
   4   3  -3   10.90    3.00
   4   3  -3   12.00    3.30
   4   4  -3   22.90    5.00
   4   4  -3   22.90    3.90
  -4  -4   3   30.90    4.00
   4   5  -3   -4.90    3.70
  -4  -5   3    6.30    2.80
   4   6  -3   13.40    2.80
   4  -5  -4    6.40    3.40
   4  -4  -4    6.70    3.90
   4  -4  -4    1.60    4.30
  -4   3   4  502.55   20.20
  -4   2   4    1.30    4.20
  -4   1   4  177.78    7.80
  -4   1   4  204.08   10.00
   4   0  -4 1227.38   42.60
  -4   0   4 1176.28   42.40
  -4   0   4 1153.28   43.50
   4   1  -4  195.68    8.70
  -4  -1   4  204.38    9.80
  -4  -1   4  192.78    8.30
   4   2  -4   -0.10    3.40
  -4  -2   4   -1.40    2.70
  -4  -2   4    2.40    2.60
   4   3  -4  510.05   18.80
   4   3  -4  487.35   19.70
  -4  -3   4  509.15   18.40
   4   4  -4    2.70    3.10
   4   4  -4    1.90    3.70
  -4  -4   4    2.40    2.80
   4   5  -4   11.50    4.20
  -4  -5   4    7.40    2.80
   4  -4  -5   63.79    5.80
   4  -3  -5  255.07   11.80
   4  -3  -5  277.07   12.40
  -4   2   5   74.69    7.90
  -4   1   5   98.99    8.30
   4   0  -5   -0.10    2.80
  -4   0   5    4.20    4.50
  -4   0   5    2.30    2.40
   4   1  -5   87.59    6.00
  -4  -1   5   86.79    5.30
   4   2  -5   59.69    6.10
   4   2  -5   49.99    5.90
  -4  -2   5   61.89    5.20
   4   3  -5  249.68   11.60
  -4  -3   5  263.37   11.70
  -4  -3   5  277.37   10.60
   4   4  -5   83.89    7.90
   4   4  -5   61.69    6.90
  -4  -4   5   56.89    4.90
   4   5  -5   32.10    5.60
  -4  -5   5   26.70    3.60
   4  -4  -6    4.00    3.30
   4  -3  -6  109.69    7.80
   4  -3  -6  120.29    7.80
   4  -3  -6  115.39    7.10
   4  -2  -6  474.85   18.40
   4  -2  -6  466.15   19.20
   4  -2  -6  451.35   18.50
   4  -1  -6   16.10    4.10
   4  -1  -6   10.50    4.60
   4  -1  -6   18.20    4.00
  -4   0   6  316.67   14.80
   4   1  -6   28.80    6.00
   4   1  -6   16.90    5.20
   4   1  -6   14.80    3.50
  -4  -1   6   10.10    3.60
   4   2  -6  441.76   17.20
  -4  -2   6  420.56   17.30
  -4  -2   6  437.76   16.80
   4   3  -6  122.09    7.10
  -4  -3   6  120.59    7.80
   4   4  -6   -3.20    3.00
  -4  -4   6    1.50    2.50
   4  -4  -7   16.70    2.70
   4  -4  -7   15.80    4.00
   4  -3  -7  143.09    7.40
   4  -3  -7  121.99    8.10
   4  -3  -7  141.19    8.20
   4  -2  -7   93.89    7.30
   4  -2  -7   91.59    7.90
   4  -2  -7   84.49    6.30
   4  -1  -7    7.30    5.00
   4  -1  -7    9.20    3.40
   4  -1  -7    8.10    4.40
   4   0  -7   -0.40    4.20
   4   0  -7    1.50    4.90
   4   1  -7    8.00    3.00
   4   1  -7   14.60    6.20
  -4  -1   7    8.00    3.90
   4   2  -7  100.49    6.30
  -4  -2   7   90.99    7.10
   4   3  -7  133.49    7.50
  -4  -3   7  146.59    7.50
   4   4  -7   13.30    2.80
  -4  -4   7    9.10    2.20
   4  -3  -8    3.40    2.40
   4  -3  -8    0.50    3.00
   4  -3  -8    0.90    3.40
   4  -2  -8  101.99    6.60
   4  -2  -8  117.89    7.60
   4  -2  -8  124.99    8.20
   4  -1  -8   25.40    4.30
   4  -1  -8   27.30    5.00
   4  -1  -8   32.40    6.80
   4   0  -8    1.40    4.80
   4   0  -8    7.70    3.80
  -4  -1   8   29.50    5.10
   4   2  -8  104.59    5.90
  -4  -2   8  109.59    6.60
   4   3  -8    4.30    2.50
  -4  -3   8    5.90    2.70
   4  -1  -9    9.40    3.20
   4  -1  -9    7.70    3.70
   4   0  -9    0.70    3.40
   4   0  -9   -5.60    5.20
  -4  -1   9    7.40    2.40
   5  -1   6    7.70    2.40
  -5   1  -6    6.80    1.80
  -5   1  -6   11.60    2.50
   5   0   6   92.19    5.40
  -5   0  -6   95.79    4.90
  -5   0  -6   78.69    4.10
   5   1   6    8.80    2.90
  -5  -1  -6    9.70    2.50
   5  -3   5   38.30    3.50
  -5   3  -5   43.40    3.20
   5  -2   5   22.00    3.10
  -5   2  -5   23.90    3.50
   5  -1   5   24.80    5.20
  -5   1  -5   18.00    3.00
   5   0   5   -0.20    3.30
  -5   0  -5   -1.50    3.00
  -5   0  -5    3.00    2.70
  -5   0  -5   -3.30    3.00
   5   1   5   16.70    3.40
  -5  -1  -5   19.00    3.00
  -5  -1  -5   13.40    3.40
  -5  -1  -5   13.80    2.30
   5   2   5   29.80    4.90
  -5  -2  -5   21.20    4.40
  -5  -2  -5   31.10    4.00
  -5  -3  -5   56.09    4.10
  -5  -3  -5   59.99    5.30
   5  -4   4    2.50    3.10
   5  -4   4    0.40    2.00
  -5   4  -4   -0.60    2.50
   5  -3   4   86.79    5.60
  -5   3  -4   92.59    5.80
   5  -2   4  213.98    9.50
  -5   2  -4  216.58    9.40
   5  -1   4   -0.30    3.50
  -5   1  -4    2.30    3.10
   5   0   4  101.49    6.80
   5   0   4  130.49    7.10
  -5   0  -4  109.89    6.30
  -5   0  -4  102.29    6.50
  -5   0  -4   81.79    6.90
   5   1   4    0.40    3.30
  -5  -1  -4    2.20    3.70
  -5  -1  -4   -0.20    2.90
  -5  -1  -4   -0.30    2.70
   5   2   4  254.37   11.20
  -5  -2  -4  264.07   10.80
  -5  -2  -4  258.87   12.30
  -5  -2  -4  257.67   11.40
   5   3   4   88.09    6.20
  -5  -3  -4  118.09    6.30
  -5  -3  -4  114.99    5.90
  -5  -3  -4  119.29    8.30
  -5  -4  -4   -2.00    3.30
   5  -4   3    3.50    2.90
   5  -4   3    4.80    4.10
  -5   4  -3    5.00    3.40
   5  -3   3  201.28    9.40
  -5   3  -3  216.78    9.70
   5  -2   3  110.49    6.70
  -5   2  -3  106.99    6.80
  -5   2  -3  118.59    5.80
   5  -1   3   24.10    3.90
   5  -1   3   13.60    3.70
  -5   1  -3   16.60    3.50
   5   0   3    0.60    3.20
   5   0   3   -1.70    3.50
  -5   0  -3   -0.30    3.10
  -5   0  -3   -1.10    3.60
   5   1   3   13.30    3.50
  -5  -1  -3   12.10    3.80
  -5  -1  -3   20.00    3.20
   5   2   3  125.59    7.30
  -5  -2  -3  129.39    7.50
  -5  -2  -3  133.29    9.00
  -5  -2  -3  118.39    6.20
   5   3   3  235.48   10.60
  -5  -3  -3  239.68   11.90
  -5  -4  -3   -2.70    4.30
   5  -5   2   33.10    4.20
  -5   5  -2   47.90    4.60
   5  -4   2   12.90    4.80
   5  -4   2   14.50    3.20
  -5   4  -2    7.90    3.70
   5  -3   2    5.90    3.30
  -5   3  -2    4.60    3.50
  -5   3  -2    0.40    3.90
   5  -2   2  303.97   17.20
   5  -2   2  378.96   14.00
  -5   2  -2  330.07   14.10
  -5   2  -2  365.36   14.10
   5  -1   2  100.79    5.20
   5  -1   2   94.49    8.60
   5  -1   2  105.89   11.00
   5  -1   2   68.59    7.00
  -5   1  -2  100.19    7.80
  -5   1  -2  108.79    6.10
  -5   1  -2  106.29    9.20
   5   0   2   78.69    6.30
   5   0   2   87.99   10.10
   5   0   2   87.09    5.50
  -5   0  -2   85.99    9.20
   5   1   2  103.79   10.90
   5   1   2  119.29    6.90
  -5  -1  -2  121.79   10.10
  -5  -1  -2   94.39    8.60
   5   2   2  367.16   15.00
  -5  -2  -2  383.16   14.40
  -5  -2  -2  383.16   15.10
  -5  -2  -2  342.87   15.80
   5   3   2    1.70    3.30
  -5  -3  -2    4.40    2.30
  -5  -3  -2    4.40    4.60
   5   4   2    9.30    3.40
  -5  -4  -2    6.60    4.50
  -5  -5  -2   52.69    5.60
   5  -5   1    3.90    3.50
  -5   5  -1   10.90    3.10
   5  -4   1   15.90    3.10
   5  -4   1   15.40    4.80
  -5   4  -1   15.40    3.70
   5  -3   1    6.00    3.30
  -5   3  -1    3.40    3.50
   5  -2   1   35.30    6.10
   5  -2   1   61.89    9.70
  -5   2  -1   37.10    5.60
  -5   2  -1   50.09    5.20
   5  -1   1    7.50    4.80
   5  -1   1    2.90    4.20
  -5   1  -1   12.30    5.10
  -5   1  -1    9.90    3.50
  -5   1  -1    6.60    3.10
   5   0   1   -2.00    4.30
   5   0   1   -2.90    3.40
  -5   0  -1    0.20    2.40
  -5   0  -1    0.80    4.90
  -5   0  -1   -2.80    3.00
   5   1   1   10.60    5.00
   5   1   1   10.00    3.10
   5   1   1   11.50    3.60
  -5  -1  -1    6.90    3.80
  -5  -1  -1    2.00    4.90
   5   2   1   46.40    9.50
   5   2   1   39.80    5.60
  -5  -2  -1   52.39    7.10
   5   3   1   -0.10    3.20
  -5  -3  -1    4.80    2.60
  -5  -3  -1   -1.50    4.20
   5   4   1   14.70    3.70
  -5  -4  -1   19.30    4.40
  -5  -4  -1   15.20    3.20
   5   5   1    7.40    2.90
  -5  -5  -1    8.00    2.40
   5  -5   0    6.00    3.80
   5  -4   0  186.78   10.10
  -5   4   0  186.68    8.90
   5  -3   0    9.30    4.90
   5  -3   0   12.40    5.00
  -5   3   0   15.40    4.70
   5  -2   0   -2.90    4.20
   5  -2   0    4.40    5.00
  -5   2   0    4.90    3.90
  -5   2   0   -4.00    3.40
   5  -1   0   94.89    9.30
   5  -1   0   87.29    7.80
  -5   1   0   94.39    8.20
  -5   1   0   96.49    5.70
   5   0   0   73.59    5.30
   5   0   0   81.09    8.60
  -5   0   0   83.79    7.60
  -5   0   0   73.89    4.90
  -5   0   0   79.49    7.10
  -5   0   0   83.59    4.90
   5   1   0   97.59    5.50
   5   1   0   94.39    9.50
   5   1   0   98.49    5.90
  -5  -1   0   87.69    5.40
  -5  -1   0  101.19    8.10
  -5  -1   0   89.19    7.30
  -5  -1   0   98.99    4.90
   5   2   0   -2.00    3.20
   5   2   0   -2.10    3.10
   5   2   0    1.00    5.40
  -5  -2   0    1.20    4.00
   5   3   0   10.30    4.40
   5   3   0    1.80    5.90
  -5  -3   0    7.20    4.10
  -5  -3   0   15.40    3.50
  -5  -3   0   11.40    5.40
   5   4   0  197.28    9.60
  -5  -4   0  193.28    8.70
  -5  -4   0  199.38    8.00
  -5  -4   0  180.48   10.10
   5   5   0    3.90    3.20
  -5  -5   0    4.00    2.80
   5  -5  -1   91.09    6.70
   5  -5  -1   92.09    7.20
   5  -4  -1  119.69    8.30
   5  -4  -1  125.19    8.20
   5  -3  -1   87.09    8.40
  -5   3   1   87.19    6.90
  -5   3   1  106.59    7.50
   5  -2  -1   96.99   10.80
   5  -2  -1   70.79    7.90
  -5   2   1   59.69    7.10
  -5   2   1   76.69    5.10
  -5   2   1   80.59    6.50
   5  -1  -1   39.50    8.10
   5  -1  -1   20.30    4.40
  -5   1   1   39.60    5.00
  -5   1   1   28.40    3.90
  -5   1   1   32.00    5.00
   5   0  -1    0.60    4.00
  -5   0   1    1.00    2.70
  -5   0   1    2.20    2.50
  -5   0   1   -1.30    4.20
   5   1  -1   29.00    3.80
   5   1  -1   26.40    3.50
   5   1  -1   31.60    5.00
  -5  -1   1   28.30    4.80
  -5  -1   1   28.00    3.60
  -5  -1   1   32.40    4.00
   5   2  -1   64.19    9.40
   5   2  -1   72.79    5.20
   5   2  -1   72.39    5.20
  -5  -2   1   63.29    7.40
   5   3  -1  101.09   11.20
   5   3  -1   97.19    6.20
  -5  -3   1   90.59    8.60
   5   4  -1  126.49    7.60
  -5  -4   1  116.49    6.60
  -5  -4   1  115.89    6.00
   5   5  -1  109.79    6.90
  -5  -5   1  100.99    5.80
  -5  -5   1  107.89    5.70
   5  -5  -2  239.78   11.00
   5  -5  -2  254.67   11.20
   5  -4  -2  109.89    8.00
   5  -4  -2  114.49    8.00
   5  -3  -2   13.30    4.60
  -5   3   2   16.60    4.60
   5  -2  -2   -1.00    3.70
  -5   2   2   -1.70    4.40
  -5   2   2    1.50    3.80
  -5   2   2    1.40    2.70
   5  -1  -2    5.30    4.10
   5  -1  -2    0.30    3.40
  -5   1   2    4.60    4.50
  -5   1   2    3.90    2.60
   5   0  -2   45.20    5.50
   5   0  -2   48.70   10.90
  -5   0   2   47.80    6.80
  -5   0   2   46.90    3.90
   5   1  -2    2.70    2.90
   5   1  -2    4.80    2.80
  -5  -1   2   -0.60    4.10
  -5  -1   2    1.70    2.30
  -5  -1   2    3.10    2.60
   5   2  -2    1.20    2.70
   5   2  -2    0.50    3.50
   5   2  -2   -3.20    3.00
  -5  -2   2    1.40    2.30
  -5  -2   2   -0.10    2.60
   5   3  -2   19.50    4.80
  -5  -3   2    9.00    3.90
   5   4  -2  110.69    7.40
  -5  -4   2  112.29    6.70
  -5  -4   2  115.79    5.90
   5   5  -2  289.87   12.20
  -5  -5   2  268.67   11.40
  -5  -5   2  289.67   11.00
   5  -5  -3  169.58    8.80
   5  -5  -3  189.08    8.80
   5  -4  -3  122.19    7.90
   5  -4  -3  115.29    7.80
   5  -3  -3   54.09    7.00
   5  -3  -3   65.49    6.70
   5  -3  -3   50.09    6.50
  -5   3   3   80.69   11.10
  -5   2   3  167.98   10.00
  -5   1   3   -0.20    2.40
  -5   1   3   -0.20    4.40
   5   0  -3    2.30    2.80
  -5   0   3    1.50    2.70
  -5   0   3    5.70    4.60
   5   1  -3   -2.50    2.90
  -5  -1   3    4.60    2.80
  -5  -1   3    0.90    2.60
  -5  -1   3   -1.70    4.40
   5   2  -3  168.58    7.10
   5   2  -3  152.08    7.40
   5   2  -3  155.28    7.80
  -5  -2   3  157.58    7.20
  -5  -2   3  140.99    7.20
   5   3  -3   57.99    5.10
   5   3  -3   53.19    6.30
   5   3  -3   42.30    5.80
  -5  -3   3   47.20    4.30
   5   4  -3  126.69    7.80
   5   4  -3  121.99    7.10
  -5  -4   3  129.59    6.90
  -5  -4   3  118.09    6.50
   5   5  -3  204.78    9.80
  -5  -5   3  198.48    8.60
   5  -5  -4  102.49    6.00
   5  -5  -4  104.79    6.00
   5  -4  -4   29.10    5.70
   5  -4  -4   30.30    5.80
   5  -3  -4   93.19    7.20
   5  -3  -4   85.19    7.10
   5  -3  -4  111.89    7.80
  -5   2   4   49.50    7.30
  -5   1   4    3.60    5.00
  -5   1   4    1.90    2.30
   5   0  -4  109.59    6.30
  -5   0   4  110.89    5.80
  -5   0   4  115.49    8.30
   5   1  -4   -0.90    3.30
  -5  -1   4    6.80    2.90
  -5  -1   4   -0.40    2.70
  -5  -1   4    1.70    4.50
   5   2  -4   43.40    5.70
  -5  -2   4   41.90    5.10
   5   3  -4  102.79    7.00
   5   3  -4   94.29    6.40
  -5  -3   4   74.19    5.10
   5   4  -4   32.90    4.70
  -5  -4   4   23.40    3.90
   5   5  -4  129.89    7.80
  -5  -5   4  123.19    6.10
   5  -5  -5    2.30    2.50
   5  -5  -5    5.00    2.60
   5  -4  -5   -0.10    3.40
   5  -4  -5    7.80    3.60
   5  -3  -5   97.69    7.10
   5  -3  -5  108.29    7.60
   5  -2  -5   50.29    6.60
   5  -2  -5   67.49    6.70
   5  -2  -5   81.39    6.50
  -5   1   5  110.69    9.10
   5   0  -5    4.90    3.30
  -5   0   5   14.10    5.20
  -5   0   5   -0.10    2.80
   5   1  -5  103.29    6.80
   5   2  -5   78.49    6.20
  -5  -2   5   70.99    5.70
  -5  -2   5   70.69    6.20
   5   3  -5  104.49    7.10
  -5  -3   5  108.09    7.10
   5   4  -5    3.90    3.30
  -5  -4   5    5.60    2.80
   5   5  -5    3.30    3.10
  -5  -5   5    4.00    2.00
   5  -4  -6   87.29    5.80
   5  -3  -6   69.19    6.00
   5  -3  -6   59.69    6.70
   5  -2  -6   10.70    3.90
   5  -2  -6    9.50    4.20
   5  -2  -6    7.30    4.60
   5  -1  -6   67.59    7.10
   5  -1  -6   79.09    6.40
   5  -1  -6   70.69    7.00
   5   0  -6  405.76   15.70
  -5   0   6  361.36   15.10
   5   1  -6   79.49    6.10
   5   1  -6   70.89    7.20
  -5  -1   6   68.59    5.90
   5   2  -6    9.20    3.80
  -5  -2   6    7.50    3.30
  -5  -2   6   10.40    3.90
   5   3  -6   62.79    5.70
  -5  -3   6   72.09    6.40
   5   4  -6   69.59    5.10
  -5  -4   6   58.99    4.30
   5  -3  -7    0.60    3.50
   5  -3  -7    1.60    2.80
   5  -3  -7    5.00    3.80
   5  -2  -7  148.79    9.20
   5  -2  -7  148.59    8.10
   5  -2  -7  159.28    8.60
   5  -1  -7   13.10    4.80
   5  -1  -7   17.60    3.70
   5  -1  -7   15.90    4.50
   5   0  -7   -2.70    4.50
   5   0  -7   -0.70    4.30
  -5   0   7    0.90    3.50
   5   1  -7   14.30    3.10
   5   1  -7   18.80    4.40
  -5  -1   7   15.10    4.00
   5   2  -7  156.18    8.10
  -5  -2   7  172.08    8.90
   5   3  -7    3.30    3.00
  -5  -3   7    1.80    3.20
   5  -2  -8   51.19    4.80
   5  -2  -8   60.09    5.80
   5  -2  -8   55.59    6.30
   5  -1  -8  231.88   12.10
   5  -1  -8  248.58   10.90
   5  -1  -8  287.17   11.10
   5   0  -8    4.30    3.90
   5   0  -8   -1.50    4.20
   5   1  -8  270.67   12.80
  -5  -1   8  306.87   12.00
   5   2  -8   53.39    4.20
  -5  -2   8   54.59    5.30
   6  -1   5   19.40    3.60
  -6   1  -5   17.10    2.90
  -6   1  -5   19.20    2.80
   6   0   5    0.90    3.00
  -6   0  -5   -0.10    1.90
  -6   0  -5   -1.50    2.20
   6   1   5   22.00    4.80
  -6  -1  -5   26.40    3.30
   6  -3   4    5.80    2.60
   6  -3   4    7.90    2.10
   6  -2   4   -0.90    2.50
  -6   2  -4   -0.20    2.30
   6  -1   4   16.20    3.50
  -6   1  -4   17.30    3.00
  -6   1  -4   13.90    2.90
   6   0   4  134.89    7.30
  -6   0  -4  120.89    7.40
  -6   0  -4  129.59    6.50
   6   1   4   16.60    3.80
  -6  -1  -4   11.10    2.60
   6   2   4    1.20    3.00
  -6  -3  -4   25.50    5.20
   6  -3   3    1.50    2.90
   6  -3   3    0.50    3.80
  -6   3  -3    2.00    3.10
   6  -2   3   77.59    5.70
  -6   2  -3   87.69    6.20
   6  -1   3    7.30    3.70
   6  -1   3   12.00    3.40
  -6   1  -3    8.20    3.00
   6   0   3    1.20    3.50
  -6   0  -3    0.50    3.10
   6   1   3    9.10    4.00
  -6  -1  -3   14.30    3.20
   6   2   3  101.99    6.80
  -6  -2  -3  102.19    7.90
  -6  -2  -3   85.39    5.10
   6   3   3    1.50    2.90
  -6  -3  -3   -2.20    4.10
   6  -4   2    6.00    2.40
   6  -4   2   10.30    3.70
  -6   4  -2   12.40    3.40
   6  -3   2   -1.00    3.30
   6  -3   2    1.70    4.40
  -6   3  -2    3.40    3.50
   6  -2   2   78.29    6.10
  -6   2  -2   99.29    8.50
  -6   2  -2   90.19    6.50
   6  -1   2  262.97   11.20
  -6   1  -2  259.27   11.50
  -6   1  -2  264.87   11.00
   6   0   2    6.60    2.70
   6   0   2    3.00    3.60
  -6   0  -2    8.90    3.10
   6   1   2  304.17   13.20
  -6  -1  -2  313.97   12.60
   6   2   2   83.89    7.30
   6   2   2  108.19    7.00
  -6  -2  -2   98.29    5.60
  -6  -2  -2  104.49    8.40
   6   3   2    4.00    3.30
  -6  -3  -2    3.10    2.10
  -6  -3  -2   -0.90    4.50
   6   4   2    5.80    2.90
  -6  -4  -2    6.60    4.10
   6  -4   1   33.00    3.50
   6  -4   1   38.40    5.60
  -6   4  -1   31.10    5.20
   6  -3   1   15.00    3.40
   6  -3   1   14.10    4.60
  -6   3  -1   17.20    3.80
   6  -2   1  248.68   10.30
   6  -2   1  220.38   11.90
  -6   2  -1  241.48   10.60
  -6   2  -1  235.98   10.60
   6  -1   1  164.48    7.90
  -6   1  -1  180.98   14.50
  -6   1  -1  151.78    8.40
  -6   1  -1  164.78    8.00
   6   0   1   -0.80    2.40
   6   0   1    5.40    5.40
  -6   0  -1   -1.10    6.10
  -6   0  -1   -0.40    2.20
   6   1   1  163.08    9.30
   6   1   1  182.28    8.70
  -6  -1  -1  186.88    8.40
   6   2   1  254.67   11.50
   6   2   1  252.57   11.10
  -6  -2  -1  249.28   12.40
  -6  -2  -1  261.57   10.60
   6   3   1   17.70    3.90
  -6  -3  -1   21.40    3.70
  -6  -3  -1   18.50    4.80
   6   4   1   33.80    5.40
  -6  -4  -1   33.30    3.20
  -6  -4  -1   42.80    6.80
   6  -5   0    6.50    3.00
   6  -4   0    1.40    4.10
  -6   4   0   -1.30    3.30
   6  -3   0   41.00    4.40
   6  -3   0   38.20    6.00
  -6   3   0   41.90    5.60
   6  -2   0   58.49    6.30
   6  -2   0   64.39    4.80
  -6   2   0   40.10    6.50
  -6   2   0   58.29    5.80
   6  -1   0  470.95   22.90
   6  -1   0  571.44   24.00
  -6   1   0  565.94   22.70
  -6   1   0  590.44   20.90
   6   0   0  371.26   18.00
  -6   0   0  380.36   14.30
  -6   0   0  374.96   16.70
  -6   0   0  334.27   14.40
   6   1   0  596.24   25.00
   6   1   0  577.94   21.40
  -6  -1   0  588.24   23.60
  -6  -1   0  538.55   23.60
   6   2   0   62.09    5.80
   6   2   0   65.19    6.50
  -6  -2   0   55.89    7.90
  -6  -2   0   76.89    5.20
   6   3   0   41.40    5.50
   6   3   0   49.10    6.20
  -6  -3   0   41.30    7.50
  -6  -3   0   49.40    4.50
   6   4   0   -1.20    3.60
  -6  -4   0    0.10    2.00
  -6  -4   0   -1.30    2.50
   6   5   0    5.20    2.60
  -6  -5   0    6.60    2.20
   6  -5  -1   -0.20    3.00
   6  -5  -1   -6.60    4.50
   6  -4  -1   51.59    6.40
   6  -4  -1   60.39    6.70
   6  -3  -1    6.00    5.20
   6  -3  -1   21.60    4.60
  -6   3   1   17.20    3.50
   6  -2  -1   36.90    8.00
   6  -2  -1   65.69   11.50
  -6   2   1   32.00    6.70
  -6   2   1   33.20    6.40
   6  -1  -1  186.58   13.20
   6  -1  -1  150.08   10.70
  -6   1   1  167.88    7.90
  -6   1   1  164.68   10.70
   6   0  -1   -5.20    3.90
   6   0  -1    4.00    4.90
  -6   0   1   -2.20    5.50
  -6   0   1    1.30    3.10
  -6   0   1    0.30    3.00
   6   1  -1  160.98    8.30
   6   1  -1  173.18    7.60
   6   1  -1  158.28   12.40
  -6  -1   1  171.68   10.90
  -6  -1   1  186.48    7.70
  -6  -1   1  164.08   10.10
  -6  -1   1  149.69    7.70
   6   2  -1   40.40    5.10
   6   2  -1   41.80    6.70
  -6  -2   1   26.50    5.30
   6   3  -1   15.10    3.90
   6   3  -1   15.30    4.10
  -6  -3   1   16.60    3.10
   6   4  -1   69.19    6.60
  -6  -4   1   60.39    4.30
  -6  -4   1   60.79    4.70
   6   5  -1   -0.90    2.80
  -6  -5   1    1.10    2.60
   6  -5  -2    0.50    4.50
   6  -5  -2    0.50    3.00
   6  -4  -2    9.50    5.00
   6  -4  -2   10.90    4.20
   6  -3  -2   38.20    6.60
   6  -3  -2   42.20    6.40
   6  -2  -2   73.29    8.30
  -6   2   2   50.79    7.70
  -6   2   2   74.69    6.80
   6  -1  -2   50.59    7.50
  -6   1   2   51.89    4.70
  -6   1   2   56.09    7.90
  -6   0   2  335.27   14.70
  -6   0   2  293.77   12.30
  -6  -1   2   57.29    5.20
  -6  -1   2   50.29    7.50
  -6  -1   2   49.00    4.40
   6   2  -2   81.09    5.30
  -6  -2   2   50.59    8.30
   6   3  -2   48.40    6.40
   6   3  -2   48.40    5.50
  -6  -3   2   44.10    4.60
   6   4  -2    7.40    4.10
  -6  -4   2   12.30    2.70
  -6  -4   2    5.80    3.30
   6   5  -2   -0.80    3.30
  -6  -5   2   -0.40    1.80
  -6  -5   2   -0.40    3.00
   6  -5  -3   59.99    5.00
   6  -5  -3   73.19    5.50
   6  -4  -3   -0.90    3.70
   6  -4  -3    6.60    4.60
   6  -3  -3   24.70    5.90
   6  -3  -3   19.20    4.90
   6  -3  -3   19.50    4.30
   6  -2  -3   11.10    4.70
   6  -2  -3   14.90    4.00
   6  -2  -3    8.20    4.30
  -6   2   3   11.60    5.20
  -6   2   3    7.20    5.30
  -6   1   3    8.50    3.00
  -6   1   3   10.40    5.70
  -6   0   3    2.90    5.20
  -6   0   3   -0.70    2.80
   6   1  -3   14.40    3.20
  -6  -1   3   11.00    3.40
  -6  -1   3    5.60    2.90
  -6  -1   3    9.80    5.20
   6   2  -3    7.20    4.50
   6   2  -3    8.70    3.60
  -6  -2   3    6.40    2.70
  -6  -2   3    4.70    4.90
   6   3  -3   23.60    4.40
  -6  -3   3   16.30    2.90
   6   4  -3    5.20    4.00
  -6  -4   3    1.10    3.70
  -6  -4   3   -1.10    2.70
   6   5  -3   90.89    5.80
  -6  -5   3   76.29    4.50
  -6  -5   3   81.59    4.80
   6  -5  -4   12.50    3.30
   6  -5  -4   12.80    2.60
   6  -4  -4    3.00    3.80
   6  -4  -4    3.10    3.90
   6  -3  -4    4.60    4.50
   6  -3  -4    2.20    4.30
   6  -3  -4    0.90    3.80
   6  -2  -4   53.39    6.80
   6  -2  -4   45.10    6.50
   6  -2  -4   58.99    6.20
  -6   1   4   21.40    6.10
  -6   0   4   20.30    5.90
   6   1  -4   17.90    3.70
  -6  -1   4    7.80    3.10
  -6  -2   4   59.79    5.00
  -6  -2   4   50.49    5.80
   6   3  -4   -1.00    3.70
  -6  -3   4    4.00    2.50
   6   4  -4    6.10    4.30
  -6  -4   4    3.10    2.50
   6   5  -4   20.70    3.40
  -6  -5   4   12.00    2.00
   6  -4  -5    1.10    3.30
   6  -4  -5    0.90    3.20
   6  -3  -5   10.50    4.30
   6  -3  -5   26.20    4.20
   6  -3  -5   21.10    4.40
   6  -2  -5    3.00    3.70
   6  -2  -5    0.70    4.10
   6  -1  -5   45.20    6.10
   6  -1  -5   40.60    6.70
   6   0  -5   -3.40    4.10
   6   0  -5    1.80    3.60
   6   0  -5    2.10    3.10
  -6   0   5    0.30    3.20
   6   1  -5   48.60    5.80
  -6  -1   5   38.70    5.10
  -6  -1   5   42.60    5.60
   6   2  -5   -1.60    3.90
  -6  -2   5   -0.30    3.70
  -6  -2   5    1.40    2.90
   6   3  -5   23.60    4.10
  -6  -3   5   30.00    5.70
  -6  -3   5   14.80    3.80
   6   4  -5    3.10    3.00
  -6  -4   5    4.80    2.50
   6  -4  -6   15.50    3.60
   6  -3  -6   -2.50    3.20
   6  -3  -6    0.60    3.60
   6  -2  -6    4.70    4.10
   6  -2  -6    2.20    4.20
   6  -2  -6    2.10    3.60
   6  -1  -6    5.50    3.70
   6  -1  -6    2.20    4.10
   6  -1  -6    5.30    4.20
   6   0  -6    1.90    4.10
   6   0  -6    0.50    4.20
  -6   0   6    7.30    3.50
   6   1  -6    3.60    3.60
   6   1  -6   -3.60    4.30
  -6  -1   6   -0.50    3.60
   6   2  -6   -3.70    3.70
   6   2  -6    6.50    4.30
  -6  -2   6    1.30    3.80
   6   3  -6   -0.40    3.10
  -6  -3   6    3.40    3.50
   6   4  -6   17.00    2.90
  -6  -4   6   12.80    2.20
   6  -3  -7   37.40    4.10
   6  -3  -7   39.50    4.90
   6  -2  -7    0.70    3.00
   6  -2  -7    2.30    3.50
   6  -2  -7   -3.40    3.70
   6  -1  -7    7.10    4.20
   6  -1  -7    5.00    4.20
   6  -1  -7    8.40    3.30
   6   0  -7   -3.60    4.10
  -6   0   7    3.80    3.50
   6   1  -7    7.10    4.20
   6   1  -7    2.90    2.70
  -6  -1   7   -0.10    3.70
   6   2  -7    2.90    3.10
  -6  -2   7    0.20    3.70
   6   3  -7   38.50    4.30
  -6  -3   7   43.30    4.70
   6  -2  -8   13.30    3.00
   6  -2  -8   14.70    3.60
   6  -2  -8    8.90    2.40
   6  -1  -8   33.10    4.20
   6  -1  -8   41.20    5.10
   6  -1  -8   31.50    5.20
   6   1  -8   45.80    5.60
  -6  -1   8   43.00    4.80
   6   2  -8   13.50    3.10
  -6  -2   8   15.00    3.10
  -7   1  -4    0.00    1.70
   7   0   4    4.30    2.50
  -7   0  -4    1.40    1.70
   7   1   4    4.90    3.10
  -7  -1  -4   -1.50    1.50
   7  -2   3    4.10    2.60
  -7   2  -3    4.20    2.40
   7  -1   3    8.10    2.90
  -7   1  -3    4.70    2.50
   7   0   3    2.30    3.60
  -7   0  -3   -0.90    2.60
   7   1   3    5.00    3.50
  -7  -1  -3    4.10    2.50
   7   2   3    6.60    3.40
  -7  -2  -3    4.70    1.80
   7  -3   2   -0.70    2.80
   7  -3   2   -0.30    2.50
  -7   3  -2   -1.60    3.10
   7  -2   2   47.70    4.90
  -7   2  -2   54.89    5.20
   7  -1   2    9.20    3.40
  -7   1  -2    5.50    2.80
   7   0   2   12.10    4.20
  -7   0  -2   13.10    3.10
   7   1   2    6.60    3.90
  -7  -1  -2   11.40    3.00
   7   2   2   61.29    5.90
  -7  -2  -2   44.80    4.20
  -7  -2  -2   63.79    7.10
   7   3   2    1.60    3.20
  -7  -3  -2    0.60    1.50
   7  -4   1   18.50    3.80
  -7   4  -1   18.80    3.10
   7  -3   1   21.70    3.30
   7  -3   1   24.10    4.90
  -7   3  -1   26.50    5.50
   7  -2   1   16.90    3.80
  -7   2  -1   22.50    4.00
   7  -1   1   10.30    3.60
  -7   1  -1   12.00    3.80
   7   0   1   -3.80    3.20
  -7   0  -1    0.20    2.90
   7   1   1   12.30    4.10
  -7  -1  -1   10.70    3.10
   7   2   1   14.40    4.00
  -7  -2  -1   18.20    3.10
   7   3   1   31.20    5.50
  -7  -3  -1   25.60    3.30
   7   4   1   24.30    4.20
   7  -4   0   -2.30    3.00
  -7   4   0    2.30    3.00
   7  -3   0    0.70    2.70
   7  -3   0    4.30    4.00
  -7   3   0    5.50    3.60
   7  -2   0   34.60    4.70
  -7   2   0   33.00    5.70
   7  -1   0  103.59    6.50
  -7   1   0  105.99    7.00
  -7   1   0  102.79    6.40
   7   0   0  113.79    7.00
  -7   0   0  118.79    5.90
  -7   0   0  114.49    7.20
   7   1   0   97.39    6.70
   7   1   0  115.49    7.30
  -7  -1   0  103.39    6.00
   7   2   0   32.90    6.10
  -7  -2   0   33.90    4.40
   7   3   0    5.10    3.80
  -7  -3   0    1.30    2.50
   7   4   0   -1.90    2.90
  -7  -4   0    0.40    1.60
  -7  -4   0    1.90    1.80
   7  -4  -1    8.10    4.80
   7  -4  -1    1.30    3.20
  -7   4   1    0.50    2.90
   7  -3  -1   24.10    4.60
   7  -3  -1   26.10    6.00
  -7   3   1   29.50    5.30
   7  -2  -1   48.40    6.90
   7  -2  -1   45.20    4.60
  -7   2   1   46.10    5.70
   7  -1  -1  162.28    9.10
   7  -1  -1  165.18    7.80
  -7   1   1  157.48    8.20
  -7   1   1  157.68    8.40
   7   0  -1    0.60    5.00
   7   0  -1    1.40    3.40
  -7   0   1    1.40    3.60
  -7   0   1   -1.00    3.40
   7   1  -1  149.88    7.70
  -7  -1   1  154.78    7.30
  -7  -1   1  153.38    8.10
   7   2  -1   54.69    6.40
   7   2  -1   56.09    4.80
  -7  -2   1   53.09    4.80
   7   3  -1   38.10    6.30
  -7  -3   1   35.60    4.20
   7   4  -1   -0.50    3.30
  -7  -4   1    1.20    1.90
  -7  -4   1    1.70    2.40
   7  -4  -2   -1.20    5.20
   7  -4  -2    5.90    3.40
   7  -3  -2   -0.60    5.30
   7  -3  -2   -1.90    3.80
  -7   3   2    1.50    3.30
   7  -2  -2   16.10    2.80
   7  -2  -2   16.20    4.00
   7  -2  -2   14.80    5.40
  -7   2   2   14.00    3.60
   7  -1  -2   18.70    3.40
   7  -1  -2   13.20    5.20
  -7   1   2   18.80    3.80
   7   0  -2 1242.78   43.60
   7   0  -2 1190.58   44.00
  -7   0   2 1200.08   43.60
  -7   0   2 1177.28   43.50
   7   1  -2   16.20    3.50
  -7  -1   2    9.70    3.00
  -7  -1   2   17.90    3.80
   7   2  -2   22.40    4.40
   7   2  -2   20.40    3.70
  -7  -2   2   18.70    3.00
   7   3  -2    5.50    4.10
  -7  -3   2    2.20    2.60
   7   4  -2    4.60    3.70
  -7  -4   2    0.60    2.80
  -7  -4   2    2.20    2.20
   7  -4  -3    5.40    4.80
   7  -4  -3    0.40    3.20
   7  -3  -3   31.80    6.10
   7  -3  -3   61.49    6.70
   7  -3  -3   41.60    5.70
   7  -2  -3    5.60    3.90
   7  -2  -3   12.00    5.20
   7  -2  -3    3.60    5.00
  -7   2   3   14.30    3.40
   7  -1  -3  280.87   12.20
   7  -1  -3  281.57   11.20
   7  -1  -3  270.67   12.40
  -7   1   3  272.07   11.90
   7   0  -3    5.60    3.20
   7   0  -3    2.30    4.90
  -7   0   3   -1.70    3.40
  -7   0   3    3.10    3.30
   7   1  -3  286.77   12.10
  -7  -1   3  281.37   12.30
  -7  -1   3  299.37   12.10
   7   2  -3   10.60    3.50
  -7  -2   3    2.40    3.50
  -7  -2   3    9.50    2.80
   7   3  -3   68.99    7.00
   7   3  -3   47.30    5.70
  -7  -3   3   39.50    4.10
   7   4  -3    7.70    3.70
  -7  -4   3    3.30    3.30
  -7  -4   3    1.00    2.20
   7  -4  -4    2.30    3.00
   7  -4  -4    1.60    4.00
   7  -3  -4    2.10    3.70
   7  -3  -4    4.00    3.70
   7  -3  -4    1.10    4.50
   7  -2  -4   15.60    5.00
   7  -2  -4   25.30    4.30
   7  -2  -4   16.60    4.40
   7  -1  -4  117.99    7.60
   7  -1  -4  117.49    7.70
  -7   1   4  119.79    7.00
   7   0  -4  434.16   17.30
   7   0  -4  440.86   17.40
   7   0  -4  434.86   16.60
  -7   0   4  413.16   16.90
   7   1  -4  119.39    6.80
  -7  -1   4  102.19    6.80
  -7  -1   4  110.79    6.90
  -7  -2   4   27.30    5.30
   7   3  -4    0.40    3.70
  -7  -3   4    0.20    2.30
  -7  -4   4   -0.30    1.90
   7  -4  -5    1.70    2.50
   7  -4  -5    2.50    2.70
   7  -3  -5   24.60    4.60
   7  -3  -5   25.60    5.10
   7  -3  -5   15.50    3.70
   7  -2  -5   43.80    6.00
   7  -2  -5   37.60    5.50
   7  -2  -5   41.60    5.20
   7  -1  -5    1.40    3.80
   7  -1  -5    4.60    3.90
  -7   1   5    6.50    3.30
   7   0  -5   -2.00    4.20
   7   0  -5   -1.20    3.60
   7   0  -5    2.90    3.10
  -7   0   5    1.70    3.40
   7   1  -5    1.00    3.70
  -7  -1   5    7.00    3.70
   7   2  -5   41.60    5.90
  -7  -2   5   50.49    5.70
   7   3  -5   21.10    3.80
  -7  -3   5   16.40    3.00
   7   4  -5   -0.90    2.30
  -7  -4   5    2.20    1.90
   7  -3  -6    0.80    2.60
   7  -3  -6   -0.10    2.90
   7  -2  -6    7.90    3.60
   7  -2  -6   11.10    3.50
   7  -1  -6   37.30    5.70
   7  -1  -6   41.30    6.30
   7   0  -6   24.20    4.50
   7   0  -6   25.70    4.40
  -7   0   6   34.70    5.50
   7   1  -6   48.90    5.30
   7   1  -6   46.40    7.00
  -7  -1   6   56.29    6.10
   7   2  -6    5.40    3.60
   7   2  -6    6.20    4.10
  -7  -2   6    8.20    3.60
   7   3  -6   -2.00    2.80
  -7  -3   6    1.10    2.90
   7  -2  -7    1.10    2.50
   7  -2  -7   -1.30    2.70
   7  -2  -7   -0.50    3.10
   7  -1  -7   17.80    3.80
   7  -1  -7   15.80    3.10
   7   0  -7   -0.70    3.70
  -7   0   7    2.10    3.20
   7   1  -7   18.00    4.00
  -7  -1   7   24.00    4.90
   7   2  -7   -0.20    2.50
   7   2  -7   -0.50    3.30
  -7  -2   7   -5.20    3.40
   7   0  -8   21.00    4.50
   8  -2   2   -0.20    1.90
  -8   2  -2    0.50    2.70
   8  -1   2    1.50    2.40
  -8   1  -2    1.20    2.10
   8   0   2   25.90    3.60
  -8   0  -2   33.40    3.50
   8   1   2    3.60    2.90
  -8  -1  -2    0.70    2.00
   8   2   2   -1.40    2.90
  -8  -2  -2    0.70    1.50
   8  -2   1    7.00    2.80
  -8   2  -1   13.90    3.20
   8  -1   1   -1.40    2.90
  -8   1  -1    2.10    3.00
   8   0   1   -0.70    2.80
  -8   0  -1   -1.00    2.40
   8   1   1    0.50    3.50
  -8  -1  -1   -0.40    2.40
   8   2   1   13.70    3.30
  -8  -2  -1    8.00    2.20
  -8   3   0   13.00    3.40
   8  -2   0   23.10    4.10
  -8   2   0   36.80    5.50
   8  -1   0   13.20    3.50
  -8   1   0   17.20    3.70
   8   0   0   12.20    3.30
  -8   0   0   10.40    3.50
   8   1   0   12.50    3.00
  -8  -1   0   15.70    2.80
   8   2   0   26.70    5.80
  -8  -2   0   25.00    3.70
   8   3   0   14.70    3.40
  -8  -3   0    7.50    1.90
  -8  -3   0    5.20    1.80
   8  -3  -1   18.40    5.10
   8  -3  -1    2.40    3.70
  -8   3   1    1.60    3.20
   8  -2  -1   11.40    4.90
   8  -2  -1   -3.60    2.60
   8  -2  -1   -0.60    3.20
  -8   2   1    2.80    3.60
   8  -1  -1   31.50    5.40
   8  -1  -1   27.30    4.80
  -8   1   1   45.30    5.70
   8   0  -1    4.20    3.10
  -8   0   1   -1.00    3.50
   8   1  -1   30.80    4.30
  -8  -1   1   32.10    4.00
   8   2  -1    1.70    4.00
  -8  -2   1   -0.50    2.40
   8   3  -1    3.30    3.20
  -8  -3   1    2.90    2.10
   8  -3  -2   46.20    6.00
   8  -3  -2   34.10    4.60
  -8   3   2   42.90    4.60
   8  -2  -2   21.40    3.80
   8  -2  -2   21.90    3.30
   8  -2  -2   17.30    5.00
  -8   2   2   27.20    5.30
   8  -1  -2    0.50    4.90
   8  -1  -2    2.90    2.80
  -8   1   2    8.40    3.70
   8   0  -2    2.10    3.10
  -8   0   2    6.50    3.70
   8   1  -2    9.10    3.20
  -8  -1   2    5.40    3.50
   8   2  -2   21.80    3.30
  -8  -2   2   23.70    3.50
   8   3  -2   44.60    5.60
  -8  -3   2   40.20    3.50
   8  -3  -3   14.30    3.30
   8  -3  -3   16.10    4.90
   8  -3  -3   17.30    3.30
   8  -2  -3    1.70    3.60
   8  -2  -3   -1.70    4.60
  -8   2   3   -0.10    3.30
   8  -1  -3   27.60    3.90
   8  -1  -3   24.60    4.20
   8  -1  -3   23.00    5.00
  -8   1   3   28.90    5.30
   8   0  -3    1.90    3.10
   8   0  -3   -4.60    3.70
  -8   0   3    1.80    3.60
   8   1  -3   32.30    4.50
  -8  -1   3   33.10    5.20
   8   2  -3   -3.80    2.90
  -8  -2   3   -1.60    2.20
   8   3  -3   14.70    3.30
  -8  -3   3   13.20    2.20
   8  -3  -4   10.80    3.00
   8  -3  -4   14.80    3.00
   8  -3  -4   10.00    3.90
   8  -2  -4    1.20    4.00
   8  -2  -4    2.40    3.60
  -8   2   4    0.90    3.00
   8  -1  -4   97.99    7.00
   8  -1  -4   98.99    7.10
  -8   1   4  104.69    6.50
   8   0  -4  218.38   10.40
   8   0  -4  212.18    9.40
  -8   0   4  231.88   10.00
   8   1  -4  108.29    6.30
  -8  -1   4  105.19    6.70
   8   2  -4   -6.30    3.20
  -8  -2   4    4.50    3.30
   8   3  -4   17.20    3.30
  -8  -3   4   10.70    2.20
   8  -3  -5   -0.40    2.40
   8  -3  -5   -0.80    2.60
   8  -3  -5    1.10    2.40
   8  -2  -5   75.49    5.90
   8  -2  -5   79.49    5.30
   8  -1  -5  104.39    6.90
   8  -1  -5  107.49    6.30
  -8   1   5  102.49    6.20
   8   0  -5    5.50    3.40
   8   0  -5   -5.00    2.70
   8   0  -5    0.30    3.80
  -8   0   5   -1.90    3.40
   8   1  -5  112.39    8.00
   8   1  -5  114.39    6.90
  -8  -1   5  124.99    7.10
   8   2  -5   94.29    6.30
  -8  -2   5  107.29    6.30
   8   3  -5    4.50    3.10
   8   3  -5   -1.60    2.70
  -8  -3   5    2.50    2.10
   8  -2  -6   25.40    4.10
   8  -1  -6  166.88    8.00
   8  -1  -6  172.48    8.20
  -8   1   6  162.98    7.60
   8   0  -6   19.80    3.80
  -8   0   6   27.60    4.90
   8   1  -6  193.38    8.50
   8   1  -6  193.48    9.40
  -8  -1   6  204.78    8.90
   8   2  -6   39.10    5.30
   8   2  -6   37.70    4.10
  -8  -2   6   37.30    4.80
   8  -1  -7   -1.50    2.00
   8  -1  -7   -0.70    2.50
   8   0  -7    3.20    2.80
  -8   0   7   -2.10    2.50
   8   1  -7    0.80    2.80
  -8  -1   7   -1.30    2.90
   9  -1   0    3.10    2.00
  -9   1   0    0.70    2.60
   9   0   0   30.70    3.30
  -9   0   0   29.80    3.60
   9   1   0    1.80    2.10
  -9  -1   0    1.00    1.80
   9  -2  -1   -3.10    1.60
   9  -2  -1   -1.70    2.20
  -9   2   1    1.60    3.00
   9  -1  -1    2.20    2.80
   9  -1  -1   -1.00    2.30
  -9   1   1    3.60    3.10
   9   0  -1    0.00    2.40
  -9   0   1    0.00    2.80
   9   1  -1    3.10    2.40
  -9  -1   1    1.00    2.00
   9   2  -1    0.40    2.00
  -9  -2   1   -1.20    1.70
   9  -2  -2   11.30    2.80
  -9   2   2   12.40    3.20
   9  -1  -2    2.50    3.00
   9  -1  -2    2.00    2.30
  -9   1   2   -0.50    3.20
   9   0  -2   39.30    4.90
   9   0  -2   41.80    4.10
  -9   0   2   48.40    4.90
   9   1  -2    3.00    2.60
   9   1  -2    4.60    2.80
  -9  -1   2    1.50    2.80
   9   2  -2    6.30    2.30
  -9  -2   2    6.60    1.80
   9  -2  -3    9.40    4.30
   9  -2  -3    9.80    2.80
  -9   2   3    8.70    2.90
   9  -1  -3   16.80    2.30
   9  -1  -3   18.80    3.50
  -9   1   3   25.10    4.70
   9   0  -3    1.70    3.10
   9   0  -3    0.70    2.60
  -9   0   3   -0.20    3.10
   9   1  -3   18.80    2.80
  -9  -1   3   20.70    4.40
  -9  -2   3    5.80    1.70
   9  -2  -4    2.60    3.30
   9  -2  -4    1.90    2.40
  -9   2   4   -0.70    2.20
   9  -1  -4    0.50    3.00
  -9   1   4    2.00    2.90
   9   0  -4   42.30    5.00
  -9   0   4   54.29    5.20
   9   1  -4    0.90    2.80
  -9  -1   4    1.80    3.00
   9   2  -4    4.70    2.50
   9  -1  -5    0.50    2.60
  -9   1   5    1.60    2.50
   9   0  -5   -1.70    2.50
   9   0  -5    2.50    2.70
  -9   0   5    1.80    3.10
   9   1  -5    1.40    2.30
   9   1  -5   -2.70    2.90
  -9  -1   5   -2.30    3.00

_computing_structure_solution     'SHELXT 2014/4 (Sheldrick, 2014)'
;
_shelx_hkl_checksum              33241
loop_
_space_group_symop_operation_xyz
'x, y, z'
'-x, y+1/2, -z+1/2'
'-x, -y, -z'
'x, -y-1/2, z-1/2'
loop_
_atom_site_label
_atom_site_type_symbol
_atom_site_fract_x
_atom_site_fract_y
_atom_site_fract_z
_atom_site_U_iso_or_equiv
_atom_site_adp_type
_atom_site_occupancy
_atom_site_site_symmetry_order
_atom_site_calc_flag
_atom_site_refinement_flags_occupancy
_atom_site_disorder_assembly
_atom_site_disorder_group
N1 N 0.6285(3) 0.2507(3) 0.4400(3) 0.0424(7) Uani 0.5 1 d P A 1
B1 B 0.4838(3) 0.3876(4) 0.4497(3) 0.0329(6) Uani 0.5 1 d P A 1
C1 C 0.6285(3) 0.2507(3) 0.4400(3) 0.0424(7) Uani 0.5 1 d P A 2
C2 C 0.4838(3) 0.3876(4) 0.4497(3) 0.0329(6) Uani 0.5 1 d P A 2
C3 C 0.7870(3) 0.3221(4) 0.5226(3) 0.0448(7) Uani 1 1 d . . .
C4 C 0.8243(3) 0.5287(4) 0.6204(3) 0.0424(7) Uani 1 1 d . . .
C5 C 0.6967(3) 0.6800(4) 0.6397(3) 0.0456(7) Uani 1 1 d . . .
H1 H 0.720(4) 0.812(7) 0.702(4) 0.073(10) Uiso 1 1 d . . .
H2 H 0.616(3) 0.089(5) 0.373(4) 0.061(8) Uiso 1 1 d . . .
H3 H 0.948(3) 0.558(5) 0.676(4) 0.053(7) Uiso 1 1 d . . .
H4 H 0.880(4) 0.216(5) 0.515(4) 0.059(8) Uiso 1 1 d . . .
loop_
_atom_site_aniso_label
_atom_site_aniso_U_11
_atom_site_aniso_U_22
_atom_site_aniso_U_33
_atom_site_aniso_U_23
_atom_site_aniso_U_13
_atom_site_aniso_U_12
N1 0.0643(14) 0.0292(11) 0.0342(11) 0.0044(8) 0.0151(10) 0.0036(9)
B1 0.0506(13) 0.0240(11) 0.0246(11) 0.0064(8) 0.0119(10) -0.0033(9)
C1 0.0643(14) 0.0292(11) 0.0342(11) 0.0044(8) 0.0151(10) 0.0036(9)
C2 0.0506(13) 0.0240(11) 0.0246(11) 0.0064(8) 0.0119(10) -0.0033(9)
C3 0.0565(14) 0.0421(14) 0.0367(13) 0.0089(10) 0.0151(11) 0.0051(11)
C4 0.0368(12) 0.0523(15) 0.0364(12) 0.0124(10) 0.0080(9) -0.0060(10)
C5 0.0699(16) 0.0337(13) 0.0334(12) 0.0058(10) 0.0155(11) -0.0125(11)
loop_
_atom_type_symbol
_atom_type_description
_atom_type_scat_dispersion_real
_atom_type_scat_dispersion_imag
_atom_type_scat_source
C C 0.0181 0.0091 'International Tables Vol C Tables 4.2.6.8 and 6.1.1.4'
H H 0.0000 0.0000 'International Tables Vol C Tables 4.2.6.8 and 6.1.1.4'
B B 0.0090 0.0039 'International Tables Vol C Tables 4.2.6.8 and 6.1.1.4'
N N 0.0311 0.0180 'International Tables Vol C Tables 4.2.6.8 and 6.1.1.4'
loop_
_geom_angle_atom_site_label_1
_geom_angle_atom_site_label_2
_geom_angle_atom_site_label_3
_geom_angle
_geom_angle_site_symmetry_1
_geom_angle_site_symmetry_3
C3 N1 B1 120.2(2) . .
C3 N1 H2 116.9(15) . .
B1 N1 H2 122.8(15) . .
N1 B1 C5 123.4(2) . 3_666
N1 B1 C2 118.6(2) . 3_666
C5 B1 C2 118.0(3) 3_666 3_666
C3 C1 C2 120.2(2) . .
C3 C1 H2 116.9(15) . .
C2 C1 H2 122.8(15) . .
C1 C2 C5 123.4(2) . 3_666
C1 C2 B1 118.6(2) . 3_666
C5 C2 B1 118.0(3) 3_666 3_666
C1 C3 C4 123.5(2) . .
C1 C3 H4 115.9(17) . .
C4 C3 H4 120.6(17) . .
C3 C4 C5 122.5(2) . .
C3 C4 H3 114.3(15) . .
C5 C4 H3 123.1(16) . .
C4 C5 B1 117.1(2) . 3_666
C4 C5 H1 122.7(19) . .
B1 C5 H1 120.2(19) 3_666 .
loop_
_geom_bond_atom_site_label_1
_geom_bond_atom_site_label_2
_geom_bond_distance
_geom_bond_site_symmetry_2
N1 C3 1.328(3) .
N1 B1 1.438(3) .
N1 H2 1.06(3) .
B1 C5 1.483(3) 3_666
B1 C2 1.492(4) 3_666
C1 C3 1.328(3) .
C1 C2 1.438(3) .
C1 H2 1.06(3) .
C2 C5 1.483(3) 3_666
C3 C4 1.392(3) .
C3 H4 0.99(3) .
C4 C5 1.397(3) .
C4 H3 0.99(3) .
C5 C2 1.483(3) 3_666
C5 H1 0.89(4) .
loop_
_geom_torsion_atom_site_label_1
_geom_torsion_atom_site_label_2
_geom_torsion_atom_site_label_3
_geom_torsion_atom_site_label_4
_geom_torsion
_geom_torsion_site_symmetry_4
C3 C1 C2 C5 179.6(2) 3_666
C3 C1 C2 B1 1.4(3) 3_666
C2 C1 C3 C4 -0.5(3) .
N1 C3 C4 C5 -0.2(3) .
C3 C4 C5 B1 -0.1(3) 3_666
