#------------------------------------------------------------------------------
#$Date: 2016-03-22 22:13:18 +0200 (Tue, 22 Mar 2016) $
#$Revision: 179035 $
#$URL: svn://www.crystallography.net/cod/cif/4/12/33/4123385.cif $
#------------------------------------------------------------------------------
#
# This file is available in the Crystallography Open Database (COD),
# http://www.crystallography.net/
#
# All data on this site have been placed in the public domain by the
# contributors.
#
data_4123385
loop_
_publ_author_name
'Panda, Manas K.'
'Run\<cevski, Tom\<ce'
'Husain, Ahmad'
'Dinnebier, Robert E.'
'Naumov, Pan\<ce'
_publ_section_title
;
 Perpetually self-propelling chiral single crystals.
;
_journal_issue                   5
_journal_name_full               'Journal of the American Chemical Society'
_journal_page_first              1895
_journal_page_last               1902
_journal_paper_doi               10.1021/ja5111927
_journal_volume                  137
_journal_year                    2015
_chemical_absolute_configuration d
_chemical_formula_moiety         'C5 H7 N O3'
_chemical_formula_sum            'C5 H7 N O3'
_chemical_formula_weight         129.12
_chemical_name_common            'D-pyroglutamic acid'
_chemical_name_systematic
;
 ?
;
_space_group_crystal_system      orthorhombic
_space_group_IT_number           19
_space_group_name_Hall           'P 2ac 2ab'
_space_group_name_H-M_alt        'P 21 21 21'
_symmetry_space_group_name_Hall  'P 2ac 2ab'
_symmetry_space_group_name_H-M   'P 21 21 21'
_atom_sites_solution_hydrogens   geom
_audit_creation_method           SHELXL-2013
_cell_angle_alpha                90
_cell_angle_beta                 90
_cell_angle_gamma                90
_cell_formula_units_Z            4
_cell_length_a                   4.4250(10)
_cell_length_b                   9.162(2)
_cell_length_c                   14.747(3)
_cell_measurement_reflns_used    1534
_cell_measurement_temperature    361(2)
_cell_measurement_theta_max      30.52
_cell_measurement_theta_min      2.62
_cell_volume                     597.9(2)
_computing_cell_refinement       'Bruker SAINT'
_computing_data_collection       'Bruker APEX2'
_computing_data_reduction        'Bruker SAINT'
_computing_structure_refinement  'SHELXL-2013 (Sheldrick, 2013)'
_computing_structure_solution    'SHELXS-97 (Sheldrick, 2008)'
_diffrn_ambient_temperature      361(2)
_diffrn_measured_fraction_theta_full 0.997
_diffrn_measured_fraction_theta_max 0.996
_diffrn_measurement_device_type  'Bruker APEX-II CCD'
_diffrn_measurement_method       '\f and \w scans'
_diffrn_radiation_source         'sealed tube'
_diffrn_radiation_type           MoK\a
_diffrn_radiation_wavelength     0.71073
_diffrn_reflns_av_R_equivalents  0.0286
_diffrn_reflns_av_unetI/netI     0.0332
_diffrn_reflns_Laue_measured_fraction_full 0.997
_diffrn_reflns_Laue_measured_fraction_max 0.996
_diffrn_reflns_limit_h_max       6
_diffrn_reflns_limit_h_min       -6
_diffrn_reflns_limit_k_max       12
_diffrn_reflns_limit_k_min       -13
_diffrn_reflns_limit_l_max       11
_diffrn_reflns_limit_l_min       -20
_diffrn_reflns_number            4516
_diffrn_reflns_point_group_measured_fraction_full 0.998
_diffrn_reflns_point_group_measured_fraction_max 0.996
_diffrn_reflns_theta_full        25.242
_diffrn_reflns_theta_max         30.521
_diffrn_reflns_theta_min         2.617
_exptl_absorpt_coefficient_mu    0.120
_exptl_absorpt_correction_type   multi-scan
_exptl_absorpt_process_details   sadabs
_exptl_crystal_colour            colourless
_exptl_crystal_density_diffrn    1.434
_exptl_crystal_description       rod
_exptl_crystal_F_000             272
_exptl_crystal_size_max          0.500
_exptl_crystal_size_mid          0.300
_exptl_crystal_size_min          0.200
_exptl_transmission_factor_max   0.7461
_exptl_transmission_factor_min   0.7222
_refine_diff_density_max         0.274
_refine_diff_density_min         -0.165
_refine_diff_density_rms         0.036
_refine_ls_abs_structure_details
;
 Flack x determined using 342 quotients [(I+)-(I-)]/[(I+)+(I-)]
 (Parsons and Flack (2004), Acta Cryst. A60, s61).
;
_refine_ls_extinction_method     none
_refine_ls_goodness_of_fit_ref   1.019
_refine_ls_hydrogen_treatment    constr
_refine_ls_matrix_type           full
_refine_ls_number_parameters     82
_refine_ls_number_reflns         1819
_refine_ls_number_restraints     0
_refine_ls_restrained_S_all      1.019
_refine_ls_R_factor_all          0.0848
_refine_ls_R_factor_gt           0.0507
_refine_ls_shift/su_max          0.000
_refine_ls_shift/su_mean         0.000
_refine_ls_structure_factor_coef Fsqd
_refine_ls_weighting_details
'w=1/[\s^2^(Fo^2^)+(0.0904P)^2^] where P=(Fo^2^+2Fc^2^)/3'
_refine_ls_weighting_scheme      calc
_refine_ls_wR_factor_gt          0.1510
_refine_ls_wR_factor_ref         0.1664
_reflns_Friedel_coverage         0.664
_reflns_Friedel_fraction_full    1.000
_reflns_Friedel_fraction_max     0.995
_reflns_number_gt                1049
_reflns_number_total             1819
_reflns_threshold_expression     'I > 2\s(I)'
_cod_data_source_file            ja5111927_si_017.cif
_cod_data_source_block           DPGA360K
_cod_depositor_comments
'Adding full bibliography for 4123369--4123385.cif.'
_cod_database_code               4123385
#BEGIN Tags that were not found in dictionaries:
_shelx_space_group_comment
;
The symmetry employed for this shelxl refinement is uniquely defined
by the following loop, which should always be used as a source of
symmetry information in preference to the above space-group names.
They are only intended as comments.
;
_shelx_estimated_absorpt_t_min   0.943
_shelx_estimated_absorpt_t_max   0.976
_shelxl_version_number           2013-4
_shelx_res_file
;
TITL T7 in P2(1)2(1)2(1)
CELL 0.71073 4.4250 9.1620 14.7467 90.000 90.000 90.000
ZERR 4.0000 0.0010 0.0021 0.0030 0.000 0.000 0.000
LATT -1
SYMM 0.5-X, -Y, 0.5+Z
SYMM 0.5+X, 0.5-Y, -Z
SYMM -X, 0.5+Y, 0.5-Z
SFAC C H N O
UNIT 20 28 4 12
MERG 2
OMIT -1 180
FMAP 2
GRID
PLAN 2 0 0
TEMP 88
SIZE 0.3 0.2 0.5
HTAB
BOND $H
CONF
MPLA C2 C3 C4 C5 N1
EQIV $1 -x+3/2, -y, z-1/2
HTAB O1 O3_$1
EQIV $2 x+1/2, -y-1/2, -z
HTAB N1 O2_$2
EQIV $3 -x+1, y+1/2, -z+1/2
HTAB C4 O3_$3
L.S. 4
ACTA
WGHT    0.090400
FVAR       0.73227
O1    4    1.048006    0.069307   -0.082109    11.00000    0.12380    0.13419 =
         0.05262    0.01271   -0.00693   -0.05025
AFIX  83
H1    2    0.982436    0.066249   -0.134083    11.00000   -1.20000
AFIX   0
O2    4    0.728503   -0.111988   -0.061751    11.00000    0.19052    0.09079 =
         0.06024    0.00392   -0.03127   -0.05701
O3    4    0.618716   -0.132417    0.256800    11.00000    0.14431    0.07676 =
         0.04842    0.00258    0.00420   -0.02871
N1    3    0.851481   -0.124316    0.119902    11.00000    0.12826    0.04822 =
         0.04262   -0.00465   -0.00087    0.00386
AFIX  43
H1A   2    0.803388   -0.211638    0.104110    11.00000   -1.20000
AFIX   0
C1    1    0.916929   -0.030310   -0.033601    11.00000    0.07950    0.05356 =
         0.04541   -0.00575    0.00176    0.00673
C2    1    1.027780   -0.030620    0.063062    11.00000    0.06520    0.07494 =
         0.04667   -0.00315   -0.00332    0.01198
AFIX  13
H2    2    1.240287   -0.060596    0.064895    11.00000   -1.20000
AFIX   0
C3    1    0.991008    0.117157    0.109370    11.00000    0.10642    0.06834 =
         0.06096   -0.01270    0.00319   -0.02642
AFIX  23
H3A   2    1.181311    0.169688    0.110173    11.00000   -1.20000
H3B   2    0.841486    0.175995    0.078107    11.00000   -1.20000
AFIX   0
C4    1    0.888791    0.082844    0.204302    11.00000    0.08665    0.06227 =
         0.06014   -0.01577    0.00280   -0.00579
AFIX  23
H4A   2    1.056905    0.087482    0.246416    11.00000   -1.20000
H4B   2    0.733658    0.150672    0.223894    11.00000   -1.20000
AFIX   0
C5    1    0.767442   -0.067296    0.198521    11.00000    0.07817    0.05596 =
         0.04293   -0.00102   -0.00864    0.00498
HKLF 4

REM  T7 in P2(1)2(1)2(1)
REM R1 =  0.0507 for    1049 Fo > 4sig(Fo)  and  0.0848 for all    1819 data
REM     82 parameters refined using      0 restraints

END

WGHT      0.0904      0.0000

REM Instructions for potential hydrogen bonds
HTAB O1 O3_$1
HTAB N1 O2_$2
HTAB C4 O3_$3

REM Highest difference peak  0.274,  deepest hole -0.165,  1-sigma level  0.036
Q1    1   0.9108 -0.1204 -0.0780  11.00000  0.05    0.27
Q2    1   1.0853 -0.0355 -0.0873  11.00000  0.05    0.22
;
_shelx_res_checksum              32554
_shelx_hkl_file
;
   0   0  -3    0.89    0.16
   0   0  -4    7.29    0.38
   0   0  -5    0.05    0.15
   0   0  -5   -0.12    0.16
   0   0  -5   -0.07    0.15
   0   0  -6 2406.43   11.53
   0   0  -6 2240.86   10.95
   0   0  -7   -0.18    0.17
   0   0  -7    0.05    0.21
   0   0  -8   71.63    1.29
   0   0  -8   65.36    1.34
   0   0  -9   -0.12    0.17
   0   0  -9   -0.05    0.22
   0   0 -10    0.06    0.21
   0   0 -10    0.12    0.25
   0   0 -11    0.20    0.23
   0   0 -11    0.23    0.29
   0   0 -12   13.00    0.77
   0   0 -12   12.51    0.85
   0   0 -13   -0.21    0.27
   0   0 -13   -0.02    0.35
   0   0 -14    1.76    0.47
   0   0 -14    0.99    0.52
   0   0 -15    0.29    0.43
   0   0 -16   20.71    1.29
   0   0 -17   -0.04    0.51
   0   0 -18    2.82    0.76
   0   0 -19    0.46    0.61
   0   0 -20    1.41    0.74
   0  -1  -1   95.69    0.70
   0   1   1   95.87    0.70
   0  -1  -2  274.16    1.45
   0   1   2  276.38    1.46
   0  -1  -3   63.48    0.85
   0   1   3   66.70    0.87
   0  -1  -4 1145.20    3.98
   0  -1  -4 1114.71    6.05
   0   1  -4 1185.82    6.11
   0   1  -4 1139.96    3.93
   0   1   4 1126.89    6.81
   0  -1  -5    6.24    0.40
   0  -1  -5    6.86    0.42
   0   1  -5    6.77    0.40
   0   1  -5    6.40    0.40
   0   1   5    6.68    0.40
   0  -1  -6   77.50    1.06
   0  -1  -6   71.90    1.23
   0  -1  -6   72.75    1.27
   0   1  -6   76.15    1.26
   0   1  -6   71.07    1.22
   0   1   6   71.48    1.26
   0  -1  -7   17.80    0.60
   0  -1  -7   16.59    0.68
   0  -1  -7   15.42    0.69
   0  -1   7   15.99    0.69
   0   1  -7   16.75    0.67
   0   1  -7   15.85    0.67
   0   1   7   16.56    0.70
   0  -1  -8   86.43    1.32
   0  -1  -8   79.48    1.49
   0  -1  -8   80.39    1.55
   0   1  -8   85.28    1.51
   0   1  -8   79.84    1.48
   0  -1  -9   46.58    1.05
   0  -1  -9   42.02    1.18
   0  -1  -9   45.73    1.27
   0   1  -9   45.48    1.18
   0   1  -9   43.43    1.19
   0  -1 -10   30.38    0.92
   0  -1 -10   28.24    1.05
   0   1 -10   29.34    1.02
   0   1 -10   26.53    1.01
   0  -1 -11   10.26    0.62
   0  -1 -11    9.25    0.72
   0   1 -11   10.29    0.70
   0   1 -11    9.82    0.75
   0  -1 -12   27.97    1.01
   0  -1 -12   27.47    1.18
   0   1 -12   28.54    1.13
   0   1 -12   26.79    1.15
   0  -1 -13   12.08    0.91
   0   1 -13   11.73    0.82
   0   1 -13   13.67    0.94
   0  -1 -14   71.33    1.99
   0   1 -14   72.99    1.90
   0   1 -14   70.73    1.97
   0  -1 -15   10.69    1.01
   0   1 -15   11.78    0.93
   0   1 -15   10.00    0.98
   0  -1 -16    0.79    0.53
   0   1 -16    0.83    0.47
   0   1 -16    1.08    0.57
   0  -1 -17    0.59    0.50
   0   1 -17    1.15    0.59
   0  -1 -18   -0.43    0.48
   0   1 -18   -0.02    0.54
   0  -1 -19   -0.48    0.51
   0   1 -19   -0.34    0.56
   0  -1 -20   12.18    1.34
   0   1 -20   12.63    1.41
   0  -2  -1  298.39    1.59
   0   2   1  300.93    1.60
   0  -2  -2  240.74    1.81
   0  -2  -2  237.36    1.56
   0   2   2  240.98    1.57
   0  -2  -3  186.55    1.67
   0  -2  -3  186.62    1.55
   0   2  -3  195.63    1.73
   0   2   3  191.87    1.57
   0  -2  -4   23.36    0.64
   0   2  -4   24.78    0.70
   0   2  -4   22.76    0.65
   0   2   4   24.09    0.65
   0  -2  -5    0.78    0.24
   0  -2  -5    0.55    0.21
   0   2  -5    0.58    0.23
   0   2  -5    0.59    0.22
   0   2   5    0.57    0.21
   0  -2  -6   61.62    1.21
   0  -2  -6   61.79    1.21
   0   2  -6   65.93    1.27
   0   2  -6   60.44    1.19
   0   2   6   63.89    1.22
   0  -2  -7  303.35    2.09
   0  -2  -7  278.59    2.69
   0  -2  -7  285.10    2.73
   0  -2   7  282.63    2.86
   0   2  -7  300.02    2.83
   0   2  -7  278.74    2.65
   0   2   7  291.57    2.76
   0  -2  -8  233.23    2.00
   0  -2  -8  211.69    2.49
   0  -2  -8  214.02    2.53
   0   2  -8  231.31    2.64
   0   2  -8  211.81    2.46
   0  -2  -9   25.78    0.76
   0  -2  -9   22.50    0.93
   0  -2  -9   24.21    0.97
   0   2  -9   26.16    0.98
   0   2  -9   23.63    0.94
   0  -2 -10    1.19    0.28
   0  -2 -10    1.32    0.40
   0  -2 -10    1.06    0.35
   0   2 -10    1.16    0.35
   0   2 -10    0.89    0.35
   0  -2 -11   12.51    0.84
   0  -2 -11   10.97    0.80
   0   2 -11   12.94    0.81
   0   2 -11   12.10    0.81
   0  -2 -12   10.16    0.82
   0   2 -12   11.45    0.81
   0   2 -12   10.62    0.85
   0  -2 -13    9.15    0.85
   0   2 -13    8.52    0.78
   0   2 -13   10.62    0.88
   0  -2 -14    2.46    0.62
   0   2 -14    3.00    0.59
   0   2 -14    2.66    0.63
   0  -2 -15    2.35    0.64
   0   2 -15    3.05    0.64
   0   2 -15    2.17    0.58
   0  -2 -16    0.04    0.47
   0   2 -16   -0.20    0.37
   0   2 -16   -0.31    0.47
   0  -2 -17   11.96    1.21
   0   2 -17   12.55    1.10
   0   2 -17   13.74    1.19
   0  -2 -18    1.29    0.67
   0   2 -18    1.34    0.65
   0  -2 -19    0.22    0.57
   0   2 -19    0.45    0.63
   0  -2 -20   -0.23    0.64
   0   2 -20   -0.10    0.64
   0  -3  -1  135.88    1.54
   0  -3  -1  131.78    1.28
   0   3  -1  142.27    1.44
   0  -3  -2  136.40    1.59
   0  -3  -2  137.77    1.38
   0   3  -2  145.12    1.58
   0   3   2  136.34    1.37
   0  -3  -3  120.40    1.55
   0  -3  -3  124.66    1.40
   0   3  -3  126.54    1.57
   0   3   3  124.02    1.40
   0  -3  -4    5.39    0.44
   0  -3  -4    5.33    0.40
   0   3  -4    5.12    0.42
   0   3   4    4.98    0.39
   0  -3  -5    9.65    0.53
   0   3  -5   10.37    0.58
   0   3   5    9.81    0.52
   0  -3  -6  237.72    2.52
   0  -3  -6  246.28    2.45
   0   3  -6  259.96    2.70
   0   3  -6  237.10    2.48
   0   3   6  257.23    2.50
   0  -3  -7    1.81    0.38
   0  -3  -7    2.15    0.37
   0   3  -7    2.53    0.41
   0   3  -7    2.13    0.38
   0  -3  -8    1.06    0.23
   0  -3  -8    1.47    0.34
   0  -3  -8    1.33    0.35
   0   3  -8    1.14    0.33
   0   3  -8    1.54    0.36
   0  -3  -9   73.12    1.66
   0  -3  -9   77.46    1.68
   0   3  -9   77.20    1.73
   0   3  -9   74.38    1.64
   0  -3 -10   55.43    1.53
   0  -3 -10   56.59    1.54
   0   3 -10   56.29    1.56
   0   3 -10   56.67    1.53
   0  -3 -11   19.57    1.03
   0   3 -11   19.74    1.03
   0   3 -11   20.81    1.04
   0  -3 -12   64.59    1.81
   0   3 -12   68.88    1.88
   0   3 -12   67.14    1.82
   0  -3 -13   18.17    1.11
   0   3 -13   20.73    1.15
   0   3 -13   18.38    1.09
   0  -3 -14   -0.01    0.42
   0   3 -14    0.33    0.40
   0   3 -14    0.05    0.42
   0  -3 -15    8.34    0.95
   0   3 -15    9.02    0.92
   0   3 -15    8.87    0.99
   0  -3 -16    1.79    0.65
   0   3 -16    1.41    0.55
   0   3 -16    1.79    0.64
   0  -3 -17    2.27    0.74
   0   3 -17    2.14    0.67
   0   3 -17    2.57    0.72
   0  -3 -18    2.13    0.78
   0   3 -18    2.52    0.77
   0   3 -18    2.92    0.81
   0  -3 -19   -0.26    0.59
   0   3 -19    0.25    0.53
   0   3 -19   -0.01    0.58
   0  -3 -20    0.39    0.70
   0   3 -20    0.04    0.75
   0   4   0 1482.02    4.93
   0  -4  -1   10.95    0.57
   0  -4  -1   10.80    0.50
   0   4  -1   12.45    0.54
   0   4   1   12.78    0.48
   0  -4  -2  197.24    2.18
   0  -4  -2  206.00    1.90
   0   4  -2  208.76    2.11
   0  -4  -3   92.44    1.55
   0  -4  -3   98.01    1.38
   0   4  -3   99.68    1.56
   0   4   3   97.06    1.38
   0  -4  -4   36.81    1.04
   0  -4  -4   40.00    0.96
   0   4  -4   39.15    1.05
   0   4   4   40.32    0.96
   0  -4  -5    0.28    0.26
   0  -4  -5    0.39    0.23
   0   4  -5    0.06    0.22
   0   4   5    0.29    0.22
   0  -4  -6  219.50    2.62
   0  -4  -6  225.12    2.46
   0   4  -6  236.01    2.76
   0   4   6  225.89    2.47
   0  -4  -7    4.68    0.54
   0  -4  -7    3.94    0.47
   0   4  -7    4.22    0.51
   0  -4  -8   72.67    1.67
   0  -4  -8   74.62    1.61
   0   4  -8   74.83    1.73
   0  -4  -9   85.72    1.89
   0  -4  -9   88.57    1.85
   0   4  -9   88.63    1.96
   0  -4 -10    1.87    0.47
   0  -4 -10    1.79    0.44
   0   4 -10    1.12    0.42
   0   4 -10    1.30    0.41
   0  -4 -11    8.35    0.85
   0   4 -11   10.04    0.85
   0   4 -11    8.48    0.81
   0  -4 -12    0.17    0.38
   0   4 -12    0.17    0.39
   0   4 -12    0.03    0.38
   0  -4 -13   -0.23    0.41
   0   4 -13    0.75    0.41
   0   4 -13    0.75    0.47
   0  -4 -14    2.76    0.64
   0   4 -14    2.21    0.61
   0   4 -14    2.02    0.61
   0  -4 -15    0.99    0.54
   0   4 -15    0.89    0.52
   0   4 -15    0.81    0.52
   0  -4 -16   11.81    1.12
   0   4 -16   13.72    1.19
   0   4 -16   13.56    1.19
   0  -4 -17    2.77    0.81
   0   4 -17    3.04    0.75
   0   4 -17    3.68    0.83
   0  -4 -18    0.49    0.61
   0   4 -18    0.20    0.58
   0   4 -18    0.40    0.60
   0  -4 -19   -0.36    0.62
   0   4 -19   -0.18    0.49
   0   4 -19   -0.37    0.57
   0  -4 -20    0.13    0.67
   0   4 -20    0.06    0.57
   0  -5   0   -0.19    0.23
   0  -5   0    0.13    0.18
   0   5   0    0.19    0.18
   0  -5  -1    6.56    0.55
   0  -5  -1    6.48    0.45
   0   5  -1    6.78    0.47
   0   5   1    6.76    0.41
   0  -5  -2   18.25    0.81
   0  -5  -2   17.06    0.66
   0   5  -2   18.18    0.73
   0   5   2   18.51    0.59
   0  -5  -3   11.20    0.66
   0  -5  -3   11.87    0.59
   0   5  -3   12.88    0.66
   0   5   3   13.11    0.49
   0  -5  -4  189.92    1.65
   0  -5  -4  177.97    2.42
   0  -5  -4  183.18    2.14
   0   5  -4  184.24    2.40
   0   5   4  187.26    1.63
   0   5   4  184.08    2.14
   0  -5  -5   70.01    1.59
   0  -5  -5   70.32    1.41
   0   5  -5   73.27    1.60
   0   5   5   72.93    1.49
   0  -5  -6   25.06    1.03
   0  -5  -6   26.48    0.94
   0   5  -6   26.83    1.05
   0  -5  -7    6.78    0.62
   0  -5  -7    7.78    0.61
   0   5  -7    7.16    0.64
   0  -5  -8    0.70    0.37
   0  -5  -8    0.52    0.30
   0   5  -8    0.53    0.34
   0  -5  -9    2.23    0.52
   0  -5  -9    1.65    0.41
   0   5  -9    2.74    0.56
   0  -5 -10   63.14    1.82
   0   5 -10   65.52    1.88
   0  -5 -11    0.99    0.50
   0   5 -11    1.68    0.52
   0  -5 -12   54.65    1.84
   0   5 -12   55.84    1.88
   0  -5 -13    2.37    0.65
   0   5 -13    2.29    0.61
   0  -5 -14    6.93    0.95
   0   5 -14    7.47    0.93
   0  -5 -15    1.76    0.65
   0   5 -15    1.98    0.68
   0  -5 -16   -0.01    0.47
   0   5 -16   -0.20    0.49
   0  -5 -17    0.12    0.52
   0   5 -17   -0.27    0.50
   0  -5 -18    3.09    0.90
   0   5 -18    3.14    0.81
   0  -5 -19   -0.16    0.65
   0   5 -19    0.48    0.60
   0  -6   0   96.67    1.88
   0  -6   0   97.66    1.58
   0   6   0   98.37    1.60
   0  -6  -1    0.78    0.35
   0  -6  -1    1.13    0.30
   0   6  -1    1.30    0.31
   0   6   1    1.84    0.31
   0  -6  -2   14.29    0.82
   0  -6  -2   14.08    0.68
   0   6  -2   13.80    0.72
   0   6   2   14.34    0.60
   0  -6  -3   75.26    1.72
   0  -6  -3   76.26    1.46
   0   6  -3   78.30    1.63
   0   6   3   79.22    1.26
   0  -6  -4    5.26    0.60
   0  -6  -4    6.14    0.53
   0   6  -4    5.88    0.57
   0  -6  -5    0.27    0.33
   0  -6  -5    0.31    0.27
   0   6  -5    0.43    0.28
   0  -6  -6    0.23    0.35
   0  -6  -6    0.37    0.28
   0   6  -6    0.49    0.30
   0  -6  -7   15.04    0.94
   0  -6  -7   14.74    0.83
   0   6  -7   16.94    0.97
   0  -6  -8   22.30    1.15
   0  -6  -8   22.81    1.04
   0   6  -8   24.35    1.18
   0  -6  -9   97.58    2.28
   0   6  -9  102.26    2.35
   0  -6 -10   28.15    1.37
   0   6 -10   30.34    1.40
   0  -6 -11    3.64    0.69
   0   6 -11    4.20    0.75
   0  -6 -12    2.27    0.63
   0   6 -12    2.50    0.62
   0  -6 -13    5.97    0.89
   0   6 -13    5.10    0.82
   0  -6 -14    3.95    0.78
   0   6 -14    5.19    0.89
   0  -6 -15    1.07    0.61
   0   6 -15    1.02    0.57
   0  -6 -16   -0.27    0.46
   0   6 -16    0.35    0.55
   0  -6 -17    0.04    0.57
   0   6 -17    0.57    0.62
   0  -6 -18    0.27    0.59
   0   6 -18    0.79    0.66
   0  -7   0   -0.20    0.30
   0  -7   0   -0.08    0.23
   0   7   0    0.04    0.23
   0  -7  -1    7.08    0.71
   0  -7  -1    6.94    0.57
   0  -7   1    6.71    0.69
   0  -7   1    6.95    0.58
   0   7  -1    7.23    0.58
   0   7   1    7.15    0.53
   0  -7  -2    2.06    0.47
   0  -7  -2    2.16    0.40
   0   7  -2    1.88    0.41
   0   7   2    2.06    0.34
   0  -7  -3    1.04    0.42
   0  -7  -3    1.19    0.34
   0   7  -3    1.79    0.42
   0  -7  -4   39.55    1.40
   0  -7  -4   39.15    1.19
   0   7  -4   41.90    1.36
   0  -7  -5   14.81    0.97
   0  -7  -5   14.94    0.83
   0   7  -5   15.98    0.94
   0  -7  -6   63.29    1.83
   0  -7  -6   66.80    1.63
   0   7  -6   68.04    1.85
   0  -7  -7    3.11    0.63
   0  -7  -7    3.63    0.57
   0   7  -7    4.18    0.67
   0  -7  -8    1.52    0.53
   0   7  -8    1.33    0.50
   0  -7  -9    0.31    0.48
   0   7  -9    0.52    0.41
   0  -7 -10   -0.20    0.43
   0   7 -10    0.01    0.32
   0  -7 -11   -0.24    0.44
   0   7 -11    0.13    0.42
   0  -7 -12    0.00    0.50
   0   7 -12    0.32    0.46
   0  -7 -13    1.19    0.62
   0   7 -13    1.38    0.55
   0  -7 -14    0.25    0.56
   0   7 -14    1.13    0.56
   0  -7 -15    0.58    0.58
   0   7 -15   -0.01    0.45
   0  -7 -16    1.10    0.66
   0   7 -16    0.92    0.64
   0  -7 -17    0.39    0.66
   0   7 -17    1.43    0.77
   0  -8   0   23.45    1.20
   0   8   0   24.91    1.01
   0  -8  -1    4.77    0.69
   0  -8   1    4.38    0.67
   0   8  -1    5.98    0.62
   0  -8  -2    3.79    0.69
   0   8  -2    3.94    0.57
   0  -8  -3    2.27    0.54
   0   8  -3    2.24    0.49
   0  -8  -4    9.10    0.86
   0   8  -4    9.56    0.79
   0  -8  -5    0.26    0.41
   0   8  -5    0.16    0.32
   0  -8  -6   14.38    1.07
   0   8  -6   15.52    1.06
   0  -8  -7    1.03    0.54
   0   8  -7    0.83    0.47
   0  -8  -8   22.73    1.34
   0   8  -8   23.40    1.30
   0  -8  -9    1.48    0.58
   0   8  -9    1.86    0.55
   0  -8 -10    5.57    0.90
   0   8 -10    7.50    0.90
   0  -8 -11    1.28    0.61
   0   8 -11    1.22    0.57
   0  -8 -12    0.94    0.61
   0   8 -12   -0.31    0.39
   0  -8 -13    1.73    0.69
   0   8 -13    1.75    0.68
   0  -8 -14    4.08    0.86
   0   8 -14    3.49    0.84
   0  -8 -15    0.54    0.64
   0   8 -15    1.31    0.67
   0  -8 -16    1.91    0.71
   0   8 -16    2.18    0.76
   0  -9   0   -0.29    0.42
   0  -9  -1   18.03    1.19
   0  -9   1   19.71    1.23
   0   9  -1   19.98    1.09
   0  -9  -2    1.02    0.54
   0  -9   2    0.87    0.50
   0   9  -2    1.66    0.50
   0  -9  -3    1.06    0.50
   0   9  -3    1.38    0.47
   0  -9  -4    0.28    0.47
   0   9  -4    0.42    0.36
   0  -9  -5    0.81    0.49
   0   9  -5    0.37    0.38
   0  -9  -6   17.36    1.23
   0   9  -6   19.34    1.20
   0  -9  -7    0.20    0.48
   0   9  -7    0.35    0.45
   0  -9  -8    0.25    0.48
   0   9  -8   -0.16    0.42
   0  -9  -9    0.99    0.57
   0   9  -9    1.41    0.56
   0  -9 -10    3.80    0.81
   0   9 -10    4.45    0.81
   0  -9 -11    1.26    0.65
   0   9 -11    1.91    0.64
   0  -9 -12    2.43    0.79
   0   9 -12    2.32    0.70
   0  -9 -13    0.49    0.64
   0   9 -13    0.56    0.53
   0  -9 -14    1.00    0.63
   0   9 -14    0.41    0.59
   0  -9 -15    1.12    0.73
   0   9 -15    0.13    0.61
   0 -10   0    0.19    0.49
   0 -10  -1    0.32    0.47
   0 -10   1    0.87    0.54
   0 -10  -2    0.45    0.50
   0 -10   2   -0.32    0.42
   0 -10  -3    1.52    0.59
   0 -10   3    2.60    0.69
   0  10  -3    2.02    0.57
   0 -10  -4    1.89    0.66
   0 -10   4    2.26    0.65
   0  10  -4    2.12    0.59
   0 -10  -5    0.46    0.52
   0  10  -5    0.94    0.51
   0 -10  -6   -0.24    0.44
   0  10  -6    0.26    0.43
   0 -10  -7    4.15    0.84
   0  10  -7    4.95    0.87
   0 -10  -8   -0.08    0.51
   0  10  -8   -0.12    0.44
   0 -10  -9    1.60    0.70
   0  10  -9    0.61    0.52
   0 -10 -10    0.23    0.56
   0  10 -10    0.49    0.50
   0 -10 -11    0.46    0.64
   0  10 -11   -0.03    0.48
   0 -10 -12   -0.17    0.60
   0  10 -12    0.11    0.58
   0 -10 -13    0.32    0.67
   0  10 -13    1.15    0.69
   0 -11   0    0.48    0.57
   0 -11  -1    2.79    0.76
   0 -11   1    2.71    0.77
   0 -11  -2    1.08    0.58
   0 -11   2   -0.12    0.52
   0 -11  -3    1.50    0.65
   0 -11   3    2.47    0.73
   0 -11  -4    1.57    0.63
   0 -11   4    0.49    0.58
   0 -11  -5    0.64    0.57
   0 -11   5    1.15    0.61
   0  11  -5    1.25    0.60
   0 -11  -6    4.04    0.91
   0  11  -6    3.21    0.77
   0 -11  -7   -0.10    0.54
   0  11  -7    0.16    0.46
   0 -11  -8   -0.54    0.52
   0  11  -8    0.45    0.56
   0 -11  -9   -0.07    0.58
   0  11  -9   -0.04    0.52
   0 -11 -10   -0.40    0.59
   0  11 -10   -0.19    0.50
   0 -11 -11    1.19    0.75
   0  11 -11    1.71    0.73
   0 -12   0    2.27    0.81
   0 -12  -1    1.51    0.70
   0 -12   1    0.54    0.62
   0 -12  -2    2.14    0.79
   0 -12   2    0.82    0.68
   0 -12  -3   -0.05    0.58
   0 -12   3   -0.43    0.57
   0 -12  -4    1.22    0.66
   0 -12   4    0.79    0.66
   0 -12  -5    0.62    0.63
   0 -12   5    0.24    0.59
   0 -12  -6    0.61    0.71
   0 -12   6    0.59    0.65
   0 -12  -7   -0.50    0.56
   0 -12   7    0.79    0.71
   0  12  -7   -0.17    0.57
   0 -12  -8    0.91    0.72
   0  12  -8    1.42    0.66
   0 -13   0    0.92    0.69
   0 -13  -1   -0.03    0.62
   0 -13   1   -0.05    0.64
   0 -13  -2    0.00    0.61
   0 -13   2   -0.29    0.62
  -1   0   1   60.89    0.76
   1   0  -1   60.17    0.75
  -1   0   2  133.17    1.22
   1   0  -2  142.43    1.40
   1   0  -2  132.65    1.21
  -1   0  -3  131.68    1.38
  -1   0   3  136.22    1.37
   1   0  -3  141.92    1.50
   1   0  -3  134.43    1.36
  -1   0  -4  758.47    3.65
  -1   0   4  805.93    3.64
   1   0  -4  824.02    3.83
   1   0  -4  777.87    3.58
  -1   0  -5  250.40    1.90
  -1   0  -5  239.79    2.25
   1   0  -5  261.56    2.31
   1   0  -5  242.96    2.20
  -1   0  -6  104.01    1.33
  -1   0  -6   93.83    1.54
  -1   0   6   98.54    1.54
   1   0  -6  107.82    1.60
   1   0  -6   97.08    1.19
   1   0  -6   96.26    1.52
  -1   0  -7    0.80    0.23
  -1   0  -7    0.74    0.30
  -1   0   7    0.83    0.28
   1   0  -7    0.64    0.27
   1   0  -7    0.67    0.22
   1   0  -7    0.58    0.27
   1   0   7    0.71    0.25
  -1   0  -8  120.88    1.62
  -1   0  -8  112.95    1.91
   1   0  -8  124.43    1.91
   1   0  -8  115.36    1.57
   1   0  -8  115.03    1.90
  -1   0  -9   28.84    0.87
  -1   0  -9   26.80    1.02
   1   0  -9   29.64    1.03
   1   0  -9   27.62    0.87
   1   0  -9   27.95    1.05
  -1   0 -10    9.00    0.57
  -1   0 -10    8.72    0.71
   1   0 -10    8.82    0.68
   1   0 -10    8.99    0.59
   1   0 -10    9.71    0.72
  -1   0 -11   56.67    1.35
  -1   0 -11   52.28    1.57
   1   0 -11   57.14    1.54
   1   0 -11   52.80    1.34
  -1   0 -12   63.45    1.50
  -1   0 -12   61.25    1.79
   1   0 -12   64.68    1.72
   1   0 -12   63.11    1.56
  -1   0 -13   46.26    1.65
   1   0 -13   51.81    1.60
   1   0 -13   48.02    1.47
  -1   0 -14    9.85    0.96
   1   0 -14    9.61    0.87
   1   0 -14    9.35    0.83
  -1   0 -15    8.80    1.00
   1   0 -15   10.87    0.92
  -1   0 -16    8.45    1.05
   1   0 -16    9.50    0.93
  -1   0 -17    0.88    0.61
  -1   0 -18    1.87    0.75
  -1   0 -19    8.90    1.23
  -1   0 -20    0.55    0.71
   1  -1   0 2104.00   11.11
   1   1   0 2005.75    6.27
  -1  -1   1 2418.22    8.41
  -1   1  -1 2396.00   12.30
  -1   1   1 2481.51   10.84
  -1   1   1 2424.31    9.97
   1  -1  -1 2461.45   11.03
   1  -1  -1 2304.62   10.36
   1   1  -1 2397.63    8.42
  -1  -1   2  157.26    1.17
  -1   1  -2  156.50    1.47
  -1   1   2  160.24    1.51
  -1   1   2  152.59    1.47
   1  -1  -2  159.32    1.52
   1  -1  -2  151.65    1.47
   1   1  -2  166.72    1.54
   1   1  -2  153.51    1.15
  -1  -1  -3  172.04    1.63
  -1  -1   3  176.09    1.45
  -1   1  -3  181.71    1.66
  -1   1  -3  167.45    1.62
  -1   1   3  181.92    1.69
  -1   1   3  176.80    1.70
   1  -1  -3  180.79    1.69
   1  -1  -3  172.48    1.68
   1   1  -3  187.94    1.77
   1   1  -3  171.14    1.43
  -1  -1  -4  108.07    1.43
  -1  -1   4  110.04    1.30
  -1   1  -4  116.05    1.40
  -1   1  -4  107.06    1.43
   1  -1  -4  119.99    1.47
   1  -1  -4  111.48    1.46
   1   1  -4  118.35    1.52
   1   1  -4  111.38    1.31
   1   1   4  107.16    1.23
  -1  -1  -5  186.96    2.02
  -1   1  -5  202.53    1.95
  -1   1  -5  186.54    2.03
   1  -1  -5  210.71    2.04
   1  -1  -5  193.67    2.06
   1   1  -5  205.17    2.13
   1   1  -5  193.57    1.91
   1   1   5  194.71    1.84
  -1  -1  -6    6.43    0.53
  -1  -1   6    6.37    0.47
  -1   1  -6    7.08    0.46
  -1   1  -6    6.68    0.52
  -1   1   6    6.20    0.49
   1  -1  -6    7.18    0.50
   1  -1  -6    6.56    0.41
   1  -1  -6    5.72    0.49
   1   1  -6    6.82    0.52
   1   1  -6    6.54    0.38
   1   1  -6    6.84    0.49
   1   1   6    6.26    0.44
  -1  -1  -7  315.12    2.14
  -1  -1  -7  309.64    2.98
  -1  -1   7  309.00    2.85
  -1   1  -7  333.14    2.80
  -1   1  -7  300.42    2.93
   1  -1  -7  349.28    2.93
   1  -1  -7  308.39    2.42
   1  -1  -7  314.14    2.99
   1   1  -7  332.08    3.04
   1   1  -7  308.06    2.35
   1   1  -7  308.61    2.85
   1   1   7  303.39    2.74
  -1  -1  -8    7.36    0.42
  -1  -1  -8    6.27    0.55
  -1   1  -8    6.71    0.49
  -1   1  -8    6.74    0.55
   1  -1  -8    6.66    0.53
   1  -1  -8    6.65    0.47
   1  -1  -8    6.81    0.58
   1   1  -8    6.24    0.56
   1   1  -8    6.53    0.46
   1   1  -8    6.83    0.57
  -1  -1  -9   41.86    0.94
  -1  -1  -9   41.27    1.27
  -1   1  -9   42.59    1.14
  -1   1  -9   40.18    1.26
   1  -1  -9   44.56    1.20
   1  -1  -9   40.79    1.06
   1  -1  -9   40.50    1.26
   1   1  -9   42.48    1.25
   1   1  -9   40.23    1.03
   1   1  -9   40.52    1.22
  -1  -1 -10    1.67    0.33
  -1  -1 -10    1.60    0.44
  -1   1 -10    1.86    0.38
  -1   1 -10    1.16    0.39
   1  -1 -10    1.78    0.40
   1  -1 -10    1.54    0.36
   1  -1 -10    1.20    0.38
   1   1 -10    1.20    0.37
   1   1 -10    1.35    0.32
  -1  -1 -11    7.96    0.77
  -1   1 -11    8.96    0.67
  -1   1 -11    9.05    0.80
   1  -1 -11    7.91    0.70
   1  -1 -11    8.22    0.63
   1   1 -11    8.58    0.72
   1   1 -11    7.87    0.63
  -1  -1 -12   38.17    1.46
  -1   1 -12   40.07    1.30
  -1   1 -12   37.77    1.45
   1  -1 -12   42.77    1.39
   1  -1 -12   38.64    1.27
   1   1 -12   40.97    1.43
   1   1 -12   37.18    1.24
  -1  -1 -13    4.25    0.68
  -1   1 -13    5.59    0.65
  -1   1 -13    4.37    0.73
   1  -1 -13    5.48    0.70
   1  -1 -13    4.29    0.62
   1   1 -13    5.23    0.75
   1   1 -13    4.70    0.63
  -1  -1 -14    1.61    0.57
  -1   1 -14    0.97    0.42
  -1   1 -14    0.88    0.50
   1  -1 -14    1.42    0.46
   1  -1 -14    1.22    0.46
   1   1 -14    1.12    0.45
   1   1 -14    1.24    0.46
  -1  -1 -15    4.61    0.84
  -1   1 -15    3.50    0.72
   1  -1 -15    3.10    0.67
   1   1 -15    3.94    0.67
  -1  -1 -16    3.52    0.79
  -1   1 -16    4.09    0.85
   1   1 -16    4.21    0.78
  -1  -1 -17   -0.19    0.48
  -1   1 -17    1.16    0.65
   1   1 -17    1.16    0.54
  -1  -1 -18    2.97    0.84
  -1   1 -18    3.02    0.84
   1   1 -18    3.52    0.81
  -1  -1 -19    0.52    0.70
  -1   1 -19    0.67    0.70
  -1  -1 -20    0.92    0.74
  -1   1 -20    1.05    0.74
  -1   2   0  722.61    3.39
  -1  -2  -1  530.91    2.66
  -1   2  -1  553.16    3.02
  -1   2   1  552.96    2.94
   1  -2  -1  552.49    2.94
   1  -2  -1  526.38    2.94
   1   2  -1  578.13    2.83
  -1  -2  -2  193.07    1.74
  -1  -2   2  194.79    1.22
  -1   2  -2  203.44    1.90
  -1   2   2  202.72    1.81
   1  -2  -2  202.49    1.81
   1  -2  -2  192.10    1.85
   1   2  -2  204.56    1.80
   1   2   2  196.06    1.06
  -1  -2  -3   55.66    1.03
  -1  -2   3   56.16    0.81
  -1   2  -3   57.02    1.06
  -1   2  -3   54.52    1.03
  -1   2   3   58.65    1.01
   1  -2  -3   57.81    1.01
   1  -2  -3   54.18    0.88
   1  -2  -3   55.88    1.07
   1   2  -3   58.88    1.07
   1   2   3   55.03    0.73
  -1  -2  -4  181.63    1.96
  -1  -2   4  182.86    1.65
  -1   2  -4  190.61    2.00
  -1   2  -4  177.90    1.95
  -1   2   4  194.67    1.88
   1  -2  -4  193.38    1.88
   1  -2  -4  184.22    1.64
   1  -2  -4  184.62    2.00
   1   2  -4  192.38    2.04
   1   2   4  180.18    1.53
  -1  -2  -5  112.13    1.65
  -1   2  -5  121.65    1.69
  -1   2  -5  113.68    1.68
   1  -2  -5  125.76    1.60
   1  -2  -5  117.61    1.41
   1  -2  -5  117.75    1.71
   1   2  -5  121.06    1.73
   1   2   5  116.87    1.40
  -1  -2  -6  217.17    2.44
  -1  -2   6  221.42    2.23
  -1   2  -6  233.09    2.44
  -1   2  -6  217.53    2.44
   1  -2  -6  241.10    2.30
   1  -2  -6  222.32    2.07
   1  -2  -6  223.59    2.47
   1   2  -6  232.76    2.53
   1   2  -6  218.84    1.96
   1   2   6  217.86    2.11
  -1  -2  -7    6.05    0.57
  -1  -2   7    4.38    0.44
  -1   2  -7    6.05    0.50
  -1   2  -7    5.66    0.51
   1  -2  -7    6.16    0.51
   1  -2  -7    5.09    0.42
   1  -2  -7    4.97    0.53
   1   2  -7    5.06    0.52
   1   2  -7    4.98    0.42
   1   2   7    5.53    0.45
  -1  -2  -8   42.42    1.26
  -1   2  -8   46.83    1.23
  -1   2  -8   43.93    1.27
   1  -2  -8   45.86    1.14
   1  -2  -8   44.23    1.08
   1  -2  -8   44.89    1.27
   1   2  -8   46.87    1.30
   1   2  -8   43.32    1.04
  -1  -2  -9   12.90    0.81
  -1   2  -9   13.03    0.72
  -1   2  -9   11.78    0.78
   1  -2  -9   13.46    0.70
   1  -2  -9   11.52    0.65
   1  -2  -9   11.78    0.76
   1   2  -9   13.12    0.79
   1   2  -9   12.59    0.66
  -1  -2 -10    3.07    0.55
  -1   2 -10    3.47    0.52
  -1   2 -10    2.72    0.49
   1  -2 -10    4.16    0.52
   1  -2 -10    3.53    0.49
   1  -2 -10    3.56    0.55
   1   2 -10    2.86    0.51
   1   2 -10    3.72    0.47
  -1  -2 -11    4.81    0.65
  -1   2 -11    4.94    0.57
  -1   2 -11    4.73    0.65
   1  -2 -11    5.38    0.60
   1  -2 -11    4.90    0.55
   1   2 -11    4.66    0.63
   1   2 -11    5.24    0.58
  -1  -2 -12   18.82    1.12
  -1   2 -12   20.05    1.03
  -1   2 -12   18.43    1.11
   1  -2 -12   20.00    1.00
   1  -2 -12   18.53    0.98
   1   2 -12   20.45    1.10
   1   2 -12   19.32    0.97
  -1  -2 -13   26.07    1.33
  -1   2 -13   29.06    1.24
  -1   2 -13   27.71    1.36
   1  -2 -13   29.62    1.25
   1  -2 -13   26.87    1.19
   1   2 -13   28.97    1.33
   1   2 -13   27.33    1.18
  -1  -2 -14    0.52    0.46
  -1   2 -14    0.69    0.40
  -1   2 -14    0.50    0.50
   1  -2 -14    1.03    0.48
   1   2 -14    0.45    0.40
   1   2 -14    0.76    0.42
  -1  -2 -15   10.10    1.05
  -1   2 -15   10.56    0.94
  -1   2 -15   10.09    1.06
   1  -2 -15    9.84    0.90
   1   2 -15   10.75    0.99
  -1  -2 -16    2.68    0.75
  -1   2 -16    3.38    0.81
   1   2 -16    3.77    0.74
  -1  -2 -17    1.22    0.67
  -1   2 -17    1.03    0.66
   1   2 -17    0.79    0.54
  -1  -2 -18    1.11    0.65
  -1   2 -18    0.87    0.67
   1   2 -18    0.99    0.57
  -1  -2 -19    2.97    0.87
  -1   2 -19    2.96    0.89
   1   2 -19    2.38    0.75
  -1  -2 -20    1.34    0.79
  -1   2 -20    1.47    0.80
  -1  -3   0  426.24    2.69
  -1   3   0  440.73    2.94
  -1  -3  -1   57.99    1.06
  -1  -3   1   58.21    1.00
  -1   3  -1   59.20    1.12
  -1   3   1   58.61    1.07
   1  -3  -1   57.01    1.12
   1   3  -1   61.11    1.00
  -1  -3  -2   62.96    1.15
  -1  -3  -2   63.85    0.65
  -1  -3   2   63.91    0.76
  -1   3  -2   64.79    1.21
  -1   3   2   65.84    1.13
   1  -3  -2   66.30    1.14
   1  -3  -2   62.55    1.08
   1  -3  -2   64.38    1.21
   1   3  -2   67.27    1.13
   1   3   2   63.57    0.65
  -1  -3  -3  309.55    2.62
  -1  -3  -3  311.83    1.74
  -1  -3   3  311.65    1.94
  -1   3  -3  322.19    2.76
  -1   3   3  317.38    2.45
  -1   3   3  308.11    2.67
   1  -3  -3  323.24    2.49
   1  -3  -3  309.25    2.39
   1  -3  -3  305.34    2.65
   1   3  -3  323.25    2.62
   1   3   3  312.41    1.75
  -1  -3  -4  145.02    1.91
  -1  -3  -4  143.29    1.39
  -1  -3   4  150.89    1.54
  -1   3  -4  153.55    1.98
  -1   3   4  153.12    1.74
  -1   3   4  147.53    1.94
   1  -3  -4  155.04    1.77
   1  -3  -4  144.84    1.70
   1  -3  -4  145.81    1.92
   1   3  -4  147.98    1.90
   1   3   4  145.74    1.40
  -1  -3  -5  122.57    1.84
  -1  -3  -5  122.98    1.45
  -1   3  -5  131.70    1.92
  -1   3  -5  125.16    1.88
  -1   3   5  132.67    1.67
   1  -3  -5  137.46    1.71
   1  -3  -5  125.25    1.65
   1  -3  -5  126.50    1.88
   1   3  -5  128.23    1.88
   1   3   5  130.12    1.49
  -1  -3  -6  152.66    2.17
  -1  -3  -6  148.90    1.76
  -1  -3   6  155.66    1.90
  -1   3  -6  160.04    2.20
  -1   3  -6  150.00    2.16
   1  -3  -6  165.05    1.94
   1  -3  -6  153.18    1.92
   1  -3  -6  154.96    2.18
   1   3  -6  161.77    2.23
   1   3   6  154.07    1.79
  -1  -3  -7   63.33    1.50
  -1  -3   7   65.76    1.41
  -1   3  -7   68.63    1.52
  -1   3  -7   64.80    1.51
   1  -3  -7   71.69    1.35
   1  -3  -7   63.12    1.31
   1  -3  -7   65.63    1.51
   1   3  -7   67.77    1.55
   1   3   7   63.96    1.27
  -1  -3  -8   18.89    0.91
  -1   3  -8   20.83    0.91
  -1   3  -8   19.30    0.93
   1  -3  -8   21.17    0.80
   1  -3  -8   18.32    0.79
   1  -3  -8   19.34    0.91
   1   3  -8   20.54    0.94
  -1  -3  -9   53.89    1.52
  -1   3  -9   58.07    1.53
  -1   3  -9   56.36    1.56
   1  -3  -9   61.28    1.36
   1  -3  -9   54.81    1.35
   1  -3  -9   57.45    1.56
   1   3  -9   59.77    1.59
  -1  -3 -10   37.36    1.37
  -1   3 -10   39.48    1.33
  -1   3 -10   37.38    1.36
   1  -3 -10   42.35    1.20
   1  -3 -10   36.75    1.20
   1   3 -10   41.03    1.41
   1   3 -10   37.86    1.18
  -1  -3 -11   14.18    0.98
  -1   3 -11   15.04    0.95
  -1   3 -11   14.03    0.94
   1  -3 -11   16.98    0.87
   1  -3 -11   14.78    0.89
   1   3 -11   16.10    1.00
   1   3 -11   14.99    0.87
  -1  -3 -12   22.11    1.22
  -1   3 -12   23.29    1.15
  -1   3 -12   21.03    1.20
   1  -3 -12   20.71    1.07
   1   3 -12   23.28    1.22
   1   3 -12   23.63    1.09
  -1  -3 -13    1.60    0.53
  -1   3 -13    1.65    0.50
  -1   3 -13    2.31    0.63
   1  -3 -13    2.35    0.55
   1   3 -13    2.30    0.61
   1   3 -13    2.73    0.55
  -1  -3 -14    0.14    0.48
  -1   3 -14    0.11    0.41
  -1   3 -14    0.22    0.46
   1  -3 -14    0.40    0.41
   1   3 -14    0.61    0.43
   1   3 -14    0.12    0.40
  -1  -3 -15    2.68    0.70
  -1   3 -15    3.38    0.70
  -1   3 -15    4.94    0.89
   1  -3 -15    3.61    0.70
   1   3 -15    2.73    0.69
  -1  -3 -16    4.44    0.83
  -1   3 -16    5.93    0.86
  -1   3 -16    8.52    1.12
   1   3 -16    7.04    0.97
  -1  -3 -17    3.39    0.85
  -1   3 -17    2.55    0.73
  -1   3 -17    2.05    0.75
   1   3 -17    2.73    0.75
  -1  -3 -18    5.61    1.04
  -1   3 -18    5.53    1.03
   1   3 -18    4.98    0.88
  -1  -3 -19    0.00    0.66
  -1   3 -19    0.34    0.65
   1   3 -19    0.05    0.55
  -1  -3 -20    0.10    0.69
  -1   3 -20    0.66    0.74
   1   3 -20    0.02    0.55
  -1  -4   0   32.25    0.90
  -1  -4   0   31.50    0.49
  -1   4   0   30.80    0.89
   1   4   0   33.58    0.76
  -1  -4  -1   50.13    1.13
  -1  -4  -1   51.61    0.63
  -1  -4   1   50.90    1.10
  -1   4  -1   48.60    1.13
  -1   4   1   50.98    1.10
   1  -4  -1   48.89    1.15
   1   4  -1   52.91    1.02
  -1  -4  -2   31.11    0.94
  -1  -4  -2   33.05    0.57
  -1   4  -2   31.78    0.94
  -1   4   2   32.89    0.88
   1  -4  -2   32.83    0.89
   1  -4  -2   31.54    0.91
   1  -4  -2   32.13    0.96
   1   4  -2   33.16    0.88
  -1  -4  -3   88.17    1.58
  -1  -4  -3   87.42    1.02
  -1   4  -3   90.07    1.61
  -1   4   3   89.64    1.41
   1  -4  -3   89.80    1.42
   1  -4  -3   84.49    1.46
   1  -4  -3   87.55    1.57
   1   4  -3   88.22    1.49
   1   4   3   87.04    1.02
  -1  -4  -4   55.10    1.31
  -1  -4  -4   55.73    0.93
  -1   4  -4   57.17    1.34
  -1   4   4   58.26    1.16
   1  -4  -4   58.59    1.18
   1  -4  -4   54.58    1.22
   1  -4  -4   56.66    1.31
   1   4  -4   56.87    1.28
   1   4   4   56.16    0.93
  -1  -4  -5   89.73    1.72
  -1  -4  -5   92.45    1.31
  -1   4  -5   97.36    1.80
  -1   4   5   95.83    1.49
   1  -4  -5   99.67    1.53
   1  -4  -5   89.59    1.58
   1  -4  -5   93.30    1.72
   1   4  -5   93.08    1.72
   1   4   5   94.61    1.32
  -1  -4  -6   42.36    1.25
  -1  -4  -6   41.61    0.98
  -1  -4   6   43.68    1.06
  -1   4  -6   43.20    1.26
  -1   4   6   43.56    1.04
   1  -4  -6   46.10    1.09
   1  -4  -6   42.69    1.15
   1  -4  -6   43.39    1.25
   1   4  -6   44.27    1.27
   1   4   6   44.57    1.01
  -1  -4  -7   14.18    0.83
  -1  -4  -7   13.80    0.66
  -1   4  -7   14.50    0.81
   1  -4  -7   15.50    0.70
   1  -4  -7   13.78    0.74
   1  -4  -7   13.61    0.80
   1   4  -7   14.23    0.82
   1   4   7   14.60    0.66
  -1  -4  -8    1.23    0.42
  -1  -4  -8    1.05    0.30
  -1   4  -8    1.38    0.40
  -1   4  -8    1.41    0.43
   1  -4  -8    1.29    0.34
   1  -4  -8    1.58    0.39
   1  -4  -8    1.48    0.39
   1   4  -8    1.35    0.39
  -1  -4  -9    1.34    0.42
  -1  -4  -9    1.45    0.37
  -1   4  -9    2.18    0.50
  -1   4  -9    1.77    0.49
   1  -4  -9    1.48    0.37
   1  -4  -9    1.40    0.39
   1   4  -9    1.55    0.43
  -1  -4 -10   28.36    1.28
  -1   4 -10   31.41    1.28
  -1   4 -10   30.16    1.30
   1  -4 -10   29.08    1.17
   1   4 -10   29.47    1.27
  -1  -4 -11   80.47    2.12
  -1   4 -11   85.64    2.12
  -1   4 -11   79.54    2.09
   1  -4 -11   80.38    1.92
   1   4 -11   86.59    2.19
  -1  -4 -12   17.60    1.16
  -1   4 -12   17.01    1.08
  -1   4 -12   16.78    1.13
   1  -4 -12   17.62    1.05
   1   4 -12   17.46    1.14
  -1  -4 -13    1.23    0.53
  -1   4 -13    2.13    0.57
  -1   4 -13    1.01    0.50
   1  -4 -13    1.22    0.51
   1   4 -13    1.16    0.51
  -1  -4 -14    8.29    0.97
  -1   4 -14    8.10    0.93
  -1   4 -14    7.46    0.96
   1  -4 -14    7.08    0.87
   1   4 -14    6.92    0.93
  -1  -4 -15    0.85    0.54
  -1   4 -15    1.29    0.58
  -1   4 -15    1.12    0.59
   1  -4 -15    1.34    0.55
   1   4 -15    2.11    0.64
  -1  -4 -16    0.35    0.55
  -1   4 -16   -0.01    0.46
  -1   4 -16    1.00    0.64
   1   4 -16    0.32    0.46
  -1  -4 -17    3.38    0.90
  -1   4 -17    3.61    0.80
  -1   4 -17    4.35    0.95
   1   4 -17    4.33    0.86
  -1  -4 -18    0.01    0.62
  -1   4 -18    1.15    0.59
  -1   4 -18    0.60    0.66
   1   4 -18    0.23    0.51
  -1  -4 -19   -0.32    0.61
  -1   4 -19    0.53    0.70
   1   4 -19    0.37    0.60
  -1  -5   0  249.36    2.70
  -1  -5   0  243.27    1.64
  -1   5   0  250.63    2.64
   1  -5   0  244.71    2.69
   1   5   0  258.89    2.24
  -1  -5  -1   19.59    0.84
  -1  -5  -1   21.09    0.52
  -1  -5   1   21.00    0.84
  -1   5  -1   21.13    0.84
  -1   5   1   21.14    0.80
   1  -5  -1   21.19    0.86
   1   5  -1   22.28    0.75
   1   5   1   21.03    0.62
  -1  -5  -2   28.78    1.01
  -1  -5  -2   29.39    0.63
  -1  -5   2   30.55    0.98
  -1   5  -2   31.66    1.03
  -1   5   2   29.31    0.91
   1  -5  -2   29.22    0.99
   1  -5  -2   29.86    1.01
   1   5  -2   30.75    0.92
  -1  -5  -3   85.54    1.71
  -1  -5  -3   83.29    1.10
  -1   5  -3   87.23    1.72
  -1   5   3   83.91    1.47
   1  -5  -3   88.72    1.53
   1  -5  -3   84.31    1.64
   1  -5  -3   84.79    1.66
   1   5  -3   87.08    1.59
  -1  -5  -4   48.90    1.35
  -1  -5  -4   47.41    0.92
  -1   5  -4   49.40    1.35
  -1   5   4   48.13    1.13
   1  -5  -4   50.63    1.17
   1  -5  -4   47.28    1.27
   1  -5  -4   49.95    1.33
   1   5  -4   48.98    1.28
   1   5   4   49.14    0.94
  -1  -5  -5   17.58    0.90
  -1  -5  -5   18.83    0.67
  -1   5  -5   19.71    0.92
  -1   5   5   19.52    0.76
   1  -5  -5   20.60    0.80
   1  -5  -5   18.13    0.85
   1  -5  -5   18.94    0.89
   1   5  -5   19.44    0.89
   1   5   5   19.10    0.67
  -1  -5  -6   14.16    0.86
  -1  -5  -6   15.84    0.67
  -1  -5   6   15.17    0.69
  -1   5  -6   16.12    0.88
  -1   5   6   16.38    0.70
   1  -5  -6   16.84    0.73
   1  -5  -6   15.06    0.81
   1  -5  -6   16.10    0.86
   1   5  -6   15.50    0.84
   1   5   6   15.83    0.66
  -1  -5  -7   23.58    1.09
  -1  -5  -7   22.19    0.83
  -1   5  -7   24.22    1.08
  -1   5   7   24.41    0.85
   1  -5  -7   25.24    0.88
   1  -5  -7   23.07    1.01
   1  -5  -7   24.67    1.07
   1   5  -7   23.98    1.07
   1   5   7   24.00    0.88
  -1  -5  -8   18.15    1.03
  -1  -5  -8   17.58    0.81
  -1   5  -8   18.53    1.01
   1  -5  -8   16.28    0.93
   1   5  -8   18.31    1.01
  -1  -5  -9   62.73    1.83
  -1  -5  -9   64.72    1.73
  -1   5  -9   68.29    1.88
   1  -5  -9   65.36    1.72
   1   5  -9   65.87    1.84
  -1  -5 -10   41.14    1.57
  -1   5 -10   41.22    1.55
   1  -5 -10   40.22    1.43
   1   5 -10   40.55    1.55
  -1  -5 -11    3.70    0.70
  -1   5 -11    4.62    0.74
   1  -5 -11    4.04    0.67
   1   5 -11    4.21    0.69
  -1  -5 -12    3.53    0.74
  -1   5 -12    5.07    0.78
   1  -5 -12    4.07    0.70
   1   5 -12    4.40    0.78
  -1  -5 -13    1.82    0.63
  -1   5 -13    2.31    0.60
   1  -5 -13    1.54    0.57
   1   5 -13    1.95    0.58
  -1  -5 -14    1.18    0.58
  -1   5 -14    1.28    0.57
   1  -5 -14    0.83    0.48
   1   5 -14    1.44    0.58
  -1  -5 -15    0.53    0.54
  -1   5 -15    1.01    0.51
   1  -5 -15   -0.02    0.43
   1   5 -15    0.48    0.53
  -1  -5 -16    4.02    0.85
  -1   5 -16    4.65    0.89
   1   5 -16    3.69    0.81
  -1  -5 -17    0.47    0.63
  -1   5 -17   -0.04    0.50
   1   5 -17   -0.16    0.44
  -1  -5 -18    0.12    0.69
  -1   5 -18   -0.21    0.52
   1   5 -18    0.23    0.54
  -1  -5 -19    0.12    0.70
  -1   5 -19    0.46    0.63
   1   5 -19   -0.16    0.58
  -1  -6   0   61.73    1.52
  -1   6   0   63.08    1.46
   1  -6   0   62.06    1.50
   1   6   0   65.06    1.26
  -1  -6  -1   16.06    0.86
  -1  -6   1   15.93    0.83
  -1   6  -1   15.89    0.80
  -1   6   1   14.62    0.74
   1  -6  -1   15.10    0.82
   1   6  -1   16.22    0.71
   1   6   1   16.31    0.62
  -1  -6  -2    5.35    0.59
  -1  -6   2    6.07    0.59
  -1   6  -2    5.82    0.56
  -1   6   2    6.21    0.53
   1  -6  -2    6.02    0.61
   1  -6  -2    5.23    0.57
   1   6  -2    6.19    0.52
  -1  -6  -3   12.67    0.81
  -1   6  -3   11.63    0.74
  -1   6   3   11.93    0.66
   1  -6  -3   13.19    0.72
   1  -6  -3   12.58    0.79
   1  -6  -3   11.98    0.76
   1   6  -3   12.64    0.73
  -1  -6  -4   53.41    1.53
  -1   6  -4   58.65    1.57
  -1   6   4   56.33    1.30
   1  -6  -4   58.21    1.33
   1  -6  -4   51.86    1.46
   1  -6  -4   55.33    1.49
   1   6  -4   57.06    1.48
  -1  -6  -5   33.93    1.28
  -1   6  -5   35.83    1.29
  -1   6   5   37.18    1.07
   1  -6  -5   37.92    1.09
   1  -6  -5   36.16    1.26
   1  -6  -5   35.32    1.24
   1   6  -5   36.17    1.26
  -1  -6  -6   21.39    1.09
  -1   6  -6   21.56    1.07
  -1   6   6   23.07    0.89
   1  -6  -6   20.90    1.02
   1  -6  -6   21.92    1.04
   1   6  -6   21.87    1.05
  -1  -6  -7    4.01    0.64
  -1   6  -7    3.61    0.59
   1  -6  -7    3.79    0.59
   1   6  -7    4.08    0.62
  -1  -6  -8    3.98    0.63
  -1   6  -8    4.00    0.66
   1  -6  -8    4.19    0.64
   1   6  -8    3.97    0.63
  -1  -6  -9    2.37    0.61
  -1   6  -9    1.53    0.51
   1  -6  -9    1.87    0.51
   1   6  -9    2.54    0.60
  -1  -6 -10    7.32    0.89
  -1   6 -10    6.96    0.83
   1  -6 -10    6.80    0.80
   1   6 -10    6.74    0.82
  -1  -6 -11    9.58    1.00
  -1   6 -11    8.01    0.89
   1  -6 -11    9.43    0.95
   1   6 -11    8.72    0.91
  -1  -6 -12    1.76    0.63
  -1   6 -12    1.41    0.54
   1  -6 -12    1.36    0.55
   1   6 -12    2.08    0.58
  -1  -6 -13    0.31    0.49
  -1   6 -13    0.15    0.43
   1  -6 -13   -0.19    0.44
   1   6 -13    0.29    0.45
  -1  -6 -14    3.86    0.84
  -1   6 -14    5.06    0.91
   1  -6 -14    3.97    0.74
   1   6 -14    4.06    0.80
  -1  -6 -15    2.04    0.73
  -1   6 -15    2.13    0.72
   1  -6 -15    2.19    0.68
   1   6 -15    2.17    0.71
  -1  -6 -16    1.09    0.67
  -1   6 -16    0.67    0.63
   1   6 -16    1.10    0.63
  -1  -6 -17    3.11    0.88
  -1   6 -17    3.84    0.92
   1   6 -17    3.56    0.88
  -1  -6 -18    0.97    0.70
  -1   6 -18   -0.14    0.55
   1   6 -18    0.61    0.65
  -1  -7   0    3.28    0.54
  -1   7   0    4.04    0.53
   1  -7   0    3.39    0.50
   1   7   0    3.87    0.46
  -1  -7  -1    2.29    0.50
  -1  -7   1    2.61    0.51
  -1   7  -1    2.14    0.43
  -1   7   1    1.78    0.40
   1  -7  -1    1.61    0.43
   1  -7  -1    2.08    0.46
   1  -7   1    2.31    0.46
   1   7  -1    2.53    0.43
  -1  -7  -2    5.37    0.70
  -1  -7   2    4.50    0.62
  -1   7  -2    4.24    0.58
  -1   7   2    4.52    0.51
   1  -7  -2    5.00    0.66
   1  -7  -2    4.79    0.61
   1   7  -2    4.28    0.51
  -1  -7  -3    2.08    0.50
  -1  -7   3    1.96    0.49
  -1   7  -3    2.15    0.49
  -1   7   3    2.47    0.43
   1  -7  -3    2.14    0.44
   1  -7  -3    2.41    0.51
   1  -7  -3    2.32    0.49
   1   7  -3    2.06    0.45
  -1  -7  -4    2.34    0.54
  -1   7  -4    2.10    0.46
  -1   7   4    2.43    0.43
   1  -7  -4    1.99    0.48
   1  -7  -4    2.50    0.54
   1  -7  -4    2.85    0.57
   1   7  -4    2.04    0.44
  -1  -7  -5    5.12    0.70
  -1   7  -5    5.37    0.67
   1  -7  -5    5.53    0.72
   1   7  -5    4.97    0.66
  -1  -7  -6   14.00    1.01
  -1   7  -6   15.58    1.00
   1  -7  -6   15.21    0.99
   1   7  -6   14.74    0.97
  -1  -7  -7    6.82    0.88
  -1   7  -7    6.29    0.75
   1  -7  -7    6.78    0.83
   1   7  -7    7.41    0.79
  -1  -7  -8   21.92    1.23
  -1   7  -8   24.27    1.28
   1  -7  -8   21.69    1.20
   1   7  -8   23.15    1.24
  -1  -7  -9    6.15    0.85
  -1   7  -9    7.68    0.86
   1  -7  -9    6.95    0.85
   1   7  -9    7.79    0.85
  -1  -7 -10   14.05    1.14
  -1   7 -10   13.97    1.10
   1  -7 -10   14.08    1.10
   1   7 -10   13.97    1.09
  -1  -7 -11    4.16    0.83
  -1   7 -11    3.47    0.72
   1  -7 -11    4.19    0.73
   1   7 -11    3.19    0.69
  -1  -7 -12    2.23    0.66
  -1   7 -12    3.16    0.74
   1  -7 -12    1.68    0.60
   1   7 -12    2.41    0.64
  -1  -7 -13    0.99    0.58
  -1   7 -13    1.45    0.64
   1  -7 -13    1.78    0.66
   1   7 -13    1.13    0.54
  -1  -7 -14    2.39    0.77
  -1   7 -14    2.97    0.81
   1  -7 -14    2.20    0.69
   1   7 -14    2.21    0.71
  -1  -7 -15    0.45    0.59
  -1   7 -15    0.59    0.56
   1  -7 -15    1.28    0.63
   1   7 -15    0.72    0.56
  -1  -7 -16    0.52    0.59
  -1   7 -16    0.61    0.64
   1   7 -16    0.73    0.59
  -1  -7 -17    1.73    0.81
  -1   7 -17    1.83    0.80
   1   7 -17    2.13    0.77
  -1  -8   0   39.71    1.51
  -1   8   0   41.09    1.40
   1  -8   0   40.36    1.54
  -1  -8  -1   -0.24    0.36
  -1  -8   1   -0.14    0.38
  -1   8  -1    0.23    0.33
  -1   8   1   -0.25    0.29
   1  -8  -1    0.05    0.39
  -1  -8  -2    9.18    0.88
  -1  -8   2    8.75    0.85
  -1   8  -2    8.55    0.76
  -1   8   2    9.47    0.75
   1  -8  -2    8.90    0.89
   1   8  -2    9.13    0.73
  -1  -8  -3   19.87    1.16
  -1  -8   3   22.28    1.18
  -1   8  -3   21.23    1.11
   1  -8  -3   20.74    1.19
   1   8  -3   21.89    1.06
  -1  -8  -4    1.25    0.51
  -1  -8   4    1.19    0.50
  -1   8  -4    0.99    0.45
   1  -8  -4    1.11    0.47
   1   8  -4    1.26    0.45
  -1  -8  -5    8.86    0.92
  -1   8  -5    7.53    0.80
   1  -8  -5    8.23    0.91
   1   8  -5    9.43    0.84
  -1  -8  -6   25.90    1.37
  -1   8  -6   25.93    1.32
   1  -8  -6   26.08    1.33
   1   8  -6   25.68    1.27
  -1  -8  -7    3.22    0.72
  -1   8  -7    3.41    0.66
   1  -8  -7    3.46    0.69
   1   8  -7    3.62    0.69
  -1  -8  -8    8.79    0.98
  -1   8  -8    8.42    0.91
   1  -8  -8    9.61    1.00
   1   8  -8    9.11    0.94
  -1  -8  -9    0.27    0.49
  -1   8  -9    0.13    0.40
   1  -8  -9    0.21    0.46
   1   8  -9   -0.02    0.38
  -1  -8 -10    2.54    0.69
  -1   8 -10    2.65    0.70
   1  -8 -10    3.10    0.71
   1   8 -10    2.66    0.66
  -1  -8 -11    3.41    0.82
  -1   8 -11    2.91    0.73
   1  -8 -11    3.08    0.72
   1   8 -11    2.87    0.70
  -1  -8 -12    2.25    0.72
  -1   8 -12    2.60    0.75
   1  -8 -12    2.68    0.75
   1   8 -12    2.50    0.72
  -1  -8 -13   -0.09    0.52
  -1   8 -13    1.21    0.63
   1  -8 -13    1.10    0.60
   1   8 -13    0.92    0.64
  -1  -8 -14    0.21    0.55
  -1   8 -14   -0.03    0.51
   1  -8 -14    0.39    0.59
   1   8 -14    0.28    0.54
  -1  -8 -15    0.42    0.62
  -1   8 -15    0.28    0.61
   1  -8 -15    0.24    0.61
   1   8 -15    0.12    0.52
  -1  -8 -16    1.29    0.78
  -1   8 -16    0.77    0.62
   1   8 -16    0.79    0.70
  -1  -9   0    1.40    0.56
  -1   9   0    2.23    0.51
   1  -9   0    1.56    0.58
  -1  -9  -1    2.54    0.62
  -1  -9   1    1.89    0.58
  -1   9  -1    2.51    0.57
  -1   9   1    1.93    0.51
   1  -9  -1    2.32    0.62
   1  -9   1    2.71    0.64
  -1  -9  -2    2.40    0.63
  -1  -9   2    1.65    0.57
  -1   9  -2    2.48    0.57
   1  -9  -2    2.04    0.63
  -1  -9  -3    3.33    0.70
  -1  -9   3    3.58    0.70
  -1   9  -3    3.70    0.68
   1  -9  -3    3.64    0.72
  -1  -9  -4    8.64    0.97
  -1  -9   4    7.63    0.89
  -1   9  -4    8.13    0.88
   1  -9  -4    7.70    0.91
   1   9  -4    7.94    0.81
  -1  -9  -5    2.56    0.69
  -1  -9   5    2.98    0.67
  -1   9  -5    2.75    0.63
   1  -9  -5    2.61    0.64
   1   9  -5    2.19    0.58
  -1  -9  -6    1.13    0.56
  -1   9  -6    2.26    0.61
   1  -9  -6    1.54    0.57
   1   9  -6    1.92    0.55
  -1  -9  -7    3.95    0.75
  -1   9  -7    5.22    0.83
   1  -9  -7    5.32    0.83
   1   9  -7    4.46    0.77
  -1  -9  -8    1.68    0.66
  -1   9  -8    1.51    0.59
   1  -9  -8    1.15    0.58
   1   9  -8    1.46    0.55
  -1  -9  -9    2.02    0.67
  -1   9  -9    2.89    0.75
   1  -9  -9    2.67    0.72
   1   9  -9    2.49    0.66
  -1  -9 -10    0.95    0.61
  -1   9 -10    0.21    0.43
   1  -9 -10    0.57    0.57
   1   9 -10    0.18    0.50
  -1  -9 -11   -0.74    0.48
  -1   9 -11    0.34    0.52
   1  -9 -11    0.00    0.55
   1   9 -11   -0.27    0.46
  -1  -9 -12    0.59    0.64
  -1   9 -12    0.34    0.48
   1  -9 -12    0.56    0.56
   1   9 -12    1.15    0.63
  -1  -9 -13    0.92    0.68
  -1   9 -13    0.49    0.60
   1  -9 -13    1.27    0.67
   1   9 -13    0.30    0.54
  -1  -9 -14    1.47    0.74
  -1   9 -14    0.98    0.67
   1  -9 -14    1.43    0.68
   1   9 -14    0.68    0.59
  -1 -10   0    5.48    0.85
   1 -10   0    6.16    0.89
  -1 -10  -1    2.67    0.68
  -1 -10   1    2.60    0.69
  -1  10  -1    3.16    0.63
   1 -10  -1    3.12    0.74
   1 -10   1    2.63    0.70
  -1 -10  -2    1.95    0.65
  -1 -10   2    2.69    0.68
  -1  10  -2    2.95    0.68
   1 -10  -2    2.69    0.72
   1 -10   2    2.66    0.72
  -1 -10  -3    0.55    0.49
  -1 -10   3    0.07    0.48
  -1  10  -3    0.12    0.38
   1 -10  -3    0.45    0.51
  -1 -10  -4   -0.34    0.44
  -1 -10   4    0.18    0.49
  -1  10  -4    0.02    0.38
   1 -10  -4    0.17    0.45
  -1 -10  -5    1.14    0.62
  -1 -10   5    2.14    0.64
  -1  10  -5    2.36    0.66
   1 -10  -5    1.72    0.62
   1  10  -5    1.76    0.58
  -1 -10  -6    0.04    0.49
  -1 -10   6    0.63    0.54
  -1  10  -6    0.14    0.45
   1 -10  -6   -0.05    0.49
   1  10  -6    0.19    0.39
  -1 -10  -7   -0.01    0.55
  -1  10  -7    0.21    0.42
   1 -10  -7    0.45    0.56
   1  10  -7    0.31    0.50
  -1 -10  -8    1.67    0.69
  -1  10  -8    2.06    0.66
   1 -10  -8    1.36    0.64
   1  10  -8    2.11    0.65
  -1 -10  -9    0.26    0.54
  -1  10  -9   -0.16    0.41
   1 -10  -9   -0.01    0.52
   1  10  -9    0.04    0.44
  -1 -10 -10    0.29    0.64
  -1  10 -10    0.13    0.51
   1 -10 -10   -0.02    0.53
   1  10 -10    0.60    0.53
  -1 -10 -11    1.15    0.70
  -1  10 -11    1.49    0.66
   1 -10 -11    1.80    0.73
   1  10 -11    1.40    0.67
  -1 -10 -12    1.70    0.80
  -1  10 -12    1.36    0.67
   1 -10 -12    1.06    0.70
   1  10 -12    1.13    0.67
  -1 -10 -13    0.52    0.68
  -1  10 -13    0.54    0.63
   1 -10 -13   -0.16    0.60
   1  10 -13   -0.31    0.48
  -1 -11   0    1.49    0.62
   1 -11   0    1.43    0.66
  -1 -11  -1    1.41    0.65
  -1 -11   1    0.99    0.63
   1 -11  -1    1.75    0.68
   1 -11   1    1.05    0.62
  -1 -11  -2    0.11    0.52
  -1 -11   2    0.50    0.56
   1 -11  -2   -0.12    0.49
   1 -11   2   -0.15    0.49
  -1 -11  -3   -0.30    0.48
  -1 -11   3    0.12    0.53
  -1  11  -3   -0.02    0.47
   1 -11  -3    0.81    0.60
   1 -11   3   -0.39    0.48
  -1 -11  -4    0.21    0.54
  -1 -11   4    0.49    0.56
  -1  11  -4    0.10    0.47
   1 -11  -4    0.48    0.56
  -1 -11  -5    1.17    0.68
  -1 -11   5    1.27    0.65
  -1  11  -5    1.80    0.65
   1 -11  -5    1.00    0.63
  -1 -11  -6    0.25    0.57
  -1 -11   6    0.43    0.56
  -1  11  -6    0.67    0.48
   1 -11  -6   -0.38    0.51
  -1 -11  -7    1.44    0.70
  -1 -11   7    2.63    0.75
  -1  11  -7    2.08    0.73
   1 -11  -7    1.53    0.69
   1  11  -7    1.64    0.69
  -1 -11  -8    0.57    0.65
  -1 -11   8    1.62    0.73
  -1  11  -8    1.66    0.65
   1 -11  -8    1.44    0.73
   1  11  -8    1.81    0.65
  -1 -11  -9    0.04    0.60
  -1  11  -9    0.22    0.49
   1 -11  -9    0.67    0.65
   1  11  -9    0.88    0.64
  -1 -11 -10    1.01    0.69
  -1  11 -10    0.62    0.63
   1 -11 -10   -0.12    0.61
   1  11 -10    0.48    0.59
  -1 -12   0    0.01    0.58
   1 -12   0   -0.34    0.53
  -1 -12  -1    0.13    0.56
  -1 -12   1    0.47    0.61
   1 -12  -1   -0.24    0.57
   1 -12   1   -0.25    0.59
  -1 -12  -2    0.28    0.60
  -1 -12   2   -0.52    0.54
   1 -12  -2    0.42    0.61
   1 -12   2   -0.02    0.58
  -1 -12  -3    2.20    0.76
  -1 -12   3    3.25    0.85
   1 -12  -3    1.66    0.75
   1 -12   3    2.10    0.79
  -1 -12  -4    0.46    0.61
  -1 -12   4   -0.06    0.57
   1 -12  -4    0.42    0.63
   1 -12   4    0.10    0.58
  -1 -12  -5    0.83    0.67
  -1 -12   5    1.15    0.69
  -1  12  -5    0.86    0.64
   1 -12  -5    0.77    0.66
   1 -12   5    0.65    0.66
  -1 -12  -6    2.93    0.88
  -1 -12   6    3.40    0.89
  -1  12  -6    2.27    0.73
   1 -12  -6    1.78    0.76
  -1 -12  -7    0.11    0.67
  -1 -12   7    0.75    0.69
  -1  12  -7    1.06    0.63
   1 -12  -7    0.23    0.65
  -2   0   0   75.80    1.32
   2   0   0   76.42    1.31
   2   0   0   73.60    1.12
  -2   0  -1   27.75    0.81
  -2   0  -1   26.54    0.63
  -2   0   1   28.98    0.86
   2   0  -1   29.07    0.86
   2   0  -1   26.67    0.71
   2   0   1   28.76    0.82
  -2   0  -2  109.56    1.52
  -2   0  -2  107.47    1.34
  -2   0   2  111.55    1.67
   2   0  -2  113.13    1.68
   2   0  -2  106.66    1.41
   2   0   2  112.30    1.53
  -2   0  -3   72.95    1.25
  -2   0  -3   68.87    1.20
   2   0  -3   72.73    1.40
   2   0  -3   71.45    1.23
   2   0   3   72.93    1.24
  -2   0  -4   20.40    0.71
  -2   0  -4   19.92    0.74
  -2   0   4   20.17    0.73
   2   0  -4   19.75    0.83
   2   0  -4   20.81    0.75
   2   0   4   21.11    0.71
  -2   0  -5   66.21    1.22
  -2   0  -5   63.01    1.34
  -2   0   5   65.23    1.32
   2   0  -5   69.00    1.48
   2   0  -5   64.14    1.31
  -2   0  -6   60.59    1.20
  -2   0  -6   60.25    1.38
   2   0  -6   62.49    1.46
   2   0  -6   61.75    1.36
  -2   0  -7    3.16    0.38
  -2   0  -7    3.36    0.51
   2   0  -7    3.36    0.51
   2   0  -7    4.17    0.52
  -2   0  -8    5.45    0.47
  -2   0  -8    4.99    0.59
   2   0  -8    5.53    0.61
   2   0  -8    4.86    0.56
  -2   0  -9   40.80    1.11
  -2   0  -9   39.67    1.36
   2   0  -9   43.02    1.41
   2   0  -9   40.58    1.33
  -2   0 -10    0.65    0.33
  -2   0 -10    0.74    0.42
   2   0 -10    0.66    0.42
  -2   0 -11    7.44    0.83
   2   0 -11    7.93    0.81
  -2   0 -12    7.27    0.80
   2   0 -12    9.08    0.89
  -2   0 -13   15.65    1.14
   2   0 -13   17.76    1.15
  -2   0 -14    0.39    0.51
   2   0 -14   -0.09    0.44
  -2   0 -15    0.72    0.54
   2   0 -15    0.88    0.52
  -2   0 -16    0.97    0.64
   2   0 -16    1.99    0.61
  -2   0 -17   -0.16    0.57
   2   0 -17   -0.01    0.46
  -2   0 -18    0.54    0.67
   2   0 -18    0.03    0.48
  -2   0 -19    0.15    0.67
  -2  -1   0    5.91    0.45
  -2   1   0    4.99    0.45
   2  -1   0    4.69    0.45
   2  -1   0    4.79    0.42
   2   1   0    5.35    0.42
   2   1   0    4.48    0.31
  -2  -1  -1  128.73    1.59
  -2  -1  -1  123.26    1.31
  -2   1  -1  122.60    1.71
  -2   1  -1  121.48    1.35
  -2   1   1  129.51    1.80
   2  -1  -1  124.44    1.76
   2  -1  -1  126.88    1.65
   2  -1   1  128.57    1.76
   2   1  -1  130.48    1.72
   2   1  -1  125.50    1.29
   2   1   1  129.15    1.59
  -2  -1  -2   75.22    1.19
  -2  -1  -2   72.37    1.13
  -2  -1   2   71.93    1.05
  -2   1  -2   73.05    1.34
  -2   1  -2   70.42    1.14
  -2   1   2   74.79    1.41
   2  -1  -2   76.64    1.43
   2  -1  -2   71.98    1.29
   2  -1   2   73.93    1.35
   2   1  -2   72.71    1.35
   2   1  -2   73.38    1.06
   2   1   2   74.73    1.18
  -2  -1  -3   51.78    0.99
  -2  -1  -3   48.44    1.03
  -2  -1   3   49.67    0.95
  -2   1  -3   52.04    1.15
  -2   1  -3   48.77    1.04
  -2   1   3   50.31    1.20
  -2   1   3   48.68    1.11
   2  -1  -3   53.65    1.25
   2  -1  -3   52.02    1.15
   2   1  -3   53.65    1.22
   2   1  -3   50.57    0.96
   2   1   3   52.27    0.99
  -2  -1  -4  164.45    1.71
  -2  -1  -4  160.40    1.96
  -2   1  -4  162.22    2.02
  -2   1  -4  155.35    1.95
  -2   1   4  166.90    2.19
  -2   1   4  164.19    2.07
   2  -1  -4  168.56    2.21
   2  -1  -4  163.29    2.07
   2   1  -4  169.66    2.22
   2   1  -4  162.51    1.81
   2   1   4  164.47    1.71
  -2  -1  -5   85.34    1.25
  -2  -1  -5   80.14    1.51
  -2  -1   5   84.01    1.41
  -2   1  -5   83.09    1.49
  -2   1  -5   81.25    1.52
   2  -1  -5   89.94    1.70
   2  -1  -5   82.22    1.56
   2   1  -5   88.17    1.69
   2   1  -5   82.20    1.40
   2   1   5   85.79    1.26
  -2  -1  -6    8.83    0.47
  -2  -1  -6    8.33    0.62
  -2  -1   6    8.93    0.57
  -2   1  -6    9.36    0.57
  -2   1  -6    8.68    0.62
   2  -1  -6    9.01    0.67
   2  -1  -6    8.38    0.62
   2   1  -6    8.91    0.64
   2   1  -6    8.40    0.57
  -2  -1  -7   16.91    0.62
  -2  -1  -7   15.53    0.82
  -2   1  -7   16.20    0.73
  -2   1  -7   16.56    0.84
   2  -1  -7   17.77    0.88
   2  -1  -7   16.88    0.85
   2   1  -7   16.48    0.84
   2   1  -7   16.17    0.77
  -2  -1  -8    1.92    0.41
  -2   1  -8    2.07    0.39
  -2   1  -8    1.35    0.38
   2  -1  -8    1.23    0.39
   2  -1  -8    1.24    0.37
   2   1  -8    1.51    0.42
   2   1  -8    1.51    0.37
  -2  -1  -9   59.34    1.64
  -2   1  -9   64.32    1.49
  -2   1  -9   62.36    1.68
   2  -1  -9   66.06    1.69
   2  -1  -9   62.16    1.66
   2   1  -9   68.43    1.77
   2   1  -9   62.31    1.58
  -2  -1 -10    8.15    0.80
  -2   1 -10    8.58    0.66
  -2   1 -10    7.72    0.78
   2  -1 -10    8.24    0.78
   2   1 -10    7.84    0.78
   2   1 -10    8.25    0.74
  -2  -1 -11   14.28    1.02
  -2   1 -11   14.33    0.84
  -2   1 -11   12.93    1.00
   2  -1 -11   15.52    1.00
   2   1 -11   14.96    1.02
  -2  -1 -12   17.19    1.14
  -2   1 -12   16.59    0.97
  -2   1 -12   16.74    1.13
   2  -1 -12   18.11    1.10
   2   1 -12   17.45    1.12
  -2  -1 -13    6.57    0.87
  -2   1 -13    3.98    0.71
   2  -1 -13    5.45    0.77
   2   1 -13    5.39    0.81
  -2  -1 -14    0.77    0.50
  -2   1 -14    0.99    0.55
   2  -1 -14    1.12    0.55
   2   1 -14    1.74    0.60
  -2  -1 -15    1.60    0.61
  -2   1 -15    1.15    0.61
   2  -1 -15    1.65    0.58
   2   1 -15    1.52    0.56
  -2  -1 -16    3.02    0.78
  -2   1 -16    3.63    0.83
   2  -1 -16    3.92    0.78
   2   1 -16    3.23    0.73
  -2  -1 -17   -0.12    0.57
  -2   1 -17   -0.19    0.56
   2   1 -17   -0.55    0.40
  -2  -1 -18    1.68    0.78
   2   1 -18    1.30    0.60
  -2  -1 -19    0.87    0.71
  -2   1 -19    0.04    0.69
   2   1 -19    0.37    0.57
  -2  -2   0  102.32    1.20
  -2   2   0  102.30    1.67
   2  -2   0  103.17    1.63
   2   2   0  109.11    1.50
   2   2   0  102.84    0.88
  -2  -2  -1    9.93    0.47
  -2   2  -1   11.20    0.63
  -2   2   1   10.82    0.62
   2  -2  -1   10.10    0.60
   2   2  -1   11.72    0.59
   2   2  -1   10.33    0.35
   2   2   1   11.30    0.51
   2   2   1   10.50    0.32
  -2  -2  -2   75.18    1.23
  -2  -2   2   77.05    0.95
  -2   2  -2   75.83    1.45
  -2   2  -2   73.36    1.26
  -2   2   2   75.47    1.46
   2  -2  -2   78.41    1.50
   2  -2  -2   73.18    1.41
   2   2  -2   80.76    1.43
   2   2  -2   75.12    0.94
   2   2   2   79.88    1.17
  -2  -2  -3   58.08    0.97
  -2  -2  -3   57.24    1.16
  -2  -2   3   60.86    0.95
  -2   2  -3   61.36    1.33
  -2   2  -3   58.23    1.20
  -2   2   3   62.69    1.37
   2  -2  -3   61.84    1.37
   2  -2  -3   58.72    1.31
   2   2  -3   62.72    1.33
   2   2  -3   59.78    0.95
   2   2   3   62.04    1.00
  -2  -2  -4    0.65    0.20
  -2  -2  -4    1.09    0.31
  -2   2  -4    0.56    0.26
  -2   2  -4    0.71    0.29
  -2   2   4    0.71    0.30
   2  -2  -4    0.73    0.32
   2  -2  -4    0.82    0.30
   2   2  -4    0.85    0.32
   2   2  -4    0.76    0.22
   2   2   4    1.00    0.21
  -2  -2  -5  154.13    1.48
  -2  -2  -5  148.23    2.09
  -2   2  -5  154.88    2.17
  -2   2  -5  149.04    2.12
  -2   2   5  157.52    2.23
   2  -2  -5  160.73    2.27
   2  -2  -5  147.50    1.44
   2  -2  -5  154.41    2.23
   2   2  -5  160.31    2.29
   2   2  -5  155.79    1.82
   2   2   5  158.13    1.50
   2   2   5  152.55    1.67
  -2  -2  -6   66.16    1.50
  -2  -2   6   67.33    1.32
  -2   2  -6   72.52    1.55
  -2   2  -6   66.51    1.52
   2  -2  -6   72.39    1.59
   2  -2  -6   68.60    1.06
   2  -2  -6   68.23    1.57
   2   2  -6   71.55    1.62
   2   2  -6   68.13    1.32
   2   2   6   70.19    1.04
   2   2   6   68.95    1.24
  -2  -2  -7    8.89    0.69
  -2   2  -7    7.67    0.61
  -2   2  -7    6.89    0.63
   2  -2  -7    8.74    0.69
   2  -2  -7    7.27    0.65
   2   2  -7    7.71    0.67
   2   2  -7    7.98    0.58
   2   2   7    7.90    0.51
  -2  -2  -8    1.00    0.39
  -2   2  -8    0.93    0.31
  -2   2  -8    0.57    0.33
   2  -2  -8    0.73    0.36
   2  -2  -8    1.27    0.40
   2   2  -8    0.81    0.34
   2   2  -8    1.12    0.32
  -2  -2  -9    4.10    0.59
  -2   2  -9    3.86    0.52
  -2   2  -9    4.41    0.66
   2  -2  -9    4.74    0.63
   2   2  -9    3.96    0.59
   2   2  -9    3.76    0.53
  -2  -2 -10   18.65    1.07
  -2   2 -10   19.44    0.98
  -2   2 -10   18.85    1.08
   2  -2 -10   20.14    1.05
   2   2 -10   19.96    1.10
  -2  -2 -11   57.89    1.83
  -2   2 -11   63.78    1.72
  -2   2 -11   55.70    1.78
   2  -2 -11   65.22    1.81
   2   2 -11   62.37    1.88
  -2  -2 -12    1.32    0.54
  -2   2 -12    2.01    0.50
  -2   2 -12    1.89    0.58
   2  -2 -12    2.12    0.55
   2   2 -12    1.45    0.51
  -2  -2 -13    7.71    0.98
  -2   2 -13    7.31    0.78
  -2   2 -13    6.73    0.89
   2  -2 -13    9.43    0.89
   2   2 -13    8.47    0.93
  -2  -2 -14    0.87    0.52
  -2   2 -14    1.25    0.58
   2  -2 -14    1.20    0.54
   2   2 -14    1.47    0.56
  -2  -2 -15    2.11    0.69
  -2   2 -15    1.65    0.62
   2  -2 -15    2.08    0.65
   2   2 -15    2.24    0.67
  -2  -2 -16    6.08    1.01
  -2   2 -16    5.48    0.97
   2   2 -16    5.39    0.90
  -2  -2 -17    2.73    0.82
  -2   2 -17    2.92    0.84
   2   2 -17    2.68    0.71
  -2  -2 -18    2.01    0.77
  -2   2 -18    1.29    0.76
   2   2 -18    2.72    0.81
  -2  -2 -19    0.97    0.77
  -2   2 -19    0.40    0.72
   2   2 -19    0.42    0.59
  -2  -3   0    0.94    0.24
  -2   3   0    1.68    0.35
   2  -3   0    1.19    0.34
   2  -3   0    0.59    0.28
   2   3   0    1.14    0.26
  -2  -3  -1  105.78    1.50
  -2  -3   1  107.60    1.36
  -2   3  -1  109.19    1.83
  -2   3   1  111.73    1.84
   2  -3  -1  108.92    1.83
   2  -3  -1  106.52    1.80
   2   3  -1  113.66    1.64
   2   3   1  115.13    1.45
  -2  -3  -2   61.28    1.22
  -2  -3   2   61.74    1.01
  -2  -3   2   62.77    0.72
  -2   3  -2   64.89    1.45
  -2   3   2   62.28    1.40
   2  -3  -2   62.44    1.40
   2  -3  -2   62.20    1.41
   2   3  -2   65.13    1.32
   2   3   2   67.56    1.05
  -2  -3  -3  108.99    1.71
  -2  -3   3  110.26    1.30
  -2  -3   3  110.10    1.16
  -2   3  -3  114.03    1.93
  -2   3   3  112.59    1.88
   2  -3  -3  116.69    1.92
   2  -3  -3  106.17    1.42
   2  -3  -3  110.51    1.90
   2   3  -3  110.61    1.79
   2   3   3  116.62    1.28
   2   3   3  108.53    0.94
  -2  -3  -4   53.39    1.29
  -2  -3   4   54.00    0.93
  -2  -3   4   53.53    0.94
  -2   3  -4   55.76    1.39
  -2   3  -4   53.27    1.31
  -2   3   4   53.99    1.34
   2  -3  -4   56.78    1.39
   2  -3  -4   51.65    1.02
   2  -3  -4   54.12    1.39
   2   3  -4   53.81    1.33
   2   3   4   52.80    0.81
  -2  -3  -5   19.70    0.87
  -2   3  -5   21.39    0.92
  -2   3  -5   19.94    0.89
  -2   3   5   21.48    0.92
   2  -3  -5   21.83    0.93
   2  -3  -5   19.48    0.68
   2  -3  -5   20.50    0.93
   2   3  -5   21.14    0.92
   2   3   5   20.61    0.61
  -2  -3  -6    3.55    0.51
  -2  -3   6    2.95    0.38
  -2   3  -6    2.77    0.45
  -2   3  -6    2.90    0.47
  -2   3   6    2.73    0.44
   2  -3  -6    3.28    0.50
   2  -3  -6    3.14    0.37
   2  -3  -6    2.36    0.42
   2   3  -6    2.61    0.45
   2   3   6    3.76    0.35
  -2  -3  -7   45.64    1.40
  -2   3  -7   49.64    1.42
  -2   3  -7   47.81    1.42
   2  -3  -7   53.11    1.44
   2  -3  -7   47.88    1.09
   2  -3  -7   49.50    1.47
   2   3  -7   50.70    1.49
   2   3   7   48.01    1.10
  -2  -3  -8    3.33    0.58
  -2   3  -8    3.16    0.53
  -2   3  -8    3.30    0.55
   2  -3  -8    4.06    0.56
   2   3  -8    3.99    0.61
  -2  -3  -9    7.46    0.77
  -2   3  -9    8.62    0.73
  -2   3  -9    8.87    0.81
   2  -3  -9    7.24    0.70
   2   3  -9    7.67    0.78
  -2  -3 -10    4.74    0.74
  -2   3 -10    5.45    0.71
  -2   3 -10    3.78    0.67
   2  -3 -10    6.13    0.75
   2   3 -10    6.05    0.80
  -2  -3 -11   17.93    1.15
  -2   3 -11   18.95    1.07
  -2   3 -11   19.11    1.20
   2  -3 -11   20.41    1.13
   2   3 -11   18.21    1.16
  -2  -3 -12    3.42    0.73
  -2   3 -12    4.68    0.70
  -2   3 -12    4.06    0.73
   2  -3 -12    4.24    0.68
   2   3 -12    4.63    0.80
  -2  -3 -13    2.23    0.62
  -2   3 -13    4.34    0.72
  -2   3 -13    3.92    0.79
   2  -3 -13    3.91    0.71
   2   3 -13    3.06    0.71
  -2  -3 -14    1.42    0.62
  -2   3 -14    1.70    0.56
  -2   3 -14    1.64    0.62
   2   3 -14    1.68    0.60
  -2  -3 -15    2.70    0.75
  -2   3 -15    3.27    0.71
  -2   3 -15    3.08    0.80
   2   3 -15    3.05    0.72
  -2  -3 -16    1.20    0.66
  -2   3 -16    0.21    0.59
   2   3 -16    0.24    0.48
  -2  -3 -17    1.15    0.72
  -2   3 -17    0.88    0.63
   2   3 -17    1.20    0.60
  -2  -3 -18    0.01    0.66
  -2   3 -18    0.57    0.71
   2   3 -18    0.30    0.57
  -2  -3 -19    0.09    0.65
  -2   3 -19    0.44    0.71
   2   3 -19   -0.01    0.58
  -2  -4   0   30.26    0.90
  -2   4   0   30.98    1.07
   2  -4   0   29.14    1.06
   2   4   0   31.34    0.87
  -2  -4  -1   14.97    0.69
  -2  -4   1   15.37    0.65
  -2   4  -1   15.17    0.80
  -2   4   1   15.34    0.79
   2  -4  -1   15.82    0.82
   2  -4  -1   15.09    0.80
   2   4  -1   15.72    0.68
   2   4   1   16.13    0.60
  -2  -4  -2   29.40    0.97
  -2  -4   2   28.84    0.84
  -2   4  -2   29.10    1.07
  -2   4   2   28.76    1.03
   2  -4  -2   29.97    1.06
   2  -4  -2   28.36    1.06
   2   4  -2   28.05    0.93
   2   4   2   30.22    0.73
  -2  -4  -3   89.79    1.69
  -2  -4   3   92.82    1.43
  -2   4  -3   94.32    1.87
  -2   4   3   93.41    1.79
   2  -4  -3   95.01    1.82
   2  -4  -3   89.09    1.51
   2  -4  -3   92.01    1.86
   2   4  -3   93.37    1.71
  -2  -4  -4    7.13    0.61
  -2  -4   4    7.65    0.49
  -2   4  -4    8.73    0.68
  -2   4   4    7.96    0.63
   2  -4  -4    7.75    0.65
   2  -4  -4    7.43    0.54
   2  -4  -4    7.54    0.67
   2   4  -4    7.85    0.63
  -2  -4  -5   24.84    1.01
  -2   4  -5   28.20    1.10
  -2   4   5   27.27    1.03
   2  -4  -5   28.36    1.08
   2  -4  -5   26.80    0.89
   2  -4  -5   25.27    1.08
   2   4  -5   28.25    1.09
  -2  -4  -6    8.59    0.71
  -2   4  -6   10.71    0.76
  -2   4   6    9.75    0.71
   2  -4  -6   10.99    0.75
   2  -4  -6    9.41    0.61
   2  -4  -6    9.18    0.74
   2   4  -6   10.22    0.76
  -2  -4  -7   13.14    0.87
  -2   4  -7   13.54    0.86
  -2   4  -7   13.02    0.89
  -2   4   7   13.80    0.83
   2  -4  -7   12.98    0.82
   2  -4  -7   12.60    0.69
   2   4  -7   13.77    0.90
  -2  -4  -8   18.00    1.04
  -2   4  -8   18.10    1.00
  -2   4  -8   17.52    1.03
   2  -4  -8   19.50    0.99
   2  -4  -8   17.04    0.83
   2   4  -8   19.01    1.06
  -2  -4  -9   12.84    0.95
  -2   4  -9   12.47    0.89
  -2   4  -9   10.77    0.87
   2  -4  -9   12.52    0.89
   2   4  -9   11.75    0.89
  -2  -4 -10   11.04    0.97
  -2   4 -10   13.07    0.95
  -2   4 -10   12.20    1.01
   2  -4 -10   14.22    0.96
   2   4 -10   12.23    0.98
  -2  -4 -11   21.63    1.27
  -2   4 -11   27.08    1.34
  -2   4 -11   25.01    1.34
   2  -4 -11   26.63    1.25
   2   4 -11   24.32    1.32
  -2  -4 -12    2.25    0.59
  -2   4 -12    1.74    0.57
  -2   4 -12    1.86    0.59
   2   4 -12    1.87    0.61
  -2  -4 -13    0.44    0.51
  -2   4 -13    0.13    0.43
  -2   4 -13    0.30    0.50
   2   4 -13    0.17    0.42
  -2  -4 -14    1.73    0.68
  -2   4 -14    1.98    0.59
  -2   4 -14    1.43    0.62
   2   4 -14    1.29    0.60
  -2  -4 -15    0.80    0.58
  -2   4 -15    1.31    0.57
  -2   4 -15    1.31    0.68
   2   4 -15    0.99    0.57
  -2  -4 -16    2.02    0.75
  -2   4 -16    1.74    0.68
  -2   4 -16    1.08    0.71
   2   4 -16    0.70    0.61
  -2  -4 -17    2.08    0.75
  -2   4 -17    2.25    0.79
  -2   4 -17    1.41    0.75
   2   4 -17    2.54    0.79
  -2  -4 -18    0.12    0.68
  -2   4 -18    0.25    0.69
   2   4 -18    0.14    0.55
  -2  -5   0    9.92    0.64
  -2   5   0   10.21    0.71
   2  -5   0   11.21    0.77
   2  -5   0   10.86    0.76
   2   5   0   10.94    0.58
  -2  -5  -1   21.31    0.88
  -2  -5   1   20.43    0.84
  -2   5  -1   20.73    0.96
  -2   5   1   20.00    0.93
   2  -5  -1   21.64    0.99
   2  -5  -1   20.37    0.98
   2   5  -1   21.02    0.81
   2   5   1   20.16    0.69
  -2  -5  -2    0.19    0.29
  -2  -5   2    0.24    0.27
  -2   5  -2    0.47    0.30
  -2   5   2    0.41    0.29
   2  -5  -2    0.94    0.36
   2  -5  -2    0.44    0.28
   2  -5  -2    0.24    0.30
   2   5  -2    0.27    0.25
  -2  -5  -3   29.99    1.10
  -2  -5   3   31.77    0.99
  -2   5  -3   32.04    1.21
  -2   5   3   31.51    1.13
   2  -5  -3   33.20    1.18
   2  -5  -3   29.43    1.02
   2  -5  -3   31.38    1.21
   2   5  -3   31.85    1.09
  -2  -5  -4   22.93    1.02
  -2  -5   4   25.79    0.91
  -2   5  -4   25.50    1.11
  -2   5   4   26.72    1.06
   2  -5  -4   26.04    1.07
   2  -5  -4   25.70    0.98
   2  -5  -4   25.98    1.15
   2   5  -4   26.65    1.06
  -2  -5  -5   11.37    0.81
  -2   5  -5   11.62    0.82
  -2   5   5   14.00    0.83
   2  -5  -5   14.07    0.87
   2  -5  -5   11.88    0.73
   2   5  -5   12.77    0.84
  -2  -5  -6    3.79    0.59
  -2   5  -6    5.26    0.66
  -2   5   6    4.65    0.57
   2  -5  -6    5.32    0.66
   2  -5  -6    4.75    0.55
   2   5  -6    4.91    0.67
  -2  -5  -7   10.18    0.86
  -2   5  -7   10.02    0.83
  -2   5   7   10.95    0.79
   2  -5  -7   10.86    0.79
   2  -5  -7    9.39    0.71
   2   5  -7    9.93    0.82
  -2  -5  -8    2.36    0.57
  -2   5  -8    2.75    0.57
   2  -5  -8    3.23    0.58
   2  -5  -8    2.89    0.51
   2   5  -8    3.40    0.62
  -2  -5  -9    2.93    0.62
  -2   5  -9    3.97    0.66
   2  -5  -9    4.58    0.66
   2   5  -9    4.73    0.72
  -2  -5 -10    3.49    0.69
  -2   5 -10    4.46    0.73
   2   5 -10    4.59    0.73
  -2  -5 -11    7.21    0.92
  -2   5 -11    9.02    0.91
   2   5 -11    8.31    0.92
  -2  -5 -12    3.66    0.78
  -2   5 -12    4.32    0.78
   2   5 -12    4.80    0.84
  -2  -5 -13    2.73    0.73
  -2   5 -13    3.04    0.68
  -2   5 -13    3.14    0.81
   2   5 -13    3.27    0.74
  -2  -5 -14    4.49    0.88
  -2   5 -14    4.73    0.88
  -2   5 -14    4.54    0.86
   2   5 -14    4.53    0.87
  -2  -5 -15    0.07    0.55
  -2   5 -15    1.09    0.62
  -2   5 -15    0.57    0.65
   2   5 -15    0.81    0.60
  -2  -5 -16    1.83    0.79
  -2   5 -16    2.71    0.74
  -2   5 -16    1.05    0.75
   2   5 -16    2.26    0.78
  -2  -5 -17    2.44    0.86
  -2   5 -17    2.09    0.79
  -2   5 -17    1.73    0.84
   2   5 -17    0.91    0.58
  -2  -5 -18    1.92    0.87
  -2   5 -18    3.04    0.92
   2   5 -18    1.94    0.77
  -2  -6   0    0.19    0.29
  -2   6   0   -0.07    0.29
  -2  -6  -1    2.28    0.46
  -2  -6   1    2.15    0.45
  -2   6  -1    2.31    0.50
  -2   6   1    2.75    0.51
   2  -6  -1    2.06    0.49
   2   6  -1    2.21    0.40
  -2  -6  -2   13.30    0.84
  -2  -6   2   14.56    0.83
  -2   6  -2   14.71    0.91
  -2   6   2   14.51    0.86
   2  -6  -2   14.14    0.92
   2  -6  -2   14.66    0.86
   2   6  -2   13.73    0.77
  -2  -6  -3   16.02    0.95
  -2  -6   3   15.13    0.84
  -2   6  -3   17.45    1.00
  -2   6   3   16.51    0.90
   2  -6  -3   16.41    0.94
   2  -6  -3   14.73    0.86
   2   6  -3   16.19    0.88
  -2  -6  -4    7.99    0.76
  -2  -6   4    9.69    0.72
  -2   6  -4    9.42    0.81
  -2   6   4    9.72    0.76
   2  -6  -4    9.02    0.76
   2  -6  -4    8.86    0.72
   2   6  -4    9.77    0.75
  -2  -6  -5   11.40    0.88
  -2  -6   5   10.31    0.74
  -2   6  -5   10.18    0.85
  -2   6   5   10.94    0.79
   2  -6  -5   12.14    0.85
   2  -6  -5   11.93    0.80
   2   6  -5   11.76    0.84
  -2  -6  -6    4.78    0.72
  -2   6  -6    5.47    0.66
  -2   6   6    5.44    0.66
   2  -6  -6    5.65    0.69
   2  -6  -6    4.99    0.64
   2   6  -6    5.83    0.75
  -2  -6  -7   12.75    1.02
  -2   6  -7   11.58    0.92
  -2   6   7   12.55    0.87
   2  -6  -7   14.54    0.95
   2  -6  -7   12.72    0.89
   2   6  -7   13.44    1.00
  -2  -6  -8    7.74    0.88
  -2   6  -8    7.47    0.83
  -2   6   8    8.00    0.76
   2  -6  -8    8.58    0.83
   2  -6  -8    7.02    0.76
   2   6  -8    7.18    0.82
  -2  -6  -9    1.01    0.54
  -2   6  -9    0.86    0.44
   2  -6  -9    0.95    0.45
   2   6  -9    1.11    0.51
  -2  -6 -10    7.36    0.96
  -2   6 -10    8.50    0.94
   2   6 -10    8.39    0.94
  -2  -6 -11   -0.13    0.43
  -2   6 -11    1.22    0.53
   2   6 -11    0.76    0.52
  -2  -6 -12    2.44    0.70
  -2   6 -12    2.36    0.65
   2   6 -12    2.08    0.66
  -2  -6 -13    0.27    0.54
  -2   6 -13    0.34    0.50
   2   6 -13    0.39    0.46
  -2  -6 -14    0.11    0.53
  -2   6 -14   -0.24    0.47
   2   6 -14   -0.04    0.49
  -2  -6 -15    1.17    0.67
  -2   6 -15    1.30    0.66
   2   6 -15    0.93    0.59
  -2  -6 -16    1.69    0.76
  -2   6 -16    1.97    0.74
   2   6 -16    1.36    0.72
  -2  -6 -17   -0.38    0.64
  -2   6 -17    0.56    0.67
   2   6 -17    0.31    0.58
  -2  -7   0    5.65    0.70
  -2   7   0    6.02    0.70
  -2  -7  -1   40.67    1.44
  -2  -7   1   40.88    1.42
  -2   7  -1   40.29    1.47
  -2   7   1   38.95    1.41
   2  -7  -1   43.46    1.51
   2  -7  -1   36.98    1.39
  -2  -7  -2    5.60    0.75
  -2  -7   2    6.11    0.72
  -2   7  -2    6.48    0.74
  -2   7   2    6.61    0.71
   2  -7  -2    6.79    0.77
   2  -7  -2    6.27    0.74
   2   7  -2    6.77    0.66
  -2  -7  -3    7.26    0.78
  -2  -7   3    8.11    0.77
  -2   7  -3    7.11    0.79
  -2   7   3    7.70    0.76
   2  -7  -3    7.53    0.77
   2  -7  -3    6.80    0.79
   2   7  -3    7.09    0.70
  -2  -7  -4   10.65    0.94
  -2  -7   4   11.11    0.85
  -2   7  -4   11.03    0.91
  -2   7   4   10.22    0.83
   2  -7  -4   10.42    0.88
   2  -7  -4   10.68    0.85
   2   7  -4   10.32    0.84
  -2  -7  -5   22.30    1.22
  -2  -7   5   23.12    1.11
  -2   7  -5   22.44    1.22
  -2   7   5   23.47    1.13
   2  -7  -5   23.95    1.18
   2  -7  -5   22.82    1.17
   2   7  -5   23.58    1.20
  -2  -7  -6    3.18    0.65
  -2   7  -6    3.28    0.65
  -2   7   6    4.31    0.65
   2  -7  -6    3.29    0.61
   2  -7  -6    3.80    0.64
   2   7  -6    3.77    0.69
  -2  -7  -7    4.92    0.81
  -2   7  -7    4.79    0.75
   2  -7  -7    6.43    0.79
   2   7  -7    6.20    0.86
  -2  -7  -8    4.21    0.77
  -2   7  -8    4.53    0.74
   2  -7  -8    6.22    0.81
   2   7  -8    4.88    0.78
  -2  -7  -9    2.22    0.65
  -2   7  -9    2.00    0.63
   2  -7  -9    1.97    0.56
   2   7  -9    2.41    0.64
  -2  -7 -10    2.57    0.71
  -2   7 -10    1.93    0.63
   2   7 -10    1.67    0.59
  -2  -7 -11    3.36    0.79
  -2   7 -11    3.42    0.79
   2   7 -11    3.29    0.77
  -2  -7 -12    0.72    0.58
  -2   7 -12   -0.01    0.47
   2   7 -12    0.21    0.50
  -2  -7 -13   -0.05    0.58
  -2   7 -13    0.31    0.58
   2   7 -13   -0.44    0.44
  -2  -7 -14    1.03    0.68
  -2   7 -14    0.12    0.53
   2   7 -14    0.20    0.53
  -2  -7 -15   -0.04    0.59
  -2   7 -15    0.11    0.55
   2   7 -15    0.22    0.56
  -2  -7 -16    0.34    0.64
  -2   7 -16    1.16    0.70
   2   7 -16    0.64    0.61
  -2  -8   0    0.06    0.39
  -2   8   0    0.45    0.42
  -2  -8  -1    3.34    0.63
  -2  -8   1    2.97    0.63
  -2   8  -1    4.02    0.69
  -2   8   1    2.38    0.56
   2  -8  -1    3.97    0.69
   2  -8  -1    3.49    0.69
  -2  -8  -2    4.24    0.71
  -2  -8   2    4.17    0.68
  -2   8  -2    3.62    0.65
  -2   8   2    3.58    0.64
   2  -8  -2    4.05    0.67
   2  -8  -2    4.10    0.70
  -2  -8  -3    0.39    0.46
  -2  -8   3    0.40    0.41
  -2   8  -3    0.71    0.44
  -2   8   3    0.76    0.42
   2  -8  -3    0.43    0.45
   2  -8  -3    0.36    0.45
  -2  -8  -4   11.22    1.00
  -2  -8   4   13.01    1.00
  -2   8  -4   11.23    0.99
  -2   8   4   11.46    0.92
   2  -8  -4   13.22    1.00
   2  -8  -4   11.89    0.98
   2   8  -4   12.55    0.94
  -2  -8  -5    7.41    0.91
  -2  -8   5    8.53    0.87
  -2   8  -5    6.96    0.87
  -2   8   5    8.23    0.85
   2  -8  -5    8.17    0.88
   2   8  -5    7.51    0.84
  -2  -8  -6    0.72    0.51
  -2   8  -6    0.79    0.49
   2  -8  -6    1.27    0.53
   2   8  -6    1.25    0.52
  -2  -8  -7    0.01    0.47
  -2   8  -7    0.73    0.46
   2  -8  -7    0.46    0.46
   2   8  -7    0.38    0.44
  -2  -8  -8    1.85    0.65
  -2   8  -8    1.38    0.57
   2  -8  -8    2.00    0.61
   2   8  -8    1.61    0.56
  -2  -8  -9    2.12    0.71
  -2   8  -9    2.00    0.66
   2  -8  -9    1.59    0.58
   2   8  -9    2.06    0.63
  -2  -8 -10    1.89    0.69
  -2   8 -10    1.76    0.67
   2   8 -10    2.00    0.63
  -2  -8 -11   -0.21    0.51
  -2   8 -11    0.13    0.47
   2   8 -11   -0.07    0.44
  -2  -8 -12    0.49    0.59
  -2   8 -12    0.01    0.51
   2   8 -12    0.78    0.55
  -2  -8 -13    0.88    0.65
  -2   8 -13    0.71    0.56
   2   8 -13    0.36    0.58
  -2  -8 -14    0.21    0.65
  -2   8 -14    0.24    0.61
   2   8 -14    1.01    0.64
  -2  -8 -15    0.10    0.69
  -2   8 -15   -0.35    0.54
   2   8 -15   -0.42    0.52
  -2  -9   0    2.78    0.65
  -2   9   0    2.91    0.63
   2  -9   0    4.04    0.77
   2  -9   0    3.28    0.74
  -2  -9  -1    1.93    0.62
  -2  -9   1    2.52    0.64
  -2   9  -1    2.04    0.57
  -2   9   1    1.88    0.56
   2  -9  -1    2.14    0.59
   2  -9  -1    2.03    0.64
  -2  -9  -2    3.09    0.70
  -2  -9   2    3.30    0.68
  -2   9  -2    3.03    0.67
  -2   9   2    4.04    0.70
   2  -9  -2    3.31    0.67
   2  -9  -2    3.20    0.70
  -2  -9  -3    0.16    0.46
  -2  -9   3    0.13    0.47
  -2   9  -3    0.52    0.41
  -2   9   3    0.69    0.45
   2  -9  -3    0.41    0.48
  -2  -9  -4    0.14    0.47
  -2  -9   4   -0.12    0.43
  -2   9  -4    0.39    0.42
   2  -9  -4    0.00    0.46
  -2  -9  -5    1.89    0.63
  -2   9  -5    1.47    0.58
   2  -9  -5    1.70    0.59
  -2  -9  -6    1.17    0.59
  -2   9  -6    0.67    0.46
   2  -9  -6    1.35    0.57
   2   9  -6    1.18    0.55
  -2  -9  -7    2.02    0.67
  -2   9  -7    2.22    0.70
   2  -9  -7    2.19    0.65
   2   9  -7    2.74    0.68
  -2  -9  -8    1.05    0.61
  -2   9  -8    0.87    0.58
   2  -9  -8    0.83    0.55
   2   9  -8    0.97    0.57
  -2  -9  -9    0.45    0.58
  -2   9  -9    0.64    0.51
   2  -9  -9    0.52    0.56
   2   9  -9    0.92    0.56
  -2  -9 -10    0.35    0.62
  -2   9 -10    0.04    0.49
   2   9 -10    0.84    0.54
  -2  -9 -11    0.78    0.64
  -2   9 -11    0.50    0.62
   2   9 -11    0.72    0.58
  -2  -9 -12    3.71    0.90
  -2   9 -12    3.87    0.92
   2   9 -12    2.30    0.74
  -2  -9 -13   -0.06    0.63
  -2   9 -13    0.17    0.59
   2   9 -13    0.06    0.55
  -2 -10   0    0.46    0.50
  -2  10   0   -0.13    0.40
   2 -10   0    0.80    0.56
   2 -10   0    0.44    0.55
  -2 -10  -1    1.66    0.61
  -2 -10   1    0.72    0.55
  -2  10  -1    0.93    0.51
  -2  10   1    0.60    0.47
   2 -10  -1    1.26    0.63
   2 -10   1    0.77    0.55
  -2 -10  -2    1.07    0.57
  -2 -10   2    1.01    0.57
  -2  10  -2    0.98    0.53
   2 -10  -2    0.89    0.57
  -2 -10  -3    0.87    0.57
  -2 -10   3    1.62    0.64
  -2  10  -3    1.33    0.57
   2 -10  -3    1.90    0.65
  -2 -10  -4    1.66    0.64
  -2 -10   4    1.70    0.64
  -2  10  -4    1.98    0.65
   2 -10  -4    1.42    0.62
  -2 -10  -5    0.55    0.59
  -2  10  -5    0.39    0.53
   2 -10  -5    0.85    0.57
  -2 -10  -6    0.91    0.63
  -2  10  -6    0.74    0.59
   2 -10  -6    1.13    0.60
  -2 -10  -7    0.74    0.61
  -2  10  -7    1.13    0.61
   2 -10  -7    0.90    0.60
  -2 -10  -8    1.28    0.69
  -2  10  -8    1.72    0.72
   2 -10  -8    1.23    0.65
   2  10  -8    1.16    0.60
  -2 -10  -9    0.93    0.69
  -2  10  -9    0.98    0.66
   2 -10  -9    0.67    0.62
   2  10  -9    0.62    0.62
  -2 -10 -10    0.16    0.64
  -2  10 -10   -0.14    0.51
   2  10 -10    1.34    0.69
  -2 -10 -11    1.00    0.70
  -2  10 -11    0.24    0.58
   2  10 -11    0.28    0.60
  -2 -11   0    0.47    0.59
   2 -11   0    0.18    0.55
  -2 -11  -1    0.29    0.54
  -2 -11   1    0.38    0.56
  -2  11  -1    0.32    0.51
   2 -11  -1    0.07    0.58
   2 -11   1    0.27    0.58
  -2 -11  -2   -0.05    0.51
  -2 -11   2   -0.17    0.53
  -2  11  -2    0.02    0.47
   2 -11  -2    0.41    0.57
   2 -11   2    0.08    0.55
  -2 -11  -3    0.05    0.54
  -2 -11   3    0.79    0.61
  -2  11  -3    0.60    0.52
   2 -11  -3    0.28    0.57
   2 -11   3    0.50    0.60
  -2 -11  -4    0.11    0.56
  -2  11  -4    0.35    0.55
   2 -11  -4    0.33    0.59
  -2 -11  -5    3.55    0.87
  -2  11  -5    3.18    0.85
   2 -11  -5    2.55    0.76
  -2 -11  -6   -0.01    0.57
  -2  11  -6    0.47    0.54
   2 -11  -6    0.19    0.58
  -2 -11  -7    0.17    0.62
  -2  11  -7    1.49    0.70
   2 -11  -7    1.14    0.71
  -2 -11  -8    0.51    0.66
  -2  11  -8    0.43    0.60
   2 -11  -8    0.40    0.65
  -2 -11  -9   -0.35    0.66
  -2  11  -9    0.50    0.63
   2 -11  -9    0.53    0.69
  -2 -12   0   -0.16    0.59
   2 -12   0    0.89    0.71
  -2 -12  -1    1.31    0.70
  -2 -12   1    0.96    0.68
   2 -12  -1    1.83    0.79
   2 -12   1    0.88    0.72
  -2 -12  -2    0.23    0.60
  -2 -12   2    0.18    0.60
   2 -12  -2   -0.55    0.55
   2 -12   2    0.53    0.67
  -2 -12  -3   -0.34    0.60
  -2 -12   3   -0.30    0.59
  -2  12  -3    0.66    0.62
   2 -12  -3   -0.81    0.48
   2 -12   3    0.29    0.66
  -2 -12  -4    0.04    0.62
  -2  12  -4    0.02    0.54
   2 -12  -4    0.28    0.60
   2 -12   4   -0.19    0.63
  -2 -12  -5    0.21    0.64
  -2  12  -5    0.59    0.60
   2 -12  -5    0.83    0.67
  -3   0   0   -0.08    0.22
   3   0   0    0.01    0.24
   3   0   0    0.01    0.19
  -3   0  -1    1.85    0.39
  -3   0   1    1.88    0.41
   3   0  -1    1.87    0.40
   3   0  -1    1.78    0.33
   3   0   1    1.56    0.35
   3   0   1    1.96    0.33
  -3   0  -2    2.82    0.44
  -3   0  -2    2.89    0.37
  -3   0   2    2.58    0.47
   3   0  -2    2.43    0.46
   3   0  -2    2.87    0.39
   3   0   2    2.94    0.44
  -3   0  -3    0.43    0.28
  -3   0  -3    0.41    0.26
   3   0  -3    0.73    0.34
   3   0  -3    0.42    0.26
   3   0   3    0.34    0.28
  -3   0  -4    2.30    0.42
  -3   0  -4    2.44    0.41
   3   0  -4    2.16    0.49
   3   0  -4    2.58    0.44
   3   0   4    2.04    0.39
  -3   0  -5    6.73    0.59
  -3   0  -5    5.86    0.58
   3   0  -5    6.66    0.71
   3   0  -5    7.27    0.62
   3   0   5    6.35    0.56
  -3   0  -6   16.68    0.83
  -3   0  -6   16.77    0.87
   3   0  -6   17.45    1.02
   3   0  -6   16.99    0.88
   3   0   6   16.88    0.82
  -3   0  -7    2.92    0.46
  -3   0  -7    2.73    0.52
   3   0  -7    3.31    0.63
   3   0  -7    3.35    0.52
   3   0   7    2.54    0.45
  -3   0  -8   13.91    0.82
  -3   0  -8   14.28    0.94
   3   0  -8   14.14    1.01
   3   0  -8   14.08    0.92
   3   0   8   15.47    0.83
  -3   0  -9    1.93    0.54
   3   0  -9    1.86    0.55
  -3   0 -10    2.67    0.62
   3   0 -10    3.09    0.67
  -3   0 -11    4.29    0.74
   3   0 -11    6.22    0.90
  -3   0 -12    0.13    0.46
   3   0 -12    0.58    0.53
  -3   0 -13   -0.04    0.44
   3   0 -13    0.45    0.53
  -3   0 -14    0.62    0.58
   3   0 -14    0.91    0.59
  -3   0 -15   -0.31    0.52
   3   0 -15   -0.51    0.48
  -3   0 -16   -0.19    0.52
   3   0 -16   -0.39    0.50
  -3   0 -17   -0.46    0.55
   3   0 -17    0.17    0.57
  -3   0 -18   -0.08    0.66
   3   0 -18    0.20    0.58
  -3  -1   0    0.48    0.27
  -3   1   0    0.43    0.30
   3  -1   0    0.01    0.27
   3  -1   0    0.12    0.23
   3   1   0    0.19    0.25
   3   1   0    0.14    0.19
  -3  -1  -1   21.95    0.88
  -3   1  -1   24.14    0.99
  -3   1   1   22.27    0.96
   3  -1  -1   24.61    1.03
   3  -1  -1   22.41    0.89
   3  -1   1   23.47    0.98
   3  -1   1   22.83    0.89
   3   1  -1   24.59    0.98
   3   1  -1   24.15    0.76
   3   1   1   24.46    0.94
   3   1   1   23.85    0.75
  -3  -1  -2    3.90    0.49
  -3  -1  -2    3.58    0.40
  -3   1  -2    4.05    0.54
  -3   1  -2    3.77    0.42
  -3   1   2    3.68    0.53
   3  -1  -2    4.47    0.58
   3  -1  -2    3.68    0.48
   3  -1   2    3.71    0.51
   3   1  -2    3.80    0.53
   3   1  -2    3.77    0.41
   3   1   2    4.10    0.48
  -3  -1  -3   13.43    0.71
  -3  -1  -3   13.86    0.68
  -3   1  -3   14.36    0.81
  -3   1  -3   13.99    0.69
  -3   1   3   14.12    0.84
   3  -1  -3   14.16    0.86
   3  -1  -3   14.00    0.76
   3  -1   3   13.53    0.78
   3   1  -3   13.56    0.82
   3   1  -3   13.36    0.65
   3   1   3   14.14    0.72
  -3  -1  -4   14.81    0.73
  -3  -1  -4   14.60    0.74
  -3  -1   4   15.06    0.71
  -3   1  -4   15.75    0.83
  -3   1  -4   14.72    0.74
   3  -1  -4   15.97    0.94
   3  -1  -4   15.90    0.83
   3  -1   4   15.65    0.83
   3   1  -4   16.39    0.92
   3   1  -4   15.61    0.73
   3   1   4   16.19    0.75
  -3  -1  -5   17.39    0.78
  -3  -1  -5   16.66    0.84
  -3   1  -5   16.95    0.86
  -3   1  -5   17.03    0.85
   3  -1  -5   19.83    1.05
   3  -1  -5   17.61    0.90
   3  -1   5   17.04    0.86
   3   1  -5   17.35    0.95
   3   1  -5   17.33    0.80
   3   1   5   17.45    0.77
  -3  -1  -6    8.41    0.61
  -3  -1  -6    8.65    0.71
  -3   1  -6    9.31    0.71
  -3   1  -6    8.86    0.72
   3  -1  -6    9.89    0.85
   3  -1  -6    9.24    0.75
   3  -1   6    9.18    0.70
   3   1  -6    9.58    0.83
   3   1  -6    8.48    0.65
   3   1   6    9.40    0.63
  -3  -1  -7    9.59    0.76
  -3   1  -7    9.23    0.72
  -3   1  -7    9.13    0.76
   3  -1  -7    8.78    0.84
   3  -1  -7    9.53    0.78
   3  -1   7   10.41    0.73
   3   1  -7   10.00    0.87
   3   1  -7    9.50    0.72
  -3  -1  -8   15.20    0.99
  -3   1  -8   15.23    0.89
  -3   1  -8   14.54    0.96
   3  -1  -8   15.49    1.05
   3   1  -8   15.36    1.05
   3   1  -8   13.98    0.87
  -3  -1  -9   11.53    0.92
  -3   1  -9   11.92    0.83
  -3   1  -9   10.92    0.91
   3  -1  -9   13.09    1.03
   3   1  -9   13.04    1.02
  -3  -1 -10    6.41    0.85
  -3   1 -10    7.31    0.86
   3  -1 -10    7.81    0.97
   3   1 -10    7.54    0.91
  -3  -1 -11    3.70    0.73
  -3   1 -11    3.61    0.72
   3  -1 -11    4.12    0.76
   3   1 -11    3.95    0.72
  -3  -1 -12    2.90    0.70
  -3   1 -12    3.37    0.72
   3  -1 -12    2.28    0.63
   3   1 -12    2.98    0.72
  -3  -1 -13    1.43    0.62
  -3   1 -13    1.52    0.63
   3  -1 -13    1.85    0.65
   3   1 -13    2.11    0.64
  -3  -1 -14    4.16    0.85
  -3   1 -14    4.38    0.88
   3  -1 -14    3.60    0.81
   3   1 -14    3.54    0.82
  -3  -1 -15    0.29    0.59
  -3   1 -15    0.58    0.61
   3  -1 -15    1.25    0.64
   3   1 -15    0.78    0.63
  -3  -1 -16    4.08    0.93
  -3   1 -16    2.09    0.77
   3  -1 -16    3.38    0.83
   3   1 -16    3.79    0.86
  -3  -1 -17    0.40    0.64
  -3   1 -17    0.76    0.70
   3  -1 -17   -0.40    0.52
   3   1 -17    0.41    0.55
  -3  -1 -18    0.68    0.71
  -3   1 -18    0.41    0.73
   3  -1 -18    0.40    0.61
   3   1 -18   -0.30    0.52
  -3   2   0    5.93    0.61
   3  -2   0    5.98    0.63
   3  -2   0    5.50    0.58
   3   2   0    6.37    0.55
  -3   2  -1    1.69    0.40
  -3   2   1    1.27    0.39
   3  -2  -1    1.57    0.42
   3  -2  -1    1.13    0.36
   3  -2   1    1.09    0.38
   3  -2   1    1.30    0.36
   3   2  -1    1.28    0.34
   3   2   1    1.97    0.37
  -3  -2  -2    4.11    0.43
  -3   2  -2    3.79    0.54
  -3   2   2    3.80    0.55
   3  -2  -2    3.65    0.56
   3  -2  -2    3.74    0.51
   3  -2   2    3.71    0.55
   3   2  -2    4.45    0.57
   3   2   2    3.26    0.44
  -3  -2  -3   14.24    0.70
  -3  -2  -3   14.53    0.70
  -3   2  -3   14.02    0.83
  -3   2  -3   14.55    0.73
  -3   2   3   13.78    0.83
   3  -2  -3   14.92    0.91
   3  -2  -3   14.18    0.83
   3  -2   3   15.04    0.87
   3   2  -3   16.44    0.88
   3   2   3   14.92    0.71
  -3  -2  -4   37.98    1.04
  -3  -2  -4   38.71    1.15
  -3   2  -4   38.13    1.28
  -3   2  -4   37.13    1.16
  -3   2   4   39.01    1.36
   3  -2  -4   39.02    1.29
   3  -2   4   38.94    1.31
   3   2  -4   40.54    1.35
   3   2   4   40.04    1.07
  -3  -2  -5   13.94    0.80
  -3   2  -5   14.36    0.85
  -3   2  -5   14.24    0.83
  -3   2   5   14.23    0.88
   3  -2  -5   14.78    0.95
   3  -2  -5   14.63    0.89
   3  -2   5   14.34    0.86
   3   2  -5   14.67    0.92
  -3  -2  -6   10.49    0.76
  -3   2  -6   10.60    0.77
  -3   2  -6   10.55    0.77
   3  -2  -6   10.92    0.89
   3   2  -6   11.45    0.87
  -3  -2  -7   10.21    0.83
  -3   2  -7    8.92    0.74
  -3   2  -7    9.22    0.79
   3  -2  -7    9.12    0.87
   3   2  -7    8.90    0.84
  -3  -2  -8   11.76    0.89
  -3   2  -8   12.69    0.88
  -3   2  -8   11.50    0.90
   3  -2  -8   13.38    1.01
   3   2  -8   13.16    0.99
  -3  -2  -9    0.17    0.40
  -3   2  -9    0.16    0.36
  -3   2  -9   -0.35    0.36
   3  -2  -9    0.22    0.44
   3   2  -9    0.68    0.45
  -3  -2 -10    9.12    0.92
  -3   2 -10    8.54    0.78
  -3   2 -10    9.59    0.94
   3  -2 -10    9.04    0.95
   3   2 -10    8.34    0.93
  -3  -2 -11    0.47    0.49
  -3   2 -11    0.29    0.38
  -3   2 -11    0.73    0.48
   3  -2 -11    0.85    0.50
   3   2 -11    0.78    0.49
  -3  -2 -12    0.45    0.52
  -3   2 -12    0.40    0.45
   3  -2 -12   -0.22    0.44
   3   2 -12    0.18    0.46
  -3  -2 -13    0.52    0.54
  -3   2 -13    0.59    0.54
   3  -2 -13    0.54    0.48
   3   2 -13    0.62    0.53
  -3  -2 -14    2.20    0.72
  -3   2 -14    1.87    0.66
   3  -2 -14    2.39    0.71
   3   2 -14    1.37    0.66
  -3  -2 -15    1.31    0.71
  -3   2 -15    1.83    0.68
   3  -2 -15    1.93    0.70
   3   2 -15    1.93    0.74
  -3  -2 -16    0.07    0.62
  -3   2 -16    0.22    0.58
   3  -2 -16    0.76    0.59
   3   2 -16   -0.27    0.50
  -3  -2 -17   -0.25    0.59
  -3   2 -17    0.32    0.68
   3   2 -17   -0.15    0.50
  -3  -2 -18   -0.53    0.66
  -3   2 -18    0.40    0.71
   3   2 -18    0.17    0.62
  -3   3   0    4.98    0.61
   3  -3   0    5.27    0.65
   3  -3   0    4.93    0.61
   3   3   0    5.22    0.53
  -3   3  -1   17.90    0.93
  -3   3   1   17.24    0.92
   3  -3  -1   18.30    1.00
   3  -3  -1   17.17    0.92
   3  -3   1   18.24    0.98
   3  -3   1   17.45    0.93
   3   3  -1   16.27    0.81
   3   3   1   19.38    0.82
  -3  -3  -2    7.30    0.56
  -3   3  -2    8.58    0.73
  -3   3   2    8.33    0.73
   3  -3  -2    7.99    0.71
   3  -3  -2    7.89    0.70
   3  -3   2    9.08    0.76
   3   3  -2    7.95    0.65
   3   3   2    8.38    0.59
  -3  -3  -3    0.20    0.27
  -3   3  -3    0.18    0.32
  -3   3   3    0.37    0.30
   3  -3  -3    0.00    0.36
   3  -3  -3    0.13    0.31
   3  -3   3   -0.13    0.30
   3   3  -3    0.08    0.28
  -3  -3  -4    4.03    0.54
  -3   3  -4    3.44    0.54
  -3   3   4    4.57    0.66
   3  -3  -4    3.88    0.59
   3  -3   4    4.90    0.67
   3   3  -4    4.08    0.57
  -3  -3  -5    1.87    0.44
  -3   3  -5    1.66    0.43
  -3   3  -5    1.64    0.45
  -3   3   5    1.50    0.44
   3  -3  -5    2.23    0.55
   3   3  -5    2.27    0.52
  -3  -3  -6   10.92    0.82
  -3   3  -6   12.15    0.87
  -3   3  -6   11.91    0.85
  -3   3   6   12.22    0.90
   3  -3  -6   12.07    0.93
   3   3  -6   12.06    0.90
  -3  -3  -7   11.19    0.86
  -3   3  -7   11.07    0.84
  -3   3  -7   10.62    0.86
   3  -3  -7   12.00    0.96
   3   3  -7   11.86    0.89
  -3  -3  -8    0.55    0.41
  -3   3  -8    0.44    0.40
  -3   3  -8    0.62    0.41
   3  -3  -8    0.11    0.44
   3   3  -8    0.55    0.45
  -3  -3  -9    9.19    0.88
  -3   3  -9   10.02    0.87
  -3   3  -9    9.50    0.92
   3  -3  -9   10.11    0.96
   3   3  -9    8.91    0.92
  -3  -3 -10    4.08    0.75
  -3   3 -10    4.66    0.70
  -3   3 -10    4.85    0.77
   3  -3 -10    5.76    0.85
   3   3 -10    3.87    0.72
  -3  -3 -11    7.44    0.92
  -3   3 -11    8.15    0.89
  -3   3 -11    8.71    0.95
   3  -3 -11    9.38    0.99
   3   3 -11    7.89    1.01
  -3  -3 -12    3.03    0.70
  -3   3 -12    4.08    0.75
  -3   3 -12    3.97    0.78
   3  -3 -12    4.03    0.80
   3   3 -12    2.97    0.71
  -3  -3 -13    1.07    0.59
  -3   3 -13    0.58    0.48
  -3   3 -13    1.64    0.64
   3  -3 -13    1.38    0.61
   3   3 -13    0.69    0.54
  -3  -3 -14    0.98    0.62
  -3   3 -14    1.19    0.63
   3  -3 -14    0.90    0.58
   3   3 -14    0.84    0.61
  -3  -3 -15    0.98    0.64
  -3   3 -15    1.81    0.74
   3  -3 -15    2.49    0.75
   3   3 -15    1.16    0.67
  -3  -3 -16    2.05    0.79
  -3   3 -16    2.72    0.87
   3   3 -16    2.23    0.76
  -3  -3 -17    0.74    0.74
  -3   3 -17    0.92    0.72
   3   3 -17    0.22    0.60
  -3   4   0   -0.19    0.30
   3  -4   0    0.31    0.35
   3   4   0   -0.05    0.25
  -3   4  -1    2.64    0.50
  -3   4   1    4.24    0.62
   3  -4  -1    3.71    0.60
   3  -4   1    3.99    0.64
   3   4  -1    4.40    0.55
   3   4   1    4.01    0.48
  -3  -4  -2   10.13    0.68
  -3   4  -2    9.25    0.76
  -3   4   2    8.93    0.79
   3  -4  -2   10.02    0.81
   3  -4   2    9.00    0.83
   3   4  -2   10.52    0.76
  -3  -4  -3   21.93    0.96
  -3   4  -3   23.37    1.14
  -3   4   3   23.09    1.14
   3  -4  -3   22.62    1.15
   3  -4   3   25.50    1.18
   3   4  -3   22.99    1.07
  -3  -4  -4    7.10    0.66
  -3   4  -4    6.98    0.74
  -3   4   4    8.08    0.78
   3  -4  -4    6.87    0.79
   3   4  -4    6.95    0.70
  -3  -4  -5   12.32    0.84
  -3   4  -5   12.64    0.91
  -3   4   5   13.74    0.95
   3  -4  -5   13.44    0.97
   3   4  -5   14.32    0.94
  -3  -4  -6    3.22    0.58
  -3   4  -6    3.48    0.61
  -3   4   6    4.22    0.66
   3  -4  -6    3.80    0.67
   3   4  -6    5.06    0.75
  -3  -4  -7    5.64    0.75
  -3   4  -7    6.70    0.77
  -3   4   7    6.47    0.82
   3  -4  -7    7.34    0.85
   3   4  -7    6.12    0.80
  -3  -4  -8    3.83    0.65
  -3   4  -8    3.81    0.69
  -3   4  -8    3.54    0.67
   3  -4  -8    4.51    0.74
   3   4  -8    4.30    0.72
  -3  -4  -9    1.19    0.54
  -3   4  -9    1.39    0.51
  -3   4  -9    1.59    0.58
   3  -4  -9    1.29    0.54
   3   4  -9    1.53    0.58
  -3  -4 -10    0.70    0.49
  -3   4 -10    0.25    0.43
  -3   4 -10    1.09    0.54
   3  -4 -10    1.39    0.57
   3   4 -10    1.44    0.58
  -3  -4 -11    0.02    0.45
  -3   4 -11   -0.71    0.35
  -3   4 -11    0.26    0.48
   3  -4 -11   -0.09    0.44
   3   4 -11    0.01    0.43
  -3  -4 -12    0.96    0.57
  -3   4 -12    0.07    0.48
  -3   4 -12    0.98    0.59
   3  -4 -12    0.43    0.51
   3   4 -12    0.54    0.54
  -3  -4 -13    1.54    0.64
  -3   4 -13    2.37    0.67
  -3   4 -13    2.53    0.75
   3  -4 -13    1.98    0.67
   3   4 -13    1.71    0.66
  -3  -4 -14    2.19    0.74
  -3   4 -14    2.42    0.70
  -3   4 -14    1.22    0.68
   3   4 -14    1.38    0.67
  -3  -4 -15    3.66    0.88
  -3   4 -15    3.43    0.90
   3   4 -15    3.45    0.84
  -3  -4 -16   -0.20    0.62
  -3   4 -16    0.71    0.70
   3   4 -16    0.15    0.55
  -3  -4 -17    0.45    0.71
  -3   4 -17    0.29    0.67
   3   4 -17   -0.22    0.49
  -3   5   0   -0.13    0.34
   3  -5   0    0.00    0.40
  -3   5  -1   16.89    1.04
  -3   5   1   16.52    1.03
   3  -5  -1   17.40    1.08
   3  -5   1   18.87    1.14
   3   5  -1   18.86    0.94
  -3  -5  -2    8.81    0.73
  -3   5  -2   10.27    0.87
  -3   5   2    7.78    0.79
   3  -5  -2    9.81    0.89
   3  -5   2    9.93    0.91
   3   5  -2    9.73    0.78
  -3  -5  -3    0.97    0.42
  -3   5  -3    0.94    0.42
  -3   5   3    0.94    0.43
   3  -5  -3    0.54    0.42
   3  -5   3    1.24    0.51
   3   5  -3    0.42    0.39
  -3  -5  -4    2.28    0.51
  -3   5  -4    3.08    0.62
  -3   5   4    2.58    0.58
   3  -5  -4    2.65    0.60
   3   5  -4    2.62    0.55
  -3  -5  -5   15.38    0.99
  -3   5  -5   15.38    1.05
  -3   5   5   15.66    1.06
   3  -5  -5   15.25    1.06
   3   5  -5   14.52    0.98
  -3  -5  -6    1.43    0.49
  -3   5  -6    1.46    0.49
  -3   5   6    1.26    0.51
   3  -5  -6    1.22    0.52
   3   5  -6    1.67    0.53
  -3  -5  -7    2.79    0.63
  -3   5  -7    3.47    0.68
  -3   5   7    2.41    0.56
   3  -5  -7    3.02    0.67
   3   5  -7    2.70    0.65
  -3  -5  -8    1.38    0.53
  -3   5  -8    1.17    0.50
   3  -5  -8    1.47    0.57
   3   5  -8    2.65    0.67
  -3  -5  -9    0.03    0.45
  -3   5  -9    0.56    0.46
   3  -5  -9    0.04    0.46
   3   5  -9    0.04    0.48
  -3  -5 -10    0.67    0.51
  -3   5 -10    0.94    0.54
   3  -5 -10    0.91    0.53
   3   5 -10    0.90    0.55
  -3  -5 -11    0.91    0.53
  -3   5 -11    0.26    0.48
   3  -5 -11    0.30    0.52
   3   5 -11    0.91    0.58
  -3  -5 -12    0.37    0.50
  -3   5 -12    0.52    0.47
   3   5 -12    0.51    0.47
  -3  -5 -13    0.38    0.56
  -3   5 -13    0.05    0.52
   3   5 -13    0.59    0.55
  -3  -5 -14   -0.02    0.57
  -3   5 -14    0.34    0.56
   3   5 -14    0.12    0.51
  -3  -5 -15    0.15    0.62
  -3   5 -15    0.27    0.58
   3   5 -15    0.16    0.61
  -3  -5 -16    1.19    0.76
  -3   5 -16    0.52    0.62
   3   5 -16    0.66    0.63
  -3   6   0    5.90    0.81
   3  -6   0    7.02    0.88
  -3   6  -1    8.85    0.88
  -3   6   1    9.24    0.88
   3  -6  -1    9.64    0.94
   3  -6   1    9.53    0.96
  -3  -6  -2    4.53    0.66
  -3   6  -2    4.23    0.68
  -3   6   2    4.34    0.71
   3  -6  -2    4.35    0.73
   3  -6   2    5.42    0.80
  -3  -6  -3    2.68    0.56
  -3   6  -3    3.04    0.62
  -3   6   3    3.56    0.64
   3  -6  -3    3.21    0.66
   3   6  -3    5.01    0.69
  -3  -6  -4    9.13    0.87
  -3   6  -4    9.44    0.90
  -3   6   4   10.49    0.93
   3  -6  -4   10.29    0.96
   3   6  -4   10.85    0.90
  -3  -6  -5    5.55    0.75
  -3   6  -5    4.72    0.74
  -3   6   5    5.74    0.81
   3  -6  -5    5.65    0.81
   3   6  -5    6.30    0.83
  -3  -6  -6    4.25    0.75
  -3   6  -6    3.34    0.66
  -3   6   6    3.53    0.68
   3  -6  -6    3.20    0.65
   3   6  -6    3.58    0.69
  -3  -6  -7    0.79    0.49
  -3   6  -7   -0.09    0.37
  -3   6   7    0.64    0.45
   3  -6  -7    0.22    0.45
   3   6  -7    0.33    0.44
  -3  -6  -8    0.18    0.47
  -3   6  -8    0.07    0.38
  -3   6   8    0.18    0.38
   3  -6  -8    0.17    0.47
   3   6  -8   -0.20    0.43
  -3  -6  -9    1.29    0.58
  -3   6  -9    1.70    0.58
   3  -6  -9    2.08    0.64
   3   6  -9    1.95    0.65
  -3  -6 -10    0.22    0.48
  -3   6 -10    0.02    0.46
   3  -6 -10    0.02    0.48
   3   6 -10    0.50    0.46
  -3  -6 -11    0.40    0.53
  -3   6 -11    1.26    0.61
   3   6 -11    0.86    0.58
  -3  -6 -12    0.34    0.54
  -3   6 -12    1.03    0.60
   3   6 -12    0.34    0.48
  -3  -6 -13   -0.33    0.52
  -3   6 -13    0.15    0.49
   3   6 -13   -0.22    0.52
  -3  -6 -14    0.05    0.56
  -3   6 -14    0.56    0.55
   3   6 -14    0.04    0.55
  -3  -6 -15    0.72    0.73
  -3   6 -15    0.76    0.68
   3   6 -15    1.21    0.72
  -3   7   0    2.35    0.60
   3  -7   0    2.28    0.65
  -3   7  -1    2.77    0.66
  -3   7   1    2.03    0.55
   3  -7  -1    2.07    0.60
   3  -7  -1    2.94    0.59
   3  -7   1    3.36    0.71
  -3  -7  -2    3.61    0.65
  -3   7  -2    3.66    0.68
  -3   7   2    3.47    0.66
   3  -7  -2    3.46    0.71
   3  -7  -2    3.77    0.68
   3  -7   2    3.33    0.72
  -3  -7  -3    3.07    0.66
  -3   7  -3    3.87    0.73
  -3   7   3    3.16    0.67
   3  -7  -3    3.75    0.75
  -3  -7  -4    3.85    0.69
  -3   7  -4    3.53    0.74
  -3   7   4    3.69    0.70
   3  -7  -4    3.28    0.70
   3   7  -4    3.62    0.69
  -3  -7  -5    7.00    0.87
  -3   7  -5    5.71    0.82
  -3   7   5    7.06    0.91
   3  -7  -5    7.36    0.95
   3   7  -5    7.28    0.90
  -3  -7  -6    0.11    0.47
  -3   7  -6    0.41    0.45
  -3   7   6    0.64    0.49
   3  -7  -6    0.73    0.50
   3   7  -6    0.42    0.47
  -3  -7  -7   -0.11    0.47
  -3   7  -7   -0.26    0.40
  -3   7   7   -0.55    0.33
   3  -7  -7   -0.02    0.47
   3   7  -7    0.71    0.51
  -3  -7  -8    0.39    0.50
  -3   7  -8    0.21    0.47
  -3   7   8    0.40    0.48
   3  -7  -8    0.00    0.47
   3   7  -8   -0.28    0.46
  -3  -7  -9    1.09    0.58
  -3   7  -9    0.85    0.53
   3   7  -9    1.38    0.61
  -3  -7 -10    0.69    0.58
  -3   7 -10    0.99    0.63
   3   7 -10    0.94    0.59
  -3  -7 -11    0.29    0.55
  -3   7 -11    0.28    0.55
   3   7 -11   -0.14    0.47
  -3  -7 -12   -0.42    0.50
  -3   7 -12   -0.14    0.51
   3   7 -12   -0.22    0.51
  -3  -7 -13    1.25    0.73
  -3   7 -13    0.99    0.64
   3   7 -13    1.43    0.70
  -3  -7 -14    0.90    0.72
  -3   7 -14    1.57    0.74
   3   7 -14    0.70    0.63
  -3   8   0    0.97    0.51
   3  -8   0    1.14    0.57
  -3   8  -1    0.53    0.48
  -3   8   1    0.85    0.50
   3  -8  -1    0.85    0.57
   3  -8  -1    0.28    0.48
   3  -8   1    1.32    0.59
  -3   8  -2    0.34    0.44
  -3   8   2    0.38    0.43
   3  -8  -2    0.50    0.53
   3  -8  -2    0.14    0.46
   3  -8   2    0.29    0.51
  -3  -8  -3    0.66    0.51
  -3   8  -3    0.66    0.47
  -3   8   3    0.27    0.44
   3  -8  -3    0.27    0.46
  -3  -8  -4    0.36    0.49
  -3   8  -4    0.55    0.49
  -3   8   4    0.51    0.46
   3  -8  -4    0.36    0.50
  -3  -8  -5    3.19    0.72
  -3   8  -5    2.85    0.67
  -3   8   5    3.38    0.72
   3  -8  -5    2.94    0.72
  -3  -8  -6    1.45    0.63
  -3   8  -6    1.00    0.55
  -3   8   6    0.92    0.54
   3  -8  -6    1.16    0.59
   3   8  -6    1.02    0.55
  -3  -8  -7    0.37    0.53
  -3   8  -7    0.03    0.41
  -3   8   7    0.10    0.45
   3   8  -7   -0.29    0.47
  -3  -8  -8   -0.04    0.50
  -3   8  -8    0.23    0.46
   3   8  -8    0.08    0.48
  -3  -8  -9   -0.02    0.52
  -3   8  -9    1.04    0.61
   3   8  -9    0.89    0.60
  -3  -8 -10   -0.03    0.55
  -3   8 -10   -0.12    0.52
   3   8 -10    0.17    0.54
  -3  -8 -11   -0.46    0.55
  -3   8 -11    0.04    0.55
   3   8 -11   -0.01    0.49
  -3  -8 -12    0.99    0.65
  -3   8 -12    0.92    0.65
   3   8 -12    0.40    0.61
  -3  -8 -13    0.53    0.67
  -3   8 -13    0.45    0.58
   3   8 -13    0.24    0.61
  -3   9   0    0.22    0.47
   3  -9   0    0.53    0.54
   3  -9   0    0.42    0.54
  -3   9  -1    0.62    0.53
  -3   9   1    0.86    0.54
   3  -9  -1    0.69    0.57
   3  -9  -1    0.93    0.57
   3  -9   1    1.13    0.64
  -3   9  -2    0.58    0.50
  -3   9   2    0.64    0.50
   3  -9  -2    1.49    0.65
   3  -9  -2    0.39    0.52
   3  -9   2    1.47    0.66
  -3  -9  -3    3.14    0.74
  -3   9  -3    2.08    0.66
  -3   9   3    2.79    0.69
   3  -9  -3    3.97    0.82
   3  -9   3    2.84    0.75
  -3  -9  -4    0.65    0.58
  -3   9  -4    0.16    0.49
  -3   9   4    1.02    0.55
   3  -9  -4    0.54    0.56
  -3  -9  -5   -0.11    0.52
  -3   9  -5    0.34    0.51
  -3   9   5    0.45    0.52
  -3  -9  -6    0.56    0.58
  -3   9  -6    0.98    0.57
  -3  -9  -7    0.09    0.56
  -3   9  -7   -0.37    0.39
  -3  -9  -8    0.79    0.63
  -3   9  -8    0.33    0.53
   3   9  -8   -0.32    0.48
  -3  -9  -9    0.40    0.62
  -3   9  -9    0.68    0.63
   3   9  -9    0.49    0.53
  -3  -9 -10    1.39    0.72
  -3   9 -10    1.26    0.70
   3   9 -10    1.26    0.68
  -3  -9 -11    0.59    0.68
  -3   9 -11   -0.41    0.53
   3   9 -11    0.55    0.63
  -3  10   0   -0.24    0.49
   3 -10   0   -0.27    0.48
   3 -10   0   -0.13    0.54
  -3  10  -1    0.23    0.47
  -3  10   1   -0.23    0.44
   3 -10  -1    0.12    0.52
   3 -10  -1   -0.24    0.52
   3 -10   1    0.10    0.56
   3 -10   1    0.13    0.54
  -3  10  -2    0.33    0.47
  -3  10   2    0.37    0.53
   3 -10  -2    0.04    0.55
   3 -10  -2   -0.23    0.51
   3 -10   2    0.04    0.58
  -3  10  -3   -0.38    0.44
  -3  10   3   -0.22    0.46
   3 -10   3    0.43    0.58
  -3 -10  -4    0.94    0.63
  -3  10  -4    0.53    0.52
  -3 -10  -5    3.34    0.82
  -3  10  -5    2.28    0.75
  -3 -10  -6    0.16    0.60
  -3  10  -6    0.46    0.56
  -3 -10  -7    0.58    0.66
  -3  10  -7   -0.01    0.53
  -3 -10  -8    0.56    0.68
  -3  10  -8    0.79    0.64
  -3 -10  -9    0.35    0.68
  -3  10  -9    0.40    0.64
  -3  11   0    0.64    0.61
   3 -11   0    0.28    0.62
   3 -11   0   -0.33    0.56
  -3  11  -1    0.45    0.55
  -3  11   1    1.14    0.65
   3 -11  -1    0.44    0.66
   3 -11   1    1.61    0.74
   3 -11   1    0.89    0.70
  -3  11  -2    0.68    0.59
   3 -11  -2    0.25    0.62
   3 -11   2   -0.12    0.53
   3 -11   2    0.10    0.62
  -3  11  -3    0.01    0.49
   3 -11   3    0.62    0.67
   3 -11   3   -0.04    0.57
  -3 -11  -4    0.12    0.67
  -3  11  -4   -0.21    0.53
   3 -11   4    0.20    0.64
  -3 -11  -5    0.44    0.65
  -3  11  -5   -0.37    0.45
  -4   0   0    0.43    0.38
   4   0   0    0.24    0.35
  -4   0  -1    0.77    0.40
  -4   0   1    0.27    0.38
   4   0  -1   -0.11    0.34
   4   0   1    0.40    0.36
  -4   0  -2    0.92    0.43
   4   0  -2    0.83    0.43
   4   0   2    0.41    0.36
  -4   0  -3    2.29    0.51
   4   0  -3    2.13    0.55
   4   0   3    2.48    0.52
  -4   0  -4    1.77    0.48
   4   0  -4    1.84    0.55
   4   0   4    1.80    0.48
  -4   0  -5    3.01    0.56
   4   0  -5    3.29    0.67
   4   0   5    2.82    0.53
  -4   0  -6    0.22    0.36
   4   0  -6    0.36    0.45
   4   0   6    0.16    0.34
   4   0  -7    1.18    0.56
  -4   0  -8    3.68    0.66
   4   0  -8    5.45    0.90
  -4   0  -9   -0.03    0.43
   4   0  -9   -0.28    0.47
  -4   0 -10    0.21    0.45
   4   0 -10   -0.14    0.45
  -4   0 -11    1.11    0.55
   4   0 -11    0.70    0.58
  -4   0 -12    0.13    0.51
   4   0 -12    0.27    0.53
  -4   0 -13    0.72    0.60
   4   0 -13    0.45    0.58
  -4   0 -14    0.39    0.59
   4   0 -14    0.63    0.65
  -4   0 -15    0.36    0.63
   4   0 -15    0.60    0.69
  -4   0 -16    1.13    0.70
   4   0 -16    0.70    0.66
  -4   1   0   -0.20    0.33
   4  -1   0    0.19    0.38
   4  -1   0    0.03    0.30
   4   1   0    0.05    0.34
  -4  -1  -1    0.75    0.37
  -4   1  -1    0.82    0.44
  -4   1   1    1.29    0.45
   4  -1  -1    0.96    0.46
   4  -1  -1    1.09    0.40
   4  -1   1    1.14    0.45
   4  -1   1    0.93    0.39
   4   1  -1    0.73    0.40
   4   1   1    1.02    0.43
  -4  -1  -2    3.51    0.58
  -4   1  -2    3.38    0.61
  -4   1   2    2.95    0.60
   4  -1  -2    4.15    0.70
   4  -1  -2    4.33    0.59
   4  -1   2    3.29    0.59
   4  -1   2    3.65    0.60
   4   1  -2    3.48    0.62
   4   1   2    4.16    0.61
  -4  -1  -3    0.95    0.39
  -4   1  -3    1.36    0.47
  -4   1   3    1.17    0.49
   4  -1  -3    1.26    0.50
   4  -1   3    1.15    0.44
   4   1  -3    1.00    0.47
   4   1   3    1.19    0.41
  -4  -1  -4    2.18    0.48
  -4   1  -4    2.49    0.55
   4  -1  -4    1.89    0.60
   4  -1   4    2.30    0.53
   4   1  -4    2.06    0.56
   4   1   4    2.00    0.46
  -4   1  -5    5.29    0.72
   4  -1  -5    5.19    0.80
   4  -1   5    5.23    0.70
   4   1  -5    6.05    0.84
  -4   1  -6    2.17    0.53
   4  -1  -6    2.65    0.64
   4  -1   6    2.35    0.55
   4   1  -6    3.29    0.68
  -4   1  -7    4.31    0.69
  -4   1  -7    5.34    0.82
   4  -1  -7    5.80    0.86
   4  -1   7    5.87    0.73
   4   1  -7    5.22    0.86
  -4  -1  -8   -0.07    0.39
  -4   1  -8    0.12    0.43
   4  -1  -8    0.36    0.53
   4  -1   8    0.29    0.38
   4   1  -8    0.49    0.53
  -4  -1  -9    1.24    0.54
  -4   1  -9    2.03    0.62
   4  -1  -9    1.28    0.62
   4   1  -9    1.49    0.60
  -4  -1 -10    1.08    0.54
  -4   1 -10    0.71    0.50
   4  -1 -10   -0.08    0.53
   4   1 -10    0.10    0.49
  -4  -1 -11   -0.06    0.43
  -4   1 -11    0.20    0.47
   4  -1 -11   -0.27    0.50
   4   1 -11   -0.41    0.45
  -4  -1 -12   -0.15    0.50
  -4   1 -12   -0.04    0.51
   4  -1 -12    0.81    0.62
   4   1 -12    0.13    0.56
  -4  -1 -13    0.19    0.57
  -4   1 -13    0.04    0.54
   4  -1 -13    0.28    0.55
   4   1 -13    0.23    0.55
  -4  -1 -14   -0.25    0.50
  -4   1 -14    0.22    0.57
   4  -1 -14    0.50    0.61
   4   1 -14   -0.08    0.52
  -4  -1 -15    1.54    0.73
  -4   1 -15    0.53    0.67
   4  -1 -15    1.12    0.68
   4   1 -15    1.32    0.69
  -4  -1 -16    0.77    0.65
  -4   1 -16    0.06    0.61
   4  -1 -16    0.30    0.70
   4   1 -16    0.34    0.64
  -4   2   0    1.15    0.49
   4  -2   0    0.81    0.45
   4   2   0    1.60    0.46
  -4   2  -1    0.57    0.43
  -4   2   1    0.32    0.39
   4  -2  -1    0.40    0.44
   4  -2   1    0.35    0.43
   4   2  -1    0.49    0.37
   4   2   1    0.28    0.36
  -4   2  -2    4.46    0.73
  -4   2   2    3.52    0.67
   4  -2  -2    3.44    0.64
   4  -2   2    3.87    0.67
   4   2  -2    3.33    0.60
   4   2   2    3.77    0.58
  -4   2  -3    1.09    0.44
  -4   2   3    0.74    0.42
   4  -2  -3    1.17    0.53
   4  -2   3    0.96    0.46
   4   2  -3    0.90    0.46
  -4   2  -4    0.79    0.45
  -4   2   4    1.16    0.51
   4  -2  -4    0.84    0.48
   4  -2   4    1.12    0.48
   4   2  -4    0.62    0.46
  -4   2  -5    3.34    0.66
   4  -2  -5    3.14    0.72
   4  -2   5    2.44    0.57
   4   2  -5    3.22    0.67
  -4   2  -6    1.58    0.50
   4  -2  -6    1.25    0.56
   4  -2   6    2.12    0.56
   4   2  -6    1.66    0.61
  -4   2  -7    7.87    0.89
  -4   2  -7    7.17    0.86
   4  -2  -7    6.94    0.98
   4  -2   7    8.39    0.87
   4   2  -7    7.18    0.97
  -4  -2  -8    0.63    0.50
  -4   2  -8    0.06    0.40
  -4   2  -8    1.03    0.52
   4  -2  -8    0.44    0.52
   4  -2   8    0.81    0.48
   4   2  -8    0.98    0.58
  -4  -2  -9    2.52    0.65
  -4   2  -9    3.13    0.66
  -4   2  -9    4.04    0.74
   4  -2  -9    4.03    0.84
   4  -2   9    2.84    0.64
   4   2  -9    2.47    0.68
  -4  -2 -10    0.21    0.49
  -4   2 -10   -0.30    0.39
   4  -2 -10   -0.08    0.54
   4  -2  10    0.04    0.42
   4   2 -10    0.27    0.50
  -4  -2 -11    0.46    0.55
  -4   2 -11    1.12    0.58
   4  -2 -11    0.99    0.61
   4   2 -11    0.91    0.59
  -4  -2 -12    0.11    0.50
  -4   2 -12   -0.27    0.49
   4  -2 -12    0.19    0.53
   4   2 -12   -0.02    0.51
  -4  -2 -13    1.33    0.68
  -4   2 -13    0.34    0.57
   4  -2 -13    0.89    0.66
   4   2 -13    1.21    0.65
  -4  -2 -14    0.66    0.64
  -4   2 -14    0.53    0.59
   4  -2 -14    1.22    0.71
   4   2 -14    0.72    0.66
  -4  -2 -15    1.22    0.71
  -4   2 -15    0.67    0.69
   4  -2 -15    1.37    0.76
   4   2 -15    0.98    0.72
  -4  -2 -16    0.21    0.66
  -4   2 -16    0.46    0.65
  -4   3   0   -0.11    0.40
   4  -3   0    0.41    0.41
   4   3   0    0.31    0.34
  -4   3  -1    0.77    0.45
  -4   3   1    0.23    0.43
   4  -3  -1    0.28    0.44
   4  -3   1    0.20    0.39
   4   3  -1    0.29    0.38
   4   3   1   -0.14    0.31
  -4   3  -2    6.09    0.84
  -4   3   2    6.62    0.82
   4  -3  -2    5.71    0.85
   4  -3   2    6.93    0.86
  -4   3  -3    1.70    0.53
  -4   3   3    1.37    0.53
   4  -3  -3    1.68    0.57
   4  -3   3    1.82    0.56
   4   3  -3    1.76    0.53
  -4   3  -4    1.88    0.54
  -4   3   4    2.31    0.59
   4  -3  -4    1.65    0.58
   4  -3   4    1.98    0.59
   4   3  -4    2.82    0.63
  -4   3  -5    5.86    0.82
  -4   3   5    6.93    0.86
   4  -3  -5    7.81    0.96
   4  -3   5    6.26    0.84
  -4   3  -6    2.25    0.62
   4  -3  -6    1.47    0.60
   4  -3   6    0.97    0.50
   4   3  -6    1.41    0.54
  -4   3  -7    6.21    0.90
  -4   3  -7    4.85    0.77
   4  -3  -7    5.11    0.86
   4  -3   7    5.25    0.82
   4   3  -7    5.57    0.87
  -4   3  -8   -0.22    0.36
  -4   3  -8   -0.17    0.46
   4  -3  -8   -0.04    0.49
   4  -3   8   -0.36    0.36
   4   3  -8    0.24    0.49
  -4  -3  -9    0.30    0.48
  -4   3  -9    0.01    0.43
  -4   3  -9    0.23    0.47
   4  -3  -9   -0.22    0.49
   4  -3   9    0.37    0.44
   4   3  -9    0.15    0.46
  -4  -3 -10    0.43    0.48
  -4   3 -10   -0.06    0.41
  -4   3 -10    0.71    0.54
   4  -3 -10    0.52    0.56
   4  -3  10   -0.08    0.37
   4   3 -10    0.49    0.52
  -4  -3 -11    0.08    0.48
  -4   3 -11   -0.09    0.44
  -4   3 -11   -0.36    0.43
   4  -3 -11   -0.45    0.49
   4  -3  11   -0.36    0.39
   4   3 -11    0.05    0.53
  -4  -3 -12   -0.01    0.47
  -4   3 -12    0.61    0.54
   4  -3 -12   -0.37    0.53
   4   3 -12    0.28    0.56
  -4  -3 -13    0.01    0.55
  -4   3 -13    0.05    0.55
   4  -3 -13    0.37    0.60
   4   3 -13    0.08    0.52
  -4  -3 -14   -0.11    0.58
  -4   3 -14    0.93    0.66
   4  -3 -14   -0.12    0.57
   4   3 -14    0.53    0.64
  -4  -3 -15    1.16    0.70
  -4   3 -15    1.01    0.73
   4  -3 -15    1.42    0.75
   4   3 -15    0.81    0.69
  -4   4   0    0.24    0.43
   4  -4   0   -0.20    0.43
  -4   4  -1    6.14    0.87
  -4   4   1    5.14    0.81
   4  -4  -1    6.15    0.88
   4  -4   1    6.61    0.91
   4   4  -1    5.13    0.69
  -4   4  -2    2.55    0.60
  -4   4   2    2.32    0.60
   4  -4  -2    3.43    0.74
   4  -4   2    1.92    0.61
   4   4  -2    2.05    0.53
  -4   4  -3    0.09    0.42
  -4   4   3   -0.10    0.41
   4  -4  -3   -0.49    0.41
   4  -4   3    0.21    0.45
   4   4  -3   -0.23    0.35
  -4   4  -4    1.25    0.50
  -4   4   4    1.35    0.51
   4  -4  -4    1.10    0.57
   4  -4   4    1.53    0.57
   4   4  -4    0.95    0.45
  -4   4  -5    2.58    0.66
  -4   4   5    2.85    0.69
   4  -4  -5    3.87    0.80
   4  -4   5    2.43    0.64
   4   4  -5    3.08    0.66
  -4   4  -6    3.81    0.73
  -4   4   6    3.63    0.76
   4  -4  -6    3.33    0.74
   4  -4   6    4.32    0.79
   4   4  -6    3.54    0.70
  -4   4  -7    2.43    0.65
   4  -4  -7    1.94    0.63
   4  -4   7    1.56    0.61
   4   4  -7    3.23    0.73
  -4   4  -8    0.03    0.40
   4  -4  -8   -0.54    0.44
   4  -4   8    0.48    0.50
   4   4  -8   -0.42    0.44
  -4  -4  -9    0.45    0.51
  -4   4  -9    0.69    0.49
   4  -4  -9    0.84    0.58
   4  -4   9    0.20    0.46
   4   4  -9    0.91    0.56
  -4  -4 -10    0.69    0.54
  -4   4 -10    0.55    0.54
   4  -4 -10    0.41    0.58
   4   4 -10    0.21    0.55
  -4  -4 -11    0.26    0.49
  -4   4 -11   -0.46    0.41
  -4   4 -11   -0.17    0.47
   4  -4 -11    0.11    0.59
   4   4 -11    0.51    0.59
  -4  -4 -12    0.05    0.50
  -4   4 -12    0.03    0.48
  -4   4 -12   -0.11    0.52
   4  -4 -12    0.34    0.59
   4   4 -12    0.13    0.55
  -4  -4 -13    0.53    0.61
  -4   4 -13    1.06    0.66
   4  -4 -13    1.03    0.70
   4   4 -13    0.74    0.60
  -4  -4 -14   -0.11    0.59
  -4   4 -14   -0.20    0.62
   4  -4 -14   -0.61    0.59
   4   4 -14    0.47    0.58
  -4  -4 -15    0.35    0.64
  -4   4 -15   -0.47    0.58
  -4   5   0    1.21    0.52
   4  -5   0    0.64    0.53
  -4   5  -1    0.29    0.44
  -4   5   1    0.65    0.45
   4  -5  -1    0.66    0.54
   4  -5   1    0.46    0.52
  -4   5  -2    1.67    0.55
  -4   5   2    1.66    0.57
   4  -5  -2    2.21    0.65
   4  -5   2    2.18    0.66
  -4   5  -3    1.71    0.56
  -4   5   3    2.74    0.68
   4  -5  -3    1.34    0.62
   4  -5   3    2.53    0.68
   4   5  -3    1.42    0.55
  -4   5  -4    1.12    0.55
  -4   5   4    0.87    0.52
   4  -5  -4    1.15    0.59
   4  -5   4    1.26    0.58
   4   5  -4    1.41    0.57
  -4   5  -5    0.15    0.42
  -4   5   5    0.56    0.46
   4  -5  -5    0.20    0.52
   4  -5   5    0.46    0.54
   4   5  -5    0.11    0.48
  -4   5  -6    0.00    0.42
  -4   5   6    0.82    0.53
   4  -5  -6    0.96    0.59
   4  -5   6    1.35    0.62
   4   5  -6    0.39    0.52
  -4   5  -7    1.35    0.57
  -4   5   7    1.70    0.61
   4  -5  -7    1.64    0.66
   4  -5   7    1.41    0.59
   4   5  -7    1.10    0.59
  -4   5  -8    0.01    0.46
   4  -5  -8    0.52    0.57
   4  -5   8    0.74    0.53
   4   5  -8    0.67    0.55
  -4  -5  -9    0.03    0.48
  -4   5  -9    0.15    0.50
   4  -5  -9    0.72    0.60
   4   5  -9    0.51    0.56
  -4  -5 -10   -0.27    0.50
  -4   5 -10    0.44    0.54
   4  -5 -10   -0.24    0.48
   4   5 -10   -0.10    0.52
  -4  -5 -11   -0.42    0.45
  -4   5 -11   -0.08    0.53
   4  -5 -11    0.10    0.59
   4   5 -11    0.11    0.55
  -4  -5 -12   -0.72    0.51
  -4   5 -12   -0.10    0.49
   4  -5 -12    0.33    0.60
   4   5 -12    0.80    0.61
  -4  -5 -13   -0.03    0.59
  -4   5 -13   -0.95    0.46
   4  -5 -13   -0.09    0.58
   4   5 -13    0.36    0.63
  -4  -5 -14    0.90    0.69
  -4   5 -14    0.17    0.60
   4   5 -14   -0.21    0.54
  -4   6   0    0.30    0.44
   4  -6   0    0.61    0.54
  -4   6  -1    1.54    0.61
  -4   6   1    2.71    0.71
   4  -6  -1    2.03    0.68
   4  -6   1    2.07    0.70
  -4   6  -2    0.51    0.49
  -4   6   2    0.12    0.48
   4  -6  -2    0.54    0.54
   4  -6   2    0.28    0.51
  -4   6  -3    1.29    0.61
  -4   6   3    0.92    0.52
   4  -6  -3    1.07    0.59
   4  -6   3    1.33    0.62
  -4   6  -4    0.30    0.45
  -4   6   4   -0.01    0.45
   4  -6  -4    0.47    0.54
   4  -6   4    0.05    0.49
  -4   6  -5    1.50    0.62
  -4   6   5    0.65    0.49
   4  -6  -5    1.00    0.62
   4  -6   5    1.03    0.62
   4   6  -5    1.15    0.59
  -4   6  -6    1.08    0.56
  -4   6   6    0.58    0.47
   4  -6  -6    1.63    0.64
   4  -6   6    2.44    0.73
   4   6  -6    1.61    0.63
  -4   6  -7    0.32    0.55
  -4   6   7    0.46    0.52
   4  -6  -7    0.44    0.54
   4  -6   7    0.13    0.50
   4   6  -7    0.07    0.46
  -4   6  -8    0.01    0.51
   4  -6  -8   -0.62    0.45
   4  -6   8    0.79    0.57
   4   6  -8    0.48    0.55
  -4   6  -9    0.27    0.49
   4  -6  -9   -0.08    0.52
   4   6  -9    0.28    0.56
  -4  -6 -10    0.23    0.54
  -4   6 -10    0.20    0.56
   4  -6 -10    0.31    0.62
   4   6 -10   -0.27    0.55
  -4  -6 -11    0.10    0.57
  -4   6 -11   -0.03    0.57
   4  -6 -11    0.08    0.61
   4   6 -11    0.06    0.56
  -4  -6 -12    0.00    0.59
  -4   6 -12   -0.32    0.49
   4   6 -12    0.08    0.54
  -4  -6 -13    0.11    0.61
  -4   6 -13   -0.35    0.56
   4   6 -13   -0.37    0.51
  -4   7   0   -0.52    0.36
   4  -7   0    0.39    0.53
  -4   7  -1   -0.15    0.45
  -4   7   1    0.26    0.50
   4  -7  -1    0.64    0.58
   4  -7   1    0.28    0.56
  -4   7  -2   -0.19    0.46
  -4   7   2   -0.22    0.44
   4  -7  -2    0.00    0.53
   4  -7   2    0.06    0.51
  -4   7  -3   -0.01    0.43
  -4   7   3   -0.13    0.47
   4  -7  -3    0.19    0.56
   4  -7   3    0.15    0.53
  -4   7  -4   -0.02    0.48
  -4   7   4    0.23    0.51
   4  -7  -4    0.74    0.59
   4  -7   4   -0.06    0.54
  -4   7  -5    1.61    0.67
  -4   7   5    1.38    0.62
   4  -7  -5    2.64    0.74
   4  -7   5    1.37    0.68
  -4   7  -6   -0.24    0.44
  -4   7   6   -0.09    0.46
   4  -7  -6   -0.29    0.52
   4  -7   6   -0.16    0.53
  -4   7  -7    0.48    0.50
  -4   7   7   -0.13    0.45
   4  -7  -7   -0.03    0.60
   4  -7   7    0.25    0.58
   4   7  -7    0.05    0.54
  -4   7  -8    0.22    0.53
  -4   7   8    0.42    0.52
   4  -7  -8    0.14    0.59
   4  -7   8    0.65    0.64
   4   7  -8    0.50    0.61
  -4   7  -9   -0.20    0.49
   4  -7  -9   -0.59    0.53
   4   7  -9   -0.42    0.53
  -4  -7 -10   -0.42    0.53
  -4   7 -10   -0.22    0.52
   4  -7 -10    0.18    0.66
   4   7 -10    0.04    0.59
  -4  -7 -11   -0.13    0.56
  -4   7 -11   -0.32    0.52
   4   7 -11    0.17    0.56
  -4   8   0    0.14    0.46
   4  -8   0   -0.01    0.54
  -4   8  -1   -0.13    0.49
  -4   8   1    0.35    0.52
   4  -8  -1    0.49    0.61
   4  -8   1    0.53    0.60
  -4   8  -2    0.50    0.49
  -4   8   2    0.52    0.53
   4  -8  -2    1.13    0.67
   4  -8   2    0.60    0.62
  -4   8  -3    0.83    0.62
  -4   8   3    0.90    0.57
   4  -8  -3    1.47    0.71
   4  -8   3    0.46    0.62
  -4   8  -4   -0.01    0.48
  -4   8   4    0.65    0.56
   4  -8  -4    0.40    0.59
   4  -8   4    0.34    0.62
  -4   8  -5   -0.11    0.53
  -4   8   5    0.49    0.56
   4  -8  -5    0.20    0.56
   4  -8   5   -0.59    0.55
  -4   8  -6    0.20    0.51
  -4   8   6    0.22    0.51
   4  -8  -6   -0.09    0.59
   4  -8   6    0.09    0.62
  -4   8  -7   -0.19    0.48
  -4   8   7   -0.22    0.48
   4  -8  -7    0.25    0.62
   4  -8   7   -0.18    0.57
  -4   8  -8   -0.50    0.50
  -4   8   8    0.13    0.53
   4  -8  -8    1.01    0.69
   4  -8   8   -0.24    0.58
  -4   8  -9    0.80    0.66
   4   8  -9    0.30    0.61
  -4   9   0    0.34    0.56
   4  -9   0   -0.59    0.53
  -4   9  -1    0.71    0.55
  -4   9   1   -0.15    0.49
   4  -9  -1   -0.14    0.58
   4  -9   1    0.07    0.61
  -4   9  -2   -0.44    0.50
  -4   9   2    0.17    0.54
   4  -9  -2   -0.08    0.57
   4  -9   2    0.27    0.65
  -4   9  -3    0.22    0.53
  -4   9   3    0.34    0.57
   4  -9  -3    1.12    0.69
   4  -9   3    0.68    0.70
  -4   9  -4   -0.12    0.48
  -4   9   4    0.45    0.58
   4  -9  -4    0.38    0.62
   4  -9   4    0.07    0.62
  -4   9  -5    0.29    0.59
  -4   9   5    1.02    0.59
   4  -9  -5    1.53    0.74
   4  -9   5    0.55    0.71
  -4   9  -6    0.94    0.62
  -4   9   6    0.85    0.65
   4  -9  -6    0.99    0.68
   4  -9   6    0.99    0.69
  -4   9  -7   -0.21    0.52
   4  -9   7    0.76    0.70
  -4  10   0   -0.04    0.57
   4 -10   0   -0.13    0.59
  -4  10  -1    0.00    0.61
  -4  10   1    0.76    0.66
   4 -10  -1    0.39    0.65
   4 -10   1    0.76    0.67
  -4  10  -2   -0.06    0.58
  -4  10   2    0.63    0.60
   4 -10  -2   -0.13    0.58
   4 -10   2    0.07    0.66
   5   0   0    0.07    0.45
  -5   0  -1    0.68    0.52
   5   0  -1   -0.06    0.43
   5   0   1    0.31    0.48
  -5   0  -2    0.41    0.46
   5   0  -2   -0.44    0.41
   5   0   2   -0.02    0.42
  -5   0  -3    1.79    0.59
   5   0  -3    1.60    0.59
   5   0   3    1.56    0.56
  -5   0  -4    0.22    0.47
   5   0  -4    0.21    0.52
   5   0   4    0.59    0.48
   5   0  -5    1.08    0.63
   5   0  -6    0.03    0.53
   5   0  -7    0.38    0.61
   5   0  -8   -0.32    0.55
   5   0  -9   -0.13    0.55
   5   0 -10    0.38    0.61
   5   0 -11   -0.21    0.59
   5   0 -12    0.21    0.63
  -5   1   0   -0.15    0.41
   5  -1   0    0.44    0.50
   5   1   0    0.74    0.50
  -5   1  -1    0.35    0.47
  -5   1   1   -0.18    0.40
   5  -1  -1    0.25    0.50
   5  -1   1   -0.28    0.38
   5   1  -1    0.52    0.47
   5   1   1   -0.34    0.39
  -5   1  -2    0.47    0.43
   5  -1  -2    1.03    0.60
   5  -1   2    0.79    0.50
   5   1  -2    0.56    0.50
   5   1   2    0.78    0.48
  -5   1  -3    0.40    0.49
   5  -1  -3   -0.72    0.41
   5  -1   3    0.83    0.52
   5   1  -3    0.76    0.53
  -5   1  -4    0.16    0.48
   5  -1  -4    0.26    0.52
   5  -1   4    0.45    0.45
   5   1  -4    0.18    0.48
  -5   1  -5   -0.17    0.43
   5  -1  -5    0.42    0.57
   5  -1   5    0.51    0.46
   5   1  -5    0.65    0.58
   5  -1  -6    0.75    0.58
   5  -1   6    0.83    0.55
   5   1  -6    1.34    0.64
   5  -1  -7   -0.50    0.52
   5   1  -7    0.49    0.59
   5  -1  -8   -0.43    0.52
   5   1  -8    0.59    0.61
   5  -1  -9   -0.08    0.57
   5   1  -9    0.22    0.56
   5  -1 -10    0.26    0.58
   5   1 -10   -0.05    0.57
   5  -1 -11    0.58    0.65
   5   1 -11    0.10    0.57
   5  -1 -12   -0.59    0.58
   5   1 -12    0.87    0.67
  -5   2   0    0.30    0.51
   5  -2   0    0.25    0.47
   5   2   0    0.37    0.45
  -5   2  -1    0.49    0.51
  -5   2   1   -0.07    0.46
   5  -2  -1    0.19    0.47
   5  -2   1    0.17    0.48
   5   2  -1   -0.30    0.41
  -5   2  -2    0.84    0.53
  -5   2   2    1.17    0.59
   5  -2  -2    0.25    0.51
   5  -2   2    0.73    0.54
   5   2  -2    0.52    0.48
  -5   2  -3    0.97    0.56
  -5   2   3    1.47    0.62
   5  -2  -3    1.47    0.67
   5  -2   3    0.68    0.53
   5   2  -3    0.54    0.50
  -5   2  -4    1.02    0.56
   5  -2  -4    0.67    0.62
   5  -2   4    0.44    0.47
   5   2  -4    0.37    0.51
  -5   2  -5    0.16    0.47
   5  -2  -5    0.12    0.55
   5  -2   5    0.84    0.55
   5   2  -5    1.26    0.62
  -5   2  -6    0.60    0.49
   5  -2  -6    0.11    0.54
   5  -2   6    0.52    0.48
   5   2  -6   -0.43    0.46
  -5   2  -7    0.45    0.54
   5  -2  -7    0.37    0.60
   5  -2   7    0.74    0.52
   5   2  -7    0.44    0.58
   5  -2  -8    0.30    0.58
   5   2  -8    0.10    0.54
   5  -2  -9    0.01    0.62
   5   2  -9   -0.19    0.52
   5  -2 -10    0.03    0.57
   5   2 -10    0.12    0.60
   5  -2 -11   -0.48    0.61
   5   2 -11   -0.10    0.51
   5  -2 -12    0.20    0.65
   5   2 -12    0.75    0.68
  -5   3   0    0.11    0.46
   5  -3   0   -0.05    0.47
  -5   3  -1    0.16    0.49
  -5   3   1    0.44    0.47
   5  -3  -1    0.29    0.52
   5  -3   1    0.27    0.50
  -5   3  -2    0.42    0.53
  -5   3   2    0.72    0.54
   5  -3  -2    0.70    0.58
   5  -3   2    0.96    0.59
   5   3  -2    1.04    0.55
  -5   3  -3    0.11    0.43
  -5   3   3    0.53    0.52
   5  -3  -3    0.79    0.57
   5  -3   3    0.65    0.51
   5   3  -3    0.20    0.46
  -5   3  -4   -0.08    0.46
  -5   3   4    0.04    0.49
   5  -3  -4    0.24    0.55
   5  -3   4    0.62    0.53
   5   3  -4   -0.24    0.43
  -5   3  -5    0.41    0.54
   5  -3  -5    0.69    0.59
   5  -3   5   -0.21    0.42
   5   3  -5    0.10    0.51
  -5   3  -6    1.56    0.62
   5  -3  -6    1.07    0.63
   5  -3   6    1.49    0.61
   5   3  -6    1.97    0.68
  -5   3  -7    0.03    0.51
   5  -3  -7   -0.03    0.57
   5  -3   7    0.21    0.47
   5   3  -7   -0.22    0.49
  -5   3  -8   -0.30    0.50
   5  -3  -8   -0.20    0.56
   5  -3   8    0.25    0.48
   5   3  -8    0.30    0.57
   5  -3  -9    0.08    0.62
   5  -3   9    0.43    0.53
   5   3  -9   -0.03    0.55
   5  -3 -10    0.01    0.63
   5   3 -10    0.11    0.56
   5  -3 -11    0.78    0.73
   5   3 -11   -0.28    0.55
  -5   4   0    0.06    0.54
   5  -4   0   -0.08    0.52
  -5   4  -1    0.13    0.43
  -5   4   1   -0.01    0.50
   5  -4  -1   -0.44    0.48
   5  -4   1   -0.44    0.47
  -5   4  -2    0.74    0.55
  -5   4   2   -0.40    0.43
   5  -4  -2    0.41    0.56
   5  -4   2    0.50    0.55
  -5   4  -3    0.82    0.58
  -5   4   3    0.02    0.47
   5  -4  -3    0.65    0.57
   5  -4   3    0.10    0.52
   5   4  -3    1.12    0.60
  -5   4  -4   -0.03    0.49
  -5   4   4    0.24    0.50
   5  -4  -4    0.18    0.57
   5  -4   4    0.74    0.56
   5   4  -4    0.80    0.54
  -5   4  -5   -0.14    0.51
  -5   4   5    0.45    0.48
   5  -4  -5    0.43    0.60
   5  -4   5    0.62    0.58
   5   4  -5    0.49    0.52
  -5   4  -6    0.73    0.55
   5  -4  -6    0.06    0.58
   5  -4   6    0.48    0.52
   5   4  -6    0.43    0.54
  -5   4  -7    0.31    0.58
   5  -4  -7    0.35    0.64
   5  -4   7    0.19    0.48
   5   4  -7   -0.02    0.55
  -5   4  -8    0.18    0.51
   5  -4  -8    0.00    0.62
   5  -4   8    0.04    0.53
   5   4  -8   -0.04    0.59
  -5   4  -9    0.15    0.53
   5  -4  -9    0.71    0.70
   5  -4   9    0.45    0.54
   5   4  -9    0.13    0.61
  -5   4 -10   -0.06    0.52
   5  -4 -10   -0.17    0.60
   5  -4  10   -0.13    0.52
   5   4 -10    0.53    0.68
   5  -4 -11   -0.68    0.56
  -5   5   0   -0.05    0.51
   5  -5   0    0.08    0.59
  -5   5  -1    0.02    0.46
  -5   5   1    0.11    0.51
   5  -5  -1   -0.02    0.54
   5  -5   1   -0.20    0.52
  -5   5  -2    0.88    0.62
  -5   5   2    0.79    0.58
   5  -5  -2    0.75    0.60
   5  -5   2   -0.40    0.49
  -5   5  -3    0.05    0.52
  -5   5   3   -0.23    0.51
   5  -5  -3    0.32    0.60
   5  -5   3    0.36    0.59
  -5   5  -4   -0.14    0.49
  -5   5   4    0.16    0.50
   5  -5  -4    0.53    0.63
   5  -5   4   -0.10    0.52
  -5   5  -5   -0.24    0.47
  -5   5   5    0.66    0.60
   5  -5  -5    1.08    0.71
   5  -5   5    0.19    0.56
   5   5  -5    0.20    0.60
  -5   5  -6    0.80    0.62
   5  -5  -6    0.47    0.61
   5  -5   6    1.02    0.61
   5   5  -6    0.89    0.60
  -5   5  -7    0.17    0.54
   5  -5  -7   -0.99    0.51
   5  -5   7    0.51    0.58
   5   5  -7   -0.31    0.51
  -5   5  -8    0.07    0.58
   5  -5  -8    0.30    0.65
   5  -5   8    0.18    0.56
   5   5  -8    0.46    0.64
  -5   5  -9    0.21    0.56
   5  -5  -9   -0.39    0.57
   5  -5   9   -0.02    0.56
   5   5  -9    0.18    0.60
  -5   5 -10    0.14    0.54
  -5   6   0   -0.01    0.55
   5  -6   0   -0.14    0.58
  -5   6  -1    0.30    0.53
  -5   6   1    0.52    0.57
   5  -6  -1    0.21    0.57
   5  -6   1    0.10    0.56
  -5   6  -2    0.16    0.56
  -5   6   2   -0.17    0.52
   5  -6  -2   -0.22    0.55
   5  -6   2   -0.25    0.56
  -5   6  -3    0.03    0.56
  -5   6   3   -0.13    0.53
   5  -6  -3    0.16    0.60
   5  -6   3   -0.72    0.51
  -5   6  -4   -0.26    0.55
  -5   6   4    0.70    0.59
   5  -6  -4   -0.30    0.57
   5  -6   4    0.02    0.59
  -5   6  -5   -0.08    0.50
  -5   6   5    0.47    0.57
   5  -6  -5   -0.37    0.54
   5  -6   5    0.70    0.64
  -5   6  -6    0.60    0.58
  -5   6   6    0.62    0.58
   5  -6  -6    0.87    0.70
   5  -6   6    0.15    0.59
  -5   6  -7   -0.07    0.52
   5  -6  -7   -0.18    0.63
   5  -6   7    0.12    0.55
   5   6  -7   -0.01    0.59
  -5   6  -8    0.37    0.62
   5  -6  -8   -0.14    0.64
   5  -6   8    0.41    0.62
   5   6  -8   -0.48    0.55
  -5   7   0   -0.28    0.54
   5  -7   0   -0.39    0.58
  -5   7  -1   -0.13    0.47
  -5   7   1    0.22    0.54
   5  -7  -1    0.07    0.64
   5  -7   1   -0.44    0.57
  -5   7  -2   -0.11    0.57
  -5   7   2    0.45    0.57
   5  -7  -2   -0.12    0.62
   5  -7   2    0.26    0.65
  -5   7  -3    0.66    0.66
  -5   7   3    0.44    0.58
   5  -7  -3   -0.26    0.62
   5  -7   3   -0.28    0.57
  -5   7  -4    0.41    0.56
  -5   7   4    0.35    0.62
   5  -7  -4   -0.29    0.61
   5  -7   4    0.10    0.65
  -5   7  -5   -0.48    0.54
  -5   7   5    0.57    0.58
   5  -7  -5   -0.61    0.57
   5  -7   5    0.60    0.64
  -5   7  -6   -0.01    0.62
  -5   7   6    0.28    0.61
   5  -7  -6    0.17    0.68
   5  -7   6    0.34    0.65
  -5   8   0    0.58    0.63
   6   0   0   -0.02    0.53
   6   0  -1    0.88    0.59
   6   0   1    0.48    0.57
   6   0  -2    0.22    0.58
   6   0  -3    0.07    0.54
   6   0  -4    0.08    0.58
   6   0  -5   -0.03    0.60
   6   0  -6   -0.43    0.59
   6  -1   0    0.09    0.53
   6  -1  -1   -0.60    0.47
   6  -1   1    0.25    0.55
   6   1  -1   -0.36    0.51
  -6   1  -2    0.55    0.59
   6  -1  -2   -0.34    0.51
   6  -1   2   -0.46    0.47
   6   1  -2    0.14    0.56
  -6   1  -3    0.24    0.53
   6  -1  -3    0.37    0.62
   6  -1   3   -0.05    0.54
   6   1  -3   -0.25    0.52
   6  -1  -4    0.38    0.64
   6   1  -4    0.27    0.60
   6  -1  -5    0.42    0.68
   6   1  -5    0.12    0.58
   6  -1  -6    0.02    0.64
   6   1  -6    0.19    0.63
  -6   2   0    0.38    0.60
   6  -2   0   -0.46    0.49
  -6   2  -1   -0.07    0.50
   6  -2  -1   -0.08    0.58
   6  -2   1   -0.36    0.55
  -6   2  -2   -0.15    0.51
   6  -2  -2   -0.34    0.56
   6  -2   2    0.06    0.53
  -6   2  -3   -0.45    0.51
   6  -2  -3   -0.09    0.58
   6  -2   3   -0.14    0.52
   6   2  -3   -0.22    0.51
  -6   2  -4    0.35    0.59
   6  -2  -4   -0.28    0.57
   6  -2   4    0.67    0.60
   6   2  -4   -0.23    0.53
   6  -2  -5    0.39    0.69
   6   2  -5   -0.09    0.54
  -6   3   0   -0.15    0.45
   6  -3   0    0.06    0.60
  -6   3  -1    0.07    0.57
  -6   3   1    0.47    0.59
   6  -3  -1   -0.02    0.62
   6  -3   1    0.10    0.58
  -6   3  -2    0.03    0.61
   6  -3  -2    0.07    0.64
   6  -3   2   -0.01    0.56
  -6   3  -3    0.10    0.55
   6  -3  -3   -0.13    0.58
   6  -3   3   -0.49    0.51
  -6   3  -4    0.07    0.62
   6  -3  -4    0.40    0.66
   6  -3   4    0.29    0.58
   6   3  -4   -0.15    0.56
  -6   4   0   -0.31    0.54
  -6   4  -1    0.85    0.65
  -6   4   1    0.32    0.59
   0   0   0    0.00    0.00
;
_shelx_hkl_checksum              52844
#END Tags that were not found in dictionaries
loop_
_space_group_symop_operation_xyz
'x, y, z'
'-x+1/2, -y, z+1/2'
'x+1/2, -y+1/2, -z'
'-x, y+1/2, -z+1/2'
loop_
_atom_site_label
_atom_site_type_symbol
_atom_site_fract_x
_atom_site_fract_y
_atom_site_fract_z
_atom_site_U_iso_or_equiv
_atom_site_adp_type
_atom_site_occupancy
_atom_site_site_symmetry_order
_atom_site_calc_flag
_atom_site_refinement_flags_posn
_atom_site_refinement_flags_adp
O1 O 1.0480(7) 0.0693(4) -0.08211(14) 0.1035(10) Uani 1 1 d . .
H1 H 0.9824 0.0662 -0.1341 0.124 Uiso 1 1 calc R U
O2 O 0.7285(9) -0.1120(3) -0.06175(15) 0.1138(12) Uani 1 1 d . .
O3 O 0.6187(7) -0.1324(2) 0.25680(14) 0.0898(8) Uani 1 1 d . .
N1 N 0.8515(7) -0.1243(2) 0.11990(14) 0.0730(8) Uani 1 1 d . .
H1A H 0.8034 -0.2116 0.1041 0.088 Uiso 1 1 calc R U
C1 C 0.9169(7) -0.0303(3) -0.03360(18) 0.0595(7) Uani 1 1 d . .
C2 C 1.0278(6) -0.0306(3) 0.06306(17) 0.0623(8) Uani 1 1 d . .
H2 H 1.2403 -0.0606 0.0649 0.075 Uiso 1 1 calc R U
C3 C 0.9910(10) 0.1172(3) 0.1094(2) 0.0786(10) Uani 1 1 d . .
H3A H 1.1813 0.1697 0.1102 0.094 Uiso 1 1 calc R U
H3B H 0.8415 0.1760 0.0781 0.094 Uiso 1 1 calc R U
C4 C 0.8888(8) 0.0828(3) 0.20430(19) 0.0697(8) Uani 1 1 d . .
H4A H 1.0569 0.0875 0.2464 0.084 Uiso 1 1 calc R U
H4B H 0.7337 0.1507 0.2239 0.084 Uiso 1 1 calc R U
C5 C 0.7674(7) -0.0673(3) 0.19852(16) 0.0590(7) Uani 1 1 d . .
loop_
_atom_site_aniso_label
_atom_site_aniso_U_11
_atom_site_aniso_U_22
_atom_site_aniso_U_33
_atom_site_aniso_U_23
_atom_site_aniso_U_13
_atom_site_aniso_U_12
O1 0.124(2) 0.134(2) 0.0526(12) 0.0127(14) -0.0069(13) -0.050(2)
O2 0.191(3) 0.0908(17) 0.0602(12) 0.0039(11) -0.0313(17) -0.057(2)
O3 0.144(2) 0.0768(14) 0.0484(10) 0.0026(10) 0.0042(14) -0.0287(16)
N1 0.128(2) 0.0482(11) 0.0426(11) -0.0046(9) -0.0009(13) 0.0039(14)
C1 0.0795(17) 0.0536(14) 0.0454(13) -0.0058(11) 0.0018(13) 0.0067(15)
C2 0.0652(16) 0.0749(18) 0.0467(14) -0.0031(12) -0.0033(13) 0.0120(15)
C3 0.106(2) 0.0683(17) 0.0610(17) -0.0127(14) 0.0032(17) -0.0264(17)
C4 0.0866(19) 0.0623(16) 0.0601(15) -0.0158(14) 0.0028(16) -0.0058(16)
C5 0.0782(16) 0.0560(14) 0.0429(12) -0.0010(11) -0.0086(13) 0.0050(15)
loop_
_atom_type_symbol
_atom_type_description
_atom_type_scat_dispersion_real
_atom_type_scat_dispersion_imag
_atom_type_scat_source
C C 0.0033 0.0016 'International Tables Vol C Tables 4.2.6.8 and 6.1.1.4'
H H 0.0000 0.0000 'International Tables Vol C Tables 4.2.6.8 and 6.1.1.4'
N N 0.0061 0.0033 'International Tables Vol C Tables 4.2.6.8 and 6.1.1.4'
O O 0.0106 0.0060 'International Tables Vol C Tables 4.2.6.8 and 6.1.1.4'
loop_
_geom_angle_atom_site_label_1
_geom_angle_atom_site_label_2
_geom_angle_atom_site_label_3
_geom_angle
C1 O1 H1 109.5
C5 N1 C2 115.4(2)
C5 N1 H1A 122.3
C2 N1 H1A 122.3
O2 C1 O1 124.2(3)
O2 C1 C2 123.7(3)
O1 C1 C2 112.2(3)
N1 C2 C1 112.2(2)
N1 C2 C3 102.2(2)
C1 C2 C3 112.8(3)
N1 C2 H2 109.8
C1 C2 H2 109.8
C3 C2 H2 109.8
C4 C3 C2 105.3(3)
C4 C3 H3A 110.7
C2 C3 H3A 110.7
C4 C3 H3B 110.7
C2 C3 H3B 110.7
H3A C3 H3B 108.8
C5 C4 C3 104.5(2)
C5 C4 H4A 110.9
C3 C4 H4A 110.9
C5 C4 H4B 110.9
C3 C4 H4B 110.9
H4A C4 H4B 108.9
O3 C5 N1 124.6(3)
O3 C5 C4 127.0(3)
N1 C5 C4 108.4(2)
loop_
_geom_bond_atom_site_label_1
_geom_bond_atom_site_label_2
_geom_bond_distance
O1 C1 1.297(4)
O1 H1 0.8200
O2 C1 1.195(4)
O3 C5 1.236(3)
N1 C5 1.325(3)
N1 C2 1.431(4)
N1 H1A 0.8600
C1 C2 1.508(4)
C2 C3 1.525(4)
C2 H2 0.9800
C3 C4 1.504(4)
C3 H3A 0.9700
C3 H3B 0.9700
C4 C5 1.479(4)
C4 H4A 0.9700
C4 H4B 0.9700
loop_
_geom_hbond_atom_site_label_D
_geom_hbond_atom_site_label_H
_geom_hbond_atom_site_label_A
_geom_hbond_distance_DH
_geom_hbond_distance_HA
_geom_hbond_distance_DA
_geom_hbond_angle_DHA
_geom_hbond_site_symmetry_A
O1 H1 O3 0.82 1.78 2.554(3) 157.5 2_654
N1 H1A O2 0.86 2.56 3.059(4) 118.2 3_545
C4 H4B O3 0.97 2.54 3.490(4) 165.5 4_655
loop_
_geom_torsion_atom_site_label_1
_geom_torsion_atom_site_label_2
_geom_torsion_atom_site_label_3
_geom_torsion_atom_site_label_4
_geom_torsion
C5 N1 C2 C1 -133.3(3)
C5 N1 C2 C3 -12.2(4)
O2 C1 C2 N1 -8.6(4)
O1 C1 C2 N1 170.9(3)
O2 C1 C2 C3 -123.4(4)
O1 C1 C2 C3 56.1(4)
N1 C2 C3 C4 19.2(4)
C1 C2 C3 C4 139.9(3)
C2 C3 C4 C5 -19.9(4)
C2 N1 C5 O3 -178.8(3)
C2 N1 C5 C4 -0.4(3)
C3 C4 C5 O3 -168.5(3)
C3 C4 C5 N1 13.1(3)
