#------------------------------------------------------------------------------
#$Date: 2016-03-22 22:13:18 +0200 (Tue, 22 Mar 2016) $
#$Revision: 179035 $
#$URL: svn://www.crystallography.net/cod/cif/4/12/33/4123371.cif $
#------------------------------------------------------------------------------
#
# This file is available in the Crystallography Open Database (COD),
# http://www.crystallography.net/
#
# All data on this site have been placed in the public domain by the
# contributors.
#
data_4123371
loop_
_publ_author_name
'Panda, Manas K.'
'Run\<cevski, Tom\<ce'
'Husain, Ahmad'
'Dinnebier, Robert E.'
'Naumov, Pan\<ce'
_publ_section_title
;
 Perpetually self-propelling chiral single crystals.
;
_journal_issue                   5
_journal_name_full               'Journal of the American Chemical Society'
_journal_page_first              1895
_journal_page_last               1902
_journal_paper_doi               10.1021/ja5111927
_journal_volume                  137
_journal_year                    2015
_chemical_formula_sum            'C5 H7 N O3'
_chemical_formula_weight         129.12
_chemical_name_common            'RecPGA 373K'
_chemical_name_systematic
;
 ?
;
_space_group_crystal_system      monoclinic
_space_group_IT_number           14
_space_group_name_Hall           '-P 2yn'
_space_group_name_H-M_alt        'P 1 21/n 1'
_symmetry_space_group_name_Hall  '-P 2yn'
_symmetry_space_group_name_H-M   'P 1 21/n 1'
_atom_sites_solution_hydrogens   mixed
_audit_creation_method           SHELXL-2013
_cell_angle_alpha                90
_cell_angle_beta                 114.875(8)
_cell_angle_gamma                90
_cell_formula_units_Z            4
_cell_length_a                   8.059(5)
_cell_length_b                   8.762(5)
_cell_length_c                   9.167(6)
_cell_measurement_reflns_used    1815
_cell_measurement_temperature    371(2)
_cell_measurement_theta_max      22.06
_cell_measurement_theta_min      3.38
_cell_volume                     587.3(6)
_computing_cell_refinement       'Bruker SAINT'
_computing_data_collection       'Bruker APEX2'
_computing_data_reduction        'Bruker SAINT'
_computing_molecular_graphics    'Bruker SHELXTL'
_computing_publication_material  'Bruker SHELXTL'
_computing_structure_refinement  'SHELXL-2013 (Sheldrick, 2013)'
_computing_structure_solution    'SHELXS-97 (Sheldrick 2008)'
_diffrn_ambient_temperature      371(2)
_diffrn_measured_fraction_theta_full 1.000
_diffrn_measured_fraction_theta_max 0.938
_diffrn_measurement_device_type  'Bruker APEX-II CCD'
_diffrn_measurement_method       '\f and \w scans'
_diffrn_radiation_type           MoK\a
_diffrn_radiation_wavelength     0.71073
_diffrn_reflns_av_R_equivalents  0.0423
_diffrn_reflns_av_unetI/netI     0.0490
_diffrn_reflns_Laue_measured_fraction_full 1.000
_diffrn_reflns_Laue_measured_fraction_max 0.938
_diffrn_reflns_limit_h_max       11
_diffrn_reflns_limit_h_min       -10
_diffrn_reflns_limit_k_max       12
_diffrn_reflns_limit_k_min       -12
_diffrn_reflns_limit_l_max       13
_diffrn_reflns_limit_l_min       -12
_diffrn_reflns_number            9098
_diffrn_reflns_point_group_measured_fraction_full 1.000
_diffrn_reflns_point_group_measured_fraction_max 0.938
_diffrn_reflns_theta_full        25.242
_diffrn_reflns_theta_max         30.437
_diffrn_reflns_theta_min         2.832
_exptl_absorpt_coefficient_mu    0.122
_exptl_absorpt_process_details   SADBAS
_exptl_crystal_colour            colorless
_exptl_crystal_density_diffrn    1.460
_exptl_crystal_description       block
_exptl_crystal_F_000             272
_exptl_crystal_size_max          0.3
_exptl_crystal_size_mid          0.22
_exptl_crystal_size_min          0.20
_refine_diff_density_max         0.216
_refine_diff_density_min         -0.157
_refine_diff_density_rms         0.036
_refine_ls_extinction_method     none
_refine_ls_goodness_of_fit_ref   0.944
_refine_ls_hydrogen_treatment    mixed
_refine_ls_matrix_type           full
_refine_ls_number_parameters     87
_refine_ls_number_reflns         1668
_refine_ls_number_restraints     0
_refine_ls_restrained_S_all      0.944
_refine_ls_R_factor_all          0.1046
_refine_ls_R_factor_gt           0.0455
_refine_ls_shift/su_max          0.000
_refine_ls_shift/su_mean         0.000
_refine_ls_structure_factor_coef Fsqd
_refine_ls_weighting_details
'w=1/[\s^2^(Fo^2^)+(0.0648P)^2^] where P=(Fo^2^+2Fc^2^)/3'
_refine_ls_weighting_scheme      calc
_refine_ls_wR_factor_gt          0.1061
_refine_ls_wR_factor_ref         0.1278
_reflns_Friedel_coverage         0.000
_reflns_number_gt                881
_reflns_number_total             1668
_reflns_threshold_expression     'I > 2\s(I)'
_cod_data_source_file            ja5111927_si_019.cif
_cod_data_source_block           RAcPGA373K
_cod_depositor_comments
'Adding full bibliography for 4123369--4123385.cif.'
_cod_original_cell_volume        587.2(6)
_cod_database_code               4123371
#BEGIN Tags that were not found in dictionaries:
_shelx_space_group_comment
;
The symmetry employed for this shelxl refinement is uniquely defined
by the following loop, which should always be used as a source of
symmetry information in preference to the above space-group names.
They are only intended as comments.
;
_shelxl_version_number           2013-4
_shelx_res_file
;
TITL RecPGA373K in P2(1)/n
CELL  0.71073   8.0585   8.7619   9.1669   90.000  114.875   90.000
ZERR     4.00   0.0048   0.0052   0.0055    0.000    0.008    0.000
LATT   1
SYMM  1/2 - X, 1/2 + Y, 1/2 - Z
SFAC  C    H    N    O
UNIT  20   28   4    12
MERG   2
FMAP   2
PLAN   20
HTAB
ACTA
BOND
L.S.  10
TEMP    98.16
WGHT    0.064800
FVAR       0.98915
O3    4    0.841219    0.444841    0.309844    11.00000    0.06837    0.05585 =
         0.05883    0.01048    0.04246    0.01079
O1    4    0.593952    0.114545    0.717011    11.00000    0.06626    0.05782 =
         0.07567    0.02726    0.04593    0.01654
AFIX 147
H1    2    0.505998    0.109600    0.739794    11.00000   -1.50000
AFIX   0
N003  3    0.733135    0.385690    0.495314    11.00000    0.05433    0.03424 =
         0.05175    0.00658    0.03257    0.01218
O2    4    0.443386    0.311713    0.570158    11.00000    0.06961    0.07161 =
         0.12035    0.04758    0.05931    0.03294
C5    1    0.832503    0.358960    0.413553    11.00000    0.04300    0.03935 =
         0.04219   -0.00196    0.02195    0.00182
C2    1    0.756331    0.273124    0.618667    11.00000    0.04739    0.03589 =
         0.03773    0.00096    0.01934    0.00351
AFIX  13
H2A   2    0.844644    0.312177    0.722561    11.00000   -1.20000
AFIX   0
C1    1    0.580174    0.236987    0.631062    11.00000    0.05548    0.03519 =
         0.04655    0.00512    0.02789    0.00833
C3    1    0.842789    0.137709    0.569036    11.00000    0.05850    0.03996 =
         0.06488    0.00713    0.03291    0.01497
AFIX  23
H3B   2    0.933666    0.087183    0.662738    11.00000   -1.20000
H3A   2    0.750371    0.063977    0.506616    11.00000   -1.20000
AFIX   0
C4    1    0.930736    0.209920    0.468164    11.00000    0.05887    0.04488 =
         0.06867    0.00236    0.03807    0.01399
AFIX  23
H4B   2    1.060474    0.226291    0.531823    11.00000   -1.20000
H4A   2    0.914612    0.145796    0.376907    11.00000   -1.20000
AFIX   0
H2    2    0.680554    0.471279    0.490496    11.00000    0.06562
HKLF    4

REM  RecPGA373K in P2(1)/n
REM R1 =  0.0455 for     881 Fo > 4sig(Fo)  and  0.1046 for all    1668 data
REM     87 parameters refined using      0 restraints

END

WGHT      0.0645      0.0000

REM Instructions for potential hydrogen bonds
EQIV $1 x-1/2, -y+1/2, z+1/2
HTAB O1 O3_$1
EQIV $2 -x+1, -y+1, -z+1
HTAB N003 O2_$2

REM Highest difference peak  0.216,  deepest hole -0.157,  1-sigma level  0.036
Q1    1   0.5258  0.3376  0.6626  11.00000  0.05    0.22
Q2    1   0.8989  0.4046  0.2638  11.00000  0.05    0.19
Q3    1   0.4499  0.2472  0.5299  11.00000  0.05    0.17
Q4    1   0.8347  0.0451  0.6151  11.00000  0.05    0.15
Q5    1   0.9104  0.3061  0.4628  11.00000  0.05    0.15
Q6    1   0.7440  0.3272  0.5609  11.00000  0.05    0.14
Q7    1   0.4224  0.3477  0.4835  11.00000  0.05    0.14
Q8    1   0.8704  0.4968  0.2628  11.00000  0.05    0.13
Q9    1   0.8106  0.1917  0.6177  11.00000  0.05    0.13
Q10   1   0.6666  0.2478  0.5952  11.00000  0.05    0.12
Q11   1   0.6816  0.2765  0.6679  11.00000  0.05    0.12
Q12   1   0.9553  0.4556  0.3751  11.00000  0.05    0.11
Q13   1   0.6036  0.2193  0.7591  11.00000  0.05    0.11
Q14   1   0.6820  0.3242  0.4180  11.00000  0.05    0.11
Q15   1   1.0398  0.1976  0.4392  11.00000  0.05    0.11
Q16   1   0.9094  0.1757  0.5397  11.00000  0.05    0.10
Q17   1   0.8541  0.3882  0.5394  11.00000  0.05    0.10
Q18   1   0.7589  0.5582  0.2589  11.00000  0.05    0.09
Q19   1   0.7728  0.3334  0.6976  11.00000  0.05    0.09
Q20   1   0.7220  0.3842  0.2024  11.00000  0.05    0.09
;
_shelx_res_checksum              67461
_shelx_hkl_file
;
   0   0  -1    1.14    0.92
   0   0  -1    0.81    0.43
   0   0  -1    0.87    0.76
   0   0   1    1.19    1.03
   0   0   1    0.87    0.38
   0   0   1    0.22    0.76
   0   0  -2 1009.45   11.22
   0   0  -2 1021.43    5.80
   0   0  -2 1029.66   10.57
   0   0   2 1023.65   11.87
   0   0   2 1055.57    5.91
   0   0   2 1016.49   10.68
   0   0  -3   -1.08    1.73
   0   0  -3   -0.16    0.76
   0   0  -3   -1.30    1.63
   0   0   3   -0.05    2.11
   0   0   3    0.70    1.68
   0   0  -4    9.59    3.36
   0   0  -4   12.30    1.41
   0   0  -4   13.44    2.87
   0   0   4   13.98    3.52
   0   0   4   14.15    1.46
   0   0   4   10.51    2.66
   0   0  -5   -0.11    2.33
   0   0  -5   -0.38    0.76
   0   0  -5   -0.05    1.95
   0   0   5   -1.84    2.44
   0   0   5    0.81    0.76
   0   0   5   -0.70    0.70
   0   0   5   -0.05    2.06
   0   0  -6    0.05    2.76
   0   0   6    7.15    3.74
   0   0  -7   -0.49    3.20
   0   0   7    1.46    3.90
   0   0  -8    0.98    4.28
   0   0   8    3.85    4.61
   0   0  -9    0.22    4.50
   0   0   9   -2.82    5.37
   0   0 -10   10.30    6.23
   0   0  10    9.32    6.61
   0   0 -11    1.84    5.96
   0   0  11   -2.98    6.56
   0  -1   0    2.01    0.60
   0  -1   0    1.63    0.92
   0  -1   0    1.30    0.98
   0  -1   0    1.90    0.98
   0   1   0    2.11    0.60
   0   1   0    1.52    1.08
   0   1   0    1.84    0.98
   0   1   0    2.82    1.03
   0   1   0    1.30    0.92
   0  -1  -1  657.83    5.04
   0  -1  -1  646.77    7.64
   0  -1  -1  659.45    7.05
   0  -1   1  681.62    7.86
   0  -1   1  668.50    5.64
   0  -1   1  688.12    7.97
   0   1  -1  671.21    7.75
   0   1  -1  662.16    5.58
   0   1  -1  672.24    7.80
   0   1   1  655.61    4.99
   0   1   1  648.72    7.15
   0   1   1  649.54    7.05
   0  -1  -2 1788.24   13.22
   0  -1  -2 1785.32   16.15
   0  -1  -2 1787.65   14.20
   0  -1   2 1789.27   16.26
   0  -1   2 1795.23   15.55
   0   1  -2 1761.52   16.20
   0   1  -2 1798.11    7.42
   0   1  -2 1821.30    7.59
   0   1  -2 1815.34   15.55
   0   1   2 1752.80   15.99
   0   1   2 1772.96   12.90
   0   1   2 1775.51   14.36
   0  -1  -3    0.92    1.63
   0  -1  -3    0.11    2.28
   0  -1  -3   -0.65    1.63
   0  -1   3   -0.43    2.22
   0  -1   3    2.49    2.06
   0   1  -3    1.14    2.11
   0   1  -3    1.46    1.95
   0   1   3    0.76    2.17
   0   1   3   -0.49    1.35
   0   1   3    1.63    1.73
   0  -1  -4   -6.18    2.38
   0  -1  -4    2.82    2.06
   0  -1   4   -1.30    2.01
   0   1  -4   -3.41    2.76
   0   1  -4    3.85    2.33
   0   1   4    0.70    2.66
   0   1   4    3.96    1.95
   0   1   4    1.35    2.06
   0  -1  -5   23.58    4.01
   0  -1  -5   28.99    4.01
   0  -1   5   21.79    4.39
   0  -1   5   21.73    3.69
   0   1  -5   24.01    4.34
   0   1  -5   28.24    4.17
   0   1   5   22.76    4.39
   0   1   5   21.95    2.55
   0   1   5   22.44    3.74
   0  -1  -6   61.62    5.69
   0  -1   6   70.35    6.99
   0   1  -6   58.04    6.18
   0   1   6   60.48    6.40
   0   1   6   69.75    3.63
   0  -1  -7    4.61    3.69
   0  -1   7    8.24    4.72
   0   1  -7    5.37    4.12
   0   1   7    8.89    4.44
   0  -1  -8    4.88    4.06
   0  -1   8    2.01    4.82
   0   1  -8    7.37    4.88
   0   1   8    1.46    4.39
   0  -1  -9    0.05    3.85
   0  -1   9   -0.27    5.09
   0   1  -9    3.31    4.50
   0   1   9   -1.03    4.61
   0  -1 -10    5.31    5.26
   0  -1  10    9.16    7.15
   0   1 -10   15.23    7.05
   0   1  10   10.68    7.21
   0  -1 -11    7.37    6.23
   0  -1  11    2.38    8.02
   0   1 -11   -0.33    6.12
   0   1  11    2.60    6.61
   0  -2   0 2603.02   12.03
   0  -2   0 2459.89   16.75
   0  -2   0 2384.88   16.96
   0   2   0 2611.10   11.81
   0   2   0 2427.21   17.29
   0   2   0 2459.46   17.29
   0   2   0 2448.02   17.29
   0  -2  -1 2192.81    6.67
   0  -2  -1 2046.21    6.56
   0  -2  -1 2061.23   16.48
   0  -2  -1 1993.32   15.66
   0  -2   1 2135.74   16.91
   0  -2   1 2146.80   17.45
   0   2  -1 2105.72   15.45
   0   2  -1 2104.64   15.12
   0   2  -1 2129.95   17.45
   0   2   1 2214.98    7.32
   0   2   1 2092.77   17.07
   0   2   1 2043.34   16.04
   0  -2  -2 1228.07    9.54
   0  -2  -2 1213.66   14.74
   0  -2  -2 1239.29   13.55
   0  -2   2 1171.98   14.63
   0   2  -2 1212.47   14.69
   0   2  -2 1161.63   10.41
   0   2  -2 1209.38   14.80
   0   2   2 1185.86   13.71
   0   2   2 1210.73   13.60
   0  -2  -3  142.05    4.82
   0  -2  -3  139.55    6.34
   0  -2  -3  140.48    5.53
   0  -2   3  129.74    6.29
   0   2  -3  131.86    6.23
   0   2  -3  135.92    3.47
   0   2  -3  142.59    6.34
   0   2   3  138.52    6.29
   0   2   3  135.54    5.42
   0   2   3  133.00    5.58
   0  -2  -4  249.14    7.48
   0  -2  -4  243.23    9.10
   0  -2  -4  257.16    8.02
   0  -2   4  252.44    9.38
   0   2  -4  250.17    9.27
   0   2  -4  252.12    3.36
   0   2  -4  264.10    3.41
   0   2  -4  260.84    8.89
   0   2   4  241.12    9.00
   0   2   4  249.46    7.37
   0   2   4  261.49    8.35
   0  -2  -5   48.78    4.55
   0  -2  -5   55.39    4.82
   0  -2   5   49.05    5.74
   0   2  -5   58.04    5.74
   0   2  -5   51.70    5.20
   0   2   5   57.50    5.69
   0   2   5   51.38    4.01
   0   2   5   57.23    4.93
   0  -2  -6   65.96    5.80
   0  -2   6   66.88    7.10
   0   2  -6   69.48    6.88
   0   2   6   67.42    6.72
   0   2   6   66.88    4.61
   0  -2  -7    1.95    3.31
   0  -2   7    6.50    5.20
   0   2  -7   -1.08    3.41
   0   2   7   -1.14    3.47
   0  -2  -8   34.79    6.07
   0  -2   8   43.14    8.67
   0   2  -8   43.03    7.70
   0   2   8   41.62    7.80
   0  -2  -9   12.90    5.09
   0  -2   9   27.91    7.91
   0   2  -9   22.98    7.05
   0   2   9   24.60    7.48
   0  -2  10   -5.69    5.80
   0   2 -10   -2.76    4.77
   0   2  10    2.22    5.53
   0  -2  11   -1.79    7.75
   0   2 -11    1.14    5.58
   0   2  11   -7.53    5.42
   0  -3   0   -0.98    1.79
   0  -3   0    3.74    2.11
   0   3   0   -0.11    1.08
   0   3   0    0.76    1.90
   0   3   0   -1.52    1.90
   0  -3  -1   98.96    1.73
   0  -3  -1  100.86    1.73
   0  -3  -1  100.64    5.15
   0  -3  -1   92.62    4.66
   0  -3   1  104.33    5.04
   0  -3   1  105.63    5.26
   0   3  -1  107.04    4.44
   0   3  -1  109.04    5.04
   0   3  -1  100.32    5.15
   0   3   1   96.69    5.09
   0   3   1   91.43    4.88
   0   3   1   94.73    4.77
   0  -3  -2  763.29    6.02
   0  -3  -2  737.22   12.95
   0  -3  -2  739.07   12.19
   0  -3   2  752.94   13.17
   0  -3   2  749.36   13.39
   0   3  -2  743.51   12.47
   0   3  -2  743.57   10.95
   0   3  -2  728.34   13.17
   0   3   2  750.34    6.02
   0   3   2  724.98   12.84
   0   3   2  717.01   12.25
   0  -3  -3   75.93    3.52
   0  -3  -3   85.36    5.64
   0  -3  -3   88.07    5.15
   0  -3   3  108.23    8.29
   0   3  -3   86.12    5.74
   0   3  -3  124.11    5.04
   0   3  -3   86.44    5.58
   0   3   3   93.33    6.18
   0   3   3   88.28    5.26
   0  -3  -4    0.81    1.63
   0  -3  -4    0.16    2.66
   0  -3  -4    0.05    2.01
   0  -3   4   -2.60    2.49
   0   3  -4   -3.25    2.11
   0   3  -4    1.03    1.46
   0   3  -4   -0.70    2.38
   0   3   4    1.25    2.98
   0   3   4    0.70    2.33
   0   3   4    2.98    2.11
   0  -3  -5  125.46    6.12
   0  -3  -5  124.00    8.08
   0  -3   5  125.52    8.18
   0   3  -5  120.37    7.91
   0   3  -5  121.29    3.47
   0   3  -5  130.72    7.86
   0   3   5  123.67    7.80
   0   3   5  121.78    6.56
   0   3   5  144.59    9.38
   0  -3  -6   90.94    6.18
   0  -3  -6   94.52    8.02
   0  -3   6   89.59    8.62
   0   3  -6  100.37    8.24
   0   3   6   86.28    7.97
   0   3   6   91.75    6.18
   0  -3  -7    0.98    2.98
   0  -3   7    0.27    4.28
   0   3  -7    2.82    4.12
   0   3   7    7.80    4.61
   0  -3  -8   -1.03    3.52
   0  -3   8   -2.93    4.50
   0   3  -8    2.06    4.61
   0   3   8   -3.47    3.69
   0  -3   9    6.67    6.12
   0   3  -9   -6.07    4.99
   0   3   9    3.74    5.15
   0  -3  10    0.16    6.29
   0   3 -10    1.46    5.69
   0   3  10    1.84    5.15
   0  -4   0  479.79   10.89
   0  -4   0  474.97   11.16
   0   4   0  481.58    7.26
   0   4   0  472.21   11.22
   0   4   0  482.78   11.27
   0  -4  -1  744.38    5.58
   0  -4  -1  732.51    5.58
   0  -4  -1  736.03   13.60
   0  -4  -1  756.90   13.82
   0  -4   1  742.86   13.71
   0  -4   1  767.52   14.58
   0   4  -1  777.38   11.60
   0   4  -1  758.14   13.71
   0   4  -1  775.05   14.58
   0   4   1  723.46   14.20
   0   4   1  722.81   13.60
   0  -4  -2    3.09    2.60
   0  -4  -2    1.52    2.17
   0  -4   2   -4.39    2.82
   0  -4   2    0.11    2.22
   0   4  -2    0.76    2.11
   0   4  -2    3.63    2.38
   0   4  -2    2.22    2.55
   0   4   2    7.37    3.41
   0   4   2    3.09    2.33
   0  -4  -3    2.55    1.08
   0  -4  -3    1.46    2.55
   0  -4  -3    3.09    2.33
   0  -4   3    3.52    3.09
   0  -4   3    0.98    2.49
   0   4  -3    4.01    2.82
   0   4  -3    1.41    2.06
   0   4  -3    3.47    2.87
   0   4   3    4.34    2.82
   0   4   3    4.93    2.44
   0  -4  -4  268.38    6.29
   0  -4  -4  242.25   10.08
   0  -4  -4  266.59   12.09
   0  -4   4  255.64   10.51
   0   4  -4  258.57   10.24
   0   4  -4  266.21    7.42
   0   4  -4  268.92   10.57
   0   4   4  256.67   10.24
   0   4   4  257.38    9.86
   0   4   4  252.34    9.38
   0  -4  -5    2.93    2.11
   0  -4  -5    3.63    3.31
   0  -4   5    4.17    3.74
   0   4  -5    1.95    3.03
   0   4  -5    2.82    2.55
   0   4   5    2.49    3.58
   0   4   5    3.36    3.09
   0  -4  -6   39.40    5.37
   0  -4  -6   36.31    6.72
   0  -4   6   44.60    7.37
   0   4  -6   41.13    6.72
   0   4   6   39.08    6.56
   0   4   6   35.77    5.31
   0  -4   7   42.54    7.97
   0   4  -7   25.80    6.45
   0   4   7   37.83    7.05
   0   4   7   31.33    5.20
   0  -4   8   12.63    6.23
   0   4  -8   15.61    6.12
   0   4   8    7.32    5.64
   0  -4   9   -2.82    6.18
   0   4  -9   -3.85    4.72
   0   4   9   -1.63    4.44
   0  -4  10    2.01    6.83
   0   4 -10    3.20    5.91
   0   4  10    9.00    6.18
   0  -5   0   -0.43    2.33
   0  -5   0    0.65    2.44
   0   5   0   -0.16    1.30
   0   5   0   -0.43    2.60
   0   5   0   -0.38    2.33
   0  -5  -1    2.82    0.98
   0  -5  -1    2.76    1.57
   0  -5  -1    1.19    2.71
   0  -5  -1    3.74    2.49
   0  -5   1    2.60    2.60
   0  -5   1    2.38    2.87
   0   5  -1    4.61    2.17
   0   5  -1    5.26    2.76
   0   5  -1    4.99    2.87
   0   5   1    4.01    0.98
   0   5   1    7.64    3.20
   0   5   1    1.14    2.33
   0  -5  -2   10.24    3.31
   0  -5  -2    6.83    2.76
   0  -5   2   12.30    3.47
   0  -5   2   11.87    3.47
   0   5  -2    8.51    2.76
   0   5  -2    8.67    2.98
   0   5  -2   12.09    3.58
   0   5   2    8.73    3.36
   0  -5  -3  181.61    9.05
   0  -5  -3  187.57   10.84
   0  -5   3  167.14    8.62
   0  -5   3  177.76    9.05
   0   5  -3  175.54    8.13
   0   5  -3  179.44    7.70
   0   5  -3  183.62    9.27
   0   5   3  178.25    8.94
   0   5   3  204.81   11.33
   0  -5  -4   44.44    6.12
   0  -5   4   49.21    6.67
   0  -5   4   49.16    6.56
   0   5  -4   44.22    5.96
   0   5  -4   47.31    4.82
   0   5  -4   42.54    5.91
   0   5   4   49.43    5.91
   0  -5  -5   18.81    5.04
   0  -5   5   26.66    5.91
   0  -5   5   19.62    5.09
   0   5  -5   22.65    5.20
   0   5   5   20.27    5.04
   0   5   5   18.59    4.50
   0  -5  -6  115.44    9.38
   0  -5   6   94.52    9.38
   0  -5   6  115.17    9.48
   0   5  -6  103.30    9.54
   0   5   6  109.64    9.16
   0   5   6  104.38    8.51
   0  -5  -7   44.49    8.08
   0  -5   7   42.81    8.13
   0   5  -7   33.66    7.21
   0   5   7   35.01    7.15
   0   5   7   44.06    6.56
   0  -5   8    3.79    6.34
   0   5  -8   -1.73    4.61
   0   5   8   -0.87    4.17
   0  -5   9    2.28    6.77
   0   5  -9    4.66    5.74
   0   5   9    3.74    5.26
   0  -5  10   -5.31    8.08
   0   5 -10    7.37    6.61
   0   5  10    4.99    5.96
   0  -6   0   88.99    6.77
   0  -6   0   99.39    7.05
   0   6   0   94.57    4.17
   0   6   0   98.42    7.21
   0   6   0   87.09    6.72
   0  -6  -1  102.81    3.79
   0  -6  -1   90.51    6.67
   0  -6  -1  105.14    7.26
   0  -6   1   98.04    6.83
   0  -6   1   99.34    7.26
   0   6  -1  100.75    5.42
   0   6  -1  111.59    7.59
   0   6  -1  101.73    7.32
   0   6   1   97.34    7.86
   0   6   1   98.31    6.99
   0  -6  -2   37.56    5.58
   0  -6   2   40.81    5.74
   0  -6   2   47.04    5.80
   0   6  -2   44.71    4.66
   0   6  -2   46.23    5.85
   0   6  -2   41.35    5.85
   0   6   2   39.94    6.02
   0  -6  -3  134.78    8.51
   0  -6   3  120.91    8.18
   0  -6   3  140.58    9.05
   0   6  -3  129.80    7.53
   0   6  -3  148.66    8.29
   0   6  -3  137.77    9.10
   0   6   3  128.12    9.16
   0  -6  -4    1.35    3.41
   0  -6   4    1.63    3.63
   0  -6   4    0.05    3.31
   0   6  -4   -0.87    2.82
   0   6  -4    2.38    3.14
   0   6   4   -3.25    3.58
   0  -6  -5  153.75   10.35
   0  -6   5  153.81   10.73
   0  -6   5  156.25   10.62
   0   6  -5  162.80   10.62
   0   6   5  163.51   10.46
   0   6   5  142.16    9.76
   0  -6  -6   60.54    8.67
   0  -6   6   63.95   10.03
   0  -6   6   59.56    8.78
   0   6  -6   58.75    8.35
   0   6   6   53.06    8.35
   0   6   6   47.04    7.21
   0  -6  -7    6.72    5.47
   0  -6   7    5.26    5.74
   0  -6   7   -3.14    4.66
   0   6  -7   -4.23    4.39
   0   6   7    3.74    4.66
   0   6   7   -1.63    4.06
   0  -6  -8   15.17    6.56
   0  -6   8    9.59    6.61
   0  -6   8   12.41    6.40
   0   6  -8   14.63    6.18
   0   6   8   14.25    6.34
   0  -6   9   -3.96    6.56
   0  -6   9    1.03    5.74
   0   6  -9    4.66    5.96
   0   6   9    1.95    5.53
   0  -7   0   -1.08    2.82
   0   7   0   -1.73    3.69
   0   7   0    1.41    3.20
   0  -7  -1    4.50    3.47
   0  -7   1    4.34    3.47
   0   7  -1    1.79    2.28
   0   7  -1    4.88    3.85
   0   7  -1    2.28    3.25
   0   7   1    2.76    3.90
   0   7   1    2.38    3.25
   0  -7  -2   69.80    7.05
   0  -7   2   84.92    7.86
   0  -7   2   63.68    7.59
   0   7  -2   75.33    5.85
   0   7  -2   64.76    6.94
   0   7  -2   71.86    7.37
   0   7   2   63.79    8.02
   0  -7  -3   24.33    5.64
   0  -7   3   21.30    5.64
   0  -7   3   25.09    5.85
   0   7  -3   25.85    4.99
   0   7  -3   25.04    5.31
   0   7   3   20.16    5.96
   0  -7  -4   54.95    7.75
   0  -7   4   53.60    7.80
   0  -7   4   57.56    8.18
   0   7  -4   60.75    7.32
   0   7  -4   66.66    7.64
   0   7   4   55.06    8.08
   0  -7  -5   -2.76    3.79
   0  -7   5    5.42    5.47
   0  -7   5   -2.01    4.01
   0   7  -5    1.95    4.28
   0   7   5    6.40    4.44
   0   7   5   -0.16    4.28
   0  -7  -6    1.35    4.66
   0  -7   6   -1.19    4.50
   0   7  -6   -0.33    4.06
   0   7   6    6.07    5.15
   0   7   6   -7.26    4.17
   0  -7  -7    5.58    5.47
   0  -7   7    2.98    6.34
   0   7  -7    5.31    5.37
   0   7   7   10.35    5.47
   0   7   7   -4.82    4.44
   0  -7  -8   -0.27    5.31
   0  -7   8    8.13    6.88
   0   7  -8   -0.70    5.58
   0   7   8    0.76    5.64
   0  -7   9   -3.52    7.75
   0   7  -9   -0.05    5.53
   0   7   9    6.88    6.02
   0  -8   0   76.69    7.75
   0   8   0   80.59    8.73
   0   8   0   74.79    7.91
   0  -8  -1    3.14    4.23
   0  -8   1    4.50    4.01
   0   8  -1    4.88    4.66
   0   8  -1    6.23    4.17
   0   8   1    0.60    4.44
   0   8   1    5.20    3.90
   0  -8  -2    5.47    4.23
   0  -8   2    6.56    4.17
   0   8  -2   13.28    5.04
   0   8  -2    8.13    4.50
   0   8   2    6.88    5.26
   0  -8  -3   51.21    8.02
   0  -8   3   49.26    7.64
   0   8  -3   48.67    6.45
   0   8  -3   52.68    7.86
   0   8   3   46.39    8.02
   0  -8  -4   -2.38    4.17
   0  -8   4    3.25    4.12
   0   8  -4    2.11    3.79
   0   8  -4   -2.76    3.85
   0   8   4   -3.74    4.12
   0  -8  -5    6.94    5.42
   0  -8   5   18.53    6.12
   0   8  -5   12.95    5.58
   0   8   5    9.48    5.47
   0  -8  -6   -5.31    4.01
   0  -8   6    3.31    4.61
   0   8  -6   -2.49    4.17
   0   8   6    3.69    4.77
   0   8   6   -2.22    5.15
   0  -8  -7   -4.55    5.47
   0  -8   7    4.34    5.53
   0   8  -7    3.31    5.31
   0   8   7    1.63    4.55
   0   8   7   -6.18    4.34
   0  -8  -8    6.94    6.34
   0  -8   8   11.00    8.02
   0   8  -8   13.33    7.32
   0   8   8   15.39    7.05
   0  -9   0    6.77    4.50
   0   9   0   -4.39    4.34
   0   9   0   -0.16    4.06
   0  -9  -1   -2.71    4.17
   0  -9   1    4.82    4.77
   0   9  -1   -1.73    5.09
   0   9  -1   -4.99    5.31
   0   9   1   -3.09    4.99
   0  -9  -2   -1.14    4.44
   0  -9   2   -2.17    3.63
   0   9  -2   -1.14    4.82
   0   9   2   -3.31    5.20
   0  -9  -3   28.18    6.99
   0  -9   3   29.65    6.67
   0   9  -3   32.14    7.48
   0   9   3   32.35    7.70
   0  -9  -4    1.35    4.55
   0  -9   4    1.90    4.66
   0   9   4   -2.93    4.55
   0  -9  -5    4.55    5.09
   0  -9   5    7.21    4.99
   0   9  -5    4.34    4.72
   0   9   5   -1.30    5.96
   0  -9  -6    2.71    5.91
   0  -9   6   10.51    5.85
   0   9  -6    0.76    4.28
   0   9   6    0.87    4.61
   0   9   6   -0.81    6.18
   0  -9  -7    8.56    7.32
   0  -9   7   21.03    6.99
   0   9  -7   12.25    6.23
   0   9   7   16.53    6.88
   0   9   7   11.16    6.99
   0   9  -8   -1.79    8.89
   0 -10   0    0.05    4.17
   0  10   0   -2.06    5.04
   0 -10  -1    7.10    5.04
   0 -10   1    3.36    4.66
   0  10  -1    0.81    5.47
   0  10   1    5.96    6.12
   0 -10  -2   10.68    5.69
   0 -10   2    8.45    5.09
   0  10  -2   10.03    6.07
   0  10   2    4.55    5.96
   0 -10  -3    2.87    5.80
   0 -10   3    2.49    5.04
   0  10  -3    8.67    6.34
   0  10   3    1.35    5.80
   0 -10  -4   42.98    8.89
   0 -10   4   42.81    8.83
   0  10   4   35.77    9.00
   0 -10  -5    5.42    5.69
   0 -10   5   11.16    5.96
   0  10   5   -5.53    5.20
   0 -10  -6    7.05    6.45
   0 -10   6   12.68    5.64
   0  10   6    4.44    5.15
   0  10   6   -2.76    5.80
   0 -11   0    1.25    4.66
   0  11   0    0.65    7.48
   0 -11  -1    5.09    5.09
   0 -11   1    1.41    4.77
   0  11  -1   12.41    7.26
   0  11   1   -2.71    5.91
   0 -11  -2    0.11    5.80
   0 -11   2   -1.79    4.39
   0  11  -2    3.69    6.40
   0  11   2    1.14    6.45
   0 -11  -3    6.45    5.74
   0 -11   3   11.81    6.02
   0  11  -3    8.24    8.29
   0  11   3    3.74    7.97
   0 -11  -4    0.43    5.26
   0 -11   4    2.87    5.42
   0  11   4    5.58    7.26
   0 -11  -5   -5.80    5.09
   0 -11   5    7.53    6.07
   0 -12   0   21.57    7.26
   0 -12  -1    6.77    6.40
   0 -12   1   10.84    6.40
   0  12  -1    0.70    8.02
   0 -12  -2    0.43    6.07
   0 -12   2    5.85    5.69
   0  12  -2   12.52    9.10
   0 -12  -3    7.91    7.32
   1   0 -12    2.49    6.40
  -1   0  11   -2.82    6.83
   1   0 -11    5.80    5.85
  -1   0  10   -9.32    4.66
   1   0 -10    0.11    4.23
  -1   0   9   68.83    9.54
   1   0  -9   69.26    9.38
  -1   0   8   -3.47    4.12
   1   0  -8   -5.53    3.20
  -1   0   7   66.44    7.70
   1   0  -7   62.92    6.83
  -1   0   6   -0.16    2.82
  -1   0   6   -1.30    1.14
   1   0  -6   -0.49    2.60
   1   0  -6   -0.16    2.22
  -1   0   5   93.60    6.29
  -1   0   5   94.68    3.69
   1   0  -5   78.85    6.02
   1   0  -5   92.67    6.02
  -1   0   4    4.66    2.60
  -1   0   4    1.57    1.30
   1   0  -4   -0.54    2.28
   1   0  -4   -1.68    1.90
  -1   0   3  165.57    5.80
  -1   0   3  170.17    4.34
   1   0  -3  166.11    5.85
   1   0  -3  170.72    6.12
  -1   0   2    0.22    1.63
  -1   0   2    1.41    1.35
   1   0  -2   -0.38    1.63
   1   0  -2    1.19    1.73
  -1   0   1    9.38    1.14
  -1   0   1    8.51    1.41
   1   0  -1   10.84    1.63
   1   0  -1   10.03    1.19
   1   0  -1    8.40    1.41
  -1   0   0    0.33    1.08
  -1   0   0    0.54    0.87
  -1   0   0    1.25    1.03
   1   0   0    2.11    0.92
   1   0   0    0.27    0.43
  -1   0  -1  112.56    4.01
  -1   0  -1  121.18    4.01
  -1   0  -1  112.19    2.98
   1   0   1  116.47    3.90
   1   0   1  114.08    2.60
  -1   0  -2    1.19    1.84
  -1   0  -2    0.65    1.03
   1   0   2    2.55    2.06
   1   0   2    2.28    1.03
   1   0   2   -0.27    1.25
  -1   0  -3   58.64    4.72
   1   0   3   63.79    4.77
   1   0   3   59.83    2.33
   1   0   3   62.27    3.79
  -1   0  -4   -0.27    2.28
   1   0   4   -0.87    2.44
   1   0   4    1.25    1.84
  -1   0  -5    9.92    3.63
   1   0   5   12.84    4.01
   1   0   5    9.76    2.87
  -1   0  -6   -0.22    3.41
   1   0   6    4.34    3.69
  -1   0  -7   76.25    7.75
   1   0   7   75.49    8.24
  -1   0  -8   -0.11    3.85
   1   0   8    2.82    4.88
  -1   0  -9   -0.60    4.34
   1   0   9    1.03    5.42
  -1   0 -10    0.33    5.47
   1   0  10    4.34    6.83
  -1   0 -11    5.09    6.02
   1  -1 -12    2.98    9.48
  -1  -1  11   -5.74    5.74
  -1   1  11    4.28    6.83
   1  -1 -11   -3.74    4.88
   1   1 -11    2.60    5.37
  -1  -1  10   -2.55    5.15
  -1   1  10   -4.23    4.99
   1  -1 -10   -0.22    4.61
   1   1 -10    2.01    4.93
  -1  -1   9   15.34    6.18
  -1   1   9   12.41    5.69
   1  -1  -9   12.95    5.47
   1   1  -9   11.11    5.37
  -1  -1   8   29.75    6.72
  -1   1   8   28.45    6.23
   1  -1  -8   23.03    6.07
   1   1  -8   22.27    5.96
  -1  -1   7   -1.14    3.79
  -1   1   7    0.16    3.31
   1  -1  -7   -2.11    3.03
   1   1  -7   -4.12    3.09
  -1  -1   6  131.97    8.24
  -1  -1   6  140.15    3.14
  -1   1   6  127.14    7.86
  -1   1   6  136.90    5.31
   1  -1  -6  132.35    7.48
   1  -1  -6  135.22    9.16
   1   1  -6  120.48    7.75
   1   1  -6  136.68    7.75
  -1  -1   5   41.51    5.15
  -1  -1   5   45.74    2.38
  -1   1   5   45.69    4.88
  -1   1   5   44.39    3.47
   1  -1  -5   46.45    5.31
   1  -1  -5   46.12    4.82
   1   1  -5   38.64    5.26
   1   1  -5   44.39    4.72
  -1  -1   4    0.87    2.55
  -1  -1   4    0.87    1.14
  -1   1   4    1.30    2.33
  -1   1   4    0.76    1.57
   1  -1  -4   -0.11    2.11
   1  -1  -4   -1.46    1.90
   1   1  -4   -0.60    2.33
   1   1  -4   -0.05    2.11
  -1  -1   3  724.22   11.98
  -1  -1   3  722.21    8.08
  -1   1   3  721.45   11.22
  -1   1   3  746.60   10.08
   1  -1  -3  715.93   10.73
   1  -1  -3  748.93   11.92
   1   1  -3  715.06   11.98
   1   1  -3  728.17   12.03
  -1  -1   2   12.90    2.60
  -1  -1   2   12.03    1.79
  -1   1   2   18.53    2.44
  -1   1   2   16.42    2.44
   1  -1  -2   12.79    2.33
   1  -1  -2   15.23    2.28
   1  -1  -2   15.28    2.49
   1   1  -2   12.84    2.55
   1   1  -2   11.65    2.33
  -1  -1   1  409.83    6.40
  -1  -1   1  417.90    6.34
  -1   1   1  422.02    4.28
  -1   1   1  426.74    6.77
   1  -1  -1  417.04    5.96
   1  -1  -1  420.07    4.28
   1  -1  -1  404.25    6.45
   1   1  -1  406.09    5.96
   1   1  -1  414.76    6.18
  -1  -1   0  194.94    4.12
  -1  -1   0  197.60    3.58
  -1  -1   0  206.27    4.77
  -1  -1   0  191.31    4.61
  -1  -1   0  198.52    2.98
  -1   1   0  191.42    4.50
  -1   1   0  187.95    3.09
  -1   1   0  187.30    4.34
  -1   1   0  190.12    4.17
   1  -1   0  186.87    3.03
   1  -1   0  204.91    4.34
   1  -1   0  184.54    4.17
   1   1   0  199.98    3.52
   1   1   0  235.26    4.66
   1   1   0  198.25    4.66
   1   1   0  193.32    3.14
   1   1   0  199.22    3.20
  -1  -1  -1 9374.23   56.47
  -1  -1  -1 9422.74   55.55
  -1  -1  -1 9653.50   66.88
  -1   1  -1 9902.04   57.01
  -1   1  -1 9864.76   59.78
  -1   1  -1 9999.00   65.79
   1  -1   1 9857.66   53.17
   1  -1   1 9688.30   56.80
   1   1   1 9972.01   72.08
   1   1   1 9595.24   50.84
  -1  -1  -2 3414.93   21.46
  -1  -1  -2 3412.32   25.47
  -1   1  -2 3391.08   25.42
  -1   1  -2 3387.34   13.28
  -1   1  -2 3575.89   21.41
   1  -1   2 3470.48   24.44
   1  -1   2 3479.20   13.39
   1  -1   2 3452.48   21.73
   1   1   2 3399.48   25.36
   1   1   2 3446.09   19.78
   1   1   2 3507.93   18.43
  -1  -1  -3   35.17    3.47
  -1  -1  -3   39.02    4.34
  -1   1  -3   38.75    4.28
  -1   1  -3   41.68    3.52
   1  -1   3   41.46    4.23
   1  -1   3   39.40    3.69
   1   1   3   39.56    4.28
   1   1   3   34.14    2.76
   1   1   3   37.61    3.20
  -1  -1  -4   60.10    4.93
  -1   1  -4   40.32    4.88
   1  -1   4   49.26    5.15
   1  -1   4   56.42    4.61
   1   1   4   57.28    5.37
   1   1   4   56.85    3.36
   1   1   4   55.50    4.23
  -1  -1  -5    7.26    3.20
  -1   1  -5    6.56    3.36
   1  -1   5    6.61    3.52
   1  -1   5    9.10    2.93
   1   1   5    3.47    3.09
   1   1   5    7.21    1.84
   1   1   5    6.45    2.49
  -1  -1  -6   37.94    5.74
  -1   1  -6   43.03    6.67
   1  -1   6   31.22    5.91
   1   1   6   35.88    6.18
  -1  -1  -7   -1.08    3.14
  -1   1  -7    0.65    3.96
   1  -1   7   -2.66    3.90
   1   1   7    3.47    4.34
  -1  -1  -8    0.33    4.17
  -1   1  -8    3.25    4.23
   1  -1   8    2.66    4.99
   1   1   8    3.52    4.77
  -1  -1  -9   24.77    6.50
  -1   1  -9   21.46    6.61
   1  -1   9   20.70    7.48
   1   1   9   28.94    7.75
  -1  -1 -10    7.10    5.58
  -1   1 -10    3.63    5.69
   1  -1  10   -2.38    6.34
   1   1  10   -0.98    5.58
  -1   1 -11   -2.98    6.29
  -1  -2  11    0.49    6.50
  -1   2  11    0.22    6.12
   1   2 -11    3.31    6.02
  -1  -2  10   54.90   10.03
  -1   2  10   62.05    9.97
   1  -2 -10   52.08    8.51
   1   2 -10   62.43   10.03
  -1  -2   9    0.92    4.99
  -1   2   9    2.17    4.66
   1  -2  -9   -0.11    3.58
   1   2  -9    3.25    4.66
  -1  -2   8   16.10    6.18
  -1   2   8   22.55    6.23
   1  -2  -8   11.87    4.77
   1   2  -8   13.12    5.37
  -1  -2   7    3.09    4.01
  -1   2   7    3.20    3.63
  -1   2   7    7.97    2.55
   1  -2  -7    1.79    2.93
   1   2  -7    1.90    3.52
  -1  -2   6  120.86    8.51
  -1   2   6  123.40    8.18
  -1   2   6  126.98    6.18
   1  -2  -6  122.70    7.15
   1   2  -6  116.20    8.08
   1   2  -6  131.64    7.91
  -1  -2   5  309.57   10.95
  -1   2   5  322.79   10.78
  -1   2   5  312.28    8.73
   1  -2  -5  328.97    9.65
   1  -2  -5  333.20   10.41
   1   2  -5  321.76   11.06
   1   2  -5  326.20    5.80
   1   2  -5  330.49   10.89
  -1  -2   4  176.95    9.10
  -1  -2   4  165.95    4.61
  -1   2   4  143.24    6.67
  -1   2   4  160.85    6.72
   1  -2  -4  140.69    6.61
   1  -2  -4  163.51    7.21
   1  -2  -4  160.37    7.05
   1   2  -4  134.84    7.37
   1   2  -4  152.34    4.50
   1   2  -4  155.32    7.15
  -1  -2   3  395.47    9.81
  -1  -2   3  402.84    7.15
  -1   2   3  385.44    8.83
  -1   2   3  390.15    8.73
   1  -2  -3  396.22    7.80
   1  -2  -3  389.88    8.83
   1  -2  -3  398.28    9.48
   1   2  -3  413.40    9.92
   1   2  -3  414.43    7.32
   1   2  -3  403.38    9.81
  -1  -2   2   24.39    3.31
  -1  -2   2   24.88    2.82
  -1   2   2   25.69    3.14
   1  -2  -2   25.36    2.49
   1  -2  -2   30.57    2.98
   1  -2  -2   28.89    3.36
   1   2  -2   28.45    3.36
   1   2  -2   24.60    2.49
   1   2  -2   23.47    3.09
  -1  -2   1 1200.00   13.49
  -1  -2   1 1214.96   13.06
  -1  -2   1 1180.76   12.52
  -1   2   1 1225.58   10.57
  -1   2   1 1183.31   13.39
   1  -2  -1 1210.41   10.51
   1  -2  -1 1223.68   10.57
   1  -2  -1 1231.00   13.66
   1   2  -1 1230.95   11.06
   1   2  -1 1185.42   12.84
   1   2  -1 1212.85   12.74
  -1  -2   0  206.76    3.52
  -1  -2   0  206.00    5.96
  -1  -2   0  209.95    4.93
  -1   2   0  194.24    5.26
  -1   2   0  194.02    5.47
  -1   2   0  202.31    5.85
   1  -2   0  201.66    4.61
   1  -2   0  198.52    5.74
   1  -2   0  189.09    5.74
   1   2   0  205.24    3.47
   1   2   0  204.97    5.91
   1   2   0  202.80    4.99
  -1  -2  -1  319.00    4.39
  -1  -2  -1  301.71    7.64
  -1   2  -1  330.27    7.64
  -1   2  -1  336.93    6.50
  -1   2  -1  326.53    7.32
   1  -2   1  347.83    7.15
   1  -2   1  322.74    7.37
   1  -2   1  315.53    7.26
   1   2   1  328.43    5.47
   1   2   1  328.59    7.53
   1   2   1  310.49    5.91
   1   2   1  314.93    5.96
  -1  -2  -2  528.79    7.64
  -1  -2  -2  531.88   11.22
  -1   2  -2  539.19   11.11
  -1   2  -2  550.30    7.42
  -1   2  -2  553.77   10.24
   1  -2   2  535.67   10.46
   1  -2   2  561.90   10.57
   1   2   2  540.33    9.81
   1   2   2  543.58    8.56
  -1  -2  -3  192.50    6.18
  -1  -2  -3  187.63    7.91
  -1   2  -3  193.64    8.08
  -1   2  -3  185.62    3.90
  -1   2  -3  198.68    7.05
   1  -2   3  211.31    8.29
   1  -2   3  205.94    7.42
   1   2   3  177.82    7.91
   1   2   3  204.26    6.67
   1   2   3  200.90    6.23
  -1  -2  -4  159.44    6.56
  -1  -2  -4  157.11    8.13
  -1   2  -4  161.77    8.29
  -1   2  -4  164.16    7.21
   1  -2   4  151.59    7.86
   1  -2   4  168.06    7.48
   1   2   4  151.31    7.91
   1   2   4  156.73    6.18
   1   2   4  152.72    6.34
  -1  -2  -5   34.31    4.66
  -1  -2  -5   37.94    5.85
  -1   2  -5   33.28    5.53
   1  -2   5   31.05    5.58
   1   2   5   36.37    5.69
   1   2   5   31.92    3.85
   1   2   5   37.29    4.17
  -1  -2  -6   11.76    3.79
  -1   2  -6   14.25    4.72
   1  -2   6   12.41    4.82
   1   2   6   12.79    4.61
   1   2   6   19.46    3.85
  -1  -2  -7   16.96    4.82
  -1   2  -7   11.27    5.47
   1  -2   7   21.62    6.29
   1   2   7   14.04    5.26
  -1  -2  -8    0.60    4.01
  -1   2  -8   -3.31    4.01
   1  -2   8   -1.14    5.58
   1   2   8    2.22    4.44
  -1  -2  -9    4.12    4.93
  -1   2  -9    1.41    4.82
   1  -2   9   -3.74    5.58
   1   2   9    4.01    5.04
  -1   2 -10   -0.98    5.31
   1  -2  10   -5.15    6.12
   1   2  10    3.41    6.18
  -1  -3  11    8.45    8.13
  -1   3  11    9.92    6.99
   1   3 -11    9.54    6.67
  -1  -3  10   -3.69    5.47
  -1   3  10    2.17    5.58
   1   3 -10    5.04    5.64
  -1  -3   9   10.89    6.40
  -1   3   9   17.18    6.56
   1   3  -9   11.81    5.85
  -1  -3   8   -2.55    4.66
  -1   3   8   -0.43    3.74
   1  -3  -8   -0.33    3.41
   1   3  -8   -3.63    4.01
  -1  -3   7   36.96    8.08
  -1   3   7   32.35    6.23
  -1   3   7   36.26    5.04
   1  -3  -7   33.28    5.37
   1   3  -7   29.48    6.29
  -1  -3   6   -0.87    3.47
  -1   3   6    2.38    3.36
  -1   3   6   -0.05    2.38
   1  -3  -6   -0.65    2.33
   1   3  -6    1.08    3.14
  -1  -3   5  407.55   13.12
  -1   3   5  410.70   12.30
  -1   3   5  421.64   11.33
   1  -3  -5  426.09   10.30
   1  -3  -5  414.76   12.41
   1  -3  -5  430.31   12.19
   1   3  -5  442.94   13.44
   1   3  -5  429.23    8.02
   1   3  -5  451.45   13.33
  -1  -3   4  311.30   10.73
  -1   3   4  345.82   10.35
  -1   3   4  333.09    9.92
   1  -3  -4  316.45    8.02
   1  -3  -4  319.21    9.81
   1  -3  -4  322.90   10.03
   1   3  -4  310.32   10.24
   1   3  -4  315.15    7.37
   1   3  -4  319.10   10.46
  -1  -3   3 1152.91   18.10
  -1   3   3 1121.20   16.69
   1  -3  -3 1202.82   12.90
   1  -3  -3 1128.90   15.88
   1  -3  -3 1180.33   17.29
   1   3  -3 1122.94   16.64
   1   3  -3 1134.15   14.09
   1   3  -3 1136.59   17.56
  -1  -3   2  219.49    7.64
  -1  -3   2  226.59    7.59
  -1   3   2  216.02    7.48
   1  -3  -2  221.66    4.99
   1  -3  -2  215.10    6.56
   1  -3  -2  212.34    7.48
   1   3  -2  229.90    6.88
   1   3  -2  222.80    6.88
   1   3  -2  210.44    7.32
  -1  -3   1  114.08    5.47
  -1  -3   1  112.02    5.09
  -1   3   1  106.98    3.74
  -1   3   1  101.35    5.26
   1  -3  -1  113.81    3.90
   1  -3  -1  102.65    4.44
   1  -3  -1  109.96    5.58
   1   3  -1  115.71    4.12
   1   3  -1  108.82    5.20
   1   3  -1  106.60    5.04
  -1  -3   0  477.84    6.29
  -1  -3   0  448.96    9.92
  -1  -3   0  473.51    9.00
  -1   3   0  453.35    8.24
  -1   3   0  439.96    9.43
  -1   3   0  456.38    9.92
   1  -3   0  458.98    8.45
   1  -3   0  443.43    9.81
   1   3   0  463.92    5.26
   1   3   0  453.08    9.97
   1   3   0  456.60    9.05
   1   3   0  458.77    9.10
  -1  -3  -1  950.97   14.90
  -1  -3  -1  964.90   12.30
  -1   3  -1  950.59   13.60
  -1   3  -1  915.80   12.68
  -1   3  -1  925.34   14.25
   1  -3   1  937.64   13.01
   1  -3   1  951.51   14.52
   1   3   1  966.47    4.39
   1   3   1  962.19   14.74
   1   3   1  939.48   12.52
   1   3   1  937.86   12.57
  -1  -3  -2  675.71    7.05
  -1  -3  -2  700.80   13.93
  -1   3  -2  693.81   13.39
  -1   3  -2  710.29   11.11
  -1   3  -2  689.37   13.17
   1  -3   2  677.18   12.63
   1  -3   2  696.47   13.28
   1   3   2  697.72   13.06
   1   3   2  693.87   11.38
  -1  -3  -3  146.92    4.82
  -1  -3  -3  142.75    7.42
  -1   3  -3  158.52    7.70
  -1   3  -3  142.59    4.99
  -1   3  -3  153.97    6.99
   1  -3   3  143.46    7.15
   1  -3   3  153.97    7.86
   1  -3   3  150.23    7.05
   1   3   3  147.95    6.61
   1   3   3  148.66    6.07
  -1  -3  -4  122.81    5.42
  -1  -3  -4  132.02    7.91
  -1   3  -4  115.11    7.48
  -1   3  -4  125.25    3.74
  -1   3  -4  113.87    6.56
   1  -3   4  117.33    7.32
   1   3   4  122.16    7.59
   1   3   4  129.74    6.61
   1   3   4  124.81    6.23
  -1  -3  -5  192.61    7.64
  -1  -3  -5  202.91   10.46
  -1   3  -5  193.53   10.19
   1  -3   5  187.46    9.92
   1   3   5  218.30   10.73
   1   3   5  190.66    8.18
  -1  -3  -6   13.28    3.79
  -1  -3  -6    9.10    4.72
  -1   3  -6    8.56    4.82
   1  -3   6    5.58    4.99
   1   3   6   13.33    4.99
   1   3   6   10.73    3.58
  -1  -3  -7   22.82    4.93
  -1   3  -7   31.49    6.77
   1  -3   7   18.43    6.18
   1   3   7   18.05    5.91
  -1   3  -8   27.15    7.05
   1  -3   8   18.43    6.94
   1   3   8   25.36    6.94
  -1   3  -9   12.41    6.56
   1  -3   9   16.80    7.70
   1   3   9    7.80    6.34
  -1   3 -10    2.98    6.02
   1  -3  10   -2.38    7.97
   1   3  10    3.58    5.74
  -1   4  11    1.41    6.02
   1   4 -11    1.57   10.08
  -1  -4  10   -1.57    6.50
  -1   4  10   -0.92    4.61
   1   4 -10   -2.66    4.44
  -1  -4   9   -3.03    5.80
  -1   4   9   -0.65    5.04
   1   4  -9   -3.14    4.50
  -1  -4   8   26.34    7.32
  -1   4   8   30.51    6.83
   1   4  -8   22.06    6.56
  -1  -4   7   21.19    6.72
  -1   4   7   18.81    5.64
  -1   4   7   20.38    4.61
   1  -4  -7   17.51    4.88
   1   4  -7   21.35    5.74
  -1  -4   6   21.95    5.69
  -1   4   6   18.53    4.77
  -1   4   6   23.63    4.66
   1  -4  -6   23.58    3.90
   1  -4  -6   20.87    4.99
   1   4  -6   20.16    5.47
  -1   4   5  392.49   12.68
  -1   4   5  407.44   12.47
   1  -4  -5  420.78    9.70
   1  -4  -5  404.95   12.90
   1   4  -5  409.18   13.44
   1   4  -5  417.85    9.43
   1   4  -5  429.12   13.98
  -1  -4   4  248.81   10.30
  -1   4   4  253.36    9.38
  -1   4   4  249.41    9.59
   1  -4  -4  266.75    6.77
   1  -4  -4  270.22    9.92
   1  -4  -4  257.92    9.81
   1   4  -4  262.04   10.03
   1   4  -4  262.47    7.97
   1   4  -4  268.32   10.41
  -1  -4   3  195.10    8.78
  -1  -4   3  195.75    8.62
  -1   4   3  190.50    8.40
   1  -4  -3  208.44    5.53
   1  -4  -3  195.75    7.80
   1  -4  -3  210.06    8.56
   1   4  -3  190.61    7.64
   1   4  -3  190.44    7.15
   1   4  -3  188.17    8.35
  -1  -4   2    9.48    3.96
  -1  -4   2   17.02    3.47
  -1   4   2   16.42    4.55
   1  -4  -2   17.78    2.17
   1  -4  -2   22.65    3.52
   1  -4  -2   23.03    3.96
   1   4  -2   17.45    3.09
   1   4  -2   16.20    3.20
   1   4  -2   21.62    3.63
  -1  -4   1   29.81    4.28
  -1  -4   1   35.88    4.01
  -1   4   1   32.14    2.71
  -1   4   1   31.22    4.39
   1  -4  -1   25.26    2.98
   1  -4  -1   33.66    3.47
   1  -4  -1   30.89    4.23
   1   4  -1   31.22    2.87
   1   4  -1   30.73    4.06
   1   4  -1   29.10    3.90
  -1  -4   0  250.17    8.83
  -1  -4   0  243.23    7.91
  -1   4   0  266.91    6.99
  -1   4   0  258.03    8.83
  -1   4   0  257.48    8.78
   1  -4   0  254.23    7.59
   1  -4   0  252.88    8.89
   1   4   0  257.27    4.44
   1   4   0  254.18    8.78
   1   4   0  238.41    7.97
   1   4   0  262.96    8.35
  -1  -4  -1   20.97    4.06
  -1  -4  -1   21.03    3.25
  -1   4  -1   17.02    3.14
  -1   4  -1   19.84    3.63
   1  -4   1   10.62    3.85
   1  -4   1   17.83    3.69
   1   4   1   18.37    4.06
   1   4   1   13.77    2.76
   1   4   1   18.64    3.20
  -1  -4  -2    2.55    2.82
  -1   4  -2   -0.38    2.06
  -1   4  -2    3.25    2.93
  -1   4  -2   -0.16    2.11
   1  -4   2   -0.33    2.71
   1  -4   2   -0.16    2.44
   1   4   2   -1.08    2.22
   1   4   2   -0.27    1.73
  -1  -4  -3  123.08    3.58
  -1  -4  -3  130.67    7.70
  -1   4  -3  137.98    7.53
  -1   4  -3  127.52    5.69
  -1   4  -3  139.17    7.64
   1  -4   3  123.35    7.10
   1  -4   3  137.93    7.59
   1   4   3  128.17    7.10
   1   4   3  140.37    6.61
  -1  -4  -4    0.22    1.57
  -1  -4  -4    1.41    3.25
  -1   4  -4    1.90    3.41
  -1   4  -4    0.05    1.73
   1  -4   4   -1.41    3.31
   1  -4   4    3.14    2.93
   1   4   4   -0.92    2.87
   1   4   4    0.54    2.60
   1   4   4   -0.11    2.01
  -1  -4  -5    7.64    2.60
  -1  -4  -5    9.43    4.34
  -1   4  -5    2.49    3.74
   1  -4   5    4.23    4.12
   1   4   5   10.78    4.39
   1   4   5    5.15    3.63
  -1  -4  -6   10.03    4.93
  -1   4  -6    8.62    4.82
   1  -4   6    8.62    4.82
   1   4   6   13.06    5.09
   1   4   6    5.20    3.41
  -1  -4  -7   31.81    7.21
  -1   4  -7   28.72    7.21
   1  -4   7   37.72    7.75
   1   4   7   38.15    7.42
  -1   4  -8   -3.25    4.39
   1  -4   8   -3.25    5.15
   1   4   8    0.00    4.44
  -1   4  -9    0.16    5.80
   1  -4   9    0.33    6.12
   1   4   9    0.76    5.31
  -1   4 -10    1.03    7.10
   1  -4  10   -2.98    6.56
   1   4  10    3.20    6.23
  -1  -5  10    0.38    7.37
  -1   5  10    1.79    5.91
   1   5 -10    4.77    5.91
  -1  -5   9    3.96    5.96
  -1   5   9    2.55    5.04
   1   5  -9    0.49    4.99
  -1  -5   8   16.48    7.42
  -1   5   8   20.00    6.29
   1   5  -8   23.90    6.77
  -1  -5   7    4.12    5.58
  -1   5   7    2.76    4.39
  -1   5   7   -0.16    3.58
   1  -5  -7   -1.79    3.52
   1   5  -7   -2.66    3.63
  -1  -5   6    3.74    4.66
  -1   5   6    2.22    3.63
  -1   5   6    0.43    3.90
   1  -5  -6   -1.52    3.74
   1   5  -6    0.22    3.58
  -1  -5   5   52.08    7.80
  -1  -5   5   56.53    7.26
  -1   5   5   43.41    6.23
  -1   5   5   45.25    6.34
   1  -5  -5   40.54    5.96
   1   5  -5   53.17    6.99
   1   5  -5   51.65    4.77
   1   5  -5   53.71    7.10
  -1  -5   4   38.75    6.12
  -1  -5   4   48.07    6.50
  -1   5   4   48.18    6.40
   1  -5  -4   42.98    3.20
   1  -5  -4   48.83    5.64
   1   5  -4   44.49    5.74
   1   5  -4   42.65    4.55
   1   5  -4   36.47    5.53
  -1  -5   3  294.12   11.11
  -1  -5   3  290.22   11.16
  -1   5   3  279.27   10.89
   1  -5  -3  298.18    5.85
   1  -5  -3  272.50    9.70
   1  -5  -3  299.21   10.89
   1   5  -3  299.49    9.76
   1   5  -3  301.49    9.81
   1   5  -3  290.27   11.22
  -1  -5   2  150.39    7.86
  -1  -5   2  145.24    7.86
  -1   5   2  137.28    7.86
   1  -5  -2  145.68    4.34
   1  -5  -2  140.91    6.83
   1  -5  -2  145.46    7.64
   1   5  -2  151.31    6.34
   1   5  -2  149.42    7.37
   1   5  -2  144.11    7.75
  -1  -5   1   49.43    5.20
  -1  -5   1   48.88    5.09
  -1   5   1   43.14    3.14
  -1   5   1   39.18    5.26
  -1   5   1   43.84    4.93
   1  -5  -1   43.09    3.25
   1  -5  -1   36.09    4.34
   1  -5  -1   42.33    4.88
   1   5  -1   48.23    3.41
   1   5  -1   45.52    4.88
   1   5  -1   50.51    4.99
  -1  -5   0  413.08   12.09
  -1  -5   0  438.39   11.60
  -1   5   0  429.45    9.32
  -1   5   0  431.40   12.14
  -1   5   0  424.46   12.47
   1  -5   0  432.48   11.11
   1  -5   0  436.11   12.63
   1   5   0  449.28    6.18
   1   5   0  403.00   12.09
   1   5   0  409.67   11.44
  -1  -5  -1    1.35    2.76
  -1  -5  -1    2.22    2.11
  -1   5  -1   -1.03    1.95
  -1   5  -1    3.09    2.82
  -1   5  -1    1.30    2.55
   1  -5   1    1.03    2.17
   1  -5   1   -0.22    2.38
   1   5   1   -1.73    2.38
   1   5   1   -0.70    2.01
   1   5   1    0.16    1.95
  -1  -5  -2   30.89    5.15
  -1  -5  -2   31.92    4.72
  -1   5  -2   31.16    4.39
  -1   5  -2   31.05    4.39
  -1   5  -2   31.16    4.82
   1  -5   2   33.17    4.66
   1  -5   2   35.06    5.26
   1   5   2   31.76    4.99
   1   5   2   29.27    4.17
  -1  -5  -3  124.16    8.13
  -1   5  -3  131.26    7.75
  -1   5  -3  126.17    6.67
  -1   5  -3  127.25    7.91
   1  -5   3  125.79    8.24
   1  -5   3  123.89    7.97
   1   5   3  133.16    8.13
  -1  -5  -4   46.93    6.83
  -1   5  -4   48.61    6.07
  -1   5  -4   50.73    5.15
   1  -5   4   56.91    7.26
   1  -5   4   53.60    6.94
   1   5   4   53.71    6.72
  -1  -5  -5    4.55    4.23
  -1   5  -5   -1.41    3.85
   1  -5   5    5.15    4.82
   1  -5   5    3.03    3.63
   1   5   5    1.19    3.90
   1   5   5    2.17    4.01
  -1  -5  -6    7.70    4.99
  -1   5  -6    9.97    5.53
   1  -5   6    9.27    5.96
   1  -5   6   12.14    5.20
   1   5   6   10.30    5.04
   1   5   6    6.83    3.79
  -1  -5  -7   48.13    9.00
  -1   5  -7   35.71    7.70
   1  -5   7   33.93    7.80
   1  -5   7   48.23    7.91
   1   5   7   35.23    7.70
  -1   5  -8    0.65    5.26
   1  -5   8   -5.26    4.39
   1  -5   8    0.00    4.82
   1   5   8    0.65    4.44
  -1   5  -9   17.67    7.70
   1  -5   9   -2.71    5.80
   1  -5   9    3.58    5.64
   1   5   9    2.38    5.31
   1  -5  10   -4.50    4.93
  -1  -6  10    4.50    7.75
  -1   6  10   -2.06    4.93
   1   6 -10    0.70    5.42
  -1  -6   9    2.87    7.15
  -1   6   9    4.50    5.20
   1   6  -9   -4.39    4.66
  -1  -6   8   -3.96    5.69
  -1   6   8    3.52    4.77
  -1   6   8   -0.49    3.90
   1  -6  -8    3.96    4.93
   1   6  -8   -2.98    4.23
  -1  -6   7    3.63    5.69
  -1   6   7    7.86    4.61
  -1   6   7    0.05    4.17
   1  -6  -7    6.07    4.82
   1   6  -7    3.74    4.66
  -1  -6   6   36.58    7.53
  -1  -6   6   32.30    6.77
  -1   6   6   40.54    7.15
  -1   6   6   35.50    6.88
   1  -6  -6   38.32    6.88
   1   6  -6   43.03    7.26
  -1  -6   5    9.81    5.31
  -1  -6   5    8.35    4.55
  -1   6   5    7.80    4.01
  -1   6   5    8.35    4.61
   1  -6  -5   11.44    4.72
   1   6  -5   10.95    4.39
   1   6  -5    9.10    3.74
  -1  -6   4    8.45    4.23
  -1  -6   4    7.15    4.12
  -1   6   4    4.93    4.01
   1  -6  -4   14.52    4.28
   1   6  -4    7.64    3.79
   1   6  -4    9.32    3.52
   1   6  -4    9.81    4.01
  -1  -6   3   13.33    4.23
  -1  -6   3   12.47    4.12
  -1   6   3    9.70    4.23
   1  -6  -3   21.14    4.50
   1   6  -3   18.48    4.01
   1   6  -3   16.10    3.79
   1   6  -3   17.18    4.72
  -1  -6   2  244.75   10.73
  -1  -6   2  242.25   10.57
  -1   6   2  234.18   10.95
   1  -6  -2  256.56    5.80
   1  -6  -2  238.68    9.59
   1  -6  -2  249.90   10.84
   1   6  -2  268.38    8.73
   1   6  -2  249.03   10.30
   1   6  -2  259.33   11.16
  -1  -6   1   34.20    5.53
  -1  -6   1   33.49    5.04
  -1   6   1   34.47    3.25
  -1   6   1   33.87    5.69
  -1   6   1   40.59    5.64
   1  -6  -1   30.13    3.25
   1  -6  -1   39.13    5.15
   1  -6  -1   40.27    5.69
   1   6  -1   38.48    3.52
   1   6  -1   37.12    5.47
   1   6  -1   33.06    5.04
  -1  -6   0    6.72    3.52
  -1   6   0    6.61    2.44
  -1   6   0   10.35    4.12
  -1   6   0    7.32    3.36
   1  -6   0    6.45    3.25
   1  -6   0    5.26    3.20
   1   6   0    7.80    1.46
   1   6   0    7.05    3.63
   1   6   0    6.40    3.31
  -1  -6  -1    2.60    3.14
  -1   6  -1    1.95    2.38
  -1   6  -1    3.96    3.58
  -1   6  -1    2.38    2.98
   1  -6   1    1.73    2.60
   1  -6   1    5.91    3.47
   1   6   1    1.52    3.58
   1   6   1    3.03    2.93
  -1  -6  -2  249.63   11.16
  -1   6  -2  242.58    9.59
  -1   6  -2  236.24    9.81
  -1   6  -2  247.19   11.33
   1  -6   2  229.36    9.92
   1  -6   2  238.24   11.27
   1   6   2  223.18   10.84
  -1  -6  -3   92.89    7.97
  -1   6  -3   86.44    6.94
  -1   6  -3   95.11    7.05
   1  -6   3   90.07    7.80
   1  -6   3  100.59    8.45
   1   6   3   94.03    8.08
  -1  -6  -4  120.80    9.32
  -1   6  -4  121.02    9.10
  -1   6  -4  101.83    7.10
   1  -6   4  106.55    8.94
   1  -6   4  100.05    8.94
   1   6   4  101.78    9.27
  -1  -6  -5    5.64    4.72
  -1   6  -5    6.29    4.39
   1  -6   5    8.02    5.53
   1  -6   5    5.91    4.34
   1   6   5    5.74    4.93
   1   6   5    4.55    4.55
  -1  -6  -6    1.30    5.31
  -1   6  -6    1.30    4.50
   1  -6   6   -0.87    4.55
   1  -6   6    3.79    4.55
   1   6   6   -0.49    4.23
   1   6   6   -0.54    4.06
  -1  -6  -7    4.34    5.91
  -1   6  -7    6.23    5.53
   1  -6   7    8.89    6.34
   1  -6   7    8.35    5.31
   1   6   7   10.08    5.53
  -1  -6  -8    0.98    5.69
  -1   6  -8    6.83    5.74
   1  -6   8    3.03    6.56
   1  -6   8    1.90    5.04
   1   6   8    2.33    5.31
  -1   6  -9    4.12    6.88
   1  -6   9  -11.60    7.21
   1  -6   9   -0.92    5.47
   1   6   9   -0.16    5.58
  -1  -7   9    2.66    7.48
  -1   7   9    8.08    6.29
   1   7  -9   12.14    6.72
  -1  -7   8   12.03    7.32
  -1   7   8    6.83    5.42
  -1   7   8    0.05    4.34
   1  -7  -8   -2.71    4.93
   1   7  -8    4.77    5.47
  -1  -7   7   16.26    7.15
  -1   7   7   28.56    7.32
  -1   7   7   17.78    6.50
   1  -7  -7   13.17    6.18
   1   7  -7   16.85    6.23
  -1  -7   6    7.26    5.37
  -1   7   6   10.95    4.99
  -1   7   6   13.49    5.53
   1  -7  -6   11.92    5.04
   1   7  -6   11.87    5.09
  -1  -7   5    2.55    4.50
  -1   7   5    6.72    4.17
  -1   7   5    3.96    4.72
   1  -7  -5    7.42    4.39
   1   7  -5    4.44    4.28
   1   7  -5    7.59    4.23
  -1  -7   4  212.56   11.87
  -1   7   4  202.69   12.30
   1  -7  -4  197.49   10.73
   1   7  -4  204.53   10.41
   1   7  -4  204.53   10.62
   1   7  -4  203.67   12.25
  -1  -7   3   46.88    7.75
  -1   7   3   63.95    9.00
   1  -7  -3   62.00    6.72
   1   7  -3   54.52    5.69
   1   7  -3   64.49    7.10
   1   7  -3   50.94    7.15
  -1  -7   2  121.40    8.73
  -1   7   2  133.48    9.70
   1  -7  -2  136.52    8.40
   1   7  -2  132.13    6.77
   1   7  -2  126.38    8.73
   1   7  -2  129.91    9.27
  -1  -7   1   38.37    6.12
  -1   7   1   46.23    7.21
   1  -7  -1   50.62    6.18
   1   7  -1   41.13    6.34
   1   7  -1   35.06    5.80
  -1  -7   0    2.60    3.47
  -1   7   0    0.98    2.11
  -1   7   0    2.38    4.17
  -1   7   0    0.22    2.98
   1  -7   0    1.19    2.93
   1  -7   0   -1.84    3.14
   1   7   0   -0.11    3.47
   1   7   0    2.93    3.20
  -1  -7  -1  136.95    9.21
  -1   7  -1  144.70    7.37
  -1   7  -1  146.17    9.76
  -1   7  -1  156.84   10.08
   1  -7   1  137.44    8.40
   1  -7   1  137.87    9.43
   1   7   1  141.99    9.76
   1   7   1  135.06    8.89
  -1  -7  -2    6.56    4.17
  -1   7  -2    9.54    3.63
  -1   7  -2   11.06    5.58
   1  -7   2    4.93    4.23
   1  -7   2    4.66    3.85
   1   7   2   10.46    4.99
  -1  -7  -3    2.71    4.06
  -1   7  -3    3.85    3.85
  -1   7  -3    4.23    4.34
   1  -7   3    4.61    4.06
   1  -7   3    3.14    4.12
   1   7   3    5.85    4.82
  -1  -7  -4    9.16    5.42
  -1   7  -4    4.99    4.17
   1  -7   4   12.52    4.82
   1  -7   4    7.70    4.77
   1   7   4    6.45    5.15
  -1  -7  -5    2.98    4.66
  -1   7  -5    0.60    4.39
   1  -7   5   -1.46    4.72
   1  -7   5    0.49    4.55
   1   7   5    0.92    4.55
   1   7   5    2.76    4.44
  -1  -7  -6   -0.11    4.55
  -1   7  -6    4.44    4.72
   1  -7   6   -0.22    6.02
   1  -7   6    2.44    4.66
   1   7   6   -0.22    4.44
   1   7   6   -3.52    4.82
  -1  -7  -7   -3.36    4.55
  -1   7  -7    4.72    5.31
   1  -7   7    1.19    6.02
   1  -7   7   -0.16    4.61
   1   7   7    5.69    5.47
   1   7   7   -5.42    4.50
  -1  -7  -8    2.01    6.07
  -1   7  -8    3.52    5.53
   1  -7   8    2.76    6.94
   1  -7   8    8.89    5.91
   1   7   8   -2.60    4.88
  -1   8   9   11.38    6.34
   1   8  -9    7.53    7.05
  -1  -8   8   10.51    7.32
  -1   8   8    2.11    5.85
  -1   8   8   -3.74    5.20
   1  -8  -8    1.19    5.85
   1   8  -8    2.82    5.04
  -1  -8   7   15.55    6.61
  -1   8   7   13.01    6.12
  -1   8   7    4.55    5.91
   1  -8  -7    4.88    5.53
   1   8  -7    6.45    5.15
  -1  -8   6    6.40    5.15
  -1   8   6   -2.22    3.79
  -1   8   6   -3.63    5.04
   1  -8  -6    0.81    4.93
   1   8  -6    5.37    4.93
  -1  -8   5   20.70    6.12
  -1   8   5   23.20    7.32
   1  -8  -5   17.34    6.02
   1   8  -5   23.25    5.74
  -1  -8   4    2.71    4.44
  -1   8   4    0.65    4.72
   1  -8  -4   -1.52    3.52
   1   8  -4    1.03    3.41
   1   8  -4   -3.14    3.36
  -1  -8   3   16.91    5.42
  -1   8   3   14.42    5.80
   1  -8  -3   14.85    5.31
   1   8  -3   20.27    5.47
   1   8  -3   14.96    5.31
   1   8  -3   18.97    5.74
  -1  -8   2   91.70    8.78
  -1   8   2   99.83   10.13
   1  -8  -2  104.65    8.83
   1   8  -2  110.72    9.43
   1   8  -2   93.05    9.05
  -1  -8   1   54.36    7.80
  -1   8   1   46.72    7.86
   1  -8  -1   50.78    7.32
   1   8  -1   40.76    7.10
   1   8  -1   42.33    6.99
  -1  -8   0   -2.98    3.47
  -1   8   0    3.03    4.88
  -1   8   0    0.22    3.41
   1  -8   0    2.06    3.90
   1   8   0    0.76    4.01
   1   8   0    1.63    3.63
  -1  -8  -1   61.02    8.40
  -1   8  -1   51.54    7.97
   1  -8   1   56.20    6.88
   1   8   1   47.53    7.91
   1   8   1   54.52    7.42
  -1  -8  -2   25.04    6.61
  -1   8  -2   27.91    5.09
  -1   8  -2   33.87    6.99
   1  -8   2   26.94    5.74
   1   8   2   19.78    6.29
  -1  -8  -3   17.67    5.91
  -1   8  -3    8.45    4.28
  -1   8  -3   19.51    5.69
   1  -8   3   19.51    5.74
   1   8   3   18.21    6.18
  -1  -8  -4    4.66    5.26
  -1   8  -4    1.95    3.96
   1  -8   4    4.50    4.01
   1   8   4   -2.93    4.01
  -1  -8  -5    7.37    5.85
  -1   8  -5    8.89    4.93
   1  -8   5   19.02    6.07
   1   8   5    6.23    5.53
  -1  -8  -6   -4.23    4.72
  -1   8  -6    2.22    4.55
   1  -8   6    3.52    4.88
   1   8   6    4.39    5.47
   1   8   6   -4.61    5.04
  -1  -8  -7    3.47    5.80
  -1   8  -7    1.90    5.04
   1  -8   7   11.06    6.83
   1   8   7   14.42    6.94
   1   8   7    1.79    5.26
  -1   8  -8    9.05    7.42
   1  -8   8    8.78    7.37
  -1   9   8    8.35    6.23
  -1   9   8    2.82    6.67
   1  -9  -8    0.00    6.29
   1   9  -8    6.50    6.40
  -1  -9   7    3.36    5.37
  -1   9   7    4.72    5.64
  -1   9   7   -3.09    5.31
   1  -9  -7   -2.44    5.47
   1   9  -7   -1.57    4.39
  -1  -9   6    4.01    4.93
  -1   9   6   -2.49    4.44
  -1   9   6   -0.76    5.47
   1  -9  -6   -6.34    4.82
   1   9  -6   -1.57    4.39
  -1  -9   5    7.05    4.88
  -1   9   5   -1.19    5.69
   1  -9  -5    4.61    4.66
  -1  -9   4    6.34    5.53
  -1   9   4   10.95    6.88
   1  -9  -4    4.99    5.20
   1   9  -4   11.00    6.07
  -1  -9   3   -0.81    3.74
  -1   9   3    5.80    5.47
   1  -9  -3    0.87    4.23
   1   9  -3    3.25    5.15
  -1  -9   2   38.21    7.59
  -1   9   2   40.00    8.24
   1  -9  -2   33.33    6.72
   1   9  -2   39.73    7.97
   1   9  -2   48.02    8.29
  -1  -9   1   23.79    6.77
  -1   9   1   29.81    7.80
   1  -9  -1   32.14    6.40
   1   9  -1   25.96    6.77
   1   9  -1   29.43    6.61
  -1  -9   0    7.10    5.31
  -1   9   0    2.06    4.88
   1  -9   0    6.72    4.34
   1   9   0    3.90    5.64
   1   9   0    6.40    4.82
  -1  -9  -1   42.76    7.91
  -1   9  -1   49.32    8.73
   1  -9   1   48.29    7.80
   1   9   1   44.01    8.35
  -1  -9  -2   -3.25    4.01
  -1   9  -2    2.82    4.82
   1  -9   2   -1.30    4.01
   1   9   2   -8.78    3.85
  -1  -9  -3    9.54    5.58
  -1   9  -3    2.87    5.85
   1  -9   3    4.23    4.93
   1   9   3   -0.87    5.09
  -1  -9  -4   10.73    5.91
  -1   9  -4   11.44    4.82
   1  -9   4   14.15    5.15
   1   9   4    6.12    5.74
  -1  -9  -5   43.95    8.78
  -1   9  -5   42.65    7.91
   1  -9   5   47.15    8.35
   1   9   5   35.71    8.78
  -1  -9  -6    4.28    6.29
  -1   9  -6   15.93    6.50
   1  -9   6   13.98    6.23
   1   9   6   16.75    6.99
   1   9   6   10.30    7.21
  -1  -9  -7    2.22   10.68
  -1   9  -7   11.16    6.99
   1   9   7   13.66   10.41
   1   9   7    3.74    6.72
  -1  10   7   12.79   10.51
  -1  10   7   -0.33   10.51
   1 -10  -7    3.79    5.58
  -1 -10   6    1.35    4.82
  -1  10   6    6.07    5.04
  -1  10   6   -2.93    5.85
   1 -10  -6   -1.90    4.88
  -1 -10   5    3.20    4.55
  -1  10   5   -3.74    5.53
   1 -10  -5    0.76    5.26
  -1 -10   4    7.53    5.37
  -1  10   4   10.62    7.15
   1 -10  -4    5.26    5.20
   1  10  -4    8.78    6.40
  -1 -10   3   11.65    5.69
  -1  10   3    5.20    6.23
   1 -10  -3    6.83    4.93
   1  10  -3    8.83    5.91
  -1 -10   2   28.45    7.70
  -1  10   2   21.14    7.42
   1 -10  -2   23.30    6.72
   1  10  -2   23.36    7.26
  -1 -10   1    4.88    5.31
  -1  10   1    2.55    5.80
   1 -10  -1    6.40    5.26
   1  10  -1    7.70    6.29
   1  10  -1   -0.16    4.55
  -1 -10   0    6.94    5.09
  -1  10   0    3.74    6.34
   1 -10   0    4.61    4.50
   1  10   0    5.15    5.69
   1  10   0    3.31    4.93
  -1 -10  -1   -2.06    4.01
  -1  10  -1    2.28    6.29
   1 -10   1    3.74    4.72
   1  10   1    1.90    5.53
  -1 -10  -2    3.52    5.58
  -1  10  -2    2.76    5.58
   1 -10   2    7.70    4.72
   1  10   2    0.70    5.26
  -1 -10  -3    1.14    5.26
   1 -10   3    3.52    4.55
   1  10   3    1.95    6.07
  -1 -10  -4   -3.41    5.20
   1 -10   4    8.02    5.37
   1  10   4    2.55    6.83
  -1 -10  -5    3.85    6.50
   1 -10   5   11.06    5.91
   1  10   5    3.96    6.40
   1  10   6   -5.04    5.47
  -1 -11   5   11.60    7.05
  -1 -11   4    3.47    5.80
  -1  11   4   -1.90    6.45
  -1 -11   3   14.09    6.61
  -1  11   3   21.62    9.32
   1 -11  -3    5.85    5.69
   1  11  -3   14.85    8.40
  -1 -11   2   -4.12    4.39
  -1  11   2   -4.55    5.80
   1 -11  -2    1.41    5.31
   1  11  -2   -1.57    6.50
  -1 -11   1    2.98    4.82
  -1  11   1   -1.08    7.15
   1 -11  -1    2.66    4.66
   1  11  -1    0.98    6.34
  -1 -11   0    4.77    6.02
  -1  11   0    0.33    7.15
   1 -11   0    4.88    5.53
   1  11   0   -0.33    6.18
  -1 -11  -1    5.58    5.31
  -1  11  -1    7.37    7.48
   1 -11   1    5.37    5.15
   1  11   1    6.88    7.75
  -1 -11  -2    5.58    6.07
  -1  11  -2    4.88    6.99
   1 -11   2    4.99    5.53
   1  11   2    2.93    6.99
  -1 -11  -3   11.87    6.67
   1 -11   3   14.58    6.34
   1  11   3    2.33    7.10
  -1 -11  -4    5.37    5.80
   1 -11   4   16.64    5.64
   1  12  -3    6.12    8.02
  -1 -12   2    5.96    6.50
   1  12  -2    9.81    8.56
  -1 -12   1   14.36    6.88
  -1 -12   0    6.18    6.45
  -1  12   0    2.76    8.35
  -1 -12  -1   10.24    6.40
  -1  12  -1   -0.98    7.10
  -1  12  -2    4.82    8.29
  -2   0  12   -3.25    6.34
   2   0 -12   -3.09    5.53
  -2   0  11   -3.69    5.58
   2   0 -11   -6.40    5.04
  -2   0  10    9.59    6.50
   2   0 -10    5.80    5.26
  -2   0   9    5.09    5.26
   2   0  -9   -0.49    4.01
  -2   0   8   46.77    7.42
   2   0  -8   50.02    7.32
  -2   0   7    0.38    3.36
  -2   0   7    1.52    1.73
   2   0  -7   -1.73    2.93
  -2   0   6   -0.38    2.66
  -2   0   6    0.65    1.73
   2   0  -6   -1.57    2.55
   2   0  -6    0.05    2.38
  -2   0   5   -1.68    2.44
  -2   0   5    0.70    1.68
   2   0  -5    3.69    3.03
   2   0  -5   -1.95    2.22
  -2   0   4 1182.28   16.04
  -2   0   4 1159.68   13.98
   2   0  -4 1152.15   16.91
   2   0  -4 1174.48   17.23
  -2   0   3    0.87    1.73
  -2   0   3    0.16    1.79
   2   0  -3    0.43    1.95
   2   0  -3    0.65    2.01
  -2   0   2  286.32    5.31
  -2   0   2  286.80    6.83
   2   0  -2  302.90    7.32
   2   0  -2  270.27    6.45
  -2   0   1   -0.16    1.84
  -2   0   1    1.08    1.08
  -2   0   1   -0.98    1.73
   2   0  -1    0.65    1.79
   2   0  -1   -0.22    1.19
  -2   0   0  166.22    5.37
  -2   0   0  155.60    4.12
  -2   0   0  163.13    5.15
   2   0   0  166.54    2.93
  -2   0  -1   -2.11    1.73
  -2   0  -1    0.92    1.68
  -2   0  -1    0.60    1.52
   2   0   1   -0.05    1.63
   2   0   1    0.33    0.76
  -2   0  -2  883.50   14.20
  -2   0  -2  933.79   14.42
  -2   0  -2  893.63   10.73
   2   0   2  898.67   13.98
   2   0   2  916.72    9.59
  -2   0  -3    1.19    2.33
  -2   0  -3    0.27    1.30
   2   0   3    0.00    2.28
   2   0   3    0.60    1.35
   2   0   3   -0.33    1.35
  -2   0  -4  225.02    9.27
   2   0   4  232.50    9.70
   2   0   4  248.92    5.53
   2   0   4  236.51    7.53
  -2   0  -5   -1.73    2.55
   2   0   5   -0.98    3.25
   2   0   5   -0.54    2.06
  -2   0  -6   15.99    4.77
   2   0   6   13.17    5.09
  -2   0  -7   -0.70    4.12
   2   0   7   -1.63    4.12
  -2   0  -8   -0.43    4.61
   2   0   8    0.98    5.20
  -2   0  -9    0.22    4.88
   2   0   9   -3.63    5.69
  -2   0 -10   14.90    6.45
   2   0  10    4.99    7.53
  -2  -1  12    0.27    7.59
  -2   1  12  -10.62    5.53
   2  -1 -12   -1.46    5.20
   2   1 -12   -0.60    5.69
  -2  -1  11    2.66    7.42
  -2   1  11    7.26    6.83
   2  -1 -11    6.94    6.23
   2   1 -11    1.08    5.53
  -2  -1  10    1.25    5.96
  -2   1  10    5.42    5.80
   2  -1 -10   -2.11    4.06
   2   1 -10    1.95    4.99
  -2  -1   9   81.84   10.46
  -2   1   9   69.37    9.38
   2  -1  -9   69.15    8.13
   2   1  -9   77.28    8.94
  -2  -1   8  102.38    9.27
  -2   1   8   98.91    8.78
   2  -1  -8   98.74    8.35
   2   1  -8   88.18    8.45
  -2  -1   7    1.95    3.74
  -2  -1   7    2.06    2.28
  -2   1   7    0.81    3.14
  -2   1   7    4.82    2.28
   2  -1  -7    5.42    3.79
   2   1  -7    0.98    3.31
  -2  -1   6    6.34    3.47
  -2  -1   6    8.40    2.06
  -2   1   6    8.51    3.36
  -2   1   6   10.62    2.60
   2  -1  -6    6.18    3.58
   2  -1  -6    5.69    3.14
   2   1  -6    7.53    3.58
   2   1  -6    6.18    3.09
  -2  -1   5  470.42   12.41
  -2  -1   5  457.14    8.83
  -2   1   5  460.77   11.54
  -2   1   5  467.71   10.13
   2  -1  -5  463.97   12.19
   2  -1  -5  475.78   12.57
   2   1  -5  441.91   12.57
   2   1  -5  469.23   12.52
  -2  -1   4   11.76    3.47
  -2  -1   4   15.34    2.49
  -2   1   4   10.51    2.60
  -2   1   4   10.24    2.38
   2  -1  -4    8.45    2.87
   2  -1  -4   11.92    3.20
   2   1  -4   11.60    3.25
   2   1  -4   16.20    3.47
  -2  -1   3  171.91    6.02
  -2  -1   3  180.53    5.80
  -2   1   3  175.49    5.26
  -2   1   3  171.91    5.96
   2  -1  -3  172.23    6.29
   2  -1  -3  161.34    6.29
   2   1  -3  174.35    6.50
   2   1  -3  174.51    6.40
  -2  -1   2 1764.29   15.50
  -2  -1   2 1839.46   16.85
  -2   1   2 1833.01   10.78
  -2   1   2 1747.92   16.91
   2  -1  -2 1757.46   16.53
   2  -1  -2 1751.50   16.64
   2   1  -2 1790.68   16.96
   2   1  -2 1760.39   15.99
  -2  -1   1  130.61    4.44
  -2  -1   1  128.28    4.99
  -2   1   1  146.55    5.15
  -2   1   1  139.01    5.15
   2  -1  -1  144.65    5.09
   2  -1  -1  134.13    4.55
   2   1  -1  129.58    4.66
   2   1  -1  128.12    3.79
  -2  -1   0  786.22   10.19
  -2  -1   0  765.57   10.35
  -2  -1   0  776.84   11.06
  -2   1   0  797.82   11.65
  -2   1   0  793.80   10.57
   2  -1   0  812.94    7.53
   2  -1   0  806.87    9.21
   2  -1   0  781.29    9.00
   2   1   0  795.05   10.19
   2   1   0  774.35    5.42
  -2  -1  -1  491.12    8.83
  -2  -1  -1  495.40    9.70
  -2  -1  -1  488.95    8.94
  -2   1  -1  495.73   10.24
  -2   1  -1  499.63    8.18
   2  -1   1  518.27    8.56
   2  -1   1  501.85    7.64
   2  -1   1  491.61    7.53
   2   1   1  500.17    9.10
   2   1   1  507.87    3.85
  -2  -1  -2  286.10    7.80
  -2  -1  -2  289.35    8.89
  -2  -1  -2  287.51    7.15
  -2   1  -2  281.44    8.83
  -2   1  -2  283.99    6.02
   2  -1   2  295.04    8.08
   2  -1   2  285.39    6.72
   2   1   2  286.97    8.62
   2   1   2  286.04    7.15
   2   1   2  274.07    4.93
  -2  -1  -3   34.58    3.85
  -2  -1  -3   38.86    4.61
  -2   1  -3   34.41    4.61
  -2   1  -3   36.15    2.44
   2  -1   3   39.78    4.34
   2  -1   3   39.51    3.58
   2   1   3   41.84    4.61
   2   1   3   36.53    3.31
   2   1   3   37.77    2.93
  -2  -1  -4   -0.16    2.33
  -2   1  -4   -0.33    2.38
   2  -1   4    0.76    2.71
   2  -1   4    0.81    0.92
   2  -1   4    0.00    1.79
   2   1   4    0.27    2.66
   2   1   4    1.14    1.63
   2   1   4   -2.11    1.46
  -2  -1  -5   26.18    4.82
  -2   1  -5   24.60    5.04
   2  -1   5   25.80    5.31
   2   1   5   29.16    5.47
   2   1   5   26.88    3.14
   2   1   5   25.58    3.74
  -2  -1  -6   39.67    6.23
  -2   1  -6   46.45    7.21
   2  -1   6   47.37    7.75
   2   1   6   42.00    7.05
  -2  -1  -7    4.77    4.23
  -2   1  -7   -4.50    3.52
   2  -1   7    8.56    5.47
   2   1   7    1.30    4.55
  -2  -1  -8    7.97    5.04
  -2   1  -8    8.51    5.47
   2  -1   8   19.62    7.75
   2   1   8   16.64    6.61
  -2  -1  -9    2.76    5.15
  -2   1  -9   -1.90    5.42
   2  -1   9   -5.04    5.80
   2   1   9   -0.54    5.80
  -2   1 -10   -0.98    5.74
   2  -1  10    1.46    6.88
   2   1  10   -2.66   10.62
  -2   2  12   -5.37    6.99
  -2  -2  11    0.81    6.45
  -2   2  11   -3.63    5.37
   2  -2 -11    0.33    5.26
   2   2 -11   -5.58    4.93
  -2  -2  10    2.01    5.85
  -2   2  10    2.82    5.42
   2  -2 -10    6.99    4.82
   2   2 -10   -3.52    4.44
  -2  -2   9    3.47    5.69
  -2   2   9   -1.25    4.01
   2  -2  -9    0.11    3.58
   2   2  -9    1.08    4.28
  -2  -2   8   -3.74    4.55
  -2   2   8   -2.55    3.31
   2  -2  -8   -6.56    3.47
   2   2  -8    2.01    4.01
  -2  -2   7   29.48    6.29
  -2   2   7   34.74    5.91
  -2   2   7   35.34    4.55
   2  -2  -7   31.27    5.85
   2   2  -7   32.52    6.23
  -2  -2   6   21.62    5.09
  -2  -2   6   18.75    2.71
  -2   2   6   20.87    4.28
  -2   2   6   17.56    3.36
   2  -2  -6   16.64    4.17
   2  -2  -6   15.45    4.06
   2   2  -6   15.39    4.39
   2   2  -6   17.99    2.71
   2   2  -6   13.71    3.96
  -2  -2   5  209.30    9.05
  -2  -2   5  221.06    6.61
  -2   2   5  215.48    8.18
  -2   2   5  220.41    7.97
   2  -2  -5  229.57    8.62
   2  -2  -5  211.15    9.00
   2   2  -5  216.84    9.27
   2   2  -5  223.34    9.27
  -2  -2   4  551.87   13.44
  -2  -2   4  525.37    9.97
  -2   2   4  553.99   11.06
  -2   2   4  517.95   11.44
   2  -2  -4  570.57   12.09
   2  -2  -4  544.56   12.68
   2   2  -4  532.04   13.06
   2   2  -4  545.86   12.68
  -2  -2   3   14.96    3.31
  -2  -2   3   14.47    2.82
  -2   2   3   14.96    2.44
  -2   2   3   11.33    2.76
   2  -2  -3   12.41    2.76
   2  -2  -3   11.00    2.33
   2  -2  -3    9.76    2.76
   2   2  -3   10.78    2.93
   2   2  -3   11.22    2.76
  -2  -2   2  149.25    5.80
  -2  -2   2  150.45    5.74
  -2   2   2  152.34    3.79
  -2   2   2  138.90    5.85
   2  -2  -2  145.52    5.20
   2  -2  -2  148.12    3.79
   2  -2  -2  147.57    5.96
   2   2  -2  146.38    5.58
   2   2  -2  148.88    5.85
   2   2  -2  145.14    5.47
  -2  -2   1   83.41    4.50
  -2  -2   1   89.53    4.77
  -2  -2   1   90.18    3.74
  -2   2   1   88.94    4.39
  -2   2   1   90.94    2.49
  -2   2   1   83.84    4.66
   2  -2  -1   87.42    4.34
   2  -2  -1   92.02    2.44
   2  -2  -1   85.52    4.44
   2   2  -1   87.15    3.74
   2   2  -1   88.12    4.77
   2   2  -1   85.68    3.85
  -2  -2   0  388.91    8.83
  -2  -2   0  392.49    9.05
  -2   2   0  395.14    8.89
  -2   2   0  393.89    8.40
   2  -2   0  413.95    6.18
   2  -2   0  389.23    8.29
   2  -2   0  389.07    8.18
   2   2   0  387.55    6.83
   2   2   0  393.62    9.05
   2   2   0  393.79    6.18
   2   2   0  389.50    6.23
  -2  -2  -1    0.43    1.57
  -2  -2  -1   -0.49    2.11
  -2  -2  -1    0.33    2.06
  -2   2  -1   -0.81    2.11
  -2   2  -1    2.76    1.79
  -2   2  -1    2.11    1.73
   2  -2   1    0.87    1.73
   2  -2   1    0.87    1.79
   2  -2   1    0.16    1.73
   2   2   1   -0.70    2.01
   2   2   1    0.16    1.03
   2   2   1    0.22    1.03
  -2  -2  -2  150.50    5.47
  -2  -2  -2  148.44    7.05
  -2   2  -2  143.08    7.05
  -2   2  -2  137.01    4.82
   2  -2   2  160.31    6.67
   2  -2   2  161.77    6.29
   2  -2   2  146.55    5.91
   2   2   2  154.67    6.23
   2   2   2  155.43    4.44
  -2  -2  -3  893.36   14.25
  -2  -2  -3  880.30   17.40
  -2   2  -3  853.04   17.23
  -2   2  -3  872.23   10.08
   2  -2   3  874.45   16.10
   2  -2   3  872.23   14.74
   2   2   3  886.86   17.45
   2   2   3  896.67   14.31
   2   2   3  929.24   12.03
  -2  -2  -4    0.92    2.22
  -2  -2  -4    3.36    3.25
  -2   2  -4    4.55    3.03
  -2   2  -4    1.35    0.98
   2  -2   4    3.03    2.93
   2  -2   4    0.76    2.11
   2   2   4    3.36    2.98
   2   2   4    2.71    1.95
   2   2   4    3.52    1.90
  -2  -2  -5    6.56    3.36
  -2  -2  -5    5.91    4.06
  -2   2  -5    3.90    3.52
   2  -2   5    2.87    3.74
   2   2   5    8.78    4.06
   2   2   5    4.39    2.49
   2   2   5    2.33    3.85
  -2  -2  -6   60.16    6.56
  -2   2  -6   57.18    7.97
   2  -2   6   48.13    7.53
   2   2   6   58.96    8.13
  -2  -2  -7   20.65    5.04
  -2   2  -7   30.78    6.88
   2  -2   7   33.11    7.32
   2   2   7   27.96    6.94
  -2  -2  -8    3.58    4.01
  -2   2  -8    0.05    4.82
   2  -2   8    3.14    6.45
   2   2   8    7.64    5.64
  -2   2  -9    1.73    5.96
   2  -2   9    2.11    7.32
   2   2   9    4.93    6.34
  -2   2 -10    5.09    6.40
  -2  -3  11    0.92    6.72
  -2   3  11   -3.14    5.69
   2   3 -11    2.98    6.07
  -2  -3  10    6.40    6.99
  -2   3  10    2.71    5.04
   2   3 -10    4.82    5.74
  -2  -3   9   51.11    9.05
  -2   3   9   50.67    8.35
   2  -3  -9   50.13    7.37
   2   3  -9   44.01    8.18
  -2  -3   8   16.91    6.40
  -2   3   8   14.96    5.09
  -2   3   8   16.37    3.96
   2  -3  -8   13.17    4.44
   2   3  -8   13.60    5.47
  -2  -3   7   69.64    8.13
  -2   3   7   70.29    6.94
  -2   3   7   75.93    6.18
   2  -3  -7   65.96    6.94
   2   3  -7   73.92    7.80
  -2  -3   6   11.27    4.50
  -2   3   6   13.87    4.06
  -2   3   6   14.20    3.36
   2  -3  -6   15.83    3.85
   2   3  -6   17.34    4.55
   2   3  -6   13.98    2.71
   2   3  -6   15.93    4.39
  -2  -3   5   22.33    4.82
  -2  -3   5   19.89    3.14
  -2   3   5   23.63    4.17
  -2   3   5   26.56    4.23
   2  -3  -5   24.88    3.96
   2  -3  -5   22.76    4.01
   2  -3  -5   23.47    4.39
   2   3  -5   23.58    4.50
   2   3  -5   21.08    3.09
   2   3  -5   26.66    4.77
  -2  -3   4  749.15   15.93
  -2  -3   4  733.54   12.79
  -2   3   4  736.95   13.28
  -2   3   4  726.39   14.74
   2  -3  -4  746.93   13.01
   2  -3  -4  709.26   13.06
   2  -3  -4  739.83   15.45
   2   3  -4  728.77   15.12
   2   3  -4  757.76   13.01
   2   3  -4  741.51   15.72
  -2  -3   3   71.00    6.77
  -2  -3   3   70.94    4.66
  -2   3   3   43.79    3.96
  -2   3   3   65.58    5.80
   2  -3  -3   78.10    4.93
   2  -3  -3   64.66    4.01
   2  -3  -3   64.28    5.47
   2   3  -3   65.25    5.20
   2   3  -3   61.08    4.72
   2   3  -3   65.85    5.09
  -2  -3   2   51.05    4.61
  -2  -3   2   45.96    4.28
  -2  -3   2   52.08    4.12
  -2   3   2   49.05    4.55
   2  -3  -2   50.35    3.52
   2  -3  -2   45.80    3.09
   2  -3  -2   53.82    4.61
   2   3  -2   45.85    3.63
   2   3  -2   48.56    4.23
   2   3  -2   46.50    4.06
  -2  -3   1  712.08   13.17
  -2  -3   1  719.34   13.28
  -2  -3   1  720.91   11.33
  -2   3   1  714.41   11.60
  -2   3   1  696.41   12.95
   2  -3  -1  754.68   11.92
   2  -3  -1  739.50    9.10
   2  -3  -1  715.33   13.12
   2   3  -1  730.45   10.13
   2   3  -1  740.69   13.44
   2   3  -1  710.02   11.54
  -2  -3   0   44.17    4.34
  -2  -3   0   40.10    4.28
  -2   3   0   34.63    3.96
  -2   3   0   33.11    4.12
  -2   3   0   42.76    3.96
   2  -3   0   46.50    3.20
   2  -3   0   37.77    4.39
   2  -3   0   36.09    4.12
   2   3   0   37.56    2.60
   2   3   0   39.29    4.23
   2   3   0   36.15    3.25
   2   3   0   42.44    3.31
  -2  -3  -1   69.70    3.20
  -2  -3  -1   67.26    5.26
  -2   3  -1   66.71    5.31
  -2   3  -1   40.32    4.44
  -2   3  -1   70.24    4.82
   2  -3   1   71.27    4.44
   2  -3   1   67.20    4.88
   2  -3   1   63.41    4.88
   2   3   1   68.18    3.20
   2   3   1   67.53    5.04
   2   3   1   65.79    3.69
   2   3   1   63.68    3.69
  -2  -3  -2  189.09    5.42
  -2  -3  -2  195.65    8.45
  -2   3  -2  190.66    8.45
  -2   3  -2  176.24    6.12
  -2   3  -2  189.52    7.37
   2  -3   2  183.07    7.21
   2  -3   2  197.71    7.75
   2  -3   2  184.21    7.48
   2   3   2  186.60    7.53
   2   3   2  197.76    5.96
  -2  -3  -3  129.47    5.42
  -2  -3  -3  121.24    7.59
  -2   3  -3  130.45    7.64
  -2   3  -3  128.23    4.88
  -2   3  -3  137.12    6.72
   2  -3   3  118.74    6.77
   2  -3   3  127.52    6.67
   2  -3   3  127.31    6.88
   2   3   3  113.11    7.26
   2   3   3  123.02    6.61
   2   3   3  130.77    5.47
  -2  -3  -4   55.88    4.66
  -2  -3  -4   60.05    6.40
  -2   3  -4   60.64    6.45
  -2   3  -4   60.10    3.58
   2  -3   4   51.65    5.85
   2  -3   4   58.91    5.69
   2   3   4   57.34    6.29
   2   3   4   69.32    5.53
   2   3   4   57.28    4.50
  -2  -3  -5    2.60    2.55
  -2  -3  -5    3.25    3.85
  -2   3  -5    0.92    3.58
   2  -3   5   -0.76    3.58
   2   3   5    1.68    3.74
   2   3   5    3.47    2.87
  -2  -3  -6    1.41    2.98
  -2  -3  -6    2.11    4.34
  -2   3  -6   -0.05    4.06
   2  -3   6   -2.76    4.12
   2   3   6    2.28    4.34
  -2   3  -7    1.73    4.99
   2  -3   7    2.76    4.93
   2   3   7   -0.22    4.44
  -2   3  -8    4.88    5.74
   2   3   8   -0.27    4.99
  -2   3  -9   -1.90    5.04
   2  -3   9   -8.18    5.42
   2   3   9    1.84    6.12
  -2  -4  11    7.32    8.73
  -2   4  11   -4.99    5.85
   2   4 -11    4.77    6.34
  -2  -4  10   -0.70    6.50
  -2   4  10    4.50    5.20
   2   4 -10    2.44    5.42
  -2  -4   9    0.60    5.80
  -2   4   9   -1.90    3.90
   2   4  -9   -2.28    4.39
  -2  -4   8   35.71    8.29
  -2   4   8   44.22    7.32
  -2   4   8   38.97    5.85
   2   4  -8   39.24    7.37
  -2  -4   7   19.46    6.18
  -2   4   7   17.78    5.20
  -2   4   7   21.24    4.72
   2  -4  -7   12.95    4.06
   2   4  -7   15.50    5.20
  -2  -4   6    6.40    5.04
  -2   4   6   -1.52    2.66
  -2   4   6    0.60    3.20
   2  -4  -6   -6.77    2.60
   2  -4  -6    0.33    2.93
   2   4  -6   -0.16    3.14
   2   4  -6    0.81    2.06
   2   4  -6   -1.95    2.82
  -2  -4   5   24.12    5.69
  -2   4   5   26.01    4.34
  -2   4   5   26.88    4.82
   2  -4  -5   23.52    3.96
   2  -4  -5   24.28    4.44
   2  -4  -5   23.68    4.55
   2   4  -5   22.17    4.66
   2   4  -5   20.43    3.47
   2   4  -5   22.76    4.66
  -2  -4   4  266.26   10.57
  -2   4   4  260.30    8.78
  -2   4   4  249.90    9.86
   2  -4  -4  257.00    7.75
   2  -4  -4  251.96    8.73
   2  -4  -4  257.97   10.30
   2   4  -4  254.88    9.54
   2   4  -4  256.89    8.67
   2   4  -4  255.86   10.24
  -2  -4   3  281.87   10.30
  -2  -4   3  309.78   10.41
  -2   4   3  292.11   10.41
   2  -4  -3  289.19    7.70
   2  -4  -3  286.75    8.24
   2  -4  -3  294.93   10.30
   2   4  -3  283.93    9.00
   2   4  -3  290.49    9.43
   2   4  -3  302.41   10.35
  -2  -4   2  818.46   16.10
  -2  -4   2  836.94   15.12
  -2   4   2  819.82   12.30
  -2   4   2  794.56   15.93
   2  -4  -2  832.12   12.52
   2  -4  -2  824.64   12.30
   2  -4  -2  801.55   15.88
   2   4  -2  818.73   12.95
   2   4  -2  803.51   15.28
   2   4  -2  827.30   15.28
  -2  -4   1    3.74    2.87
  -2  -4   1    4.50    2.22
  -2   4   1    2.93    2.11
  -2   4   1    2.76    3.09
   2  -4  -1    3.03    2.17
   2  -4  -1    4.01    2.01
   2  -4  -1    1.90    2.44
   2   4  -1    7.21    2.11
   2   4  -1    5.53    2.87
   2   4  -1    5.42    2.49
  -2  -4   0  125.41    6.88
  -2   4   0  132.24    6.29
  -2   4   0  124.54    6.56
  -2   4   0  128.77    6.88
   2  -4   0  130.23    5.37
   2  -4   0  122.75    6.67
   2   4   0  129.20    3.85
   2   4   0  123.30    6.88
   2   4   0  117.88    5.64
   2   4   0  133.81    6.02
  -2  -4  -1   -1.30    2.38
  -2   4  -1    0.05    2.38
  -2   4  -1   -4.44    2.17
  -2   4  -1    0.98    2.44
   2  -4   1    2.93    2.49
   2  -4   1    1.25    2.49
   2   4   1   -0.60    1.08
   2   4   1   -0.81    2.28
   2   4   1    1.52    1.84
   2   4   1   -0.70    1.63
  -2  -4  -2  191.31    4.55
  -2  -4  -2  202.20    9.21
  -2   4  -2  193.86    8.67
  -2   4  -2  189.85    7.21
  -2   4  -2  197.49    8.51
   2  -4   2  187.79    7.91
   2  -4   2  188.44    8.56
   2   4   2  198.84    4.61
   2   4   2  204.16    8.78
   2   4   2  193.97    6.94
  -2  -4  -3    1.19    1.52
  -2  -4  -3    1.52    3.09
  -2   4  -3    0.65    2.93
  -2   4  -3   -2.71    1.68
   2  -4   3   -0.70    2.98
   2  -4   3    3.31    2.87
   2   4   3   -0.76    2.28
   2   4   3    1.14    1.90
  -2  -4  -4   17.40    3.03
  -2  -4  -4   22.06    5.20
  -2   4  -4   14.63    4.50
   2  -4   4   14.90    4.39
   2  -4   4   23.79    4.77
   2   4   4   13.87    4.50
   2   4   4   15.34    4.01
  -2  -4  -5  153.05   10.89
  -2   4  -5  134.57   10.35
   2  -4   5  152.29   10.19
   2  -4   5  155.87    9.43
   2   4   5  159.39   10.51
   2   4   5  162.26    9.05
  -2  -4  -6   18.81    6.18
  -2   4  -6   19.89    6.18
   2  -4   6   20.54    6.18
   2  -4   6   22.22    5.47
   2   4   6   25.04    6.40
  -2   4  -7   -1.41    4.39
   2  -4   7   -2.17    5.42
   2  -4   7    1.30    4.12
   2   4   7    3.31    4.99
  -2   4  -8    6.45    6.50
   2  -4   8    8.35    6.50
   2  -4   8    7.53    5.20
   2   4   8   12.79    6.18
  -2   4  -9    6.07    6.34
   2  -4   9    0.38    6.88
   2  -4   9    1.52    5.15
   2   4   9    1.08    5.85
  -2   5  11   -0.33    6.18
  -2  -5  10    7.97    7.86
  -2   5  10    4.72    5.80
   2   5 -10   12.19    6.50
  -2  -5   9   -1.68    5.80
  -2   5   9    0.60    4.34
   2   5  -9   -2.87    4.88
  -2  -5   8    0.00    5.20
  -2   5   8    0.43    3.90
  -2   5   8    3.36    3.47
   2   5  -8    3.74    4.50
  -2  -5   7    4.88    5.37
  -2   5   7    6.45    4.44
  -2   5   7    5.04    3.96
   2  -5  -7    6.99    4.23
   2   5  -7    8.18    4.77
  -2  -5   6  131.05   11.81
  -2   5   6  118.09    8.45
  -2   5   6  121.34    9.05
   2  -5  -6  104.22    8.13
   2   5  -6  115.60    8.83
   2   5  -6  117.60    6.77
   2   5  -6  131.26   11.11
  -2  -5   5   23.30    5.74
  -2   5   5   18.64    4.28
  -2   5   5   19.08    4.72
   2  -5  -5   16.58    4.28
   2  -5  -5   16.48    4.23
   2   5  -5   19.62    4.55
   2   5  -5   15.34    3.58
   2   5  -5   20.43    5.04
  -2  -5   4   46.39    6.56
  -2  -5   4   51.43    6.56
  -2   5   4   42.65    6.02
   2  -5  -4   41.08    4.06
   2  -5  -4   48.67    5.04
   2  -5  -4   45.90    6.12
   2   5  -4   41.19    4.82
   2   5  -4   45.80    5.04
   2   5  -4   45.69    5.69
  -2  -5   3  107.69    7.42
  -2  -5   3  117.33    7.32
  -2   5   3  103.13    7.37
   2  -5  -3  110.18    5.09
   2  -5  -3  105.84    6.02
   2  -5  -3  110.72    7.53
   2   5  -3  118.96    6.45
   2   5  -3  109.10    6.72
   2   5  -3  102.92    7.26
  -2  -5   2  357.85   11.98
  -2  -5   2  405.71   11.98
  -2   5   2  388.37    9.00
  -2   5   2  363.44   12.09
   2  -5  -2  382.13    8.94
   2  -5  -2  365.55    9.65
   2  -5  -2  366.96   12.09
   2   5  -2  381.16    9.38
   2   5  -2  373.68   11.71
   2   5  -2  372.00   11.60
  -2  -5   1   14.09    3.85
  -2  -5   1   17.29    3.41
  -2   5   1   11.27    2.76
  -2   5   1   15.83    3.90
   2  -5  -1   16.80    3.09
   2  -5  -1   17.99    3.20
   2  -5  -1   13.01    3.63
   2   5  -1   15.77    2.38
   2   5  -1    7.86    3.31
   2   5  -1   10.19    3.09
  -2  -5   0    9.16    3.41
  -2  -5   0   11.54    3.09
  -2   5   0   12.19    2.87
  -2   5   0   11.65    3.58
  -2   5   0   12.79    3.69
   2  -5   0   16.64    3.20
   2  -5   0   10.19    3.41
   2   5   0   12.36    1.57
   2   5   0   10.62    3.41
   2   5   0    8.78    2.82
   2   5   0   10.19    2.93
  -2  -5  -1   35.28    5.42
  -2   5  -1   28.18    4.39
  -2   5  -1   33.17    4.88
  -2   5  -1   35.39    5.15
   2  -5   1   39.73    4.34
   2  -5   1   29.81    4.82
   2   5   1   28.18    4.82
   2   5   1   23.95    3.69
   2   5   1   29.27    4.12
  -2  -5  -2   51.76    6.18
  -2   5  -2   55.23    5.58
  -2   5  -2   47.69    5.15
   2  -5   2   47.37    5.42
   2  -5   2   51.27    6.02
   2   5   2   59.83    6.12
   2   5   2   46.17    4.66
  -2  -5  -3  207.79   10.84
  -2   5  -3  206.49   10.24
  -2   5  -3  200.96    8.13
   2  -5   3  215.05   10.08
   2  -5   3  222.31   10.73
   2   5   3  213.75   10.24
  -2  -5  -4  183.13   11.06
  -2   5  -4  191.69   11.16
   2  -5   4  166.71   10.78
   2  -5   4  171.37   10.24
   2   5   4  180.85   10.35
  -2  -5  -5   60.27    8.78
  -2   5  -5   60.21    8.40
   2  -5   5   66.06    8.51
   2  -5   5   67.91    7.91
   2   5   5   58.86    8.29
   2   5   5   61.73    7.42
  -2  -5  -6    5.69    5.26
  -2   5  -6    8.51    5.15
   2  -5   6    1.68    5.42
   2  -5   6   10.19    4.93
   2   5   6    5.74    4.82
   2   5   6    6.40    4.12
  -2  -5  -7    2.49    5.42
  -2   5  -7    3.20    5.37
   2  -5   7   -7.05    5.47
   2  -5   7    1.79    4.55
   2   5   7   -2.11    4.28
  -2   5  -8    8.73    6.12
   2  -5   8   -4.17    6.23
   2  -5   8    5.42    5.15
   2   5   8    3.14    5.31
   2  -5   9   -8.78    5.53
   2  -5   9   -2.17    4.72
  -2   6  11    1.63    5.96
  -2  -6  10    9.43    9.05
  -2   6  10   -3.58    5.31
   2   6 -10   -6.50    4.50
  -2  -6   9   13.93    8.08
  -2   6   9    4.50    5.09
   2   6  -9    2.06    5.64
  -2  -6   8    7.91    7.32
  -2   6   8   12.84    5.64
  -2   6   8    6.61    4.66
   2   6  -8   10.73    5.58
  -2  -6   7   39.89    8.13
  -2   6   7   52.90    7.70
  -2   6   7   54.20    8.08
   2  -6  -7   43.52    7.10
   2   6  -7   50.62    8.08
  -2  -6   6   -1.35    5.26
  -2   6   6    5.58    4.06
  -2   6   6    1.63    4.01
   2  -6  -6   -2.01    3.58
   2   6  -6   -3.79    3.20
  -2  -6   5   12.57    5.64
  -2   6   5   12.79    4.44
  -2   6   5   14.52    5.53
   2  -6  -5   18.26    4.61
   2   6  -5   15.72    4.50
   2   6  -5   17.94    4.34
   2   6  -5   15.34    4.82
  -2  -6   4   15.34    4.93
  -2   6   4   13.28    4.72
   2  -6  -4   16.85    4.28
   2   6  -4   16.75    4.34
   2   6  -4   14.80    4.17
   2   6  -4   13.55    4.55
  -2  -6   3  108.39    8.08
  -2   6   3  103.46    8.24
   2  -6  -3  105.84    5.20
   2  -6  -3  111.32    6.94
   2  -6  -3  100.64    8.08
   2   6  -3  103.73    6.40
   2   6  -3  106.06    7.70
   2   6  -3  105.84    8.08
  -2  -6   2   28.02    5.26
  -2   6   2   24.82    5.15
   2  -6  -2   30.24    3.41
   2  -6  -2   31.60    4.44
   2  -6  -2   20.49    4.82
   2   6  -2   30.30    3.74
   2   6  -2   25.20    4.77
   2   6  -2   32.35    5.26
  -2  -6   1   21.35    4.72
  -2   6   1   15.50    3.20
  -2   6   1   19.24    4.66
   2  -6  -1   21.35    3.52
   2  -6  -1   18.86    3.85
   2  -6  -1   22.11    4.93
   2   6  -1   25.36    2.93
   2   6  -1   25.74    4.93
   2   6  -1   20.32    4.28
  -2  -6   0   18.86    4.72
  -2   6   0   22.76    4.01
  -2   6   0   18.97    4.61
  -2   6   0   20.32    4.61
   2  -6   0   21.90    3.90
   2  -6   0   19.08    4.50
   2   6   0   20.54    4.72
   2   6   0   20.76    4.01
  -2  -6  -1   23.14    5.20
  -2   6  -1   20.27    4.12
  -2   6  -1   23.30    4.77
  -2   6  -1   17.02    5.64
   2  -6   1   24.17    4.28
   2  -6   1   20.11    4.82
   2   6   1   22.76    5.09
   2   6   1   20.87    4.01
  -2  -6  -2   96.47    8.24
  -2   6  -2   96.31    7.59
  -2   6  -2   92.24    7.32
   2  -6   2  108.93    7.48
   2  -6   2   96.31    7.86
   2   6   2   98.80    8.18
  -2  -6  -3   20.22    5.64
  -2   6  -3   19.46    5.20
  -2   6  -3   11.60    3.90
   2  -6   3    8.73    4.77
   2  -6   3   18.32    5.26
   2   6   3   19.73    5.85
  -2  -6  -4    5.47    4.66
  -2   6  -4    4.01    4.17
   2  -6   4    3.52    4.93
   2  -6   4   10.24    4.50
   2   6   4   14.58    5.47
  -2  -6  -5   10.68    5.47
  -2   6  -5    7.97    5.42
   2  -6   5    6.94    5.20
   2  -6   5    2.28    4.50
   2   6   5    8.73    5.04
   2   6   5    1.63    4.34
  -2  -6  -6    0.81    5.53
  -2   6  -6    0.22    4.72
   2  -6   6   -0.87    5.96
   2  -6   6   -2.44    4.06
   2   6   6   -3.52    4.06
   2   6   6   -4.93    3.90
  -2  -6  -7   -1.41    5.31
  -2   6  -7   -0.05    4.99
   2  -6   7    2.66    6.34
   2  -6   7    9.92    5.64
   2   6   7    7.80    5.85
  -2  -6  -8    6.67    6.77
  -2   6  -8    5.64    6.94
   2  -6   8   -6.23    6.83
   2  -6   8   -2.60    4.66
   2   6   8    0.87    6.18
  -2   7  10    1.30    5.53
  -2  -7   9    3.41    7.37
  -2   7   9    0.33    4.99
   2   7  -9    1.35    4.88
  -2  -7   8    1.03    5.74
  -2   7   8    0.16    4.06
  -2   7   8    3.41    4.82
   2  -7  -8    2.22    5.04
   2   7  -8    0.54    4.44
  -2  -7   7    1.63    5.58
  -2   7   7    2.98    4.17
  -2   7   7    5.96    5.04
   2  -7  -7    1.19    4.50
   2   7  -7    2.01    4.23
  -2  -7   6    2.49    4.72
  -2   7   6    1.19    3.85
  -2   7   6   -1.79    4.06
   2  -7  -6   -0.70    4.01
   2   7  -6   -0.65    4.12
  -2  -7   5    8.94    5.37
  -2   7   5    8.08    3.96
  -2   7   5    5.26    4.66
   2  -7  -5    4.23    4.17
   2   7  -5   10.62    4.44
   2   7  -5   11.98    4.28
   2   7  -5    7.75    4.50
  -2  -7   4    7.42    4.50
  -2   7   4    8.67    4.88
   2  -7  -4    9.16    4.12
   2   7  -4    9.10    3.74
   2   7  -4    9.81    4.06
   2   7  -4    5.37    4.06
  -2  -7   3   63.57    7.64
  -2   7   3   73.98    8.89
   2  -7  -3   65.47    6.23
   2   7  -3   83.41    6.34
   2   7  -3   66.99    7.21
   2   7  -3   73.65    7.86
  -2  -7   2    6.18    4.12
  -2   7   2    5.47    4.61
   2  -7  -2    5.53    3.47
   2   7  -2    4.82    2.49
   2   7  -2    1.08    3.41
   2   7  -2    3.03    3.41
  -2  -7   1   22.71    5.47
  -2   7   1   26.94    4.06
  -2   7   1   23.41    5.58
   2  -7  -1   23.85    4.01
   2  -7  -1   28.13    4.93
   2  -7  -1   31.92    6.07
   2   7  -1   23.79    5.42
   2   7  -1   18.81    4.82
  -2  -7   0  189.74   10.84
  -2   7   0  194.45    8.51
  -2   7   0  190.61   11.11
   2  -7   0  204.86    9.54
   2  -7   0  199.01   11.27
   2   7   0  204.05   11.49
   2   7   0  186.65   10.03
  -2  -7  -1    8.02    4.50
  -2   7  -1    5.58    3.14
  -2   7  -1    5.85    4.88
   2  -7   1    9.70    4.12
   2  -7   1    9.10    4.61
   2   7   1   11.38    4.99
   2   7   1    7.15    3.58
  -2  -7  -2   26.39    6.29
  -2   7  -2   30.46    5.69
  -2   7  -2   32.14    6.12
   2  -7   2   42.33    6.34
   2  -7   2   31.43    6.34
   2   7   2   25.31    6.02
  -2  -7  -3  208.06   12.52
  -2   7  -3  218.14   11.92
  -2   7  -3  216.84   10.84
   2  -7   3  241.23   11.98
   2  -7   3  214.13   12.36
   2   7   3  218.41   12.52
  -2  -7  -4    8.02    5.15
  -2   7  -4    6.40    4.44
   2  -7   4    5.09    4.66
   2  -7   4    9.48    4.93
   2   7   4    6.67    4.99
  -2  -7  -5   11.87    6.34
  -2   7  -5    8.73    5.09
   2  -7   5   19.67    6.72
   2  -7   5   20.49    6.50
   2   7   5    8.56    5.37
   2   7   5   10.46    5.69
  -2  -7  -6    4.01    5.53
  -2   7  -6    3.03    5.69
   2  -7   6   -2.44    5.64
   2  -7   6    7.21    5.47
   2   7   6    5.47    5.09
   2   7   6   -1.35    4.17
  -2  -7  -7   -0.27    5.74
  -2   7  -7    2.01    5.31
   2  -7   7   -0.05    5.91
   2  -7   7    1.14    5.42
   2   7   7   -0.54    4.93
   2  -7   8   -1.08    6.56
   2  -7   8    3.20    5.64
   2   8  -9    0.49    5.64
  -2  -8   8   13.28    7.32
  -2   8   8    6.99    5.26
  -2   8   8   15.83    6.23
   2  -8  -8    5.58    5.64
   2   8  -8   10.03    5.47
  -2  -8   7   23.30    7.15
  -2   8   7    7.26    4.82
  -2   8   7   10.19    6.56
   2  -8  -7    7.59    5.58
   2   8  -7   12.41    6.02
  -2  -8   6    6.56    5.37
  -2   8   6    7.59    4.93
  -2   8   6    7.37    5.64
   2  -8  -6    9.38    5.26
   2   8  -6    1.84    4.50
  -2  -8   5   10.57    5.80
  -2   8   5   11.44    5.58
   2  -8  -5   18.10    5.58
   2   8  -5   11.76    4.88
   2   8  -5    2.93    4.34
  -2  -8   4    1.30    4.77
  -2   8   4    3.96    5.15
   2  -8  -4   -0.27    3.85
   2   8  -4    1.90    3.58
   2   8  -4    0.43    3.63
   2   8  -4   -0.38    3.74
  -2  -8   3   38.59    7.26
  -2   8   3   31.81    7.26
   2  -8  -3   40.10    6.61
   2   8  -3   36.15    6.61
   2   8  -3   33.60    6.88
  -2  -8   2   52.24    7.97
  -2   8   2   39.67    7.48
   2  -8  -2   60.05    6.94
   2   8  -2   42.65    7.53
   2   8  -2   35.44    6.61
  -2  -8   1   33.76    6.77
  -2   8   1   29.37    6.94
   2  -8  -1   30.02    5.69
   2   8  -1   27.53    6.40
   2   8  -1   31.05    6.34
  -2  -8   0   40.00    7.26
  -2   8   0   36.64    7.10
   2  -8   0   45.31    6.77
   2   8   0   42.16    7.42
   2   8   0   38.05    6.34
  -2  -8  -1   36.74    7.42
  -2   8  -1   39.18    5.74
  -2   8  -1   39.83    7.53
   2  -8   1   42.11    6.72
   2  -8   1   50.29   12.52
   2   8   1   44.39    7.86
   2   8   1   47.96    7.10
  -2  -8  -2   92.84    9.65
  -2   8  -2   92.51    8.18
  -2   8  -2  101.73    9.05
   2  -8   2   96.47    8.56
   2  -8   2   97.77   10.13
   2   8   2   97.71    9.97
  -2  -8  -3    1.90    4.50
  -2   8  -3    4.34    3.96
  -2   8  -3    3.74    4.88
   2  -8   3   10.89    4.66
   2  -8   3    1.52    4.34
   2   8   3   -1.84    4.28
  -2  -8  -4    7.42    5.47
  -2   8  -4    2.98    4.28
   2  -8   4    5.64    4.17
   2  -8   4    3.52    4.55
   2   8   4   -2.76    4.61
  -2  -8  -5    3.58    5.64
  -2   8  -5    7.64    5.09
   2  -8   5   11.27    5.09
   2  -8   5    9.05    5.64
   2   8   5   17.07    6.72
   2   8   5   -2.11    5.20
  -2  -8  -6   13.01    7.15
  -2   8  -6    2.71    5.31
   2  -8   6   19.73    6.99
   2  -8   6    7.10    5.80
   2   8   6    7.53    5.53
   2   8   6    5.80    5.47
  -2  -8  -7    4.88    7.26
  -2   8  -7   12.03    6.50
   2  -8   7    9.05    6.40
   2  -8   7   13.87   11.06
   2   8   7   12.52    7.53
  -2   9   8    9.16    6.50
   2   9  -8    6.34    5.85
  -2  -9   7   20.49    6.99
  -2   9   7   22.82    7.97
   2   9  -7   17.94    6.45
  -2  -9   6   11.60    5.96
  -2   9   6   10.51    6.45
   2  -9  -6    2.87    5.31
  -2  -9   5    0.22    4.34
  -2   9   5   -2.11    5.26
   2  -9  -5   -2.71    4.01
   2   9  -5    0.98    5.26
  -2  -9   4    6.12    5.04
  -2   9   4    6.72    6.77
   2  -9  -4    2.71    4.39
   2   9  -4    6.67    5.69
  -2  -9   3    4.66    4.66
  -2   9   3   -0.27    5.26
   2  -9  -3   -3.79    3.74
   2   9  -3   -5.20    3.69
   2   9  -3    0.76    4.34
  -2  -9   2    1.84    4.34
  -2   9   2    4.72    5.42
   2  -9  -2   -1.25    3.74
   2   9  -2   -1.03    4.17
   2   9  -2    1.08    4.12
  -2  -9   1  196.68   12.90
  -2   9   1  166.27   12.68
   2  -9  -1  190.71   11.16
   2   9  -1  172.07   12.52
   2   9  -1  197.60   12.68
  -2  -9   0    2.06    4.34
  -2   9   0   -0.43    5.31
   2  -9   0    4.28    4.23
   2   9   0    0.87    4.82
   2   9   0   -0.38    3.74
  -2  -9  -1    3.09    4.82
  -2   9  -1    8.35    5.53
   2  -9   1    4.06    4.23
   2   9   1   -2.06    4.77
   2   9   1    1.84    3.69
  -2  -9  -2   -4.50    4.72
  -2   9  -2   -5.31    5.37
   2  -9   2    7.75    4.61
   2   9   2   -0.49    4.93
  -2  -9  -3   -0.60    4.61
  -2   9  -3    0.43    4.28
   2  -9   3    6.67    4.50
   2   9   3    3.96    5.47
  -2  -9  -4    3.74    5.31
  -2   9  -4    2.93    4.99
   2  -9   4   13.28    5.37
   2   9   4   -3.79    4.88
  -2  -9  -5    0.05    5.64
  -2   9  -5    5.80    5.74
   2  -9   5    9.92    4.99
   2   9   5    2.76    4.93
   2   9   5   -3.41    5.09
  -2  -9  -6   -1.35    5.85
  -2   9  -6    1.25    5.64
   2   9   6   -3.90    4.50
   2   9   6   -5.64    4.99
   2  -9   7   16.20    8.89
  -2  10   7    8.83    7.75
  -2 -10   6    4.06    5.74
  -2  10   6    5.69    6.67
  -2 -10   5    7.80    5.26
  -2  10   5    2.06    6.40
  -2 -10   4    1.25    5.09
  -2  10   4    6.67    7.26
   2  10  -4    6.77    6.50
  -2 -10   3   13.06    6.07
  -2  10   3   14.42    7.59
   2  10  -3    9.16    6.56
  -2 -10   2    7.64    5.96
  -2  10   2    5.58    6.23
   2  10  -2   12.09    6.40
   2  10  -2    8.24    5.53
  -2 -10   1   13.87    6.50
  -2  10   1    8.02    6.29
   2  10  -1   12.74    6.45
   2  10  -1    9.70    5.42
  -2 -10   0    4.88    5.20
  -2  10   0    4.23    5.74
   2  10   0    4.55    5.64
   2  10   0   -0.33    4.39
  -2 -10  -1    6.18    5.69
  -2  10  -1    1.95    5.74
   2  10   1    0.00    6.07
  -2 -10  -2   -1.84    5.80
  -2  10  -2   -5.91    6.18
   2  10   2   -5.04    5.31
  -2 -10  -3    3.09    5.53
   2  10   3   -3.41    5.53
  -2 -10  -4    5.53    6.12
   2  10   4   -5.20    6.34
   2  10   5    4.88    7.42
  -2 -11   4    8.18    6.12
  -2  11   4    0.05    6.67
   2  11  -4   -4.23    6.29
  -2 -11   3   19.24    7.26
  -2  11   3   17.94    8.45
   2  11  -3   13.87    7.37
  -2 -11   2    0.54    5.09
  -2  11   2    0.27    7.32
   2  11  -2   -2.22    6.45
  -2 -11   1   -0.05    4.88
  -2  11   1    6.88    7.64
   2  11  -1   -6.67    6.23
   2  11  -1    4.17    5.37
  -2 -11   0   -1.73    4.82
  -2  11   0   -0.87    7.05
   2  11   0   -4.55    5.85
   2  11   0    1.90    4.93
  -2 -11  -1   16.31    6.94
  -2  11  -1   23.58    9.16
   2  11   1   12.25    7.59
  -2 -11  -2    7.70    6.56
   2  11   2   12.79    7.64
  -2 -11  -3    1.63    6.07
  -2  12  -1   -1.35    8.67
  -3   0  12    0.43    6.83
   3   0 -12   -1.84    6.07
  -3   0  11    7.15    6.83
   3   0 -11    1.41    5.42
  -3   0  10    2.82    6.12
   3   0 -10   -5.96    4.12
  -3   0   9   13.12    5.80
   3   0  -9   11.65    5.53
  -3   0   8    1.46    4.39
   3   0  -8   -7.64    3.63
  -3   0   7  298.40   11.71
  -3   0   7  313.63    9.43
   3   0  -7  319.32   12.68
   3   0  -7  311.35   12.47
  -3   0   6   -1.68    2.49
  -3   0   6    1.95    2.11
   3   0  -6    0.54    2.98
   3   0  -6   -1.19    2.60
  -3   0   5  282.90    9.10
  -3   0   5  274.01    8.62
   3   0  -5  293.79   10.62
   3   0  -5  278.78   10.13
  -3   0   4   -0.87    2.01
   3   0  -4    1.84    2.87
   3   0  -4   -0.54    2.22
  -3   0   3 3584.34   21.90
  -3   0   3 3487.55   27.75
   3   0  -3 3514.00   28.78
   3   0  -3 3396.99   26.72
  -3   0   2   -0.70    1.14
  -3   0   2   -1.90    1.95
   3   0  -2    2.01    2.17
   3   0  -2    0.22    1.63
  -3   0   1 1358.20   16.85
  -3   0   1 1361.02   11.49
  -3   0   1 1357.33   16.80
   3   0  -1 1329.75   16.69
   3   0  -1 1348.39   12.19
  -3   0   0    0.27    2.01
  -3   0   0   -0.16    1.57
  -3   0   0    1.08    1.90
   3   0   0   -1.95    2.11
   3   0   0    1.90    1.57
   3   0   0    0.11    0.92
  -3   0  -1  228.92    8.02
  -3   0  -1  230.06    7.05
  -3   0  -1  219.38    6.88
   3   0   1  216.73    6.77
   3   0   1  223.99    4.06
   3   0   1  217.98    3.96
  -3   0  -2    0.11    2.28
  -3   0  -2    1.25    2.22
  -3   0  -2   -3.25    1.35
   3   0   2    0.98    2.01
   3   0   2    0.11    1.08
  -3   0  -3   20.76    4.17
  -3   0  -3   22.33    2.98
   3   0   3   26.01    4.50
   3   0   3   26.45    3.14
   3   0   3   20.27    2.55
  -3   0  -4   -0.33    3.09
  -3   0  -4   -0.38    1.57
   3   0   4   -0.33    2.76
   3   0   4   -1.25    1.52
   3   0   4   -0.70    1.52
  -3   0  -5    5.09    4.06
   3   0   5    6.02    3.90
  -3   0  -6    4.66    4.12
   3   0   6   -2.17    3.69
  -3   0  -7   17.18    5.47
   3   0   7   18.43    6.72
  -3   0  -8    0.05    4.77
   3   0   8   -0.54    5.31
  -3   0  -9   -0.05    5.69
   3   0   9   -4.82    5.80
  -3   0 -10   -2.49    9.16
  -3  -1  12    2.55    7.48
  -3   1  12   -4.39    6.99
   3  -1 -12    0.70    5.74
   3   1 -12   -0.81    5.47
  -3  -1  11    8.62    7.97
  -3   1  11    8.78    7.53
   3  -1 -11    3.69    5.96
   3   1 -11   11.54    6.45
  -3  -1  10    1.25    5.80
  -3   1  10    9.27    6.83
   3  -1 -10    0.11    5.47
   3   1 -10   11.33    6.18
  -3  -1   9   26.88    7.21
  -3   1   9   39.18    7.86
   3  -1  -9   22.49    6.34
   3   1  -9   25.20    6.72
  -3  -1   8    2.33    4.66
  -3   1   8    5.15    4.17
  -3   1   8   -2.98    2.33
   3  -1  -8   -0.11    3.85
   3   1  -8   -2.82    3.74
  -3  -1   7   18.48    4.93
  -3  -1   7   18.10    3.25
  -3   1   7    9.65    3.96
  -3   1   7   22.60    3.90
   3  -1  -7   16.96    4.88
   3  -1  -7    9.65    4.06
   3   1  -7   12.03    4.61
   3   1  -7   17.56    4.50
  -3  -1   6   13.39    4.12
  -3  -1   6   11.16    2.76
  -3   1   6   11.06    3.63
  -3   1   6   13.71    3.25
   3  -1  -6   10.84    3.85
   3  -1  -6   14.25    4.06
   3   1  -6    9.00    3.79
   3   1  -6   13.98    3.90
  -3  -1   5    7.53    3.25
  -3  -1   5    1.03    2.06
  -3   1   5    3.58    2.60
  -3   1   5    3.85    2.44
   3  -1  -5    7.15    3.14
   3  -1  -5    3.03    2.71
   3   1  -5    4.17    2.82
   3   1  -5    3.96    3.03
  -3  -1   4   31.16    5.42
  -3  -1   4   20.70    3.41
  -3   1   4   14.90    3.25
   3  -1  -4   29.37    5.42
   3  -1  -4   17.99    3.58
   3   1  -4   30.40    5.31
   3   1  -4   23.36    3.85
  -3  -1   3  833.64   12.41
  -3  -1   3  833.20   13.87
  -3   1   3  877.10    9.48
  -3   1   3  842.04   14.31
   3  -1  -3  847.68   14.31
   3  -1  -3  863.18   14.25
   3   1  -3  863.12   14.80
   3   1  -3  823.34   13.39
  -3  -1   2 1153.45   13.39
  -3  -1   2 1145.75   15.99
  -3   1   2 1163.80    6.34
  -3   1   2 1163.74   16.26
   3  -1  -2 1131.23   15.88
   3  -1  -2 1211.17    6.45
   3  -1  -2 1132.96   14.52
   3   1  -2 1137.84   15.55
   3   1  -2 1150.68   13.49
  -3  -1   1   74.68    4.01
  -3  -1   1   77.01    4.88
  -3   1   1   72.08    4.82
  -3   1   1   71.59    4.61
   3  -1  -1   74.84    4.82
   3  -1  -1   76.58    2.01
   3  -1  -1   76.74    2.01
   3  -1  -1   76.31    3.90
   3   1  -1   74.74    4.39
   3   1  -1   74.74    3.20
  -3  -1   0  342.84    8.62
  -3  -1   0  338.51    8.08
  -3  -1   0  339.21    8.94
  -3   1   0  322.36    9.21
  -3   1   0  341.54    8.73
   3  -1   0  340.84    6.29
   3  -1   0  335.42    6.83
   3  -1   0  329.24    6.67
   3   1   0  335.90    8.51
   3   1   0  331.73    4.01
  -3  -1  -1   90.67    5.15
  -3  -1  -1   94.30    5.31
  -3  -1  -1   94.95    5.37
  -3   1  -1   94.25    5.91
  -3   1  -1   84.38    4.77
   3  -1   1   87.91    4.50
   3  -1   1   92.30    4.01
   3  -1   1   90.45    3.96
  -3  -1  -2    4.44    2.66
  -3  -1  -2    1.79    2.44
  -3  -1  -2    4.28    2.11
  -3   1  -2    3.20    2.76
  -3   1  -2    7.53    2.11
   3  -1   2    7.10    2.60
   3  -1   2    5.04    1.79
   3  -1   2    4.17    1.79
   3   1   2    1.79    2.44
   3   1   2    2.28    2.06
   3   1   2    4.61    1.08
  -3  -1  -3    3.14    2.66
  -3  -1  -3    4.23    2.98
  -3  -1  -3    5.64    2.28
  -3   1  -3    7.91    3.41
  -3   1  -3    5.09    1.90
   3  -1   3    6.72    2.82
   3  -1   3    5.37    2.06
   3   1   3    5.96    2.93
   3   1   3    6.61    2.38
   3   1   3    5.91    1.57
  -3  -1  -4   36.15    5.26
  -3   1  -4   32.95    5.53
   3  -1   4   41.62    6.07
   3  -1   4   41.41    3.20
   3  -1   4   35.28    4.01
   3   1   4   37.07    5.80
   3   1   4   37.67    3.96
   3   1   4   33.11    3.36
  -3  -1  -5   21.52    4.82
  -3   1  -5   13.71    5.26
   3  -1   5   13.44    5.04
   3   1   5   22.22    5.53
  -3  -1  -6   -0.81    3.58
  -3   1  -6    1.90    3.96
   3  -1   6   -3.52    3.79
   3   1   6    1.14    4.72
  -3  -1  -7    2.82    4.50
  -3   1  -7   -4.82    3.85
   3  -1   7   -2.06    5.15
   3   1   7   -1.08    4.23
  -3  -1  -8   12.79    5.37
  -3   1  -8    8.62    6.02
   3  -1   8    1.30    6.18
   3   1   8    6.18    5.74
  -3   1  -9    1.73    5.31
   3  -1   9   -2.49    6.77
   3   1   9   -3.69    6.50
  -3  -2  12    2.28    8.24
  -3   2  12   -6.94    5.64
   3   2 -12    6.07    6.45
  -3  -2  11   11.71    8.51
  -3   2  11   12.84    6.94
   3  -2 -11    6.02    6.12
   3   2 -11    3.69    5.80
  -3  -2  10   51.38   10.13
  -3   2  10   47.26    9.27
   3  -2 -10   39.29    7.70
   3   2 -10   49.86    9.21
  -3  -2   9    0.00    5.09
  -3   2   9    0.43    4.34
   3  -2  -9   -3.36    4.34
   3   2  -9   -1.63    4.01
  -3  -2   8   70.67    8.45
  -3   2   8   60.92    7.59
  -3   2   8   64.82    5.96
   3  -2  -8   62.11    7.59
   3   2  -8   65.96    8.67
  -3  -2   7   12.90    5.85
  -3  -2   7    6.94    2.49
  -3   2   7    5.09    3.79
  -3   2   7    7.26    3.14
   3  -2  -7    2.01    4.93
   3   2  -7    6.72    4.72
   3   2  -7    6.12    3.63
  -3  -2   6   23.25    5.53
  -3  -2   6   21.35    3.47
  -3   2   6   18.70    4.06
  -3   2   6   20.27    3.90
   3  -2  -6   16.69    4.61
   3  -2  -6   23.30    4.88
   3   2  -6   26.39    5.42
   3   2  -6   15.55    4.01
  -3  -2   5  535.62   13.60
  -3  -2   5  576.21   12.19
  -3   2   5  575.34   11.92
  -3   2   5  554.58   13.17
   3  -2  -5  561.47   13.33
   3  -2  -5  584.01   14.69
   3   2  -5  560.98   14.47
   3   2  -5  576.48   14.52
  -3  -2   4   95.38    6.12
  -3  -2   4   85.90    5.42
  -3   2   4   85.47    4.34
  -3   2   4   94.52    5.91
   3  -2  -4   92.30    5.96
   3  -2  -4   98.37    6.40
   3   2  -4   92.02    6.12
   3   2  -4   91.54    6.12
  -3  -2   3   26.01    4.39
  -3  -2   3   37.45    4.44
  -3   2   3   32.25    2.55
  -3   2   3   34.58    4.28
   3  -2  -3   35.23    4.01
   3  -2  -3   31.81    4.17
   3   2  -3   38.32    4.17
   3   2  -3   33.76    4.12
  -3  -2   2   69.48    4.77
  -3  -2   2   72.08    5.09
  -3   2   2   60.97    4.55
  -3   2   2   64.76    4.93
   3  -2  -2   60.43    4.55
   3  -2  -2   65.90    4.88
   3   2  -2   66.88    4.44
   3   2  -2   67.96    4.23
  -3  -2   1   12.41    2.82
  -3  -2   1   13.06    3.14
  -3   2   1   10.84    2.98
  -3   2   1   13.22    2.93
   3  -2  -1   10.95    2.93
   3  -2  -1   15.17    0.87
   3  -2  -1   13.17    0.87
   3  -2  -1   12.03    2.71
   3   2  -1   15.61    2.66
   3   2  -1   12.57    2.11
  -3  -2   0 2119.76   19.94
  -3  -2   0 2100.57   22.22
  -3  -2   0 2127.18   23.25
  -3   2   0 2103.06   23.58
  -3   2   0 2139.70   21.95
   3  -2   0 2114.82   14.74
   3  -2   0 2126.75   20.16
   3  -2   0 2070.11   19.67
   3   2   0 2094.01   19.78
   3   2   0 2111.25   23.14
   3   2   0 2079.65   13.22
  -3  -2  -1   27.91    3.47
  -3  -2  -1   34.52    4.50
  -3  -2  -1   32.30    4.12
  -3   2  -1   37.23    4.55
  -3   2  -1   35.93    3.69
   3  -2   1   41.51    3.85
   3  -2   1   31.87    3.41
   3  -2   1   34.74    3.52
   3   2   1   29.27    3.47
   3   2   1   29.81    3.90
   3   2   1   29.75    1.79
   3   2   1   29.48    1.79
  -3  -2  -2  270.17    8.51
  -3  -2  -2  280.95   10.03
  -3  -2  -2  274.83    8.89
  -3   2  -2  266.59   10.13
  -3   2  -2  271.30    7.64
   3  -2   2  277.81    8.67
   3  -2   2  277.81    8.18
   3  -2   2  253.85    7.80
   3   2   2  264.42    9.70
   3   2   2  278.19    9.00
   3   2   2  273.42    4.99
  -3  -2  -3  133.00    6.88
  -3  -2  -3  126.44    7.86
  -3   2  -3  137.66    8.29
  -3   2  -3  129.58    5.20
   3  -2   3  137.17    7.32
   3  -2   3  139.88    6.56
   3  -2   3  126.71    6.29
   3   2   3  138.04    8.29
   3   2   3  129.96    6.56
   3   2   3  124.22    4.44
  -3  -2  -4   73.87    5.85
  -3  -2  -4   87.69    7.53
  -3   2  -4   77.99    7.42
   3  -2   4   74.41    7.15
   3   2   4   73.11    7.05
   3   2   4   84.27    5.58
   3   2   4   80.21    4.55
  -3  -2  -5    1.57    2.87
  -3  -2  -5    2.66    4.01
  -3   2  -5   -0.33    3.58
   3  -2   5    2.01    3.85
   3   2   5   -1.19    3.47
  -3  -2  -6    5.47    3.96
  -3   2  -6   -1.35    4.72
   3  -2   6   10.35    5.37
   3   2   6   -1.08    4.17
  -3  -2  -7   -2.55    3.63
  -3   2  -7    2.22    4.77
   3  -2   7   -1.30    5.15
   3   2   7    1.79    4.72
  -3   2  -8   -3.36    4.44
   3  -2   8   -2.49    5.91
   3   2   8    3.03    5.47
  -3   2  -9    2.22    5.96
   3  -2   9   -7.91    7.21
   3   2   9    5.69    6.29
  -3   3  12   -8.24    5.69
  -3  -3  11   12.57    8.29
  -3   3  11   -4.39    5.04
   3   3 -11    5.04    6.23
  -3  -3  10   -0.81    5.96
  -3   3  10   -2.28    4.39
   3  -3 -10   -2.66    4.01
   3   3 -10    2.44    4.99
  -3  -3   9    6.34    5.80
  -3   3   9    8.62    4.88
   3  -3  -9    8.13    4.82
   3   3  -9    9.10    5.42
  -3  -3   8   66.77    9.70
  -3   3   8   56.63    7.70
  -3   3   8   62.22    6.50
   3  -3  -8   56.85    8.18
   3   3  -8   53.60    8.45
  -3  -3   7   82.97    8.62
  -3  -3   7   83.68    5.64
  -3   3   7   91.27    7.32
  -3   3   7   85.30    6.99
   3  -3  -7   89.59    8.29
   3   3  -7   76.96    7.97
   3   3  -7   81.62    5.53
   3   3  -7   79.34    8.02
  -3  -3   6   36.26    6.18
  -3  -3   6   33.17    4.12
  -3   3   6   39.08    5.09
  -3   3   6   36.96    5.09
   3  -3  -6   38.59    5.53
   3  -3  -6   40.32    5.85
   3   3  -6   36.26    5.91
   3   3  -6   33.17    4.23
   3   3  -6   36.80    5.85
  -3  -3   5   35.01    5.53
  -3  -3   5   38.91    4.39
  -3   3   5   34.47    3.90
  -3   3   5   34.52    4.93
   3  -3  -5   35.23    4.72
   3  -3  -5   34.90    5.20
   3   3  -5   37.56    5.37
   3   3  -5   35.34    4.44
   3   3  -5   44.55    5.74
  -3  -3   4   24.98    4.50
  -3  -3   4   27.15    3.90
  -3   3   4   29.27    3.20
  -3   3   4   22.92    4.06
   3  -3  -4   29.05    4.17
   3  -3  -4   20.76    4.06
   3   3  -4   33.01    4.72
   3   3  -4   27.37    4.01
   3   3  -4   29.70    4.34
  -3  -3   3  585.53   13.33
  -3  -3   3  590.90   13.17
  -3   3   3  601.73    8.62
  -3   3   3  595.50   13.87
   3  -3  -3  589.38   12.25
   3  -3  -3  601.73    8.56
   3  -3  -3  603.58   13.87
   3   3  -3  590.62   12.68
   3   3  -3  591.60   13.17
   3   3  -3  596.37   13.01
  -3  -3   2   66.44    5.20
  -3  -3   2   74.09    5.47
  -3  -3   2   72.89    4.61
  -3   3   2   69.59    4.82
  -3   3   2   62.87    5.42
   3  -3  -2   68.02    5.09
   3  -3  -2   68.18    2.60
   3  -3  -2   69.64    5.20
   3   3  -2   61.95    5.15
   3   3  -2   68.83    5.37
   3   3  -2   70.29    4.66
  -3  -3   1   51.97    4.82
  -3  -3   1   62.81    5.26
  -3   3   1   61.73    4.82
  -3   3   1   59.72    5.09
   3  -3  -1   62.81    5.04
   3  -3  -1   58.69    2.66
   3  -3  -1   70.40    5.31
   3  -3  -1   62.16    5.09
   3   3  -1   82.11    4.88
   3   3  -1   57.01    5.26
   3   3  -1   58.59    3.96
  -3  -3   0   17.78    3.69
  -3  -3   0   18.91    3.74
  -3   3   0   19.24    3.74
  -3   3   0   17.67    3.25
   3  -3   0   14.74    2.33
   3  -3   0   14.25    2.93
   3  -3   0   17.23    3.25
   3   3   0   14.31    2.49
   3   3   0   13.49    3.36
   3   3   0   15.50    2.28
   3   3   0   14.63    2.28
  -3  -3  -1  222.85    6.72
  -3  -3  -1  227.46    9.10
  -3  -3  -1  241.01    9.21
  -3   3  -1  230.33    9.21
  -3   3  -1  219.93    7.80
   3  -3   1  221.88    7.05
   3  -3   1  232.99    8.29
   3  -3   1  203.56    7.75
   3   3   1  232.07    6.88
   3   3   1  232.55    8.94
   3   3   1  218.90    5.53
   3   3   1  232.12    5.74
  -3  -3  -2   96.25    5.15
  -3  -3  -2   94.25    6.83
  -3   3  -2   90.89    6.83
  -3   3  -2   97.93    5.26
   3  -3   2   96.90    5.80
   3  -3   2  108.61    6.29
   3  -3   2  101.56    6.07
   3   3   2   94.95    6.40
   3   3   2   97.44    4.12
  -3  -3  -3   50.67    4.66
  -3  -3  -3   58.80    6.45
  -3   3  -3   67.15    6.72
  -3   3  -3   58.04    4.23
   3  -3   3   59.07    5.91
   3  -3   3   56.85    5.26
   3   3   3   58.80    6.29
   3   3   3   60.81    5.26
   3   3   3   60.16    3.79
  -3  -3  -4    0.76    2.55
  -3  -3  -4    2.49    3.74
  -3   3  -4   -0.87    3.41
   3  -3   4   -3.31    2.93
   3  -3   4    0.70    2.66
   3   3   4    1.57    3.47
   3   3   4   -0.76    2.44
   3   3   4    1.52    1.84
  -3  -3  -5    0.05    2.98
  -3  -3  -5   -1.79    3.74
  -3   3  -5    0.92    3.79
   3  -3   5    1.79    4.66
   3  -3   5    2.76    3.20
   3   3   5   -2.49    3.52
   3   3   5    2.11    2.87
  -3  -3  -6   21.19    6.45
  -3   3  -6   16.75    5.96
   3  -3   6   16.91    6.12
   3  -3   6   17.13    5.04
   3   3   6   17.07    5.91
  -3   3  -7   16.04    6.34
   3  -3   7   13.39    6.67
   3  -3   7   15.83    5.04
   3   3   7   15.55    6.50
  -3   3  -8   -0.54    5.85
   3  -3   8  -13.82    5.42
   3  -3   8    1.30    4.12
   3   3   8   -2.49    4.82
  -3   3  -9    7.32    6.99
   3  -3   9    2.44    7.15
   3  -3   9   10.08    7.48
  -3   4  12   -9.97    5.47
  -3  -4  11   17.40    9.00
  -3   4  11    2.28    6.50
   3   4 -11   16.96    7.42
  -3  -4  10   10.41    7.26
  -3   4  10    2.60    4.72
   3   4 -10    0.49    5.09
  -3  -4   9    7.53    6.34
  -3   4   9    0.98    4.17
   3   4  -9    6.23    4.99
  -3  -4   8   -2.38    5.37
  -3   4   8    2.60    3.79
  -3   4   8   -5.31    2.44
   3  -4  -8   -1.79    4.23
   3   4  -8    0.38    4.28
  -3  -4   7   16.37    6.23
  -3   4   7   12.90    4.06
  -3   4   7   15.45    4.55
   3  -4  -7   13.93    4.77
   3   4  -7   12.14    4.99
   3   4  -7   15.45    4.99
  -3  -4   6    1.84    4.55
  -3  -4   6   -0.87    2.17
  -3   4   6   -0.11    2.33
  -3   4   6    0.98    3.36
   3  -4  -6    1.63    3.58
   3   4  -6   -1.57    3.25
   3   4  -6    2.28    2.49
   3   4  -6   -0.11    3.14
  -3  -4   5    1.30    3.36
  -3  -4   5    2.01    2.38
  -3   4   5    0.98    2.38
  -3   4   5    1.41    2.82
   3  -4  -5    0.38    2.71
   3  -4  -5    0.76    2.22
   3  -4  -5    0.43    2.66
   3   4  -5    0.11    2.87
   3   4  -5   -0.98    2.28
   3   4  -5   -0.33    2.76
  -3  -4   4  284.96   11.00
  -3  -4   4  281.17    9.97
  -3   4   4  276.56    8.02
  -3   4   4  273.91   10.73
   3  -4  -4  276.13    9.10
   3  -4  -4  280.52    8.13
   3  -4  -4  286.04   11.22
   3   4  -4  287.94   10.19
   3   4  -4  284.69    9.97
   3   4  -4  269.84   10.46
  -3  -4   3    2.71    2.71
  -3  -4   3   -0.87    2.60
  -3  -4   3    0.87    2.17
  -3   4   3   -1.95    2.38
   3  -4  -3   -0.38    2.17
   3  -4  -3    2.28    1.73
   3  -4  -3    3.03    2.71
   3   4  -3   -2.01    2.17
   3   4  -3    0.60    2.60
   3   4  -3    0.00    2.33
  -3  -4   2  335.36   11.00
  -3  -4   2  345.12   11.22
  -3  -4   2  349.24    9.81
  -3   4   2  320.03    9.43
  -3   4   2  337.37   11.16
   3  -4  -2  333.68    9.76
   3  -4  -2  339.92    6.94
   3  -4  -2  330.16   11.00
   3   4  -2  335.36    9.00
   3   4  -2  340.73   11.11
   3   4  -2  330.54    9.86
  -3  -4   1  527.27   13.60
  -3  -4   1  526.19   13.77
  -3   4   1  523.64   12.36
  -3   4   1  499.96   13.06
   3  -4  -1  522.45   12.36
   3  -4  -1  529.06    8.62
   3  -4  -1  535.89   13.49
   3   4  -1  538.71   10.13
   3   4  -1  520.39   13.71
   3   4  -1  519.09   11.27
  -3  -4   0  315.53   10.95
  -3   4   0  310.38   10.30
  -3   4   0  322.19   10.46
   3  -4   0  336.45    7.86
   3  -4   0  319.00   10.46
   3   4   0  317.04    7.37
   3   4   0  331.14   11.27
   3   4   0  308.37    8.29
   3   4   0  327.83    8.62
  -3  -4  -1    1.03    2.76
  -3   4  -1   -1.08    2.71
  -3   4  -1    1.73    2.11
  -3   4  -1   -1.95    2.01
   3  -4   1   -0.76    2.17
   3  -4   1    0.00    2.22
   3  -4   1   -1.03    2.33
   3   4   1    0.38    1.52
   3   4   1   -0.87    2.49
   3   4   1    0.27    1.52
   3   4   1   -0.38    1.52
  -3  -4  -2   12.90    2.55
  -3  -4  -2    8.62    3.90
  -3   4  -2   11.76    4.01
  -3   4  -2   10.46    3.03
   3  -4   2    7.15    3.36
   3  -4   2   10.68    3.52
   3   4   2   11.27    2.38
   3   4   2    8.62    3.36
   3   4   2   12.25    2.44
  -3  -4  -3    4.82    2.33
  -3  -4  -3    7.80    4.17
  -3   4  -3    7.32    3.96
  -3   4  -3    7.75    2.66
   3  -4   3    2.44    3.36
   3  -4   3    6.34    3.31
   3   4   3   11.16    2.66
   3   4   3   10.19    4.01
   3   4   3    6.50    2.22
  -3  -4  -4    1.25    3.79
  -3   4  -4    4.50    4.17
   3  -4   4    0.11    4.34
   3  -4   4    1.46    3.09
   3   4   4    0.38    3.90
   3   4   4    4.50    3.63
  -3  -4  -5   81.84    9.05
  -3   4  -5   85.36    9.27
   3  -4   5   89.26    8.78
   3  -4   5   83.41    7.91
   3   4   5   87.96    9.05
   3   4   5   84.11    7.48
  -3  -4  -6   17.61    6.34
  -3   4  -6   13.87    6.45
   3  -4   6   14.96    6.56
   3  -4   6   11.27    4.82
   3   4   6   14.15    6.07
  -3   4  -7   11.87    6.45
   3  -4   7   11.27    6.50
   3  -4   7   10.08    5.09
   3   4   7   15.07    6.50
  -3   4  -8    5.15    6.07
   3  -4   8   -2.44    6.77
   3  -4   8    2.49    4.34
   3   4   8    1.84    5.69
   3  -4   9   -5.85    6.45
  -3  -5  11    8.56    8.51
  -3   5  11   -1.19    5.64
   3   5 -11   -5.64    4.82
  -3  -5  10    2.06    8.13
  -3   5  10    6.67    5.37
   3   5 -10   -2.71    4.88
  -3  -5   9   12.14    8.08
  -3   5   9    8.78    4.77
  -3   5   9   11.54    5.20
   3   5  -9    6.23    5.31
  -3  -5   8    0.60    6.07
  -3   5   8    5.37    4.23
  -3   5   8    5.09    3.85
   3   5  -8    3.90    4.82
  -3  -5   7   84.98    9.70
  -3   5   7   84.27    7.70
  -3   5   7   84.27    8.45
   3   5  -7   82.59    8.51
  -3  -5   6   67.74    9.10
  -3   5   6   79.29    6.67
  -3   5   6   92.19    8.78
   3  -5  -6   87.09    7.37
   3  -5  -6   83.57    6.88
   3   5  -6   70.13    7.37
   3   5  -6   78.20    6.45
   3   5  -6   75.44    7.75
  -3  -5   5   -4.34    3.36
  -3   5   5   -1.14    2.33
  -3   5   5    0.27    3.36
   3  -5  -5    4.50    3.09
   3  -5  -5   -2.33    2.49
   3  -5  -5    2.38    3.36
   3   5  -5    2.98    3.31
   3   5  -5    0.54    2.44
   3   5  -5    0.00    3.14
  -3  -5   4   35.28    5.80
  -3   5   4   36.85    4.17
  -3   5   4   29.92    5.37
   3  -5  -4   35.17    4.55
   3  -5  -4   34.25    4.01
   3  -5  -4   37.77    6.02
   3   5  -4   39.29    5.26
   3   5  -4   27.64    4.61
   3   5  -4   34.03    5.37
  -3  -5   3   -4.66    2.82
  -3   5   3   -0.98    3.20
   3  -5  -3    1.95    2.33
   3  -5  -3    0.60    1.95
   3  -5  -3   -0.81    2.76
   3   5  -3   -1.41    2.33
   3   5  -3   -1.84    2.38
   3   5  -3    3.25    2.82
  -3  -5   2   -2.66    2.49
  -3   5   2   -0.60    2.11
  -3   5   2    1.63    3.03
   3  -5  -2   -1.63    2.11
   3  -5  -2    0.38    1.79
   3  -5  -2    2.60    3.03
   3   5  -2    0.76    1.90
   3   5  -2   -1.90    2.49
   3   5  -2   -1.68    2.22
  -3  -5   1  115.92    7.70
  -3   5   1  118.63    6.56
  -3   5   1  109.15    7.37
   3  -5  -1  114.35    6.72
   3  -5  -1  119.34    5.37
   3  -5  -1  110.88    7.32
   3   5  -1  119.07    5.15
   3   5  -1  117.88    7.75
   3   5  -1  113.49    6.50
  -3  -5   0   21.90    4.77
  -3   5   0   23.79    4.50
  -3   5   0   19.46    4.61
   3  -5   0   24.06    3.52
   3  -5   0   22.76    4.72
   3   5   0   17.67    2.49
   3   5   0   20.97    4.50
   3   5   0   16.04    3.20
   3   5   0   21.52    3.47
  -3  -5  -1    4.34    3.58
  -3   5  -1    7.37    3.63
  -3   5  -1    2.11    2.60
   3  -5   1    6.94    2.66
   3  -5   1    2.22    3.20
   3   5   1    1.90    1.57
   3   5   1    3.90    3.25
   3   5   1    3.58    2.28
   3   5   1    3.47    2.33
  -3  -5  -2   73.65    7.32
  -3   5  -2   71.48    6.88
  -3   5  -2   79.72    6.18
   3  -5   2   73.92    6.23
   3  -5   2   74.30    7.05
   3   5   2   78.04    7.48
  -3  -5  -3    2.82    3.96
  -3   5  -3   -3.09    3.25
  -3   5  -3   -1.35    2.44
   3  -5   3   -5.58    4.06
   3  -5   3    3.52    3.47
   3   5   3    3.20    3.58
  -3  -5  -4   19.24    5.96
  -3   5  -4   24.66    6.18
   3  -5   4   19.29    5.37
   3  -5   4   24.33    5.53
   3   5   4   25.91    6.23
   3   5   4   18.43    5.26
  -3  -5  -5    4.34    4.99
  -3   5  -5    3.79    4.61
   3  -5   5   -0.87    4.82
   3  -5   5    4.61    4.28
   3   5   5    3.20    4.61
   3   5   5    0.76    3.79
  -3  -5  -6    6.61    5.80
  -3   5  -6   10.84    5.91
   3  -5   6    1.35    5.15
   3  -5   6   15.45    5.20
   3   5   6   10.84    6.34
  -3  -5  -7    5.26    5.69
  -3   5  -7    0.54    5.15
   3  -5   7   -9.21    5.64
   3  -5   7    0.22    4.34
   3   5   7    0.38    5.09
  -3   5  -8    5.15    6.18
   3  -5   8   -4.93    6.23
   3  -5   8    5.42    4.88
   3   5   8    3.36    6.34
  -3  -6  10   19.84    9.76
   3   6 -10   20.87    7.37
  -3  -6   9    0.60    6.18
  -3   6   9    2.28    4.77
  -3   6   9    5.31    4.28
   3   6  -9    1.63    4.77
  -3  -6   8   16.42    7.75
  -3   6   8   11.11    5.26
  -3   6   8    9.70    4.93
   3   6  -8    7.80    5.31
  -3  -6   7    7.10    5.37
  -3   6   7    3.52    3.90
  -3   6   7    6.40    4.82
   3  -6  -7   10.30    4.77
   3   6  -7    5.53    4.72
  -3  -6   6   15.83    5.69
  -3   6   6   28.78    5.31
  -3   6   6   26.28    5.96
   3  -6  -6   32.52    5.69
   3   6  -6   25.96    5.74
   3   6  -6   24.28    4.88
   3   6  -6   20.05    5.42
  -3  -6   5   12.57    4.93
  -3   6   5   21.30    4.44
  -3   6   5   20.43    5.58
   3  -6  -5   19.13    4.28
   3   6  -5   20.05    4.72
   3   6  -5   16.80    4.55
   3   6  -5   19.51    5.37
  -3  -6   4    3.47    3.85
  -3   6   4    5.42    4.55
   3  -6  -4    6.67    3.14
   3  -6  -4    1.41    2.55
   3  -6  -4   -0.27    3.20
   3   6  -4    5.91    3.14
   3   6  -4    1.46    3.41
   3   6  -4    4.50    3.36
  -3  -6   3    6.02    4.06
  -3   6   3    3.20    4.17
   3  -6  -3    5.15    2.76
   3  -6  -3    8.02    2.82
   3  -6  -3    6.67    3.74
   3   6  -3    7.86    2.98
   3   6  -3    5.37    3.52
   3   6  -3    6.45    3.58
  -3  -6   2   83.95    7.48
  -3   6   2   88.99    5.96
  -3   6   2   96.25    8.29
   3  -6  -2   88.56    6.02
   3  -6  -2   93.70    5.53
   3  -6  -2   88.56    7.53
   3   6  -2  101.29    5.69
   3   6  -2   86.77    7.48
   3   6  -2   85.30    6.99
  -3  -6   1    0.27    3.20
  -3   6   1    2.60    2.76
  -3   6   1   -0.54    3.47
   3  -6  -1   -3.52    2.44
   3  -6  -1    3.41    2.38
   3  -6  -1    0.54    3.25
   3   6  -1    5.09    1.95
   3   6  -1    4.12    3.52
   3   6  -1    0.81    2.66
  -3  -6   0    3.69    3.69
  -3   6   0    1.95    2.71
  -3   6   0   -1.68    3.74
   3  -6   0    7.75    2.82
   3  -6   0    1.95    3.36
   3   6   0    0.87    3.25
   3   6   0    2.17    2.66
  -3  -6  -1   80.16    7.86
  -3   6  -1   90.45    7.59
  -3   6  -1   72.57    7.26
   3  -6   1   85.74    6.02
   3  -6   1   81.73    7.53
   3   6   1   82.32    7.80
   3   6   1   82.27    6.34
  -3  -6  -2    7.26    4.50
  -3   6  -2   11.54    4.34
  -3   6  -2   11.98    4.06
   3  -6   2   11.92    4.01
   3  -6   2   10.13    4.28
   3   6   2    7.59    4.61
  -3  -6  -3    7.91    4.99
  -3   6  -3    0.60    3.69
   3  -6   3    1.25    4.17
   3  -6   3    6.40    4.06
   3   6   3   -0.22    3.58
  -3  -6  -4  152.29   11.60
  -3   6  -4  157.49   11.22
   3  -6   4  138.31   10.46
   3  -6   4  155.49   10.68
   3   6   4  144.11   10.35
  -3  -6  -5   18.97    6.88
  -3   6  -5   16.96    6.29
   3  -6   5   10.46    6.02
   3  -6   5   13.01    5.09
   3   6   5   15.07    5.85
   3   6   5    8.83    5.37
  -3  -6  -6    4.82    5.91
  -3   6  -6    3.14    5.26
   3  -6   6   -5.69    5.37
   3  -6   6   -2.01    4.28
   3   6   6    4.06    4.99
  -3  -6  -7   -1.63    5.58
  -3   6  -7   -0.33    5.20
   3  -6   7   -8.35    5.64
   3  -6   7    2.01    5.04
   3   6   7   -4.44    5.31
   3  -6   8  -11.27    5.20
   3  -6   8    1.57    5.53
   3   7 -10   -1.30    5.74
  -3  -7   9   -0.49    5.85
  -3   7   9   11.00    5.20
   3   7  -9    0.92    5.15
  -3  -7   8    6.61    6.12
  -3   7   8   12.41    5.04
   3   7  -8    4.01    5.15
  -3  -7   7   56.20    9.81
  -3   7   7   57.50    8.62
   3  -7  -7   54.20    7.86
   3   7  -7   46.12    7.75
  -3  -7   6   66.12    9.27
  -3   7   6   74.09    8.67
  -3   7   6   69.10    9.32
   3  -7  -6   69.53    7.37
   3   7  -6   70.51    7.70
   3   7  -6   62.81    7.26
  -3  -7   5    2.28    4.34
  -3   7   5    3.14    3.52
  -3   7   5    2.82    5.09
   3  -7  -5    1.73    3.58
   3   7  -5    6.83    3.96
   3   7  -5    1.73    3.74
   3   7  -5    4.77    4.01
  -3  -7   4   22.44    6.23
  -3   7   4   15.61    6.02
   3  -7  -4   22.06    4.72
   3   7  -4   24.93    4.82
   3   7  -4   20.05    5.20
   3   7  -4   12.74    4.82
  -3  -7   3   50.94    7.86
  -3   7   3   63.41    8.78
   3  -7  -3   50.02    5.96
   3   7  -3   51.49    5.31
   3   7  -3   48.83    7.26
   3   7  -3   38.86    6.45
  -3  -7   2   20.38    5.47
  -3   7   2   18.16    3.90
  -3   7   2   20.32    6.02
   3  -7  -2   17.40    3.85
   3  -7  -2   24.71    4.34
   3  -7  -2   16.26    5.15
   3   7  -2   20.54    5.31
   3   7  -2   22.22    4.93
  -3  -7   1    9.05    4.55
  -3   7   1   12.63    3.79
  -3   7   1    9.43    4.77
   3  -7  -1    7.53    3.63
   3  -7  -1   10.51    3.52
   3  -7  -1    9.59    4.61
   3   7  -1    6.50    4.23
   3   7  -1    6.83    3.85
  -3  -7   0    8.62    4.72
  -3   7   0   16.20    4.39
  -3   7   0    6.07    4.23
   3  -7   0   17.72    3.96
   3  -7   0   15.50    5.04
   3   7   0   13.12    4.99
   3   7   0   13.77    4.01
  -3  -7  -1    1.52    4.06
  -3   7  -1    2.76    3.58
  -3   7  -1   -8.67    3.79
   3  -7   1    3.20    3.14
   3  -7   1    0.38    3.58
   3   7   1    1.30    3.96
   3   7   1    2.01    2.98
  -3  -7  -2   29.54    6.83
  -3   7  -2   37.88    6.83
  -3   7  -2   24.50    5.53
   3  -7   2   32.46    5.42
   3  -7   2   32.25    6.77
   3   7   2   37.34    7.05
  -3  -7  -3   42.76    8.13
  -3   7  -3   43.79    7.80
   3  -7   3   52.90    7.26
   3  -7   3   42.60    7.42
   3   7   3   37.67    7.26
  -3  -7  -4   -3.69    4.01
  -3   7  -4    6.34    4.77
   3  -7   4    9.10    5.26
   3  -7   4    2.22    4.50
   3   7   4   -0.27    4.28
  -3  -7  -5    4.17    5.96
  -3   7  -5    2.17    4.93
   3  -7   5   -1.63    4.55
   3  -7   5    4.23    5.04
   3   7   5    6.29    5.31
   3   7   5   -2.17    4.93
  -3  -7  -6   -2.66    5.74
  -3   7  -6    1.19    5.80
   3  -7   6   -5.31    5.69
   3  -7   6   -0.87    4.66
   3   7   6    2.93    5.26
  -3  -7  -7   -5.64    8.67
  -3   7  -7    0.92    5.96
   3  -7   7  -10.95    5.09
   3  -7   7    2.55    5.26
   3   7   7   12.63   10.30
  -3  -8   9   -3.20    6.94
  -3   8   9    3.36    4.61
   3   8  -9    5.15    5.53
  -3  -8   8    5.47    6.02
  -3   8   8   -0.05    4.82
   3   8  -8    3.41    5.20
  -3  -8   7    4.50    4.99
  -3   8   7    7.32    5.09
   3   8  -7    0.65    4.06
  -3  -8   6    9.16    5.74
  -3   8   6   16.69    6.29
   3   8  -6   17.56    5.74
  -3  -8   5    5.42    4.93
  -3   8   5    7.53    5.42
   3   8  -5   14.04    4.72
   3   8  -5   10.13    4.61
   3   8  -5   12.09    5.47
  -3  -8   4    2.76    4.23
  -3   8   4    0.70    4.66
   3   8  -4    4.55    4.50
   3   8  -4    0.60    4.23
  -3  -8   3   12.84    5.42
  -3   8   3   12.63    5.96
   3   8  -3   10.78    5.15
   3   8  -3    6.67    4.61
  -3  -8   2   24.71    6.40
  -3   8   2   25.91    7.05
   3   8  -2   36.15    7.15
   3   8  -2   27.26    5.96
  -3  -8   1   33.66    7.10
  -3   8   1   43.74    8.18
   3   8  -1   27.48    6.56
   3   8  -1   39.29    6.67
  -3  -8   0  111.59   10.13
  -3   8   0  113.00    8.24
  -3   8   0  109.04    9.97
   3  -8   0  117.77   10.13
   3   8   0  124.76   10.73
   3   8   0  111.43    9.05
  -3  -8  -1   16.53    6.18
  -3   8  -1   14.31    4.82
  -3   8  -1   16.69    5.64
   3  -8   1   17.99    7.15
   3  -8   1   19.24    6.18
   3   8   1   15.72    5.80
   3   8   1   14.63    4.77
  -3  -8  -2   -1.08    4.39
  -3   8  -2    3.31    4.28
  -3   8  -2   -0.87    4.01
   3  -8   2    5.58    5.64
   3  -8   2    0.54    3.96
   3   8   2   -2.44    4.12
  -3  -8  -3    1.95    4.88
  -3   8  -3    0.43    4.50
   3  -8   3   -1.46    4.34
   3   8   3   -0.60    4.50
  -3  -8  -4    2.55    5.80
  -3   8  -4    5.37    5.37
   3  -8   4    3.20    4.99
   3   8   4    0.00    4.88
  -3  -8  -5   26.83    8.35
  -3   8  -5   19.08    6.77
   3  -8   5   20.76    7.15
   3   8   5   26.66    8.02
   3   8   5    8.62    6.23
  -3  -8  -6    9.59    7.21
  -3   8  -6    0.87    5.69
   3  -8   6   -0.33    5.42
   3   8   6    3.90    6.34
   3   9  -9    1.25    5.85
  -3  -9   8   21.03   10.89
  -3   9   8   11.06    6.02
   3   9  -8   10.13    9.65
  -3  -9   7    3.25    5.09
  -3   9   7    6.18    6.34
  -3  -9   6   -1.52    4.77
  -3   9   6   -4.55    5.64
  -3  -9   5    8.62    5.42
  -3   9   5    6.61    5.96
   3   9  -5    4.39    4.72
  -3  -9   4   13.22    6.02
  -3   9   4    8.08    6.12
   3   9  -4    5.64    5.26
   3   9  -4    9.86    5.42
  -3  -9   3    1.14    4.66
  -3   9   3   -1.46    5.74
   3   9  -3    2.44    4.72
   3   9  -3   -4.39    3.85
  -3  -9   2    5.26    5.09
  -3   9   2    2.44    5.69
   3   9  -2    8.94    5.31
   3   9  -2    4.34    4.23
  -3  -9   1    4.01    5.42
  -3   9   1    7.42    5.96
   3   9  -1    3.09    5.47
   3   9  -1    4.82    4.28
  -3  -9   0    8.83    5.69
  -3   9   0   13.66    6.67
   3   9   0   10.46    5.80
   3   9   0    9.43    4.72
  -3  -9  -1   -1.84    4.61
  -3   9  -1    2.71    4.93
   3   9   1   -2.17    4.61
  -3  -9  -2   18.10    6.88
  -3   9  -2   15.07    7.05
  -3   9  -2   10.95    5.04
   3   9   2   17.13    7.37
  -3  -9  -3    5.04    5.74
  -3   9  -3   -3.41    4.17
   3   9   3   -5.69    4.82
  -3  -9  -4   -0.49    5.53
  -3   9  -4    8.35    5.91
   3   9   4    0.11    5.31
  -3  -9  -5   10.46    7.15
  -3   9  -5   -3.69    5.31
   3   9   5    2.22    5.47
   3   9   5   -4.34    5.31
  -3 -10   6   -1.03    5.20
  -3  10   6    2.98    5.91
  -3 -10   5    3.25    5.53
  -3  10   5    3.36    5.96
   3  10  -5   -0.98    5.69
  -3 -10   4   10.46    6.40
  -3  10   4    5.04    6.56
   3  10  -4    0.65    4.99
  -3 -10   3   14.20    7.05
  -3  10   3    8.08    6.72
   3  10  -3    2.66    6.34
   3  10  -3    7.70    5.31
  -3 -10   2   -1.46    4.39
  -3  10   2   -0.22    5.64
   3  10  -2   -4.88    5.37
   3  10  -2    4.82    4.99
  -3 -10   1   12.68    6.29
  -3  10   1   15.39    7.10
   3  10  -1   14.74    6.99
   3  10  -1   13.49    5.96
  -3 -10   0   33.22    8.18
  -3  10   0   33.87    9.10
   3  10   0   36.15    8.67
   3  10   0   30.19    7.10
  -3 -10  -1    5.26    6.02
  -3  10  -1    2.28    6.12
   3  10   1    3.09    5.85
  -3 -10  -2    6.94    6.45
   3  10   2   12.14    6.94
  -3 -10  -3   10.62    6.61
   3  10   3    2.93    7.05
   3  10   4    0.60    7.10
  -3 -11   4    1.03    5.47
  -3  11   4    1.30    7.05
   3  11  -4   -3.63    6.07
  -3 -11   3    7.70    6.40
  -3  11   3   -4.99    6.02
   3  11  -3    4.28    6.67
  -3 -11   2    7.42    6.34
  -3  11   2    4.34    7.26
   3  11  -2    4.01    7.48
   3  11  -2   22.65    7.48
  -3 -11   1    9.00    6.40
  -3  11   1    4.34    7.05
   3  11  -1   -0.05    6.45
   3  11  -1    2.82    5.26
  -3 -11   0   -0.43    5.26
  -3  11   0   -3.31    6.40
   3  11   0   -4.66    5.96
   3  11   0    1.52    4.93
  -3 -11  -1    0.49    6.45
  -3  11  -1    3.58    5.58
   3  11   1    0.81    7.32
  -4   0  12    5.58    9.05
   4   0 -12   -2.60    5.64
  -4   0  11    3.09    6.12
   4   0 -11   -0.16    5.26
  -4   0  10  102.97   10.84
   4   0 -10   95.44   11.38
  -4   0   9    1.73    4.88
   4   0  -9    6.18    5.58
  -4   0   8  353.03   14.09
  -4   0   8  326.20   11.16
   4   0  -8  328.81   14.42
  -4   0   7    7.05    4.61
  -4   0   7    0.60    2.44
   4   0  -7   10.35    5.09
   4   0  -7    1.30    3.09
  -4   0   6   69.32    6.40
  -4   0   6   52.84    5.26
   4   0  -6   57.99    6.50
   4   0  -6   63.41    6.50
  -4   0   5   -1.03    2.38
  -4   0   5   -1.79    1.95
   4   0  -5    0.33    2.71
   4   0  -5   -0.43    2.33
  -4   0   4   -3.52    2.49
  -4   0   4    0.54    2.38
   4   0  -4    0.38    2.71
   4   0  -4   -0.98    2.22
  -4   0   3   -0.70    1.52
  -4   0   3    1.68    2.49
   4   0  -3    1.63    2.98
   4   0  -3   -0.38    1.84
  -4   0   2  491.72    7.75
  -4   0   2  483.05   12.03
   4   0  -2  491.12   12.14
   4   0  -2  494.48    9.70
  -4   0   1    1.30    2.44
  -4   0   1   -0.98    1.46
  -4   0   1   -1.68    2.38
   4   0  -1   -5.69    2.49
   4   0  -1    0.49    1.41
  -4   0   0  115.60    6.56
  -4   0   0  126.33    5.31
  -4   0   0  128.88    6.50
   4   0   0  129.80    7.10
   4   0   0  127.09    5.26
   4   0   0  118.53    3.74
  -4   0  -1    2.06    2.44
  -4   0  -1    0.00    2.01
  -4   0  -1    1.90    2.06
   4   0   1    0.92    2.01
   4   0   1   -0.54    0.87
   4   0   1   -0.38    0.92
  -4   0  -2  127.41    7.64
  -4   0  -2  125.63    6.83
  -4   0  -2  121.29    6.29
   4   0   2  123.13    6.67
   4   0   2  128.99    4.12
   4   0   2  123.73    3.96
  -4   0  -3   -0.60    2.93
  -4   0  -3    0.76    1.95
   4   0   3    3.20    3.09
   4   0   3    0.22    2.11
   4   0   3   -0.60    1.35
  -4   0  -4    0.60    3.31
   4   0   4    1.68    3.36
   4   0   4   -0.54    1.63
  -4   0  -5   -0.43    3.58
   4   0   5    2.60    4.06
  -4   0  -6    9.97    5.09
   4   0   6   19.35    6.61
  -4   0  -7   -4.01    4.34
   4   0   7   -0.98    4.66
  -4   0  -8    2.55    5.09
   4   0   8   -2.44    6.61
  -4   0  -9    1.14    5.04
  -4  -1  12   14.15    9.81
  -4   1  12    9.65    8.08
   4  -1 -12   10.84    6.99
   4   1 -12    7.10    6.61
  -4  -1  11    4.72    6.34
  -4   1  11   -1.46    6.45
   4  -1 -11    0.11    5.26
   4   1 -11   -1.84    5.09
  -4  -1  10    7.86    6.99
  -4   1  10    0.05    5.37
   4  -1 -10    5.15    6.23
   4   1 -10    2.98    5.42
  -4  -1   9  102.16   10.30
  -4   1   9  106.60   10.35
   4  -1  -9   91.86   10.68
   4   1  -9  109.42   10.73
  -4  -1   8    6.72    4.82
  -4  -1   8    4.17    2.87
  -4   1   8    3.25    4.01
  -4   1   8    3.90    3.25
   4  -1  -8    5.42    4.66
   4   1  -8    1.30    4.44
  -4  -1   7    8.13    5.58
  -4  -1   7   -0.22    2.28
  -4   1   7    0.43    3.90
  -4   1   7    3.41    2.98
   4  -1  -7   14.36    5.74
   4  -1  -7   -0.38    3.36
   4   1  -7    5.96    4.88
   4   1  -7    0.54    3.14
  -4  -1   6   10.73    4.50
  -4  -1   6    1.79    2.60
  -4   1   6    4.50    3.20
  -4   1   6    6.40    3.14
   4  -1  -6    4.77    3.85
   4  -1  -6    0.92    3.03
   4   1  -6    5.85    4.01
   4   1  -6    4.61    3.14
  -4  -1   5   19.19    3.96
  -4  -1   5   19.62    3.90
  -4   1   5   25.74    3.63
  -4   1   5   21.52    4.17
   4  -1  -5   19.02    4.17
   4  -1  -5   25.74    4.44
   4   1  -5   22.98    4.55
   4   1  -5   22.71    4.34
  -4  -1   4  276.02    8.45
  -4  -1   4  263.55    9.38
  -4   1   4  291.95    6.88
  -4   1   4  264.53    9.76
   4  -1  -4  264.48    9.76
   4  -1  -4  251.31    9.16
   4   1  -4  278.35   10.13
   4   1  -4  269.79    9.21
  -4  -1   3   34.63    3.52
  -4  -1   3   43.68    5.04
  -4   1   3   37.45    2.17
  -4   1   3   39.51    4.82
   4  -1  -3   37.94    4.55
   4  -1  -3   35.55    4.23
   4   1  -3   42.22    5.20
   4   1  -3   37.61    3.96
  -4  -1   2  846.86   12.52
  -4  -1   2  859.33   16.04
  -4   1   2  871.63   16.15
  -4   1   2  887.08    6.07
  -4   1   2  839.49   15.83
   4  -1  -2  857.70   16.10
   4  -1  -2  894.50    6.12
   4  -1  -2  831.20   13.39
   4   1  -2  841.06   15.45
   4   1  -2  852.39   12.30
  -4  -1   1  156.14    7.10
  -4  -1   1  161.72    6.07
  -4  -1   1  144.54    7.10
  -4   1   1  156.03    7.48
  -4   1   1  168.66    7.42
   4  -1  -1  146.55    7.32
   4  -1  -1  160.37    4.01
   4  -1  -1  154.24    5.64
   4   1  -1  156.68    7.05
   4   1  -1  152.56    4.55
  -4  -1   0   33.44    4.39
  -4  -1   0   35.77    3.90
  -4  -1   0   36.80    4.77
  -4   1   0   37.50    4.61
  -4   1   0   31.87    4.12
   4  -1   0   37.40    5.04
   4  -1   0   38.48    3.09
   4  -1   0   34.90    3.09
   4  -1   0   32.41    2.98
   4   1   0   34.63    4.06
   4   1   0   31.05    1.79
  -4  -1  -1  456.60   12.14
  -4  -1  -1  458.98   11.60
  -4  -1  -1  463.59   11.81
  -4   1  -1  471.07   13.28
  -4   1  -1  470.85   11.44
   4  -1   1  459.69   10.24
   4  -1   1  482.07    8.83
   4  -1   1  460.66    8.51
   4   1   1  481.53   11.81
  -4  -1  -2   56.74    5.31
  -4  -1  -2   56.69    5.64
  -4  -1  -2   58.04    5.09
  -4   1  -2   54.14    5.85
  -4   1  -2   51.32    4.61
   4  -1   2   61.40    5.09
   4  -1   2   57.39    3.85
   4  -1   2   48.18    3.52
   4   1   2   51.00    5.31
   4   1   2   59.78    5.09
   4   1   2   54.52    2.01
  -4  -1  -3   51.87    5.69
  -4  -1  -3   57.23    6.50
  -4  -1  -3   56.96    4.99
  -4   1  -3   51.16    6.77
  -4   1  -3   47.15    4.34
   4  -1   3   52.95    5.69
   4  -1   3   43.95    3.85
   4  -1   3   50.13    4.06
   4   1   3   53.44    6.23
   4   1   3   57.34    5.04
   4   1   3   57.56    3.03
  -4  -1  -4   25.42    5.47
  -4   1  -4   25.20    5.80
   4  -1   4   25.80    5.85
   4  -1   4   25.04    3.74
   4   1   4   32.90    6.07
   4   1   4   29.59    4.34
   4   1   4   30.08    3.20
  -4  -1  -5    9.65    4.55
  -4   1  -5   11.65    5.47
   4  -1   5    9.65    5.26
   4   1   5   11.54    5.04
  -4  -1  -6   26.39    6.12
  -4   1  -6   21.24    6.77
   4  -1   6   21.41    6.56
   4   1   6   25.36    7.21
  -4  -1  -7    1.79    4.93
  -4   1  -7   -0.87    5.15
   4  -1   7   -4.55    5.04
   4   1   7    0.27    4.61
  -4  -1  -8   -0.05    4.44
  -4   1  -8   -5.09    4.17
   4  -1   8   -6.50    5.74
   4   1   8   -5.64    4.50
  -4  -2  12    7.75    8.40
  -4   2  12   -0.38    7.05
   4  -2 -12    3.74    5.91
   4   2 -12   -1.90    5.37
  -4  -2  11    8.02    8.73
  -4   2  11    0.38    5.80
   4   2 -11    1.79    5.74
  -4  -2  10   47.64   10.68
  -4   2  10   32.68    8.02
   4  -2 -10   22.76    7.26
   4   2 -10   27.21    7.80
  -4  -2   9    9.00    6.34
  -4   2   9    3.85    4.99
  -4   2   9    7.42    4.72
   4  -2  -9    8.40    5.96
   4   2  -9    2.22    4.99
  -4  -2   8    7.32    5.37
  -4  -2   8    3.96    2.93
  -4   2   8    5.85    4.39
  -4   2   8    6.83    3.58
   4  -2  -8    9.43    5.31
   4   2  -8    4.39    5.04
  -4  -2   7   18.59    5.37
  -4  -2   7   14.04    3.52
  -4   2   7   13.39    4.12
  -4   2   7   17.94    4.01
   4  -2  -7   17.23    4.93
   4  -2  -7   15.39    4.66
   4   2  -7   18.97    5.31
   4   2  -7   12.95    4.39
  -4  -2   6    0.70    3.25
  -4  -2   6    1.08    2.49
  -4   2   6   -0.76    2.33
  -4   2   6    0.33    2.49
   4  -2  -6    0.38    3.03
   4  -2  -6    1.57    3.20
   4   2  -6   -1.73    3.14
   4   2  -6    0.27    2.87
  -4  -2   5   39.35    5.20
  -4  -2   5   31.38    4.50
  -4   2   5   32.14    3.58
  -4   2   5   31.16    4.77
   4  -2  -5   37.72    5.20
   4  -2  -5   37.56    5.42
   4   2  -5   30.67    5.04
   4   2  -5   31.87    4.93
  -4  -2   4  253.15    9.00
  -4  -2   4  260.25    9.65
  -4   2   4  254.88    5.80
  -4   2   4  257.38   10.08
   4  -2  -4  243.56    9.38
   4  -2  -4  244.86    9.48
   4   2  -4  255.42    9.70
   4   2  -4  246.37    9.10
  -4  -2   3   82.16    5.26
  -4  -2   3   87.42    6.07
  -4   2   3   86.82    6.18
   4  -2  -3   79.94    6.07
   4  -2  -3   81.62    5.85
   4   2  -3   90.51    6.02
   4   2  -3   86.98    5.31
  -4  -2   2   -0.81    2.22
  -4  -2   2    1.30    2.49
  -4   2   2    3.74    2.66
  -4   2   2    2.44    2.49
   4  -2  -2    4.55    2.76
   4  -2  -2    0.05    2.06
   4   2  -2    2.06    2.33
   4   2  -2    1.35    1.68
  -4  -2   1  611.71   12.74
  -4  -2   1  607.26   14.15
  -4   2   1  601.95   14.15
  -4   2   1  613.60   13.93
   4  -2  -1  633.33   14.58
   4  -2  -1  651.60    5.20
   4  -2  -1  639.46    5.04
   4  -2  -1  587.21   11.76
   4   2  -1  615.72   12.90
   4   2  -1  613.12    9.21
  -4  -2   0   27.21    4.06
  -4  -2   0   25.58    4.23
  -4  -2   0   27.80    4.39
  -4   2   0   26.01    4.55
  -4   2   0   23.74    3.79
   4  -2   0   22.06    2.60
   4  -2   0   24.66    3.25
   4  -2   0   24.44    3.36
   4   2   0   27.64    3.96
   4   2   0   25.26    4.12
   4   2   0   21.95    1.84
  -4  -2  -1   80.86    5.69
  -4  -2  -1   74.41    5.69
  -4  -2  -1   79.18    5.85
  -4   2  -1   84.71    6.72
  -4   2  -1   83.41    5.58
   4  -2   1   87.69    4.99
   4  -2   1   87.36    4.99
   4  -2   1   83.03    4.88
   4   2   1   84.92    5.64
   4   2   1   84.17    6.18
  -4  -2  -2   86.82    6.18
  -4  -2  -2   93.33    7.15
  -4  -2  -2   78.64    6.07
  -4   2  -2   91.16    7.32
  -4   2  -2   84.60    5.53
   4  -2   2   93.76    6.07
   4  -2   2   83.95    5.26
   4  -2   2   77.83    5.04
   4   2   2   76.31    6.61
   4   2   2   81.13    5.85
   4   2   2   82.81    2.33
  -4  -2  -3    1.52    2.98
  -4  -2  -3   -2.44    2.87
  -4  -2  -3    0.87    2.55
  -4   2  -3   -3.47    2.93
  -4   2  -3    0.49    2.06
   4  -2   3   -2.38    2.44
   4  -2   3    0.92    2.06
   4   2   3   -1.63    2.93
   4   2   3    0.05    2.44
   4   2   3    0.11    1.08
  -4  -2  -4    0.16    3.14
  -4  -2  -4   -1.73    3.36
  -4   2  -4   -0.33    3.63
   4  -2   4   -1.14    3.25
   4  -2   4   -0.76    2.22
   4   2   4   -1.19    3.79
   4   2   4    0.49    2.33
   4   2   4    1.03    1.46
  -4  -2  -5    0.60    3.52
  -4   2  -5    0.92    4.01
   4  -2   5    0.11    4.66
   4  -2   5    0.38    2.76
   4   2   5   -4.34    3.74
  -4  -2  -6    5.74    3.96
  -4   2  -6    3.09    4.66
   4  -2   6   -6.07    4.88
   4  -2   6    2.01    3.14
   4   2   6    5.53    5.04
  -4   2  -7   -3.63    4.39
   4  -2   7   -2.55    6.18
   4  -2   7    2.49    3.58
   4   2   7    5.20    5.58
  -4   2  -8    0.98    5.42
   4  -2   8   -5.64    7.10
   4  -2   8   -1.03    3.47
   4   2   8    7.53    6.29
  -4  -3  12    1.57    7.97
  -4   3  12   -0.87    7.26
  -4  -3  11    8.83    8.08
  -4   3  11   -1.57    5.53
   4  -3 -11   -5.58    5.20
   4   3 -11   -4.34    4.66
  -4  -3  10   31.76    8.56
  -4   3  10   14.74    6.50
   4  -3 -10   17.23    6.50
   4   3 -10   25.69    7.42
  -4  -3   9   13.39    6.56
  -4   3   9    1.30    4.44
  -4   3   9   10.24    4.23
   4  -3  -9    3.03    4.66
   4   3  -9   17.83    6.29
  -4  -3   8  170.61   12.14
  -4   3   8  155.22    9.54
  -4   3   8  174.08   10.13
   4  -3  -8  163.94   11.60
   4   3  -8  147.03   11.33
  -4  -3   7   18.86    7.42
  -4  -3   7   13.77    3.74
  -4   3   7   13.22    4.28
  -4   3   7    6.40    4.06
   4  -3  -7   15.55    5.96
   4   3  -7   18.59    5.91
   4   3  -7    6.56    3.41
   4   3  -7   18.10    4.99
  -4  -3   6   20.16    5.42
  -4  -3   6   22.65    4.34
  -4   3   6   19.67    3.74
  -4   3   6   20.32    4.66
   4  -3  -6   21.30    5.09
   4  -3  -6   18.86    4.66
   4   3  -6   20.54    5.04
   4   3  -6   19.13    4.17
   4   3  -6   15.66    4.44
  -4  -3   5   43.03    6.45
  -4  -3   5   46.88    5.37
  -4   3   5   53.76    4.01
  -4   3   5   40.38    5.58
   4  -3  -5   61.02    6.34
   4  -3  -5   51.32    5.85
   4   3  -5   51.76    6.50
   4   3  -5   55.98    6.07
  -4  -3   4  195.00    8.83
  -4  -3   4  183.51    8.56
  -4   3   4  198.95    5.20
  -4   3   4  199.71    9.32
   4  -3  -4  193.32    8.73
   4  -3  -4  197.87    9.38
   4   3  -4  183.72    8.51
   4   3  -4  188.55    8.62
   4   3  -4  176.79    8.18
  -4  -3   3  450.31   12.30
  -4  -3   3  452.26   12.90
  -4   3   3  436.93   12.95
   4  -3  -3  440.99   12.14
   4  -3  -3  442.29   12.63
   4   3  -3  444.19   11.98
   4   3  -3  435.57   12.68
   4   3  -3  435.95   11.27
  -4  -3   2    0.38    2.22
  -4  -3   2    2.66    2.76
  -4   3   2    0.00    2.38
  -4   3   2   -0.81    2.22
   4  -3  -2   -1.41    2.55
   4  -3  -2    3.41    2.60
   4   3  -2    1.25    2.28
   4   3  -2    1.68    2.66
   4   3  -2    2.49    1.90
  -4  -3   1    9.97    3.20
  -4  -3   1    9.76    3.31
  -4   3   1   10.41    3.41
  -4   3   1   16.26    1.84
  -4   3   1   10.78    3.31
   4  -3  -1   17.67    4.06
   4  -3  -1   17.29    1.35
   4  -3  -1   14.47    1.35
   4  -3  -1   14.25    3.20
   4  -3  -1   13.06    3.31
   4   3  -1   15.83    3.14
   4   3  -1   14.36    3.69
   4   3  -1   12.25    2.33
  -4  -3   0  220.09    9.10
  -4  -3   0  206.65    9.21
  -4   3   0  203.56    9.27
  -4   3   0  204.91    8.62
   4  -3   0  214.24    5.74
   4  -3   0  218.90    8.29
   4  -3   0  204.70    8.08
   4   3   0  216.40    7.70
   4   3   0  193.42    8.94
   4   3   0  212.18    5.58
  -4  -3  -1  302.57    9.32
  -4  -3  -1  307.07   11.22
  -4  -3  -1  289.35   10.78
  -4   3  -1  302.03   11.92
  -4   3  -1  287.24    9.65
   4  -3   1  316.94    8.62
   4  -3   1  313.09    9.92
   4  -3   1  298.24    9.70
   4   3   1  304.42    9.32
   4   3   1  290.65   10.84
   4   3   1  291.30    5.74
   4   3   1  308.64    6.07
  -4  -3  -2    1.73    2.55
  -4  -3  -2    6.61    3.90
  -4  -3  -2    0.22    2.98
  -4   3  -2    2.17    3.52
  -4   3  -2    3.96    2.49
   4  -3   2    2.28    2.82
   4  -3   2    4.17    2.71
   4   3   2    5.74    2.71
   4   3   2    4.12    2.93
   4   3   2    3.31    1.35
  -4  -3  -3   63.30    5.64
  -4  -3  -3   70.02    7.26
  -4   3  -3   62.65    7.42
  -4   3  -3   59.40    5.58
   4  -3   3   66.44    6.56
   4  -3   3   71.00    6.07
   4   3   3   66.39    7.21
   4   3   3   64.49    6.40
   4   3   3   66.23    3.58
  -4  -3  -4    6.56    3.69
  -4  -3  -4    5.80    4.55
  -4   3  -4    7.75    4.66
   4  -3   4    2.71    4.23
   4  -3   4    2.55    2.98
   4   3   4   10.62    4.82
   4   3   4    7.32    3.52
   4   3   4    8.67    2.22
  -4  -3  -5   29.54    6.83
  -4   3  -5   23.52    6.99
   4  -3   5   31.38    6.72
   4  -3   5   25.96    5.09
   4   3   5   30.46    7.10
  -4   3  -6    3.20    4.93
   4  -3   6    3.96    5.15
   4  -3   6   -2.01    2.87
   4   3   6    5.91    5.58
  -4   3  -7   -1.63    4.93
   4  -3   7   -5.58    4.99
   4  -3   7   -1.68    3.31
   4   3   7    3.36    6.45
  -4   3  -8    2.11    5.96
   4  -3   8   -3.79    7.10
   4  -3   8    2.06    4.06
   4   3   8    7.70    6.77
  -4  -4  11   -2.82    7.21
   4   4 -11    1.90    5.58
  -4  -4  10   -3.03    6.07
  -4   4  10   -3.69    5.04
   4   4 -10    5.15    5.74
  -4  -4   9    4.66    6.40
  -4   4   9    0.81    4.28
  -4   4   9    0.81    3.69
   4  -4  -9   -1.95    4.93
   4   4  -9   -0.49    4.39
  -4  -4   8   10.73    7.10
  -4   4   8    4.23    4.06
  -4   4   8    6.29    4.34
   4  -4  -8    4.88    5.31
   4   4  -8    4.06    4.99
  -4  -4   7   86.82    9.38
  -4  -4   7   75.22    6.72
  -4   4   7   87.42    6.72
  -4   4   7   86.01    7.80
   4  -4  -7   93.70    9.00
   4   4  -7   88.07    8.67
   4   4  -7   91.32    7.26
   4   4  -7   92.95    8.56
  -4  -4   6  447.39   16.04
  -4  -4   6  444.62   13.49
  -4   4   6  478.28   12.19
  -4   4   6  467.65   15.39
   4  -4  -6  474.86   14.42
   4  -4  -6  458.77   15.93
   4   4  -6  441.37   15.17
   4   4  -6  477.90   14.09
   4   4  -6  442.35   15.39
  -4  -4   5    1.73    3.25
  -4  -4   5    3.09    2.87
  -4   4   5    0.43    1.90
  -4   4   5    1.25    2.93
   4  -4  -5    2.33    2.87
   4  -4  -5    3.25    3.36
   4   4  -5   -0.81    2.87
   4   4  -5    1.57    2.60
   4   4  -5    2.93    3.09
  -4  -4   4   -0.54    2.76
  -4  -4   4    2.38    2.87
  -4   4   4    1.08    1.52
  -4   4   4    4.17    3.20
   4  -4  -4    0.38    2.76
   4  -4  -4    5.31    3.41
   4   4  -4   -1.63    3.03
   4   4  -4   -0.60    2.55
   4   4  -4    1.08    2.66
  -4  -4   3    2.33    3.09
  -4  -4   3    5.91    3.14
  -4   4   3    2.93    1.30
  -4   4   3    5.20    3.25
   4  -4  -3    1.63    2.44
   4  -4  -3    5.20    1.35
   4  -4  -3    1.30    2.71
   4   4  -3    2.11    2.55
   4   4  -3    5.15    3.09
   4   4  -3    1.79    2.38
  -4  -4   2    4.17    3.03
  -4  -4   2    6.12    3.20
  -4   4   2    9.38    3.47
  -4   4   2    2.38    2.98
   4  -4  -2    4.99    2.82
   4  -4  -2    7.53    1.25
   4  -4  -2    6.99    3.20
   4   4  -2    8.67    2.82
   4   4  -2    8.78    3.41
   4   4  -2    8.02    2.60
  -4  -4   1    3.85    3.03
  -4  -4   1    4.06    3.14
  -4   4   1    1.73    2.76
  -4   4   1    5.20    3.03
   4  -4  -1    6.94    3.36
   4  -4  -1    5.47    1.46
   4  -4  -1    2.98    2.87
   4   4  -1    4.28    2.44
   4   4  -1    5.53    3.31
   4   4  -1    3.47    2.06
  -4  -4   0   11.11    3.74
  -4  -4   0   11.98    4.01
  -4   4   0    9.59    3.74
  -4   4   0   12.95    3.79
   4  -4   0   13.06    2.55
   4  -4   0    9.92    3.36
   4   4   0   12.41    2.93
   4   4   0   11.87    4.12
   4   4   0   11.33    2.44
  -4  -4  -1   10.89    4.01
  -4   4  -1    9.54    3.79
  -4   4  -1    9.10    3.31
   4  -4   1    8.29    2.87
   4  -4   1    9.92    3.41
   4   4   1   10.73    2.76
   4   4   1   11.33    3.74
   4   4   1   11.60    2.33
   4   4   1    9.21    2.17
  -4  -4  -2   64.55    5.09
  -4  -4  -2   68.39    7.21
  -4   4  -2   56.47    6.72
  -4   4  -2   60.70    5.69
   4  -4   2   49.48    5.26
   4  -4   2   68.83    6.34
   4   4   2   68.02    5.09
   4   4   2   58.10    6.77
   4   4   2   65.36    4.01
  -4  -4  -3   57.56    7.97
  -4   4  -3   48.99    7.59
   4  -4   3   50.67    6.29
   4  -4   3   49.70    6.07
   4   4   3   58.69    7.91
   4   4   3   55.60    6.34
   4   4   3   51.70    4.01
  -4  -4  -4   25.91    6.50
  -4   4  -4   31.92    6.94
   4  -4   4   22.33    5.80
   4  -4   4   20.32    4.93
   4   4   4   31.33    6.77
   4   4   4   20.81    4.93
  -4  -4  -5    4.82    4.88
  -4   4  -5   -1.79    4.17
   4  -4   5   -6.34    4.17
   4  -4   5    1.79    3.52
   4   4   5    3.31    4.72
  -4  -4  -6    0.70    5.15
  -4   4  -6   -3.36    4.66
   4  -4   6   -9.70    4.50
   4  -4   6   -2.11    3.52
   4   4   6    1.79    4.88
  -4   4  -7    0.87    5.53
   4  -4   7    0.22    5.58
   4  -4   7    0.05    3.85
   4   4   7    2.87    5.58
   4  -4   8   -5.69    5.42
  -4  -5  11    2.33    9.48
   4   5 -11    7.32    5.91
  -4  -5  10   -1.14    8.24
   4   5 -10   -2.66    4.66
  -4  -5   9   22.71    8.24
  -4   5   9   32.95    6.61
   4   5  -9   29.05    7.53
  -4  -5   8    9.05    5.96
  -4   5   8    5.96    4.66
   4   5  -8   14.58    5.91
  -4  -5   7    6.50    5.53
  -4   5   7    6.18    4.01
   4  -5  -7   14.74    5.31
   4   5  -7    7.15    4.50
   4   5  -7    6.99    3.58
   4   5  -7    2.17    4.12
  -4  -5   6   21.46    5.80
  -4  -5   6   16.96    4.55
  -4   5   6   15.55    4.82
   4  -5  -6   14.36    4.55
   4   5  -6   19.89    5.58
   4   5  -6   13.06    4.12
   4   5  -6   15.61    4.99
  -4  -5   5  146.60    9.92
  -4  -5   5  149.63    8.94
  -4   5   5  146.00    9.70
   4  -5  -5  157.66    8.83
   4  -5  -5  135.38    9.48
   4   5  -5  154.02    9.10
   4   5  -5  137.39    8.62
   4   5  -5  150.72    9.70
  -4  -5   4   -1.63    3.25
  -4  -5   4   -4.23    2.55
  -4   5   4   -0.33    3.74
   4  -5  -4   -1.19    2.82
   4  -5  -4   -0.81    1.79
   4  -5  -4    1.14    3.20
   4   5  -4   -0.92    2.55
   4   5  -4    0.43    3.31
   4   5  -4   -1.30    2.71
  -4  -5   3  217.32   10.57
  -4  -5   3  237.81   10.95
  -4   5   3  226.38   11.16
   4  -5  -3  227.46    9.59
   4  -5  -3  250.55    7.21
   4  -5  -3  214.29   10.51
   4   5  -3  221.17    9.05
   4   5  -3  219.49   10.57
   4   5  -3  229.84    9.92
  -4  -5   2   83.62    7.15
  -4  -5   2   83.52    7.32
  -4   5   2   81.13    6.23
  -4   5   2   82.43    7.10
   4  -5  -2   87.47    6.77
   4  -5  -2   87.09    4.34
   4  -5  -2   86.17    7.10
   4   5  -2   82.92    5.58
   4   5  -2   79.78    7.10
   4   5  -2   84.27    6.23
  -4  -5   1    1.63    3.09
  -4   5   1   -0.22    2.60
  -4   5   1   -0.49    2.82
   4  -5  -1   -0.11    2.87
   4  -5  -1   -0.05    1.52
   4  -5  -1    0.11    2.98
   4   5  -1   -1.90    1.84
   4   5  -1    0.60    2.98
   4   5  -1   -0.16    2.11
  -4  -5   0    6.50    3.85
  -4   5   0    1.14    3.36
  -4   5   0   -0.11    2.93
   4  -5   0   11.60    2.49
   4  -5   0    6.12    3.58
   4   5   0   -0.98    1.95
   4   5   0    7.26    3.74
   4   5   0    1.46    2.17
  -4  -5  -1   11.60    4.55
  -4   5  -1   17.40    4.77
  -4   5  -1   14.25    4.12
   4  -5   1   15.50    3.47
   4  -5   1   15.28    4.34
   4   5   1   14.52    4.55
   4   5   1   15.34    3.14
  -4  -5  -2    3.63    4.01
  -4   5  -2    0.87    3.69
  -4   5  -2    2.93    2.93
   4  -5   2   -0.60    3.09
   4  -5   2    0.92    3.41
   4   5   2    0.38    3.31
  -4  -5  -3    3.09    4.17
  -4   5  -3    3.63    4.44
   4  -5   3   -1.46    3.58
   4  -5   3    4.61    3.69
   4   5   3    4.77    3.85
  -4  -5  -4   11.16    6.02
  -4   5  -4   12.09    5.42
   4  -5   4    2.82    4.72
   4  -5   4    6.02    4.12
   4   5   4    9.76    5.09
   4   5   4    8.29    4.39
  -4  -5  -5   12.30    6.12
  -4   5  -5   12.09    6.18
   4  -5   5    6.67    5.74
   4  -5   5   13.22    4.88
   4   5   5   14.90    6.23
  -4  -5  -6   10.95    6.56
  -4   5  -6    9.16    6.12
   4  -5   6   11.98    6.88
   4  -5   6   14.42    5.42
   4   5   6   13.44    7.05
  -4  -5  -7   -7.10    5.15
  -4   5  -7    2.60    6.02
   4  -5   7   -6.88    6.18
   4  -5   7   -2.22    4.34
   4   5   7    1.52    5.80
  -4  -6  10    7.26    7.42
   4   6 -10   -1.30    4.55
  -4  -6   9    3.52    6.56
  -4   6   9    7.15    4.77
   4   6  -9   -1.57    4.23
  -4  -6   8   -5.85    6.18
  -4   6   8    3.85    4.12
   4   6  -8   -1.03    4.06
  -4  -6   7    4.77    5.04
  -4   6   7    0.76    3.58
   4   6  -7    7.53    4.82
   4   6  -7    1.08    3.74
   4   6  -7    4.50    4.39
  -4  -6   6   10.51    5.47
  -4   6   6   13.60    5.09
   4   6  -6   24.44    5.85
   4   6  -6   18.16    4.93
   4   6  -6   13.66    5.04
  -4  -6   5  303.39   14.20
  -4   6   5  299.49   14.15
   4  -6  -5  321.11   11.76
   4   6  -5  307.51   12.79
   4   6  -5  317.75   13.49
   4   6  -5  311.63   13.93
  -4  -6   4   30.13    6.23
  -4   6   4   19.02    5.42
   4  -6  -4   21.24    4.55
   4  -6  -4   25.69    5.74
   4   6  -4   24.77    4.99
   4   6  -4   25.69    5.53
   4   6  -4   22.87    5.15
  -4  -6   3   -5.53    3.41
  -4   6   3   -3.47    4.28
   4  -6  -3    0.43    3.03
   4  -6  -3    1.19    3.63
   4   6  -3   -0.54    2.60
   4   6  -3   -0.98    3.69
   4   6  -3    1.19    2.82
  -4  -6   2  139.66    9.54
  -4   6   2  154.62    8.67
  -4   6   2  150.28   10.08
   4  -6  -2  149.74    8.67
   4  -6  -2  132.45    9.21
   4   6  -2  151.75    7.15
   4   6  -2  150.50    9.86
   4   6  -2  132.51    8.18
  -4  -6   1   10.19    4.61
  -4   6   1    9.21    4.01
  -4   6   1   -2.17    3.74
   4  -6  -1    0.70    3.79
   4  -6  -1    0.43    3.58
   4   6  -1    6.34    3.90
   4   6  -1    8.24    3.25
  -4  -6   0   11.54    4.72
  -4   6   0   12.90    4.66
  -4   6   0   11.38    4.12
   4  -6   0   11.54    4.28
   4   6   0    8.08    4.39
   4   6   0   11.76    3.41
  -4  -6  -1    4.12    4.12
  -4   6  -1    3.47    3.69
  -4   6  -1   -0.60    3.52
   4  -6   1    6.45    4.12
   4   6   1    4.82    3.90
   4   6   1    5.96    2.82
  -4  -6  -2   -0.05    4.01
  -4   6  -2   -0.92    3.96
  -4   6  -2   -5.64    2.60
   4  -6   2    3.58    3.96
   4   6   2    2.38    3.85
  -4  -6  -3   -3.96    3.74
  -4   6  -3    0.65    4.34
   4  -6   3    3.63    4.17
   4   6   3   -2.33    3.85
  -4  -6  -4    4.66    5.31
  -4   6  -4   -0.98    4.23
   4  -6   4    3.90    4.23
   4   6   4    0.54    4.50
   4   6   4   -0.76    3.90
  -4  -6  -5   -3.79    4.50
  -4   6  -5    0.11    4.88
   4  -6   5   -3.20    3.47
   4   6   5    5.64    5.47
   4   6   5   -2.06    4.44
  -4  -6  -6   -0.76    5.58
  -4   6  -6    0.98    6.07
   4  -6   6    5.42    4.77
   4   6   6   12.47    6.34
   4  -6   7   -2.01    4.77
   4   7 -10    5.58    5.53
  -4  -7   9    0.00    5.47
  -4   7   9    6.67    4.55
   4   7  -9   -0.11    4.72
  -4  -7   8    2.11    5.15
  -4   7   8    0.81    3.90
   4   7  -8    6.67    5.04
  -4  -7   7   13.22    6.94
  -4   7   7    5.53    5.37
   4   7  -7    9.76    5.15
  -4  -7   6    1.90    4.28
  -4   7   6    1.35    3.96
   4   7  -6    2.98    3.58
   4   7  -6    0.05    3.63
   4   7  -6   -2.11    3.79
  -4  -7   5   17.02    5.53
  -4   7   5   17.07    5.80
   4   7  -5   17.02    4.61
   4   7  -5   16.91    5.47
   4   7  -5   15.72    5.53
  -4  -7   4   34.90    7.15
  -4   7   4   33.87    6.99
   4   7  -4   45.90    5.69
   4   7  -4   35.61    6.61
   4   7  -4   34.20    6.45
  -4  -7   3    1.41    4.01
  -4   7   3    0.65    4.01
   4  -7  -3   -1.35    2.76
   4  -7  -3   -3.25    3.63
   4   7  -3   -4.44    3.47
   4   7  -3   -2.38    2.98
  -4  -7   2    7.75    4.82
  -4   7   2    9.76    3.85
  -4   7   2   12.14    5.37
   4  -7  -2   11.76    4.34
   4  -7  -2   11.60    4.93
   4   7  -2   14.47    5.20
   4   7  -2   17.67    4.82
  -4  -7   1    2.82    4.06
  -4   7   1    5.91    3.96
  -4   7   1    4.55    4.77
   4  -7  -1    5.26    3.52
   4  -7  -1    5.64    4.50
   4   7  -1    5.69    4.44
   4   7  -1    1.35    3.09
  -4  -7   0   49.37    7.97
  -4   7   0   48.45    7.10
  -4   7   0   43.36    7.32
   4  -7   0   57.61    8.29
   4   7   0   45.85    7.70
   4   7   0   39.45    5.64
  -4  -7  -1    4.34    4.50
  -4   7  -1   -1.08    3.36
  -4   7  -1    0.05    3.69
   4  -7   1   -1.19    3.63
   4   7   1   -1.30    3.96
   4   7   1    1.03    2.93
  -4  -7  -2    0.98    4.44
  -4   7  -2    2.01    4.66
  -4   7  -2    4.93    3.69
   4  -7   2    8.51    4.61
   4   7   2   -1.03    4.01
  -4  -7  -3   11.76    6.02
  -4   7  -3    0.49    4.34
   4  -7   3    8.35    5.04
   4   7   3    6.61    5.47
  -4  -7  -4   -1.19    5.26
  -4   7  -4   -1.90    4.77
   4  -7   4    1.25    4.55
   4   7   4    2.06    4.77
   4   7   4   -2.22    4.88
  -4  -7  -5    5.69    6.23
  -4   7  -5    7.86    5.96
   4  -7   5    7.91    5.47
   4   7   5   10.89    6.34
   4   7   5    0.22    5.42
  -4  -7  -6    2.49    6.56
  -4   7  -6    1.57    5.91
   4  -7   6   10.62    5.85
   4   7   6   11.71    7.05
  -4  -8   9    2.06    6.40
  -4   8   9   12.25    6.12
   4   8  -9    4.82    5.91
  -4  -8   8    6.99    6.12
  -4   8   8    6.34    5.31
   4   8  -8    1.63    4.50
  -4  -8   7    6.83    5.64
  -4   8   7    6.40    5.31
   4   8  -7    7.75    4.72
  -4  -8   6   41.62    8.62
  -4   8   6   53.06    9.43
   4   8  -6   56.47    8.62
   4   8  -6   52.46    8.13
   4   8  -6   44.44    8.51
  -4  -8   5   11.49    6.29
  -4   8   5    9.86    5.80
   4   8  -5    6.29    4.93
   4   8  -5    9.86    5.42
  -4  -8   4   -0.98    4.23
  -4   8   4    3.74    4.72
   4   8  -4    2.76    4.61
   4   8  -4    0.00    4.17
  -4  -8   3   19.67    6.18
  -4   8   3   24.66    6.99
   4   8  -3   24.66    6.40
   4   8  -3   15.99    5.15
  -4  -8   2   48.07    8.02
  -4   8   2   46.50    8.02
   4   8  -2   64.44    9.10
   4   8  -2   56.58    7.91
  -4  -8   1   -1.35    4.01
  -4   8   1    0.16    3.58
  -4   8   1   -4.28    3.74
   4  -8  -1   -2.76    4.77
   4  -8  -1    2.44    4.82
   4   8  -1   -0.38    4.72
   4   8  -1    1.30    3.47
  -4  -8   0   -1.57    4.12
  -4   8   0    2.06    4.06
  -4   8   0   -3.14    3.41
   4  -8   0    0.98    3.74
   4  -8   0    1.57    4.06
   4   8   0    4.77    4.77
   4   8   0    3.14    3.47
  -4  -8  -1    0.33    4.44
  -4   8  -1   -2.28    4.01
  -4   8  -1   -3.25    3.74
   4  -8   1   -1.41    4.01
   4   8   1   -0.98    4.28
   4   8   1   -0.60    2.82
  -4  -8  -2   -2.22    4.55
  -4   8  -2    0.22    4.01
   4  -8   2    4.82    4.77
   4   8   2    0.98    4.82
  -4  -8  -3    4.88    5.58
  -4   8  -3    5.53    5.42
   4  -8   3    6.40    5.09
   4   8   3    2.60    5.42
  -4  -8  -4   -0.60    5.31
  -4   8  -4    3.25    5.09
   4  -8   4   -0.27    4.61
   4   8   4    2.98    5.37
  -4  -8  -5   -1.41    6.02
  -4   8  -5    2.49    5.80
   4  -8   5    2.11    5.42
   4   8   5    1.14    5.69
   4   8   5   -4.23    5.69
  -4   9   8    8.24    5.37
  -4  -9   7    4.44    5.80
  -4   9   7    0.70    4.72
  -4  -9   6   -1.35    4.66
  -4   9   6    6.56    5.69
   4   9  -6    2.22    5.26
  -4  -9   5    2.76    5.09
  -4   9   5   -0.54    4.82
   4   9  -5    0.49    4.34
   4   9  -5    0.98    4.77
  -4  -9   4   -0.33    4.50
  -4   9   4   -1.52    4.93
   4   9  -4    1.90    4.72
   4   9  -4   -0.98    4.23
  -4  -9   3    3.36    5.53
  -4   9   3    1.90    5.09
   4   9  -3    9.92    5.47
   4   9  -3    1.30    4.44
  -4  -9   2   23.20    6.77
  -4   9   2   20.22    7.21
   4   9  -2   14.69    6.18
   4   9  -2   21.62    6.02
  -4  -9   1    1.84    5.09
  -4   9   1    4.39    5.53
   4   9  -1    8.08    5.53
   4   9  -1   12.03    5.09
  -4  -9   0   46.17    9.27
  -4   9   0   37.61    7.86
   4   9   0   28.29    7.75
   4   9   0   39.78    7.32
  -4  -9  -1   13.06    6.34
  -4   9  -1   14.25    5.69
   4   9   1   10.84    6.56
  -4  -9  -2   -0.60    6.12
  -4   9  -2    4.55    5.09
   4  -9   2    0.33    5.69
   4   9   2    5.15    5.96
  -4  -9  -3    8.45    6.23
  -4   9  -3    5.04    5.26
   4  -9   3   -2.33    5.20
   4   9   3    5.09    5.85
  -4   9  -4   14.31    7.10
   4  -9   4    3.20    6.12
   4   9   4    1.84    6.45
   4  -9   5    2.11    6.02
   4   9   5   -2.82    6.34
  -4 -10   6   17.99    7.86
  -4  10   6    8.67    6.56
  -4 -10   5    6.56    5.91
  -4  10   5    0.60    5.74
   4  10  -5   -4.99    4.72
  -4 -10   4   -0.16    5.15
  -4  10   4    2.66    5.42
   4  10  -4   -2.38    4.66
   4  10  -4   -4.72    4.34
  -4 -10   3    0.27    4.99
  -4  10   3    1.03    5.80
   4  10  -3   -1.25    4.93
   4  10  -3   -1.19    4.39
  -4 -10   2    6.99    5.80
  -4  10   2    3.69    6.50
   4  10  -2    5.53    6.12
   4  10  -2    5.04    4.93
  -4 -10   1   12.68    6.88
  -4  10   1   13.12    7.26
   4  10  -1   12.09    6.67
   4  10  -1   14.90    5.96
  -4 -10   0    5.31    6.23
  -4  10   0    5.80    5.47
   4  10   0    3.90    6.07
   4  10   0    9.48    5.26
  -4 -10  -1    0.16    5.85
  -4  10  -1    3.74    5.64
   4  10   1    0.16    5.80
  -4 -10  -2   -4.12    5.26
   4  10   2   -5.91    5.58
   4  11  -5    1.57    6.88
   4  11  -4   -1.57    6.45
   4  11  -3    6.88    7.26
   4  11  -3   10.78    6.18
  -4  11   2    3.14    5.85
   4  11  -2   -3.52    6.56
   4  11  -2    2.55    5.37
  -4  11   1    4.28    5.91
   4  11  -1   -2.66    4.55
  -4  11   0    5.42    6.56
  -5   0  13    0.70    8.67
  -5   0  12   15.99    8.94
   5   0 -12   -7.10    6.18
  -5   0  11   44.60    9.92
   5   0 -11   28.34    8.51
  -5   0  10   10.73    7.32
   5   0 -10   -0.27    5.69
  -5   0   9   44.39    7.91
  -5   0   9   40.32    6.12
   5   0  -9   52.46    8.73
  -5   0   8    1.03    4.99
  -5   0   8    0.60    3.09
   5   0  -8    2.44    4.82
   5   0  -8    2.76    4.23
  -5   0   7   22.11    5.09
  -5   0   7   22.22    4.77
   5   0  -7   22.82    5.69
   5   0  -7   19.13    5.31
  -5   0   6   -0.05    3.03
  -5   0   6   -0.87    2.87
   5   0  -6    1.90    3.52
   5   0  -6   -2.17    2.71
  -5   0   5  310.22    9.16
  -5   0   5  300.41   11.22
   5   0  -5  306.15   11.87
   5   0  -5  304.91   11.22
  -5   0   4   -0.22    1.52
  -5   0   4   -1.52    2.33
   5   0  -4    0.70    2.76
   5   0  -4    0.87    2.33
  -5   0   3   82.97    3.96
   5   0  -3   81.84    6.50
   5   0  -3   86.60    5.47
  -5   0   2   -0.38    1.35
  -5   0   2   -0.38    2.60
   5   0  -2    0.43    2.44
   5   0  -2    1.03    1.73
  -5   0   1   61.02    5.69
  -5   0   1   58.64    3.90
  -5   0   1   59.51    5.53
   5   0  -1   58.53    5.64
   5   0  -1   59.99    3.69
  -5   0   0   -1.95    2.55
  -5   0   0    1.03    2.01
  -5   0   0   -0.81    2.17
   5   0   0    1.03    2.98
   5   0   0    0.43    1.84
   5   0   0   -0.11    1.19
  -5   0  -1  147.03    8.89
  -5   0  -1  141.40    7.15
  -5   0  -1  138.14    7.70
   5   0   1  156.19    7.32
   5   0   1  143.73    4.28
   5   0   1  136.36    4.06
  -5   0  -2    2.11    3.36
  -5   0  -2    0.22    2.55
   5   0   2    1.46    2.76
   5   0   2    1.08    1.19
   5   0   2   -0.27    1.14
  -5   0  -3   70.94    7.53
  -5   0  -3   59.40    5.53
   5   0   3   76.25    7.32
   5   0   3   77.88    6.23
   5   0   3   67.47    3.79
   5   0   3   58.10    3.63
  -5   0  -4    4.50    4.34
   5   0   4    2.76    4.23
   5   0   4    0.16    1.73
  -5   0  -5   45.20    8.02
   5   0   5   45.42    8.13
   5   0   5   41.89    4.34
  -5   0  -6    0.11    4.50
   5   0   6    2.11    4.93
   5   0   6    0.92    2.44
  -5   0  -7    9.05    6.34
   5   0   7   10.13    7.59
   5   0   7    8.24    3.41
  -5   0  -8    2.44    5.37
   5   0   8   -2.17    7.26
  -5  -1  12    3.96    8.62
  -5   1  12   11.38    8.24
   5  -1 -12   -3.85    5.58
   5   1 -12   -3.31    5.53
  -5  -1  11   11.38    7.70
  -5   1  11    7.26    6.72
   5  -1 -11   -4.39    5.85
   5   1 -11   -4.55    5.20
  -5  -1  10   19.46    8.51
  -5   1  10   13.17    7.10
   5  -1 -10    5.15    6.50
   5   1 -10    9.05    7.32
  -5  -1   9  148.60   11.92
  -5   1   9  155.32   10.84
  -5   1   9  151.80    9.65
   5  -1  -9  149.09   11.71
   5   1  -9  144.21   11.60
  -5  -1   8   10.68    6.45
  -5  -1   8   -1.73    2.87
  -5   1   8    7.26    5.15
  -5   1   8    2.01    3.58
   5  -1  -8    4.88    5.53
   5  -1  -8   -0.76    3.47
   5   1  -8    9.10    5.74
   5   1  -8   -1.73    3.74
  -5  -1   7  295.64   12.68
  -5  -1   7  279.38   11.44
  -5   1   7  310.16   11.33
  -5   1   7  278.19   11.87
   5  -1  -7  273.15   12.74
   5  -1  -7  264.80   12.47
   5   1  -7  289.68   13.28
   5   1  -7  279.98   12.63
  -5  -1   6   33.71    5.31
  -5  -1   6   32.63    5.26
  -5   1   6   40.00    4.99
  -5   1   6   28.40    4.99
   5  -1  -6   33.33    5.74
   5  -1  -6   35.50    5.69
   5   1  -6   36.04    5.96
   5   1  -6   33.49    5.42
  -5  -1   5   98.04    6.23
  -5  -1   5  103.51    7.48
  -5   1   5  109.42    5.53
  -5   1   5   96.96    7.15
   5  -1  -5  102.97    7.70
   5  -1  -5  100.21    7.32
   5   1  -5  105.74    7.75
   5   1  -5  111.97    7.21
  -5  -1   4   25.04    3.58
  -5  -1   4   20.97    4.23
  -5   1   4   22.44    2.28
  -5   1   4   20.05    4.39
   5  -1  -4   22.17    4.66
   5  -1  -4   21.62    3.90
   5   1  -4   21.19    4.50
   5   1  -4   21.95    3.85
  -5  -1   3    8.18    2.38
  -5  -1   3    1.73    2.76
  -5   1   3    7.48    1.25
  -5   1   3    4.06    2.98
   5  -1  -3    6.72    3.25
   5  -1  -3    4.99    2.55
   5   1  -3    6.56    3.25
   5   1  -3    9.16    2.66
  -5  -1   2   47.96    3.85
  -5  -1   2   50.46    5.37
  -5   1   2   49.59    5.37
  -5   1   2   54.63    2.33
  -5   1   2   51.87    5.47
   5  -1  -2   55.50    5.58
   5  -1  -2   51.11    2.22
   5  -1  -2   48.99    4.28
   5   1  -2   52.35    5.26
   5   1  -2   56.91    3.96
  -5  -1   1   76.63    6.07
  -5  -1   1   82.87    5.09
  -5  -1   1   74.36    6.40
  -5   1   1   72.73    6.23
  -5   1   1   83.03    6.18
   5  -1  -1   84.92    6.56
   5  -1  -1   84.76    3.69
   5  -1  -1   83.14    4.72
   5   1  -1   76.85    5.96
   5   1  -1   75.17    3.69
  -5  -1   0   12.79    3.69
  -5  -1   0   14.96    3.41
  -5  -1   0   12.30    3.52
  -5   1   0   14.74    4.06
  -5   1   0   15.34    3.63
   5  -1   0   15.39    4.17
   5  -1   0   16.96    2.87
   5  -1   0   19.08    2.76
   5  -1   0   15.50    2.55
   5   1   0    9.48    3.36
   5   1   0   15.28    1.73
  -5  -1  -1   37.18    5.64
  -5  -1  -1   40.54    5.37
  -5  -1  -1   38.80    5.26
  -5   1  -1   43.41    6.29
  -5   1  -1   42.00    5.04
   5  -1   1   42.44    4.23
   5  -1   1   38.21    3.36
   5  -1   1   37.50    3.36
   5   1   1   46.34    5.64
   5   1   1   39.89    4.77
  -5  -1  -2   48.99    6.67
  -5  -1  -2   41.35    5.80
  -5  -1  -2   33.71    5.20
  -5   1  -2   34.31    6.18
  -5   1  -2   36.96    4.99
   5  -1   2   42.27    5.04
   5  -1   2   37.34    3.58
   5  -1   2   36.04    3.47
   5   1   2   41.08    5.80
   5   1   2   40.32    5.37
  -5  -1  -3    0.54    3.31
  -5  -1  -3    1.08    3.36
  -5  -1  -3    2.28    2.98
  -5   1  -3    2.82    3.96
   5  -1   3    5.31    3.58
   5  -1   3    2.87    2.01
   5   1   3    4.50    3.58
   5   1   3    3.36    2.93
   5   1   3    2.55    1.14
   5   1   3    1.90    1.08
  -5  -1  -4    5.09    3.96
  -5   1  -4    1.95    4.23
   5  -1   4    7.42    4.72
   5  -1   4    4.01    2.33
   5   1   4    2.22    3.90
   5   1   4    2.38    1.57
  -5  -1  -5   -5.58    3.79
  -5   1  -5   -4.06    4.34
   5  -1   5    0.38    4.61
   5  -1   5   -0.27    2.17
   5   1   5    4.28    4.82
  -5  -1  -6    2.98    4.82
  -5   1  -6    7.86    5.91
   5  -1   6   -6.40    5.20
   5  -1   6   -1.19    2.44
   5   1   6   -1.46    5.04
  -5  -1  -7    9.10    6.07
  -5   1  -7   11.38    6.45
   5  -1   7    4.66    7.21
   5  -1   7   11.00    3.85
   5   1   7   16.96    7.80
   5  -1   8  -11.00    7.26
  -5  -2  12    5.69    8.83
   5  -2 -12   -1.35    5.91
   5   2 -12    2.28    5.85
  -5  -2  11   16.10    9.38
   5  -2 -11   -3.69    6.99
   5   2 -11    5.69    6.02
  -5  -2  10    6.29    7.26
  -5   2  10    6.45    6.72
   5  -2 -10    2.22    6.50
   5   2 -10   -2.44    5.20
  -5  -2   9    8.45    5.91
  -5   2   9    2.87    4.66
  -5   2   9    2.93    3.74
   5  -2  -9    9.32    6.29
   5   2  -9    7.64    5.47
  -5  -2   8  148.28   11.06
  -5  -2   8  137.44    8.67
  -5   2   8  150.45    9.32
  -5   2   8  144.43    9.70
   5  -2  -8  155.81   11.54
   5   2  -8  135.49   11.11
   5   2  -8  139.77   10.73
  -5  -2   7  265.18   12.90
  -5  -2   7  257.16   11.16
  -5   2   7  277.10   10.57
  -5   2   7  250.66   11.54
   5  -2  -7  273.85   13.17
   5  -2  -7  277.97   13.17
   5   2  -7  260.90   13.22
   5   2  -7  284.91   12.95
  -5  -2   6   -2.49    3.69
  -5  -2   6    4.12    3.03
  -5   2   6   12.79    3.69
  -5   2   6    4.23    3.31
   5  -2  -6    2.71    3.85
   5  -2  -6    2.66    3.41
   5   2  -6   -0.16    3.69
   5   2  -6    3.41    3.14
  -5  -2   5   14.20    3.90
  -5  -2   5   11.81    3.74
  -5   2   5   12.68    2.55
  -5   2   5   12.52    4.12
   5  -2  -5   10.62    4.06
   5  -2  -5   14.80    4.23
   5   2  -5   11.81    4.12
   5   2  -5   12.79    3.90
  -5  -2   4   92.73    6.18
  -5  -2   4   97.61    7.10
  -5   2   4  105.79    7.53
   5  -2  -4  110.51    7.75
   5  -2  -4  101.18    7.05
   5   2  -4   85.74    6.77
   5   2  -4  103.89    6.61
  -5  -2   3   33.38    4.39
  -5  -2   3   34.41    5.20
  -5   2   3   27.53    4.77
   5  -2  -3   27.59    4.82
   5  -2  -3   23.20    4.06
   5   2  -3   32.08    4.93
   5   2  -3   30.57    4.01
  -5  -2   2    2.55    2.38
  -5  -2   2    3.85    2.93
  -5   2   2    2.66    3.09
  -5   2   2    1.68    2.71
   5  -2  -2    4.44    3.14
   5  -2  -2    2.87    2.28
   5   2  -2    2.17    2.55
   5   2  -2    1.63    1.79
  -5  -2   1   52.68    4.99
  -5  -2   1   54.68    5.74
  -5   2   1   50.46    5.74
  -5   2   1   50.19    5.37
   5  -2  -1   52.68    5.69
   5  -2  -1   45.09    2.28
   5  -2  -1   59.67    4.82
   5  -2  -1   50.51    4.55
   5   2  -1   52.52    4.99
   5   2  -1   50.62    3.31
  -5  -2   0   40.92    4.88
  -5  -2   0   50.29    5.31
  -5  -2   0   44.93    5.85
  -5   2   0   47.91    5.85
  -5   2   0   42.81    5.31
   5  -2   0   38.53    5.74
   5  -2   0   45.20    3.63
   5  -2   0   41.78    4.06
   5  -2   0   47.75    4.28
   5   2   0   45.09    4.88
   5   2   0   37.23    5.37
   5   2   0   40.65    2.22
  -5  -2  -1    1.14    2.66
  -5  -2  -1    1.08    2.71
  -5  -2  -1   -0.92    2.44
  -5   2  -1   -0.49    3.20
  -5   2  -1    3.09    2.87
   5  -2   1    1.03    2.22
   5  -2   1    0.43    1.90
   5  -2   1    0.33    1.95
   5   2   1   -0.92    2.28
   5   2   1   -0.49    2.55
  -5  -2  -2   67.96    6.72
  -5  -2  -2   74.95    7.42
  -5  -2  -2   73.54    6.45
  -5   2  -2   61.67    7.26
  -5   2  -2   75.01    6.23
   5  -2   2   70.89    5.96
   5  -2   2   63.79    5.04
   5   2   2   78.37    6.88
   5   2   2   76.36    6.94
   5   2   2   75.06    6.83
  -5  -2  -3    0.22    3.31
  -5  -2  -3    0.81    3.47
  -5  -2  -3    1.90    3.31
  -5   2  -3    4.77    4.44
   5  -2   3    0.60    3.47
   5  -2   3   -0.22    2.22
   5   2   3    0.81    3.47
   5   2   3    0.38    2.82
  -5  -2  -4    4.44    4.01
  -5  -2  -4   -2.60    3.63
  -5   2  -4    1.68    4.34
   5  -2   4    2.38    4.50
   5  -2   4    0.38    2.44
   5   2   4    0.60    3.96
   5   2   4    3.14    1.41
  -5  -2  -5   26.12    6.12
  -5   2  -5   22.71    7.48
   5  -2   5   21.62    6.56
   5  -2   5   20.65    4.28
   5   2   5   34.63    7.86
  -5   2  -6    7.48    5.58
   5  -2   6   -3.25    5.74
   5  -2   6    5.31    3.52
   5   2   6    1.79    5.37
  -5   2  -7    5.53    6.56
   5  -2   7  -13.44    5.91
   5  -2   7    5.20    3.69
   5   2   7    0.98    5.15
   5  -2   8   -2.01    7.70
  -5  -3  12    6.61    9.32
  -5  -3  11    5.58    8.29
   5  -3 -11   -8.24    6.56
   5   3 -11   -6.29    5.09
  -5  -3  10   -2.28    6.18
   5  -3 -10   -0.87    5.04
   5   3 -10    6.23    5.58
  -5  -3   9    7.97    6.29
  -5   3   9    6.18    4.17
   5  -3  -9    2.33    5.20
   5   3  -9    4.72    5.26
  -5  -3   8    4.82    5.74
  -5  -3   8   -3.03    2.98
  -5   3   8    5.58    4.39
   5  -3  -8    2.22    4.99
   5   3  -8   -1.30    4.72
   5   3  -8    2.76    3.25
   5   3  -8    2.38    4.39
  -5  -3   7   14.20    5.47
  -5  -3   7   17.13    4.61
  -5   3   7   15.66    5.04
   5  -3  -7   11.16    5.31
   5  -3  -7    9.70    4.72
   5   3  -7   13.33    5.26
   5   3  -7    8.89    4.50
  -5  -3   6   -0.92    3.36
  -5  -3   6    2.22    3.09
  -5   3   6   -0.65    3.14
   5  -3  -6    0.76    3.90
   5  -3  -6   -1.46    3.09
   5   3  -6   -3.58    3.63
   5   3  -6    2.98    3.31
  -5  -3   5  130.99    8.35
  -5  -3   5  139.61    8.51
  -5   3   5  140.20    9.27
   5  -3  -5  145.79    9.10
   5  -3  -5  144.38    8.94
   5   3  -5  127.25    8.45
   5   3  -5  126.87    8.24
  -5  -3   4  163.45    8.24
  -5  -3   4  167.63    9.16
  -5   3   4  168.77    9.43
   5  -3  -4  161.88    8.83
   5  -3  -4  164.10    9.05
   5   3  -4  150.94    8.45
   5   3  -4  169.63    8.40
  -5  -3   3   13.28    3.58
  -5  -3   3   14.20    4.17
  -5   3   3   18.86    4.50
   5  -3  -3   15.50    4.17
   5  -3  -3   14.90    3.85
   5   3  -3   20.32    4.39
   5   3  -3   13.55    3.09
  -5  -3   2   26.12    4.50
  -5  -3   2   27.91    5.09
  -5   3   2   30.62    5.47
  -5   3   2   24.71    4.82
   5  -3  -2   30.19    5.09
   5  -3  -2   26.99    4.23
   5   3  -2   28.99    4.99
   5   3  -2   24.44    4.77
   5   3  -2   25.96    3.52
  -5  -3   1   57.50    5.80
  -5  -3   1   54.30    6.02
  -5   3   1   61.30    6.40
  -5   3   1   56.74    5.74
   5  -3  -1   57.99    6.12
   5  -3  -1   51.49    5.15
   5   3  -1   55.23    5.04
   5   3  -1   49.53    5.96
   5   3  -1   59.40    3.85
  -5  -3   0    3.14    3.14
  -5  -3   0    4.99    3.25
  -5   3   0    1.30    3.20
  -5   3   0    2.60    2.76
   5  -3   0   -0.27    1.73
   5  -3   0    0.27    2.33
   5   3   0    4.23    2.82
   5   3   0    2.01    2.93
   5   3   0    1.57    1.35
  -5  -3  -1    8.08    3.41
  -5  -3  -1   10.57    4.23
  -5  -3  -1   11.38    3.96
  -5   3  -1    9.92    4.39
  -5   3  -1   12.19    3.74
   5  -3   1    9.59    2.98
   5  -3   1    7.10    3.03
   5   3   1   12.68    3.58
   5   3   1    9.86    3.90
  -5  -3  -2   29.86    5.15
  -5  -3  -2   29.92    6.12
  -5  -3  -2   26.18    5.09
  -5   3  -2   22.06    5.64
  -5   3  -2   25.09    4.50
   5  -3   2   33.33    5.26
   5  -3   2   27.75    4.61
   5   3   2   26.61    4.99
   5   3   2   25.63    5.96
   5   3   2   22.87    5.09
  -5  -3  -3   91.92    7.48
  -5  -3  -3  101.89    8.89
  -5   3  -3  110.07    9.86
   5  -3   3   87.31    7.64
   5  -3   3   95.82    6.99
   5   3   3  105.84    7.70
   5   3   3  102.05    9.65
   5   3   3  109.48    8.24
   5   3   3   98.20    3.03
  -5  -3  -4    2.98    4.50
  -5   3  -4    1.19    4.39
   5  -3   4    4.12    4.50
   5  -3   4    5.47    3.20
   5   3   4    1.08    4.12
   5   3   4    4.28    1.57
  -5  -3  -5    0.76    4.55
  -5   3  -5    7.26    5.53
   5  -3   5   -3.69    4.82
   5  -3   5    5.47    3.41
   5   3   5    7.42    5.74
  -5   3  -6    2.01    5.42
   5  -3   6   -3.52    5.47
   5  -3   6    1.03    3.36
   5   3   6   -0.54    4.99
  -5   3  -7    2.38    6.07
   5  -3   7   -8.51    6.12
   5  -3   7   -0.70    3.47
   5   3   7    3.25    6.77
  -5  -4  11    7.42    9.32
   5   4 -11    2.76    5.74
  -5  -4  10    0.16    6.56
   5  -4 -10   10.19   10.24
   5   4 -10    3.79    5.53
  -5  -4   9    3.90    7.05
  -5   4   9   -1.14    3.52
   5  -4  -9    7.05    6.56
   5   4  -9    4.44    5.20
  -5  -4   8   21.35    6.88
  -5  -4   8   20.65    4.77
  -5   4   8   18.59    5.31
   5  -4  -8   24.77    6.67
   5   4  -8   17.94    6.07
   5   4  -8   23.58    5.20
   5   4  -8   14.96    5.80
  -5  -4   7  154.84   11.06
  -5  -4   7  167.46   10.03
  -5   4   7  152.56   10.35
   5  -4  -7  175.70   10.73
   5   4  -7  168.66   11.44
   5   4  -7  171.80   10.03
   5   4  -7  168.93   11.38
  -5  -4   6   49.43    7.53
  -5  -4   6   49.64    6.83
  -5   4   6   46.77    6.99
   5  -4  -6   53.49    7.26
   5  -4  -6   37.83    6.77
   5   4  -6   48.23    7.37
   5   4  -6   43.14    6.23
   5   4  -6   51.43    7.32
  -5  -4   5    1.35    3.41
  -5  -4   5    4.12    3.47
  -5   4   5    4.50    3.74
   5  -4  -5    3.69    3.63
   5  -4  -5    3.79    3.69
   5   4  -5    4.61    3.74
   5   4  -5    3.63    3.41
   5   4  -5    7.37    3.96
  -5  -4   4   36.74    6.12
  -5  -4   4   37.34    5.96
  -5   4   4   37.72    6.29
   5  -4  -4   41.78    6.02
   5  -4  -4   42.16    6.12
   5   4  -4   41.68    5.85
   5   4  -4   32.68    5.58
   5   4  -4   37.99    5.42
  -5  -4   3    5.31    3.52
  -5  -4   3    3.03    3.25
  -5   4   3    5.15    3.63
   5  -4  -3    4.23    3.52
   5  -4  -3    2.11    2.93
   5   4  -3    0.81    3.03
   5   4  -3    6.67    3.90
   5   4  -3    4.23    2.66
  -5  -4   2  140.53    8.40
  -5  -4   2  136.52    8.89
  -5   4   2  129.37    8.29
  -5   4   2  135.71    8.67
   5  -4  -2  141.23    8.62
   5  -4  -2  141.13    8.40
   5   4  -2  141.02    7.70
   5   4  -2  143.62    9.27
   5   4  -2  135.00    6.72
  -5  -4   1   -0.11    3.09
  -5  -4   1    1.63    3.36
  -5   4   1    1.03    3.31
  -5   4   1    0.92    3.03
   5  -4  -1    2.11    3.25
   5  -4  -1    1.63    2.76
   5   4  -1    3.09    2.76
   5   4  -1    3.90    3.52
   5   4  -1    1.95    1.90
  -5  -4   0   -0.98    3.52
  -5  -4   0    0.65    3.20
  -5   4   0    2.60    3.47
  -5   4   0   -1.35    2.55
   5  -4   0   -0.16    2.55
   5   4   0    2.38    2.66
   5   4   0    0.76    3.25
   5   4   0    1.41    1.68
  -5  -4  -1   30.24    5.91
  -5  -4  -1   23.68    5.31
  -5   4  -1   32.46    6.23
  -5   4  -1   23.85    4.72
   5  -4   1   31.00    5.20
   5   4   1   29.54    4.61
   5   4   1   23.36    5.37
   5   4   1   24.01    2.76
  -5  -4  -2   39.56    6.83
  -5   4  -2   36.74    6.99
  -5   4  -2   50.29    5.74
   5  -4   2   36.37    5.42
   5   4   2   46.61    5.47
   5   4   2   42.44    6.72
  -5  -4  -3    9.32    5.37
  -5   4  -3   12.68    5.64
   5  -4   3    6.94    3.74
   5   4   3    9.81    5.04
   5   4   3   10.68    4.55
   5   4   3    9.27    2.01
  -5  -4  -4   -1.14    4.34
  -5   4  -4    2.38    4.66
   5  -4   4   -0.16    3.14
   5   4   4   -1.08    4.28
   5   4   4    0.22    3.52
  -5  -4  -5    6.29    5.58
  -5   4  -5    3.96    5.53
   5  -4   5    1.30    3.31
   5   4   5    6.02    5.85
  -5  -4  -6   -1.41    5.20
  -5   4  -6   -1.25    5.91
   5  -4   6   -0.98    3.47
   5   4   6   -1.84    5.09
  -5  -5  11    8.24    8.29
   5   5 -11   -0.70    5.42
  -5  -5  10    1.30    7.21
  -5   5  10    4.66    5.37
   5   5 -10   10.57    6.23
  -5  -5   9    6.67    6.88
  -5   5   9    9.05    5.20
   5   5  -9   13.93    5.96
  -5  -5   8    9.86    6.50
  -5  -5   8   11.11    7.37
  -5   5   8    6.61    4.50
   5  -5  -8    8.78    5.15
   5   5  -8    6.07    5.04
   5   5  -8   14.52    6.45
  -5  -5   7   17.99    6.23
  -5  -5   7   20.76    5.26
  -5   5   7   15.93    5.20
   5  -5  -7   19.29    5.64
   5   5  -7   17.51    5.80
   5   5  -7   20.76    4.88
   5   5  -7   14.90    5.37
  -5  -5   6   -7.53    3.74
  -5  -5   6   -0.70    3.14
  -5   5   6   -1.41    3.52
   5  -5  -6    2.01    3.69
   5  -5  -6    0.60    3.96
   5   5  -6    0.87    4.01
   5   5  -6   -0.22    3.63
   5   5  -6   -3.36    3.52
  -5  -5   5  332.38   14.04
  -5  -5   5  324.63   13.60
  -5   5   5  320.13   14.25
   5  -5  -5  342.30   13.17
   5  -5  -5  323.28   14.52
   5   5  -5  321.43   13.01
   5   5  -5  336.34   13.82
   5   5  -5  321.06   13.22
  -5  -5   4   94.03    8.35
  -5  -5   4   94.03    8.73
  -5   5   4  102.21    9.48
   5  -5  -4   93.60    7.53
   5  -5  -4   99.94    8.78
   5   5  -4   85.79    7.70
   5   5  -4   95.98    8.35
   5   5  -4   88.83    7.48
  -5  -5   3   72.08    7.37
  -5  -5   3   80.48    8.40
  -5   5   3   66.01    7.59
   5  -5  -3   71.81    6.72
   5  -5  -3   70.40    7.59
   5   5  -3   66.77    6.34
   5   5  -3   75.49    7.70
   5   5  -3   71.70    6.40
  -5  -5   2   18.75    5.20
  -5  -5   2   17.94    5.15
  -5   5   2   23.20    5.04
  -5   5   2   17.88    5.47
   5  -5  -2   20.49    4.93
   5  -5  -2   16.64    4.61
   5   5  -2   21.79    4.34
   5   5  -2   18.05    5.15
   5   5  -2   18.10    3.79
  -5  -5   1   90.18    8.08
  -5  -5   1   96.09    8.94
  -5   5   1   72.89    7.32
  -5   5   1   76.52    7.53
   5  -5  -1   70.13    7.32
   5  -5  -1   84.87    7.64
   5   5  -1   87.42    6.40
   5   5  -1   96.31    8.62
   5   5  -1   76.25    5.64
  -5  -5   0   58.10    7.75
  -5  -5   0   61.24    7.37
  -5   5   0   57.28    7.05
  -5   5   0   44.12    6.29
   5  -5   0   53.76    6.56
   5   5   0   50.29    7.64
   5   5   0   51.81    4.61
  -5  -5  -1   36.37    6.99
  -5   5  -1   37.94    6.83
  -5   5  -1   39.67    6.07
   5  -5   1   40.59    6.40
   5   5   1   38.42    6.67
   5   5   1   38.53    4.01
  -5  -5  -2   -2.98    3.63
  -5   5  -2    1.08    4.01
  -5   5  -2   -0.98    3.31
   5  -5   2    3.31    3.63
   5   5   2    6.29    4.61
  -5  -5  -3   22.49    6.45
  -5   5  -3   22.98    6.94
   5  -5   3   12.25    4.50
   5   5   3   25.20    6.67
   5   5   3   17.78    5.26
  -5  -5  -4    1.25    5.47
  -5   5  -4    0.38    5.15
   5  -5   4    3.69    3.96
   5   5   4    0.38    4.88
   5   5   4    1.41    4.44
  -5  -5  -5   14.85    7.32
  -5   5  -5   14.47    7.10
   5  -5   5   12.63    5.31
   5   5   5   11.60    6.56
  -5  -5  -6   -4.17    5.31
  -5   5  -6    0.00    5.74
   5  -5   6   -0.87    3.74
   5   5   6    3.85    5.96
  -5  -6  10   -2.82    7.86
  -5   6  10    2.55    4.82
   5   6 -10    5.74    5.42
  -5  -6   9   -3.09    5.91
  -5   6   9    3.09    4.34
   5   6  -9    7.75    5.47
  -5  -6   8    4.72    5.31
  -5   6   8    5.53    5.15
   5   6  -8    3.41    4.23
  -5  -6   7    8.29    5.42
  -5   6   7    9.54    4.93
   5   6  -7   10.89    4.88
   5   6  -7    6.88    4.44
   5   6  -7    7.97    4.99
  -5  -6   6   12.84    5.69
  -5   6   6   11.60    4.99
   5  -6  -6   20.59    5.58
   5   6  -6   12.19    4.77
   5   6  -6   20.65    5.42
   5   6  -6   12.84    4.93
  -5  -6   5   10.03    5.09
  -5  -6   5   11.98    4.77
  -5   6   5   13.44    5.74
   5  -6  -5   14.69    4.88
   5  -6  -5   18.70    5.80
   5   6  -5   14.58    4.88
   5   6  -5   10.13    4.99
   5   6  -5   12.03    4.50
  -5  -6   4   55.50    8.13
  -5  -6   4   54.03    7.80
  -5   6   4   56.80    8.24
   5  -6  -4   63.52    7.05
   5  -6  -4   59.56    8.29
   5   6  -4   55.01    6.67
   5   6  -4   57.50    7.91
   5   6  -4   62.54    7.21
  -5  -6   3   51.11    7.75
  -5   6   3   44.55    7.37
   5  -6  -3   48.78    6.83
   5  -6  -3   48.07    7.48
   5   6  -3   45.85    5.64
   5   6  -3   49.75    7.53
   5   6  -3   42.49    5.96
  -5  -6   2    8.67    5.09
  -5   6   2    9.38    4.66
  -5   6   2    5.31    4.50
   5  -6  -2    7.91    4.12
   5  -6  -2    8.94    4.23
   5   6  -2    9.81    4.77
   5   6  -2    9.21    3.63
  -5  -6   1    6.40    4.93
  -5   6   1   13.06    5.09
  -5   6   1   10.95    4.55
   5  -6  -1    9.97    4.82
   5  -6  -1   11.54    4.82
   5   6  -1   11.11    4.82
   5   6  -1   12.84    3.58
  -5  -6   0   67.85    8.18
  -5   6   0   64.06    7.37
   5  -6   0   81.89    8.29
   5  -6   0   65.20    7.97
   5   6   0   64.38    8.73
   5   6   0   69.75    5.85
  -5  -6  -1   51.00    8.24
  -5   6  -1   51.70    8.02
  -5   6  -1   42.00    6.45
   5  -6   1   46.99    7.15
   5   6   1   50.94    7.97
   5   6   1   50.89    4.99
  -5  -6  -2   26.12    6.83
  -5   6  -2   38.53    7.59
   5  -6   2   26.77    6.07
   5   6   2   30.30    6.94
  -5  -6  -3    0.38    4.39
  -5   6  -3    6.18    5.74
   5  -6   3    3.36    4.12
   5   6   3   -2.22    4.34
  -5  -6  -4   10.08    6.07
  -5   6  -4   12.30    6.29
   5  -6   4   17.29    5.80
   5   6   4   21.57    7.37
   5   6   4   11.87    5.74
  -5  -6  -5    5.69    6.29
  -5   6  -5   -1.25    5.09
   5  -6   5    2.93    4.39
   5   6   5    3.25    5.80
  -5   7  10   20.43    6.88
   5   7 -10   24.44    7.48
  -5  -7   9   11.71    6.67
  -5   7   9   15.01    6.29
   5   7  -9   15.01    6.61
  -5  -7   8   -2.98    5.09
  -5   7   8    2.55    4.66
   5   7  -8   14.04    5.58
  -5  -7   7   -0.33    4.28
  -5   7   7    6.45    4.99
   5   7  -7    8.29    4.99
   5   7  -7    0.98    4.28
   5   7  -7   -0.54    4.23
  -5  -7   6   -0.87    4.77
  -5   7   6   -2.82    4.06
   5   7  -6    4.12    3.96
   5   7  -6    1.95    3.96
   5   7  -6    0.43    4.23
  -5  -7   5    6.45    4.93
  -5   7   5    2.82    4.44
   5   7  -5   10.30    4.17
   5   7  -5    4.28    4.17
   5   7  -5    4.06    4.23
  -5  -7   4   88.39    9.21
  -5   7   4   87.58    9.59
   5  -7  -4  110.78   12.68
   5  -7  -4   90.29   10.03
   5   7  -4   90.78    9.16
   5   7  -4   94.52    9.05
  -5  -7   3    2.93    4.39
  -5   7   3    3.03    4.39
   5  -7  -3    3.79    3.79
   5  -7  -3    5.20    4.66
   5   7  -3    6.02    4.61
   5   7  -3    4.72    3.63
  -5  -7   2    8.73    4.88
  -5   7   2    8.45    4.44
  -5   7   2    7.21    5.15
   5  -7  -2    8.67    4.44
   5  -7  -2    7.15    4.72
   5   7  -2   10.13    5.26
   5   7  -2    8.02    3.90
  -5  -7   1  125.90   10.57
  -5   7   1  117.01    9.86
   5  -7  -1  133.16    9.92
   5  -7  -1  121.13   10.13
   5   7  -1  121.83   10.68
   5   7  -1  114.14    8.24
  -5  -7   0   13.55    5.80
  -5   7   0   15.45    5.80
  -5   7   0   10.24    4.82
   5  -7   0   17.94    5.42
   5  -7   0   17.07    5.91
   5   7   0   13.71    5.69
   5   7   0   12.30    3.96
  -5  -7  -1    8.78    5.53
  -5   7  -1    2.76    4.17
  -5   7  -1    3.58    4.23
   5  -7   1    4.72    4.99
   5   7   1    9.38    5.09
  -5  -7  -2    2.33    4.77
  -5   7  -2   -2.01    4.12
   5  -7   2    0.05    4.12
   5   7   2    3.41    4.72
  -5  -7  -3   -1.73    4.77
  -5   7  -3    2.44    4.93
   5  -7   3   -0.38    4.39
   5   7   3   -2.22    4.23
  -5  -7  -4    0.98    5.42
  -5   7  -4    0.05    5.15
   5  -7   4   -1.35    4.61
   5   7   4    3.20    5.42
   5   7   4   -4.12    4.77
  -5  -7  -5   -2.44    6.02
  -5   7  -5   -4.99    5.85
   5  -7   5   -0.05    4.50
   5   7   5   -1.08    6.23
  -5   8   9    3.96    4.88
   5   8  -9    9.86    5.69
  -5  -8   8    2.55    5.37
  -5   8   8   12.79    6.40
   5   8  -8    9.81    5.31
  -5  -8   7   -2.17    5.58
  -5   8   7    9.00    5.69
   5   8  -7    5.69    6.61
  -5  -8   6   -1.46    4.23
  -5   8   6    5.09    5.42
   5   8  -6    2.82    4.82
   5   8  -6    1.63    4.50
  -5  -8   5    0.76    5.04
  -5   8   5    1.03    4.55
   5   8  -5    4.34    5.09
   5   8  -5    7.26    4.99
  -5  -8   4    0.22    4.50
  -5   8   4    1.25    5.20
   5   8  -4   -0.27    4.17
   5   8  -4   -0.49    3.79
  -5  -8   3   34.90    7.75
  -5   8   3   32.90    7.80
   5   8  -3   36.53    7.80
   5   8  -3   45.20    7.42
  -5  -8   2   -3.47    4.06
  -5   8   2    0.98    4.12
  -5   8   2   -4.28    4.28
   5  -8  -2    0.49    4.39
   5   8  -2    0.27    4.93
   5   8  -2   -0.54    3.36
  -5  -8   1   -1.79    5.09
  -5   8   1    0.33    4.01
  -5   8   1   -8.29    4.06
   5  -8  -1   -0.54    4.17
   5  -8  -1   -2.33    4.39
   5   8  -1    1.79    4.72
   5   8  -1    4.12    3.63
  -5  -8   0   -1.03    4.61
  -5   8   0   -1.19    4.34
  -5   8   0   -2.55    3.69
   5  -8   0    0.54    4.17
   5  -8   0    0.87    4.28
   5   8   0    0.70    4.77
   5   8   0    0.22    3.25
  -5  -8  -1    8.45    5.53
  -5   8  -1    3.47    4.61
  -5   8  -1    7.32    4.61
   5  -8   1   10.35    5.74
   5   8   1    9.48    6.40
  -5  -8  -2   -3.58    4.66
  -5   8  -2   -4.44    3.96
   5  -8   2   -2.49    4.72
   5   8   2    1.68    5.69
  -5  -8  -3   -1.30    5.15
  -5   8  -3    2.17    5.31
   5  -8   3   -2.33    4.66
   5   8   3    2.55    5.58
  -5  -8  -4    0.76    6.83
  -5   8  -4    4.06    5.85
   5  -8   4   -2.55    4.88
   5   8   4    5.15    6.56
   5   8   4   -2.28    5.20
  -5  -9   7    0.33    5.20
  -5   9   7    9.21    6.12
  -5  -9   6   -1.03    4.66
  -5   9   6    4.34    5.04
   5   9  -6    0.76    4.61
   5   9  -6    2.38    5.15
  -5  -9   5    2.44    5.04
  -5   9   5   -2.82    4.72
   5   9  -5   -1.57    4.44
   5   9  -5    0.22    4.50
  -5  -9   4   16.15    6.56
  -5   9   4   25.26    7.42
   5   9  -4   26.88    7.32
   5   9  -4   25.31    7.15
  -5  -9   3    4.23    5.42
  -5   9   3   12.79    6.23
   5   9  -3    8.73    5.85
   5   9  -3   10.08    5.09
  -5  -9   2   -3.79    4.06
  -5   9   2   -0.33    4.61
   5   9  -2   -3.96    4.39
   5   9  -2    0.81    4.12
  -5  -9   1    5.96    5.58
  -5   9   1    1.30    5.58
   5   9  -1    3.63    5.47
   5   9  -1    2.06    4.12
  -5  -9   0    5.26    5.96
  -5   9   0    7.59    5.85
   5  -9   0   14.04   10.13
   5   9   0    7.59    5.74
   5   9   0   10.24    4.61
  -5  -9  -1    8.40    6.18
  -5   9  -1    7.75    5.74
   5  -9   1    8.94    6.45
   5   9   1    4.17    5.91
  -5  -9  -2    1.57    5.80
  -5   9  -2   -0.81    5.09
   5  -9   2   -0.43    4.66
   5   9   2   -0.92    6.29
  -5   9  -3   -0.60    5.80
   5  -9   3   -1.57    5.04
   5   9   3   -2.82    5.09
   5  10  -6   -1.14    6.02
  -5 -10   5   -3.63    4.82
  -5  10   5    7.05    5.80
   5  10  -5    3.63    6.29
   5  10  -5   -0.76    5.15
  -5 -10   4   -1.68    5.80
  -5  10   4    3.47    6.72
   5  10  -4    1.46    5.47
   5  10  -4   -2.71    4.28
  -5 -10   3    0.43    5.85
  -5  10   3   -3.74    4.93
   5  10  -3   -3.41    4.99
   5  10  -3   -2.01    4.12
  -5 -10   2   -4.17    4.44
  -5  10   2   -6.72    5.04
   5  10  -2   -1.52    5.91
   5  10  -2    1.19    4.28
  -5 -10   1   -4.06    5.15
  -5  10   1   -0.76    5.31
   5  10  -1    1.14    5.69
   5  10  -1    0.27    4.44
  -5 -10   0    1.95    5.58
  -5  10   0    6.45    5.09
   5  10   0    1.84    6.23
   5  10   0    5.53    4.61
   6   0 -12   12.09    7.91
   6   0 -11   -3.52    7.59
   6   0 -10    1.57    6.40
  -6   0   9    1.79    5.04
  -6   0   9    4.01    4.01
   6   0  -9   -2.28    4.55
  -6   0   8  151.15   10.24
  -6   0   8  144.81   10.03
   6   0  -8  144.76   11.38
   6   0  -8  147.09   11.11
  -6   0   7   -1.30    3.74
  -6   0   7    1.63    3.31
   6   0  -7    2.22    4.12
   6   0  -7   -4.99    2.87
  -6   0   6   66.23    5.85
  -6   0   6   74.14    7.59
   6   0  -6   62.60    7.32
   6   0  -6   74.57    7.10
  -6   0   5   -2.01    1.95
  -6   0   5   -3.58    2.60
   6   0  -5   -1.08    3.36
   6   0  -5    0.70    2.82
  -6   0   4   18.64    2.87
  -6   0   4   17.07    4.50
   6   0  -4   19.73    5.09
   6   0  -4   16.20    3.85
  -6   0   3   -0.92    1.46
  -6   0   3   -0.33    2.93
   6   0  -3   -2.22    2.76
   6   0  -3    1.03    2.17
  -6   0   2  121.67    5.26
  -6   0   2  109.75    7.91
   6   0  -2  120.86    8.24
   6   0  -2  115.06    5.85
  -6   0   1   -0.33    3.03
  -6   0   1    1.19    2.06
  -6   0   1   -1.52    2.71
   6   0  -1   -1.19    2.87
   6   0  -1    0.98    1.90
   6   0  -1    0.22    1.68
  -6   0   0   77.17    7.42
  -6   0   0   82.76    5.58
  -6   0   0   90.89    7.64
   6   0   0   78.64    7.37
   6   0   0   88.45    5.74
   6   0   0   86.55    4.17
   6   0   0   82.32    4.01
  -6   0  -1   -1.73    3.41
  -6   0  -1    2.55    3.25
   6   0   1    2.71    3.96
   6   0   1   -0.98    2.82
   6   0   1   -0.16    1.19
   6   0   1    0.11    1.25
  -6   0  -2   -0.27    4.06
  -6   0  -2   -2.33    2.87
   6   0   2   -1.41    3.03
   6   0   2    1.08    1.30
   6   0   2    0.60    1.19
  -6   0  -3    1.46    4.06
   6   0   3    0.38    3.52
   6   0   3    0.11    1.35
   6   0   3   -0.54    1.35
  -6   0  -4    0.38    4.82
   6   0   4    2.33    3.69
   6   0   4    1.57    1.63
  -6   0  -5   -0.70    4.99
   6   0   5    1.30    4.82
   6   0   5    1.95    1.95
  -6   0  -6    7.53    6.34
   6   0   6    8.51    6.40
   6   0   6    2.98    2.33
  -6   0  -7   -0.38    5.91
   6   0   7  -10.95    5.96
   6  -1 -12    7.05    7.05
   6   1 -12    5.47    6.94
  -6  -1  11    1.95    7.53
   6  -1 -11   -9.38    6.12
   6   1 -11   -0.81    6.67
  -6  -1  10   17.88    7.59
   6  -1 -10   17.13    7.32
   6   1 -10   10.46    6.40
  -6  -1   9    4.66    5.53
  -6  -1   9    0.43    3.58
  -6   1   9    0.33    3.79
   6  -1  -9    1.41    5.85
   6   1  -9    5.20    5.58
  -6  -1   8   38.42    7.15
  -6  -1   8   29.32    5.69
  -6   1   8   31.81    6.50
   6  -1  -8   29.65    7.70
   6  -1  -8   36.58    7.32
   6   1  -8   30.40    7.26
   6   1  -8   38.59    7.32
  -6  -1   7   82.16    7.80
  -6  -1   7   85.63    8.13
  -6   1   7   78.31    7.75
   6  -1  -7   82.49    8.51
   6  -1  -7   77.28    7.97
   6   1  -7   72.84    8.35
   6   1  -7   91.81    8.83
  -6  -1   6   -4.66    3.14
  -6  -1   6    3.74    3.47
  -6   1   6    0.65    3.74
   6  -1  -6    2.44    3.96
   6  -1  -6    2.06    3.31
   6   1  -6   -1.73    3.47
   6   1  -6   -0.05    3.36
  -6  -1   5   40.54    4.50
  -6  -1   5   38.26    6.07
  -6   1   5   34.47    5.96
   6  -1  -5   38.37    6.40
   6  -1  -5   30.08    5.15
   6   1  -5   36.26    6.29
   6   1  -5   35.66    5.31
  -6  -1   4   11.38    2.98
  -6  -1   4   15.88    4.44
  -6   1   4   11.54    4.50
   6  -1  -4   15.83    4.66
   6  -1  -4   12.79    3.69
   6   1  -4    9.59    4.23
   6   1  -4   14.42    3.58
  -6  -1   3  293.63    8.78
  -6  -1   3  282.79   11.92
  -6   1   3  287.78   12.03
   6  -1  -3  294.61   12.14
   6  -1  -3  285.45    9.97
   6   1  -3  298.24   12.25
   6   1  -3  286.21    9.32
  -6  -1   2  186.65    7.42
  -6  -1   2  163.78    9.43
  -6   1   2  174.40    9.76
  -6   1   2  172.83    9.54
   6  -1  -2  186.11   10.19
   6  -1  -2  170.72    7.37
   6   1  -2  164.59    9.21
   6   1  -2  165.62    6.45
  -6  -1   1    3.31    3.58
  -6  -1   1    0.98    2.38
  -6  -1   1    0.00    3.25
  -6   1   1    3.41    3.52
  -6   1   1   -1.03    3.14
   6  -1  -1    2.38    3.41
   6  -1  -1   -0.16    1.95
   6   1  -1   -0.70    3.14
   6   1  -1    1.19    1.52
  -6  -1   0   15.28    4.93
  -6  -1   0   16.80    3.96
  -6  -1   0   12.95    4.23
  -6   1   0   10.35    4.39
  -6   1   0    7.05    3.96
   6  -1   0    9.21    4.17
   6  -1   0   15.77    3.25
   6  -1   0   16.85    2.82
   6  -1   0   12.47    2.71
   6   1   0   13.12    4.66
   6   1   0   14.42    3.58
   6   1   0   13.06    1.73
  -6  -1  -1   -2.11    3.69
  -6  -1  -1    1.35    3.09
  -6  -1  -1    4.55    3.63
  -6   1  -1    3.31    3.90
  -6   1  -1    2.98    3.09
   6  -1   1    4.93    3.96
   6  -1   1    1.73    2.71
   6  -1   1    2.71    1.90
   6  -1   1    2.01    1.90
   6   1   1   -0.38    3.69
   6   1   1    3.31    3.25
  -6  -1  -2   49.10    7.42
  -6  -1  -2   60.43    6.94
  -6  -1  -2   57.99    6.77
  -6   1  -2   54.58    7.97
  -6   1  -2   57.56    6.56
   6  -1   2   57.66    6.07
   6  -1   2   47.58    3.96
   6   1   2   57.83    7.97
   6   1   2   56.69    6.77
   6   1   2   59.24    6.77
  -6  -1  -3   10.13    4.66
  -6   1  -3    9.16    4.99
   6  -1   3    5.15    3.96
   6  -1   3    7.64    2.38
   6   1   3    4.44    3.69
  -6  -1  -4   -3.47    3.58
  -6   1  -4   -0.81    4.99
   6  -1   4   -3.69    3.79
   6  -1   4    0.33    2.01
   6   1   4    2.60    4.12
  -6  -1  -5    2.66    4.72
  -6   1  -5    1.63    4.93
   6  -1   5   -5.09    4.82
   6  -1   5   -1.03    2.17
   6   1   5   -1.03    4.93
   6   1   5   -0.38    1.35
  -6  -1  -6   10.41    5.91
  -6   1  -6    6.94    6.07
   6  -1   6    7.53    3.03
   6   1   6   17.23    7.37
   6   1   6    4.99    2.11
   6   1   7   -0.22    7.32
  -6  -2  12   23.47   10.51
   6  -2 -12    6.23    7.80
   6   2 -12   36.15   11.60
  -6  -2  11    1.46    8.67
   6  -2 -11   -2.87    6.67
   6   2 -11   -2.82    6.45
  -6  -2  10   -0.05    5.85
  -6   2  10    0.60    4.28
   6  -2 -10   -0.60    5.69
   6   2 -10    6.88    6.40
  -6  -2   9   12.57    6.72
  -6  -2   9    7.21    3.96
  -6   2   9    9.54    4.88
   6  -2  -9    7.97    6.02
   6   2  -9    5.53    6.07
  -6  -2   8   -2.71    5.37
  -6  -2   8   -1.73    3.58
  -6   2   8    0.81    3.96
   6  -2  -8    6.56    5.58
   6  -2  -8    3.36    4.61
   6   2  -8    7.53    5.47
   6   2  -8    1.63    4.06
  -6  -2   7   10.19    5.47
  -6  -2   7   20.70    5.58
  -6   2   7   20.43    5.37
   6  -2  -7   21.03    6.23
   6  -2  -7   18.37    5.74
   6   2  -7   20.27    6.56
   6   2  -7   23.14    5.74
  -6  -2   6    3.09    3.41
  -6   2   6    0.27    3.47
   6  -2  -6    4.55    4.72
   6  -2  -6   -3.41    3.20
   6   2  -6   -0.27    4.39
   6   2  -6    1.08    3.47
  -6  -2   5  189.20    8.78
  -6  -2   5  177.55   10.13
  -6   2   5  197.00   10.78
   6  -2  -5  174.73   10.30
   6  -2  -5  209.52   10.62
   6   2  -5  174.29   10.57
   6   2  -5  195.38    9.76
  -6  -2   4    9.59    3.41
  -6  -2   4    8.89    4.12
  -6   2   4   12.14    4.28
   6  -2  -4   12.25    4.23
   6  -2  -4    7.80    3.58
   6   2  -4    9.10    4.12
   6   2  -4    6.67    3.14
  -6  -2   3  261.11    9.54
  -6  -2   3  244.48   11.49
  -6   2   3  245.89   11.49
   6  -2  -3  274.77   12.03
   6  -2  -3  254.56   10.13
   6   2  -3  251.41   11.11
   6   2  -3  253.04    8.94
  -6  -2   2    4.82    2.93
  -6  -2   2    0.49    3.25
  -6   2   2    2.71    3.63
  -6   2   2    3.52    3.36
   6  -2  -2   -1.35    3.25
   6  -2  -2    2.87    2.71
   6   2  -2    6.29    3.79
   6   2  -2    3.69    2.06
  -6  -2   1    5.15    3.09
  -6  -2   1    8.24    3.90
  -6   2   1    7.37    4.12
  -6   2   1    6.83    3.58
   6  -2  -1    7.10    3.96
   6  -2  -1    6.77    2.76
   6   2  -1    6.94    3.36
   6   2  -1    5.96    1.84
  -6  -2   0  144.76    9.21
  -6  -2   0  154.46    8.45
  -6  -2   0  151.80    9.43
  -6   2   0  153.86   10.08
  -6   2   0  144.27    8.73
   6  -2   0  147.90   10.03
   6  -2   0  148.12    7.05
   6   2   0  152.62    9.21
   6   2   0  147.79    9.38
   6   2   0  131.53    3.47
  -6  -2  -1    9.32    3.96
  -6  -2  -1    7.42    4.01
  -6  -2  -1    4.93    3.58
  -6   2  -1    7.70    4.99
  -6   2  -1    6.07    3.69
   6  -2   1    8.51    2.82
   6   2   1    6.45    3.96
   6   2   1    7.80    3.85
   6   2   1    6.72    3.74
  -6  -2  -2   -1.14    3.20
  -6  -2  -2    0.11    3.79
  -6  -2  -2   -1.08    3.36
  -6   2  -2    3.03    4.72
  -6   2  -2    1.57    3.25
   6  -2   2    2.33    2.28
   6   2   2    5.31    3.47
   6   2   2    0.27    3.47
   6   2   2   -2.98    2.55
  -6  -2  -3   21.84    5.69
  -6  -2  -3   31.05    6.67
  -6  -2  -3   17.23    6.83
  -6   2  -3   23.14    6.72
   6  -2   3   21.57    3.90
   6   2   3   25.63    5.64
   6   2   3   25.74    6.40
   6   2   3   24.28    5.31
  -6  -2  -4    7.42    4.99
  -6   2  -4    8.08    5.64
   6  -2   4    8.18    3.03
   6   2   4   11.38    5.47
  -6   2  -5    3.63    5.53
   6  -2   5    0.05    2.60
   6   2   5    3.03    5.26
  -6   2  -6    1.25    5.42
   6  -2   6    3.03    3.09
   6   2   6    2.33    5.47
   6   2   6    0.76    1.25
  -6  -3  12    7.32   10.24
   6  -3 -12   -6.34    7.70
  -6  -3  11    0.11    8.29
   6  -3 -11   -0.65    6.34
   6   3 -11   -4.72    6.07
  -6  -3  10    2.38    7.21
  -6   3  10    6.88    4.72
   6  -3 -10    6.07    7.42
   6   3 -10    8.89    6.29
  -6  -3   9    2.11    6.34
  -6   3   9    8.51    5.09
   6  -3  -9    9.81    6.56
   6   3  -9    7.97    5.64
  -6  -3   8    7.48    5.09
  -6  -3   8   14.09    5.04
  -6   3   8    8.24    4.88
   6  -3  -8    9.86    6.02
   6   3  -8    4.12    5.09
   6   3  -8    8.18    5.09
  -6  -3   7    1.19    3.85
  -6  -3   7    1.19    3.47
  -6   3   7    3.20    3.90
   6  -3  -7    2.66    4.82
   6  -3  -7    4.23    4.17
   6   3  -7    2.49    5.04
   6   3  -7   -0.27    3.79
  -6  -3   6  245.40   11.49
  -6  -3   6  251.63   12.47
  -6   3   6  246.86   12.63
   6  -3  -6  264.96   12.79
   6  -3  -6  248.81   12.74
   6   3  -6  234.56   12.30
   6   3  -6  243.12   12.03
  -6  -3   5   21.52    5.09
  -6  -3   5   22.55    5.31
  -6   3   5   24.01    5.64
   6  -3  -5   24.98    5.85
   6  -3  -5   26.72    5.64
   6   3  -5   24.93    5.74
   6   3  -5   27.37    5.31
  -6  -3   4   46.45    5.74
  -6  -3   4   63.68    8.02
  -6   3   4   48.94    6.94
   6  -3  -4   54.95    7.53
   6  -3  -4   47.15    6.45
   6   3  -4   47.37    6.99
   6   3  -4   47.10    5.42
  -6  -3   3  101.18    7.26
  -6  -3   3  114.03    8.78
  -6   3   3  109.15    8.56
   6  -3  -3  102.38    8.18
   6  -3  -3   89.59    7.15
   6   3  -3  111.43    7.97
   6   3  -3   98.80    6.29
  -6  -3   2    1.25    2.82
  -6  -3   2    8.45    4.44
  -6   3   2    7.26    4.01
  -6   3   2    7.75    3.90
   6  -3  -2    5.26    3.96
   6  -3  -2    7.97    3.47
   6   3  -2    6.02    3.52
   6   3  -2    6.18    3.79
   6   3  -2    7.21    2.44
  -6  -3   1    4.17    3.36
  -6  -3   1   -0.22    3.25
  -6   3   1    6.45    4.12
  -6   3   1   -1.08    3.52
   6  -3  -1    1.84    3.63
   6  -3  -1    3.58    2.93
   6   3  -1    3.58    3.36
   6   3  -1    4.44    3.85
   6   3  -1    2.17    1.73
  -6  -3   0   16.15    4.82
  -6  -3   0   16.80    5.09
  -6   3   0   16.20    5.15
  -6   3   0   11.65    4.01
   6  -3   0   19.51    5.37
   6  -3   0   16.69    3.96
   6   3   0   18.21    4.61
   6   3   0   15.55    5.09
   6   3   0   15.50    2.01
  -6  -3  -1   -2.17    3.09
  -6  -3  -1   -1.57    3.52
  -6  -3  -1   -3.20    3.03
  -6   3  -1   -1.52    3.74
  -6   3  -1    0.16    2.98
   6  -3   1    0.70    2.55
   6   3   1   -1.52    2.98
   6   3   1    1.73    3.47
  -6  -3  -2   26.39    5.69
  -6  -3  -2   25.91    6.02
  -6  -3  -2   26.61    5.64
  -6   3  -2   29.16    6.88
   6  -3   2   23.09    4.34
   6   3   2   35.39    6.23
   6   3   2   31.27    6.45
   6   3   2   31.76    6.18
  -6  -3  -3    6.40    5.31
  -6   3  -3   10.35    5.64
   6  -3   3    7.15    3.41
   6   3   3   15.61    4.77
   6   3   3    8.94    5.26
   6   3   3   13.01    4.61
  -6  -3  -4    6.18    5.37
  -6   3  -4   10.78    6.67
   6  -3   4    6.23    3.41
   6   3   4   11.71    5.74
  -6   3  -5    3.47    5.47
   6  -3   5    0.92    3.09
   6   3   5    2.49    6.02
  -6   3  -6    1.68    6.50
   6  -3   6    5.85    5.58
   6   3   6   10.13    7.21
  -6  -4  11    5.26    9.86
   6   4 -11    2.82    5.96
  -6  -4  10   11.22    8.83
  -6   4  10   19.84    5.85
   6  -4 -10   32.90   10.19
   6   4 -10   21.30    7.64
  -6  -4   9   -4.23    5.20
  -6   4   9    4.23    4.55
   6  -4  -9    4.77    5.80
   6   4  -9    2.17    5.42
  -6  -4   8    2.33    4.50
  -6  -4   8    0.05    3.36
  -6   4   8    1.30    3.79
   6  -4  -8    1.30    4.72
   6   4  -8    4.06    4.99
   6   4  -8   -1.52    3.31
   6   4  -8    1.41    4.28
  -6  -4   7   -4.50    3.41
  -6  -4   7   -0.98    3.85
  -6   4   7    4.01    4.12
   6  -4  -7    8.89    5.47
   6  -4  -7   -3.85    3.63
   6   4  -7   -1.19    4.39
   6   4  -7    0.33    3.63
   6   4  -7    2.71    4.06
  -6  -4   6   91.81    8.29
  -6  -4   6  103.46    8.89
  -6   4   6  104.92    9.48
   6  -4  -6   95.49    8.83
   6  -4  -6   96.85    9.05
   6   4  -6  101.51    9.92
   6   4  -6   96.74    9.05
   6   4  -6   99.29    8.51
  -6  -4   5   71.81    7.21
  -6  -4   5   69.70    7.75
  -6   4   5   84.22    8.62
   6  -4  -5   79.34    7.86
   6  -4  -5   70.35    8.18
   6   4  -5   68.34    8.02
   6   4  -5   73.81    7.91
   6   4  -5   78.69    7.42
  -6  -4   4  186.43   10.30
  -6  -4   4  197.54   11.76
  -6   4   4  200.36   11.60
   6  -4  -4  197.22   10.89
   6  -4  -4  200.69   11.06
   6   4  -4  188.93   10.35
   6   4  -4  200.36   11.76
   6   4  -4  200.63    9.70
  -6  -4   3   97.93    8.08
  -6  -4   3  111.21    9.16
  -6   4   3  114.62    9.59
   6  -4  -3  108.28    8.62
   6  -4  -3  115.44    8.67
   6   4  -3  116.79    8.35
   6   4  -3  112.89    9.27
   6   4  -3  107.96    6.88
  -6  -4   2   36.26    6.02
  -6  -4   2   29.32    6.02
  -6   4   2   32.25    6.29
  -6   4   2   42.44    7.10
   6  -4  -2   36.80    6.50
   6  -4  -2   40.10    6.23
   6   4  -2   41.19    6.29
   6   4  -2   33.06    6.34
   6   4  -2   35.55    4.50
  -6  -4   1   17.45    4.93
  -6  -4   1   16.85    5.20
  -6   4   1   19.62    5.91
  -6   4   1   17.67    5.26
   6  -4  -1   12.52    4.77
   6  -4  -1   14.20    4.17
   6   4  -1   20.65    4.66
   6   4  -1   12.95    4.88
   6   4  -1   15.77    2.93
  -6  -4   0   48.13    7.42
  -6  -4   0   45.58    7.05
  -6   4   0   49.48    7.70
  -6   4   0   46.93    6.94
   6  -4   0   50.35    7.86
   6  -4   0   56.26    6.29
   6   4   0   50.40    5.85
   6   4   0   51.43    7.53
   6   4   0   47.53    3.58
  -6  -4  -1   12.90    5.26
  -6  -4  -1   10.62    5.09
  -6   4  -1    9.70    5.15
  -6   4  -1   16.37    4.77
   6  -4   1   11.44    3.85
   6   4   1   13.44    4.01
   6   4   1    7.37    4.77
  -6  -4  -2    5.26    4.50
  -6   4  -2    8.35    5.42
   6  -4   2    9.97    3.90
   6   4   2   14.63    5.85
   6   4   2   15.12    5.31
  -6  -4  -3    8.94    5.20
  -6   4  -3    5.31    5.96
   6  -4   3    4.17    3.52
   6   4   3   10.35    5.58
   6   4   3    6.29    4.50
  -6  -4  -4   20.76    6.94
  -6   4  -4   35.28    9.00
   6  -4   4   18.91    5.04
   6   4   4   27.10    7.59
  -6  -4  -5   -4.72    4.28
  -6   4  -5   -2.33    5.04
   6  -4   5    1.25    3.47
   6   4   5   -4.88    5.53
   6   4   6    3.69    6.67
  -6  -5  11    1.52    6.40
   6   5 -11    5.74    6.88
  -6  -5  10    1.46    7.26
  -6   5  10    7.80    5.47
   6   5 -10   11.87    6.34
  -6  -5   9    0.22    5.37
  -6   5   9   -5.58    3.31
   6   5  -9    0.92    5.09
  -6  -5   8   -1.68    4.66
  -6  -5   8    2.11    4.06
  -6   5   8    1.95    4.44
   6  -5  -8   14.47    6.29
   6   5  -8    2.33    5.47
   6   5  -8    0.43    4.06
   6   5  -8    5.80    4.93
  -6  -5   7   35.23    7.53
  -6  -5   7   32.41    6.72
  -6   5   7   32.84    6.99
   6  -5  -7   41.57    7.59
   6   5  -7   37.77    7.53
   6   5  -7   34.96    6.67
   6   5  -7   35.39    7.26
  -6  -5   6   16.58    5.37
  -6  -5   6   12.68    5.47
  -6   5   6    6.40    4.82
   6  -5  -6   19.89    5.96
   6  -5  -6    7.70    4.77
   6   5  -6   12.84    5.47
   6   5  -6    9.32    4.99
   6   5  -6   10.35    4.88
  -6  -5   5    1.03    4.23
  -6  -5   5   -0.76    3.74
  -6   5   5   -1.68    4.39
   6  -5  -5   -0.11    3.96
   6  -5  -5    1.79    3.90
   6   5  -5   -0.22    4.23
   6   5  -5   -2.17    3.36
   6   5  -5    3.74    3.58
  -6  -5   4   29.05    5.96
  -6  -5   4   27.04    6.23
  -6   5   4   34.20    6.83
   6  -5  -4   28.18    6.12
   6  -5  -4   34.36    6.45
   6   5  -4   25.09    5.58
   6   5  -4   27.04    6.12
   6   5  -4   23.85    4.93
  -6  -5   3   26.39    5.80
  -6  -5   3   19.78    5.80
  -6   5   3   24.33    6.07
   6  -5  -3   25.69    6.02
   6  -5  -3   28.18    6.07
   6   5  -3   22.71    5.37
   6   5  -3   27.53    6.12
   6   5  -3   17.07    3.96
  -6  -5   2    7.37    4.34
  -6  -5   2    7.21    4.55
  -6   5   2    5.58    4.28
  -6   5   2    2.93    4.12
   6  -5  -2    5.53    4.28
   6  -5  -2    6.50    3.79
   6   5  -2    1.57    3.31
   6   5  -2    6.12    4.55
   6   5  -2    6.29    3.09
  -6  -5   1    4.12    4.01
  -6  -5   1   -2.11    3.96
  -6   5   1    2.76    4.61
  -6   5   1    0.60    3.85
   6  -5  -1    1.63    3.90
   6  -5  -1    5.09    3.79
   6   5  -1   -1.73    3.09
   6   5  -1   -0.98    4.17
   6   5  -1    2.55    2.33
  -6  -5   0   -1.14    3.58
  -6  -5   0   -1.03    4.12
  -6   5   0    1.30    4.17
  -6   5   0   -0.65    3.14
   6  -5   0   -0.16    3.96
   6  -5   0    0.16    3.36
   6   5   0   -0.87    3.63
   6   5   0    0.27    1.84
  -6  -5  -1   13.71    5.69
  -6   5  -1   14.20    5.80
  -6   5  -1   12.63    4.55
   6  -5   1    8.45    4.12
   6   5   1   14.74    5.58
  -6  -5  -2   40.59    8.13
  -6   5  -2   50.51    8.83
   6  -5   2   37.61    6.29
   6   5   2   42.98    7.86
  -6  -5  -3   26.07    7.15
  -6   5  -3   21.62    7.15
   6  -5   3   20.76    5.64
   6   5   3   22.65    6.94
   6   5   3   25.26    6.72
  -6  -5  -4   -2.28    4.77
  -6   5  -4   -4.39    4.55
   6  -5   4   -2.11    3.58
   6   5   4    2.44    5.37
  -6  -5  -5    4.99    6.72
  -6   5  -5   -1.68    6.45
   6  -5   5    0.60    4.01
   6   5   5    4.82    6.61
  -6  -6  10   -7.10    5.69
  -6   6  10    3.14    5.37
   6   6 -10    6.50    5.47
  -6  -6   9   -9.92    4.28
  -6   6   9   -1.79    4.17
   6   6  -9   -0.70    4.93
  -6  -6   8   11.49    5.80
  -6  -6   8   15.50    5.85
  -6   6   8   14.09    5.96
   6   6  -8    8.89    5.37
   6   6  -8   12.68    5.09
   6   6  -8   13.44    6.18
  -6  -6   7   -0.81    4.55
  -6  -6   7    5.31    4.99
  -6   6   7   11.71    6.07
   6   6  -7   10.62    5.47
   6   6  -7    7.21    5.04
   6   6  -7    7.70    5.37
  -6  -6   6   -3.31    3.69
  -6  -6   6   -2.22    3.63
  -6   6   6    2.11    4.72
   6  -6  -6   -2.49    4.23
   6   6  -6    1.19    4.06
   6   6  -6    2.66    4.44
   6   6  -6   -0.05    3.96
  -6  -6   5   -0.11    4.01
  -6  -6   5   -1.57    4.39
  -6   6   5    2.82    4.39
   6  -6  -5   -4.34    3.74
   6  -6  -5   -0.87    4.28
   6   6  -5    0.60    3.96
   6   6  -5    1.46    3.96
   6   6  -5    3.52    3.69
  -6  -6   4   24.71    6.50
  -6  -6   4   17.51    5.80
  -6   6   4   15.66    6.07
   6  -6  -4   21.03    5.26
   6  -6  -4   24.66    6.45
   6   6  -4   18.97    5.31
   6   6  -4   15.45    5.58
   6   6  -4   23.79    5.47
  -6  -6   3   19.51    5.96
  -6  -6   3   19.84    6.07
  -6   6   3   13.66    5.80
   6  -6  -3   20.59    6.02
   6  -6  -3   24.28    6.07
   6   6  -3   25.53    6.45
   6   6  -3   18.70    4.61
  -6  -6   2    4.01    4.23
  -6  -6   2    2.17    4.77
  -6   6   2    0.22    4.34
  -6   6   2   -1.90    3.69
   6  -6  -2    1.14    3.79
   6  -6  -2    3.85    4.12
   6   6  -2    0.33    4.61
   6   6  -2    3.90    2.98
  -6  -6   1    4.01    4.28
  -6   6   1    4.55    4.39
  -6   6   1    2.76    4.44
   6  -6  -1    3.85    4.06
   6  -6  -1    1.73    3.79
   6   6  -1    3.31    4.17
   6   6  -1    1.30    2.60
  -6  -6   0   48.56    8.62
  -6   6   0   52.57    8.73
  -6   6   0   51.76    7.80
   6  -6   0   57.07    8.78
   6  -6   0   49.64    7.64
   6   6   0   44.82    8.13
   6   6   0   41.51    4.88
  -6  -6  -1   17.99    6.67
  -6   6  -1   15.17    6.02
  -6   6  -1   18.21    5.42
   6  -6   1   14.58    5.42
   6   6   1   23.58    6.56
  -6  -6  -2    1.68    4.82
  -6   6  -2    2.01    5.20
   6  -6   2    3.85    4.44
   6   6   2   -0.49    4.66
  -6  -6  -3    0.92    5.58
  -6   6  -3    9.21    5.74
   6  -6   3    2.33    4.34
   6   6   3    8.40    6.34
   6   6   3    1.35    4.17
  -6  -6  -4    6.07    6.61
  -6   6  -4    5.85    6.07
   6  -6   4    4.99    4.55
   6   6   4    2.22    6.02
  -6   7  10   38.26    8.45
   6   7 -10   29.43    9.10
  -6  -7   9    5.47    6.23
  -6   7   9   18.97    7.21
   6   7  -9   20.59    7.15
  -6  -7   8    2.11    5.64
  -6   7   8    4.55    5.58
   6   7  -8    3.47    4.66
  -6  -7   7   -1.19    5.15
  -6   7   7   -4.72    4.06
   6   7  -7    3.74    4.61
   6   7  -7    1.08    4.01
   6   7  -7    8.62    5.37
  -6  -7   6    4.06    4.77
  -6   7   6    9.54    5.58
   6   7  -6    6.18    4.61
   6   7  -6   11.49    5.37
   6   7  -6    7.37    5.09
  -6  -7   5   23.79    6.77
  -6   7   5   29.43    7.42
   6   7  -5   24.39    6.61
   6   7  -5   22.06    6.02
  -6  -7   4    1.73    4.55
  -6   7   4   -3.36    4.39
   6  -7  -4    2.06    4.12
   6  -7  -4   -0.49    4.28
   6   7  -4    2.76    4.39
   6   7  -4    3.47    3.79
  -6  -7   3   -0.43    4.01
  -6   7   3   -1.35    4.12
   6  -7  -3   -1.84    4.01
   6  -7  -3    1.73    4.28
   6   7  -3   -1.95    4.12
   6   7  -3    3.25    3.58
  -6  -7   2   21.46    6.29
  -6   7   2   34.20    7.37
  -6   7   2   23.95    7.10
   6  -7  -2   35.23    6.99
   6  -7  -2   40.43    7.59
   6   7  -2   29.27    7.15
   6   7  -2   30.46    5.58
  -6  -7   1    1.41    4.61
  -6   7   1    1.90    4.23
  -6   7   1   -2.49    4.66
   6  -7  -1    0.92    4.06
   6  -7  -1    3.20    4.44
   6   7  -1    6.34    4.99
   6   7  -1   -0.54    2.93
  -6  -7   0   -1.84    4.23
  -6   7   0    3.09    5.04
  -6   7   0   -0.22    4.23
   6  -7   0    1.30    4.66
   6  -7   0   -3.96    3.90
   6   7   0   -0.16    4.66
   6   7   0    1.46    2.82
  -6  -7  -1    0.54    5.31
  -6   7  -1    1.79    4.77
   6  -7   1    2.28    4.72
   6  -7   1    3.69    4.50
   6   7   1   -0.87    4.34
  -6  -7  -2    4.99    5.31
  -6   7  -2   -4.23    5.20
   6  -7   2   -0.27    4.12
   6   7   2   -0.43    4.50
  -6  -7  -3   -3.41    5.09
  -6   7  -3   -0.81    5.15
   6  -7   3   -0.05    4.39
   6   7   3   -5.04    4.01
   6   7   3    1.08    5.37
   6   8  -9   25.31    7.42
  -6  -8   8   13.77    6.67
  -6   8   8   18.86    7.15
  -6  -8   7   -4.61    3.96
  -6   8   7   -0.43    4.77
   6   8  -7   -4.23    4.55
   6   8  -7    0.70    4.72
  -6  -8   6   25.31    7.42
  -6   8   6   29.32    8.18
   6   8  -6   20.27    7.05
   6   8  -6   25.53    6.77
  -6  -8   5   -2.01    4.17
  -6   8   5    7.37    5.53
   6   8  -5   -0.38    4.61
   6   8  -5    0.43    4.17
  -6  -8   4    0.92    4.66
  -6   8   4   -0.33    4.55
   6   8  -4    1.30    4.82
   6   8  -4   -2.82    3.79
  -6  -8   3    9.38    5.58
  -6   8   3    8.24    5.64
   6  -8  -3   11.60    6.12
   6   8  -3    5.96    5.26
   6   8  -3    8.78    4.61
  -6  -8   2   18.70    6.61
  -6   8   2   30.51    6.61
  -6   8   2   30.46    8.02
   6  -8  -2   36.42    7.53
   6  -8  -2   33.82    7.75
   6   8  -2   30.35    7.75
   6   8  -2   31.05    6.23
  -6  -8   1   -4.55    5.09
  -6   8   1   -0.87    4.72
  -6   8   1   -5.96    4.39
   6  -8  -1    2.55    4.72
   6  -8  -1    0.00    4.77
   6   8  -1   -1.14    4.72
   6   8  -1    1.14    3.36
  -6  -8   0   -1.46    4.66
  -6   8   0    3.41    5.20
  -6   8   0    2.55    4.99
   6  -8   0   -0.98    4.12
   6  -8   0    3.47    5.04
   6   8   0    0.76    4.99
   6   8   0    1.90    3.52
  -6  -8  -1    5.80    5.42
  -6   8  -1   10.41    5.91
   6  -8   1   11.76    5.91
   6  -8   1   13.06    6.12
   6   8   1   11.54    6.67
  -6  -8  -2    9.21    6.56
  -6   8  -2    4.88    5.58
   6  -8   2    7.42    5.37
   6   8   2    8.67    6.77
  -6   8  -3    5.85    6.72
   6  -8   3   -1.84    4.77
   6   8   3   -1.90    5.91
   6   9  -7    0.00    7.75
   6   9  -7    5.85    6.45
  -6  -9   6   -0.05    5.47
  -6   9   6    5.64    6.83
   6   9  -6    0.81    4.72
   6   9  -6    5.04    5.26
  -6  -9   5    0.43    5.85
  -6   9   5    2.98    5.80
   6   9  -5   -0.43    5.58
   6   9  -5   -0.33    4.50
  -6  -9   4    3.58    5.91
  -6   9   4    2.33    5.04
   6   9  -4   -0.70    5.42
   6   9  -4    0.98    4.50
  -6  -9   3    3.74    5.37
  -6   9   3    5.04    5.64
   6   9  -3    4.99    5.85
   6   9  -3    0.33    4.23
  -6  -9   2   11.54    6.94
  -6   9   2   17.13    6.56
   6   9  -2    9.76    6.34
   6   9  -2   14.20    5.58
  -6  -9   1   -0.65    5.09
  -6   9   1    1.41    5.20
   6  -9  -1    2.17    8.29
   6   9  -1    8.62    6.56
   6   9  -1    4.93    4.23
  -6  -9   0    1.52    6.07
  -6   9   0   -1.30    7.21
  -6   9   0   -5.58    4.61
   6  -9   0    4.72    6.02
   6   9   0    6.23    6.83
   6   9   0    1.57    3.36
  -6  -9  -1    7.70    7.10
  -6   9  -1    1.35    5.20
   6  -9   1    2.93    5.47
   6  -9   1    3.74    5.42
   6   9   1    3.79    6.34
  -6   9  -2    4.34    6.34
   6  -9   2    8.35    6.02
   6  -9   2   -1.63    5.15
   6  10  -6   -3.79    8.56
   6  10  -5    4.99    6.07
   6  10  -4   12.19    6.40
  -6  10   3   31.65    8.78
   6  10  -3   28.07    9.38
  -6  10   2    9.43    6.83
  -6  10   1    3.96    5.96
   7   0 -12   -1.30    7.15
   7   0 -11   40.86   10.35
  -7   0  10   -1.79    4.01
   7   0 -10    6.50    7.32
  -7   0   9    0.81    3.85
   7   0  -9   -1.90    5.42
   7   0  -9    2.44    4.39
  -7   0   8   -0.38    4.01
   7   0  -8   -0.70    4.44
   7   0  -8    1.84    4.17
  -7   0   7   68.12    7.97
   7   0  -7   90.72    9.38
   7   0  -7   74.36    8.40
  -7   0   6   -1.35    3.85
   7   0  -6   -3.09    4.01
   7   0  -6    1.35    3.20
  -7   0   5    0.38    3.74
   7   0  -5    0.98    3.96
   7   0  -5   -1.57    2.98
  -7   0   4   -3.09    2.93
   7   0  -4   -3.31    3.85
   7   0  -4   -0.70    2.55
  -7   0   3   -0.16    3.41
   7   0  -3    0.00    3.79
   7   0  -3    0.60    2.55
  -7   0   2    1.03    3.47
   7   0  -2   -1.57    3.41
   7   0  -2   -0.60    2.06
  -7   0   1  311.73   13.98
  -7   0   1  312.11   13.60
   7   0  -1  316.23   14.04
   7   0  -1  298.46    8.40
  -7   0   0   -0.11    4.01
  -7   0   0   -1.41    3.20
   7   0   0    3.58    4.01
   7   0   0    1.19    1.57
   7   0   0    0.49    1.57
  -7   0  -1    0.33    4.28
  -7   0  -1    1.08    3.69
   7   0   1    0.92    4.01
   7   0   1    0.11    1.30
   7   0   1    0.60    1.35
  -7   0  -2    0.54    4.28
   7   0   2    3.14    4.28
   7   0   2    0.11    1.03
   7   0   2   -0.70    1.03
  -7   0  -3    8.18    5.37
   7   0   3   10.35    5.42
  -7   0  -4   -3.36    4.39
  -7   0  -5    3.74    6.29
   7   0   5   -0.87    1.08
   7  -1 -12   10.19    9.27
   7  -1 -11   -0.60    6.88
   7   1 -11   14.04    8.51
  -7   1  10    0.54    4.34
   7  -1 -10    2.17    6.45
   7   1 -10    6.99    6.94
  -7  -1   9    2.38    4.23
  -7   1   9   -1.14    3.79
   7  -1  -9    2.28    6.02
   7  -1  -9    9.70    8.83
   7   1  -9    9.27    6.56
   7   1  -9    3.90    4.66
  -7  -1   8    0.60    3.69
  -7   1   8    3.58    4.50
   7  -1  -8    3.25    4.77
   7  -1  -8    2.60    4.66
   7   1  -8    3.58    4.88
   7   1  -8    2.71    4.61
  -7  -1   7   -0.60    3.69
  -7   1   7    9.86    4.72
   7  -1  -7    6.23    5.26
   7  -1  -7    1.46    4.34
   7   1  -7    7.53    5.37
   7   1  -7    4.99    4.28
  -7  -1   6   15.77    5.20
  -7   1   6   20.22    5.85
   7  -1  -6    7.32    4.93
   7  -1  -6   15.23    4.88
   7   1  -6    9.32    4.99
   7   1  -6   11.92    4.55
  -7  -1   5   19.19    5.69
  -7   1   5   16.75    5.26
   7  -1  -5   11.00    5.09
   7  -1  -5   20.81    4.72
   7   1  -5   16.85    5.37
   7   1  -5   15.99    4.34
  -7  -1   4   35.23    6.45
  -7   1   4   31.60    6.23
   7  -1  -4   31.11    6.34
   7  -1  -4   30.19    5.04
   7   1  -4   31.54    6.50
   7   1  -4   27.21    4.55
  -7  -1   3   40.81    6.77
  -7   1   3   59.29    7.91
   7  -1  -3   47.04    7.42
   7  -1  -3   48.83    5.47
   7   1  -3   51.92    7.53
   7   1  -3   47.42    5.04
  -7  -1   2   50.19    7.53
  -7   1   2   55.23    7.97
  -7   1   2   59.94    7.37
   7  -1  -2   56.15    7.91
   7  -1  -2   50.78    5.20
   7   1  -2   55.66    7.70
   7   1  -2   51.43    4.55
  -7  -1   1    0.87    3.63
  -7  -1   1    1.90    3.69
  -7   1   1    1.95    4.01
  -7   1   1   -0.60    3.96
   7  -1  -1   -2.33    3.41
   7  -1  -1    1.79    2.22
   7   1  -1    3.47    3.69
   7   1  -1    1.90    3.03
   7   1  -1    0.87    1.63
  -7  -1   0    6.29    4.34
  -7  -1   0   10.89    4.50
  -7   1   0   17.51    5.69
  -7   1   0   11.06    4.39
   7  -1   0    9.38    4.88
   7  -1   0    6.12    2.44
   7   1   0   11.65    4.82
   7   1   0   10.57    3.74
   7   1   0   10.41    1.68
   7   1   0    9.70    1.63
  -7  -1  -1   17.07    5.74
  -7  -1  -1   17.13    5.09
  -7   1  -1   16.96    5.91
  -7   1  -1   24.66    5.64
   7  -1   1   16.37    5.53
   7  -1   1   15.72    2.82
   7   1   1   14.09    5.58
   7   1   1   16.58    4.88
  -7  -1  -2    2.11    4.39
  -7  -1  -2    0.38    3.47
  -7   1  -2   -1.14    4.44
   7  -1   2    6.12    4.77
   7  -1   2    1.14    1.90
   7   1   2    2.11    4.23
   7   1   2    3.14    4.01
   7   1   2    3.79    3.85
  -7  -1  -3    1.35    4.44
  -7   1  -3   -0.54    4.50
   7  -1   3    1.30    1.84
   7   1   3    0.70    4.28
   7   1   3   -0.98    4.82
  -7  -1  -4    5.04    5.58
  -7   1  -4    4.82    5.42
   7  -1   4   -0.27    1.90
   7   1   4    7.26    4.61
  -7  -1  -5   -2.01    4.55
  -7   1  -5    2.82    5.31
   7  -1   5    1.90    2.17
   7   1   5    6.88    4.99
   7  -2 -12   -4.82    7.15
   7  -2 -11    6.83    7.48
   7   2 -11    2.87    6.40
  -7   2  10   -0.70    4.28
   7  -2 -10    9.86    7.75
   7   2 -10   -3.63    5.64
  -7  -2   9   14.04    5.31
  -7   2   9    7.91    4.93
   7  -2  -9   16.26    7.32
   7   2  -9   13.82    7.80
   7   2  -9   14.47    6.12
  -7  -2   8    2.82    4.61
  -7  -2   8    3.90    4.61
  -7   2   8    5.20    4.82
   7  -2  -8    3.41    5.04
   7  -2  -8   -3.20    3.63
   7   2  -8    2.44    5.04
   7   2  -8    1.41    4.28
  -7  -2   7   15.17    4.55
  -7  -2   7   20.81    5.58
  -7   2   7   21.79    6.29
   7  -2  -7   24.71    7.21
   7  -2  -7   20.22    5.96
   7   2  -7   21.35    6.56
   7   2  -7   18.10    5.58
  -7  -2   6   47.37    5.74
  -7  -2   6   55.28    8.24
  -7   2   6   48.51    7.59
   7  -2  -6   41.57    7.64
   7  -2  -6   41.57    6.94
   7   2  -6   47.75    7.91
   7   2  -6   46.34    6.77
  -7  -2   5   55.39    5.96
  -7  -2   5   54.41    7.75
  -7   2   5   60.43    8.18
   7  -2  -5   67.42    8.89
   7  -2  -5   63.41    7.32
   7   2  -5   66.88    9.05
   7   2  -5   52.84    6.34
  -7  -2   4    3.52    3.09
  -7  -2   4    2.22    3.90
  -7   2   4    0.43    3.85
   7  -2  -4   -0.54    3.69
   7  -2  -4    1.08    3.03
   7   2  -4   -2.06    3.41
   7   2  -4    0.00    2.55
  -7  -2   3   42.00    5.58
  -7  -2   3   40.05    6.88
  -7   2   3   39.94    6.83
   7  -2  -3   37.77    6.77
   7  -2  -3   37.50    5.53
   7   2  -3   39.40    6.83
   7   2  -3   40.32    4.77
  -7  -2   2  179.71    8.89
  -7  -2   2  174.56   11.06
  -7   2   2  181.18   11.44
  -7   2   2  168.98   10.68
   7  -2  -2  184.27   11.38
   7  -2  -2  171.75    8.67
   7   2  -2  174.67   10.46
   7   2  -2  165.19    6.77
  -7  -2   1   11.22    4.06
  -7  -2   1    4.61    4.12
  -7   2   1    7.70    4.77
  -7   2   1    1.08    3.52
   7  -2  -1    4.28    4.12
   7  -2  -1    7.70    3.09
   7   2  -1    0.81    3.96
   7   2  -1    5.26    1.84
  -7  -2   0   -0.81    3.96
  -7  -2   0    0.38    3.36
  -7  -2   0    3.58    3.90
  -7   2   0   -0.27    4.06
  -7   2   0    4.01    3.74
   7  -2   0   -3.47    3.69
   7  -2   0    0.00    2.28
   7   2   0    1.25    3.85
   7   2   0    3.25    3.47
   7   2   0    0.60    3.47
  -7  -2  -1    0.38    4.12
  -7  -2  -1    2.55    3.90
  -7  -2  -1    3.74    3.96
  -7   2  -1    3.96    4.77
  -7   2  -1    3.69    3.96
   7  -2   1    5.37    4.66
   7  -2   1    2.71    2.38
   7   2   1   -2.11    3.63
   7   2   1    5.26    3.96
   7   2   1    1.41    3.69
  -7  -2  -2    1.52    4.34
  -7  -2  -2    0.60    3.74
  -7  -2  -2   -1.84    3.52
  -7   2  -2    4.17    5.31
   7  -2   2    0.05    4.28
   7  -2   2   -0.70    2.11
   7   2   2   -0.38    3.79
   7   2   2   -1.14    3.14
   7   2   2    0.16    3.63
  -7  -2  -3    4.28    5.04
  -7  -2  -3   10.41    5.42
  -7   2  -3   12.25    6.18
   7  -2   3    4.44    2.66
   7   2   3   10.73    4.72
   7   2   3   11.44    5.42
  -7   2  -4   -4.99    4.44
   7  -2   4   -0.43    2.33
   7   2   4    0.22    6.23
   7   2   4    2.06    5.26
  -7   2  -5    2.76    6.61
   7  -2   5    0.92    2.66
   7   2   5    6.77    6.07
   7  -3 -12   -4.99    7.42
   7  -3 -11    2.55    9.00
   7   3 -11    7.86    7.26
  -7  -3  10   -5.53    6.18
  -7   3  10    6.50    5.47
   7  -3 -10   19.56    8.67
   7   3 -10    6.12    6.34
  -7  -3   9   15.01    5.69
  -7  -3   9   11.60    4.88
  -7   3   9   15.93    6.29
   7  -3  -9   16.15    6.99
   7   3  -9   16.42    6.99
   7   3  -9   16.85    6.12
  -7  -3   8   -6.99    3.79
  -7  -3   8   -5.58    3.41
  -7   3   8   -1.84    3.96
   7  -3  -8    4.06    5.69
   7  -3  -8    1.25    4.28
   7   3  -8    1.08    4.99
   7   3  -8    2.38    4.44
  -7  -3   7   27.86    6.07
  -7  -3   7   28.62    6.56
  -7   3   7   20.22    6.07
   7  -3  -7   25.15    6.67
   7  -3  -7   25.04    6.40
   7   3  -7   17.13    6.07
   7   3  -7   25.26    6.18
  -7  -3   6   11.54    4.50
  -7  -3   6    8.94    4.77
  -7   3   6   16.53    5.53
   7  -3  -6   13.01    5.96
   7  -3  -6   18.37    5.37
   7   3  -6   10.19    5.20
   7   3  -6    4.77    3.79
  -7  -3   5   52.57    6.83
  -7  -3   5   44.98    7.42
  -7   3   5   48.18    7.59
   7  -3  -5   58.91    8.35
   7  -3  -5   57.01    7.59
   7   3  -5   42.38    7.59
   7   3  -5   58.96    6.72
  -7  -3   4  141.23    8.73
  -7  -3   4  135.44   10.35
  -7   3   4  142.48   10.57
   7  -3  -4  138.85   10.24
   7  -3  -4  135.54    9.32
   7   3  -4  149.04   10.35
   7   3  -4  141.23    8.24
  -7  -3   3  100.10    7.70
  -7  -3   3  104.16    9.81
  -7   3   3   98.31    9.10
   7  -3  -3   95.06    8.94
   7  -3  -3  103.08    8.18
   7   3  -3  106.93    8.94
   7   3  -3   99.50    6.56
  -7  -3   2  124.43    8.51
  -7  -3   2  112.62    9.70
  -7   3   2  115.33    9.92
  -7   3   2  118.42    9.65
   7  -3  -2  104.06    9.32
   7  -3  -2  124.43    8.35
   7   3  -2  128.34    9.76
   7   3  -2  122.86    9.97
   7   3  -2  121.07    6.12
  -7  -3   1   -0.98    3.25
  -7  -3   1   -4.23    3.47
  -7   3   1   -2.87    3.79
  -7   3   1   -1.95    3.90
   7  -3  -1    2.87    4.01
   7  -3  -1   -0.70    2.76
   7   3  -1    2.22    3.25
   7   3  -1   -0.70    3.58
   7   3  -1    0.00    1.52
  -7  -3   0   -1.68    3.52
  -7  -3   0    5.04    4.01
  -7   3   0    1.25    4.66
  -7   3   0    1.79    3.96
   7  -3   0   -0.92    3.85
   7  -3   0    1.46    2.76
   7   3   0    3.63    3.52
   7   3   0    0.49    3.74
   7   3   0    0.65    0.87
  -7  -3  -1   11.27    5.09
  -7  -3  -1    5.96    4.23
  -7  -3  -1    8.45    4.77
  -7   3  -1   16.53    6.29
  -7   3  -1    8.83    4.55
   7  -3   1   10.84    5.37
   7  -3   1    9.16    3.63
   7   3   1   13.87    4.88
   7   3   1   11.71    4.77
   7   3   1    3.63    4.61
  -7  -3  -2   -1.79    4.23
  -7  -3  -2   -1.35    3.74
  -7   3  -2   -0.87    5.09
   7  -3   2    1.08    2.82
   7   3   2    0.81    3.90
   7   3   2   -3.90    3.85
   7   3   2   -1.03    4.01
  -7  -3  -3    2.44    4.93
  -7   3  -3   -2.33    4.99
   7  -3   3    3.14    2.87
   7   3   3    2.82    5.09
  -7  -3  -4    1.19    4.82
  -7   3  -4   -3.90    5.26
   7  -3   4   -0.16    2.76
   7   3   4    7.75    5.58
   7   3   5   -2.76    5.04
  -7  -4  11   -0.54    6.67
   7  -4 -11    5.80   13.17
   7   4 -11    4.23    7.10
  -7  -4  10    4.82    6.18
  -7   4  10   21.62    6.61
   7  -4 -10   28.78    9.76
   7   4 -10   22.27    8.29
  -7  -4   9    8.40    5.69
  -7  -4   9    0.49    4.28
  -7   4   9    0.92    4.23
   7  -4  -9   11.87    7.42
   7   4  -9    7.26    6.02
   7   4  -9    4.82    4.55
   7   4  -9    8.02    5.85
  -7  -4   8   -1.68    3.79
  -7  -4   8    0.38    3.90
  -7   4   8   -3.47    3.85
   7  -4  -8    3.14    5.47
   7   4  -8    1.79    5.37
   7   4  -8    0.05    3.90
   7   4  -8   -4.06    4.28
  -7  -4   7   14.80    5.42
  -7  -4   7   28.07    6.50
  -7   4   7   22.27    6.45
   7  -4  -7   22.38    6.56
   7  -4  -7   19.78    6.18
   7   4  -7   20.65    6.61
   7   4  -7   22.44    5.96
   7   4  -7   27.48    6.50
  -7  -4   6    8.73    4.28
  -7  -4   6    6.67    5.09
  -7   4   6    3.20    4.55
   7  -4  -6    7.26    5.47
   7  -4  -6   13.06    5.31
   7   4  -6    6.45    5.53
   7   4  -6   11.87    5.31
   7   4  -6   11.16    4.77
  -7  -4   5   27.86    5.85
  -7  -4   5   28.89    6.67
  -7   4   5   29.37    6.72
   7  -4  -5   23.95    6.34
   7  -4  -5   30.51    6.23
   7   4  -5   28.89    6.67
   7   4  -5   22.98    6.12
   7   4  -5   26.66    5.37
  -7  -4   4    1.79    3.96
  -7  -4   4    4.28    4.39
  -7   4   4    3.25    4.50
   7  -4  -4    0.65    4.06
   7  -4  -4    2.38    4.17
   7   4  -4    4.34    4.66
   7   4  -4    0.22    4.01
   7   4  -4    2.76    3.14
  -7  -4   3    1.57    3.36
  -7  -4   3    1.46    4.61
  -7   4   3   -0.11    4.28
   7  -4  -3    3.90    4.44
   7  -4  -3    1.14    3.58
   7   4  -3    2.93    4.39
   7   4  -3    0.05    4.44
   7   4  -3    2.22    2.76
  -7  -4   2    1.95    3.90
  -7  -4   2    5.58    4.50
  -7   4   2   10.62    5.15
  -7   4   2    5.58    4.23
   7  -4  -2    0.60    4.06
   7  -4  -2    5.20    3.74
   7   4  -2    9.00    4.28
   7   4  -2    3.36    4.34
   7   4  -2    5.15    2.55
  -7  -4   1   27.86    5.96
  -7  -4   1   21.68    6.23
  -7   4   1   21.57    6.34
  -7   4   1   28.34    6.18
   7  -4  -1   21.68    6.18
   7  -4  -1   19.84    4.93
   7   4  -1   23.20    5.42
   7   4  -1   18.59    5.69
   7   4  -1   20.49    3.09
  -7  -4   0    3.96    4.55
  -7  -4   0    6.56    4.82
  -7   4   0    0.81    4.88
  -7   4   0    2.76    3.90
   7  -4   0   10.24    4.88
   7  -4   0    4.82    3.63
   7   4   0    5.09    3.85
   7   4   0   10.51    5.09
   7   4   0    4.34    1.63
  -7  -4  -1    5.09    4.88
  -7  -4  -1   12.30    5.15
  -7   4  -1    9.97    5.80
  -7   4  -1    0.43    5.04
   7  -4   1    4.82    4.77
   7  -4   1    6.29    3.47
   7   4   1    2.82    4.34
  -7  -4  -2   -5.58    4.01
  -7   4  -2    5.26    5.69
   7  -4   2    2.22    3.20
   7   4   2    1.25    4.39
   7   4   2    1.90    3.96
  -7  -4  -3    6.88    5.74
  -7   4  -3    1.57    5.26
   7  -4   3   10.84    4.06
   7   4   3   10.57    5.91
  -7  -4  -4    4.77    5.37
  -7   4  -4    1.14    5.69
   7  -4   4    2.55    3.69
   7   4   4   -0.16    5.64
  -7  -5  11    9.16    7.05
  -7  -5  10   -5.42    5.26
  -7   5  10    0.05    4.55
   7   5 -10    0.65    6.50
  -7  -5   9    6.56    5.74
  -7   5   9    7.70    5.58
   7  -5  -9   22.76    9.00
   7   5  -9   13.66    6.88
   7   5  -9    9.43    6.29
  -7  -5   8   27.53    7.05
  -7  -5   8   28.56    6.56
  -7   5   8   29.75    7.32
   7  -5  -8   48.23    8.83
   7   5  -8   33.76    8.02
   7   5  -8   40.00    7.48
   7   5  -8   39.18    8.08
  -7  -5   7    2.93    4.39
  -7  -5   7    5.80    4.72
  -7   5   7   -0.49    4.44
   7  -5  -7    5.20    5.37
   7  -5  -7    7.53    6.56
   7   5  -7    1.90    5.31
   7   5  -7    3.47    4.39
   7   5  -7    5.74    4.88
  -7  -5   6    5.47    4.50
  -7  -5   6   10.19    5.74
  -7   5   6   -2.06    4.23
   7  -5  -6    4.72    4.82
   7  -5  -6    2.93    4.34
   7   5  -6    7.75    5.26
   7   5  -6    5.69    4.99
   7   5  -6    5.53    4.34
  -7  -5   5   38.86    7.42
  -7  -5   5   45.85    8.08
  -7   5   5   37.94    7.75
   7  -5  -5   41.41    7.53
   7  -5  -5   41.41    8.02
   7   5  -5   38.37    7.64
   7   5  -5   48.07    8.13
   7   5  -5   35.06    6.12
  -7  -5   4    7.37    4.88
  -7  -5   4    6.02    4.55
  -7   5   4    0.98    4.39
   7  -5  -4   -0.70    3.63
   7  -5  -4    9.27    4.72
   7   5  -4    1.57    4.12
   7   5  -4    3.85    4.34
   7   5  -4    2.76    3.36
  -7  -5   3    6.18    4.17
  -7  -5   3    3.63    4.39
  -7   5   3    3.41    4.55
   7  -5  -3    4.72    4.34
   7  -5  -3    7.37    4.66
   7   5  -3    5.69    4.34
   7   5  -3   10.57    5.26
   7   5  -3    6.29    3.20
  -7  -5   2    3.58    4.06
  -7  -5   2    4.17    4.82
  -7   5   2    7.91    5.04
  -7   5   2    0.76    4.44
   7  -5  -2    3.20    4.34
   7  -5  -2    5.80    4.01
   7   5  -2   -1.84    3.69
   7   5  -2    4.44    4.66
   7   5  -2    1.84    2.60
  -7  -5   1    4.93    4.77
  -7  -5   1    4.17    4.61
  -7   5   1    5.04    4.88
  -7   5   1   10.78    5.20
   7  -5  -1    8.56    4.88
   7  -5  -1    5.74    4.12
   7   5  -1    2.71    4.44
   7   5  -1    6.23    2.60
  -7  -5   0    3.79    4.44
  -7  -5   0    2.44    4.39
  -7   5   0   -1.19    4.50
  -7   5   0    2.60    4.01
   7  -5   0    2.98    4.61
   7  -5   0    4.34    3.96
   7   5   0    4.17    4.72
   7   5   0    3.96    2.01
  -7  -5  -1    5.74    5.15
  -7   5  -1    2.66    5.20
   7  -5   1    5.37    5.04
   7  -5   1   -2.06    3.31
   7   5   1    3.90    5.26
  -7  -5  -2    5.09    5.04
  -7   5  -2    1.63    5.53
   7  -5   2    4.23    3.96
   7   5   2    8.02    5.42
   7   5   2    2.11    4.55
  -7  -5  -3    0.33    4.88
  -7   5  -3    0.98    5.47
   7  -5   3   -3.96    3.25
   7   5   3    7.26    5.69
  -7  -5  -4    3.74    5.80
   7   5   4    6.02    6.67
  -7  -6  10    3.85    6.23
  -7   6  10    3.03    5.80
   7   6 -10    9.38    6.72
  -7  -6   9   -0.27    5.91
  -7   6   9    9.38    6.29
   7   6  -9   19.19    7.42
  -7  -6   8   19.67    6.77
  -7  -6   8   14.80    5.85
  -7   6   8   22.65    6.88
   7   6  -8   19.24    7.10
   7   6  -8   13.93    5.96
   7   6  -8   17.13    6.61
  -7  -6   7   24.28    7.10
  -7  -6   7   12.09    5.64
  -7   6   7   18.32    6.61
   7  -6  -7    8.02    6.02
   7   6  -7   10.95    6.02
   7   6  -7   12.74    6.07
   7   6  -7   15.61    6.02
  -7  -6   6   38.15    7.75
  -7  -6   6   24.71    6.94
  -7   6   6   24.33    6.94
   7  -6  -6   23.85    6.99
   7  -6  -6   35.39    8.08
   7   6  -6   33.66    7.26
   7   6  -6   34.03    7.59
   7   6  -6   31.00    6.94
  -7  -6   5   -0.81    4.06
  -7  -6   5    3.20    5.20
  -7   6   5   -0.70    4.34
   7  -6  -5    4.39    5.09
   7  -6  -5   -5.85    3.74
   7   6  -5   -3.47    4.17
   7   6  -5   -0.76    4.39
   7   6  -5    2.98    3.79
  -7  -6   4   33.71    7.48
  -7  -6   4   33.71    7.64
  -7   6   4   28.56    7.53
   7  -6  -4   45.09    7.97
   7  -6  -4   37.77    7.64
   7   6  -4   41.89    8.18
   7   6  -4   39.56    6.29
  -7  -6   3   15.83    5.69
  -7  -6   3   17.07    6.07
  -7   6   3    9.32    5.53
   7  -6  -3   15.34    5.53
   7  -6  -3   18.91    6.12
   7   6  -3   14.85    6.02
   7   6  -3   13.98    4.28
  -7  -6   2    2.17    4.39
  -7  -6   2    5.69    5.04
  -7   6   2    3.58    4.88
  -7   6   2   11.00    5.53
   7  -6  -2    2.38    5.04
   7  -6  -2    5.42    4.61
   7   6  -2    3.90    5.04
   7   6  -2    2.71    2.98
  -7  -6   1    2.28    4.55
  -7   6   1    0.38    5.04
  -7   6   1    6.94    5.09
   7  -6  -1   -0.11    4.23
   7  -6  -1    5.69    4.23
   7   6  -1    3.25    5.26
   7   6  -1   -1.46    2.38
  -7  -6   0   -3.25    3.96
  -7   6   0    3.20    4.99
  -7   6   0    2.44    4.12
   7  -6   0    6.45    5.47
   7  -6   0    1.90    4.28
   7   6   0   -1.30    4.99
   7   6   0    3.36    2.33
  -7  -6  -1    6.67    5.58
  -7   6  -1   -2.60    5.26
   7  -6   1   -2.98    4.23
   7  -6   1    1.41    3.85
   7   6   1   -1.19    4.17
  -7  -6  -2   -0.54    4.77
  -7   6  -2    1.41    5.53
   7  -6   2    4.44    5.37
   7  -6   2    5.04    4.39
   7   6   2   13.12    6.77
   7   6   2    2.82    4.99
  -7  -6  -3   -2.17    5.74
  -7   6  -3   -4.93    5.53
   7  -6   3   -0.16    4.34
   7   6   3    6.83    6.56
   7   6   3   -0.81    5.80
  -7  -7   9    9.81    7.05
  -7   7   9   16.31    6.88
   7   7  -9   18.05    6.56
  -7  -7   8    5.96    5.85
  -7   7   8   15.23    7.05
   7   7  -8   23.95    7.59
   7   7  -8   21.03    6.94
   7   7  -8   16.10    6.50
  -7  -7   7    7.91    6.07
  -7   7   7    8.56    6.07
   7   7  -7    2.38    4.50
   7   7  -7    3.85    4.82
   7   7  -7    2.06    4.88
  -7  -7   6    1.25    4.77
  -7   7   6   -1.46    4.88
   7   7  -6    1.84    5.31
   7   7  -6    6.23    5.15
  -7  -7   5   46.28    9.00
  -7   7   5   26.83    7.48
   7  -7  -5   28.40    6.77
   7  -7  -5   26.83    7.86
   7   7  -5   42.44    8.83
   7   7  -5   30.51    6.83
  -7  -7   4   10.62    5.85
  -7   7   4    2.93    4.88
   7  -7  -4   -3.03    4.01
   7  -7  -4   -1.52    4.66
   7   7  -4    4.61    5.37
   7   7  -4    3.25    3.90
  -7  -7   3   -1.08    3.85
  -7   7   3    1.46    4.66
   7  -7  -3   -0.27    4.55
   7  -7  -3    4.55    4.93
   7   7  -3    1.35    4.88
   7   7  -3    2.33    3.63
  -7  -7   2   -2.60    4.23
  -7   7   2    1.14    4.44
  -7   7   2    2.38    4.72
   7  -7  -2    7.10    5.42
   7  -7  -2   -2.06    4.55
   7   7  -2    7.32    5.37
   7   7  -2    0.98    3.09
  -7  -7   1   -0.49    5.42
  -7   7   1    0.76    5.47
  -7   7   1   -1.68    4.61
   7  -7  -1   10.19    5.47
   7  -7  -1    4.44    4.50
   7   7  -1   -0.60    4.61
   7   7  -1    0.92    2.87
  -7  -7   0    2.11    4.99
  -7   7   0    4.72    5.31
  -7   7   0    1.79    4.82
   7  -7   0   -2.17    4.99
   7  -7   0    0.98    4.77
   7   7   0    3.14    6.07
   7   7   0    1.46    2.66
  -7  -7  -1    1.79    5.42
  -7   7  -1    5.91    5.80
   7  -7   1    8.78    5.69
   7  -7   1    1.52    4.44
   7   7   1    5.20    5.37
  -7  -7  -2    5.85    5.85
  -7   7  -2   -3.74    5.31
   7  -7   2    5.26    5.53
   7  -7   2   -0.70    4.34
   7   7   2    3.41    6.02
   7   7   3   -2.87    5.37
  -7  -8   8    8.78    8.94
   7   8  -8    4.28    5.85
  -7  -8   7    0.27    5.15
  -7   8   7   -0.60    5.53
   7   8  -7    0.11    4.88
   7   8  -7    1.57    5.47
  -7  -8   6   -2.01    5.37
  -7   8   6   -2.55    4.99
   7   8  -6    4.28    5.85
   7   8  -6    0.76    4.50
  -7  -8   5    1.41    5.37
  -7   8   5   -2.01    5.04
   7   8  -5    4.17    5.20
   7   8  -5    1.46    4.39
  -7  -8   4   -0.16    4.77
  -7   8   4    1.03    5.37
   7   8  -4   -2.06    4.61
   7   8  -4    2.28    4.23
  -7  -8   3    3.31    5.91
  -7   8   3    3.63    5.31
   7  -8  -3    7.86    5.58
   7   8  -3    8.24    6.18
   7   8  -3    2.06    4.12
  -7  -8   2    3.20    5.80
  -7   8   2    7.64    5.31
  -7   8   2    8.29    5.58
   7  -8  -2    1.03    4.66
   7  -8  -2    7.91    6.12
   7   8  -2    8.35    6.07
   7   8  -2   11.92    4.72
  -7  -8   1   10.51    6.77
  -7   8   1   17.72    6.67
  -7   8   1   14.96    6.29
   7  -8  -1   16.91    7.10
   7  -8  -1   21.62    7.05
   7   8  -1   13.44    6.61
   7   8  -1   12.84    4.39
  -7  -8   0    7.97    6.67
  -7   8   0    3.96    5.69
   7  -8   0    6.77    5.80
   7  -8   0    9.65    5.80
   7   8   0   -0.16    6.23
  -7  -8  -1   -3.79    5.04
  -7   8  -1   -4.66    5.69
   7  -8   1    7.32    5.58
   7  -8   1   -3.14    4.88
   7   8   1   -4.06    6.02
   7   9  -6    3.69    5.64
   7   9  -6    0.49    5.09
  -7  -9   5   -0.98    5.15
   7   9  -5    7.42    6.12
   7   9  -5    8.02    5.69
  -7  -9   4    6.23    6.45
  -7   9   4   18.05    7.91
   7   9  -4   15.45    7.32
   7   9  -4    7.32    5.37
  -7  -9   3    3.25    5.91
  -7   9   3   10.24    7.10
   7   9  -3    5.15    6.72
   7   9  -3    0.70    6.56
  -7  -9   2   10.41    7.10
  -7   9   2    8.73    5.96
  -7   9   1    5.91    5.74
   7  -9  -1    4.66    5.31
  -7   9   0    5.09    5.58
   7  -9   0    5.53    9.32
   7  -9   0    2.93    5.96
   8   0 -11    8.45    8.18
  -8   0  10    2.55    5.09
   8   0 -10    8.56    7.37
  -8   0   9    0.16    4.23
   8   0  -9   -0.87    5.31
   8   0  -9   -1.30    4.28
  -8   0   8   24.60    6.50
   8   0  -8   26.88    7.70
   8   0  -8   26.99    6.77
  -8   0   7    0.43    4.61
   8   0  -7   -2.87    4.12
   8   0  -7   -2.98    3.52
  -8   0   6    2.49    4.39
   8   0  -6    3.96    4.77
   8   0  -6    1.30    3.52
  -8   0   5    1.52    4.72
   8   0  -5    5.42    4.99
   8   0  -5    4.17    3.52
  -8   0   4    4.99    4.50
   8   0  -4    0.70    4.77
   8   0  -4    0.22    2.87
  -8   0   3    1.14    3.90
   8   0  -3   -4.01    3.52
   8   0  -3    0.22    2.49
  -8   0   2    4.66    4.44
   8   0  -2    3.85    4.34
   8   0  -2    5.96    2.71
  -8   0   1   -2.38    4.44
  -8   0   1   -4.01    3.90
   8   0  -1    1.03    4.72
   8   0  -1    0.11    1.84
  -8   0   0    8.40    5.31
  -8   0   0    8.94    4.93
   8   0   0    6.23    5.04
   8   0   0    6.56    2.01
  -8   0  -1   -3.03    4.12
  -8   0  -1   -1.46    3.90
   8   0   1   -0.60    4.17
   8   0   1    0.87    1.14
  -8   0  -2   -2.17    4.28
   8   0   2    1.57    4.72
  -8   0  -3    5.37    5.91
   8   0   3    5.64    5.58
  -8   0  -4   -3.25    5.85
   8   0   4    2.60    5.53
   8  -1 -11   13.66    9.76
   8   1 -11    3.36    7.59
  -8  -1  10   15.39    6.34
  -8   1  10    9.70    6.07
   8  -1 -10   33.93   10.03
   8   1 -10   16.91    7.86
  -8  -1   9    9.00    5.58
  -8   1   9   14.96    5.85
   8  -1  -9   18.53    7.32
   8  -1  -9   16.10    6.29
   8   1  -9    9.54    6.56
   8   1  -9    3.31    5.09
  -8  -1   8    4.82    4.99
  -8   1   8    1.90    4.28
   8  -1  -8   -1.52    5.20
   8  -1  -8    0.16    4.44
   8   1  -8    0.33    5.47
   8   1  -8   -0.16    4.34
  -8  -1   7   34.47    7.26
  -8   1   7   39.08    7.97
   8  -1  -7   31.76    7.86
   8  -1  -7   27.91    6.61
   8   1  -7   25.36    6.99
   8   1  -7   31.33    6.50
  -8  -1   6    1.14    4.28
  -8   1   6    1.46    4.66
   8  -1  -6    2.44    4.77
   8  -1  -6    3.96    4.34
   8   1  -6    0.87    5.26
   8   1  -6    3.69    3.74
  -8  -1   5   23.90    6.34
  -8   1   5   25.20    6.50
   8  -1  -5   24.28    6.61
   8  -1  -5   22.22    5.15
   8   1  -5   22.60    6.61
   8   1  -5   15.28    4.55
  -8  -1   4    0.16    3.90
  -8   1   4   -2.98    3.79
   8  -1  -4    0.81    4.23
   8  -1  -4    0.76    2.87
   8   1  -4    1.57    4.50
   8   1  -4   -4.06    2.22
  -8  -1   3   -0.60    4.39
  -8   1   3    1.95    4.39
   8  -1  -3   -0.11    3.96
   8  -1  -3    1.46    2.71
   8   1  -3    2.55    4.34
   8   1  -3    4.23    2.87
  -8  -1   2    1.63    4.12
  -8   1   2   -2.71    4.39
   8  -1  -2   -0.16    4.12
   8  -1  -2    2.76    2.66
   8   1  -2    2.22    4.12
   8   1  -2    1.63    2.11
  -8  -1   1   26.99    6.67
  -8   1   1   27.15    6.88
  -8   1   1   27.15    6.40
   8  -1  -1   26.45    6.83
   8  -1  -1   26.50    4.01
   8   1  -1   33.98    6.99
   8   1  -1   30.30    3.31
  -8  -1   0   33.71    7.32
  -8  -1   0   37.50    7.15
  -8   1   0   40.27    8.56
  -8   1   0   31.38    6.77
   8  -1   0   32.19    7.75
   8  -1   0   34.25    4.12
   8   1   0   32.19    7.15
  -8  -1  -1    6.40    5.15
  -8  -1  -1   15.39    5.64
  -8   1  -1    3.52    5.09
  -8   1  -1    8.89    5.26
   8  -1   1   11.60    5.80
   8  -1   1    4.55    2.17
   8   1   1   11.98    5.47
   8   1   1    8.24    4.39
  -8  -1  -2   -0.65    4.99
  -8   1  -2   -0.60    4.88
   8  -1   2    3.14    4.66
   8  -1   2    0.65    1.73
   8   1   2   -1.90    4.50
  -8  -1  -3   -0.38    4.66
  -8   1  -3    4.77    5.58
   8  -1   3   -0.98    4.72
   8  -1   3    0.27    1.57
   8   1   3    6.50    4.88
  -8  -1  -4   -4.72    4.72
  -8   1  -4    3.79    6.56
   8  -1   4    8.56    6.61
   8  -1   4    0.92    1.41
   8   1   4    0.43    4.55
   8  -2 -11   25.80   10.13
   8   2 -11   26.45    9.27
  -8  -2  10    3.47    4.93
  -8   2  10    4.17    5.15
   8  -2 -10   17.29    8.56
   8   2 -10    8.56    7.80
  -8  -2   9   -1.35    4.50
  -8   2   9    4.23    5.37
   8  -2  -9   -2.17    5.26
   8  -2  -9    0.70    5.53
   8   2  -9   -5.47    5.96
   8   2  -9    2.11    4.61
  -8  -2   8    0.22    4.23
  -8   2   8   -0.33    4.23
   8  -2  -8   -4.93    4.77
   8  -2  -8    6.72    5.31
   8   2  -8   -3.52    5.04
   8   2  -8    5.04    4.72
  -8  -2   7    2.60    4.39
  -8   2   7    4.12    4.72
   8  -2  -7   -2.06    4.99
   8  -2  -7   -0.11    4.01
   8   2  -7   -2.98    4.61
   8   2  -7    4.17    4.23
  -8  -2   6   -4.01    3.74
  -8   2   6    2.38    4.66
   8  -2  -6    4.82    4.99
   8  -2  -6    3.69    3.90
   8   2  -6    8.56    5.20
   8   2  -6    0.81    3.69
  -8  -2   5    8.35    4.93
  -8   2   5    6.07    4.61
   8  -2  -5    6.94    5.15
   8  -2  -5    2.44    3.74
   8   2  -5   -1.30    4.61
   8   2  -5    2.01    3.41
  -8  -2   4    0.76    4.06
  -8   2   4   -1.90    3.85
   8  -2  -4    2.71    4.28
   8  -2  -4    1.35    3.31
   8   2  -4   -0.65    4.34
   8   2  -4   -1.19    2.55
  -8  -2   3    6.83    4.82
  -8   2   3    7.32    4.88
   8  -2  -3    3.47    4.88
   8  -2  -3    5.47    3.58
   8   2  -3   -0.16    4.12
   8   2  -3    6.23    2.82
  -8  -2   2   36.91    7.15
  -8   2   2   30.30    7.10
  -8   2   2   32.90    6.77
   8  -2  -2   32.52    7.15
   8  -2  -2   34.09    5.26
   8   2  -2   30.30    6.77
   8   2  -2   30.95    3.90
  -8  -2   1    9.05    4.93
  -8   2   1    8.51    5.58
  -8   2   1   13.17    5.37
   8  -2  -1   14.90    6.18
   8  -2  -1   12.84    3.79
   8   2  -1   20.27    5.74
   8   2  -1   12.95    2.22
  -8  -2   0    1.68    4.01
  -8   2   0    9.32    5.64
  -8   2   0    3.09    4.66
   8  -2   0    3.25    4.66
   8  -2   0    4.66    2.93
   8   2   0    5.69    4.72
   8   2   0    6.77    4.77
  -8  -2  -1    1.46    4.34
  -8  -2  -1    4.06    4.93
  -8   2  -1   -3.90    4.77
   8  -2   1    3.14    4.99
   8  -2   1    1.25    2.38
   8   2   1    0.16    3.85
   8   2   1    0.27    4.44
  -8  -2  -2    4.50    5.15
  -8   2  -2    0.16    5.53
   8  -2   2    4.55    5.09
   8  -2   2    1.08    2.33
   8   2   2    4.82    4.93
  -8   2  -3    0.49    5.58
   8  -2   3    5.15    5.64
   8  -2   3    0.33    2.11
  -8   3  11    0.70    5.58
   8  -3 -11   11.65    8.73
  -8   3  10    3.69    5.15
   8  -3 -10   13.49    8.67
   8   3 -10    4.28    6.77
  -8  -3   9   -1.68    4.82
  -8   3   9   -2.28    5.26
   8  -3  -9   -1.46    6.29
   8   3  -9    3.74    6.12
   8   3  -9    3.09    5.09
  -8  -3   8   24.06    6.45
  -8   3   8   11.49    5.74
   8  -3  -8   18.75    6.99
   8  -3  -8   25.63    7.21
   8   3  -8   14.36    7.21
   8   3  -8   18.59    6.29
  -8  -3   7   10.68    5.80
  -8   3   7    6.72    5.42
   8  -3  -7   13.28    6.40
   8  -3  -7   -2.44    4.12
   8   3  -7    4.23    5.69
   8   3  -7    7.37    4.77
  -8  -3   6   -0.11    4.12
  -8   3   6    1.14    4.44
   8  -3  -6   -1.73    4.61
   8  -3  -6   -2.22    3.90
   8   3  -6   -0.38    4.44
   8   3  -6   -2.33    3.31
  -8  -3   5   40.81    7.80
  -8   3   5   42.00    7.97
   8  -3  -5   51.05    8.83
   8  -3  -5   34.41    6.45
   8   3  -5   42.27    8.40
   8   3  -5   40.27    6.29
  -8  -3   4   11.60    5.26
  -8   3   4   11.87    5.47
   8  -3  -4    9.54    5.09
   8  -3  -4    9.27    4.28
   8   3  -4    1.63    5.31
   8   3  -4   11.33    3.74
  -8  -3   3   17.83    6.29
  -8   3   3   19.62    5.96
   8  -3  -3   10.24    5.31
   8  -3  -3   16.75    4.82
   8   3  -3   13.66    5.53
   8   3  -3   13.33    5.47
   8   3  -3   14.96    3.58
  -8  -3   2   -1.08    3.90
  -8   3   2   -4.39    4.06
  -8   3   2   -3.63    3.52
   8  -3  -2    4.17    5.15
   8  -3  -2    3.14    3.31
   8   3  -2   -0.38    3.85
   8   3  -2    1.19    4.17
   8   3  -2    0.70    1.95
  -8  -3   1    1.46    4.44
  -8   3   1    3.03    5.09
  -8   3   1    5.64    4.88
   8  -3  -1    2.38    4.44
   8  -3  -1    3.58    3.25
   8   3  -1   10.19    4.93
   8   3  -1    4.39    4.72
   8   3  -1    1.68    1.63
  -8  -3   0   28.45    6.94
  -8   3   0   22.11    7.64
  -8   3   0   25.20    6.18
   8  -3   0   31.92    7.70
   8  -3   0   31.22    5.31
   8   3   0   26.94    6.12
   8   3   0   23.95    6.61
  -8  -3  -1    2.06    4.50
  -8   3  -1   -0.11    5.37
   8  -3   1    5.74    5.53
   8  -3   1    2.11    2.87
   8   3   1    2.82    4.55
   8   3   1    2.66    4.88
  -8   3  -2   -4.61    4.72
   8  -3   2    0.98    5.09
   8  -3   2    2.98    2.93
  -8   3  -3    4.50    6.29
   8  -3   3    8.73    6.29
   8  -3   3    4.23    3.25
  -8   4  11    0.49    5.20
   8  -4 -11   10.95    9.76
  -8   4  10    2.33    5.85
   8  -4 -10    2.22    7.91
   8   4 -10    7.05    7.15
  -8  -4   9    1.57    4.44
  -8   4   9    1.41    4.77
   8  -4  -9    3.03    6.94
   8   4  -9    2.49    6.50
   8   4  -9    4.17    4.61
   8   4  -9    4.17    5.15
  -8  -4   8   14.31    5.96
  -8   4   8    8.78    5.64
   8  -4  -8   13.55    6.45
   8  -4  -8   12.95    6.50
   8   4  -8   12.36    6.99
   8   4  -8   13.39    5.69
   8   4  -8   13.71    5.80
  -8  -4   7   19.84    6.23
  -8   4   7   18.81    6.77
   8  -4  -7   12.79    6.29
   8  -4  -7   13.98    5.85
   8   4  -7   11.60    6.34
   8   4  -7   20.16    6.23
   8   4  -7   18.53    5.80
  -8  -4   6    4.28    4.82
  -8   4   6    0.87    4.66
   8  -4  -6    1.63    5.04
   8  -4  -6    0.98    4.28
   8   4  -6   -5.64    4.34
   8   4  -6    4.50    4.72
   8   4  -6    2.60    3.96
  -8  -4   5   32.41    7.97
  -8  -4   5   34.25    7.70
  -8   4   5   33.93    7.64
   8  -4  -5   41.24    8.45
   8  -4  -5   33.17    6.99
   8   4  -5   39.40    8.02
   8   4  -5   42.60    7.97
   8   4  -5   36.80    6.18
  -8  -4   4   27.04    6.18
  -8  -4   4   26.99    6.99
  -8   4   4   33.44    7.48
   8  -4  -4   27.48    6.94
   8  -4  -4   36.26    6.99
   8   4  -4   26.66    6.67
   8   4  -4   35.55    7.64
   8   4  -4   22.60    4.77
  -8  -4   3    1.52    4.06
  -8  -4   3   -1.95    3.90
  -8   4   3    3.74    4.82
   8  -4  -3    2.71    4.61
   8  -4  -3    0.54    4.01
   8   4  -3    3.79    4.88
   8   4  -3    0.43    4.55
   8   4  -3    6.18    2.98
  -8  -4   2    1.46    3.96
  -8  -4   2   -2.93    4.01
  -8   4   2    2.33    4.93
  -8   4   2    2.06    4.88
   8  -4  -2   -0.33    4.39
   8  -4  -2   -0.22    3.41
   8   4  -2    4.28    4.50
   8   4  -2    2.22    4.72
   8   4  -2    3.63    2.33
  -8  -4   1   -3.96    3.74
  -8  -4   1    3.25    4.66
  -8   4   1    3.31    5.04
  -8   4   1   -2.11    4.06
   8  -4  -1    1.63    4.77
   8  -4  -1    0.70    3.47
   8   4  -1   -2.76    3.79
   8   4  -1   -0.33    4.12
   8   4  -1    0.43    1.63
  -8  -4   0   -0.16    4.50
  -8  -4   0   -6.67    4.39
  -8   4   0   -0.87    4.93
  -8   4   0    3.52    4.23
   8  -4   0    4.61    5.15
   8  -4   0   -1.95    3.09
   8   4   0    8.62    5.58
  -8  -4  -1   -0.70    5.85
  -8  -4  -1    0.65    4.72
  -8   4  -1   -4.61    5.53
   8  -4   1    2.01    4.82
   8  -4   1    1.14    3.09
   8   4   1    6.72    4.77
   8   4   1   -2.22    4.61
  -8   4  -2    5.85    5.85
   8  -4   2   -3.14    5.04
   8  -4   2   -0.65    3.20
   8   4   2    1.79    4.99
   8   4   2    4.77    5.26
  -8   5  10   -2.01    4.77
   8   5 -10    9.70    6.56
  -8  -5   9   12.63    6.56
  -8   5   9    4.28    5.85
   8  -5  -9   14.58    7.86
   8   5  -9   20.22    7.70
   8   5  -9    7.64    5.80
   8   5  -9   11.54    6.18
  -8  -5   8   -0.16    4.82
  -8  -5   8   -0.98    5.15
  -8   5   8   -5.42    4.12
   8  -5  -8   -2.60    5.80
   8   5  -8    6.12    6.12
   8   5  -8    2.22    5.37
   8   5  -8   -0.81    4.23
  -8  -5   7   -1.41    4.01
  -8  -5   7   -1.25    4.17
  -8   5   7    1.41    4.72
   8  -5  -7   -0.98    5.31
   8  -5  -7    9.16    5.85
   8   5  -7   -0.11    5.04
   8   5  -7    0.54    4.55
   8   5  -7   -1.35    4.12
  -8  -5   6   40.27    7.37
  -8  -5   6   28.72    7.48
  -8   5   6   35.93    8.73
   8  -5  -6   41.68    8.62
   8  -5  -6   42.00    8.24
   8   5  -6   35.61    7.97
   8   5  -6   29.65    7.48
   8   5  -6   44.71    7.48
  -8  -5   5    6.94    4.88
  -8  -5   5   10.89    5.85
  -8   5   5    4.99    5.37
   8  -5  -5   12.95    5.91
   8  -5  -5    4.44    4.72
   8   5  -5   11.49    5.85
   8   5  -5    9.92    5.58
   8   5  -5    5.58    3.96
  -8  -5   4   -0.11    4.06
  -8  -5   4   -1.35    4.34
  -8   5   4   -2.55    4.23
   8  -5  -4   -0.11    4.06
   8  -5  -4    0.81    4.23
   8   5  -4   -0.16    4.01
   8   5  -4   -4.23    3.96
   8   5  -4    0.38    3.03
  -8  -5   3    1.25    4.34
  -8  -5   3   -1.68    4.34
  -8   5   3    4.55    4.93
   8  -5  -3    4.17    4.50
   8  -5  -3    3.09    4.28
   8   5  -3   -2.55    4.82
   8   5  -3    1.19    4.72
   8   5  -3    5.74    3.20
  -8  -5   2   15.77    5.58
  -8  -5   2    9.21    5.74
  -8   5   2   17.61    7.15
  -8   5   2   12.95    5.58
   8  -5  -2   16.69    6.18
   8  -5  -2   13.71    5.26
   8   5  -2   24.01    7.10
   8   5  -2   14.63    3.52
  -8  -5   1    4.77    4.61
  -8  -5   1    6.07    5.09
  -8   5   1    4.72    5.42
  -8   5   1   -1.35    4.39
   8  -5  -1    4.88    5.04
   8  -5  -1    2.87    3.96
   8   5  -1   -2.82    4.28
   8   5  -1    2.06    2.17
  -8  -5   0   -2.38    4.50
  -8  -5   0    2.93    5.04
  -8   5   0    5.42    6.02
  -8   5   0    4.66    7.10
   8  -5   0    4.34    5.42
   8  -5   0    4.77    3.96
   8   5   0    3.85    5.31
  -8  -5  -1   -3.09    4.12
  -8   5  -1   -7.97    5.31
   8  -5   1   -3.09    4.44
   8  -5   1    3.36    3.63
   8   5   1    2.22    4.77
   8   5   1    5.80    5.20
  -8  -5  -2   -0.38    4.93
  -8   5  -2   11.98    7.91
   8  -5   2    1.08    6.40
   8  -5   2   -3.85    5.26
   8   5   2    7.91    5.69
   8   5   2    2.71    5.31
  -8  -5  -3   -0.81    6.12
   8   5   3   10.57    6.94
  -8  -6  10    0.60    5.74
  -8  -6   9    1.52    4.61
  -8  -6   9    2.87    6.07
  -8   6   9    8.02    6.07
   8   6  -9    7.26    6.18
   8   6  -9    0.92    5.42
  -8  -6   8    2.55    5.04
  -8  -6   8   -1.63    4.66
  -8   6   8    0.98    5.47
   8   6  -8   -0.22    6.18
   8   6  -8    6.67    5.91
   8   6  -8   -1.84    4.88
  -8  -6   7   62.76    9.76
  -8  -6   7   59.29    9.81
  -8   6   7   67.04   10.68
   8  -6  -7   58.64   10.41
   8   6  -7   66.17   10.68
   8   6  -7   63.90   10.03
   8   6  -7   53.06    8.83
  -8  -6   6   -1.84    4.23
  -8  -6   6   -0.98    4.50
  -8   6   6   -1.03    5.42
   8  -6  -6   -0.65    4.99
   8  -6  -6    7.86    5.37
   8   6  -6   -3.20    4.72
   8   6  -6    1.14    4.88
   8   6  -6    0.92    4.01
  -8  -6   5   -0.11    4.34
  -8  -6   5    1.41    5.04
  -8   6   5    2.82    4.72
   8  -6  -5   -0.05    5.31
   8  -6  -5   -2.87    4.61
   8   6  -5    6.34    5.58
   8   6  -5    2.98    3.79
  -8  -6   4   -3.69    4.28
  -8  -6   4   -2.17    4.72
  -8   6   4   -2.87    4.44
   8  -6  -4   -0.76    4.06
   8  -6  -4    0.27    4.72
   8   6  -4    2.01    4.88
   8   6  -4    0.16    3.20
  -8  -6   3   14.90    6.12
  -8  -6   3   10.95    6.07
  -8   6   3   23.74    7.64
   8  -6  -3   13.17    6.02
   8  -6  -3   15.50    5.80
   8   6  -3   20.49    6.88
   8   6  -3   11.92    4.23
  -8  -6   2   11.44    6.12
  -8  -6   2    4.50    5.26
  -8   6   2    4.55    5.26
  -8   6   2    2.66    4.72
   8  -6  -2   11.16    6.50
   8  -6  -2    1.19    4.44
   8   6  -2   -1.63    4.82
   8   6  -2    6.02    3.09
  -8  -6   1   -0.38    4.34
  -8  -6   1   -2.55    4.66
  -8   6   1    1.79    5.31
  -8   6   1   -0.81    4.12
   8  -6  -1    5.26    5.47
   8  -6  -1   -0.49    4.17
   8   6  -1    4.88    5.64
   8   6  -1    0.54    2.28
  -8  -6   0    8.73    6.18
  -8   6   0    2.28    5.42
   8  -6   0    9.21    6.07
   8  -6   0    3.36    4.23
   8   6   0   -1.30    4.66
  -8  -6  -1    1.95    5.31
  -8   6  -1   -3.14    5.09
   8  -6   1    0.65    5.04
   8  -6   1    0.87    4.34
   8   6   1    2.76    5.64
  -8  -6  -2   -1.03    5.64
   8   6   2    8.83    6.83
   8   6   2    1.79    5.74
   8   7  -9    8.67    6.88
   8   7  -9    9.48    7.26
  -8  -7   8   -0.65    5.58
  -8  -7   8    1.14    5.20
   8   7  -8   -1.63    4.82
   8   7  -8    2.38    5.09
  -8  -7   7    4.28    5.31
  -8  -7   7    1.25    5.09
  -8   7   7    7.70    6.45
   8   7  -7    6.12    5.80
   8   7  -7    5.74    5.31
  -8  -7   6    0.16    4.66
  -8  -7   6   -0.33    4.99
  -8   7   6    1.84    5.47
   8   7  -6   -2.11    4.72
   8   7  -6    2.82    4.50
  -8  -7   5   20.70    6.99
  -8  -7   5   25.74    7.75
  -8   7   5   21.79    7.75
   8  -7  -5   23.47    7.05
   8  -7  -5   12.03    6.77
   8   7  -5   18.86    7.10
   8   7  -5   17.40    6.02
  -8  -7   4    0.65    4.77
  -8  -7   4    0.54    5.26
  -8   7   4    9.00    6.07
   8  -7  -4    4.93    5.37
   8  -7  -4    3.31    5.37
   8   7  -4    5.15    5.91
   8   7  -4    4.72    4.17
  -8  -7   3   -0.54    4.77
  -8   7   3    0.54    4.93
   8  -7  -3    3.09    5.64
   8  -7  -3   -2.17    4.99
   8   7  -3    3.47    5.58
   8   7  -3    2.87    3.63
  -8  -7   2    1.19    4.93
  -8   7   2    2.49    5.96
  -8   7   2    2.06    5.20
   8  -7  -2   -1.03    5.31
   8  -7  -2    2.01    4.61
   8   7  -2    9.81    6.34
   8   7  -2    0.16    3.03
  -8  -7   1    7.75    5.69
  -8   7   1    5.47    5.69
  -8   7   1    2.06    4.66
   8  -7  -1    1.57    5.37
   8  -7  -1    6.56    5.31
   8   7  -1   17.67    7.48
   8   7  -1    6.34    3.14
  -8  -7   0    5.69    5.74
  -8   7   0    7.59    6.34
   8  -7   0    9.59    6.18
   8  -7   0   -0.87    4.55
   8   7   0    6.67    6.18
  -8  -7  -1    1.46    5.91
  -8  -8   6   -2.22    5.64
   8   8  -6    2.11    9.92
  -8  -8   5    1.35    5.64
   8   8  -5   -1.46    5.69
  -8  -8   4    9.97    6.40
  -8   8   4   12.84    6.77
   8  -8  -4   13.98    6.83
   8   8  -4   16.64   11.76
   8   8  -4    9.38    8.73
  -8  -8   3    8.02    6.23
  -8   8   3    5.37    5.91
   8  -8  -3   11.22    6.12
   8  -8  -3    3.20    5.42
  -8  -8   2   -4.06    4.88
  -8   8   2   -1.73    4.82
  -8   8   2    2.71    5.09
   8  -8  -2    5.53    5.91
   8  -8  -2    3.03    5.26
  -8  -8   1    0.49    6.77
  -8   8   1    2.93    5.74
   8  -8  -1   -6.83    4.44
  -9   0  10    5.04    5.91
   9   0 -10    2.17    7.42
  -9   0   9    9.76    6.45
   9   0  -9    4.06    6.45
   9   0  -9   10.03    5.91
  -9   0   8   -0.49    4.50
   9   0  -8   -4.39    5.42
   9   0  -8    2.87    4.93
  -9   0   7   11.22    6.34
   9   0  -7   -2.22    4.93
   9   0  -7    4.88    4.34
  -9   0   6   -0.43    4.72
   9   0  -6   -2.82    4.99
   9   0  -6    2.06    3.79
  -9   0   5   56.69    9.27
   9   0  -5   57.77    9.76
   9   0  -5   59.72    7.42
  -9   0   4   -0.65    5.04
   9   0  -4   -2.49    5.31
   9   0  -4    0.54    2.87
  -9   0   3   28.34    7.15
   9   0  -3   23.25    6.94
   9   0  -3   24.44    4.66
  -9   0   2   -4.55    4.34
   9   0  -2   -3.20    5.09
   9   0  -2   -0.98    2.22
  -9   0   1   10.13    5.37
   9   0  -1    5.47    5.47
   9   0  -1    5.80    2.49
  -9   0   0   -2.55    4.61
  -9   0   0    3.03    4.82
   9   0   0    1.30    5.04
   9   0   0    1.03    1.46
  -9   0  -1   10.30    6.40
   9   0   1   12.74    6.56
  -9   0  -2    5.96    6.34
   9   0   2    1.19    4.99
  -9   1  11   21.19    7.26
  -9  -1  10   22.82    7.53
  -9   1  10   19.02    7.05
   9  -1 -10   19.94    9.21
   9   1 -10   21.62    9.38
   9   1 -10   15.45    7.10
  -9  -1   9   -3.47    4.23
  -9   1   9   -1.79    4.66
   9  -1  -9   -2.33    5.85
   9  -1  -9    0.43    4.66
   9   1  -9   -1.68    6.07
   9   1  -9   -1.08    4.66
  -9  -1   8   -0.70    4.88
  -9   1   8   -2.60    4.28
   9  -1  -8    2.93    6.56
   9  -1  -8    3.36    4.93
   9   1  -8    0.22    5.42
   9   1  -8    3.41    4.50
  -9  -1   7    5.20    4.99
  -9   1   7   -2.55    4.39
   9  -1  -7   -0.05    5.85
   9  -1  -7    0.05    4.06
   9   1  -7   -4.99    5.20
   9   1  -7   -1.35    3.74
  -9  -1   6   10.30    5.53
  -9   1   6   10.57    6.23
   9  -1  -6    6.23    6.23
   9  -1  -6    5.69    4.44
   9   1  -6    9.00    6.23
   9   1  -6    8.29    4.39
  -9  -1   5    1.52    4.61
  -9   1   5   -3.20    4.66
   9  -1  -5   -2.98    4.39
   9  -1  -5    2.22    3.58
   9   1  -5    8.40    6.07
   9   1  -5   -1.03    2.93
  -9  -1   4    2.71    4.66
  -9   1   4    0.43    4.77
   9  -1  -4   -0.11    4.93
   9  -1  -4    2.17    3.31
   9   1  -4    1.41    4.82
   9   1  -4    2.76    3.09
  -9  -1   3   32.57    7.97
  -9   1   3   45.85    8.40
   9  -1  -3   37.67    8.08
   9  -1  -3   26.99    4.99
   9   1  -3   31.92    8.02
   9   1  -3   26.72    4.44
  -9  -1   2   -0.54    4.23
  -9   1   2    1.95    4.55
   9  -1  -2   -2.49    4.28
   9  -1  -2    0.33    2.49
   9   1  -2    2.60    5.20
   9   1  -2   -1.52    1.95
  -9  -1   1    1.52    4.88
  -9   1   1    6.07    5.74
  -9   1   1    7.32    5.42
   9  -1  -1    3.25    5.26
   9  -1  -1    2.17    2.55
   9   1  -1    5.20    5.20
   9   1  -1    4.39    1.95
  -9  -1   0    5.58    5.58
  -9  -1   0    2.44    4.82
  -9   1   0    4.72    5.69
  -9   1   0   -0.87    4.06
   9  -1   0    2.38    5.42
   9  -1   0    1.68    2.17
   9   1   0    1.41    4.77
   9   1   0   -0.49    4.12
  -9  -1  -1   -3.47    5.47
  -9   1  -1   -1.46    5.09
   9  -1   1    4.34    5.20
   9  -1   1   -0.60    1.68
   9   1   1    3.52    5.04
  -9  -1  -2    4.39    5.64
  -9   1  -2    4.44    6.18
   9  -1   2    4.01    5.80
   9   1   2    7.91    6.07
  -9  -1  -3    9.05    8.89
   9   1   3    4.66    8.56
  -9   2  11   -2.22    4.99
  -9  -2  10    7.70    5.91
  -9   2  10    1.46    5.20
   9  -2 -10    3.09    7.59
   9   2 -10    6.12    7.37
   9   2 -10   -1.90    4.77
  -9  -2   9    3.25    5.15
  -9   2   9    3.52    5.20
   9  -2  -9    7.32    6.77
   9  -2  -9    1.14    4.82
   9   2  -9   14.69    7.97
   9   2  -9    6.34    5.53
  -9  -2   8    9.97    6.23
  -9   2   8    9.00    6.02
   9  -2  -8    1.41    5.80
   9  -2  -8   12.52    6.23
   9   2  -8    6.67    6.34
   9   2  -8    0.38    4.39
  -9  -2   7    8.35    5.47
  -9   2   7    7.26    5.58
   9  -2  -7   -2.33    5.04
   9  -2  -7    5.04    4.82
   9   2  -7    6.72    5.69
   9   2  -7    4.34    4.39
  -9  -2   6   25.74    7.21
  -9   2   6   27.26    7.42
   9  -2  -6   29.32    7.75
   9  -2  -6   23.20    5.91
   9   2  -6   30.19    7.86
   9   2  -6   30.73    6.23
  -9  -2   5    2.93    4.88
  -9   2   5   10.62    5.47
   9  -2  -5    8.02    5.85
   9  -2  -5    1.90    4.01
   9   2  -5    3.52    5.31
   9   2  -5    6.45    3.79
  -9  -2   4   26.28    7.10
  -9   2   4   31.76    7.48
   9  -2  -4   29.92    7.64
   9  -2  -4   21.24    5.15
   9   2  -4   23.90    7.05
   9   2  -4   22.06    4.55
  -9  -2   3   12.57    5.96
  -9   2   3    6.99    5.58
   9  -2  -3   20.65    6.72
   9  -2  -3    9.38    4.23
   9   2  -3   12.57    5.96
   9   2  -3   11.98    3.36
  -9  -2   2   14.09    6.02
  -9   2   2   14.58    5.91
   9  -2  -2   16.53    6.45
   9  -2  -2   11.49    4.06
   9   2  -2   13.44    6.02
   9   2  -2   15.01    2.98
  -9  -2   1    1.30    4.61
  -9   2   1   -2.60    5.09
  -9   2   1    6.29    5.26
   9  -2  -1    4.28    5.26
   9  -2  -1   -0.81    2.55
   9   2  -1    3.14    4.44
   9   2  -1   -3.63    4.50
   9   2  -1    0.16    1.14
  -9  -2   0    7.48    5.26
  -9   2   0    5.37    6.02
  -9   2   0    6.12    5.26
   9  -2   0    6.23    5.80
   9  -2   0    5.47    2.98
   9   2   0    6.99    5.42
   9   2   0    5.31    5.15
  -9   2  -1   -6.40    4.93
   9  -2   1    5.80    5.80
   9  -2   1   -1.08    2.28
   9   2   1    4.06    5.42
   9   2   1   -3.69    4.12
   9  -2   2   -0.33    2.28
  -9  -3  10    2.98    5.09
  -9   3  10    5.58    6.23
   9  -3 -10   15.88    8.51
   9   3 -10    8.40   11.98
   9   3 -10    1.95    5.85
  -9  -3   9   16.53    6.77
  -9   3   9    9.97    6.23
   9  -3  -9   12.41    7.48
   9   3  -9    7.91    7.91
   9   3  -9   10.84    6.18
  -9  -3   8    2.76    5.53
  -9   3   8    2.22    5.64
   9  -3  -8   -0.27    6.45
   9  -3  -8    3.14    5.15
   9   3  -8    2.60    7.10
   9   3  -8   -1.90    4.39
  -9  -3   7   13.33    6.61
  -9   3   7   18.53    6.99
   9  -3  -7   13.12    6.88
   9  -3  -7   15.77    5.96
   9   3  -7   14.15    6.67
   9   3  -7   12.36    5.37
  -9  -3   6   -2.93    4.17
  -9   3   6   -0.70    4.61
   9  -3  -6   -0.92    5.15
   9  -3  -6   -2.71    3.63
   9   3  -6   -4.77    4.34
   9   3  -6   -1.84    3.52
  -9  -3   5    4.77    5.04
  -9   3   5   -4.44    4.12
   9  -3  -5   -1.73    4.66
   9  -3  -5    0.70    3.90
   9   3  -5   -0.22    4.99
   9   3  -5    3.85    3.63
  -9  -3   4   12.25    6.34
  -9   3   4   -0.92    4.66
   9  -3  -4    4.28    4.93
   9  -3  -4    7.91    4.34
   9   3  -4    6.61    6.34
   9   3  -4   11.16    3.85
  -9  -3   3    3.36    4.99
  -9   3   3   -4.17    4.01
   9  -3  -3    2.01    5.37
   9  -3  -3    0.27    3.31
   9   3  -3    3.74    6.02
   9   3  -3    2.82    4.82
   9   3  -3   -0.60    2.22
  -9  -3   2   -0.43    4.99
  -9   3   2    5.53    6.12
  -9   3   2    2.66    4.66
   9  -3  -2    7.75    5.69
   9  -3  -2    3.20    3.63
   9   3  -2    1.90    5.31
   9   3  -2    1.57    4.55
   9   3  -2    2.33    2.06
  -9  -3   1    2.82    4.72
  -9   3   1   -0.33    5.42
  -9   3   1    3.36    5.15
   9  -3  -1   -1.35    4.77
   9  -3  -1   -2.60    2.93
   9   3  -1    8.67    5.37
   9   3  -1    5.47    4.77
  -9  -3   0   -2.49    4.99
  -9   3   0   -1.03    5.42
   9  -3   0    7.97    6.18
   9  -3   0    1.68    3.09
   9   3   0    0.11    6.29
   9   3   0   -2.01    4.88
  -9  -3  -1   -4.66    4.88
  -9   3  -1    3.85    6.18
   9  -3   1    6.12    5.85
   9  -3   1    1.57    2.98
   9   3   1    1.84    4.72
  -9  -4  10   11.22    6.83
   9  -4 -10   14.47    9.43
   9   4 -10    3.47    6.07
  -9  -4   9    6.72    6.18
  -9   4   9   -0.87    4.77
   9  -4  -9   12.09    7.59
   9   4  -9    3.25    7.10
   9   4  -9   11.49    6.45
   9   4  -9    2.66    5.31
  -9  -4   8   -1.35    4.66
  -9   4   8    2.11    5.80
   9  -4  -8   -1.63    5.69
   9  -4  -8   -1.68    4.72
   9   4  -8  -10.24    5.53
   9   4  -8   -1.41    4.34
   9   4  -8   -4.06    3.90
  -9  -4   7    5.31    5.74
  -9   4   7    4.50    5.58
   9  -4  -7    0.22    6.29
   9  -4  -7   -2.38    4.61
   9   4  -7   -2.76    6.02
   9   4  -7    2.76    5.42
   9   4  -7    0.11    4.34
  -9  -4   6    9.00    5.80
  -9   4   6    5.09    5.37
   9  -4  -6    2.17    5.47
   9  -4  -6    1.19    4.44
   9   4  -6   -5.42    5.37
   9   4  -6    7.48    5.64
   9   4  -6    3.03    4.23
  -9  -4   5    5.58    5.69
  -9   4   5    5.91    6.12
   9  -4  -5    9.27    6.45
   9  -4  -5    4.01    4.61
   9   4  -5   10.57    6.45
   9   4  -5    9.38    5.74
   9   4  -5    5.64    3.74
  -9  -4   4   11.27    6.12
  -9   4   4   11.87    6.18
   9  -4  -4    6.07    5.42
   9  -4  -4    7.10    4.61
   9   4  -4    4.77    5.96
   9   4  -4   11.76    6.23
   9   4  -4    2.98    3.14
  -9  -4   3   -0.70    4.88
  -9   4   3    0.11    4.66
   9  -4  -3    0.70    4.72
   9  -4  -3    1.35    4.06
   9   4  -3   -1.41    5.47
   9   4  -3   -0.27    4.82
   9   4  -3   -0.76    2.44
  -9  -4   2    4.01    5.37
  -9   4   2   -5.47    4.77
  -9   4   2   -0.60    5.04
   9  -4  -2    5.20    5.42
   9  -4  -2    2.33    4.06
   9   4  -2   -0.38    5.09
   9   4  -2    7.10    5.58
   9   4  -2    1.46    2.11
  -9  -4   1    5.37    5.64
  -9   4   1   -0.76    5.53
  -9   4   1    8.94    5.20
   9  -4  -1    4.72    6.02
   9  -4  -1    9.48    4.34
   9   4  -1    7.86    5.69
  -9  -4   0    4.99    5.80
  -9   4   0   -1.68    6.34
   9  -4   0    4.39    5.64
   9  -4   0   -1.95    3.03
   9   4   0   -6.29    3.96
  -9  -4  -1    5.09    5.80
   9   4   1    9.05    5.80
  -9  -5   9    3.74    5.47
   9  -5  -9    6.61    7.59
   9   5  -9    7.48    7.15
   9   5  -9    6.94    6.29
   9   5  -9    1.73    5.37
  -9  -5   8    0.43    5.31
  -9   5   8    5.26    5.91
   9  -5  -8   -1.79    7.05
   9   5  -8   -6.45    6.40
   9   5  -8    1.68    5.09
   9   5  -8    1.30    4.99
  -9  -5   7    0.16    5.69
  -9   5   7    2.17    5.58
   9  -5  -7   -0.49    5.80
   9  -5  -7    1.25    5.26
   9   5  -7   -6.34    5.04
   9   5  -7    2.06    5.69
   9   5  -7    0.60    4.34
  -9  -5   6   31.43    8.29
  -9   5   6   19.35    7.15
   9  -5  -6   12.84    6.88
   9  -5  -6   18.43    6.45
   9   5  -6   20.11    7.70
   9   5  -6   25.09    7.48
   9   5  -6   17.02    5.53
  -9  -5   5    0.92    5.69
  -9   5   5   -1.57    4.82
   9  -5  -5    4.93    5.53
   9  -5  -5   -0.33    4.50
   9   5  -5    2.33    5.04
   9   5  -5   -0.27    5.64
   9   5  -5   -0.87    3.58
  -9  -5   4   -2.82    4.99
  -9   5   4   -1.08    4.66
   9  -5  -4    1.95    5.37
   9  -5  -4    2.76    4.66
   9   5  -4    3.41    5.20
   9   5  -4    1.57    3.09
  -9  -5   3   -1.35    5.80
  -9   5   3    7.48    5.96
   9  -5  -3   -2.44    4.55
   9  -5  -3    2.55    4.61
   9   5  -3   -0.38    5.58
   9   5  -3    2.55    2.98
  -9  -5   2    4.17    5.26
  -9   5   2   11.00    6.72
  -9   5   2   -1.14    4.88
   9  -5  -2    0.33    4.93
   9  -5  -2    3.41    4.17
   9   5  -2    0.87    4.99
   9   5  -2    2.33    2.49
  -9  -5   1    3.90    6.12
  -9   5   1    5.91    6.12
  -9   5   1    3.85    4.93
   9  -5  -1    4.50    6.40
   9  -5  -1    2.71    4.12
   9   5  -1    0.33    5.58
   9   5  -1    0.81    1.57
  -9  -5   0    6.02    6.18
   9   5   0    2.87    5.26
   9   5   1    8.13    6.40
  -9  -6   8    1.84    5.64
   9  -6  -8   -6.83    6.07
   9   6  -8   -4.55    6.07
   9   6  -8    2.06    5.26
  -9  -6   7   -2.01    5.85
   9  -6  -7   -2.98    6.56
   9   6  -7   -8.29    5.58
   9   6  -7    4.72    6.29
   9   6  -7    0.33    4.55
  -9  -6   6    4.99    6.56
  -9   6   6    2.76    5.74
   9  -6  -6   -2.66    5.47
   9  -6  -6    6.34    5.91
   9   6  -6   -0.65    5.85
   9   6  -6    2.93    4.39
  -9  -6   5    1.73    5.80
  -9   6   5    2.44    5.64
   9  -6  -5    1.35    5.42
   9  -6  -5    0.05    4.77
   9   6  -5   -2.01    5.31
   9   6  -5    4.39    4.06
  -9  -6   4   21.73    7.75
  -9   6   4   24.06    7.59
   9  -6  -4   22.11    7.80
   9  -6  -4   18.48    6.72
   9   6  -4   25.85    8.08
   9   6  -4   26.99    5.64
  -9  -6   3   -3.96    4.61
  -9   6   3    1.19    5.09
   9  -6  -3   -2.06    5.37
   9  -6  -3    1.63    4.55
   9   6  -3    1.52    5.20
   9   6  -3    0.22    2.71
  -9  -6   2   -6.34    4.50
  -9   6   2   -1.25    5.74
  -9   6   2    0.00    5.69
   9  -6  -2    2.22    5.26
   9  -6  -2    3.14    4.72
   9   6  -2   -2.06    5.20
   9   6  -2   -1.46    2.28
   9   6  -1    0.92    1.95
   9  -7  -6   -4.99    6.77
   9  -7  -5   -2.55    5.37
   9  -7  -5    0.70    5.42
   9  -7  -4    5.15    5.74
   9  -7  -4   -0.81    5.42
  -9   7   3    7.26    6.99
   9  -7  -3    8.51    6.07
   9  -7  -3    9.54    8.67
  -9   7   2   -1.30    5.47
 -10   0  10   33.11    9.48
  10   0 -10   20.81    7.48
 -10   0   9    0.49    5.26
  10   0  -9   -2.71    6.18
  10   0  -9    0.65    5.09
 -10   0   8    3.20    5.96
  10   0  -8    5.26    6.40
  10   0  -8    8.18    5.42
 -10   0   7    0.60    4.88
  10   0  -7   -3.09    6.45
  10   0  -7   -0.65    4.12
 -10   0   6    2.66    5.42
  10   0  -6    6.77    6.50
  10   0  -6   -0.16    3.85
 -10   0   5    4.61    5.80
  10   0  -5   -5.96    5.15
  10   0  -5   -0.65    3.20
 -10   0   4    2.71    5.42
  10   0  -4    3.85    5.47
  10   0  -4    6.50    3.79
 -10   0   3    0.49    5.47
  10   0  -3   -4.28    4.44
  10   0  -3   -0.92    2.55
 -10   0   2   42.87    9.05
  10   0  -2   46.66    9.76
  10   0  -2   33.33    4.55
 -10   0   1    2.82    4.88
  10   0  -1    4.06    5.26
  10   0  -1    0.05    1.84
  10   0   0   15.88    7.75
 -10  -1  10   -4.28    5.58
  10  -1 -10   -1.79    4.99
  10   1 -10    3.58    5.91
 -10  -1   9   -4.66    4.66
 -10   1   9   -0.81    5.31
  10  -1  -9   -7.97    6.02
  10  -1  -9   -2.38    4.72
  10   1  -9   -5.47    9.43
  10   1  -9    1.68    5.26
 -10  -1   8   14.09    6.67
 -10   1   8   13.71    7.26
  10  -1  -8    6.72    6.83
  10  -1  -8   15.61    6.40
  10   1  -8   -0.76    5.64
  10   1  -8    5.47    5.15
 -10  -1   7   -2.17    4.88
 -10   1   7    1.63    5.37
  10  -1  -7   -5.53    5.42
  10  -1  -7    3.58    4.66
  10   1  -7   -3.03    5.53
  10   1  -7    1.14    4.50
 -10  -1   6    0.98    5.85
 -10   1   6   13.49    6.61
  10  -1  -6    4.28    6.34
  10  -1  -6    4.93    4.50
  10   1  -6    7.10    6.72
  10   1  -6    3.74    4.17
 -10  -1   5    8.56    6.07
 -10   1   5    0.54    6.02
  10  -1  -5    1.73    5.91
  10  -1  -5    1.19    3.79
  10   1  -5   -0.70    5.74
  10   1  -5    0.87    3.47
 -10  -1   4   25.85    7.42
 -10   1   4   34.20    8.29
  10  -1  -4   35.23    8.89
  10  -1  -4   26.23    5.69
  10   1  -4   28.34    8.40
  10   1  -4   26.01    5.09
 -10  -1   3    0.65    5.47
 -10   1   3    2.06    5.64
  10  -1  -3   -6.40    4.93
  10  -1  -3    0.54    2.93
  10   1  -3    1.63    5.74
  10   1  -3    1.14    2.60
 -10  -1   2   15.72    7.05
 -10   1   2   17.67    7.21
  10  -1  -2   16.64    6.88
  10  -1  -2   12.25    3.58
  10   1  -2   18.05    7.53
  10   1  -2   13.71    2.98
 -10  -1   1    4.88    5.53
 -10   1   1    3.36    5.31
  10  -1  -1    1.52    6.34
  10  -1  -1    4.01    2.60
  10   1  -1    4.99    6.23
  10  -1   0    0.92    2.01
  10   1   0   11.54    6.61
  10   1   0    6.45    5.42
  10   2 -10    4.55    9.00
 -10  -2   9   13.06    7.42
 -10   2   9   10.35    8.02
  10  -2  -9   14.47    6.88
  10   2  -9   11.65    6.18
 -10  -2   8    8.35    6.02
 -10   2   8    3.03    5.85
  10  -2  -8    6.29    7.10
  10  -2  -8    3.58    5.37
  10   2  -8   -0.38    6.61
  10   2  -8    0.11    4.50
 -10  -2   7   -1.03    4.88
 -10   2   7   -3.03    4.88
  10  -2  -7   -5.09    5.37
  10  -2  -7    4.66    4.88
  10   2  -7   -0.54    5.37
  10   2  -7    8.67    4.99
 -10  -2   6   19.84    7.21
 -10   2   6   11.54    6.50
  10  -2  -6   10.89    6.83
  10  -2  -6   16.31    5.53
  10   2  -6   13.82    7.15
  10   2  -6   16.53    5.26
 -10  -2   5   -3.25    4.93
 -10   2   5    2.06    5.64
  10  -2  -5   -2.11    5.37
  10  -2  -5    2.44    3.96
  10   2  -5    1.63    5.91
  10   2  -5    0.87    3.31
 -10  -2   4   -2.76    4.44
 -10   2   4    1.08    5.80
  10  -2  -4   -3.74    4.88
  10  -2  -4   -0.76    3.63
  10   2  -4   -4.17    5.64
  10   2  -4    1.14    3.03
 -10  -2   3    2.87    5.04
 -10   2   3    7.59    5.85
  10  -2  -3    0.11    4.93
  10  -2  -3    3.31    3.47
  10   2  -3   -4.61    4.61
  10   2  -3    2.82    2.66
 -10  -2   2    8.13    6.40
 -10   2   2   10.57    6.02
  10  -2  -2   12.41    7.15
  10  -2  -2   10.08    3.85
  10   2  -2    3.96    5.69
  10   2  -2    8.40    5.74
  10   2  -2    7.70    2.38
 -10  -2   1    3.96    5.26
 -10   2   1   11.92    7.37
 -10   2   1    8.13    6.18
  10  -2  -1    4.28    5.69
  10  -2  -1    2.06    2.87
  10   2  -1    3.25    5.53
  10   2  -1    1.14    5.09
 -10  -2   0   -0.38    5.53
  10   2   0    6.67    5.91
  10   2   0    1.46    4.82
 -10  -3   9   -5.04    8.08
  10  -3  -9   -0.05    5.31
  10   3  -9   -1.08    8.08
 -10  -3   8   21.19    7.53
 -10   3   8   19.84    8.78
  10  -3  -8   14.74    7.97
  10  -3  -8   14.58    6.94
  10   3  -8    6.61    7.91
  10   3  -8   30.13    7.70
 -10  -3   7    1.79    5.26
 -10   3   7   14.25    7.21
  10  -3  -7   10.30    8.08
  10  -3  -7    8.94    5.53
  10   3  -7    5.74    7.48
  10   3  -7    8.18    5.04
 -10  -3   6    5.85    6.23
 -10   3   6   -1.90    5.64
  10  -3  -6   -4.61    5.09
  10  -3  -6    2.44    4.55
  10   3  -6   -0.65    5.31
  10   3  -6    1.52    3.63
 -10  -3   5    0.16    5.74
 -10   3   5    3.09    6.18
  10  -3  -5    5.15    5.74
  10  -3  -5    2.17    4.50
  10   3  -5   -8.94    4.55
  10   3  -5   -1.41    3.25
 -10  -3   4    6.56    5.85
 -10   3   4   -1.35    4.99
  10  -3  -4   -1.68    4.99
  10  -3  -4    2.38    3.85
  10   3  -4   -3.96    6.02
  10   3  -4    3.74    5.80
  10   3  -4    0.49    2.82
 -10  -3   3    6.67    5.85
 -10   3   3    0.05    6.07
  10  -3  -3   -5.31    4.39
  10  -3  -3   -0.54    3.63
  10   3  -3   -2.33    5.31
  10   3  -3    0.87    4.82
  10   3  -3    1.63    2.44
 -10  -3   2   -4.28    4.28
 -10   3   2   -0.38    5.74
  10  -3  -2    3.09    5.58
  10  -3  -2   -2.44    3.36
  10   3  -2    1.14    5.47
  10   3  -2    0.54    4.99
  10   3  -2    0.43    1.79
 -10  -3   1   -3.58    4.44
 -10   3   1   -3.03    4.82
  10   3  -1   -2.22    4.55
 -10  -3   0   -3.20    5.64
  10   3   0    9.32    6.45
  10  -4  -8    9.21    6.34
  10   4  -8   -0.11    6.83
 -10  -4   7    6.99    6.61
  10  -4  -7    2.28    6.45
  10  -4  -7   -2.17    4.72
  10   4  -7    0.60    6.61
  10   4  -7   -2.93    6.07
  10   4  -7    1.68    4.99
 -10  -4   6    1.08    5.53
 -10   4   6   -0.60    5.20
  10  -4  -6   -2.55    5.69
  10  -4  -6   -0.33    4.61
  10   4  -6   -6.99    5.04
  10   4  -6    5.69    5.80
  10   4  -6   -0.43    3.69
 -10  -4   5   15.17    7.21
 -10   4   5    1.14    5.20
  10  -4  -5    6.77    6.56
  10  -4  -5    4.82    4.77
  10   4  -5    9.43    7.10
  10   4  -5    4.66    5.85
  10   4  -5    6.99    4.17
 -10  -4   4   -1.35    4.99
 -10   4   4   -5.85    5.15
  10  -4  -4   -0.60    4.99
  10  -4  -4    0.05    4.17
  10   4  -4   -4.39    4.77
  10   4  -4    4.06    6.50
  10   4  -4    2.38    3.25
 -10  -4   3    2.93    5.42
 -10   4   3   -0.98    5.26
  10  -4  -3   -1.30    5.58
  10  -4  -3   -1.95    3.79
  10   4  -3    1.79    6.02
  10   4  -3   -0.33    2.28
 -10  -4   2   -1.52    4.99
 -10   4   2    2.11    6.12
  10   4  -2    4.39    6.23
  10   4  -2    3.25    1.95
  10  -5  -8   17.88    8.40
  10  -5  -7    4.44    6.07
  10   5  -7    2.71    6.56
  10  -5  -6   -5.91    6.18
  10  -5  -6   -0.98    4.72
  10   5  -6   -6.12    4.61
  10  -5  -5   11.92    8.78
  10  -5  -5   18.75    7.32
 -10   5   4    5.74    6.50
 -10   5   3    6.99    6.12
 -10   5   2   -5.69    4.23
  11   3  -4  -14.25    8.94
;
_shelx_hkl_checksum              408
#END Tags that were not found in dictionaries
loop_
_space_group_symop_operation_xyz
'x, y, z'
'-x+1/2, y+1/2, -z+1/2'
'-x, -y, -z'
'x-1/2, -y-1/2, z-1/2'
loop_
_atom_site_label
_atom_site_type_symbol
_atom_site_fract_x
_atom_site_fract_y
_atom_site_fract_z
_atom_site_U_iso_or_equiv
_atom_site_adp_type
_atom_site_occupancy
_atom_site_site_symmetry_order
_atom_site_calc_flag
_atom_site_refinement_flags_posn
_atom_site_refinement_flags_adp
O3 O 0.84122(17) 0.44484(14) 0.30984(15) 0.0557(4) Uani 1 1 d . .
O1 O 0.59395(17) 0.11454(15) 0.71701(17) 0.0611(4) Uani 1 1 d . .
H1 H 0.5060 0.1096 0.7398 0.092 Uiso 1 1 calc R U
N003 N 0.73314(19) 0.38569(17) 0.49531(17) 0.0433(4) Uani 1 1 d . .
O2 O 0.44339(19) 0.31171(17) 0.5702(2) 0.0806(5) Uani 1 1 d . .
C5 C 0.8325(2) 0.35896(19) 0.4136(2) 0.0401(4) Uani 1 1 d . .
C2 C 0.7563(2) 0.27312(18) 0.6187(2) 0.0398(4) Uani 1 1 d . .
H2A H 0.8446 0.3122 0.7226 0.048 Uiso 1 1 calc R U
C1 C 0.5802(2) 0.23699(19) 0.6311(2) 0.0436(4) Uani 1 1 d . .
C3 C 0.8428(2) 0.13771(19) 0.5690(2) 0.0521(5) Uani 1 1 d . .
H3B H 0.9337 0.0872 0.6627 0.062 Uiso 1 1 calc R U
H3A H 0.7504 0.0640 0.5066 0.062 Uiso 1 1 calc R U
C4 C 0.9307(2) 0.2099(2) 0.4682(2) 0.0536(5) Uani 1 1 d . .
H4B H 1.0605 0.2263 0.5318 0.064 Uiso 1 1 calc R U
H4A H 0.9146 0.1458 0.3769 0.064 Uiso 1 1 calc R U
H2 H 0.681(3) 0.471(2) 0.490(2) 0.066(6) Uiso 1 1 d . .
loop_
_atom_site_aniso_label
_atom_site_aniso_U_11
_atom_site_aniso_U_22
_atom_site_aniso_U_33
_atom_site_aniso_U_23
_atom_site_aniso_U_13
_atom_site_aniso_U_12
O3 0.0684(8) 0.0559(8) 0.0588(9) 0.0105(7) 0.0425(7) 0.0108(6)
O1 0.0663(8) 0.0578(9) 0.0757(10) 0.0273(8) 0.0459(7) 0.0165(7)
N003 0.0543(8) 0.0342(8) 0.0517(9) 0.0066(7) 0.0326(7) 0.0122(6)
O2 0.0696(9) 0.0716(10) 0.1203(14) 0.0476(10) 0.0593(9) 0.0329(8)
C5 0.0430(8) 0.0394(10) 0.0422(10) -0.0020(8) 0.0219(8) 0.0018(7)
C2 0.0474(9) 0.0359(9) 0.0377(9) 0.0010(7) 0.0193(7) 0.0035(7)
C1 0.0555(10) 0.0352(9) 0.0466(10) 0.0051(8) 0.0279(8) 0.0083(8)
C3 0.0585(10) 0.0400(10) 0.0649(13) 0.0071(9) 0.0329(10) 0.0150(8)
C4 0.0589(10) 0.0449(11) 0.0687(13) 0.0024(9) 0.0381(10) 0.0140(8)
loop_
_atom_type_symbol
_atom_type_description
_atom_type_scat_dispersion_real
_atom_type_scat_dispersion_imag
_atom_type_scat_source
C C 0.0033 0.0016 'International Tables Vol C Tables 4.2.6.8 and 6.1.1.4'
H H 0.0000 0.0000 'International Tables Vol C Tables 4.2.6.8 and 6.1.1.4'
N N 0.0061 0.0033 'International Tables Vol C Tables 4.2.6.8 and 6.1.1.4'
O O 0.0106 0.0060 'International Tables Vol C Tables 4.2.6.8 and 6.1.1.4'
loop_
_geom_angle_atom_site_label_1
_geom_angle_atom_site_label_2
_geom_angle_atom_site_label_3
_geom_angle
C5 N003 C2 114.15(14)
O3 C5 N003 124.69(15)
O3 C5 C4 126.40(15)
N003 C5 C4 108.92(16)
N003 C2 C1 112.66(13)
N003 C2 C3 102.68(14)
C1 C2 C3 114.77(14)
O2 C1 O1 123.84(16)
O2 C1 C2 124.17(16)
O1 C1 C2 111.99(14)
C4 C3 C2 104.12(14)
C5 C4 C3 104.47(14)
loop_
_geom_bond_atom_site_label_1
_geom_bond_atom_site_label_2
_geom_bond_distance
O3 C5 1.237(2)
O1 C1 1.308(2)
N003 C5 1.328(2)
N003 C2 1.452(2)
O2 C1 1.199(2)
C5 C4 1.500(2)
C2 C1 1.505(2)
C2 C3 1.538(2)
C3 C4 1.520(2)
