#------------------------------------------------------------------------------
#$Date: 2016-03-22 22:06:50 +0200 (Tue, 22 Mar 2016) $
#$Revision: 179032 $
#$URL: svn://www.crystallography.net/cod/cif/4/12/30/4123057.cif $
#------------------------------------------------------------------------------
#
# This file is available in the Crystallography Open Database (COD),
# http://www.crystallography.net/
#
# All data on this site have been placed in the public domain by the
# contributors.
#
data_4123057
loop_
_publ_author_name
'Blackburn, Anthea K.'
'Sue, Andrew C.-H.'
'Shveyd, Alexander K.'
'Cao, Dennis'
'Tayi, Alok'
'Narayanan, Ashwin'
'Rolczynski, Brian S.'
'Szarko, Jodi M.'
'Bozdemir, Ozgur A.'
'Wakabayashi, Rie'
'Lehrman, Jessica A.'
'Kahr, Bart'
'Chen, Lin X.'
'Nassar, Majed S.'
'Stupp, Samuel I.'
'Stoddart, J. Fraser'
_publ_section_title
;
 Lock-Arm Supramolecular Ordering: A Molecular Construction Set for
 Cocrystallizing Organic Charge Transfer Complexes.
;
_journal_name_full               'Journal of the American Chemical Society'
_journal_page_first              141124065827003
_journal_paper_doi               10.1021/ja509442t
_journal_year                    2014
_chemical_formula_moiety         'C18 H26 N2 O4, C12 H4 N4'
_chemical_formula_sum            'C30 H30 N6 O4'
_chemical_formula_weight         538.60
_chemical_name_systematic
;
 ?
;
_space_group_crystal_system      triclinic
_space_group_IT_number           2
_space_group_name_Hall           '-P 1'
_space_group_name_H-M_alt        'P -1'
_symmetry_space_group_name_Hall  '-P 1'
_symmetry_space_group_name_H-M   'P -1'
_atom_sites_solution_hydrogens   mixed
_atom_sites_solution_primary     direct
_audit_creation_date             2014-09-02
_audit_creation_method
;
Olex2 1.2
(compiled 2014.08.28 svn.r2986 for OlexSys, GUI svn.r4866)
;
_cell_angle_alpha                89.2130(10)
_cell_angle_beta                 83.730(2)
_cell_angle_gamma                73.487(2)
_cell_formula_units_Z            1
_cell_length_a                   6.8961(2)
_cell_length_b                   8.0293(3)
_cell_length_c                   12.3435(4)
_cell_measurement_reflns_used    6308
_cell_measurement_temperature    100(2)
_cell_measurement_theta_max      66.66
_cell_measurement_theta_min      3.60
_cell_volume                     651.25(4)
_computing_cell_refinement       'SAINT V7.23A (Bruker, 2005)'
_computing_data_collection       'APEX2 V2.1-4 (Bruker, 2007)'
_computing_data_reduction        'Bruker SAINT'
_computing_molecular_graphics    'Olex2 (Dolomanov et al., 2009)'
_computing_publication_material  'Olex2 (Dolomanov et al., 2009)'
_computing_structure_refinement  'ShelXL (Sheldrick, 2008)'
_computing_structure_solution    'ShelXS (Sheldrick, 2008)'
_diffrn_ambient_temperature      99.98
_diffrn_detector_area_resol_mean 8
_diffrn_measured_fraction_theta_full 0.945
_diffrn_measured_fraction_theta_max 0.954
_diffrn_measurement_device_type  'Bruker SMART APEX CCD area detector'
_diffrn_measurement_method       '\w and \f scans'
_diffrn_radiation_monochromator  'Quazar optics'
_diffrn_radiation_type           CuK\a
_diffrn_radiation_wavelength     1.54178
_diffrn_reflns_av_R_equivalents  0.0182
_diffrn_reflns_av_unetI/netI     0.0188
_diffrn_reflns_Laue_measured_fraction_full 0.945
_diffrn_reflns_Laue_measured_fraction_max 0.954
_diffrn_reflns_limit_h_max       3
_diffrn_reflns_limit_h_min       -8
_diffrn_reflns_limit_k_max       9
_diffrn_reflns_limit_k_min       -9
_diffrn_reflns_limit_l_max       14
_diffrn_reflns_limit_l_min       -14
_diffrn_reflns_number            7902
_diffrn_reflns_point_group_measured_fraction_full 0.945
_diffrn_reflns_point_group_measured_fraction_max 0.954
_diffrn_reflns_theta_full        67.679
_diffrn_reflns_theta_max         67.174
_diffrn_reflns_theta_min         3.603
_diffrn_source                   microsource
_exptl_absorpt_coefficient_mu    0.763
_exptl_absorpt_correction_T_max  0.7529
_exptl_absorpt_correction_T_min  0.6653
_exptl_absorpt_correction_type   multi-scan
_exptl_absorpt_process_details
;
SADABS-2008/1 (Bruker,2008) was used for absorption correction.
wR2(int) was 0.0607 before and 0.0274 after correction.
The Ratio of minimum to maximum transmission is 0.8836.
The \l/2 correction factor is 0.0015.
;
_exptl_crystal_colour            yellow
_exptl_crystal_colour_primary    yellow
_exptl_crystal_density_diffrn    1.373
_exptl_crystal_description       columnar
_exptl_crystal_F_000             284
_exptl_crystal_size_max          0.553
_exptl_crystal_size_mid          0.195
_exptl_crystal_size_min          0.144
_refine_diff_density_max         0.191
_refine_diff_density_min         -0.226
_refine_diff_density_rms         0.040
_refine_ls_extinction_method     none
_refine_ls_goodness_of_fit_ref   1.056
_refine_ls_hydrogen_treatment    mixed
_refine_ls_matrix_type           full
_refine_ls_number_parameters     189
_refine_ls_number_reflns         2233
_refine_ls_number_restraints     0
_refine_ls_restrained_S_all      1.056
_refine_ls_R_factor_all          0.0321
_refine_ls_R_factor_gt           0.0314
_refine_ls_shift/su_max          0.000
_refine_ls_shift/su_mean         0.000
_refine_ls_structure_factor_coef Fsqd
_refine_ls_weighting_details
'w=1/[\s^2^(Fo^2^)+(0.0420P)^2^+0.2180P] where P=(Fo^2^+2Fc^2^)/3'
_refine_ls_weighting_scheme      calc
_refine_ls_wR_factor_gt          0.0832
_refine_ls_wR_factor_ref         0.0838
_reflns_Friedel_coverage         0.000
_reflns_number_gt                2173
_reflns_number_total             2233
_reflns_threshold_expression     'I > 2\s(I)'
_iucr_refine_instructions_details
;
TITL P-1 in P-1
CELL 1.54178 6.8961 8.0293 12.3435 89.213 83.73 73.487
ZERR 1 0.0002 0.0003 0.0004 0.001 0.002 0.002
LATT 1
 
SFAC C H N O
UNIT 30 30 6 4
 
L.S. 10
PLAN  5
SIZE 0.144 0.195 0.553
TEMP -173.17
BOND
MORE -1
CONF
fmap 2 53
acta
REM <HKL>/Users/Anthea/Documents/CHEMISTRY/JACS%20LASO%20paper/n0441/work/P-1.
REM hkl</HKL>
 
WGHT    0.042000    0.218000
FVAR       0.42680
O1    4    0.224705    0.962709    0.103578    11.00000    0.02793    0.01856 =
         0.01703   -0.00160   -0.00570   -0.00225
O2    4    0.138692    0.753981   -0.071098    11.00000    0.02700    0.01876 =
         0.01541    0.00309   -0.00596   -0.01049
C1    1    0.350769    0.799684    0.059689    11.00000    0.01909    0.02034 =
         0.02007   -0.00177   -0.00256   -0.00333
AFIX  23
H1A   2    0.436537    0.739307    0.115708    11.00000   -1.20000
H1B   2    0.442522    0.820801   -0.003103    11.00000   -1.20000
AFIX   0
C2    1    0.233467    0.683319    0.023015    11.00000    0.01906    0.01771 =
         0.01791    0.00189   -0.00423   -0.00258
AFIX  23
H2A   2    0.326522    0.565782    0.005530    11.00000   -1.20000
H2B   2    0.128642    0.673172    0.082244    11.00000   -1.20000
AFIX   0
C3    1    0.037570    0.641648   -0.115204    11.00000    0.02418    0.01817 =
         0.01675    0.00163   -0.00314   -0.01014
AFIX  23
H3A   2   -0.110905    0.686815   -0.094338    11.00000   -1.20000
H3B   2    0.084737    0.524380   -0.084393    11.00000   -1.20000
AFIX   0
C4    1    0.080264    0.629474   -0.237873    11.00000    0.02184    0.01616 =
         0.01625    0.00162   -0.00329   -0.00737
AFIX  23
H4A   2    0.227334    0.574402   -0.258332    11.00000   -1.20000
H4B   2    0.004742    0.554739   -0.266521    11.00000   -1.20000
AFIX   0
N5    3    0.021507    0.798730   -0.287143    11.00000    0.02842    0.01543 =
         0.01337    0.00018   -0.00024   -0.00499
C6    1    0.127619    0.676448   -0.467999    11.00000    0.02569    0.01525 =
         0.01834    0.00144   -0.00362   -0.00594
AFIX  43
H6    2    0.167082    0.562947   -0.439168    11.00000   -1.20000
AFIX   0
C7    1    0.044707    0.818728   -0.397634    11.00000    0.01909    0.01861 =
         0.01517    0.00087   -0.00315   -0.00806
C8    1   -0.014216    0.990550   -0.442499    11.00000    0.01780    0.01782 =
         0.01520   -0.00012   -0.00221   -0.00770
C9    1   -0.099566    1.140303   -0.374063    11.00000    0.02352    0.01948 =
         0.01299   -0.00050   -0.00164   -0.00755
AFIX  43
H9    2   -0.119018    1.128528   -0.297266    11.00000   -1.20000
AFIX   0
C10   1   -0.153621    1.301471   -0.419136    11.00000    0.02552    0.01732 =
         0.01733   -0.00386   -0.00111   -0.00515
AFIX  43
H10   2   -0.210141    1.400732   -0.372723    11.00000   -1.20000
AFIX   0
 
N1    3    0.590839    0.605263   -0.213867    11.00000    0.02472    0.02430 =
         0.01909    0.00189   -0.00003   -0.00493
N2    3    0.239338    1.150522   -0.136662    11.00000    0.02317    0.02888 =
         0.02474   -0.00500   -0.00102   -0.00784
C11   1    0.522166    0.744293   -0.242746    11.00000    0.01781    0.02487 =
         0.01451   -0.00157    0.00021   -0.00752
C12   1    0.328833    1.045233   -0.199689    11.00000    0.01879    0.02260 =
         0.01773    0.00236   -0.00302   -0.00855
C13   1    0.440433    0.917039   -0.280573    11.00000    0.01660    0.01972 =
         0.01857   -0.00062   -0.00216   -0.00660
C14   1    0.470340    0.958144   -0.388524    11.00000    0.01504    0.02076 =
         0.01965   -0.00002   -0.00278   -0.00699
C15   1    0.574022    0.825497   -0.469784    11.00000    0.01924    0.01675 =
         0.02083    0.00047   -0.00226   -0.00460
AFIX  43
H15   2    0.623309    0.708372   -0.448145    11.00000   -1.20000
AFIX   0
C16   1    0.398168    1.134850   -0.424562    11.00000    0.01836    0.01810 =
         0.02070   -0.00219   -0.00070   -0.00438
AFIX  43
H16   2    0.329957    1.224463   -0.372752    11.00000   -1.20000
AFIX   0
 
H5    2   -0.046254    0.884899   -0.246314    11.00000    0.03028
H1    2    0.154999    1.016530    0.055837    11.00000    0.04509
HKLF 4
 
REM  P-1 in P-1
REM R1 =  0.0314 for    2173 Fo > 4sig(Fo)  and  0.0321 for all    2233 data
REM    189 parameters refined using      0 restraints
 
END  
     
WGHT      0.0421      0.2169 

REM Highest difference peak  0.191,  deepest hole -0.226,  1-sigma level  0.040
Q1    1   0.0313  1.0013 -0.4983  11.00000  0.05    0.19
Q2    1   0.0089  0.9040 -0.4208  11.00000  0.05    0.15
Q3    1   0.3008  0.7374  0.0395  11.00000  0.05    0.14
Q4    1   0.4452  1.0404 -0.4076  11.00000  0.05    0.14
Q5    1   0.4880  1.1621 -0.4688  11.00000  0.05    0.14

REM The information below was added by Olex2.
REM
REM R1 = 0.0314 for 2173 Fo > 4sig(Fo) and 0.0321 for all 7902 data
REM n/a parameters refined using n/a restraints
REM Highest difference peak 0.19, deepest hole -0.23
REM Mean Shift 0, Max Shift 0.

REM +++ Tabular Listing of Refinement Information +++
REM R1_all = 0.0321
REM R1_gt = 0.0314
REM wR_ref = 0.0838
REM GOOF = 1.056
REM Shift_max = 0
REM Shift_mean = 0
REM Reflections_all = 7902
REM Reflections_gt = 2173
REM Parameters = n/a
REM Hole = -0.23
REM Peak = 0.19
REM Flack = n/a

;
_cod_data_source_file            ja509442t_si_003.cif
_cod_data_source_block           p-1
_cod_database_code               4123057
#BEGIN Tags that were not found in dictionaries:
_shelxl_version_number           2013-4
_shelx_space_group_comment
;
The symmetry employed for this shelxl refinement is uniquely defined
by the following loop, which should always be used as a source of
symmetry information in preference to the above space-group names.
They are only intended as comments.
;
_shelx_estimated_absorpt_t_max   0.898
_shelx_estimated_absorpt_t_min   0.678
_olex2_refinement_description
;
1. Fixed Uiso
 At 1.2 times of:
  All C(H) groups, All C(H,H) groups
2.a Secondary CH2 refined with riding coordinates:
 C1(H1A,H1B), C2(H2A,H2B), C3(H3A,H3B), C4(H4A,H4B)
2.b Aromatic/amide H refined with riding coordinates:
 C6(H6), C9(H9), C10(H10), C15(H15), C16(H16)
;
_olex2_computing_structure_refinement_long 'ShelXL (Sheldrick, 2008)'
_olex2_computing_structure_solution_long 'ShelXS (Sheldrick, 2008)'
_olex2_submission_special_instructions 'No special instructions were received'
#END Tags that were not found in dictionaries
loop_
_space_group_symop_operation_xyz
'x, y, z'
'-x, -y, -z'
loop_
_atom_site_label
_atom_site_type_symbol
_atom_site_fract_x
_atom_site_fract_y
_atom_site_fract_z
_atom_site_U_iso_or_equiv
_atom_site_adp_type
_atom_site_occupancy
_atom_site_site_symmetry_order
_atom_site_calc_flag
_atom_site_refinement_flags_posn
O1 O 0.22471(12) 0.96271(10) 0.10358(6) 0.0218(2) Uani 1 1 d .
O2 O 0.13869(12) 0.75398(9) -0.07110(6) 0.0193(2) Uani 1 1 d .
C1 C 0.35077(17) 0.79968(14) 0.05969(9) 0.0203(2) Uani 1 1 d .
H1A H 0.4365 0.7393 0.1157 0.024 Uiso 1 1 calc R
H1B H 0.4425 0.8208 -0.0031 0.024 Uiso 1 1 calc R
C2 C 0.23347(16) 0.68332(14) 0.02302(9) 0.0186(2) Uani 1 1 d .
H2A H 0.3265 0.5658 0.0055 0.022 Uiso 1 1 calc R
H2B H 0.1286 0.6732 0.0822 0.022 Uiso 1 1 calc R
C3 C 0.03757(17) 0.64165(14) -0.11520(9) 0.0188(2) Uani 1 1 d .
H3A H -0.1109 0.6868 -0.0943 0.023 Uiso 1 1 calc R
H3B H 0.0847 0.5244 -0.0844 0.023 Uiso 1 1 calc R
C4 C 0.08026(17) 0.62947(14) -0.23787(9) 0.0176(2) Uani 1 1 d .
H4A H 0.2273 0.5744 -0.2583 0.021 Uiso 1 1 calc R
H4B H 0.0047 0.5547 -0.2665 0.021 Uiso 1 1 calc R
N5 N 0.02151(15) 0.79873(12) -0.28714(8) 0.0195(2) Uani 1 1 d .
C6 C 0.12762(17) 0.67645(14) -0.46800(9) 0.0197(2) Uani 1 1 d .
H6 H 0.1671 0.5629 -0.4392 0.024 Uiso 1 1 calc R
C7 C 0.04471(16) 0.81873(14) -0.39763(9) 0.0170(2) Uani 1 1 d .
C8 C -0.01422(16) 0.99055(14) -0.44250(8) 0.0164(2) Uani 1 1 d .
C9 C -0.09957(17) 1.14030(14) -0.37406(9) 0.0184(2) Uani 1 1 d .
H9 H -0.1190 1.1285 -0.2973 0.022 Uiso 1 1 calc R
C10 C -0.15362(17) 1.30147(14) -0.41914(9) 0.0203(2) Uani 1 1 d .
H10 H -0.2101 1.4007 -0.3727 0.024 Uiso 1 1 calc R
N1 N 0.59084(15) 0.60526(13) -0.21387(8) 0.0233(2) Uani 1 1 d .
N2 N 0.23934(15) 1.15052(13) -0.13666(8) 0.0256(2) Uani 1 1 d .
C11 C 0.52217(16) 0.74429(15) -0.24275(9) 0.0189(2) Uani 1 1 d .
C12 C 0.32883(16) 1.04523(14) -0.19969(9) 0.0191(2) Uani 1 1 d .
C13 C 0.44043(16) 0.91704(14) -0.28057(9) 0.0180(2) Uani 1 1 d .
C14 C 0.47034(16) 0.95814(14) -0.38852(9) 0.0180(2) Uani 1 1 d .
C15 C 0.57402(16) 0.82550(14) -0.46978(9) 0.0190(2) Uani 1 1 d .
H15 H 0.6233 0.7084 -0.4481 0.023 Uiso 1 1 calc R
C16 C 0.39817(16) 1.13485(14) -0.42456(9) 0.0193(2) Uani 1 1 d .
H16 H 0.3300 1.2245 -0.3728 0.023 Uiso 1 1 calc R
H5 H -0.046(2) 0.885(2) -0.2463(13) 0.030(4) Uiso 1 1 d .
H1 H 0.155(3) 1.017(2) 0.0558(15) 0.045(5) Uiso 1 1 d .
loop_
_atom_site_aniso_label
_atom_site_aniso_U_11
_atom_site_aniso_U_22
_atom_site_aniso_U_33
_atom_site_aniso_U_23
_atom_site_aniso_U_13
_atom_site_aniso_U_12
O1 0.0279(4) 0.0186(4) 0.0170(4) -0.0016(3) -0.0057(3) -0.0022(3)
O2 0.0270(4) 0.0188(4) 0.0154(4) 0.0031(3) -0.0060(3) -0.0105(3)
C1 0.0191(5) 0.0203(6) 0.0201(5) -0.0018(4) -0.0026(4) -0.0033(4)
C2 0.0191(5) 0.0177(5) 0.0179(5) 0.0019(4) -0.0042(4) -0.0026(4)
C3 0.0242(6) 0.0182(5) 0.0167(5) 0.0016(4) -0.0031(4) -0.0101(4)
C4 0.0218(6) 0.0162(5) 0.0162(5) 0.0016(4) -0.0033(4) -0.0074(4)
N5 0.0284(5) 0.0154(5) 0.0134(5) 0.0002(4) -0.0002(4) -0.0050(4)
C6 0.0257(6) 0.0153(5) 0.0183(6) 0.0014(4) -0.0036(4) -0.0059(4)
C7 0.0191(5) 0.0186(5) 0.0152(5) 0.0009(4) -0.0032(4) -0.0081(4)
C8 0.0178(5) 0.0178(5) 0.0152(5) -0.0001(4) -0.0022(4) -0.0077(4)
C9 0.0235(6) 0.0195(5) 0.0130(5) -0.0005(4) -0.0016(4) -0.0075(4)
C10 0.0255(6) 0.0173(5) 0.0173(5) -0.0039(4) -0.0011(4) -0.0052(4)
N1 0.0247(5) 0.0243(5) 0.0191(5) 0.0019(4) 0.0000(4) -0.0049(4)
N2 0.0232(5) 0.0289(5) 0.0247(5) -0.0050(4) -0.0010(4) -0.0078(4)
C11 0.0178(5) 0.0249(6) 0.0145(5) -0.0016(4) 0.0002(4) -0.0075(4)
C12 0.0188(5) 0.0226(6) 0.0177(5) 0.0024(4) -0.0030(4) -0.0085(4)
C13 0.0166(5) 0.0197(5) 0.0186(5) -0.0006(4) -0.0022(4) -0.0066(4)
C14 0.0150(5) 0.0208(6) 0.0196(5) 0.0000(4) -0.0028(4) -0.0070(4)
C15 0.0192(5) 0.0168(5) 0.0208(6) 0.0005(4) -0.0023(4) -0.0046(4)
C16 0.0184(5) 0.0181(5) 0.0207(6) -0.0022(4) -0.0007(4) -0.0044(4)
loop_
_atom_type_symbol
_atom_type_description
_atom_type_scat_dispersion_real
_atom_type_scat_dispersion_imag
_atom_type_scat_source
C C 0.0181 0.0091 'International Tables Vol C Tables 4.2.6.8 and 6.1.1.4'
H H 0.0000 0.0000 'International Tables Vol C Tables 4.2.6.8 and 6.1.1.4'
N N 0.0311 0.0180 'International Tables Vol C Tables 4.2.6.8 and 6.1.1.4'
O O 0.0492 0.0322 'International Tables Vol C Tables 4.2.6.8 and 6.1.1.4'
loop_
_geom_angle_atom_site_label_1
_geom_angle_atom_site_label_2
_geom_angle_atom_site_label_3
_geom_angle
_geom_angle_site_symmetry_1
_geom_angle_site_symmetry_3
C2 O2 C3 112.11(8) . .
O1 C1 C2 113.55(9) . .
O2 C2 C1 109.47(9) . .
O2 C3 C4 110.82(8) . .
N5 C4 C3 111.84(9) . .
C7 N5 C4 121.95(9) . .
C7 C6 C10 120.77(10) . 2_574
N5 C7 C6 121.21(10) . .
N5 C7 C8 119.73(10) . .
C6 C7 C8 119.05(10) . .
C8 C8 C7 119.06(12) 2_574 .
C9 C8 C7 121.26(10) . .
C9 C8 C8 119.69(12) . 2_574
C10 C9 C8 119.84(10) . .
C9 C10 C6 121.60(10) . 2_574
N1 C11 C13 178.71(12) . .
N2 C12 C13 178.51(12) . .
C11 C13 C12 116.48(10) . .
C14 C13 C11 121.69(10) . .
C14 C13 C12 121.82(10) . .
C13 C14 C15 121.02(10) . .
C13 C14 C16 121.17(10) . .
C16 C14 C15 117.81(10) . .
C16 C15 C14 121.11(10) 2_674 .
C15 C16 C14 121.08(10) 2_674 .
loop_
_geom_bond_atom_site_label_1
_geom_bond_atom_site_label_2
_geom_bond_distance
_geom_bond_site_symmetry_2
O1 C1 1.4256(13) .
O2 C2 1.4267(13) .
O2 C3 1.4318(13) .
C1 C2 1.5012(15) .
C3 C4 1.5097(15) .
C4 N5 1.4488(14) .
N5 C7 1.3683(14) .
C6 C7 1.3906(15) .
C6 C10 1.4004(16) 2_574
C7 C8 1.4438(15) .
C8 C8 1.424(2) 2_574
C8 C9 1.4223(15) .
C9 C10 1.3691(16) .
C10 C6 1.4004(16) 2_574
N1 C11 1.1502(15) .
N2 C12 1.1478(15) .
C11 C13 1.4335(16) .
C12 C13 1.4348(15) .
C13 C14 1.3761(16) .
C14 C15 1.4462(16) .
C14 C16 1.4451(15) .
C15 C16 1.3445(16) 2_674
C16 C15 1.3445(16) 2_674
loop_
_geom_torsion_atom_site_label_1
_geom_torsion_atom_site_label_2
_geom_torsion_atom_site_label_3
_geom_torsion_atom_site_label_4
_geom_torsion
_geom_torsion_site_symmetry_1
_geom_torsion_site_symmetry_4
O1 C1 C2 O2 69.21(11) . .
O2 C3 C4 N5 -56.85(12) . .
C2 O2 C3 C4 -136.32(9) . .
C3 O2 C2 C1 175.37(8) . .
C3 C4 N5 C7 -179.40(9) . .
C4 N5 C7 C6 -0.44(16) . .
C4 N5 C7 C8 -179.31(9) . .
N5 C7 C8 C8 178.90(11) . 2_574
N5 C7 C8 C9 -1.06(16) . .
C6 C7 C8 C8 0.01(18) . 2_574
C6 C7 C8 C9 -179.96(10) . .
C7 C8 C9 C10 179.91(10) . .
C8 C8 C9 C10 -0.05(19) 2_574 .
C8 C9 C10 C6 0.18(17) . 2_574
C10 C6 C7 N5 -179.01(10) 2_574 .
C10 C6 C7 C8 -0.14(16) 2_574 .
C11 C13 C14 C15 4.33(16) . .
C11 C13 C14 C16 -176.08(10) . .
C12 C13 C14 C15 -176.73(10) . .
C12 C13 C14 C16 2.86(16) . .
C13 C14 C15 C16 179.41(10) . 2_674
C13 C14 C16 C15 -179.41(10) . 2_674
C15 C14 C16 C15 0.20(17) . 2_674
C16 C14 C15 C16 -0.20(17) . 2_674
loop_
_refln_index_h
_refln_index_k
_refln_index_l
_refln_F_squared_meas
_refln_F_squared_sigma
-1 0 0 91.52 2.35
-1 0 0 91.9 2.75
-1 0 0 92.37 2.66
-2 0 0 168.25 4.97
-2 0 0 166.07 4.75
-2 0 0 166.56 4.22
-3 0 0 8.2 0.31
-3 0 0 8.35 0.28
-3 0 0 8.49 0.25
-3 0 0 8.42 0.29
-5 0 0 12.14 0.35
-5 0 0 12.19 0.3
-5 0 0 12.9 0.32
-5 0 0 12.97 0.28
-5 0 0 12.77 0.35
-5 0 0 12.84 0.29
-5 0 0 12.63 0.44
-6 0 0 3.41 0.14
-6 0 0 3.3 0.09
-6 0 0 3.43 0.14
-6 0 0 3.32 0.14
-6 0 0 3.16 0.17
-7 0 0 0.46 0.05
-7 0 0 0.43 0.05
-7 1 0 3.5 0.12
-7 1 0 3.53 0.13
-6 1 0 0.34 0.05
-6 1 0 0.24 0.06
-6 1 0 0.23 0.05
-6 1 0 0.16 0.04
-6 1 0 0.24 0.05
-6 1 0 0.22 0.03
-5 1 0 11.28 0.33
-5 1 0 11.5 0.33
-5 1 0 11.09 0.35
-5 1 0 11.65 0.26
-5 1 0 11.94 0.42
-4 1 0 0.08 0.04
-3 1 0 18.65 0.53
-3 1 0 18.83 0.64
-3 1 0 18.75 0.58
-2 1 0 395.93 11.08
-2 1 0 426.01 10.5
-2 1 0 416.71 12.85
-2 1 0 408.29 12.24
-1 1 0 451.75 13.53
-1 1 0 441.51 12.96
-1 1 0 455.91 11.43
0 -1 0 387.61 11.99
0 -1 0 417.34 13.27
0 1 0 399.23 10.21
-1 -1 0 67.44 1.96
-1 -1 0 69.3 2.05
-2 -1 0 806.63 23.6
-2 -1 0 851.14 24.67
-3 -1 0 80.04 2.56
-3 -1 0 78.95 2.22
-3 -1 0 84.34 2.45
-4 -1 0 133.54 4.29
-4 -1 0 138.19 4.1
-4 -1 0 137.99 3.73
-5 -1 0 0.09 0.04
-5 -1 0 0.1 0.04
-5 -1 0 0.03 0.03
-5 -1 0 0.05 0.02
-5 -1 0 0.1 0.03
-5 -1 0 0.04 0.02
-5 -1 0 0.03 0.03
-5 -1 0 0.01 0.03
-6 -1 0 1.69 0.1
-6 -1 0 1.6 0.1
-6 -1 0 1.58 0.09
-6 -1 0 1.67 0.08
-6 -1 0 1.63 0.09
-6 -1 0 1.56 0.08
-6 -1 0 1.51 0.09
-7 -1 0 3.17 0.12
-7 -1 0 2.89 0.12
-7 2 0 5.09 0.15
-6 2 0 0.18 0.04
-6 2 0 0.21 0.03
-6 2 0 0.26 0.05
-6 2 0 0.2 0.05
-6 2 0 0.16 0.05
-5 2 0 0.58 0.04
-5 2 0 0.72 0.07
-5 2 0 0.79 0.07
-5 2 0 0.6 0.07
-5 2 0 0.52 0.08
-4 2 0 25.53 0.64
-4 2 0 26.18 0.56
-4 2 0 25.84 0.76
-4 2 0 25.6 0.63
-4 2 0 26.98 0.81
-3 2 0 -0.03 0.03
-3 2 0 -0.03 0.03
-2 2 0 2.87 0.13
-2 2 0 2.76 0.13
1 -2 0 1.35 0.07
-1 2 0 1.4 0.07
0 -2 0 203.36 6.64
0 2 0 199.76 5.1
-1 -2 0 296.77 8.63
-1 -2 0 294.86 8.34
1 2 0 282.61 7.41
-2 -2 0 79.47 2.4
-2 -2 0 79.6 2.3
-3 -2 0 88.9 2.88
-3 -2 0 93.41 2.76
-4 -2 0 24.24 0.79
-4 -2 0 23.45 0.82
-5 -2 0 5.94 0.19
-5 -2 0 5.68 0.19
-5 -2 0 5.74 0.18
-5 -2 0 5.87 0.22
-5 -2 0 5.73 0.19
-5 -2 0 5.69 0.17
-5 -2 0 5.74 0.17
-6 -2 0 3.26 0.13
-6 -2 0 2.95 0.13
-6 -2 0 2.92 0.12
-6 -2 0 3.21 0.12
-6 -2 0 3.05 0.15
-6 -2 0 3.12 0.13
-7 -2 0 0.8 0.07
-7 -2 0 0.85 0.06
-7 -2 0 0.72 0.06
-6 3 0 14.04 0.36
-6 3 0 14.12 0.4
-6 3 0 14 0.34
-6 3 0 13.93 0.32
-6 3 0 14.17 0.33
-5 3 0 39.6 0.83
-5 3 0 39.35 0.99
-5 3 0 39.75 0.91
-5 3 0 37.06 1.16
-4 3 0 8.77 0.34
-4 3 0 9.36 0.29
-4 3 0 9.73 0.31
-4 3 0 9.28 0.24
-4 3 0 9.56 0.36
-3 3 0 12.26 0.42
-3 3 0 11.96 0.4
-2 3 0 13.16 0.41
-2 3 0 12.61 0.42
-1 3 0 68.53 1.71
-1 3 0 62.34 1.8
0 -3 0 22.12 0.76
0 3 0 21.99 0.61
-1 -3 0 0.02 0.02
-1 -3 0 0.01 0.01
-1 -3 0 0.02 0.01
1 3 0 0.03 0.02
-2 -3 0 6.51 0.26
-2 -3 0 6.34 0.25
-3 -3 0 53.92 1.67
-3 -3 0 53.7 1.74
-4 -3 0 0.26 0.06
-4 -3 0 0.28 0.06
-5 -3 0 33.66 0.73
-5 -3 0 32.89 1.13
-5 -3 0 35.16 0.7
-5 -3 0 34.06 0.78
-5 -3 0 34.5 0.9
-5 -3 0 34.5 0.74
-5 -3 0 34.98 0.8
-5 -3 0 34.14 0.69
-6 -3 0 0.82 0.07
-6 -3 0 0.76 0.06
-6 -3 0 0.88 0.08
-6 -3 0 0.76 0.06
-6 -3 0 0.82 0.07
-7 -3 0 2.43 0.12
-7 -3 0 2.54 0.11
-7 -3 0 2.48 0.1
-7 -3 0 2.53 0.1
-7 -3 0 2.36 0.1
-6 4 0 67.64 1.39
-6 4 0 67.64 1.37
-5 4 0 17.69 0.41
-5 4 0 17.61 0.46
-5 4 0 17.87 0.5
-5 4 0 17.64 0.41
-4 4 0 126.7 2.76
-4 4 0 125.95 2.45
-4 4 0 126.03 3.54
-4 4 0 131.66 3.01
-4 4 0 130.24 2.62
-4 4 0 125.26 2.58
-3 4 0 1.12 0.08
-3 4 0 1.15 0.07
-3 4 0 1.41 0.09
-3 4 0 1.3 0.11
-3 4 0 1.22 0.11
-3 4 0 1.19 0.07
-2 4 0 5.75 0.24
-2 4 0 6.23 0.24
-2 4 0 5.48 0.17
-1 4 0 32.76 0.91
0 -4 0 1.83 0.1
0 4 0 1.83 0.1
-1 -4 0 58.97 1.96
1 4 0 58.89 1.54
-2 -4 0 0.19 0.05
-2 -4 0 0.19 0.04
-3 -4 0 16.39 0.59
-3 -4 0 17.3 0.62
-4 -4 0 65.78 2.15
-4 -4 0 66.5 2.06
-4 -4 0 65.45 1.62
-5 -4 0 8.75 0.26
-5 -4 0 8.74 0.24
-5 -4 0 8.56 0.2
-5 -4 0 8.55 0.29
-5 -4 0 8.73 0.24
-6 -4 0 34.22 0.7
-6 -4 0 34.2 0.71
-6 -4 0 34.78 0.91
-6 -4 0 35.09 0.75
-6 -4 0 34.25 0.8
-7 -4 0 6.13 0.19
-7 -4 0 5.94 0.17
-7 -4 0 6.07 0.22
-5 5 0 2.28 0.08
-5 5 0 2.34 0.11
-4 5 0 71.96 1.43
-4 5 0 73.48 1.51
-4 5 0 73.09 1.74
-4 5 0 70.96 1.6
-3 5 0 71.14 1.5
-3 5 0 72.45 1.46
-3 5 0 72.9 1.42
-3 5 0 69.2 1.59
-3 5 0 71.64 1.73
-2 5 0 61.17 1.38
-2 5 0 63.27 1.24
-2 5 0 63.39 1.29
-2 5 0 59.57 1.68
-2 5 0 62.16 1.3
1 -5 0 1.69 0.08
-1 5 0 1.72 0.07
-1 5 0 1.56 0.09
-1 5 0 1.64 0.12
-1 5 0 1.7 0.09
0 -5 0 35.76 1.28
0 5 0 38.66 1.03
-1 -5 0 36.75 1.23
-2 -5 0 4.56 0.23
-3 -5 0 34.4 1.19
-4 -5 0 42.41 1.06
-4 -5 0 42.24 1.43
-4 -5 0 41.43 0.94
-4 -5 0 40.81 0.87
-5 -5 0 19.53 0.43
-5 -5 0 19.29 0.45
-5 -5 0 19.14 0.5
-5 -5 0 20.12 0.55
-6 -5 0 0.14 0.04
-6 -5 0 0.18 0.03
-6 -5 0 0.24 0.05
-6 -5 0 0.19 0.02
-6 -5 0 0.17 0.04
-7 -5 0 12.34 0.29
-7 -5 0 12.18 0.32
-4 6 0 0.32 0.04
-4 6 0 0.29 0.03
-4 6 0 0.37 0.05
-3 6 0 3.51 0.13
-3 6 0 3.48 0.16
-3 6 0 3.31 0.13
-3 6 0 3.47 0.15
-3 6 0 3.49 0.12
-2 6 0 0.05 0.03
-2 6 0 0.05 0.03
-2 6 0 0.1 0.04
-2 6 0 0.12 0.04
-2 6 0 0.08 0.03
1 -6 0 20.9 0.47
1 -6 0 21.59 0.52
-1 6 0 20.4 0.5
-1 6 0 20.92 0.47
-1 6 0 21.12 0.48
0 -6 0 27.42 0.64
0 -6 0 28.83 0.6
0 6 0 27.57 0.81
0 6 0 28.03 0.6
0 6 0 27.55 0.64
-1 -6 0 68 1.39
-1 -6 0 65.29 1.38
-2 -6 0 0.21 0.03
-2 -6 0 0.08 0.03
-2 -6 0 0.1 0.03
-2 -6 0 0.14 0.06
-2 -6 0 0.13 0.03
-3 -6 0 24.9 0.61
-3 -6 0 24.7 0.56
-3 -6 0 27.34 0.94
-3 -6 0 25.21 0.56
-3 -6 0 25.29 0.55
-3 -6 0 24.98 0.57
-4 -6 0 12.69 0.54
-4 -6 0 12.95 0.32
-4 -6 0 13.05 0.36
-5 -6 0 62.19 1.37
-5 -6 0 62.76 1.28
-5 -6 0 61.28 1.53
-6 -6 0 4.45 0.17
-6 -6 0 4.57 0.13
-6 -6 0 4.47 0.15
-7 -6 0 0.21 0.04
-7 -6 0 0.2 0.03
-3 7 0 2.51 0.09
-3 7 0 2.75 0.1
-2 7 0 8.04 0.23
-2 7 0 7.89 0.22
1 -7 0 7.48 0.24
-1 7 0 7.51 0.24
-1 7 0 7.6 0.24
-1 7 0 7.53 0.22
0 -7 0 0.01 0.03
0 -7 0 0.01 0.03
0 7 0 -0.02 0.03
0 7 0 0.02 0.03
-1 -7 0 5.8 0.17
-1 -7 0 5.89 0.2
-1 -7 0 5.73 0.31
-1 -7 0 6.12 0.2
-1 -7 0 5.99 0.19
-2 -7 0 6.91 0.23
-2 -7 0 6.82 0.35
-2 -7 0 6.85 0.19
-2 -7 0 6.87 0.21
-2 -7 0 6.82 0.21
-3 -7 0 9.68 0.45
-3 -7 0 10.15 0.3
-3 -7 0 9.88 0.26
-3 -7 0 9.93 0.27
-3 -7 0 10.19 0.26
-4 -7 0 4.89 0.16
-4 -7 0 4.93 0.15
-4 -7 0 4.71 0.18
-5 -7 0 16.4 0.39
-5 -7 0 17.15 0.39
-5 -7 0 16.75 0.44
-6 -7 0 1.01 0.05
-6 -7 0 0.9 0.07
-6 -7 0 0.92 0.06
-7 -7 0 1.72 0.07
-7 -7 0 1.75 0.07
2 -8 0 0.59 0.05
-2 8 0 0.62 0.05
-2 8 0 0.69 0.05
-2 8 0 0.59 0.05
1 -8 0 9.53 0.26
1 -8 0 9.62 0.27
-1 8 0 9.5 0.24
-1 8 0 9.46 0.26
0 -8 0 1.42 0.08
0 -8 0 1.47 0.08
0 -8 0 1.5 0.09
0 8 0 1.47 0.09
0 8 0 1.31 0.08
-1 -8 0 0.96 0.08
-1 -8 0 0.92 0.07
-1 -8 0 0.91 0.07
-2 -8 0 29.63 0.65
-2 -8 0 30.67 0.72
-2 -8 0 30.81 0.68
-2 -8 0 30.85 0.67
-3 -8 0 13.44 0.33
-3 -8 0 13.97 0.33
-3 -8 0 13.46 0.37
-3 -8 0 13.8 0.34
-4 -8 0 2.68 0.1
-4 -8 0 2.79 0.13
-4 -8 0 2.63 0.11
-5 -8 0 4.24 0.16
-5 -8 0 4.43 0.14
-5 -8 0 4.42 0.13
-6 -8 0 4.34 0.14
-6 -8 0 4.26 0.13
-6 -8 0 4.39 0.12
0 -9 0 3.72 0.13
0 -9 0 3.97 0.13
0 9 0 3.97 0.13
-1 -9 0 3.85 0.13
-1 -9 0 3.84 0.14
-1 -9 0 3.61 0.12
1 9 0 3.68 0.14
-2 -9 0 7.74 0.21
-2 -9 0 7.55 0.22
-2 -9 0 7.78 0.21
-3 -9 0 2.3 0.08
-3 -9 0 2.44 0.1
-3 -9 0 2.42 0.11
-4 -9 0 0.36 0.03
-4 -9 0 0.44 0.04
-4 -9 0 0.63 0.05
-4 -9 1 1.56 0.08
-4 -9 1 1.74 0.07
-4 -9 1 1.65 0.06
-3 -9 1 0.7 0.05
-3 -9 1 0.69 0.06
-3 -9 1 0.69 0.04
-2 -9 1 20.84 0.47
-2 -9 1 21.2 0.46
-2 -9 1 21.1 0.5
1 9 -1 0.02 0.03
-1 -9 1 0.04 0.02
-1 -9 1 0.01 0.02
-1 -9 1 0.02 0.02
0 9 -1 1.19 0.07
0 -9 1 1.25 0.07
0 -9 1 1.29 0.07
-6 -8 1 0.3 0.03
-6 -8 1 0.29 0.04
-6 -8 1 0.3 0.03
-5 -8 1 0.17 0.04
-5 -8 1 0.34 0.04
-5 -8 1 0.15 0.03
-4 -8 1 15.55 0.41
-4 -8 1 15.76 0.37
-4 -8 1 15.66 0.36
-3 -8 1 9.8 0.25
-3 -8 1 9.97 0.29
-3 -8 1 9.71 0.26
-3 -8 1 10.06 0.26
-2 -8 1 0.28 0.05
-2 -8 1 0.26 0.05
-2 -8 1 0.2 0.03
-2 -8 1 0.25 0.05
-1 -8 1 3.67 0.14
-1 -8 1 3.51 0.13
-1 -8 1 3.41 0.14
0 8 -1 2.06 0.1
0 8 -1 1.94 0.11
0 -8 1 2.28 0.1
0 -8 1 2.3 0.11
0 -8 1 2.12 0.1
-1 8 -1 0.01 0.03
-1 8 -1 0.1 0.03
-1 8 -1 0.1 0.04
1 -8 1 0.13 0.04
1 -8 1 0.13 0.03
-2 8 -1 19.93 0.43
-2 8 -1 20.64 0.45
-6 -7 1 1.84 0.1
-6 -7 1 1.79 0.08
-6 -7 1 1.89 0.07
-5 -7 1 19.03 0.43
-5 -7 1 19.28 0.49
-5 -7 1 18.63 0.43
-4 -7 1 19.85 0.45
-4 -7 1 18.41 0.75
-4 -7 1 19.73 0.45
-4 -7 1 19.4 0.5
-3 -7 1 2.26 0.09
-3 -7 1 2.3 0.12
-3 -7 1 2.11 0.18
-3 -7 1 2.26 0.1
-3 -7 1 2.1 0.1
-2 -7 1 2.21 0.11
-2 -7 1 2.45 0.19
-2 -7 1 2.33 0.12
-2 -7 1 2.4 0.1
-2 -7 1 2.24 0.11
-1 -7 1 4.82 0.17
-1 -7 1 4.53 0.27
-1 -7 1 4.48 0.17
-1 -7 1 4.63 0.16
-1 -7 1 4.69 0.15
0 7 -1 62.07 1.24
0 7 -1 60.1 1.3
0 -7 1 64.29 1.25
0 -7 1 60.95 2.06
0 -7 1 60.51 1.3
-1 7 -1 0.26 0.05
-1 7 -1 0.26 0.05
1 -7 1 0.33 0.06
-2 7 -1 3 0.12
-2 7 -1 2.97 0.13
-2 7 -1 2.8 0.12
-3 7 -1 1.25 0.08
-3 7 -1 1.19 0.06
-3 7 -1 1.33 0.07
-7 -6 1 11.31 0.26
-7 -6 1 11.23 0.29
-6 -6 1 30.5 0.8
-6 -6 1 30.68 0.72
-6 -6 1 31.24 0.65
-6 -6 1 30.9 0.65
-5 -6 1 7.34 0.2
-5 -6 1 7.25 0.24
-4 -6 1 13.72 0.38
-4 -6 1 14.01 0.59
-4 -6 1 14.16 0.34
-3 -6 1 0.09 0.03
-3 -6 1 0.12 0.03
-3 -6 1 0.11 0.06
-3 -6 1 0.05 0.03
-3 -6 1 0.07 0.03
-3 -6 1 0.08 0.03
-2 -6 1 42.68 0.88
-2 -6 1 42.43 0.96
-2 -6 1 43.32 0.93
-2 -6 1 44.67 1.49
-2 -6 1 43.45 0.92
-1 -6 1 21.52 0.51
-1 -6 1 22.14 0.8
-1 -6 1 21.14 0.48
-1 -6 1 21.05 0.48
0 6 -1 0.86 0.08
0 6 -1 0.93 0.09
0 6 -1 0.92 0.07
0 -6 1 0.85 0.07
0 -6 1 0.87 0.07
-1 6 -1 3.49 0.12
-1 6 -1 3.49 0.14
-1 6 -1 3.57 0.15
1 -6 1 3.32 0.13
1 -6 1 3.49 0.15
-2 6 -1 4.91 0.19
-2 6 -1 5.09 0.18
-2 6 -1 4.99 0.15
-2 6 -1 5.23 0.17
-3 6 -1 0.94 0.08
-3 6 -1 0.82 0.06
-3 6 -1 0.95 0.07
-3 6 -1 0.89 0.08
-3 6 -1 0.93 0.06
-4 6 -1 10.29 0.29
-4 6 -1 10.56 0.31
-4 6 -1 10.73 0.26
-4 6 -1 10.53 0.26
-7 -5 1 7.16 0.19
-7 -5 1 7.57 0.24
-7 -5 1 7.07 0.21
-6 -5 1 0.54 0.07
-6 -5 1 0.72 0.06
-6 -5 1 0.64 0.04
-6 -5 1 0.75 0.07
-5 -5 1 27.12 1.02
-5 -5 1 30.25 0.77
-5 -5 1 27.13 0.68
-5 -5 1 29.07 0.61
-4 -5 1 77.21 1.67
-4 -5 1 78.97 2.55
-4 -5 1 76.42 1.58
-4 -5 1 77.94 1.9
-3 -5 1 118.07 3.6
-3 -5 1 111.87 3.42
-3 -5 1 106.29 2.35
-2 -5 1 0.26 0.06
-1 -5 1 1.57 0.08
0 5 -1 10.84 0.36
0 -5 1 10.46 0.41
-1 5 -1 68.84 1.81
-1 5 -1 67.11 1.4
-1 5 -1 66.81 1.39
-1 5 -1 68.33 1.34
1 -5 1 66.36 1.33
-2 5 -1 5.2 0.17
-2 5 -1 5.09 0.23
-2 5 -1 5.07 0.15
-2 5 -1 4.94 0.17
-2 5 -1 5.02 0.2
-3 5 -1 17.8 0.48
-3 5 -1 18.53 0.42
-3 5 -1 18.01 0.43
-3 5 -1 17.75 0.51
-3 5 -1 18.03 0.43
-4 5 -1 2.62 0.11
-4 5 -1 2.74 0.14
-4 5 -1 2.73 0.13
-4 5 -1 2.7 0.1
-5 5 -1 0.02 0.02
-5 5 -1 0.06 0.03
-5 5 -1 0.06 0.02
-5 5 -1 0.05 0.03
-7 -4 1 0.14 0.03
-7 -4 1 0.1 0.03
-7 -4 1 0.13 0.04
-6 -4 1 12.69 0.31
-6 -4 1 12.86 0.28
-6 -4 1 12.59 0.4
-6 -4 1 12.88 0.32
-6 -4 1 12.87 0.35
-5 -4 1 38.11 0.8
-5 -4 1 37.65 0.77
-5 -4 1 36.52 1.3
-5 -4 1 38.3 0.78
-5 -4 1 37.07 0.86
-5 -4 1 37.88 0.98
-4 -4 1 29.77 0.62
-4 -4 1 28.41 0.77
-4 -4 1 30.47 1.04
-4 -4 1 28.93 0.99
-4 -4 1 29.53 0.68
-3 -4 1 290.16 8.73
-3 -4 1 295.92 9.16
-2 -4 1 8.81 0.34
-2 -4 1 8.87 0.36
1 4 -1 39.92 1.08
-1 -4 1 41.82 1.27
-1 -4 1 40.38 1.36
0 4 -1 0.56 0.06
0 -4 1 0.51 0.05
-1 4 -1 54.75 1.47
-2 4 -1 28.68 0.61
-2 4 -1 29.73 0.84
-2 4 -1 29.02 0.86
-3 4 -1 0.23 0.06
-3 4 -1 0.16 0.04
-3 4 -1 0.22 0.03
-3 4 -1 0.22 0.04
-3 4 -1 0.22 0.06
-3 4 -1 0.26 0.05
-3 4 -1 0.3 0.05
-4 4 -1 45.92 0.95
-4 4 -1 45.95 0.99
-4 4 -1 45.08 1.36
-4 4 -1 47.79 1
-4 4 -1 47.47 1.16
-4 4 -1 46.59 1.08
-5 4 -1 94.08 1.96
-5 4 -1 95.59 1.93
-5 4 -1 95.48 2.07
-5 4 -1 94.31 2.25
-6 4 -1 47.06 0.95
-6 4 -1 46.96 0.97
-6 4 -1 44.73 1.01
-7 -3 1 0.92 0.06
-7 -3 1 0.72 0.05
-7 -3 1 0.71 0.07
-7 -3 1 0.71 0.06
-6 -3 1 5.72 0.19
-6 -3 1 6.23 0.18
-6 -3 1 5.87 0.18
-6 -3 1 6.08 0.2
-6 -3 1 5.43 0.23
-6 -3 1 6.54 0.19
-5 -3 1 72.5 2.39
-5 -3 1 77.99 1.48
-5 -3 1 78.73 1.65
-5 -3 1 78.8 1.9
-5 -3 1 74.22 2.49
-5 -3 1 80.02 1.57
-5 -3 1 77.02 1.71
-5 -3 1 75.67 1.53
-5 -3 1 76.01 1.56
-4 -3 1 10.79 0.43
-4 -3 1 11.53 0.45
-3 -3 1 17.99 0.63
-3 -3 1 18.63 0.66
-2 -3 1 41.6 1.37
-2 -3 1 42.64 1.31
1 3 -1 24.56 0.67
-1 -3 1 26.34 0.85
-1 -3 1 25.03 0.8
-1 -3 1 25.24 0.85
0 3 -1 14.92 0.42
0 -3 1 14.78 0.53
-1 3 -1 15.95 0.5
-1 3 -1 17.82 0.5
-2 3 -1 6.79 0.25
-2 3 -1 7.11 0.25
-3 3 -1 40.25 1.18
-3 3 -1 40.92 1.13
-4 3 -1 2.97 0.14
-4 3 -1 2.93 0.14
-4 3 -1 2.95 0.11
-4 3 -1 3.2 0.17
-4 3 -1 2.75 0.16
-4 3 -1 3.08 0.15
-5 3 -1 0.31 0.06
-5 3 -1 0.31 0.04
-5 3 -1 0.22 0.05
-5 3 -1 0.33 0.06
-6 3 -1 113.71 2.7
-6 3 -1 116.06 2.32
-6 3 -1 116.61 2.48
-6 3 -1 115.71 2.32
-7 -2 1 0.82 0.07
-7 -2 1 0.71 0.06
-6 -2 1 15.61 0.46
-6 -2 1 15.23 0.35
-6 -2 1 14.81 0.38
-6 -2 1 15.48 0.37
-6 -2 1 15.73 0.39
-6 -2 1 14.96 0.4
-5 -2 1 6.9 0.19
-5 -2 1 7.25 0.21
-5 -2 1 6.66 0.21
-5 -2 1 6.55 0.15
-5 -2 1 6.24 0.3
-5 -2 1 6.6 0.19
-5 -2 1 6.45 0.2
-5 -2 1 6.54 0.24
-4 -2 1 2.31 0.14
-4 -2 1 2.49 0.15
-3 -2 1 0.48 0.06
-3 -2 1 0.52 0.06
-2 -2 1 18.05 0.64
-2 -2 1 19.67 0.62
-1 -2 1 2.26 0.11
-1 -2 1 2.25 0.09
-1 -2 1 2.22 0.09
0 2 -1 235.45 5.93
0 -2 1 232.25 7.75
0 -2 1 236.05 6.97
-1 2 -1 9.62 0.29
-2 2 -1 0.09 0.03
-2 2 -1 0.08 0.03
-3 2 -1 9.38 0.33
-3 2 -1 9.25 0.31
-4 2 -1 20.29 0.55
-4 2 -1 19.91 0.6
-4 2 -1 20.11 0.51
-4 2 -1 20.18 0.44
-4 2 -1 19.37 0.51
-4 2 -1 20.8 0.65
-5 2 -1 18.07 0.4
-5 2 -1 17.46 0.5
-5 2 -1 18.48 0.48
-5 2 -1 17.4 0.59
-5 2 -1 17.34 0.47
-6 2 -1 1.21 0.08
-6 2 -1 1.17 0.1
-6 2 -1 1.47 0.08
-6 2 -1 1.31 0.09
-6 2 -1 1.4 0.06
-6 2 -1 1.35 0.09
-7 2 -1 25.42 0.55
-7 2 -1 26.41 0.6
-7 -1 1 6.05 0.18
-7 -1 1 5.67 0.18
-6 -1 1 21.28 0.5
-6 -1 1 21.16 0.5
-6 -1 1 20.19 0.52
-6 -1 1 20.74 0.58
-6 -1 1 20.17 0.45
-6 -1 1 21.37 0.52
-5 -1 1 2.59 0.13
-5 -1 1 2.46 0.14
-5 -1 1 2.55 0.07
-5 -1 1 2.75 0.12
-5 -1 1 2.68 0.12
-5 -1 1 2.54 0.16
-5 -1 1 2.51 0.1
-5 -1 1 2.69 0.1
-5 -1 1 2.6 0.11
-5 -1 1 2.42 0.11
-5 -1 1 2.31 0.1
-4 -1 1 9.71 0.38
-4 -1 1 9.56 0.33
-4 -1 1 9.42 0.36
-3 -1 1 32.33 0.98
-3 -1 1 29.77 0.88
-3 -1 1 30.81 1.02
-2 -1 1 29.46 0.88
-2 -1 1 27.09 0.73
1 1 -1 35.17 1.2
-1 -1 1 36.38 1.1
0 1 -1 26.49 0.71
0 -1 1 26.67 0.83
-1 1 -1 4.56 0.14
-2 1 -1 0.82 0.05
-3 1 -1 3.16 0.13
-3 1 -1 3.05 0.14
-4 1 -1 0.02 0.03
-4 1 -1 0.04 0.03
-5 1 -1 0.06 0.02
-5 1 -1 0.2 0.05
-5 1 -1 0.09 0.04
-5 1 -1 0.08 0.04
-5 1 -1 0 0.03
-6 1 -1 3.76 0.16
-6 1 -1 4.24 0.15
-6 1 -1 3.93 0.17
-6 1 -1 4.02 0.16
-6 1 -1 4.06 0.11
-6 1 -1 3.91 0.2
-7 1 -1 3.67 0.14
-7 1 -1 3.45 0.12
-7 1 -1 3.3 0.12
-7 0 1 44.18 0.94
-6 0 1 1.51 0.09
-6 0 1 1.54 0.09
-6 0 1 1.27 0.11
-6 0 1 1.34 0.05
-6 0 1 1.36 0.08
-5 0 1 10.05 0.37
-5 0 1 9.29 0.27
-5 0 1 9.93 0.22
-5 0 1 9.98 0.28
-5 0 1 10.31 0.25
-5 0 1 9.64 0.4
-5 0 1 9.44 0.28
-5 0 1 9.95 0.26
-5 0 1 9.92 0.24
-4 0 1 7.26 0.28
-4 0 1 7.17 0.3
-3 0 1 9.57 0.33
-3 0 1 9.15 0.31
-3 0 1 9.11 0.35
-3 0 1 9.3 0.28
-2 0 1 432.86 13.33
-2 0 1 463.2 11.37
-1 0 1 23.48 0.73
-1 0 1 22.93 0.62
0 0 -1 6.75 0.23
0 0 1 6.48 0.23
-1 0 -1 10.89 0.29
-2 0 -1 318.75 8.23
-2 0 -1 331.26 9.69
-3 0 -1 7.96 0.24
-3 0 -1 8.19 0.27
-3 0 -1 7.64 0.29
-3 0 -1 7.89 0.27
-4 0 -1 77.62 2.16
-5 0 -1 7.79 0.3
-5 0 -1 7.67 0.22
-5 0 -1 7.36 0.25
-5 0 -1 7.48 0.22
-5 0 -1 7.4 0.24
-5 0 -1 7.41 0.24
-5 0 -1 7.67 0.21
-5 0 -1 7.52 0.17
-5 0 -1 7.72 0.19
-6 0 -1 0.02 0.04
-6 0 -1 0.16 0.04
-6 0 -1 0.01 0.03
-6 0 -1 0 0.02
-6 0 -1 0.04 0.01
-6 0 -1 0.03 0.03
-7 0 -1 2.69 0.11
-7 0 -1 2.74 0.12
-7 0 -1 2.63 0.11
-7 1 1 8.73 0.23
-6 1 1 0.02 0.03
-6 1 1 0.01 0.03
-6 1 1 0.01 0.02
-6 1 1 -0.02 0.03
-5 1 1 1.45 0.1
-5 1 1 1.83 0.07
-5 1 1 1.56 0.12
-5 1 1 1.51 0.09
-4 1 1 3.77 0.18
-4 1 1 3.63 0.19
-3 1 1 64.33 1.69
-3 1 1 64.4 2.06
-3 1 1 64.65 1.81
-2 1 1 104.46 2.55
-2 1 1 97.7 2.96
-2 1 1 98.29 3.11
-2 1 1 96.65 2.71
1 -1 -1 134.9 4.43
-1 1 1 133.61 3.41
0 -1 -1 476.26 14.85
0 1 1 455.99 11.42
0 1 1 417.13 14.79
1 1 1 22.9 0.59
-3 -1 -1 0.94 0.07
-3 -1 -1 1.01 0.07
-3 -1 -1 0.82 0.06
-3 -1 -1 0.98 0.07
-4 -1 -1 109.39 3
-5 -1 -1 2.37 0.11
-5 -1 -1 2.33 0.11
-5 -1 -1 2.22 0.1
-5 -1 -1 2.26 0.09
-5 -1 -1 2.22 0.1
-5 -1 -1 2.26 0.1
-5 -1 -1 2.3 0.13
-5 -1 -1 2.16 0.11
-6 -1 -1 0.01 0.03
-6 -1 -1 0.02 0.03
-6 -1 -1 -0.01 0.02
-6 -1 -1 -0.03 0.02
-6 -1 -1 0.01 0.04
-6 -1 -1 0.02 0.03
-6 -1 -1 -0.02 0.02
-7 -1 -1 4.68 0.16
-7 -1 -1 4.66 0.16
-7 2 1 4.57 0.14
-6 2 1 0.08 0.02
-6 2 1 0.06 0.03
-6 2 1 0.1 0.04
-6 2 1 0.12 0.04
-5 2 1 25.53 0.62
-5 2 1 25.28 0.55
-5 2 1 25.5 0.68
-5 2 1 25.46 0.81
-4 2 1 2.41 0.15
-4 2 1 2.29 0.14
-4 2 1 2.29 0.11
-4 2 1 2.26 0.08
-3 2 1 13.93 0.46
-3 2 1 14.02 0.43
-2 2 1 22.35 0.68
-2 2 1 23.51 0.65
1 -2 -1 1.48 0.08
-1 2 1 1.49 0.08
0 -2 -1 118.69 3.48
0 -2 -1 126.53 4.02
0 2 1 122.64 3.1
0 2 1 120.38 4.01
-1 -2 -1 15.87 0.5
-1 -2 -1 16.93 0.55
-1 -2 -1 16.48 0.55
1 2 1 15.91 0.43
-2 -2 -1 511.85 15
-2 -2 -1 540.23 15.66
-3 -2 -1 82.17 2.3
-3 -2 -1 75.29 2.5
-3 -2 -1 80.08 2.4
-4 -2 -1 180.74 5.36
-4 -2 -1 177.63 5.13
-5 -2 -1 43.22 0.92
-5 -2 -1 44.82 1.11
-5 -2 -1 42.49 1.01
-5 -2 -1 43.89 0.93
-5 -2 -1 43.63 0.99
-5 -2 -1 44.34 0.96
-5 -2 -1 43.04 0.86
-6 -2 -1 125.74 2.56
-6 -2 -1 120.05 2.47
-6 -2 -1 120.93 2.46
-6 -2 -1 123 2.29
-6 -2 -1 121.82 2.7
-6 -2 -1 124.62 2.64
-6 -2 -1 121.08 2.95
-7 -2 -1 4.06 0.14
-7 -2 -1 4.13 0.14
-7 -2 -1 4.19 0.15
-6 3 1 2.95 0.1
-6 3 1 2.95 0.13
-6 3 1 2.94 0.1
-5 3 1 2.12 0.09
-5 3 1 2.42 0.12
-5 3 1 2.26 0.13
-5 3 1 2.26 0.09
-5 3 1 2.23 0.15
-4 3 1 0.32 0.04
-4 3 1 0.32 0.05
-4 3 1 0.42 0.07
-4 3 1 0.31 0.06
-3 3 1 0.31 0.06
-3 3 1 0.29 0.06
-2 3 1 12.98 0.42
-2 3 1 12.16 0.4
-1 3 1 104.11 2.63
-1 3 1 99.33 2.78
0 -3 -1 29.42 1.01
0 3 1 29.5 0.8
-1 -3 -1 11.02 0.38
-1 -3 -1 10.95 0.36
1 3 1 10.78 0.31
-2 -3 -1 8.24 0.29
-2 -3 -1 7.88 0.31
-3 -3 -1 15.44 0.53
-3 -3 -1 15.64 0.51
-3 -3 -1 15.07 0.55
-5 -3 -1 0.11 0.03
-5 -3 -1 0.2 0.02
-5 -3 -1 0.14 0.03
-5 -3 -1 0.12 0.04
-5 -3 -1 0.08 0.03
-5 -3 -1 0.19 0.04
-5 -3 -1 0.1 0.03
-6 -3 -1 5.18 0.16
-6 -3 -1 5.23 0.17
-6 -3 -1 5.07 0.18
-6 -3 -1 5.12 0.2
-6 -3 -1 5.03 0.16
-6 -3 -1 5.18 0.18
-7 -3 -1 2.71 0.1
-7 -3 -1 2.79 0.12
-7 -3 -1 2.79 0.11
-7 -3 -1 2.7 0.11
-6 4 1 6.4 0.16
-5 4 1 0.25 0.03
-5 4 1 0.26 0.04
-5 4 1 0.27 0.05
-4 4 1 36.8 0.78
-4 4 1 34.84 0.84
-4 4 1 36 0.92
-4 4 1 35.61 0.77
-4 4 1 35.76 1.08
-4 4 1 34.99 0.74
-3 4 1 16.79 0.39
-3 4 1 16.05 0.38
-3 4 1 16.43 0.43
-3 4 1 16.93 0.56
-3 4 1 16.73 0.39
-3 4 1 16.18 0.54
-2 4 1 37.53 0.8
-2 4 1 39.79 1.1
-2 4 1 39.71 0.83
-2 4 1 40.68 1.16
-1 4 1 19.43 0.6
-1 4 1 20.13 0.59
0 -4 -1 56.17 1.88
0 4 1 55.4 1.48
-1 -4 -1 4.22 0.17
1 4 1 4.15 0.16
-2 -4 -1 0.87 0.08
-3 -4 -1 44.38 1.47
-4 -4 -1 17.44 0.48
-5 -4 -1 5.36 0.17
-5 -4 -1 5.25 0.19
-5 -4 -1 5.44 0.18
-5 -4 -1 5.2 0.2
-5 -4 -1 5.44 0.14
-5 -4 -1 5.28 0.17
-6 -4 -1 13.15 0.4
-6 -4 -1 13.24 0.32
-6 -4 -1 13.09 0.33
-6 -4 -1 13.12 0.36
-7 -4 -1 1.67 0.09
-7 -4 -1 1.79 0.08
-7 -4 -1 1.63 0.08
-5 5 1 0.27 0.04
-5 5 1 0.29 0.04
-5 5 1 0.27 0.03
-4 5 1 81.76 1.64
-4 5 1 85.77 2.01
-4 5 1 84.83 1.75
-3 5 1 16 0.38
-3 5 1 15.69 0.38
-3 5 1 15.84 0.54
-3 5 1 15.83 0.38
-2 5 1 220.94 4.39
-2 5 1 214.72 4.1
-2 5 1 217.13 4.26
-2 5 1 212.21 5.57
1 -5 -1 2.84 0.11
-1 5 1 2.92 0.1
-1 5 1 3 0.12
-1 5 1 2.95 0.12
-1 5 1 3.05 0.16
0 -5 -1 0.3 0.05
0 5 1 0.23 0.05
-1 -5 -1 29 0.98
-2 -5 -1 89.27 2.87
-3 -5 -1 1.38 0.12
-4 -5 -1 3.31 0.14
-4 -5 -1 3.4 0.14
-4 -5 -1 3.25 0.11
-5 -5 -1 8.87 0.27
-5 -5 -1 8.45 0.28
-5 -5 -1 8.57 0.21
-5 -5 -1 8.41 0.24
-6 -5 -1 0.61 0.06
-6 -5 -1 0.6 0.07
-6 -5 -1 0.56 0.04
-6 -5 -1 0.64 0.05
-6 -5 -1 0.65 0.07
-7 -5 -1 3.59 0.12
-7 -5 -1 3.51 0.14
-7 -5 -1 3.55 0.12
-4 6 1 2.5 0.12
-4 6 1 2.51 0.1
-4 6 1 2.44 0.09
-4 6 1 2.41 0.08
-3 6 1 0.75 0.07
-3 6 1 0.75 0.06
-3 6 1 0.69 0.06
-3 6 1 0.72 0.05
-2 6 1 117.55 2.39
-2 6 1 115.2 2.25
-2 6 1 112.92 2.73
-2 6 1 118.44 2.34
1 -6 -1 65.97 1.3
1 -6 -1 65.41 1.37
-1 6 1 64.38 1.36
-1 6 1 64.24 1.36
-1 6 1 66.58 1.31
0 -6 -1 102.03 2.09
0 -6 -1 105.75 2
0 6 1 102.22 2.71
0 6 1 101.33 2.09
0 6 1 102.98 2
-1 -6 -1 11.55 0.3
-1 -6 -1 11.08 0.28
-1 -6 -1 11.1 0.28
-2 -6 -1 52.55 1.13
-2 -6 -1 53.22 1.07
-2 -6 -1 53.25 1.16
-2 -6 -1 53.61 1.11
-2 -6 -1 53.91 1.79
-3 -6 -1 0.39 0.06
-3 -6 -1 0.24 0.04
-3 -6 -1 0.41 0.05
-3 -6 -1 0.18 0.03
-3 -6 -1 0.36 0.08
-3 -6 -1 0.3 0.04
-4 -6 -1 34.17 0.78
-4 -6 -1 32.75 0.72
-5 -6 -1 0.02 0.03
-5 -6 -1 0.01 0.02
-6 -6 -1 11.15 0.28
-6 -6 -1 11.08 0.26
-6 -6 -1 11.28 0.32
-7 -6 -1 25.91 0.53
-7 -6 -1 25.91 0.59
-3 7 1 8.12 0.2
-3 7 1 8.54 0.22
-3 7 1 8.31 0.21
-2 7 1 2.61 0.11
-2 7 1 2.47 0.11
1 -7 -1 5.94 0.21
-1 7 1 6 0.2
-1 7 1 5.9 0.19
0 -7 -1 0.08 0.04
0 -7 -1 0.02 0.03
0 7 1 0.08 0.04
0 7 1 0.09 0.04
-1 -7 -1 32.42 0.74
-1 -7 -1 32.87 0.69
-1 -7 -1 31.74 1.15
-1 -7 -1 31.94 0.7
-1 -7 -1 32.4 0.73
-2 -7 -1 126.19 2.65
-2 -7 -1 130.01 2.53
-2 -7 -1 124.86 2.44
-2 -7 -1 122.07 4.05
-2 -7 -1 127.87 2.59
-3 -7 -1 131.41 4.38
-3 -7 -1 137.12 2.63
-3 -7 -1 137.33 2.81
-3 -7 -1 138.5 2.71
-3 -7 -1 140.19 2.88
-4 -7 -1 4.73 0.15
-4 -7 -1 4.47 0.15
-4 -7 -1 4.53 0.18
-5 -7 -1 0.31 0.04
-5 -7 -1 0.27 0.04
-5 -7 -1 0.28 0.05
-6 -7 -1 3.72 0.11
-6 -7 -1 3.6 0.14
-6 -7 -1 3.5 0.12
-7 -7 -1 24.62 0.55
-2 8 1 0.01 0.02
-2 8 1 0.05 0.02
-2 8 1 0.01 0.02
1 -8 -1 14.32 0.35
1 -8 -1 14.18 0.36
-1 8 1 14.66 0.34
-1 8 1 14.41 0.36
-1 8 1 14.61 0.34
0 -8 -1 24.75 0.57
0 -8 -1 25.26 0.57
0 -8 -1 24.72 0.53
0 8 1 24.16 0.57
0 8 1 23.9 0.53
0 8 1 23.86 0.53
-1 -8 -1 17.34 0.43
-1 -8 -1 16.85 0.41
-1 -8 -1 17.4 0.43
-2 -8 -1 3.7 0.14
-2 -8 -1 3.81 0.12
-2 -8 -1 3.77 0.14
-2 -8 -1 3.68 0.15
-3 -8 -1 19.76 0.45
-3 -8 -1 19.94 0.5
-3 -8 -1 19.32 0.45
-3 -8 -1 19.81 0.45
-4 -8 -1 6.6 0.18
-4 -8 -1 6.5 0.19
-4 -8 -1 6.43 0.21
-5 -8 -1 7.16 0.19
-5 -8 -1 7.37 0.2
-5 -8 -1 7.22 0.22
-6 -8 -1 1.19 0.07
-6 -8 -1 1.31 0.05
-6 -8 -1 1.19 0.06
0 -9 -1 1.77 0.08
0 9 1 1.81 0.08
-1 -9 -1 1.05 0.07
-1 -9 -1 0.99 0.07
-1 -9 -1 0.96 0.06
1 9 1 1.02 0.07
-2 -9 -1 6.36 0.18
-2 -9 -1 6.62 0.2
-2 -9 -1 6.57 0.18
-3 -9 -1 12.13 0.31
-3 -9 -1 12.25 0.29
-3 -9 -1 11.73 0.28
-4 -9 -1 3.79 0.13
-4 -9 -1 3.69 0.12
-4 -9 -1 3.61 0.11
-4 -9 2 20.41 0.47
-4 -9 2 20.37 0.45
-3 -9 2 2.39 0.08
-3 -9 2 2.41 0.1
-3 -9 2 2.5 0.1
-2 -9 2 2.11 0.09
-2 -9 2 2.11 0.1
-2 -9 2 1.99 0.08
-1 -9 2 5.95 0.18
-1 -9 2 6.18 0.18
0 9 -2 24.82 0.55
0 -9 2 25.33 0.55
-5 -8 2 0.16 0.03
-5 -8 2 0.18 0.03
-5 -8 2 0.23 0.04
-4 -8 2 34.84 0.8
-4 -8 2 35.19 0.76
-4 -8 2 34.59 0.72
-3 -8 2 1.89 0.09
-3 -8 2 1.87 0.09
-3 -8 2 1.95 0.08
-3 -8 2 1.95 0.11
-2 -8 2 9.61 0.26
-2 -8 2 9.88 0.28
-2 -8 2 9.17 0.24
-2 -8 2 9.79 0.27
-1 -8 2 0.37 0.05
-1 -8 2 0.34 0.05
-1 -8 2 0.36 0.05
0 8 -2 18.55 0.46
0 8 -2 18.66 0.42
0 -8 2 18.56 0.45
0 -8 2 18.31 0.45
0 -8 2 18.87 0.43
-1 8 -2 4.61 0.16
-1 8 -2 4.47 0.16
-1 8 -2 4.73 0.15
1 -8 2 4.76 0.17
1 -8 2 4.79 0.15
-2 8 -2 23.46 0.51
-2 8 -2 23.22 0.49
-6 -7 2 1.94 0.07
-6 -7 2 2.12 0.09
-6 -7 2 1.82 0.09
-5 -7 2 0.23 0.04
-5 -7 2 0.13 0.04
-5 -7 2 0.14 0.03
-4 -7 2 4.67 0.15
-4 -7 2 4.79 0.18
-4 -7 2 4.51 0.15
-4 -7 2 4.66 0.16
-3 -7 2 0.19 0.05
-3 -7 2 0.22 0.07
-3 -7 2 0.14 0.03
-3 -7 2 0.17 0.03
-3 -7 2 0.17 0.04
-2 -7 2 6.07 0.21
-2 -7 2 5.79 0.32
-2 -7 2 5.88 0.19
-2 -7 2 6.05 0.18
-2 -7 2 6.21 0.2
-1 -7 2 1.74 0.08
-1 -7 2 1.83 0.16
-1 -7 2 1.73 0.09
-1 -7 2 1.77 0.1
-1 -7 2 1.78 0.1
0 7 -2 20.55 0.48
0 7 -2 20.85 0.51
0 -7 2 20.66 0.51
0 -7 2 20.84 0.8
0 -7 2 21.47 0.48
-1 7 -2 0.17 0.04
-1 7 -2 0.17 0.04
1 -7 2 0.16 0.04
1 -7 2 0.19 0.06
-2 7 -2 1.85 0.09
-2 7 -2 1.63 0.09
-2 7 -2 1.59 0.1
-3 7 -2 5.73 0.17
-3 7 -2 5.92 0.19
-3 7 -2 5.86 0.16
-7 -6 2 4.04 0.13
-7 -6 2 4.12 0.12
-6 -6 2 6.12 0.16
-6 -6 2 5.92 0.2
-6 -6 2 5.87 0.21
-6 -6 2 5.96 0.18
-5 -6 2 7.93 0.39
-5 -6 2 8.18 0.26
-5 -6 2 8.11 0.21
-4 -6 2 4.44 0.17
-4 -6 2 4.35 0.14
-4 -6 2 4.36 0.14
-4 -6 2 4.42 0.26
-3 -6 2 0.42 0.05
-3 -6 2 0.26 0.04
-3 -6 2 0.29 0.04
-3 -6 2 0.29 0.05
-3 -6 2 0.3 0.08
-3 -6 2 0.24 0.04
-2 -6 2 1.33 0.13
-2 -6 2 1.26 0.08
-2 -6 2 1.26 0.07
-2 -6 2 1.39 0.08
-2 -6 2 1.37 0.08
-1 -6 2 4.78 0.15
-1 -6 2 4.82 0.16
-1 -6 2 4.94 0.26
-1 -6 2 4.83 0.17
0 6 -2 0.67 0.07
0 6 -2 0.69 0.07
0 -6 2 0.65 0.06
0 -6 2 0.77 0.07
-1 6 -2 10.92 0.3
-1 6 -2 10.94 0.27
-1 6 -2 11.05 0.29
1 -6 2 10.86 0.28
1 -6 2 10.22 0.31
-2 6 -2 25.41 0.58
-2 6 -2 26.46 0.58
-2 6 -2 26.25 0.65
-2 6 -2 26.02 0.6
-3 6 -2 0.05 0.03
-3 6 -2 0.1 0.04
-3 6 -2 0.06 0.02
-3 6 -2 0.08 0.03
-3 6 -2 0.09 0.03
-4 6 -2 0.82 0.05
-4 6 -2 0.77 0.07
-4 6 -2 0.87 0.07
-4 6 -2 0.8 0.06
-7 -5 2 12.4 0.31
-7 -5 2 11.99 0.35
-7 -5 2 11.77 0.28
-6 -5 2 1.48 0.08
-6 -5 2 1.2 0.09
-6 -5 2 1.37 0.06
-6 -5 2 1.45 0.09
-5 -5 2 3.66 0.17
-5 -5 2 3.76 0.16
-5 -5 2 3.63 0.24
-5 -5 2 3.97 0.12
-4 -5 2 1.65 0.15
-4 -5 2 1.53 0.07
-4 -5 2 1.6 0.1
-4 -5 2 1.54 0.1
-3 -5 2 6.58 0.32
-3 -5 2 6.51 0.3
-3 -5 2 6.16 0.2
-3 -5 2 6.3 0.18
-2 -5 2 3.04 0.19
-2 -5 2 3.05 0.17
-1 -5 2 11.11 0.4
-1 -5 2 11.36 0.45
0 -5 2 48.65 1.66
-1 5 -2 39.99 0.82
-1 5 -2 39.83 0.85
-1 5 -2 40.81 1.11
-1 5 -2 39.18 0.85
1 -5 2 38.29 0.81
-2 5 -2 0.71 0.07
-2 5 -2 0.65 0.05
-2 5 -2 0.62 0.06
-2 5 -2 0.77 0.06
-2 5 -2 0.72 0.07
-2 5 -2 0.69 0.09
-3 5 -2 8.36 0.24
-3 5 -2 8.39 0.29
-3 5 -2 8.62 0.23
-3 5 -2 8.99 0.24
-3 5 -2 8.46 0.28
-4 5 -2 0.23 0.05
-4 5 -2 0.2 0.04
-4 5 -2 0.25 0.04
-4 5 -2 0.25 0.05
-5 5 -2 0.45 0.04
-5 5 -2 0.48 0.06
-5 5 -2 0.47 0.05
-5 5 -2 0.42 0.04
-7 -4 2 1.89 0.08
-7 -4 2 1.9 0.11
-7 -4 2 1.82 0.09
-6 -4 2 0.06 0.02
-6 -4 2 0.1 0.04
-6 -4 2 0.06 0.03
-6 -4 2 0.01 0.03
-5 -4 2 53.53 1.09
-5 -4 2 53.14 1.8
-5 -4 2 53.38 1.36
-5 -4 2 54.06 1.1
-5 -4 2 53.25 1.06
-5 -4 2 52.88 1.18
-4 -4 2 1.46 0.06
-4 -4 2 1.49 0.13
-4 -4 2 1.18 0.08
-4 -4 2 1.26 0.06
-4 -4 2 1.17 0.09
-4 -4 2 1.18 0.11
-3 -4 2 2.81 0.17
-3 -4 2 3.14 0.19
-2 -4 2 70.01 2.25
-2 -4 2 69.6 2.15
-1 -4 2 309.71 9.64
-1 -4 2 300.35 10.19
-1 -4 2 318.83 9.19
0 4 -2 18.19 0.52
0 -4 2 17.56 0.64
-1 4 -2 14.01 0.44
-2 4 -2 8.91 0.24
-2 4 -2 9.18 0.28
-2 4 -2 9.34 0.32
-2 4 -2 9.29 0.33
-3 4 -2 39.55 0.94
-3 4 -2 40.46 0.85
-3 4 -2 39.63 1.17
-3 4 -2 40.66 1.01
-3 4 -2 40.22 0.86
-3 4 -2 39.43 0.95
-3 4 -2 39.99 0.83
-4 4 -2 6.52 0.24
-4 4 -2 6.22 0.19
-4 4 -2 5.88 0.26
-4 4 -2 6.3 0.19
-4 4 -2 6.46 0.19
-4 4 -2 6.2 0.22
-4 4 -2 6.45 0.23
-5 4 -2 2.82 0.11
-5 4 -2 2.86 0.14
-5 4 -2 2.93 0.11
-5 4 -2 2.77 0.14
-6 4 -2 0.33 0.03
-6 4 -2 0.31 0.04
-6 4 -2 0.31 0.03
-7 -3 2 14.46 0.43
-7 -3 2 14.97 0.36
-7 -3 2 14.71 0.33
-6 -3 2 1.1 0.04
-6 -3 2 1.05 0.07
-6 -3 2 1.11 0.09
-6 -3 2 1.16 0.08
-5 -3 2 24.15 0.58
-5 -3 2 23.9 0.88
-5 -3 2 25.05 0.53
-5 -3 2 23.98 0.51
-5 -3 2 24.96 0.68
-5 -3 2 24.65 0.54
-4 -3 2 0.19 0.06
-4 -3 2 0.11 0.04
-3 -3 2 16.19 0.64
-3 -3 2 21.63 0.69
-2 -3 2 3.28 0.17
-2 -3 2 3.32 0.16
-1 -3 2 237.14 7.73
-1 -3 2 242.27 6.97
-1 -3 2 224.69 7.3
-1 -3 2 233.79 7.71
0 3 -2 2.8 0.12
0 -3 2 2.58 0.13
0 -3 2 2.73 0.12
-1 3 -2 109.92 2.99
-2 3 -2 15.18 0.46
-2 3 -2 14.85 0.47
-3 3 -2 100.89 2.22
-3 3 -2 106.49 2.85
-3 3 -2 100.55 2.68
-3 3 -2 102.63 2.41
-4 3 -2 31.56 0.69
-4 3 -2 32.1 0.78
-4 3 -2 32.28 0.97
-4 3 -2 31.35 0.78
-4 3 -2 33.02 0.83
-5 3 -2 0.13 0.04
-5 3 -2 0.14 0.04
-5 3 -2 0.18 0.03
-5 3 -2 0.12 0.05
-5 3 -2 0.18 0.05
-6 3 -2 1.27 0.09
-6 3 -2 0.96 0.06
-6 3 -2 1.26 0.08
-6 3 -2 1.36 0.08
-6 3 -2 1.15 0.06
-6 3 -2 1.17 0.07
-7 -2 2 0.17 0.04
-6 -2 2 0.55 0.06
-6 -2 2 0.53 0.03
-6 -2 2 0.54 0.05
-6 -2 2 0.49 0.07
-6 -2 2 0.48 0.05
-6 -2 2 0.61 0.06
-5 -2 2 11.74 0.32
-5 -2 2 12.15 0.32
-5 -2 2 12.03 0.26
-5 -2 2 12.07 0.3
-5 -2 2 12.25 0.29
-5 -2 2 11.96 0.31
-5 -2 2 12.51 0.38
-5 -2 2 12.08 0.32
-5 -2 2 12.29 0.5
-4 -2 2 3.12 0.18
-4 -2 2 3.02 0.18
-3 -2 2 61.59 1.99
-3 -2 2 61.72 1.91
-2 -2 2 283.41 8.16
-2 -2 2 265.99 8.54
-1 -2 2 14.74 0.49
-1 -2 2 14.52 0.47
-1 -2 2 13.92 0.49
0 2 -2 520.85 13.28
0 -2 2 539.86 15.55
0 -2 2 506.08 17.16
-1 2 -2 2.2 0.1
-2 2 -2 10.25 0.34
-2 2 -2 10.69 0.33
-3 2 -2 38.66 1.08
-3 2 -2 35.16 0.91
-3 2 -2 37.13 1.01
-4 2 -2 2.67 0.13
-4 2 -2 2.76 0.15
-4 2 -2 2.44 0.13
-4 2 -2 2.63 0.09
-4 2 -2 2.54 0.13
-4 2 -2 2.43 0.12
-5 2 -2 0.84 0.08
-5 2 -2 0.82 0.08
-5 2 -2 0.85 0.07
-5 2 -2 0.83 0.05
-5 2 -2 0.87 0.08
-5 2 -2 0.86 0.09
-6 2 -2 4.63 0.13
-6 2 -2 4.25 0.2
-6 2 -2 4.62 0.18
-6 2 -2 4.74 0.16
-6 2 -2 4.24 0.17
-6 2 -2 4.5 0.18
-7 2 -2 0.35 0.04
-7 2 -2 0.3 0.04
-7 -1 2 12.11 0.31
-6 -1 2 2.01 0.12
-6 -1 2 2.16 0.11
-6 -1 2 2.1 0.07
-6 -1 2 2.14 0.09
-6 -1 2 2.08 0.11
-6 -1 2 2.04 0.1
-5 -1 2 0.17 0.05
-5 -1 2 0.18 0.02
-5 -1 2 0.19 0.03
-5 -1 2 0.15 0.04
-5 -1 2 0.2 0.04
-5 -1 2 0.19 0.03
-5 -1 2 0.16 0.05
-5 -1 2 0.16 0.04
-5 -1 2 0.18 0.04
-5 -1 2 0.3 0.05
-4 -1 2 126.63 3.88
-4 -1 2 128.58 4.07
-4 -1 2 129.91 3.52
-3 -1 2 24.92 0.73
-3 -1 2 25.65 0.82
-3 -1 2 25.26 0.86
-2 -1 2 139.88 4.03
-2 -1 2 130.6 4.22
-2 -1 2 133.83 3.42
1 1 -2 322.94 11.04
-1 -1 2 347.83 10.05
0 -1 2 6.05 0.22
-1 1 -2 62.1 1.59
-2 1 -2 10.28 0.33
-2 1 -2 10.96 0.31
-3 1 -2 2.33 0.12
-3 1 -2 2.21 0.1
-4 1 -2 5.18 0.19
-4 1 -2 5.87 0.23
-5 1 -2 2.72 0.16
-5 1 -2 2.69 0.13
-5 1 -2 2.63 0.09
-5 1 -2 2.68 0.13
-5 1 -2 2.85 0.13
-5 1 -2 2.64 0.11
-6 1 -2 1.22 0.09
-6 1 -2 1.22 0.05
-6 1 -2 1.28 0.09
-6 1 -2 1.19 0.1
-6 1 -2 1.17 0.08
-6 1 -2 1.28 0.09
-7 1 -2 0.02 0.03
-7 1 -2 0.02 0.02
-7 1 -2 0.01 0.02
-7 0 2 3.55 0.13
-6 0 2 6.02 0.27
-6 0 2 6.38 0.21
-6 0 2 6.21 0.15
-6 0 2 6.42 0.2
-6 0 2 6.15 0.2
-5 0 2 26.78 0.94
-5 0 2 26.38 0.64
-5 0 2 26.89 0.72
-5 0 2 26.91 0.56
-5 0 2 25.82 0.62
-5 0 2 27.12 0.83
-5 0 2 26.94 0.55
-4 0 2 58.7 1.92
-4 0 2 59.06 1.67
-3 0 2 9.49 0.32
-3 0 2 9.24 0.35
-3 0 2 9.89 0.3
-3 0 2 9.98 0.37
-2 0 2 426.9 13.53
-2 0 2 461.81 11.07
-2 0 2 415.16 12.92
1 0 -2 34.69 1.14
-1 0 2 34.24 0.89
0 0 -2 42.6 1.41
0 0 2 42.3 1.4
-3 0 -2 30.04 0.89
-3 0 -2 29.68 0.86
-4 0 -2 0.07 0.03
-5 0 -2 1.22 0.05
-5 0 -2 1.31 0.06
-5 0 -2 1.22 0.07
-5 0 -2 1.19 0.1
-5 0 -2 1.22 0.07
-5 0 -2 1.39 0.09
-5 0 -2 1.2 0.07
-5 0 -2 1.25 0.08
-5 0 -2 1.26 0.09
-6 0 -2 2.99 0.14
-6 0 -2 3.05 0.12
-6 0 -2 3.05 0.14
-6 0 -2 3.15 0.12
-6 0 -2 2.86 0.09
-6 0 -2 2.78 0.16
-7 0 -2 0.71 0.06
-7 0 -2 0.95 0.07
-7 0 -2 0.85 0.06
-7 1 2 0.12 0.03
-6 1 2 0.47 0.03
-6 1 2 0.46 0.08
-6 1 2 0.44 0.06
-5 1 2 87.3 1.93
-5 1 2 88.35 2.12
-5 1 2 88.1 1.85
-5 1 2 90.54 2.51
-5 1 2 90.54 1.8
-4 1 2 30.59 0.92
-4 1 2 29.05 0.63
-4 1 2 30.45 1.03
-3 1 2 76.99 2.48
-3 1 2 78.66 2.03
-3 1 2 77.1 2.16
-2 1 2 0.82 0.06
-2 1 2 0.72 0.05
-2 1 2 0.8 0.07
-2 1 2 0.95 0.06
1 -1 -2 175.13 5.92
-1 1 2 183.75 4.55
0 -1 -2 22.13 0.73
0 1 2 20.93 0.73
0 1 2 21.81 0.58
-3 -1 -2 10.47 0.33
-3 -1 -2 10.73 0.35
-4 -1 -2 84.77 2.34
-5 -1 -2 4.13 0.15
-5 -1 -2 4.03 0.14
-5 -1 -2 3.85 0.1
-5 -1 -2 4.01 0.16
-5 -1 -2 3.91 0.12
-5 -1 -2 4.08 0.16
-5 -1 -2 4.12 0.14
-5 -1 -2 4.34 0.19
-5 -1 -2 3.98 0.14
-6 -1 -2 30.17 0.68
-6 -1 -2 30.99 0.76
-6 -1 -2 30.93 0.7
-6 -1 -2 31.6 0.63
-6 -1 -2 31.5 0.74
-6 -1 -2 29.86 0.93
-6 -1 -2 30.93 0.69
-7 -1 -2 18.83 0.43
-7 -1 -2 18.76 0.48
-7 -1 -2 19.04 0.44
-8 -1 -2 1.19 0.06
-6 2 2 1.01 0.05
-6 2 2 0.89 0.08
-5 2 2 21.16 0.47
-5 2 2 21.15 0.69
-5 2 2 21.03 0.59
-5 2 2 21.19 0.53
-4 2 2 0.03 0.04
-4 2 2 0.03 0.02
-4 2 2 0.08 0.04
-4 2 2 0.1 0.04
-3 2 2 43.2 1.25
-3 2 2 42.63 1.17
-2 2 2 77.73 2.01
-2 2 2 76.77 2.13
-2 2 2 76.32 2.44
1 -2 -2 227.31 6.48
1 -2 -2 226.99 7.46
-1 2 2 218.3 6.12
-1 2 2 236.28 5.77
0 -2 -2 54.97 1.6
0 -2 -2 55.67 1.84
0 2 2 53.73 1.84
0 2 2 56.95 1.43
-1 -2 -2 55.47 1.62
-1 -2 -2 57.2 1.84
1 2 2 53.97 1.43
-2 -2 -2 59.2 1.7
2 2 2 56.92 1.48
-3 -2 -2 1.31 0.07
-3 -2 -2 1.51 0.09
-4 -2 -2 944.68 26.12
-4 -2 -2 1000 27.68
-5 -2 -2 1.47 0.08
-5 -2 -2 1.3 0.09
-5 -2 -2 1.23 0.07
-5 -2 -2 1.34 0.07
-5 -2 -2 1.23 0.07
-5 -2 -2 1.49 0.09
-5 -2 -2 1.08 0.07
-6 -2 -2 39 0.85
-6 -2 -2 38.67 0.84
-6 -2 -2 39.5 0.78
-6 -2 -2 39.15 0.93
-6 -2 -2 38.89 1
-6 -2 -2 39.35 0.91
-6 -2 -2 40.09 0.88
-7 -2 -2 0.59 0.06
-7 -2 -2 0.65 0.05
-7 -2 -2 0.7 0.06
-6 3 2 2 0.09
-6 3 2 2.05 0.08
-6 3 2 2 0.11
-5 3 2 3.28 0.11
-5 3 2 3.28 0.18
-5 3 2 3.42 0.12
-5 3 2 3.4 0.16
-4 3 2 0.18 0.03
-4 3 2 0.16 0.05
-4 3 2 0.12 0.03
-3 3 2 74.1 1.45
-3 3 2 74.34 1.99
-3 3 2 78.39 2.12
-3 3 2 74.9 1.5
-3 3 2 71.09 1.52
-2 3 2 0.14 0.04
-2 3 2 0.12 0.04
-1 3 2 265.89 7.29
-1 3 2 274.33 6.86
0 -3 -2 38.58 1.29
0 -3 -2 37.55 1.12
0 3 2 37.89 1.01
-1 -3 -2 12.29 0.42
-1 -3 -2 11.74 0.4
1 3 2 11.94 0.34
-2 -3 -2 274.44 7.34
-2 -3 -2 240.3 7.99
-3 -3 -2 65.7 1.94
-4 -3 -2 281 8.03
-5 -3 -2 7.98 0.23
-5 -3 -2 7.97 0.26
-5 -3 -2 7.92 0.21
-5 -3 -2 8 0.24
-5 -3 -2 7.88 0.18
-5 -3 -2 7.97 0.21
-5 -3 -2 7.92 0.24
-6 -3 -2 126.1 2.75
-6 -3 -2 124.93 2.52
-6 -3 -2 122.54 2.5
-6 -3 -2 124.73 3
-6 -3 -2 126.15 2.61
-6 -3 -2 123.96 2.34
-7 -3 -2 41.09 0.82
-7 -3 -2 41.67 0.97
-7 -3 -2 42.47 0.93
-7 -3 -2 42.51 0.89
-5 4 2 5.66 0.16
-5 4 2 5.43 0.21
-5 4 2 5.47 0.16
-4 4 2 0.34 0.04
-4 4 2 0.37 0.05
-4 4 2 0.51 0.08
-4 4 2 0.33 0.04
-3 4 2 15.49 0.37
-3 4 2 15.89 0.37
-3 4 2 15.99 0.54
-3 4 2 15.47 0.52
-3 4 2 15.62 0.37
-2 4 2 10.9 0.27
-2 4 2 11.23 0.38
-2 4 2 10.89 0.27
-2 4 2 11.6 0.4
-2 4 2 10.98 0.28
-1 4 2 6.14 0.24
-1 4 2 6.08 0.24
0 -4 -2 37.19 1.27
0 4 2 37.02 1.01
-1 -4 -2 3.29 0.14
-1 -4 -2 3.19 0.16
1 4 2 3.33 0.14
-2 -4 -2 0.39 0.06
-2 -4 -2 0.19 0.05
-3 -4 -2 8.27 0.32
-4 -4 -2 25.17 0.8
-4 -4 -2 23.46 0.51
-4 -4 -2 24.36 0.64
-5 -4 -2 28.86 0.6
-5 -4 -2 28.79 0.69
-5 -4 -2 28.73 0.65
-5 -4 -2 28.34 0.61
-5 -4 -2 29.27 0.68
-5 -4 -2 29.68 0.76
-6 -4 -2 19.46 0.49
-6 -4 -2 19.06 0.48
-6 -4 -2 19.3 0.4
-6 -4 -2 18.91 0.43
-6 -4 -2 19.67 0.46
-7 -4 -2 0.12 0.03
-7 -4 -2 0.14 0.03
-5 5 2 0.06 0.02
-5 5 2 0.14 0.03
-4 5 2 2.92 0.14
-4 5 2 2.88 0.1
-4 5 2 2.78 0.11
-4 5 2 2.76 0.11
-3 5 2 0.06 0.03
-3 5 2 0.01 0.03
-3 5 2 0.13 0.05
-3 5 2 0.07 0.03
-2 5 2 29.16 0.65
-2 5 2 29.86 0.64
-2 5 2 29.39 0.88
-2 5 2 29.71 0.66
1 -5 -2 26.04 0.55
-1 5 2 25.75 0.58
-1 5 2 25.7 0.76
-1 5 2 25.71 0.56
-1 5 2 25.45 0.57
0 -5 -2 3.47 0.12
0 -5 -2 3.31 0.17
0 5 2 3.43 0.16
0 5 2 3.61 0.12
-1 -5 -2 29.46 1
-2 -5 -2 10.94 0.44
-4 -5 -2 2.94 0.13
-4 -5 -2 2.69 0.09
-5 -5 -2 0.06 0.02
-5 -5 -2 0.01 0.03
-5 -5 -2 0 0.03
-6 -5 -2 1.49 0.08
-6 -5 -2 1.61 0.09
-6 -5 -2 1.6 0.08
-6 -5 -2 1.6 0.06
-7 -5 -2 2.05 0.09
-7 -5 -2 2.21 0.09
-7 -5 -2 2.15 0.1
-4 6 2 1.06 0.06
-4 6 2 1.01 0.05
-3 6 2 1.38 0.07
-3 6 2 1.4 0.07
-3 6 2 1.43 0.08
-3 6 2 1.38 0.1
-2 6 2 78.84 1.56
-2 6 2 79.91 1.62
-2 6 2 77.61 1.64
1 -6 -2 15.51 0.37
1 -6 -2 15.09 0.4
-1 6 2 15.39 0.4
-1 6 2 15.86 0.38
-1 6 2 15.13 0.36
0 -6 -2 188.59 3.84
0 -6 -2 189.99 3.69
0 6 2 190.15 5
0 6 2 192.74 3.69
0 6 2 207.59 3.84
-1 -6 -2 14.82 0.37
-1 -6 -2 14.11 0.35
-1 -6 -2 15.1 0.35
-1 -6 -2 14.99 0.37
-2 -6 -2 13.11 0.32
-2 -6 -2 13.42 0.32
-2 -6 -2 13.69 0.54
-2 -6 -2 12.89 0.33
-2 -6 -2 13.34 0.35
-3 -6 -2 2.67 0.1
-3 -6 -2 2.93 0.11
-3 -6 -2 3 0.13
-3 -6 -2 2.84 0.11
-3 -6 -2 2.54 0.11
-4 -6 -2 0.65 0.05
-4 -6 -2 0.7 0.07
-5 -6 -2 5.79 0.17
-5 -6 -2 5.83 0.2
-6 -6 -2 0.61 0.07
-6 -6 -2 0.59 0.04
-6 -6 -2 0.57 0.06
-7 -6 -2 0.03 0.02
-7 -6 -2 0.01 0.02
-3 7 2 6.42 0.16
-2 7 2 0.09 0.03
-2 7 2 0.04 0.03
1 -7 -2 5.4 0.2
-1 7 2 5.65 0.19
-1 7 2 5.63 0.18
0 -7 -2 154.47 3.07
0 -7 -2 152.86 2.94
0 7 2 151.18 2.93
0 7 2 153.72 3.07
-1 -7 -2 45.73 1.02
-1 -7 -2 47.48 0.96
-1 -7 -2 45.94 1.58
-1 -7 -2 46.03 1
-1 -7 -2 46.42 0.98
-2 -7 -2 40.62 0.91
-2 -7 -2 40.29 0.87
-2 -7 -2 40.52 0.84
-2 -7 -2 40.44 0.87
-2 -7 -2 38.71 1.39
-3 -7 -2 2.78 0.13
-3 -7 -2 2.74 0.11
-3 -7 -2 2.53 0.11
-3 -7 -2 2.5 0.11
-4 -7 -2 10.57 0.3
-4 -7 -2 10.35 0.27
-4 -7 -2 10.75 0.27
-4 -7 -2 10.12 0.27
-5 -7 -2 2.7 0.1
-5 -7 -2 2.79 0.1
-5 -7 -2 3 0.13
-6 -7 -2 1.37 0.07
-6 -7 -2 1.42 0.08
-6 -7 -2 1.4 0.06
-7 -7 -2 0.06 0.02
-2 8 2 4.88 0.14
-2 8 2 4.73 0.14
1 -8 -2 0.62 0.06
-1 8 2 0.53 0.05
-1 8 2 0.54 0.05
-1 8 2 0.62 0.06
0 -8 -2 0.48 0.05
0 -8 -2 0.44 0.05
0 -8 -2 0.39 0.06
0 8 2 0.52 0.06
0 8 2 0.49 0.06
0 8 2 0.51 0.05
-1 -8 -2 18.4 0.43
-1 -8 -2 18.29 0.45
-1 -8 -2 18.39 0.45
-2 -8 -2 7.68 0.2
-2 -8 -2 7.9 0.24
-2 -8 -2 7.31 0.22
-2 -8 -2 7.65 0.22
-3 -8 -2 23.66 0.53
-3 -8 -2 23.64 0.53
-3 -8 -2 23.7 0.58
-3 -8 -2 24.58 0.54
-4 -8 -2 49.08 1.03
-4 -8 -2 52.69 1.13
-4 -8 -2 52.51 1.09
-5 -8 -2 33.4 0.72
-5 -8 -2 34.06 0.76
-5 -8 -2 33.51 0.72
-6 -8 -2 8.43 0.2
-6 -8 -2 8.71 0.23
-6 -8 -2 8.84 0.2
0 -9 -2 0.12 0.03
0 9 2 0.11 0.03
-1 -9 -2 7.7 0.21
-1 -9 -2 7.62 0.2
-1 -9 -2 7.63 0.21
1 9 2 7.64 0.22
-2 -9 -2 16.97 0.38
-2 -9 -2 16.79 0.41
-2 -9 -2 17.07 0.38
-3 -9 -2 0.61 0.05
-3 -9 -2 0.6 0.04
-3 -9 -2 0.67 0.05
-4 -9 -2 0.01 0.02
-4 -9 -2 0.01 0.02
-4 -9 -2 0.02 0.02
-3 -9 3 1.4 0.07
-3 -9 3 1.23 0.05
-2 -9 3 0.77 0.06
-2 -9 3 0.83 0.05
-2 -9 3 0.8 0.05
-1 -9 3 3.46 0.12
-1 -9 3 3.52 0.12
0 -9 3 6.93 0.19
-5 -8 3 0.61 0.05
-5 -8 3 0.64 0.05
-5 -8 3 0.69 0.04
-5 -8 3 0.68 0.05
-4 -8 3 2.44 0.11
-4 -8 3 2.42 0.09
-4 -8 3 2.27 0.1
-3 -8 3 2.38 0.1
-3 -8 3 2.36 0.09
-3 -8 3 2.42 0.12
-3 -8 3 2.27 0.09
-2 -8 3 11.56 0.29
-2 -8 3 11.37 0.3
-2 -8 3 11.86 0.3
-2 -8 3 12.44 0.33
-1 -8 3 12.94 0.34
-1 -8 3 12.89 0.34
-1 -8 3 12.71 0.32
0 8 -3 7 0.22
0 -8 3 6.67 0.21
0 -8 3 6.8 0.21
0 -8 3 6.66 0.19
-1 8 -3 0 0.03
-1 8 -3 0.01 0.03
-1 8 -3 0.02 0.03
1 -8 3 0 0.03
1 -8 3 0.02 0.02
-2 8 -3 0.95 0.06
-2 8 -3 0.91 0.06
-2 8 -3 0.85 0.06
2 -8 3 0.93 0.05
-6 -7 3 0.78 0.05
-6 -7 3 0.77 0.04
-6 -7 3 0.82 0.05
-5 -7 3 4.16 0.14
-5 -7 3 4.19 0.13
-5 -7 3 4.17 0.16
-4 -7 3 0.4 0.04
-4 -7 3 0.38 0.06
-4 -7 3 0.35 0.05
-4 -7 3 0.39 0.09
-4 -7 3 0.53 0.06
-3 -7 3 0.22 0.04
-3 -7 3 0.19 0.03
-3 -7 3 0.32 0.05
-3 -7 3 0.22 0.05
-2 -7 3 57.08 1.21
-2 -7 3 59.23 1.17
-2 -7 3 59.29 1.27
-2 -7 3 56.11 1.95
-2 -7 3 57.43 1.22
-1 -7 3 6.07 0.17
-1 -7 3 6.14 0.19
-1 -7 3 5.84 0.32
-1 -7 3 6.45 0.2
-1 -7 3 6.12 0.21
0 7 -3 0.59 0.07
0 7 -3 0.42 0.06
0 -7 3 0.56 0.06
0 -7 3 0.48 0.1
0 -7 3 0.49 0.07
-1 7 -3 3.24 0.13
-1 7 -3 3.14 0.14
1 -7 3 3.01 0.21
1 -7 3 3.15 0.14
-2 7 -3 10.12 0.27
-2 7 -3 10.57 0.3
-2 7 -3 9.93 0.28
-3 7 -3 2.27 0.08
-3 7 -3 2.24 0.09
-3 7 -3 2.26 0.1
-7 -6 3 1.82 0.07
-6 -6 3 1.04 0.07
-6 -6 3 1.11 0.08
-6 -6 3 1.05 0.06
-6 -6 3 1.08 0.05
-5 -6 3 24.27 0.54
-5 -6 3 23.33 0.9
-5 -6 3 24.79 0.59
-4 -6 3 0.99 0.06
-4 -6 3 1 0.08
-4 -6 3 1.06 0.13
-4 -6 3 1.13 0.07
-3 -6 3 10.63 0.47
-3 -6 3 10.29 0.3
-3 -6 3 10.27 0.27
-3 -6 3 10.71 0.27
-3 -6 3 10.64 0.27
-3 -6 3 10.32 0.28
-2 -6 3 0.09 0.03
-2 -6 3 0.05 0.03
-2 -6 3 0.01 0.03
-2 -6 3 0.02 0.02
-2 -6 3 0.07 0.05
-1 -6 3 0.31 0.05
-1 -6 3 0.29 0.07
-1 -6 3 0.29 0.04
-1 -6 3 0.25 0.04
0 6 -3 0.94 0.08
0 6 -3 0.91 0.07
0 -6 3 0.92 0.08
0 -6 3 1.01 0.07
0 -6 3 1.13 0.12
-1 6 -3 4.82 0.18
-1 6 -3 4.59 0.14
-1 6 -3 4.86 0.17
-1 6 -3 4.72 0.18
1 -6 3 4.68 0.18
1 -6 3 4.8 0.16
-2 6 -3 5.41 0.16
-2 6 -3 5.71 0.19
-2 6 -3 5.65 0.21
-2 6 -3 5.74 0.21
-2 6 -3 5.69 0.19
-3 6 -3 8.7 0.23
-3 6 -3 9.09 0.28
-3 6 -3 8.85 0.24
-3 6 -3 8.56 0.24
-4 6 -3 1.56 0.08
-4 6 -3 1.62 0.07
-4 6 -3 1.79 0.09
-7 -5 3 7.15 0.2
-7 -5 3 7.39 0.18
-6 -5 3 6.17 0.23
-6 -5 3 6.28 0.16
-6 -5 3 6.42 0.2
-6 -5 3 6.25 0.18
-5 -5 3 44.8 0.9
-5 -5 3 43.96 1.15
-5 -5 3 43.99 1
-5 -5 3 45.69 0.93
-5 -5 3 43.49 1.54
-4 -5 3 1.32 0.13
-4 -5 3 1.28 0.09
-4 -5 3 1.25 0.07
-4 -5 3 1.36 0.1
-3 -5 3 2.65 0.17
-3 -5 3 2.59 0.09
-3 -5 3 2.41 0.1
-3 -5 3 2.72 0.19
-3 -5 3 2.61 0.1
-3 -5 3 2.44 0.1
-3 -5 3 2.65 0.12
-2 -5 3 3.45 0.12
-2 -5 3 3.3 0.12
-2 -5 3 3.64 0.21
-2 -5 3 3.46 0.19
-1 -5 3 5.66 0.28
-1 -5 3 5.56 0.17
-1 -5 3 5.51 0.21
0 5 -3 1.2 0.07
0 -5 3 1.14 0.11
0 -5 3 1.17 0.07
-1 5 -3 20.08 0.45
-1 5 -3 20.36 0.48
-1 5 -3 20.03 0.45
1 -5 3 19.29 0.44
-2 5 -3 0.18 0.04
-2 5 -3 0.18 0.04
-2 5 -3 0.19 0.03
-2 5 -3 0.17 0.04
-2 5 -3 0.11 0.04
-3 5 -3 0.87 0.08
-3 5 -3 0.75 0.06
-3 5 -3 0.75 0.08
-3 5 -3 0.75 0.07
-3 5 -3 0.89 0.08
-3 5 -3 0.84 0.06
-4 5 -3 61.93 1.49
-4 5 -3 61.49 1.29
-4 5 -3 62.56 1.39
-4 5 -3 61.81 1.23
-4 5 -3 59.59 1.41
-5 5 -3 0.16 0.04
-5 5 -3 0.19 0.03
-5 5 -3 0.18 0.04
-5 5 -3 0.21 0.03
-7 -4 3 0.3 0.05
-7 -4 3 0.24 0.03
-7 -4 3 0.36 0.04
-6 -4 3 42.35 0.92
-6 -4 3 41.44 0.83
-6 -4 3 38.68 1.41
-6 -4 3 41.03 1.08
-6 -4 3 42.27 0.85
-5 -4 3 0.35 0.08
-5 -4 3 0.34 0.05
-5 -4 3 0.35 0.03
-5 -4 3 0.38 0.06
-5 -4 3 0.43 0.07
-4 -4 3 0.28 0.07
-4 -4 3 0.36 0.08
-4 -4 3 0.32 0.03
-4 -4 3 0.31 0.06
-4 -4 3 0.35 0.05
-3 -4 3 0.55 0.09
-3 -4 3 0.46 0.08
-2 -4 3 28.09 0.93
-2 -4 3 27.77 0.97
-1 -4 3 8.94 0.33
-1 -4 3 8.88 0.36
-1 -4 3 9.07 0.34
0 -4 3 15.17 0.56
-2 4 -3 83.29 1.9
-2 4 -3 86.29 1.73
-2 4 -3 87.3 1.77
-2 4 -3 86.86 2.02
-2 4 -3 83.42 1.66
-2 4 -3 85.27 2.25
-3 4 -3 84.06 1.71
-3 4 -3 80.81 1.61
-3 4 -3 81.59 1.86
-3 4 -3 82.93 1.82
-3 4 -3 81.34 1.66
-3 4 -3 80.97 2.3
-3 4 -3 83.51 1.96
-4 4 -3 1.42 0.1
-4 4 -3 1.55 0.1
-4 4 -3 1.65 0.11
-4 4 -3 1.57 0.08
-4 4 -3 1.5 0.08
-4 4 -3 1.52 0.09
-4 4 -3 1.55 0.11
-5 4 -3 0.2 0.04
-5 4 -3 0.23 0.05
-5 4 -3 0.28 0.04
-5 4 -3 0.18 0.04
-5 4 -3 0.22 0.03
-6 4 -3 5.69 0.15
-6 4 -3 5.88 0.15
-6 4 -3 5.39 0.17
-7 -3 3 10.38 0.24
-7 -3 3 10.59 0.33
-6 -3 3 14.65 0.37
-6 -3 3 13.99 0.58
-6 -3 3 14.54 0.33
-6 -3 3 14.29 0.31
-6 -3 3 14.12 0.44
-5 -3 3 0.02 0.03
-5 -3 3 0.14 0.06
-5 -3 3 -0.01 0.03
-5 -3 3 0.06 0.04
-5 -3 3 0.05 0.02
-4 -3 3 45.31 1.2
-4 -3 3 47.01 0.97
-4 -3 3 49.93 1.6
-4 -3 3 47.88 1.53
-4 -3 3 45.51 0.96
-3 -3 3 13.74 0.51
-3 -3 3 13.98 0.54
-2 -3 3 5.83 0.26
-2 -3 3 6.16 0.26
-1 -3 3 6.61 0.28
-1 -3 3 7.41 0.26
-1 -3 3 6.8 0.27
-1 -3 3 7.2 0.26
0 -3 3 149.34 4.45
-1 3 -3 332.07 9.22
-1 3 -3 354.38 8.69
-2 3 -3 6.04 0.22
-3 3 -3 0.02 0.03
-3 3 -3 0.04 0.03
-3 3 -3 0.02 0.03
-3 3 -3 -0.01 0.02
-3 3 -3 0.02 0.02
-3 3 -3 0.01 0.02
-4 3 -3 53.47 1.53
-4 3 -3 51.52 1.12
-4 3 -3 52.93 1.22
-4 3 -3 52.58 1.11
-4 3 -3 53.28 1.24
-4 3 -3 53.63 1.3
-5 3 -3 2.02 0.12
-5 3 -3 2.15 0.12
-5 3 -3 1.94 0.13
-5 3 -3 2.09 0.12
-5 3 -3 1.99 0.09
-5 3 -3 2.01 0.09
-6 3 -3 1.81 0.1
-6 3 -3 1.86 0.08
-6 3 -3 1.89 0.1
-6 3 -3 1.9 0.08
-6 3 -3 1.96 0.1
-7 -2 3 6.1 0.22
-6 -2 3 6.13 0.24
-6 -2 3 5.92 0.17
-6 -2 3 5.98 0.15
-6 -2 3 5.77 0.3
-6 -2 3 6 0.19
-6 -2 3 5.99 0.19
-5 -2 3 0.05 0.02
-5 -2 3 0.06 0.03
-5 -2 3 0.07 0.03
-5 -2 3 0.07 0.04
-5 -2 3 0.02 0.04
-5 -2 3 0.03 0.03
-4 -2 3 0.04 0.04
-4 -2 3 0.01 0.03
-3 -2 3 8.69 0.35
-3 -2 3 9.13 0.37
-2 -2 3 149.16 4.81
-2 -2 3 157.62 4.59
1 2 -3 22.98 0.8
-1 -2 3 21.7 0.78
-1 -2 3 23.85 0.75
-1 -2 3 24.34 0.79
-1 -2 3 24.12 0.79
0 -2 3 70.16 2.07
0 -2 3 67.64 2.29
-2 2 -3 10.71 0.33
-2 2 -3 10.76 0.34
-3 2 -3 105.65 2.52
-3 2 -3 110.79 2.98
-4 2 -3 10.07 0.31
-4 2 -3 10.91 0.38
-4 2 -3 10.32 0.25
-4 2 -3 10.35 0.26
-4 2 -3 10.09 0.31
-4 2 -3 10.28 0.32
-5 2 -3 28.63 0.72
-5 2 -3 28.28 0.71
-5 2 -3 28.47 0.61
-5 2 -3 27.39 0.63
-5 2 -3 28.6 0.75
-5 2 -3 28.43 0.87
-6 2 -3 0.07 0.02
-6 2 -3 0.07 0.03
-6 2 -3 0.1 0.04
-6 2 -3 0.05 0.04
-6 2 -3 0.06 0.04
-6 2 -3 0.05 0.04
-7 2 -3 0.05 0.02
-7 -1 3 8.12 0.22
-6 -1 3 5.72 0.29
-6 -1 3 5.93 0.15
-6 -1 3 5.9 0.2
-6 -1 3 5.74 0.19
-6 -1 3 6.07 0.23
-5 -1 3 0.51 0.03
-5 -1 3 0.41 0.05
-5 -1 3 0.48 0.05
-5 -1 3 0.44 0.05
-5 -1 3 0.43 0.06
-5 -1 3 0.53 0.07
-5 -1 3 0.49 0.09
-4 -1 3 53.51 1.74
-4 -1 3 52.09 1.66
-4 -1 3 52.02 1.5
-3 -1 3 1.35 0.1
-3 -1 3 1.18 0.08
-3 -1 3 1.33 0.1
-2 -1 3 8.89 0.35
-2 -1 3 9.27 0.27
-2 -1 3 9.72 0.34
1 1 -3 575.66 19.25
-1 -1 3 595.54 19.29
-1 -1 3 584.12 17.42
0 -1 3 175.15 5.75
-2 1 -3 242.4 6.53
-3 1 -3 26.41 0.78
-4 1 -3 5.95 0.24
-4 1 -3 5.74 0.2
-5 1 -3 47.28 0.98
-5 1 -3 47.01 1.09
-5 1 -3 45.59 1
-5 1 -3 47.01 1.37
-5 1 -3 46.94 0.98
-5 1 -3 48.47 1.12
-5 1 -3 47.95 1.17
-6 1 -3 1.32 0.11
-6 1 -3 1.44 0.06
-6 1 -3 1.27 0.09
-6 1 -3 1.47 0.1
-6 1 -3 1.48 0.1
-6 1 -3 1.44 0.08
-7 1 -3 8.57 0.22
-7 1 -3 8.42 0.25
-7 1 -3 8.61 0.25
-7 0 3 0.81 0.06
-6 0 3 5.76 0.26
-6 0 3 6.2 0.2
-6 0 3 6.12 0.2
-6 0 3 6.23 0.16
-5 0 3 6.09 0.3
-5 0 3 6.6 0.28
-5 0 3 6.21 0.21
-5 0 3 6.22 0.16
-5 0 3 6.24 0.2
-5 0 3 6.12 0.23
-4 0 3 11.79 0.47
-4 0 3 11.56 0.41
-3 0 3 32.65 1.07
-3 0 3 33.87 0.91
-3 0 3 34.31 1.13
-3 0 3 33.88 0.98
-2 0 3 14.41 0.51
-2 0 3 14.71 0.41
-2 0 3 13.89 0.44
-2 0 3 14.9 0.49
1 0 -3 82.61 2.8
-1 0 3 87.34 2.81
0 0 -3 28.1 0.96
0 0 3 27.74 0.96
-2 0 -3 3.56 0.13
-3 0 -3 17.13 0.52
-4 0 -3 1.43 0.08
-4 0 -3 1.55 0.1
-5 0 -3 2.4 0.12
-5 0 -3 2.38 0.12
-5 0 -3 2.42 0.14
-5 0 -3 2.47 0.12
-5 0 -3 2.31 0.1
-5 0 -3 2.44 0.08
-5 0 -3 2.29 0.1
-6 0 -3 0.49 0.07
-6 0 -3 0.49 0.06
-6 0 -3 0.43 0.06
-6 0 -3 0.48 0.06
-6 0 -3 0.48 0.03
-6 0 -3 0.41 0.05
-6 0 -3 0.43 0.07
-7 0 -3 1.55 0.08
-7 0 -3 1.51 0.09
-7 0 -3 1.66 0.09
-7 1 3 -0.02 0.02
-6 1 3 2.41 0.12
-6 1 3 2.56 0.08
-6 1 3 2.45 0.15
-5 1 3 6.23 0.28
-5 1 3 6.46 0.17
-5 1 3 6.22 0.21
-4 1 3 0.03 0.02
-4 1 3 0 0.03
-4 1 3 0.06 0.04
-4 1 3 0.01 0.03
-3 1 3 10.84 0.35
-3 1 3 9.18 0.38
-3 1 3 8.93 0.31
-2 1 3 111.77 3.48
-2 1 3 111.22 2.84
-2 1 3 107.67 3.02
1 -1 -3 151.69 4.92
-1 1 3 141.36 4.66
-1 1 3 155.47 3.81
0 -1 -3 230.74 7.34
0 1 3 209.62 7.29
0 1 3 223.83 5.6
-1 -1 -3 8.64 0.3
-3 -1 -3 1.48 0.08
-4 -1 -3 10.39 0.34
-5 -1 -3 9.76 0.26
-5 -1 -3 9.74 0.23
-5 -1 -3 9.74 0.22
-5 -1 -3 9.88 0.26
-5 -1 -3 9.88 0.26
-5 -1 -3 9.51 0.29
-5 -1 -3 9.99 0.35
-5 -1 -3 9.95 0.28
-6 -1 -3 4.5 0.11
-6 -1 -3 4.46 0.21
-6 -1 -3 4.79 0.18
-6 -1 -3 4.75 0.16
-6 -1 -3 4.78 0.16
-6 -1 -3 4.75 0.16
-6 -1 -3 4.68 0.18
-7 -1 -3 8.18 0.22
-7 -1 -3 8.41 0.22
-7 -1 -3 8.55 0.26
-7 -1 -3 8.26 0.25
-8 -1 -3 0.36 0.04
-6 2 3 0.65 0.07
-6 2 3 0.72 0.04
-5 2 3 -0.01 0.04
-5 2 3 0.03 0.02
-5 2 3 0.02 0.03
-4 2 3 7.05 0.29
-4 2 3 6.35 0.22
-4 2 3 6.63 0.18
-3 2 3 85.24 2.38
-3 2 3 85.21 2.24
-3 2 3 84.31 2.72
-2 2 3 5.5 0.22
-2 2 3 5.45 0.21
-2 2 3 5.66 0.24
-1 2 3 30.02 0.87
-1 2 3 30.19 1
-1 2 3 31.53 0.83
0 -2 -3 5.49 0.21
0 2 3 4.8 0.21
0 2 3 5.52 0.18
-1 -2 -3 17.82 0.6
1 2 3 17.45 0.48
2 2 3 1.06 0.05
-3 -2 -3 25.54 0.75
-3 -2 -3 26.92 0.82
-4 -2 -3 3.71 0.15
-4 -2 -3 3.89 0.18
-5 -2 -3 0.51 0.06
-5 -2 -3 0.57 0.03
-5 -2 -3 0.55 0.05
-5 -2 -3 0.53 0.06
-5 -2 -3 0.59 0.06
-5 -2 -3 0.58 0.05
-5 -2 -3 0.48 0.06
-5 -2 -3 0.53 0.06
-6 -2 -3 10.7 0.26
-6 -2 -3 10.68 0.29
-6 -2 -3 10.63 0.29
-6 -2 -3 10.7 0.31
-6 -2 -3 10.33 0.3
-6 -2 -3 10.5 0.28
-7 -2 -3 2.76 0.11
-7 -2 -3 2.86 0.12
-7 -2 -3 2.85 0.11
-8 -2 -3 0.24 0.03
-6 3 3 9.73 0.26
-6 3 3 10.1 0.24
-6 3 3 9.97 0.23
-5 3 3 14.52 0.53
-5 3 3 16.01 0.36
-5 3 3 15.63 0.36
-5 3 3 15.12 0.45
-4 3 3 0.03 0.04
-4 3 3 0.06 0.04
-4 3 3 0.08 0.03
-4 3 3 0.03 0.02
-3 3 3 101.31 2.04
-3 3 3 100.65 2.1
-3 3 3 102.84 1.97
-3 3 3 108.83 2.87
-3 3 3 99.28 2.07
-3 3 3 101.18 2.69
-2 3 3 0.03 0.03
-2 3 3 0.07 0.03
-1 3 3 1.18 0.08
-1 3 3 1 0.08
0 -3 -3 1.24 0.08
0 -3 -3 1.33 0.08
0 3 3 1.34 0.08
0 3 3 1.24 0.07
-1 -3 -3 143.42 4.67
-1 -3 -3 140.66 4.08
1 3 3 142.29 3.62
-2 -3 -3 408.25 11.6
-3 -3 -3 4.78 0.21
-4 -3 -3 7.01 0.29
-5 -3 -3 7.7 0.21
-5 -3 -3 7.74 0.18
-5 -3 -3 7.53 0.2
-5 -3 -3 7.69 0.25
-5 -3 -3 7.39 0.23
-5 -3 -3 7.6 0.23
-5 -3 -3 7.31 0.22
-6 -3 -3 206.94 4.34
-6 -3 -3 198.07 3.68
-6 -3 -3 203.27 4.11
-6 -3 -3 195.21 3.95
-6 -3 -3 194.87 3.97
-6 -3 -3 197.84 3.96
-7 -3 -3 6.13 0.19
-7 -3 -3 6.29 0.17
-7 -3 -3 6.38 0.2
-7 -3 -3 6.27 0.19
-5 4 3 6.87 0.18
-5 4 3 6.51 0.18
-5 4 3 6.55 0.23
-4 4 3 1.11 0.06
-4 4 3 1.08 0.07
-4 4 3 1.14 0.07
-4 4 3 1.05 0.08
-4 4 3 1.11 0.11
-3 4 3 10.3 0.4
-3 4 3 10.44 0.27
-3 4 3 11.1 0.28
-3 4 3 10.8 0.28
-2 4 3 17.4 0.56
-2 4 3 17.53 0.58
-2 4 3 17.62 0.4
-2 4 3 17.07 0.41
-2 4 3 17.43 0.4
-1 4 3 22.08 0.68
-1 4 3 22.22 0.66
0 -4 -3 2.77 0.15
0 4 3 3.04 0.14
-1 -4 -3 21.15 0.68
-1 -4 -3 21.68 0.73
1 4 3 20.94 0.6
-2 -4 -3 0.46 0.06
-3 -4 -3 47.44 1.45
-4 -4 -3 0.05 0.04
-4 -4 -3 0.04 0.02
-4 -4 -3 0.03 0.02
-5 -4 -3 0.51 0.06
-5 -4 -3 0.54 0.04
-5 -4 -3 0.47 0.06
-5 -4 -3 0.53 0.05
-5 -4 -3 0.43 0.05
-6 -4 -3 127.89 2.39
-6 -4 -3 128.62 2.54
-6 -4 -3 131.63 2.8
-6 -4 -3 116.71 2.66
-6 -4 -3 134.05 2.58
-7 -4 -3 7.18 0.21
-7 -4 -3 7.17 0.21
-7 -4 -3 7.29 0.19
-4 5 3 9.73 0.31
-4 5 3 9.74 0.25
-4 5 3 9.67 0.24
-3 5 3 1.5 0.09
-3 5 3 1.37 0.12
-3 5 3 1.52 0.08
-3 5 3 1.58 0.08
-2 5 3 0.71 0.06
-2 5 3 0.66 0.09
-2 5 3 0.81 0.07
-2 5 3 0.62 0.05
1 -5 -3 9.99 0.26
-1 5 3 9.96 0.37
-1 5 3 10.52 0.25
-1 5 3 10.22 0.28
-1 5 3 10.21 0.27
0 -5 -3 14.03 0.34
0 5 3 14.39 0.46
0 5 3 14.19 0.34
-1 -5 -3 0.42 0.05
-2 -5 -3 5.57 0.25
-2 -5 -3 5.94 0.27
-3 -5 -3 27.05 0.88
-3 -5 -3 26.84 0.58
-3 -5 -3 27.07 0.57
-3 -5 -3 26.66 0.59
-4 -5 -3 14.72 0.38
-4 -5 -3 15.01 0.35
-5 -5 -3 2.71 0.1
-5 -5 -3 2.72 0.12
-5 -5 -3 2.91 0.13
-6 -5 -3 0.1 0.03
-6 -5 -3 0.09 0.03
-6 -5 -3 0.14 0.04
-6 -5 -3 0.14 0.02
-7 -5 -3 7.35 0.18
-7 -5 -3 7.13 0.2
-7 -5 -3 7 0.21
-4 6 3 0.87 0.05
-3 6 3 0.69 0.07
-3 6 3 0.59 0.06
-3 6 3 0.66 0.05
-3 6 3 0.73 0.05
-3 6 3 0.6 0.06
-2 6 3 1.48 0.08
-2 6 3 1.39 0.07
-2 6 3 1.41 0.09
1 -6 -3 7.58 0.22
1 -6 -3 7.4 0.24
-1 6 3 7.52 0.2
-1 6 3 7.74 0.22
-1 6 3 7.85 0.24
0 -6 -3 15.13 0.4
0 -6 -3 15.71 0.37
0 6 3 15.93 0.37
0 6 3 15.1 0.51
0 6 3 15.18 0.4
-1 -6 -3 4.63 0.17
-1 -6 -3 4.8 0.14
-1 -6 -3 4.76 0.16
-2 -6 -3 57.34 1.15
-2 -6 -3 57.54 1.19
-2 -6 -3 56.97 1.24
-2 -6 -3 56.53 1.9
-2 -6 -3 58.03 1.21
-3 -6 -3 14.16 0.34
-3 -6 -3 13.97 0.37
-3 -6 -3 14.05 0.34
-3 -6 -3 14.27 0.34
-3 -6 -3 13.86 0.34
-4 -6 -3 3.41 0.12
-4 -6 -3 3.54 0.15
-4 -6 -3 3.77 0.13
-5 -6 -3 0.5 0.04
-5 -6 -3 0.69 0.07
-6 -6 -3 0.35 0.05
-6 -6 -3 0.38 0.05
-6 -6 -3 0.37 0.03
-6 -6 -3 0.47 0.05
-7 -6 -3 1.48 0.07
-7 -6 -3 1.37 0.06
-7 -6 -3 1.38 0.06
-3 7 3 1.38 0.07
-2 7 3 1.05 0.07
-2 7 3 1.11 0.07
-2 7 3 1.04 0.07
-1 7 3 7.67 0.24
-1 7 3 8.09 0.23
-1 7 3 8.06 0.23
0 -7 -3 12.99 0.35
0 -7 -3 12.97 0.33
0 7 3 12.99 0.35
0 7 3 12.97 0.33
0 7 3 13.03 0.33
-1 -7 -3 47.36 0.98
-1 -7 -3 48.08 1.02
-1 -7 -3 47.13 1.01
-1 -7 -3 47.21 1.04
-2 -7 -3 168.03 3.62
-2 -7 -3 172.67 3.34
-2 -7 -3 175.15 3.56
-2 -7 -3 182.72 3.47
-3 -7 -3 3.83 0.13
-3 -7 -3 3.71 0.13
-3 -7 -3 3.56 0.15
-3 -7 -3 3.88 0.14
-4 -7 -3 2.44 0.1
-4 -7 -3 2.49 0.11
-4 -7 -3 2.52 0.1
-4 -7 -3 2.34 0.12
-5 -7 -3 4.31 0.14
-5 -7 -3 4.59 0.16
-5 -7 -3 4.14 0.14
-6 -7 -3 9.38 0.22
-6 -7 -3 8.98 0.22
-6 -7 -3 9.37 0.25
1 -8 -3 12.45 0.31
-1 8 3 12.42 0.31
-1 8 3 11.71 0.29
0 -8 -3 0.49 0.06
0 -8 -3 0.43 0.05
0 8 3 0.49 0.06
0 8 3 0.44 0.05
-1 -8 -3 38.86 0.82
-1 -8 -3 37.2 0.78
1 8 3 36.08 0.82
-2 -8 -3 46.91 0.94
-2 -8 -3 45.86 0.97
-2 -8 -3 45.04 0.97
-2 -8 -3 45.33 1.01
-3 -8 -3 5.13 0.16
-3 -8 -3 5.27 0.18
-3 -8 -3 5.14 0.16
-3 -8 -3 5.08 0.15
-4 -8 -3 60.27 1.28
-4 -8 -3 58.7 1.24
-4 -8 -3 58.24 1.17
-5 -8 -3 7.54 0.21
-5 -8 -3 7.3 0.19
-5 -8 -3 7.43 0.2
-6 -8 -3 6.51 0.16
-1 -9 -3 3.5 0.11
-1 -9 -3 3.29 0.12
-2 -9 -3 0.12 0.03
-2 -9 -3 0.01 0.02
-3 -9 -3 0.14 0.03
-3 -9 -3 0.14 0.02
-4 -9 -3 0.57 0.04
-3 -9 4 0.2 0.03
-3 -9 4 0.2 0.03
-2 -9 4 15.33 0.34
-2 -9 4 15.25 0.37
-2 -9 4 15.04 0.34
-1 -9 4 0.59 0.05
-1 -9 4 0.63 0.05
-5 -8 4 8.35 0.21
-5 -8 4 8.03 0.22
-5 -8 4 8.43 0.2
-5 -8 4 8.34 0.2
-4 -8 4 1.6 0.09
-4 -8 4 1.72 0.08
-4 -8 4 1.65 0.07
-3 -8 4 6.65 0.21
-3 -8 4 6.49 0.17
-3 -8 4 6.63 0.18
-3 -8 4 6.69 0.19
-2 -8 4 5.2 0.15
-2 -8 4 5.32 0.18
-2 -8 4 5.32 0.17
-2 -8 4 5.41 0.17
-1 -8 4 26.19 0.62
-1 -8 4 26.66 0.6
-1 -8 4 26.89 0.58
0 8 -4 5.05 0.18
0 8 -4 5.52 0.18
0 -8 4 5.41 0.17
0 -8 4 5.54 0.18
0 -8 4 5.73 0.18
-1 8 -4 8.82 0.25
-1 8 -4 8.35 0.23
-1 8 -4 8.5 0.22
1 -8 4 8.69 0.24
1 -8 4 8.3 0.23
-6 -7 4 5.52 0.14
-6 -7 4 5.1 0.15
-5 -7 4 0.58 0.05
-5 -7 4 0.71 0.05
-5 -7 4 0.63 0.05
-4 -7 4 0.16 0.04
-4 -7 4 0.12 0.03
-4 -7 4 0.17 0.04
-4 -7 4 0.12 0.03
-3 -7 4 7.21 0.36
-3 -7 4 6.68 0.2
-3 -7 4 7.12 0.21
-3 -7 4 7.53 0.2
-3 -7 4 7.17 0.23
-2 -7 4 1.19 0.07
-2 -7 4 1.19 0.08
-2 -7 4 1.14 0.13
-2 -7 4 1.09 0.08
-2 -7 4 1.18 0.08
-1 -7 4 5.93 0.2
-1 -7 4 6.27 0.19
-1 -7 4 5.89 0.32
-1 -7 4 5.99 0.2
-1 -7 4 6.02 0.17
0 7 -4 30.17 0.7
0 7 -4 30.26 0.65
0 -7 4 29.68 1.09
0 -7 4 30.77 0.66
0 -7 4 30.57 0.7
-1 7 -4 1.11 0.08
-1 7 -4 1.01 0.08
-1 7 -4 0.95 0.08
1 -7 4 1.12 0.08
-2 7 -4 0.63 0.07
-2 7 -4 0.35 0.05
-2 7 -4 0.37 0.05
-2 7 -4 0.39 0.05
-3 7 -4 6.82 0.21
-3 7 -4 6.62 0.17
-3 7 -4 6.67 0.18
-6 -6 4 0.84 0.06
-6 -6 4 0.88 0.05
-6 -6 4 0.88 0.07
-6 -6 4 0.92 0.05
-5 -6 4 28.82 0.62
-5 -6 4 27.98 0.62
-5 -6 4 27.51 0.66
-5 -6 4 28.23 0.59
-4 -6 4 0.44 0.05
-4 -6 4 0.49 0.06
-4 -6 4 0.48 0.1
-4 -6 4 0.64 0.05
-3 -6 4 25.17 0.55
-3 -6 4 25.48 0.93
-3 -6 4 24.76 0.55
-3 -6 4 24.26 0.6
-3 -6 4 24.96 0.56
-2 -6 4 2.87 0.13
-2 -6 4 2.99 0.12
-2 -6 4 2.76 0.2
-2 -6 4 2.83 0.11
-2 -6 4 2.94 0.12
-1 -6 4 12.24 0.3
-1 -6 4 12.05 0.31
-1 -6 4 12.63 0.52
-1 -6 4 12.54 0.33
-1 -6 4 12.48 0.33
0 6 -4 32.45 0.71
0 6 -4 33.25 0.75
0 -6 4 32.4 0.75
0 -6 4 33.06 0.71
0 -6 4 34.34 1.18
-1 6 -4 4.11 0.15
-1 6 -4 4.1 0.16
-1 6 -4 3.88 0.16
1 -6 4 4.15 0.24
1 -6 4 3.67 0.16
1 -6 4 4.18 0.15
-2 6 -4 23.39 0.53
-2 6 -4 23.31 0.55
-2 6 -4 22.65 0.6
-2 6 -4 23.59 0.53
-2 6 -4 23.88 0.59
-3 6 -4 5.87 0.18
-3 6 -4 5.91 0.16
-3 6 -4 5.49 0.2
-3 6 -4 5.62 0.18
-3 6 -4 5.8 0.2
-4 6 -4 0.81 0.05
-4 6 -4 0.91 0.06
-7 -5 4 24.01 0.47
-7 -5 4 23.61 0.62
-6 -5 4 1.47 0.06
-6 -5 4 1.59 0.07
-6 -5 4 1.37 0.08
-6 -5 4 1.57 0.1
-5 -5 4 24.06 0.57
-5 -5 4 24.53 0.51
-5 -5 4 24.03 0.52
-5 -5 4 23.39 0.66
-5 -5 4 21.8 0.88
-4 -5 4 8.07 0.39
-4 -5 4 7.45 0.27
-4 -5 4 7.51 0.21
-4 -5 4 7.86 0.24
-3 -5 4 7.52 0.21
-3 -5 4 8.11 0.37
-3 -5 4 7.69 0.21
-3 -5 4 7.36 0.21
-3 -5 4 7.42 0.35
-3 -5 4 7.42 0.2
-3 -5 4 7.71 0.23
-2 -5 4 2.67 0.1
-2 -5 4 2.73 0.11
-2 -5 4 2.71 0.18
-2 -5 4 2.74 0.11
-2 -5 4 2.77 0.17
-2 -5 4 2.76 0.11
-1 -5 4 3.89 0.12
-1 -5 4 3.92 0.22
-1 -5 4 3.89 0.14
-1 -5 4 3.45 0.13
0 5 -4 9.4 0.27
0 5 -4 9.36 0.25
0 -5 4 8.99 0.23
0 -5 4 9.17 0.27
0 -5 4 10.14 0.41
0 -5 4 9.74 0.25
-1 5 -4 28.51 0.63
-1 5 -4 28.67 0.63
-1 5 -4 29.88 0.66
1 -5 4 28.39 0.62
1 -5 4 29.39 1.02
-2 5 -4 3.74 0.13
-2 5 -4 3.83 0.16
-2 5 -4 3.79 0.15
-2 5 -4 3.82 0.14
-3 5 -4 1.65 0.09
-3 5 -4 1.58 0.11
-3 5 -4 1.61 0.08
-3 5 -4 1.71 0.09
-3 5 -4 1.58 0.11
-3 5 -4 1.83 0.11
-4 5 -4 56.36 1.2
-4 5 -4 58.27 1.39
-4 5 -4 58.04 1.14
-4 5 -4 55.67 1.32
-4 5 -4 56.41 1.29
-5 5 -4 1.14 0.07
-5 5 -4 1.18 0.05
-5 5 -4 1.09 0.06
-7 -4 4 2 0.11
-7 -4 4 2.1 0.07
-6 -4 4 3.47 0.12
-6 -4 4 3.39 0.17
-6 -4 4 3.39 0.1
-6 -4 4 3.28 0.13
-5 -4 4 0.42 0.09
-5 -4 4 0.43 0.04
-5 -4 4 0.68 0.07
-5 -4 4 0.44 0.05
-5 -4 4 0.5 0.07
-4 -4 4 4.72 0.17
-4 -4 4 5.18 0.15
-4 -4 4 4.98 0.21
-4 -4 4 5.49 0.29
-3 -4 4 36.46 1.26
-3 -4 4 36.62 1.22
-2 -4 4 15.62 0.57
-2 -4 4 15.8 0.6
-1 -4 4 38.64 1.22
-1 -4 4 38.39 1.28
-1 -4 4 37.71 1.28
0 -4 4 2.37 0.15
0 -4 4 2.17 0.12
-2 4 -4 35.72 0.78
-2 4 -4 35.69 0.9
-2 4 -4 37.99 0.78
-2 4 -4 35.69 0.75
-2 4 -4 35.43 0.86
-3 4 -4 1.85 0.12
-3 4 -4 1.95 0.11
-3 4 -4 1.87 0.11
-3 4 -4 2.16 0.1
-3 4 -4 2.09 0.09
-3 4 -4 1.92 0.11
-3 4 -4 1.99 0.1
-4 4 -4 1.02 0.07
-4 4 -4 0.99 0.06
-4 4 -4 0.99 0.09
-4 4 -4 1.18 0.09
-4 4 -4 1 0.09
-4 4 -4 0.97 0.07
-4 4 -4 0.88 0.09
-5 4 -4 5.03 0.19
-5 4 -4 5.24 0.16
-5 4 -4 5.14 0.19
-5 4 -4 5.23 0.16
-5 4 -4 5.35 0.2
-6 4 -4 5.51 0.17
-7 -3 4 10.93 0.34
-6 -3 4 54.84 1.94
-6 -3 4 61.06 1.19
-6 -3 4 58.74 1.48
-6 -3 4 58.73 1.13
-5 -3 4 4.19 0.19
-5 -3 4 4.41 0.12
-5 -3 4 4.29 0.25
-5 -3 4 4.29 0.14
-4 -3 4 12.09 0.39
-4 -3 4 12.14 0.29
-4 -3 4 12.11 0.5
-4 -3 4 12.08 0.28
-4 -3 4 12.97 0.52
-3 -3 4 20.9 0.75
-3 -3 4 21.46 0.77
-2 -3 4 2.75 0.16
-2 -3 4 2.6 0.16
-1 -3 4 17.14 0.59
-1 -3 4 17.57 0.62
-1 -3 4 17.47 0.6
0 -3 4 0 0.03
0 -3 4 -0.02 0.03
-1 3 -4 8.13 0.27
-2 3 -4 26.82 0.69
-2 3 -4 28.45 0.81
-3 3 -4 17.28 0.46
-3 3 -4 16.59 0.38
-3 3 -4 16.18 0.43
-3 3 -4 16.76 0.39
-3 3 -4 15.9 0.38
-3 3 -4 16.75 0.53
-3 3 -4 16.16 0.44
-3 3 -4 16.43 0.39
-4 3 -4 0.12 0.04
-4 3 -4 0.1 0.03
-4 3 -4 0.11 0.04
-4 3 -4 0.07 0.03
-4 3 -4 0.14 0.04
-4 3 -4 0.11 0.04
-5 3 -4 13.3 0.4
-5 3 -4 12.54 0.45
-5 3 -4 12.9 0.32
-5 3 -4 13.17 0.39
-5 3 -4 13.72 0.38
-5 3 -4 12.83 0.32
-6 3 -4 0.38 0.04
-6 3 -4 0.39 0.05
-6 3 -4 0.36 0.04
-6 3 -4 0.41 0.05
-6 3 -4 0.33 0.05
-7 -2 4 16.87 0.47
-6 -2 4 9.27 0.22
-6 -2 4 8.79 0.41
-6 -2 4 9.11 0.32
-6 -2 4 9.35 0.23
-5 -2 4 0.09 0.02
-5 -2 4 0.26 0.04
-5 -2 4 0.05 0.03
-5 -2 4 0.05 0.04
-5 -2 4 0.05 0.05
-4 -2 4 115.29 2.93
-4 -2 4 121.83 2.42
-4 -2 4 118.49 2.47
-4 -2 4 130.26 3.88
-4 -2 4 120.24 3.71
-3 -2 4 9.85 0.41
-3 -2 4 9.85 0.39
-2 -2 4 11.34 0.41
-2 -2 4 10.94 0.42
-1 -2 4 15.62 0.52
-1 -2 4 15.04 0.52
-1 -2 4 15.37 0.51
-1 -2 4 14.43 0.53
0 -2 4 4.42 0.18
0 -2 4 4.37 0.19
-1 2 -4 0.92 0.06
-2 2 -4 3.49 0.15
-3 2 -4 41.81 1.06
-3 2 -4 44.92 1.24
-4 2 -4 1.8 0.08
-4 2 -4 1.85 0.08
-4 2 -4 1.46 0.1
-4 2 -4 1.47 0.1
-4 2 -4 1.55 0.11
-4 2 -4 1.52 0.1
-5 2 -4 9.12 0.24
-5 2 -4 9.52 0.31
-5 2 -4 9.43 0.36
-5 2 -4 9.56 0.3
-5 2 -4 9.36 0.31
-6 2 -4 1.56 0.07
-6 2 -4 1.6 0.1
-6 2 -4 1.47 0.1
-6 2 -4 1.55 0.1
-7 2 -4 0.3 0.04
-7 2 -4 0.29 0.04
-7 -1 4 3.89 0.12
-6 -1 4 44.63 0.95
-6 -1 4 42.82 1.5
-6 -1 4 44.13 0.91
-6 -1 4 44.12 0.97
-6 -1 4 45.45 1.14
-5 -1 4 0.57 0.1
-5 -1 4 0.64 0.07
-5 -1 4 0.54 0.05
-5 -1 4 0.64 0.04
-5 -1 4 0.65 0.08
-4 -1 4 2.29 0.1
-4 -1 4 2.18 0.16
-4 -1 4 2.16 0.12
-4 -1 4 2.25 0.13
-4 -1 4 2.12 0.07
-4 -1 4 2.15 0.15
-3 -1 4 32.45 1.02
-3 -1 4 30.78 1.06
-3 -1 4 29.83 0.9
-2 -1 4 0.13 0.03
-2 -1 4 0.06 0.03
-2 -1 4 0.03 0.03
-2 -1 4 0.05 0.02
1 1 -4 211.87 6.91
-1 -1 4 220.09 6.26
-1 -1 4 196.86 6.55
-1 -1 4 213.1 6.93
0 1 -4 116.57 3.76
0 -1 4 111.03 3.75
-1 1 -4 2.96 0.11
-2 1 -4 86.04 2.36
-3 1 -4 76.79 2.13
-4 1 -4 9.19 0.32
-4 1 -4 8.85 0.27
-4 1 -4 8.66 0.27
-4 1 -4 8.49 0.21
-4 1 -4 8.33 0.23
-4 1 -4 8.77 0.28
-5 1 -4 9.79 0.36
-5 1 -4 9.34 0.26
-5 1 -4 9.45 0.24
-5 1 -4 9.06 0.29
-5 1 -4 10.02 0.31
-5 1 -4 9.69 0.31
-6 1 -4 7.18 0.25
-6 1 -4 7.34 0.2
-6 1 -4 6.92 0.18
-6 1 -4 6.87 0.28
-6 1 -4 6.98 0.24
-6 1 -4 7.17 0.24
-7 1 -4 62.6 1.26
-7 1 -4 60.6 1.37
-7 1 -4 63.86 1.41
-7 0 4 0.19 0.03
-6 0 4 4.85 0.18
-6 0 4 4.85 0.13
-6 0 4 4.84 0.17
-5 0 4 1.29 0.06
-5 0 4 1.2 0.12
-5 0 4 1.34 0.09
-5 0 4 1.23 0.11
-5 0 4 1.23 0.1
-4 0 4 4.72 0.17
-4 0 4 5.11 0.26
-4 0 4 5.02 0.2
-4 0 4 4.98 0.23
-4 0 4 4.81 0.13
-4 0 4 4.63 0.13
-3 0 4 21.87 0.76
-3 0 4 21.4 0.61
-3 0 4 21.59 0.66
-3 0 4 20.63 0.72
-2 0 4 12.07 0.41
-2 0 4 11.31 0.35
-2 0 4 10.81 0.36
-2 0 4 11.03 0.42
1 0 -4 13.5 0.51
-1 0 4 13.08 0.49
-1 0 4 16.16 0.49
0 0 -4 1.33 0.07
0 0 4 1.1 0.07
-2 0 -4 118.91 3.23
-3 0 -4 78.09 2.15
-4 0 -4 47.47 1.31
-4 0 -4 44.28 1.11
-5 0 -4 1.07 0.08
-5 0 -4 1.09 0.09
-5 0 -4 1.08 0.05
-5 0 -4 1.12 0.08
-5 0 -4 1.05 0.07
-5 0 -4 1.08 0.07
-5 0 -4 1.09 0.09
-6 0 -4 5.93 0.22
-6 0 -4 6.05 0.21
-6 0 -4 6.02 0.25
-6 0 -4 6.2 0.22
-6 0 -4 6.17 0.16
-6 0 -4 6.09 0.18
-7 0 -4 12.3 0.33
-7 0 -4 11.89 0.34
-7 0 -4 12.15 0.29
-6 1 4 1.24 0.06
-6 1 4 1.22 0.08
-5 1 4 0.95 0.08
-5 1 4 0.84 0.1
-5 1 4 0.91 0.05
-4 1 4 2.76 0.13
-4 1 4 2.69 0.09
-4 1 4 2.77 0.17
-4 1 4 2.76 0.18
-3 1 4 110.51 3.07
-3 1 4 109.22 2.88
-3 1 4 113.22 3.53
-2 1 4 0.77 0.07
-2 1 4 0.8 0.08
-2 1 4 0.85 0.06
1 -1 -4 4.25 0.18
-1 1 4 4 0.18
-1 1 4 4.31 0.16
-1 1 4 4.25 0.17
0 -1 -4 158.58 5.12
0 1 4 158.44 3.97
0 1 4 150.25 5.12
-1 -1 -4 180.63 5.97
-2 -1 -4 95.43 2.6
-3 -1 -4 0.5 0.05
-4 -1 -4 0.13 0.03
-4 -1 -4 0.05 0.03
-4 -1 -4 0.06 0.03
-5 -1 -4 2.62 0.14
-5 -1 -4 2.7 0.12
-5 -1 -4 2.44 0.12
-5 -1 -4 2.54 0.12
-5 -1 -4 2.55 0.11
-5 -1 -4 2.34 0.1
-5 -1 -4 2.52 0.08
-5 -1 -4 2.57 0.1
-6 -1 -4 0.32 0.05
-6 -1 -4 0.12 0.04
-6 -1 -4 0.27 0.05
-6 -1 -4 0.12 0.02
-6 -1 -4 0.2 0.04
-6 -1 -4 0.16 0.03
-7 -1 -4 6.38 0.18
-7 -1 -4 6.28 0.21
-7 -1 -4 6.15 0.2
-7 -1 -4 6.39 0.18
-8 -1 -4 5.63 0.16
-6 2 4 1.23 0.07
-6 2 4 1.2 0.05
-5 2 4 5.5 0.19
-5 2 4 5.55 0.16
-5 2 4 5.61 0.26
-4 2 4 3.95 0.13
-4 2 4 3.86 0.16
-4 2 4 4.26 0.22
-3 2 4 18.83 0.46
-3 2 4 18.74 0.58
-3 2 4 19.7 0.7
-3 2 4 19.34 0.62
-2 2 4 58.48 1.66
-2 2 4 58.45 1.56
-2 2 4 59.1 1.9
-1 2 4 191.03 5.17
-1 2 4 189.29 5.95
-1 2 4 192.3 4.87
0 -2 -4 134.3 4.49
0 2 4 138.41 3.49
-1 -2 -4 2.75 0.12
1 2 4 2.74 0.11
2 2 4 189.1 4.8
-3 -2 -4 7.68 0.29
-3 -2 -4 7.31 0.25
-4 -2 -4 16.19 0.55
-4 -2 -4 15.99 0.5
-5 -2 -4 2.53 0.12
-5 -2 -4 2.9 0.08
-5 -2 -4 2.75 0.11
-5 -2 -4 2.78 0.11
-5 -2 -4 2.73 0.13
-5 -2 -4 2.74 0.12
-5 -2 -4 2.69 0.14
-6 -2 -4 41.43 0.9
-6 -2 -4 42.42 0.92
-6 -2 -4 41.74 0.98
-6 -2 -4 40.53 0.84
-6 -2 -4 41.03 0.95
-6 -2 -4 41.93 0.88
-7 -2 -4 0.28 0.04
-7 -2 -4 0.32 0.05
-8 -2 -4 0.52 0.04
-6 3 4 6.52 0.16
-5 3 4 0.1 0.03
-5 3 4 0.03 0.03
-5 3 4 0.05 0.02
-4 3 4 2.66 0.17
-4 3 4 2.78 0.13
-4 3 4 2.7 0.11
-4 3 4 2.75 0.11
-4 3 4 2.59 0.1
-3 3 4 37.04 1.08
-3 3 4 34.59 0.75
-3 3 4 35.4 0.73
-3 3 4 34.94 1.02
-3 3 4 35.61 0.73
-3 3 4 34.63 0.76
-2 3 4 0.01 0.03
-2 3 4 0.01 0.03
-1 3 4 146.31 3.86
-1 3 4 153.77 4.1
0 -3 -4 33.03 1.01
0 -3 -4 33.34 1.15
0 3 4 34.09 0.92
-1 -3 -4 90.81 2.98
-1 -3 -4 88.64 2.62
1 3 4 90.68 2.32
-2 -3 -4 46.61 1.4
-3 -3 -4 1.28 0.1
-4 -3 -4 16.81 0.41
-4 -3 -4 17.79 0.6
-5 -3 -4 11.8 0.33
-5 -3 -4 12.48 0.33
-5 -3 -4 12.3 0.27
-5 -3 -4 12.43 0.32
-6 -3 -4 5.69 0.14
-6 -3 -4 5.79 0.19
-6 -3 -4 5.67 0.18
-6 -3 -4 5.62 0.19
-7 -3 -4 1.16 0.07
-7 -3 -4 1.3 0.08
-7 -3 -4 1.3 0.08
-5 4 4 0.06 0.03
-5 4 4 0.05 0.02
-4 4 4 21.66 0.72
-4 4 4 22.37 0.51
-4 4 4 23.2 0.5
-4 4 4 22.36 0.54
-3 4 4 18.59 0.62
-3 4 4 17.93 0.42
-3 4 4 18.24 0.42
-3 4 4 18.32 0.43
-3 4 4 17.91 0.42
-2 4 4 15.6 0.37
-2 4 4 16.01 0.54
-2 4 4 15.36 0.51
-2 4 4 15.89 0.38
-2 4 4 15.31 0.36
-1 4 4 31.52 0.93
-1 4 4 30.84 0.65
-1 4 4 31.25 0.89
0 -4 -4 1.86 0.11
0 4 4 2.04 0.11
0 4 4 2.13 0.12
-1 -4 -4 80.59 2.63
-1 -4 -4 77.55 2.33
1 4 4 80.24 2.08
-2 -4 -4 67.79 2.02
-3 -4 -4 58.18 1.76
-4 -4 -4 68.44 1.49
-4 -4 -4 71.11 1.43
-4 -4 -4 71.18 1.45
-5 -4 -4 2.13 0.11
-5 -4 -4 2.09 0.1
-5 -4 -4 2.08 0.08
-5 -4 -4 1.97 0.1
-6 -4 -4 1.14 0.07
-6 -4 -4 1.01 0.08
-6 -4 -4 1.12 0.05
-6 -4 -4 1.03 0.07
-7 -4 -4 14.96 0.36
-7 -4 -4 14.83 0.36
-4 5 4 1.73 0.09
-4 5 4 1.69 0.08
-4 5 4 1.76 0.11
-4 5 4 1.72 0.07
-3 5 4 3.72 0.12
-3 5 4 3.85 0.16
-3 5 4 3.46 0.13
-3 5 4 3.73 0.14
-3 5 4 3.8 0.14
-3 5 4 3.71 0.2
-2 5 4 3.92 0.21
-2 5 4 4.16 0.15
-2 5 4 4.24 0.13
-2 5 4 4.19 0.15
-2 5 4 4 0.15
1 -5 -4 7.89 0.22
-1 5 4 7.85 0.21
-1 5 4 7.75 0.31
-1 5 4 7.84 0.24
-1 5 4 7.92 0.22
0 -5 -4 8.03 0.22
0 -5 -4 7.43 0.23
0 5 4 7.65 0.3
0 5 4 7.83 0.21
0 5 4 7.69 0.23
-1 -5 -4 49.63 1.03
-1 -5 -4 47.9 0.98
-1 -5 -4 50.03 1.03
1 5 4 48.61 0.98
1 5 4 48.21 0.98
-2 -5 -4 2.95 0.1
-2 -5 -4 2.83 0.11
-2 -5 -4 3.04 0.17
-2 -5 -4 2.93 0.11
-3 -5 -4 66.8 1.4
-3 -5 -4 67.92 1.42
-3 -5 -4 69.43 1.38
-3 -5 -4 68.35 1.34
-4 -5 -4 16.73 0.41
-4 -5 -4 16.71 0.39
-4 -5 -4 16.86 0.42
-5 -5 -4 18.07 0.45
-5 -5 -4 17.86 0.41
-5 -5 -4 18.65 0.44
-6 -5 -4 0.61 0.06
-6 -5 -4 0.63 0.04
-6 -5 -4 0.64 0.06
-7 -5 -4 1.41 0.07
-7 -5 -4 1.35 0.07
-3 6 4 2.08 0.1
-3 6 4 2.07 0.09
-3 6 4 2.06 0.09
-2 6 4 8.7 0.24
-2 6 4 8.54 0.25
-2 6 4 8.66 0.24
1 -6 -4 17.9 0.47
-1 6 4 18.24 0.43
-1 6 4 19.04 0.46
-1 6 4 18.27 0.43
0 -6 -4 0.16 0.04
0 -6 -4 0.2 0.04
0 6 4 0.12 0.04
0 6 4 0.1 0.04
0 6 4 0.06 0.03
-1 -6 -4 70.89 1.49
-1 -6 -4 70.82 1.42
-1 -6 -4 72.77 1.48
-2 -6 -4 1.25 0.08
-2 -6 -4 1.29 0.08
-2 -6 -4 1.38 0.07
-3 -6 -4 0.85 0.06
-3 -6 -4 0.78 0.06
-3 -6 -4 0.7 0.05
-4 -6 -4 0.79 0.07
-4 -6 -4 0.73 0.05
-4 -6 -4 0.59 0.05
-5 -6 -4 0.19 0.04
-5 -6 -4 0.16 0.03
-6 -6 -4 2.92 0.12
-6 -6 -4 2.93 0.09
-6 -6 -4 2.99 0.11
-7 -6 -4 2.38 0.08
-7 -6 -4 2.46 0.09
-2 7 4 0.18 0.04
-2 7 4 0.17 0.03
1 -7 -4 0.1 0.04
-1 7 4 0.15 0.04
-1 7 4 0.07 0.03
0 -7 -4 0.57 0.06
0 -7 -4 0.47 0.06
0 7 4 0.55 0.07
0 7 4 0.48 0.06
-1 -7 -4 0.02 0.03
-1 -7 -4 0.01 0.03
-2 -7 -4 2.29 0.09
-2 -7 -4 2.26 0.11
-2 -7 -4 2.25 0.11
-3 -7 -4 7.85 0.22
-3 -7 -4 7.49 0.22
-3 -7 -4 7.82 0.21
-4 -7 -4 6.3 0.19
-4 -7 -4 6.17 0.19
-4 -7 -4 6.33 0.18
-5 -7 -4 4.16 0.13
-5 -7 -4 4.14 0.13
-5 -7 -4 4.25 0.15
-6 -7 -4 0.52 0.04
-6 -7 -4 0.58 0.05
1 -8 -4 0.05 0.03
-1 8 4 0.05 0.02
-1 8 4 0.08 0.03
0 -8 -4 0.02 0.03
0 -8 -4 0.04 0.03
0 8 4 0.02 0.03
-1 -8 -4 0.67 0.06
-1 -8 -4 0.74 0.06
1 8 4 0.6 0.07
-2 -8 -4 31.64 0.67
-2 -8 -4 31.64 0.69
-2 -8 -4 31.99 0.69
-3 -8 -4 15.89 0.38
-3 -8 -4 16.38 0.38
-3 -8 -4 16.15 0.37
-4 -8 -4 44.16 0.9
-4 -8 -4 44.96 0.95
-5 -8 -4 3.8 0.11
-5 -8 -4 3.71 0.12
-1 -9 -4 1.66 0.07
-2 -9 -4 0.61 0.04
-2 -9 -4 0.58 0.05
-3 -9 -4 9.72 0.23
-4 -8 5 0.17 0.03
-4 -8 5 0.13 0.02
-4 -8 5 0.19 0.03
-3 -8 5 9.71 0.24
-3 -8 5 9.36 0.26
-3 -8 5 9.64 0.24
-2 -8 5 5.86 0.19
-2 -8 5 5.99 0.18
-2 -8 5 6.17 0.18
1 8 -5 16.95 0.43
-1 -8 5 16.9 0.42
-1 -8 5 17.44 0.41
-1 -8 5 16.8 0.39
0 8 -5 1.9 0.09
0 8 -5 1.93 0.1
0 -8 5 2.1 0.1
0 -8 5 1.78 0.09
0 -8 5 1.85 0.08
-1 8 -5 1.3 0.07
-1 8 -5 1.29 0.07
-1 8 -5 1.09 0.07
-1 8 -5 1.19 0.07
1 -8 5 1.06 0.07
1 -8 5 1.2 0.06
-6 -7 5 3.89 0.1
-5 -7 5 59.07 1.25
-5 -7 5 60.05 1.24
-5 -7 5 61.14 1.14
-4 -7 5 16.55 0.42
-4 -7 5 17.5 0.39
-4 -7 5 16.08 0.4
-4 -7 5 16.94 0.38
-3 -7 5 30.79 1.15
-3 -7 5 32.98 0.69
-3 -7 5 32.5 0.75
-3 -7 5 32.74 0.69
-3 -7 5 32.96 0.71
-2 -7 5 11.42 0.29
-2 -7 5 10.87 0.31
-2 -7 5 10.72 0.49
-2 -7 5 10.97 0.3
-2 -7 5 11.38 0.28
-1 -7 5 16.77 0.42
-1 -7 5 16.36 0.41
-1 -7 5 16.34 0.39
-1 -7 5 15.91 0.65
0 7 -5 2.4 0.11
0 7 -5 2.09 0.11
0 7 -5 2.16 0.12
0 -7 5 2.45 0.11
0 -7 5 2.23 0.1
0 -7 5 2.45 0.12
-1 7 -5 1.41 0.08
-1 7 -5 1.29 0.09
-1 7 -5 1.26 0.08
1 -7 5 1.37 0.09
-2 7 -5 1.53 0.08
-2 7 -5 1.38 0.09
-2 7 -5 1.48 0.08
-2 7 -5 1.42 0.09
-3 7 -5 0.13 0.03
-3 7 -5 0.08 0.02
-6 -6 5 4.08 0.11
-6 -6 5 3.76 0.11
-5 -6 5 9.84 0.25
-5 -6 5 10.31 0.26
-5 -6 5 10.31 0.26
-4 -6 5 8.82 0.24
-4 -6 5 8.71 0.26
-4 -6 5 8.86 0.23
-3 -6 5 -0.01 0.03
-3 -6 5 -0.02 0.04
-3 -6 5 0.01 0.02
-3 -6 5 0.09 0.03
-3 -6 5 0 0.03
-2 -6 5 0.02 0.03
-2 -6 5 0 0.03
-2 -6 5 0.03 0.05
-2 -6 5 0.05 0.03
-2 -6 5 0.02 0.02
-1 -6 5 0.22 0.07
-1 -6 5 0.23 0.03
-1 -6 5 0.2 0.04
-1 -6 5 0.19 0.04
-1 -6 5 0.39 0.06
0 6 -5 2.09 0.12
0 6 -5 1.99 0.1
0 -6 5 2.01 0.16
0 -6 5 1.91 0.11
0 -6 5 2.09 0.1
-1 6 -5 16.75 0.41
-1 6 -5 16.75 0.43
-1 6 -5 16.47 0.45
1 -6 5 16.4 0.43
1 -6 5 16.95 0.4
-2 6 -5 1.49 0.09
-2 6 -5 1.57 0.1
-2 6 -5 1.63 0.09
-2 6 -5 1.64 0.1
-2 6 -5 1.56 0.07
-3 6 -5 3.1 0.12
-3 6 -5 3.2 0.14
-3 6 -5 3.32 0.14
-3 6 -5 3.24 0.12
-3 6 -5 3.27 0.11
-4 6 -5 1.59 0.07
-4 6 -5 1.55 0.08
-4 6 -5 1.66 0.09
-4 6 -5 1.6 0.06
-6 -5 5 2.8 0.14
-6 -5 5 2.94 0.09
-6 -5 5 2.9 0.1
-5 -5 5 0.16 0.03
-5 -5 5 0.12 0.03
-5 -5 5 0.2 0.05
-5 -5 5 0.11 0.06
-4 -5 5 2.22 0.13
-4 -5 5 2.29 0.18
-4 -5 5 2.24 0.1
-4 -5 5 2.32 0.09
-3 -5 5 21.43 0.49
-3 -5 5 21.15 0.5
-3 -5 5 21.72 0.48
-3 -5 5 21.64 0.48
-2 -5 5 3.09 0.12
-2 -5 5 3.1 0.11
-2 -5 5 3.18 0.12
-2 -5 5 2.94 0.2
-2 -5 5 2.9 0.12
-1 -5 5 60.91 2
-1 -5 5 60.16 1.26
-1 -5 5 62.32 1.27
-1 -5 5 60.27 1.21
-1 -5 5 57.97 1.29
0 5 -5 0.11 0.04
0 5 -5 0.14 0.04
0 -5 5 0.11 0.05
0 -5 5 0.13 0.04
0 -5 5 0.14 0.03
0 -5 5 0.14 0.03
-1 5 -5 1.75 0.1
-1 5 -5 1.85 0.1
-1 5 -5 1.66 0.08
1 -5 5 1.79 0.14
1 -5 5 1.59 0.1
1 -5 5 1.81 0.09
-2 5 -5 64.77 1.5
-2 5 -5 65.59 1.38
-2 5 -5 65.65 1.37
-2 5 -5 65.85 1.32
-3 5 -5 17.7 0.48
-3 5 -5 17.44 0.41
-3 5 -5 17.39 0.49
-3 5 -5 17.58 0.42
-3 5 -5 17.05 0.42
-3 5 -5 18.09 0.47
-4 5 -5 0.09 0.04
-4 5 -5 0.08 0.03
-4 5 -5 0.16 0.04
-4 5 -5 0.05 0.03
-4 5 -5 0.08 0.02
-5 5 -5 1.19 0.05
-5 5 -5 0.98 0.06
-5 5 -5 0.96 0.06
-7 -4 5 0.17 0.04
-6 -4 5 9.46 0.32
-6 -4 5 9.64 0.23
-6 -4 5 9.28 0.23
-5 -4 5 11.7 0.39
-5 -4 5 12.1 0.29
-5 -4 5 11.82 0.28
-5 -4 5 11.73 0.51
-4 -4 5 0.41 0.07
-4 -4 5 0.33 0.08
-4 -4 5 0.35 0.05
-4 -4 5 0.35 0.04
-3 -4 5 30.3 1.05
-3 -4 5 30.73 0.67
-3 -4 5 33.04 1.1
-3 -4 5 30.09 0.64
-3 -4 5 31.39 0.66
-3 -4 5 30.1 0.67
-3 -4 5 29.75 0.82
-2 -4 5 2.28 0.16
-2 -4 5 1.85 0.14
-1 -4 5 33.94 1.14
-1 -4 5 32.25 1.08
-1 -4 5 33.03 1.11
0 -4 5 36.12 1.19
0 -4 5 34.23 1.21
-1 4 -5 0.04 0.03
-1 4 -5 0.04 0.02
-1 4 -5 -0.01 0.02
1 -4 5 0.03 0.04
1 -4 5 0.05 0.03
-2 4 -5 6.19 0.21
-2 4 -5 6.16 0.22
-2 4 -5 6.43 0.19
-2 4 -5 6.06 0.18
-2 4 -5 6.32 0.2
-3 4 -5 0.53 0.06
-3 4 -5 0.66 0.08
-3 4 -5 0.8 0.07
-3 4 -5 0.64 0.08
-3 4 -5 0.5 0.06
-4 4 -5 0.22 0.04
-4 4 -5 0.15 0.05
-4 4 -5 0.18 0.05
-4 4 -5 0.12 0.03
-4 4 -5 0.14 0.04
-5 4 -5 2.64 0.13
-5 4 -5 3.01 0.1
-5 4 -5 2.73 0.13
-5 4 -5 2.8 0.13
-5 4 -5 2.8 0.11
-7 -3 5 2.06 0.11
-6 -3 5 2.93 0.1
-6 -3 5 2.93 0.09
-6 -3 5 2.93 0.16
-5 -3 5 0.62 0.04
-5 -3 5 0.57 0.05
-5 -3 5 0.56 0.1
-5 -3 5 0.51 0.08
-4 -3 5 7.19 0.19
-4 -3 5 7.21 0.27
-4 -3 5 7.16 0.35
-3 -3 5 14.6 0.55
-3 -3 5 13.02 0.41
-3 -3 5 13.27 0.53
-2 -3 5 11.19 0.44
-2 -3 5 10.99 0.43
-1 -3 5 66.59 2.21
-1 -3 5 66.11 2.06
-1 -3 5 67.68 2.16
0 -3 5 9.7 0.38
-2 3 -5 57.65 1.42
-2 3 -5 61.27 1.67
-3 3 -5 1.74 0.11
-3 3 -5 1.83 0.11
-3 3 -5 1.74 0.09
-3 3 -5 1.82 0.11
-3 3 -5 1.74 0.1
-3 3 -5 1.79 0.09
-3 3 -5 1.71 0.08
-4 3 -5 0.91 0.08
-4 3 -5 0.86 0.08
-4 3 -5 0.91 0.08
-4 3 -5 0.69 0.08
-4 3 -5 0.73 0.06
-4 3 -5 0.68 0.06
-4 3 -5 0.89 0.06
-5 3 -5 3.43 0.15
-5 3 -5 3.08 0.16
-5 3 -5 3.37 0.12
-5 3 -5 3.31 0.16
-5 3 -5 3.34 0.12
-5 3 -5 3.57 0.16
-6 3 -5 0.22 0.04
-6 3 -5 0.26 0.03
-6 3 -5 0.19 0.04
-6 3 -5 0.23 0.03
-6 3 -5 0.24 0.04
-7 -2 5 4.91 0.18
-6 -2 5 1.22 0.1
-6 -2 5 1.25 0.06
-5 -2 5 0.15 0.06
-5 -2 5 0.12 0.02
-5 -2 5 0.15 0.03
-5 -2 5 0.08 0.04
-5 -2 5 0.11 0.05
-4 -2 5 25.14 0.54
-4 -2 5 24.66 0.58
-4 -2 5 25.59 0.9
-4 -2 5 24.67 0.69
-4 -2 5 23.85 0.88
-3 -2 5 71.99 2.3
-3 -2 5 68.66 2.2
-2 -2 5 124.68 4
-2 -2 5 127.94 3.82
-1 -2 5 9.88 0.4
-1 -2 5 11.09 0.39
0 -2 5 29.68 0.93
0 -2 5 28.92 0.97
-1 2 -5 34.45 0.97
-2 2 -5 13.86 0.43
-3 2 -5 20.86 0.58
-3 2 -5 23.01 0.67
-4 2 -5 0.4 0.06
-4 2 -5 0.46 0.04
-4 2 -5 0.53 0.07
-4 2 -5 0.45 0.06
-4 2 -5 0.43 0.07
-5 2 -5 0.42 0.07
-5 2 -5 0.4 0.07
-5 2 -5 0.4 0.06
-5 2 -5 0.5 0.07
-6 2 -5 7.62 0.26
-6 2 -5 8.05 0.25
-6 2 -5 7.71 0.26
-6 2 -5 8.19 0.2
-6 -1 5 1.83 0.1
-6 -1 5 1.69 0.07
-6 -1 5 1.78 0.12
-5 -1 5 14.59 0.46
-5 -1 5 14.71 0.59
-5 -1 5 15.16 0.39
-5 -1 5 14.83 0.34
-5 -1 5 14.24 0.32
-4 -1 5 0.39 0.04
-4 -1 5 0.27 0.07
-4 -1 5 0.28 0.06
-4 -1 5 0.42 0.06
-4 -1 5 0.27 0.07
-3 -1 5 40.5 1.32
-3 -1 5 40.41 1.18
-3 -1 5 41.95 1.38
-2 -1 5 257.61 7.67
-2 -1 5 265.53 6.54
-2 -1 5 252.06 6.95
-2 -1 5 255.01 8.04
-1 -1 5 26.51 0.91
-1 -1 5 27.75 0.92
0 1 -5 128.19 4.23
-2 1 -5 24.28 0.71
-3 1 -5 6.1 0.23
-3 1 -5 5.53 0.19
-4 1 -5 12.81 0.37
-4 1 -5 13.66 0.39
-4 1 -5 13.16 0.31
-4 1 -5 13.95 0.45
-4 1 -5 13.48 0.38
-5 1 -5 68.67 1.56
-5 1 -5 70.25 1.43
-5 1 -5 70.28 1.97
-5 1 -5 69.56 1.68
-5 1 -5 69.33 1.61
-6 1 -5 2.2 0.08
-6 1 -5 2.11 0.09
-6 1 -5 2.03 0.11
-6 1 -5 2.06 0.12
-6 1 -5 2.02 0.13
-6 1 -5 2.22 0.12
-7 1 -5 1.18 0.07
-7 1 -5 1.05 0.07
-6 0 5 5.65 0.19
-6 0 5 5.78 0.18
-6 0 5 5.9 0.15
-5 0 5 0.84 0.05
-5 0 5 1 0.09
-5 0 5 0.65 0.09
-5 0 5 0.94 0.1
-5 0 5 0.72 0.08
-4 0 5 18.7 0.7
-4 0 5 18.65 0.54
-4 0 5 18.1 0.61
-4 0 5 17.97 0.45
-4 0 5 18.27 0.41
-3 0 5 7.66 0.27
-3 0 5 7.89 0.33
-3 0 5 8.18 0.3
-3 0 5 7.86 0.34
-2 0 5 46.59 1.51
-2 0 5 46.26 1.23
-2 0 5 45.57 1.45
-2 0 5 46.29 1.31
-1 0 5 31.64 1.04
-1 0 5 31.76 1.06
0 0 -5 0.85 0.06
-2 0 -5 152.28 4.13
-3 0 -5 50.69 1.42
-4 0 -5 1.15 0.06
-4 0 -5 1.2 0.08
-4 0 -5 1.16 0.08
-5 0 -5 34.95 0.72
-5 0 -5 33.96 0.81
-5 0 -5 34.23 0.84
-5 0 -5 33.16 0.73
-5 0 -5 33.83 0.75
-5 0 -5 35.07 0.87
-5 0 -5 34.87 1.02
-6 0 -5 4.91 0.14
-6 0 -5 5.19 0.22
-6 0 -5 5.25 0.14
-6 0 -5 5.22 0.16
-6 0 -5 5.06 0.2
-6 0 -5 5.1 0.19
-6 0 -5 4.96 0.19
-7 0 -5 17.34 0.44
-7 0 -5 16.82 0.43
-6 1 5 21.16 0.5
-6 1 5 21.22 0.49
-6 1 5 21.81 0.47
-5 1 5 5.36 0.19
-5 1 5 5.16 0.25
-5 1 5 5.17 0.15
-4 1 5 0.03 0.04
-4 1 5 0.02 0.03
-4 1 5 0.03 0.04
-4 1 5 0.04 0.02
-3 1 5 92.18 2.43
-3 1 5 96.15 2.6
-3 1 5 96.26 2.97
-3 1 5 90.13 1.91
-3 1 5 88 2.83
-2 1 5 0.06 0.04
-2 1 5 0.13 0.04
-2 1 5 0.05 0.03
-1 1 5 4.96 0.19
-1 1 5 4.66 0.21
0 -1 -5 221.54 7.34
0 1 5 225.01 5.67
-1 -1 -5 13.68 0.48
-3 -1 -5 54.95 1.53
-4 -1 -5 5.98 0.27
-4 -1 -5 5.9 0.2
-4 -1 -5 6.38 0.24
-5 -1 -5 0.02 0.03
-5 -1 -5 0.08 0.03
-5 -1 -5 0.03 0.03
-5 -1 -5 0.33 0.05
-5 -1 -5 0.17 0.04
-6 -1 -5 28.81 0.59
-6 -1 -5 27.84 0.62
-6 -1 -5 28.72 0.71
-6 -1 -5 26.59 0.85
-6 -1 -5 27.93 0.68
-6 -1 -5 28.64 0.64
-7 -1 -5 12.05 0.3
-7 -1 -5 12.69 0.34
-6 2 5 7.84 0.19
-6 2 5 7.5 0.21
-5 2 5 23.44 0.52
-5 2 5 23.88 0.56
-5 2 5 23.33 0.52
-5 2 5 22.31 0.75
-4 2 5 22.56 0.52
-4 2 5 23.9 0.52
-4 2 5 23.51 0.77
-4 2 5 23.32 0.57
-3 2 5 3.65 0.13
-3 2 5 3.35 0.12
-3 2 5 3.49 0.12
-3 2 5 3.52 0.18
-3 2 5 3.87 0.2
-3 2 5 4.26 0.21
-3 2 5 3.47 0.14
-3 2 5 3.39 0.12
-2 2 5 89.24 2.37
-2 2 5 91.05 2.88
-2 2 5 90.62 2.52
-1 2 5 9.57 0.33
-1 2 5 9.56 0.36
-1 2 5 9.61 0.32
0 -2 -5 0.92 0.07
0 2 5 0.91 0.07
-1 -2 -5 12.54 0.45
1 2 5 12.36 0.38
2 2 5 4.56 0.17
-4 -2 -5 72.63 2.16
-4 -2 -5 72.06 1.49
-5 -2 -5 1.58 0.06
-5 -2 -5 1.75 0.11
-5 -2 -5 1.5 0.08
-5 -2 -5 1.51 0.09
-5 -2 -5 1.54 0.09
-6 -2 -5 25.59 0.62
-6 -2 -5 26.09 0.54
-6 -2 -5 24.81 0.64
-6 -2 -5 26.27 0.6
-6 -2 -5 25 0.58
-7 -2 -5 1.84 0.09
-7 -2 -5 1.87 0.1
-5 3 5 0.98 0.07
-5 3 5 1.05 0.06
-4 3 5 0.11 0.05
-4 3 5 0.14 0.03
-4 3 5 0.19 0.04
-4 3 5 0.17 0.05
-4 3 5 0.12 0.03
-3 3 5 1.19 0.08
-3 3 5 1.1 0.11
-3 3 5 1.15 0.09
-3 3 5 1.58 0.07
-3 3 5 1.28 0.12
-2 3 5 0.15 0.05
-2 3 5 0.15 0.03
-2 3 5 0.19 0.03
-2 3 5 0.21 0.04
-2 3 5 0.12 0.03
-2 3 5 0.17 0.05
-1 3 5 10.15 0.35
-1 3 5 10.11 0.36
0 -3 -5 1.55 0.1
0 -3 -5 1.72 0.1
0 3 5 1.7 0.1
-1 -3 -5 69.18 2.06
-1 -3 -5 69.2 2.32
1 3 5 71.69 1.84
-2 -3 -5 35.55 1.1
-3 -3 -5 15.83 0.55
-4 -3 -5 11.47 0.27
-4 -3 -5 12.27 0.31
-4 -3 -5 11.41 0.45
-5 -3 -5 11.82 0.33
-5 -3 -5 12.1 0.32
-5 -3 -5 12.43 0.33
-5 -3 -5 12.21 0.28
-6 -3 -5 1.32 0.06
-6 -3 -5 1.39 0.08
-6 -3 -5 1.45 0.09
-6 -3 -5 1.47 0.09
-7 -3 -5 1.51 0.08
-7 -3 -5 1.41 0.08
-5 4 5 2.04 0.08
-5 4 5 1.96 0.09
-4 4 5 41.39 0.89
-4 4 5 41.67 0.92
-4 4 5 41.74 0.85
-3 4 5 5.25 0.26
-3 4 5 5.81 0.2
-3 4 5 5.56 0.17
-3 4 5 5.63 0.18
-3 4 5 5.44 0.17
-2 4 5 0.1 0.03
-2 4 5 0.16 0.05
-2 4 5 0.17 0.04
-2 4 5 0.13 0.03
-2 4 5 0.16 0.04
-2 4 5 0.12 0.05
1 -4 -5 3.14 0.12
-1 4 5 3.2 0.11
-1 4 5 3.34 0.17
-1 4 5 3.14 0.12
-1 4 5 3.05 0.17
-1 4 5 3.17 0.13
-1 4 5 3.23 0.12
0 -4 -5 0.86 0.07
0 4 5 0.87 0.08
0 4 5 0.82 0.08
-1 -4 -5 7.21 0.27
-1 -4 -5 6.73 0.29
1 4 5 7.27 0.26
-2 -4 -5 3.47 0.18
-3 -4 -5 26.39 0.85
-3 -4 -5 25.07 0.61
-3 -4 -5 24.98 0.57
-4 -4 -5 13.18 0.31
-4 -4 -5 13.3 0.34
-5 -4 -5 5.84 0.16
-5 -4 -5 5.7 0.19
-6 -4 -5 1.39 0.09
-6 -4 -5 1.39 0.08
-6 -4 -5 1.58 0.06
-7 -4 -5 0.54 0.05
-7 -4 -5 0.43 0.04
-4 5 5 2.88 0.12
-4 5 5 2.91 0.1
-3 5 5 2.3 0.1
-3 5 5 2.41 0.11
-3 5 5 2.24 0.15
-3 5 5 2.47 0.12
-2 5 5 0.38 0.05
-2 5 5 0.36 0.05
-2 5 5 0.32 0.07
1 -5 -5 17.79 0.41
-1 5 5 18 0.42
-1 5 5 17.77 0.42
-1 5 5 17.95 0.44
0 -5 -5 3.83 0.14
0 5 5 3.74 0.13
0 5 5 3.54 0.19
0 5 5 3.63 0.14
-1 -5 -5 60.19 1.33
-1 -5 -5 61.92 1.28
-1 -5 -5 62.23 1.22
-1 -5 -5 61.3 1.28
1 5 5 61.38 1.22
-2 -5 -5 9.61 0.26
-2 -5 -5 10.26 0.25
-2 -5 -5 9.72 0.25
-2 -5 -5 9.54 0.27
-3 -5 -5 2.33 0.1
-3 -5 -5 2.3 0.1
-3 -5 -5 2.34 0.12
-3 -5 -5 2.17 0.09
-3 -5 -5 2.21 0.1
-4 -5 -5 3.07 0.13
-4 -5 -5 3.05 0.11
-5 -5 -5 13.11 0.34
-5 -5 -5 12.99 0.31
-6 -5 -5 19.49 0.43
-6 -5 -5 19.73 0.47
-6 -5 -5 20.67 0.48
-7 -5 -5 0.02 0.02
-7 -5 -5 0.01 0.02
-3 6 5 9.32 0.26
-3 6 5 9.26 0.24
-3 6 5 9.46 0.23
-2 6 5 0.53 0.06
-2 6 5 0.59 0.06
1 -6 -5 42.67 0.93
-1 6 5 41.84 0.88
-1 6 5 42.54 0.92
0 -6 -5 0.13 0.04
0 -6 -5 0.11 0.04
0 6 5 0.09 0.04
0 6 5 0.26 0.05
-1 -6 -5 51.36 1.08
-1 -6 -5 51.07 1.03
-1 -6 -5 49.39 1.07
-2 -6 -5 4.73 0.16
-2 -6 -5 4.67 0.15
-2 -6 -5 4.41 0.16
-3 -6 -5 4.68 0.15
-3 -6 -5 4.81 0.16
-3 -6 -5 4.62 0.16
-4 -6 -5 0.24 0.04
-4 -6 -5 0.29 0.04
-4 -6 -5 0.28 0.04
-5 -6 -5 8.75 0.23
-5 -6 -5 8.8 0.23
-6 -6 -5 5.04 0.14
-6 -6 -5 4.94 0.16
-2 7 5 19.08 0.46
-2 7 5 20.11 0.44
1 -7 -5 0.46 0.06
-1 7 5 0.41 0.05
-1 7 5 0.51 0.06
0 -7 -5 40.25 0.83
0 -7 -5 39.47 0.87
0 7 5 40.06 0.83
0 7 5 39.93 0.88
-1 -7 -5 0.33 0.05
-1 -7 -5 0.36 0.05
-2 -7 -5 0.02 0.03
-2 -7 -5 0.02 0.02
-2 -7 -5 -0.01 0.02
-3 -7 -5 8.94 0.23
-3 -7 -5 8.75 0.24
-3 -7 -5 8.95 0.24
-4 -7 -5 10.81 0.27
-4 -7 -5 10.71 0.27
-4 -7 -5 10.16 0.27
-5 -7 -5 0.04 0.02
-5 -7 -5 0.04 0.02
-6 -7 -5 0.38 0.03
-6 -7 -5 0.43 0.03
-1 8 5 10.14 0.25
0 -8 -5 1.23 0.07
0 -8 -5 1.27 0.08
0 8 5 1.42 0.08
-1 -8 -5 0.64 0.06
-1 -8 -5 0.67 0.06
1 8 5 0.68 0.07
-2 -8 -5 22.78 0.51
-2 -8 -5 21.88 0.49
-3 -8 -5 14.44 0.33
-3 -8 -5 14.16 0.32
-3 -8 -5 13.54 0.33
-4 -8 -5 4.8 0.15
-4 -8 -5 4.84 0.14
-5 -8 -5 0.07 0.02
-5 -8 -5 0.05 0.02
-3 -8 6 9.04 0.22
-3 -8 6 9.07 0.23
-2 -8 6 9.13 0.23
-2 -8 6 9.04 0.23
1 8 -6 2.43 0.1
-1 -8 6 2.42 0.1
-1 -8 6 2.41 0.1
-1 -8 6 2.41 0.1
0 8 -6 1.24 0.08
0 8 -6 1.41 0.08
0 -8 6 1.35 0.07
0 -8 6 1.43 0.08
0 -8 6 1.29 0.07
-1 8 -6 0.47 0.04
-1 8 -6 0.5 0.05
-4 -7 6 17.17 0.39
-4 -7 6 17.63 0.4
-3 -7 6 8.48 0.22
-3 -7 6 8.18 0.22
-3 -7 6 8.44 0.23
-2 -7 6 10.4 0.29
-2 -7 6 10.8 0.28
-2 -7 6 11.11 0.29
-2 -7 6 11.06 0.27
-1 -7 6 1.15 0.08
-1 -7 6 1.25 0.08
-1 -7 6 1.07 0.08
0 7 -6 10.82 0.31
0 7 -6 10.84 0.31
0 7 -6 10.99 0.28
0 -7 6 10.55 0.29
0 -7 6 10.91 0.3
0 -7 6 11.15 0.28
-1 7 -6 0.29 0.05
-1 7 -6 0.21 0.04
-1 7 -6 0.2 0.04
1 -7 6 0.23 0.04
1 -7 6 0.2 0.04
-2 7 -6 10.68 0.29
-2 7 -6 10.23 0.29
-2 7 -6 10.57 0.27
-2 7 -6 10.6 0.26
-6 -6 6 26.98 0.58
-5 -6 6 57.71 1.19
-5 -6 6 57.09 1.2
-4 -6 6 0.15 0.04
-4 -6 6 0.16 0.04
-4 -6 6 0.32 0.04
-3 -6 6 193.65 3.77
-3 -6 6 190.95 3.91
-3 -6 6 190.57 3.65
-2 -6 6 12.9 0.55
-2 -6 6 13.22 0.34
-2 -6 6 12.9 0.32
-2 -6 6 12.6 0.33
-1 -6 6 15.57 0.62
-1 -6 6 14.43 0.38
-1 -6 6 15.48 0.39
-1 -6 6 15.4 0.37
-1 -6 6 15.01 0.36
0 6 -6 4.76 0.19
0 6 -6 4.76 0.17
0 -6 6 5.05 0.18
0 -6 6 4.8 0.17
0 -6 6 4.63 0.27
-1 6 -6 2.1 0.11
-1 6 -6 1.8 0.11
-1 6 -6 1.97 0.1
1 -6 6 1.94 0.11
1 -6 6 1.89 0.1
-2 6 -6 30.37 0.69
-2 6 -6 30.44 0.75
-2 6 -6 30.1 0.66
-2 6 -6 31.71 0.74
-3 6 -6 15.17 0.36
-3 6 -6 15.81 0.4
-3 6 -6 15.11 0.41
-3 6 -6 15.01 0.35
-3 6 -6 14.71 0.34
-6 -5 6 5.74 0.21
-6 -5 6 5.47 0.15
-5 -5 6 0.88 0.06
-5 -5 6 1 0.09
-5 -5 6 0.97 0.06
-4 -5 6 1.87 0.09
-4 -5 6 1.69 0.16
-4 -5 6 1.92 0.08
-3 -5 6 43.97 0.91
-3 -5 6 44.21 1.52
-3 -5 6 44.49 0.93
-3 -5 6 43.9 0.95
-2 -5 6 0.68 0.06
-2 -5 6 0.7 0.11
-2 -5 6 0.6 0.05
-2 -5 6 0.68 0.06
-1 -5 6 38.23 1.34
-1 -5 6 37.73 0.84
-1 -5 6 38.71 0.83
-1 -5 6 39.8 0.81
0 5 -6 0.17 0.04
0 5 -6 0.27 0.05
0 -5 6 0.13 0.04
0 -5 6 0.23 0.07
0 -5 6 0.42 0.05
-1 5 -6 11.16 0.31
-1 5 -6 10.64 0.27
-1 5 -6 11.17 0.29
-1 5 -6 11.42 0.32
1 -5 6 11.07 0.29
1 -5 6 10.64 0.31
-2 5 -6 11.14 0.28
-2 5 -6 11 0.31
-2 5 -6 10.95 0.33
-2 5 -6 11.24 0.32
-3 5 -6 34.04 0.81
-3 5 -6 34.65 0.74
-3 5 -6 34.58 0.84
-3 5 -6 34.04 0.74
-3 5 -6 33.15 0.73
-3 5 -6 33.95 0.86
-4 5 -6 21.29 0.54
-4 5 -6 20.94 0.47
-4 5 -6 21.07 0.46
-4 5 -6 20.47 0.55
-4 5 -6 21.32 0.53
-6 -4 6 0.39 0.03
-6 -4 6 0.31 0.06
-5 -4 6 0.18 0.05
-5 -4 6 0.22 0.07
-5 -4 6 0.22 0.03
-4 -4 6 4.33 0.14
-4 -4 6 4.74 0.21
-4 -4 6 4.58 0.27
-4 -4 6 4.63 0.15
-3 -4 6 3.77 0.23
-3 -4 6 3.53 0.12
-3 -4 6 3.5 0.12
-3 -4 6 3.44 0.17
-3 -4 6 3.57 0.13
-3 -4 6 3.26 0.12
-2 -4 6 8.63 0.38
-2 -4 6 8.57 0.22
-2 -4 6 9.07 0.23
-2 -4 6 8.55 0.24
-2 -4 6 8.39 0.38
-1 -4 6 55.35 1.78
-1 -4 6 52.36 1.11
-1 -4 6 52.44 1.07
-1 -4 6 53.21 1.12
0 4 -6 21.77 0.48
0 -4 6 21.34 0.5
0 -4 6 22.92 0.79
0 -4 6 22 0.48
0 -4 6 20.5 0.48
-1 4 -6 19.03 0.43
-1 4 -6 18.28 0.45
-1 4 -6 18.86 0.43
1 -4 6 18.75 0.43
-2 4 -6 11.55 0.35
-2 4 -6 11.48 0.33
-2 4 -6 11.43 0.3
-2 4 -6 11.84 0.29
-2 4 -6 11.21 0.31
-3 4 -6 20.55 0.49
-3 4 -6 21.66 0.56
-3 4 -6 21.09 0.57
-3 4 -6 21.73 0.49
-3 4 -6 20.23 0.54
-3 4 -6 21.5 0.49
-4 4 -6 14.41 0.42
-4 4 -6 14.88 0.36
-4 4 -6 14.91 0.41
-4 4 -6 14.26 0.42
-4 4 -6 14.75 0.35
-5 4 -6 2.3 0.11
-5 4 -6 2.17 0.11
-5 4 -6 2.66 0.09
-5 4 -6 2.13 0.09
-5 4 -6 2.31 0.11
-6 -3 6 1.86 0.07
-6 -3 6 1.96 0.12
-5 -3 6 1.85 0.16
-5 -3 6 1.81 0.13
-5 -3 6 1.79 0.08
-4 -3 6 5 0.28
-4 -3 6 5.2 0.15
-4 -3 6 5.04 0.22
-3 -3 6 61.38 1.54
-3 -3 6 58.67 1.96
-3 -3 6 60.94 1.21
-3 -3 6 60.8 1.28
-3 -3 6 60.79 1.24
-3 -3 6 60.62 1.26
-3 -3 6 66.33 2.05
-2 -3 6 0.8 0.09
-2 -3 6 0.77 0.09
-1 -3 6 26.56 0.88
-1 -3 6 26.39 0.92
-1 -3 6 26.34 0.89
0 -3 6 0.72 0.08
-1 3 -6 0.51 0.05
-2 3 -6 8.09 0.26
-2 3 -6 8.13 0.24
-2 3 -6 8.43 0.22
-2 3 -6 8.28 0.25
-2 3 -6 8.23 0.23
-2 3 -6 8.8 0.3
-3 3 -6 0.07 0.03
-3 3 -6 0.06 0.03
-3 3 -6 0.09 0.03
-3 3 -6 0.06 0.03
-3 3 -6 0.1 0.03
-3 3 -6 0.09 0.04
-3 3 -6 0.08 0.04
-4 3 -6 1.51 0.11
-4 3 -6 1.64 0.09
-4 3 -6 1.54 0.08
-4 3 -6 1.84 0.12
-4 3 -6 1.67 0.1
-4 3 -6 1.66 0.1
-4 3 -6 1.77 0.09
-5 3 -6 32.96 0.77
-5 3 -6 32.91 0.83
-5 3 -6 32.6 0.7
-5 3 -6 31.86 0.8
-5 3 -6 30.87 0.7
-6 3 -6 0.75 0.06
-6 3 -6 0.82 0.05
-6 3 -6 0.82 0.06
-6 3 -6 0.87 0.05
-6 -2 6 5.4 0.14
-6 -2 6 5.16 0.22
-5 -2 6 25.76 0.6
-5 -2 6 25.27 0.94
-5 -2 6 25.46 0.73
-5 -2 6 25.93 0.56
-4 -2 6 0.63 0.05
-4 -2 6 0.6 0.08
-4 -2 6 0.64 0.07
-4 -2 6 0.68 0.1
-3 -2 6 2.85 0.15
-3 -2 6 3.06 0.19
-3 -2 6 3.12 0.19
-3 -2 6 2.87 0.1
-2 -2 6 2.46 0.16
-2 -2 6 2.45 0.16
-1 -2 6 0.19 0.05
-1 -2 6 0.22 0.05
0 -2 6 3.13 0.16
-2 2 -6 28.69 0.82
-2 2 -6 27.4 0.71
-3 2 -6 74.31 1.68
-3 2 -6 76.8 1.55
-3 2 -6 75.28 1.73
-3 2 -6 78.41 1.82
-3 2 -6 75.59 1.57
-3 2 -6 76.95 1.59
-3 2 -6 75.32 1.5
-3 2 -6 80.73 2.14
-4 2 -6 1.95 0.12
-4 2 -6 1.97 0.11
-4 2 -6 1.87 0.12
-4 2 -6 2.05 0.09
-4 2 -6 1.94 0.08
-4 2 -6 1.84 0.11
-5 2 -6 0.14 0.04
-5 2 -6 0.12 0.04
-5 2 -6 0.2 0.05
-5 2 -6 0.12 0.03
-5 2 -6 0.13 0.03
-5 2 -6 0.14 0.05
-6 2 -6 20.87 0.54
-6 2 -6 21.52 0.46
-6 2 -6 20.91 0.52
-6 2 -6 21.52 0.56
-6 2 -6 20.09 0.47
-6 -1 6 5.24 0.21
-6 -1 6 5.28 0.18
-6 -1 6 5.42 0.14
-5 -1 6 3.56 0.15
-5 -1 6 3.55 0.12
-5 -1 6 3.3 0.22
-5 -1 6 3.62 0.18
-4 -1 6 7.16 0.33
-4 -1 6 6.43 0.26
-4 -1 6 6.73 0.18
-4 -1 6 6.53 0.21
-3 -1 6 37.13 0.98
-3 -1 6 38.81 1.28
-3 -1 6 36.74 1.23
-3 -1 6 36.44 1.1
-2 -1 6 58.44 1.88
-2 -1 6 56.88 1.62
-2 -1 6 57.6 1.53
-2 -1 6 57.13 1.8
-1 -1 6 131.55 4.18
-1 -1 6 133.99 4
-2 1 -6 3.74 0.16
-3 1 -6 1.55 0.1
-3 1 -6 1.55 0.09
-4 1 -6 0.84 0.07
-4 1 -6 0.86 0.08
-4 1 -6 0.82 0.05
-4 1 -6 0.82 0.08
-4 1 -6 0.82 0.07
-5 1 -6 7.74 0.21
-5 1 -6 7.71 0.27
-5 1 -6 7.68 0.3
-5 1 -6 8 0.27
-5 1 -6 7.74 0.25
-6 1 -6 0.14 0.04
-6 1 -6 0.09 0.04
-6 1 -6 0.12 0.02
-6 1 -6 0.09 0.04
-7 1 -6 5.43 0.17
-6 0 6 0.35 0.05
-6 0 6 0.44 0.04
-5 0 6 0.42 0.08
-5 0 6 0.45 0.06
-5 0 6 0.46 0.08
-5 0 6 0.43 0.04
-4 0 6 0.69 0.09
-4 0 6 0.81 0.07
-4 0 6 0.67 0.09
-4 0 6 0.62 0.05
-4 0 6 0.56 0.09
-3 0 6 18.19 0.42
-3 0 6 17.77 0.41
-3 0 6 18.58 0.56
-3 0 6 18.02 0.67
-3 0 6 18.96 0.61
-3 0 6 19.69 0.69
-3 0 6 18.41 0.45
-2 0 6 40.03 1.3
-2 0 6 40.51 1.18
-2 0 6 41.24 1.35
-2 0 6 40.7 1.11
-1 0 6 1.65 0.11
0 0 -6 446.36 14.76
-3 0 -6 0.62 0.06
-3 0 -6 0.59 0.06
-4 0 -6 3.83 0.12
-4 0 -6 3.83 0.16
-4 0 -6 3.75 0.14
-4 0 -6 3.76 0.18
-4 0 -6 3.9 0.16
-5 0 -6 4.27 0.14
-5 0 -6 4.25 0.18
-5 0 -6 4.51 0.2
-5 0 -6 4.5 0.17
-5 0 -6 4.72 0.18
-5 0 -6 4.48 0.13
-6 0 -6 7.98 0.26
-6 0 -6 8.14 0.25
-6 0 -6 7.89 0.26
-6 0 -6 8.18 0.2
-6 0 -6 7.63 0.3
-7 0 -6 8.23 0.23
-7 0 -6 8.25 0.24
-6 1 6 0.02 0.03
-6 1 6 0.01 0.02
-6 1 6 0 0.02
-6 1 6 0.01 0.02
-5 1 6 13 0.49
-5 1 6 13.27 0.32
-5 1 6 14.13 0.37
-4 1 6 0.31 0.07
-4 1 6 0.34 0.06
-4 1 6 0.42 0.04
-4 1 6 0.3 0.07
-4 1 6 0.33 0.07
-3 1 6 22.01 0.64
-3 1 6 24.09 0.83
-3 1 6 23.93 0.7
-3 1 6 23.98 0.74
-3 1 6 23.13 0.55
-3 1 6 22.54 0.51
-3 1 6 22.24 0.5
-3 1 6 22.97 0.51
-2 1 6 87.36 2.44
-2 1 6 88.1 2.8
-2 1 6 86.73 2.3
-1 1 6 33.27 1.12
-1 1 6 34.39 0.94
0 -1 -6 4.16 0.19
0 1 6 4.34 0.17
-3 -1 -6 2.18 0.1
-4 -1 -6 31.5 0.77
-4 -1 -6 31.37 0.71
-4 -1 -6 32.54 0.81
-4 -1 -6 33.53 0.95
-4 -1 -6 32.45 0.68
-5 -1 -6 0.21 0.03
-5 -1 -6 0.28 0.05
-5 -1 -6 0.21 0.04
-5 -1 -6 0.21 0.05
-5 -1 -6 0.22 0.05
-6 -1 -6 4.02 0.17
-6 -1 -6 4.1 0.15
-6 -1 -6 4.09 0.12
-6 -1 -6 3.94 0.15
-7 -1 -6 1.53 0.08
-6 2 6 0.49 0.04
-6 2 6 0.42 0.03
-6 2 6 0.4 0.03
-5 2 6 2.22 0.09
-5 2 6 2.09 0.11
-4 2 6 95.87 1.98
-4 2 6 98.49 1.89
-4 2 6 97.45 2.03
-3 2 6 1 0.08
-3 2 6 0.87 0.09
-3 2 6 0.92 0.1
-3 2 6 0.91 0.07
-3 2 6 0.82 0.06
-3 2 6 0.92 0.06
-3 2 6 0.89 0.06
-2 2 6 19.2 0.61
-2 2 6 18.55 0.67
-2 2 6 18.09 0.43
-2 2 6 18.84 0.58
-2 2 6 17.77 0.41
-1 2 6 36.84 1.07
-1 2 6 36.91 1.01
-1 2 6 35.27 1.2
0 -2 -6 13.99 0.53
0 2 6 14.96 0.45
-1 -2 -6 4.79 0.19
1 2 6 4.75 0.19
2 2 6 108.06 2.79
-3 -2 -6 1.71 0.09
-4 -2 -6 46.38 1.14
-4 -2 -6 48.39 1.01
-4 -2 -6 46.72 0.97
-4 -2 -6 47.22 1.47
-5 -2 -6 17.51 0.44
-5 -2 -6 17.91 0.39
-5 -2 -6 16.94 0.46
-6 -2 -6 22.43 0.48
-6 -2 -6 22.05 0.53
-6 -2 -6 22.24 0.56
-7 -2 -6 9 0.26
-7 -2 -6 8.92 0.24
-5 3 6 2.97 0.12
-5 3 6 3.01 0.1
-4 3 6 15.87 0.39
-4 3 6 16.39 0.42
-4 3 6 16.16 0.38
-3 3 6 3.39 0.13
-3 3 6 3.38 0.12
-3 3 6 3.56 0.15
-3 3 6 3.39 0.13
-2 3 6 0.23 0.06
-2 3 6 0.01 0.03
-2 3 6 0.06 0.03
-2 3 6 0.05 0.03
-1 3 6 9.38 0.34
-1 3 6 8.94 0.24
-1 3 6 9.23 0.34
-1 3 6 8.93 0.25
0 -3 -6 20.21 0.74
0 3 6 20.88 0.61
-1 -3 -6 17.37 0.6
1 3 6 17.08 0.52
-2 -3 -6 3.29 0.18
-3 -3 -6 6.72 0.2
-3 -3 -6 6.52 0.29
-3 -3 -6 6.21 0.21
-4 -3 -6 1.28 0.08
-4 -3 -6 1.16 0.06
-5 -3 -6 59.96 1.24
-5 -3 -6 61.09 1.28
-6 -3 -6 6.26 0.21
-6 -3 -6 6.45 0.17
-6 -3 -6 6.73 0.21
-7 -3 -6 0.03 0.03
-7 -3 -6 0 0.02
-5 4 6 2.85 0.09
-4 4 6 8.43 0.22
-4 4 6 8.57 0.25
-3 4 6 2.09 0.15
-3 4 6 2.1 0.1
-3 4 6 2.21 0.12
-3 4 6 2.13 0.1
-2 4 6 0.7 0.06
-2 4 6 0.63 0.1
-2 4 6 0.6 0.06
1 -4 -6 23.84 0.52
-1 4 6 23.56 0.75
-1 4 6 23.42 0.52
-1 4 6 24.13 0.55
-1 4 6 23.51 0.73
0 -4 -6 8.6 0.23
0 -4 -6 8.36 0.24
0 4 6 8.76 0.23
0 4 6 8.68 0.32
0 4 6 8.45 0.25
0 4 6 7.85 0.31
-1 -4 -6 35.18 1.11
-1 -4 -6 36.1 0.76
-1 -4 -6 35.82 0.73
-1 -4 -6 34.38 0.77
1 4 6 35.88 1
-2 -4 -6 0.17 0.03
-2 -4 -6 0.39 0.05
-2 -4 -6 0.17 0.03
-2 -4 -6 0.44 0.05
-2 -4 -6 0.18 0.03
-2 -4 -6 0.26 0.06
-3 -4 -6 53.76 1.19
-3 -4 -6 55.11 1.1
-3 -4 -6 52.97 1.13
-3 -4 -6 51.45 1.12
-3 -4 -6 52.6 1.06
-3 -4 -6 54.26 1.11
-4 -4 -6 4.15 0.17
-4 -4 -6 4.12 0.13
-4 -4 -6 4.12 0.16
-5 -4 -6 9.83 0.25
-5 -4 -6 10.37 0.29
-6 -4 -6 6.91 0.22
-6 -4 -6 6.88 0.18
-7 -4 -6 2.42 0.1
-4 5 6 3.77 0.11
-4 5 6 3.63 0.12
-4 5 6 3.78 0.13
-3 5 6 0.1 0.03
-3 5 6 0.06 0.03
-2 5 6 11.48 0.3
-2 5 6 11.86 0.31
-2 5 6 11.19 0.43
-1 5 6 6.31 0.21
-1 5 6 6.34 0.19
-1 5 6 6.13 0.28
0 -5 -6 25.62 0.59
0 -5 -6 25.4 0.55
0 5 6 25.39 0.59
0 5 6 24.92 0.55
0 5 6 23.8 0.76
-1 -5 -6 34.95 0.8
-1 -5 -6 35.67 0.74
-1 -5 -6 34.83 0.76
-1 -5 -6 36.6 0.78
1 5 6 34.53 0.74
-2 -5 -6 0.07 0.03
-2 -5 -6 0.05 0.02
-2 -5 -6 0.03 0.03
-2 -5 -6 0.08 0.03
-3 -5 -6 8.69 0.25
-3 -5 -6 8.79 0.24
-3 -5 -6 8.66 0.27
-3 -5 -6 9.08 0.23
-3 -5 -6 9.17 0.24
-4 -5 -6 0.02 0.03
-4 -5 -6 0.02 0.02
-4 -5 -6 0.01 0.02
-5 -5 -6 35.54 0.75
-5 -5 -6 34.82 0.78
-6 -5 -6 0.19 0.04
-6 -5 -6 0.26 0.03
-7 -5 -6 9.08 0.23
-3 6 6 0.26 0.04
-3 6 6 0.3 0.04
-2 6 6 4.47 0.15
-2 6 6 4.56 0.15
1 -6 -6 8.05 0.25
-1 6 6 7.72 0.24
-1 6 6 7.99 0.23
0 -6 -6 3.32 0.15
0 -6 -6 3.37 0.13
0 -6 -6 3.52 0.14
0 6 6 3.36 0.15
0 6 6 3.63 0.14
-1 -6 -6 45.66 1.03
-1 -6 -6 45.75 0.99
-1 -6 -6 46.26 0.98
-1 -6 -6 45.73 0.95
-2 -6 -6 10.2 0.28
-2 -6 -6 10.03 0.29
-2 -6 -6 10.3 0.26
-2 -6 -6 10.27 0.27
-3 -6 -6 3.08 0.12
-3 -6 -6 2.85 0.12
-3 -6 -6 3.01 0.11
-4 -6 -6 6.93 0.2
-4 -6 -6 7.02 0.2
-4 -6 -6 7.07 0.2
-5 -6 -6 0.71 0.07
-5 -6 -6 0.78 0.05
-5 -6 -6 0.75 0.05
-6 -6 -6 1.52 0.06
-6 -6 -6 1.56 0.08
-2 7 6 0.36 0.04
-2 7 6 0.36 0.04
-2 7 6 0.34 0.04
1 -7 -6 6.58 0.21
-1 7 6 6.81 0.2
-1 7 6 6.7 0.19
0 -7 -6 16.41 0.38
0 -7 -6 15.84 0.4
0 7 6 16.34 0.38
0 7 6 15.75 0.41
-1 -7 -6 2.58 0.12
-1 -7 -6 2.49 0.11
1 7 6 2.57 0.13
-2 -7 -6 3.02 0.11
-2 -7 -6 3 0.13
-2 -7 -6 3.12 0.12
-3 -7 -6 10.66 0.28
-3 -7 -6 10.68 0.27
-3 -7 -6 10.6 0.27
-4 -7 -6 2.73 0.1
-4 -7 -6 2.78 0.11
-5 -7 -6 3.2 0.11
-5 -7 -6 3 0.1
-6 -7 -6 0.34 0.03
-6 -7 -6 0.35 0.03
0 -8 -6 40.85 0.86
0 8 6 40.52 0.86
-1 -8 -6 0.04 0.02
-1 -8 -6 0.03 0.02
1 8 6 -0.02 0.03
-2 -8 -6 1.48 0.08
-2 -8 -6 1.77 0.08
-3 -8 -6 6.66 0.17
-3 -8 -6 6.76 0.19
-3 -8 -6 6.93 0.18
-4 -8 -6 0.56 0.04
-4 -8 -6 0.52 0.05
-5 -8 -6 13.36 0.3
-3 -8 7 13.55 0.3
-2 -8 7 0.04 0.02
-2 -8 7 0.01 0.02
1 8 -7 0.85 0.06
-1 -8 7 0.83 0.05
-1 -8 7 0.84 0.05
0 8 -7 0.32 0.04
0 8 -7 0.25 0.04
0 8 -7 0.2 0.03
0 -8 7 0.29 0.04
-5 -7 7 2 0.07
-4 -7 7 4.49 0.14
-3 -7 7 21.2 0.47
-3 -7 7 21.77 0.48
-2 -7 7 0.86 0.05
-2 -7 7 0.73 0.06
-2 -7 7 0.88 0.06
-1 -7 7 0.63 0.06
-1 -7 7 0.35 0.05
0 7 -7 11.25 0.31
0 7 -7 10.78 0.31
0 -7 7 11.34 0.3
0 -7 7 11.06 0.28
-1 7 -7 1.11 0.07
-1 7 -7 1.06 0.07
-1 7 -7 1.04 0.07
-1 7 -7 1.06 0.07
1 -7 7 1.02 0.07
-2 7 -7 10.02 0.28
-2 7 -7 10.36 0.25
-2 7 -7 10.2 0.25
-2 7 -7 10.23 0.27
-5 -6 7 94.55 1.88
-5 -6 7 88.1 1.85
-4 -6 7 16.86 0.41
-4 -6 7 17.4 0.4
-4 -6 7 17.15 0.39
-3 -6 7 3.29 0.22
-3 -6 7 3.71 0.13
-3 -6 7 3.38 0.12
-3 -6 7 3.49 0.13
-2 -6 7 51.27 1.78
-2 -6 7 52.38 1.11
-2 -6 7 54.56 1.08
-1 -6 7 7.07 0.21
-1 -6 7 6.48 0.34
-1 -6 7 6.82 0.22
-1 -6 7 6.89 0.19
0 6 -7 0.77 0.07
0 6 -7 0.76 0.08
0 -6 7 0.78 0.07
0 -6 7 0.64 0.07
-1 6 -7 0.1 0.03
-1 6 -7 0.13 0.04
-1 6 -7 0.11 0.04
-2 6 -7 0.11 0.03
-2 6 -7 -0.01 0.02
-2 6 -7 0.01 0.03
-2 6 -7 0.11 0.04
-3 6 -7 8.83 0.23
-3 6 -7 8.66 0.25
-3 6 -7 8.99 0.22
-3 6 -7 8.62 0.26
-6 -5 7 0.31 0.05
-6 -5 7 0.34 0.03
-6 -5 7 0.32 0.03
-5 -5 7 11.35 0.28
-5 -5 7 11.28 0.28
-5 -5 7 10.98 0.35
-4 -5 7 67.27 1.43
-4 -5 7 68.81 1.37
-4 -5 7 70.97 1.45
-3 -5 7 108.45 3.61
-3 -5 7 114.82 2.31
-3 -5 7 112.77 2.17
-3 -5 7 111.42 2.23
-2 -5 7 0.17 0.06
-2 -5 7 0.15 0.04
-2 -5 7 0.17 0.04
-1 -5 7 180.24 5.76
-1 -5 7 180.57 3.48
-1 -5 7 180.22 3.7
-1 -5 7 186.85 3.62
0 5 -7 17.52 0.45
0 5 -7 18.71 0.43
0 -5 7 16.99 0.45
-1 5 -7 61.07 1.36
-1 5 -7 57.82 1.2
-1 5 -7 58.63 1.25
1 -5 7 60.12 1.19
1 -5 7 58.37 1.26
-2 5 -7 1.78 0.1
-2 5 -7 2.22 0.11
-2 5 -7 2.02 0.11
-2 5 -7 1.94 0.08
-2 5 -7 1.92 0.11
-3 5 -7 0.23 0.03
-3 5 -7 0.09 0.03
-3 5 -7 0.09 0.03
-3 5 -7 0.07 0.03
-3 5 -7 0.13 0.04
-4 5 -7 7.97 0.25
-4 5 -7 8.47 0.21
-4 5 -7 8.5 0.24
-4 5 -7 8.24 0.25
-4 5 -7 8.35 0.22
-6 -4 7 2.29 0.12
-6 -4 7 2.43 0.08
-5 -4 7 11.18 0.36
-5 -4 7 10.56 0.27
-5 -4 7 10.62 0.27
-4 -4 7 1.57 0.08
-4 -4 7 1.64 0.08
-4 -4 7 1.71 0.12
-4 -4 7 1.49 0.14
-3 -4 7 1.28 0.13
-3 -4 7 1.23 0.08
-3 -4 7 1.3 0.08
-3 -4 7 1.51 0.07
-3 -4 7 1.25 0.1
-2 -4 7 0.72 0.1
-2 -4 7 0.8 0.06
-2 -4 7 0.78 0.05
-2 -4 7 0.83 0.06
-1 -4 7 72.78 2.44
-1 -4 7 74.38 1.55
-1 -4 7 76.02 1.48
-1 -4 7 75.91 1.54
0 4 -7 6.31 0.21
0 4 -7 6.24 0.19
0 -4 7 6.41 0.19
0 -4 7 6.13 0.21
-1 4 -7 29.85 0.66
-1 4 -7 29.52 0.69
-1 4 -7 30.59 0.66
1 -4 7 30.11 0.69
1 -4 7 31.24 0.65
-2 4 -7 3.85 0.16
-2 4 -7 3.65 0.15
-2 4 -7 3.64 0.15
-2 4 -7 3.79 0.13
-2 4 -7 3.85 0.15
-2 4 -7 3.77 0.16
-3 4 -7 10.35 0.32
-3 4 -7 10.66 0.27
-3 4 -7 10.35 0.31
-3 4 -7 10.69 0.33
-3 4 -7 10.37 0.28
-3 4 -7 10.35 0.28
-4 4 -7 0.18 0.04
-4 4 -7 0.23 0.05
-4 4 -7 0.41 0.06
-4 4 -7 0.24 0.03
-4 4 -7 0.31 0.05
-5 4 -7 16.53 0.43
-5 4 -7 16.45 0.44
-5 4 -7 16.13 0.38
-5 4 -7 16.59 0.37
-5 4 -7 16.63 0.41
-6 -3 7 0.02 0.02
-6 -3 7 0 0.03
-5 -3 7 0.17 0.03
-5 -3 7 0.21 0.07
-5 -3 7 0.14 0.05
-4 -3 7 1.4 0.11
-4 -3 7 1.59 0.08
-4 -3 7 1.59 0.14
-4 -3 7 1.52 0.08
-3 -3 7 0.3 0.04
-3 -3 7 0.18 0.06
-3 -3 7 0.1 0.03
-3 -3 7 0.14 0.05
-3 -3 7 0.13 0.03
-3 -3 7 0.15 0.03
-2 -3 7 11.23 0.27
-2 -3 7 10.54 0.28
-2 -3 7 11 0.45
-2 -3 7 11.54 0.47
-2 -3 7 11.07 0.28
-1 -3 7 0.04 0.03
-1 -3 7 0.08 0.03
-1 -3 7 0.03 0.02
-1 -3 7 0.05 0.04
-1 -3 7 0.02 0.04
0 3 -7 4.97 0.16
0 -3 7 4.66 0.15
-1 3 -7 4.9 0.16
-1 3 -7 4.96 0.14
-1 3 -7 4.86 0.17
1 -3 7 4.73 0.15
-2 3 -7 1.04 0.06
-2 3 -7 0.94 0.07
-2 3 -7 1.01 0.08
-2 3 -7 0.94 0.08
-2 3 -7 0.97 0.07
-2 3 -7 1.1 0.08
-3 3 -7 14.63 0.36
-3 3 -7 14.78 0.4
-3 3 -7 15.03 0.36
-3 3 -7 15.37 0.37
-3 3 -7 15.2 0.42
-3 3 -7 14.01 0.48
-3 3 -7 15.05 0.43
-4 3 -7 0.06 0.03
-4 3 -7 0.05 0.03
-4 3 -7 0.06 0.03
-4 3 -7 0.08 0.04
-4 3 -7 0.06 0.04
-4 3 -7 0.23 0.05
-5 3 -7 0.12 0.04
-5 3 -7 0.13 0.03
-5 3 -7 0.11 0.03
-5 3 -7 0.11 0.04
-5 3 -7 0.07 0.03
-6 3 -7 5.82 0.15
-6 3 -7 5.98 0.18
-6 3 -7 5.81 0.15
-6 -2 7 65.83 1.31
-6 -2 7 63.55 1.61
-5 -2 7 0.04 0.03
-5 -2 7 0.02 0.02
-5 -2 7 -0.01 0.04
-5 -2 7 0.09 0.04
-4 -2 7 0.06 0.03
-4 -2 7 0.17 0.07
-4 -2 7 0 0.04
-4 -2 7 0.1 0.03
-4 -2 7 0.09 0.04
-3 -2 7 4.63 0.14
-3 -2 7 4.68 0.15
-3 -2 7 4.54 0.15
-3 -2 7 5.15 0.26
-3 -2 7 4.71 0.17
-3 -2 7 4.59 0.15
-3 -2 7 4.87 0.21
-2 -2 7 13.84 0.55
-2 -2 7 14.27 0.34
-2 -2 7 14.43 0.34
-2 -2 7 14.65 0.55
-1 -2 7 41.33 1.38
-1 -2 7 41.74 1.33
0 -2 7 16.81 0.58
-1 2 -7 100.11 2.33
-2 2 -7 2.24 0.1
-2 2 -7 2.4 0.09
-2 2 -7 2.74 0.11
-2 2 -7 2.36 0.11
-3 2 -7 25.17 0.63
-3 2 -7 24.31 0.65
-3 2 -7 24.8 0.56
-3 2 -7 25.12 0.75
-3 2 -7 24.99 0.54
-3 2 -7 24.3 0.56
-4 2 -7 0.77 0.05
-4 2 -7 0.72 0.07
-4 2 -7 0.81 0.08
-4 2 -7 0.81 0.07
-4 2 -7 0.72 0.08
-4 2 -7 0.78 0.08
-5 2 -7 0.48 0.07
-5 2 -7 0.45 0.07
-5 2 -7 0.44 0.06
-5 2 -7 0.48 0.05
-5 2 -7 0.53 0.06
-5 2 -7 0.49 0.05
-6 2 -7 6.01 0.2
-6 2 -7 5.81 0.16
-6 2 -7 5.89 0.2
-6 2 -7 5.41 0.16
-6 2 -7 5.51 0.18
-6 -1 7 24.2 0.51
-6 -1 7 23.18 0.64
-5 -1 7 48.54 0.99
-5 -1 7 49.39 1.03
-5 -1 7 45.46 1.23
-5 -1 7 45.01 1.59
-4 -1 7 38.8 0.86
-4 -1 7 38.84 0.83
-4 -1 7 37.8 1.04
-4 -1 7 38.81 1.34
-4 -1 7 39.25 0.84
-3 -1 7 2.91 0.16
-3 -1 7 2.9 0.11
-3 -1 7 2.71 0.12
-3 -1 7 2.86 0.19
-3 -1 7 2.93 0.11
-3 -1 7 2.86 0.11
-3 -1 7 3.02 0.19
-3 -1 7 3.4 0.12
-2 -1 7 11.62 0.4
-2 -1 7 11.68 0.38
-2 -1 7 11.08 0.45
-2 -1 7 11.47 0.45
-1 -1 7 45.17 1.49
-1 -1 7 45.85 1.44
-2 1 -7 34.98 0.86
-3 1 -7 33.16 0.74
-3 1 -7 34.4 0.86
-3 1 -7 34.42 0.72
-3 1 -7 34.99 0.83
-3 1 -7 35.75 1.01
-3 1 -7 34.3 0.75
-3 1 -7 34.47 0.74
-4 1 -7 0.19 0.05
-4 1 -7 0.22 0.04
-4 1 -7 0.25 0.05
-4 1 -7 0.23 0.04
-4 1 -7 0.47 0.06
-5 1 -7 2.61 0.13
-5 1 -7 2.69 0.1
-5 1 -7 2.65 0.13
-5 1 -7 2.76 0.14
-5 1 -7 2.51 0.14
-6 1 -7 2.91 0.1
-6 1 -7 3.02 0.13
-6 1 -7 2.98 0.14
-6 1 -7 3.14 0.12
-7 1 -7 1.09 0.06
-6 0 7 4.81 0.14
-6 0 7 5.22 0.16
-6 0 7 5.1 0.13
-5 0 7 97.2 2.01
-5 0 7 97.12 2.39
-5 0 7 98.46 1.98
-5 0 7 97.12 2.02
-4 0 7 68.8 1.42
-4 0 7 67.25 1.44
-4 0 7 68.32 1.96
-4 0 7 67.06 1.71
-4 0 7 66.65 1.4
-4 0 7 68.31 2.23
-3 0 7 31.57 0.68
-3 0 7 32.62 0.98
-3 0 7 31.02 0.69
-3 0 7 32.55 0.7
-3 0 7 31.77 0.72
-3 0 7 31.64 0.67
-3 0 7 34.08 1.12
-3 0 7 31.59 1.09
-3 0 7 30.73 0.91
-2 0 7 0.87 0.08
-2 0 7 0.83 0.09
-2 0 7 0.82 0.09
-2 0 7 0.89 0.08
-1 0 7 8.23 0.33
-1 0 7 8.09 0.29
0 0 -7 1.39 0.09
-2 0 -7 36.46 0.89
-3 0 -7 2.69 0.12
-4 0 -7 38.65 0.85
-4 0 -7 39.13 0.97
-4 0 -7 38.52 0.82
-4 0 -7 39.05 0.93
-5 0 -7 0.18 0.05
-5 0 -7 0.22 0.03
-5 0 -7 0.25 0.05
-6 0 -7 13.27 0.38
-6 0 -7 13.55 0.31
-6 0 -7 13.06 0.38
-7 0 -7 0.04 0.02
-6 1 7 8.74 0.21
-6 1 7 9.05 0.21
-5 1 7 0.05 0.03
-5 1 7 0.04 0.02
-5 1 7 0.06 0.03
-4 1 7 14.49 0.35
-4 1 7 15.03 0.39
-4 1 7 14.14 0.45
-4 1 7 14.57 0.53
-4 1 7 14.07 0.57
-3 1 7 27.24 0.76
-3 1 7 26.83 0.82
-3 1 7 26.8 0.6
-3 1 7 26.99 0.61
-3 1 7 28.62 0.6
-3 1 7 28.17 0.87
-3 1 7 28.36 0.98
-3 1 7 27.01 0.64
-2 1 7 48.25 0.98
-2 1 7 49.03 1.41
-2 1 7 49.52 1.34
-2 1 7 48.88 1.6
-2 1 7 48.06 1.04
-2 1 7 46.37 1.54
-2 1 7 48.34 1.01
-1 1 7 0.92 0.08
-1 1 7 1.03 0.09
0 -1 -7 47.06 1.62
0 1 7 48 1.29
-2 -1 -7 70.82 1.67
-3 -1 -7 0.35 0.05
-3 -1 -7 0.33 0.05
-3 -1 -7 0.25 0.04
-4 -1 -7 54.25 1.3
-4 -1 -7 53.54 1.11
-4 -1 -7 52.89 1.14
-5 -1 -7 40.48 1
-5 -1 -7 39.21 0.88
-5 -1 -7 40.74 0.85
-5 -1 -7 40.66 0.96
-6 -1 -7 3.31 0.13
-6 -1 -7 3.41 0.15
-6 -1 -7 3.42 0.15
-6 -1 -7 3.48 0.11
-7 -1 -7 0.04 0.02
-5 2 7 9.57 0.24
-5 2 7 9.97 0.27
-5 2 7 9.66 0.24
-4 2 7 34.99 0.76
-4 2 7 36.78 0.8
-4 2 7 34.3 1.08
-4 2 7 33.7 0.73
-3 2 7 1.81 0.1
-3 2 7 1.97 0.1
-3 2 7 1.82 0.09
-3 2 7 1.9 0.15
-2 2 7 5.29 0.25
-2 2 7 4.97 0.23
-2 2 7 5.16 0.16
-2 2 7 4.91 0.17
-1 2 7 0.57 0.07
-1 2 7 0.47 0.05
-1 2 7 0.52 0.07
0 -2 -7 11.25 0.45
0 2 7 12.21 0.39
-1 -2 -7 15.23 0.54
1 2 7 15.28 0.47
2 2 7 4.38 0.18
-3 -2 -7 32.6 0.8
-3 -2 -7 31.46 0.74
-3 -2 -7 31.54 0.71
-4 -2 -7 1.13 0.08
-4 -2 -7 1.25 0.06
-4 -2 -7 1.33 0.09
-5 -2 -7 2.01 0.11
-5 -2 -7 2.23 0.09
-6 -2 -7 55.62 1.12
-6 -2 -7 53.45 1.25
-6 -2 -7 54.83 1.16
-7 -2 -7 18.28 0.44
-7 -2 -7 17.98 0.42
-5 3 7 2.54 0.09
-5 3 7 2.38 0.1
-5 3 7 2.47 0.08
-4 3 7 0 0.03
-4 3 7 0.12 0.03
-3 3 7 1.75 0.09
-3 3 7 1.68 0.1
-3 3 7 1.72 0.14
-3 3 7 2.04 0.09
-2 3 7 25.43 0.56
-2 3 7 25.66 0.82
-2 3 7 25.14 0.58
1 -3 -7 5.47 0.17
-1 3 7 5.24 0.24
-1 3 7 5.52 0.17
-1 3 7 5.86 0.25
-1 3 7 5.49 0.18
0 -3 -7 5.69 0.17
0 3 7 5.78 0.17
0 3 7 5.3 0.23
-1 -3 -7 63.06 1.25
-1 -3 -7 62.38 1.37
1 3 7 64.96 1.7
-2 -3 -7 1.75 0.08
-2 -3 -7 1.83 0.09
-2 -3 -7 1.82 0.08
-2 -3 -7 1.91 0.09
-2 -3 -7 1.85 0.09
-3 -3 -7 7.52 0.2
-3 -3 -7 7.48 0.24
-3 -3 -7 7.58 0.23
-3 -3 -7 7.47 0.2
-3 -3 -7 7.15 0.2
-3 -3 -7 7.5 0.2
-4 -3 -7 43.62 0.96
-4 -3 -7 44.57 0.93
-5 -3 -7 43.78 0.91
-5 -3 -7 42.8 0.95
-6 -3 -7 0.14 0.04
-6 -3 -7 0.12 0.02
-7 -3 -7 4 0.14
-4 4 7 4.76 0.14
-4 4 7 4.73 0.14
-4 4 7 5.01 0.16
-3 4 7 4.03 0.14
-3 4 7 3.88 0.15
-3 4 7 3.54 0.2
-3 4 7 3.67 0.13
-2 4 7 19.6 0.45
-2 4 7 19.42 0.47
-1 4 7 47.81 1.39
-1 4 7 47.52 0.96
-1 4 7 45.71 0.99
-1 4 7 46.1 1
0 -4 -7 4.49 0.17
0 -4 -7 4.72 0.16
0 4 7 4.34 0.21
0 4 7 4.79 0.16
0 4 7 4.74 0.22
0 4 7 4.71 0.17
-1 -4 -7 18.77 0.44
-1 -4 -7 19.84 0.44
-1 -4 -7 19.89 0.47
-1 -4 -7 19.7 0.47
-1 -4 -7 19 0.45
1 4 7 18.62 0.6
1 4 7 20.21 0.44
-2 -4 -7 21.18 0.51
-2 -4 -7 20.98 0.47
-2 -4 -7 20.55 0.49
-2 -4 -7 20.6 0.48
-2 -4 -7 21.2 0.48
-3 -4 -7 1.64 0.09
-3 -4 -7 1.77 0.09
-3 -4 -7 1.78 0.1
-3 -4 -7 1.83 0.08
-3 -4 -7 1.78 0.09
-4 -4 -7 1.23 0.07
-4 -4 -7 1.21 0.09
-4 -4 -7 1.25 0.07
-4 -4 -7 1.37 0.09
-5 -4 -7 0.88 0.08
-5 -4 -7 0.82 0.05
-6 -4 -7 1.14 0.08
-6 -4 -7 0.97 0.05
-7 -4 -7 0.74 0.06
-3 5 7 9.14 0.22
-3 5 7 9.1 0.26
-3 5 7 9.03 0.23
-3 5 7 8.51 0.22
-2 5 7 43.32 0.92
-2 5 7 41.56 1.28
-2 5 7 43.1 0.89
-2 5 7 43.24 0.91
1 -5 -7 0.49 0.07
-1 5 7 0.25 0.05
-1 5 7 0.16 0.06
-1 5 7 0.2 0.04
0 -5 -7 7.11 0.22
0 -5 -7 6.92 0.21
0 -5 -7 7.2 0.23
0 5 7 7.43 0.24
0 5 7 6.98 0.21
-1 -5 -7 0.43 0.06
-1 -5 -7 0.38 0.05
-1 -5 -7 0.46 0.04
-1 -5 -7 0.4 0.05
-2 -5 -7 0.32 0.05
-2 -5 -7 0.5 0.06
-2 -5 -7 0.23 0.04
-2 -5 -7 0.3 0.04
-3 -5 -7 25.39 0.56
-3 -5 -7 24.9 0.59
-3 -5 -7 25.23 0.62
-3 -5 -7 25.33 0.57
-3 -5 -7 25.53 0.57
-4 -5 -7 1.99 0.09
-4 -5 -7 2.27 0.11
-4 -5 -7 2.13 0.1
-4 -5 -7 2.19 0.09
-5 -5 -7 5.61 0.17
-5 -5 -7 5.86 0.17
-5 -5 -7 5.62 0.19
-6 -5 -7 16.95 0.38
-6 -5 -7 17.51 0.42
2 -6 -7 6.13 0.18
-2 6 7 6.47 0.19
-2 6 7 6.19 0.18
-2 6 7 6.69 0.2
1 -6 -7 10.11 0.27
1 -6 -7 9.78 0.28
-1 6 7 9.37 0.26
-1 6 7 10.19 0.28
0 -6 -7 45.31 1
0 -6 -7 43.56 0.97
0 -6 -7 45.11 0.92
0 6 7 44.67 0.97
0 6 7 44.17 0.92
-1 -6 -7 7.91 0.25
-1 -6 -7 8.24 0.23
-1 -6 -7 7.98 0.25
1 6 7 8.1 0.26
-2 -6 -7 5.3 0.18
-2 -6 -7 5.46 0.19
-2 -6 -7 5.2 0.16
-2 -6 -7 5.41 0.18
-3 -6 -7 3.75 0.13
-3 -6 -7 3.72 0.13
-3 -6 -7 3.71 0.14
-3 -6 -7 3.51 0.15
-4 -6 -7 0.67 0.06
-4 -6 -7 0.63 0.06
-4 -6 -7 0.57 0.05
-5 -6 -7 9.75 0.25
-5 -6 -7 9.57 0.25
-5 -6 -7 9.55 0.26
-6 -6 -7 0.85 0.05
-6 -6 -7 0.79 0.05
-6 -6 -7 0.79 0.06
1 -7 -7 6.17 0.19
-1 7 7 6.01 0.17
-1 7 7 6.4 0.18
0 -7 -7 0.19 0.04
0 -7 -7 0.17 0.04
0 7 7 0.18 0.04
0 7 7 0.24 0.04
-1 -7 -7 1.19 0.08
-1 -7 -7 1.32 0.08
1 7 7 1.34 0.09
-2 -7 -7 3.54 0.13
-2 -7 -7 3.59 0.12
-2 -7 -7 3.69 0.13
-3 -7 -7 31.08 0.68
-3 -7 -7 33.6 0.69
-3 -7 -7 31.88 0.7
-4 -7 -7 3.9 0.13
-4 -7 -7 4.23 0.13
-5 -7 -7 0.51 0.04
-5 -7 -7 0.52 0.04
-1 -8 -7 13.65 0.31
-1 -8 -7 14.15 0.33
1 8 7 13.69 0.34
-2 -8 -7 5.5 0.16
-2 -8 -7 5.57 0.16
-3 -8 -7 10.09 0.24
-3 -8 -7 10.14 0.25
-4 -8 -7 1.16 0.05
-3 -7 8 0.15 0.03
-3 -7 8 0.12 0.03
-2 -7 8 0 0.02
-2 -7 8 0 0.02
-1 -7 8 0.02 0.02
-1 -7 8 0.06 0.03
0 7 -8 1.48 0.08
0 7 -8 1.39 0.08
0 -7 8 1.21 0.08
0 -7 8 1.33 0.07
-1 7 -8 2.28 0.1
-1 7 -8 2.43 0.1
-1 7 -8 2.3 0.1
-1 7 -8 2.24 0.09
1 -7 8 2.32 0.1
-5 -6 8 4.12 0.12
-5 -6 8 3.89 0.12
-4 -6 8 0.28 0.03
-4 -6 8 0.27 0.04
-3 -6 8 2.46 0.1
-3 -6 8 2.59 0.11
-3 -6 8 2.66 0.1
-2 -6 8 3.91 0.13
-2 -6 8 3.99 0.15
-2 -6 8 4.25 0.15
-1 -6 8 26.98 0.6
-1 -6 8 27.64 0.63
0 6 -8 31.62 0.72
0 6 -8 31.73 0.68
0 6 -8 31.64 0.76
0 -6 8 31.06 0.67
0 -6 8 31.69 0.72
-1 6 -8 1.94 0.1
-1 6 -8 1.87 0.1
-1 6 -8 1.91 0.1
-1 6 -8 1.72 0.1
1 -6 8 1.9 0.11
-2 6 -8 18.8 0.42
-2 6 -8 18.18 0.42
-2 6 -8 17.93 0.45
-2 6 -8 17.36 0.47
-3 6 -8 1.9 0.08
-3 6 -8 1.76 0.09
-5 -5 8 0.36 0.06
-5 -5 8 0.37 0.04
-5 -5 8 0.38 0.04
-4 -5 8 0.11 0.03
-4 -5 8 0.14 0.04
-4 -5 8 0.1 0.03
-3 -5 8 71.68 1.46
-3 -5 8 74.32 1.51
-3 -5 8 72.74 1.43
-3 -5 8 69.31 2.37
-2 -5 8 44.23 0.94
-2 -5 8 44.32 0.94
-2 -5 8 44.47 0.91
-2 -5 8 42.44 1.51
-1 -5 8 30.84 0.68
-1 -5 8 31.23 0.68
-1 -5 8 31.8 0.71
0 5 -8 28.16 0.64
0 5 -8 26.75 0.6
0 -5 8 26.88 0.64
0 -5 8 26.83 0.6
-1 5 -8 5.05 0.18
-1 5 -8 4.56 0.17
-1 5 -8 5.09 0.18
1 -5 8 4.57 0.18
1 -5 8 4.82 0.16
-2 5 -8 11.47 0.31
-2 5 -8 11.33 0.28
-2 5 -8 11.61 0.32
-2 5 -8 11.23 0.3
-2 5 -8 11.46 0.34
-3 5 -8 5.27 0.15
-3 5 -8 5.44 0.19
-3 5 -8 6.57 0.21
-3 5 -8 5.16 0.16
-3 5 -8 5.6 0.17
-4 5 -8 0.01 0.02
-4 5 -8 0.06 0.03
-4 5 -8 0.02 0.02
-4 5 -8 0.03 0.02
-6 -4 8 3.09 0.09
-6 -4 8 3.21 0.13
-5 -4 8 0.58 0.08
-5 -4 8 0.55 0.05
-5 -4 8 0.56 0.05
-4 -4 8 0.72 0.09
-4 -4 8 0.67 0.05
-4 -4 8 0.8 0.07
-4 -4 8 0.7 0.06
-4 -4 8 0.65 0.1
-3 -4 8 8.11 0.23
-3 -4 8 8.59 0.23
-3 -4 8 7.93 0.3
-3 -4 8 9.94 0.41
-3 -4 8 8.18 0.23
-2 -4 8 36.84 1.31
-2 -4 8 37.6 0.81
-2 -4 8 37.72 0.82
-2 -4 8 38.41 0.79
-1 -4 8 152.93 3
-1 -4 8 146.99 2.89
-1 -4 8 151.61 3.08
0 4 -8 30.29 0.66
0 4 -8 31.2 0.7
0 -4 8 29.34 0.69
0 -4 8 30.15 0.65
-1 4 -8 371.4 6.95
-1 4 -8 382.05 7.22
-1 4 -8 357.69 7.94
-1 4 -8 357.54 7.44
1 -4 8 378.72 6.94
1 -4 8 365.3 7.22
1 -4 8 368.3 7.22
-2 4 -8 13.89 0.39
-2 4 -8 13.49 0.37
-2 4 -8 14.28 0.37
-2 4 -8 14.18 0.35
-2 4 -8 14.07 0.34
-3 4 -8 8.53 0.26
-3 4 -8 8.54 0.28
-3 4 -8 8.42 0.24
-3 4 -8 8.57 0.24
-3 4 -8 8.63 0.23
-3 4 -8 8.25 0.27
-4 4 -8 3.67 0.12
-4 4 -8 3.65 0.14
-4 4 -8 3.75 0.15
-4 4 -8 3.83 0.13
-4 4 -8 3.77 0.15
-5 4 -8 3.19 0.12
-5 4 -8 3.13 0.1
-6 -3 8 0.16 0.02
-6 -3 8 0.17 0.03
-6 -3 8 0.18 0.04
-5 -3 8 0.28 0.06
-5 -3 8 0.3 0.04
-5 -3 8 0.27 0.03
-4 -3 8 2.97 0.16
-4 -3 8 2.7 0.1
-4 -3 8 2.83 0.11
-4 -3 8 2.69 0.19
-3 -3 8 7.1 0.21
-3 -3 8 7.32 0.28
-3 -3 8 7.36 0.21
-3 -3 8 7.32 0.35
-3 -3 8 7.38 0.2
-2 -3 8 2.39 0.1
-2 -3 8 2.38 0.11
-2 -3 8 2.43 0.11
-2 -3 8 2.3 0.13
-2 -3 8 2.37 0.17
-1 -3 8 21.83 0.8
-1 -3 8 23.32 0.51
-1 -3 8 22.8 0.51
-1 -3 8 23.02 0.53
0 3 -8 6.61 0.2
0 3 -8 6.72 0.22
0 -3 8 7.05 0.2
0 -3 8 6.64 0.18
0 -3 8 6.82 0.21
-1 3 -8 181.98 4.03
-1 3 -8 185.92 3.54
-1 3 -8 185.39 3.68
-1 3 -8 190.33 3.77
1 -3 8 187.23 3.53
1 -3 8 181.81 3.68
-2 3 -8 24.04 0.63
-2 3 -8 24.12 0.54
-2 3 -8 23.79 0.54
-2 3 -8 24.45 0.61
-2 3 -8 24.14 0.56
-3 3 -8 111.56 2.18
-3 3 -8 111.7 2.25
-3 3 -8 113.17 2.63
-3 3 -8 111.86 2.5
-3 3 -8 111.63 2.31
-4 3 -8 0.77 0.07
-4 3 -8 0.69 0.05
-4 3 -8 0.91 0.08
-4 3 -8 0.72 0.06
-4 3 -8 0.71 0.07
-5 3 -8 2.32 0.09
-5 3 -8 2.17 0.1
-5 3 -8 2.34 0.09
-5 3 -8 2.18 0.11
-5 3 -8 2.28 0.11
-6 -2 8 0.15 0.04
-6 -2 8 0.15 0.02
-6 -2 8 0.18 0.02
-5 -2 8 1.1 0.06
-5 -2 8 0.99 0.09
-5 -2 8 0.98 0.06
-4 -2 8 0.84 0.1
-4 -2 8 0.84 0.06
-4 -2 8 0.77 0.1
-4 -2 8 0.84 0.06
-4 -2 8 0.88 0.07
-3 -2 8 0.04 0.03
-3 -2 8 0.13 0.03
-3 -2 8 0 0.03
-3 -2 8 0 0.02
-3 -2 8 0 0.03
-3 -2 8 0.05 0.02
-2 -2 8 7.81 0.37
-2 -2 8 8 0.3
-2 -2 8 8.25 0.22
-2 -2 8 8.14 0.36
-2 -2 8 8.02 0.22
-2 -2 8 8.48 0.23
-1 -2 8 0.58 0.06
-1 -2 8 0.6 0.06
-1 -2 8 0.55 0.04
-1 -2 8 0.59 0.08
0 2 -8 90.28 1.73
0 -2 8 87.25 1.81
0 -2 8 90.67 1.73
0 -2 8 87.76 2.73
-1 2 -8 65.63 1.4
-1 2 -8 67.63 1.39
-1 2 -8 67.59 1.59
1 -2 8 68.03 1.33
-2 2 -8 7.1 0.21
-2 2 -8 7.37 0.2
-2 2 -8 7.36 0.24
-2 2 -8 7.21 0.23
-2 2 -8 7.33 0.22
-3 2 -8 38.88 0.83
-3 2 -8 37.91 0.83
-3 2 -8 38.38 0.92
-3 2 -8 38.42 0.8
-3 2 -8 38.35 0.96
-4 2 -8 20.19 0.55
-4 2 -8 19.54 0.47
-4 2 -8 21.06 0.54
-4 2 -8 19.96 0.46
-4 2 -8 19.86 0.46
-5 2 -8 0.87 0.06
-5 2 -8 0.8 0.06
-5 2 -8 0.82 0.08
-5 2 -8 0.88 0.08
-6 2 -8 0.43 0.03
-6 2 -8 0.51 0.05
-6 2 -8 0.4 0.04
-6 -1 8 2.86 0.13
-6 -1 8 2.91 0.09
-6 -1 8 2.73 0.09
-5 -1 8 4.88 0.17
-5 -1 8 4.63 0.14
-5 -1 8 4.53 0.21
-5 -1 8 4.72 0.14
-4 -1 8 63.11 1.33
-4 -1 8 63.89 1.35
-4 -1 8 61.5 1.32
-4 -1 8 64.48 1.62
-4 -1 8 63.97 2.1
-3 -1 8 0.17 0.04
-3 -1 8 0.1 0.03
-3 -1 8 0.07 0.03
-3 -1 8 0.11 0.06
-3 -1 8 0.3 0.06
-3 -1 8 0.14 0.03
-3 -1 8 0.27 0.04
-2 -1 8 5.01 0.16
-2 -1 8 4.65 0.16
-2 -1 8 4.86 0.15
-2 -1 8 4.82 0.22
-2 -1 8 4.82 0.25
-2 -1 8 5.11 0.22
-2 -1 8 4.74 0.25
-1 -1 8 37.7 0.77
-1 -1 8 38.71 0.8
-1 -1 8 36.73 0.8
-1 -1 8 37.04 1.22
-1 1 -8 37.65 0.93
-1 1 -8 38.41 0.78
-2 1 -8 19.33 0.44
-2 1 -8 19.77 0.44
-2 1 -8 19.47 0.46
-2 1 -8 19.2 0.52
-3 1 -8 4.41 0.14
-3 1 -8 4.28 0.15
-3 1 -8 4.37 0.15
-3 1 -8 4.27 0.17
-3 1 -8 4.15 0.17
-4 1 -8 0.1 0.03
-4 1 -8 0.18 0.03
-4 1 -8 0.04 0.03
-4 1 -8 -0.02 0.03
-4 1 -8 0.21 0.05
-5 1 -8 0 0.03
-5 1 -8 0.03 0.02
-5 1 -8 0.03 0.02
-5 1 -8 0.01 0.03
-6 1 -8 1.94 0.08
-6 1 -8 1.98 0.08
-6 1 -8 2.01 0.1
-6 1 -8 2.03 0.1
-6 0 8 29.02 0.6
-5 0 8 81.01 2.02
-5 0 8 82.56 1.67
-5 0 8 83.39 1.71
-5 0 8 81.41 1.7
-4 0 8 92.31 1.9
-4 0 8 89.5 1.86
-4 0 8 91.16 2.58
-4 0 8 88.96 1.77
-4 0 8 89.76 1.89
-4 0 8 92.95 2.95
-4 0 8 92.84 2.26
-3 0 8 45.69 1.02
-3 0 8 50.41 1.59
-3 0 8 45.11 1.38
-3 0 8 45.36 0.95
-3 0 8 47.12 0.97
-3 0 8 46.78 1
-2 0 8 67.12 2.18
-2 0 8 70.58 1.87
-2 0 8 70.98 2.26
-2 0 8 66.81 1.45
-2 0 8 69.8 1.37
-2 0 8 70.08 1.42
-2 0 8 71.61 1.98
-2 0 8 68.07 1.45
-1 0 8 1.01 0.09
-1 0 8 1.02 0.07
-1 0 8 0.93 0.06
-1 0 8 1.01 0.06
0 0 -8 3.06 0.16
-1 0 -8 1.73 0.09
-2 0 -8 32.65 0.81
-2 0 -8 32.32 0.71
-2 0 -8 33.36 0.71
-2 0 -8 31.37 0.7
-2 0 -8 33.16 0.68
-3 0 -8 0.15 0.03
-3 0 -8 0.2 0.04
-3 0 -8 0.18 0.04
-4 0 -8 6.04 0.18
-4 0 -8 6.47 0.18
-4 0 -8 6.31 0.2
-4 0 -8 6.39 0.22
-4 0 -8 6.4 0.22
-5 0 -8 21.38 0.55
-5 0 -8 21.37 0.56
-5 0 -8 20.3 0.48
-5 0 -8 20.21 0.47
-6 0 -8 6.97 0.19
-6 0 -8 7.31 0.23
-6 0 -8 6.85 0.23
-5 1 8 48.41 1.02
-5 1 8 49.64 1.04
-5 1 8 47.52 1.01
-4 1 8 8.79 0.24
-4 1 8 8.87 0.37
-4 1 8 8.94 0.26
-4 1 8 9.06 0.32
-4 1 8 8.95 0.24
-3 1 8 129.96 2.49
-3 1 8 128.11 2.56
-3 1 8 127.41 3.13
-3 1 8 129.81 3.6
-3 1 8 129.81 2.65
-3 1 8 129.52 4.11
-3 1 8 128.47 2.65
-2 1 8 41.59 0.88
-2 1 8 41.19 1.38
-2 1 8 40.06 1.16
-2 1 8 41.72 0.87
-2 1 8 40.46 0.9
-2 1 8 40.99 1.22
-2 1 8 40.12 0.84
-1 1 8 40.36 1.15
-1 1 8 40.77 0.88
-1 1 8 42.34 0.88
-1 1 8 41.17 0.84
0 -1 -8 25.3 0.92
0 1 8 26.27 0.76
0 1 8 26.11 0.55
-2 -1 -8 10.46 0.26
-2 -1 -8 10.53 0.31
-2 -1 -8 10.25 0.26
-2 -1 -8 10.18 0.28
-2 -1 -8 10.3 0.27
-2 -1 -8 9.99 0.27
-3 -1 -8 59.88 1.2
-3 -1 -8 59.58 1.41
-3 -1 -8 58.52 1.23
-3 -1 -8 59.24 1.17
-3 -1 -8 57.72 1.22
-3 -1 -8 59.21 1.3
-3 -1 -8 56.68 1.23
-4 -1 -8 10.9 0.27
-4 -1 -8 11.24 0.33
-4 -1 -8 11.04 0.28
-4 -1 -8 10.65 0.3
-5 -1 -8 48.86 1.06
-5 -1 -8 50.77 1.04
-5 -1 -8 48.72 1.21
-6 -1 -8 2.05 0.1
-6 -1 -8 2.05 0.11
-6 -1 -8 2.14 0.11
-6 -1 -8 2.22 0.08
-5 2 8 4.91 0.16
-5 2 8 4.84 0.14
-4 2 8 0.38 0.04
-4 2 8 0.48 0.05
-4 2 8 0.48 0.06
-3 2 8 4.94 0.15
-3 2 8 4.72 0.25
-3 2 8 4.85 0.16
-3 2 8 4.7 0.16
-3 2 8 5.12 0.18
-2 2 8 47.19 1.37
-2 2 8 45.73 0.94
-2 2 8 45.61 1
-2 2 8 44.91 0.97
-2 2 8 45.65 0.98
-1 2 8 33.11 0.98
-1 2 8 31.55 0.71
-1 2 8 31.49 0.93
-1 2 8 31.96 0.7
-1 2 8 31.99 0.68
0 -2 -8 62.24 1.25
0 -2 -8 62.39 1.3
0 2 8 62.11 1.31
0 2 8 61.74 1.69
0 2 8 65.27 1.25
-1 -2 -8 0.06 0.03
-1 -2 -8 0.07 0.03
-1 -2 -8 0.06 0.02
-1 -2 -8 0.26 0.04
-1 -2 -8 0.05 0.02
1 2 8 0.1 0.04
-2 -2 -8 9.56 0.25
-2 -2 -8 9.55 0.25
-2 -2 -8 9.55 0.26
-2 -2 -8 9.82 0.26
-2 -2 -8 10.31 0.28
2 2 8 9.9 0.34
-3 -2 -8 7.65 0.23
-3 -2 -8 7.49 0.21
-3 -2 -8 7.52 0.21
-3 -2 -8 7.55 0.21
-3 -2 -8 7.66 0.21
-3 -2 -8 7.98 0.25
-4 -2 -8 103.93 2.12
-4 -2 -8 104.7 2.1
-4 -2 -8 104.18 2.42
-4 -2 -8 100.31 2.13
-5 -2 -8 6.53 0.22
-5 -2 -8 6.52 0.23
-5 -2 -8 6.81 0.18
-6 -2 -8 10.56 0.25
-6 -2 -8 10.03 0.28
-7 -2 -8 0.73 0.05
-4 3 8 0.2 0.04
-4 3 8 0.15 0.03
-4 3 8 0.16 0.03
-3 3 8 7.77 0.22
-3 3 8 7.92 0.25
-3 3 8 7.69 0.21
-3 3 8 7.91 0.22
-2 3 8 17.21 0.41
-2 3 8 17.93 0.45
-2 3 8 17.67 0.61
-2 3 8 17.39 0.43
-2 3 8 17.67 0.42
-1 3 8 3.56 0.12
-1 3 8 3.74 0.15
-1 3 8 3.96 0.21
-1 3 8 3.83 0.2
-1 3 8 3.64 0.14
0 -3 -8 5.18 0.18
0 -3 -8 5.18 0.17
0 3 8 4.77 0.22
0 3 8 5.21 0.17
0 3 8 5.44 0.19
-1 -3 -8 1.63 0.08
-1 -3 -8 1.76 0.08
-1 -3 -8 1.57 0.09
-1 -3 -8 1.56 0.08
-1 -3 -8 1.75 0.09
1 3 8 1.63 0.09
1 3 8 1.69 0.12
-2 -3 -8 4.26 0.15
-2 -3 -8 4.47 0.15
-2 -3 -8 4.27 0.14
-2 -3 -8 4.12 0.16
-2 -3 -8 4.19 0.15
-3 -3 -8 33.67 0.77
-3 -3 -8 34.36 0.74
-3 -3 -8 34.57 0.75
-3 -3 -8 34.63 0.81
-3 -3 -8 34.56 0.72
-4 -3 -8 5.19 0.16
-4 -3 -8 4.8 0.15
-4 -3 -8 4.96 0.19
-5 -3 -8 0.03 0.02
-5 -3 -8 0.04 0.03
-6 -3 -8 18.12 0.45
-6 -3 -8 18.79 0.41
-7 -3 -8 0.83 0.05
-4 4 8 1.51 0.08
-4 4 8 1.39 0.06
-4 4 8 1.41 0.06
-3 4 8 2.57 0.11
-3 4 8 2.73 0.1
-3 4 8 2.67 0.12
-3 4 8 2.66 0.1
-2 4 8 -0.04 0.04
-2 4 8 0.04 0.02
-2 4 8 0.03 0.03
-2 4 8 -0.01 0.02
-2 4 8 0.04 0.03
-1 4 8 1.94 0.1
-1 4 8 1.71 0.1
-1 4 8 2.02 0.09
-1 4 8 2.08 0.15
0 -4 -8 25.23 0.55
0 -4 -8 24.27 0.56
0 -4 -8 24.23 0.58
0 -4 -8 25.41 0.59
0 4 8 24.65 0.79
0 4 8 24.89 0.55
0 4 8 24.83 0.59
-1 -4 -8 2.07 0.1
-1 -4 -8 2.12 0.09
-1 -4 -8 1.92 0.1
-1 -4 -8 1.99 0.1
-1 -4 -8 2.03 0.1
1 4 8 1.76 0.13
1 4 8 1.99 0.1
-2 -4 -8 3.08 0.12
-2 -4 -8 3.12 0.11
-2 -4 -8 3.1 0.13
-2 -4 -8 3.08 0.13
-3 -4 -8 17.94 0.42
-3 -4 -8 18.36 0.47
-3 -4 -8 17.28 0.45
-3 -4 -8 17.81 0.42
-3 -4 -8 17.93 0.42
-4 -4 -8 23.46 0.54
-4 -4 -8 22.3 0.57
-4 -4 -8 21.48 0.5
-4 -4 -8 22.22 0.51
-4 -4 -8 21.56 0.49
-5 -4 -8 6.4 0.18
-5 -4 -8 6.29 0.21
-5 -4 -8 6.23 0.18
-6 -4 -8 15.26 0.34
-6 -4 -8 14.76 0.38
-7 -4 -8 2.62 0.1
-3 5 8 3.83 0.12
-3 5 8 3.84 0.14
-2 5 8 2.08 0.11
-2 5 8 2.1 0.1
-2 5 8 2.2 0.1
1 -5 -8 1.03 0.08
-1 5 8 0.91 0.11
-1 5 8 1.01 0.07
-1 5 8 1.17 0.08
0 -5 -8 46.65 0.95
0 -5 -8 46.92 1.03
0 -5 -8 45.29 1
0 5 8 45.76 0.95
0 5 8 46.08 1.01
-1 -5 -8 20.73 0.51
-1 -5 -8 21.39 0.48
-1 -5 -8 20.31 0.46
-1 -5 -8 21.01 0.5
1 5 8 19.31 0.51
-2 -5 -8 0.74 0.07
-2 -5 -8 0.73 0.05
-2 -5 -8 0.73 0.07
-2 -5 -8 0.73 0.07
-2 -5 -8 0.68 0.07
-3 -5 -8 43.25 1
-3 -5 -8 43.65 0.9
-3 -5 -8 43.49 0.91
-3 -5 -8 43.41 0.93
-3 -5 -8 42.74 0.94
-4 -5 -8 12.59 0.34
-4 -5 -8 12.4 0.31
-4 -5 -8 12.85 0.31
-4 -5 -8 12.08 0.31
-5 -5 -8 0.55 0.06
-5 -5 -8 0.58 0.05
-5 -5 -8 0.55 0.05
-6 -5 -8 9.08 0.22
-6 -5 -8 9.1 0.24
-6 -5 -8 8.53 0.22
2 -6 -8 2.88 0.1
-2 6 8 3.11 0.12
-2 6 8 2.86 0.1
-2 6 8 2.98 0.1
1 -6 -8 0.25 0.05
1 -6 -8 0.28 0.04
-1 6 8 0.47 0.05
-1 6 8 0.32 0.04
0 -6 -8 8.71 0.24
0 -6 -8 8.77 0.26
0 -6 -8 8.73 0.25
0 6 8 8.87 0.24
0 6 8 9.08 0.26
-1 -6 -8 3.27 0.14
-1 -6 -8 3.31 0.14
-1 -6 -8 3.34 0.13
1 6 8 3.47 0.15
-2 -6 -8 1.92 0.1
-2 -6 -8 1.92 0.1
-2 -6 -8 2.08 0.11
-2 -6 -8 1.96 0.08
-3 -6 -8 1.65 0.09
-3 -6 -8 1.76 0.09
-3 -6 -8 1.67 0.08
-3 -6 -8 1.6 0.1
-4 -6 -8 4.16 0.13
-4 -6 -8 4.01 0.14
-5 -6 -8 1.56 0.07
-5 -6 -8 1.42 0.07
-5 -6 -8 1.45 0.08
-6 -6 -8 3.81 0.11
-6 -6 -8 3.71 0.11
-1 7 8 7.39 0.2
-1 7 8 7.22 0.19
0 -7 -8 3.37 0.13
0 7 8 3.55 0.13
-1 -7 -8 0.02 0.02
-1 -7 -8 0.04 0.02
1 7 8 0.07 0.03
-2 -7 -8 14.7 0.35
-2 -7 -8 14.56 0.36
-3 -7 -8 7.25 0.19
-3 -7 -8 7.17 0.2
-3 -7 -8 7.01 0.19
-4 -7 -8 2.81 0.1
-4 -7 -8 2.85 0.1
-5 -7 -8 1.62 0.06
-5 -7 -8 1.49 0.06
-2 -8 -8 0.13 0.03
-3 -8 -8 0.19 0.03
-3 -7 9 0.97 0.05
-2 -7 9 0.03 0.02
-2 -7 9 0.01 0.02
1 7 -9 0.2 0.03
-1 -7 9 0.25 0.04
-1 -7 9 0.2 0.03
0 7 -9 14.32 0.35
0 7 -9 14.77 0.37
0 -7 9 14.47 0.35
-1 7 -9 9.82 0.26
-4 -6 9 4.05 0.12
-4 -6 9 4.34 0.12
-3 -6 9 0.57 0.04
-3 -6 9 0.54 0.05
-2 -6 9 4.4 0.13
-2 -6 9 4.44 0.15
-2 -6 9 4.53 0.15
-1 -6 9 0.06 0.03
-1 -6 9 0.04 0.03
0 6 -9 7.76 0.23
0 6 -9 7.79 0.24
0 -6 9 7.64 0.21
0 -6 9 7.15 0.23
-1 6 -9 3.97 0.15
-1 6 -9 3.91 0.14
-1 6 -9 4.02 0.15
-1 6 -9 4.04 0.14
1 -6 9 3.79 0.15
-2 6 -9 2.16 0.09
-2 6 -9 2.14 0.1
-2 6 -9 1.84 0.09
-2 6 -9 2.1 0.09
-5 -5 9 4.33 0.13
-5 -5 9 4.36 0.12
-4 -5 9 13.71 0.32
-4 -5 9 13.33 0.32
-3 -5 9 2.05 0.09
-3 -5 9 2.19 0.09
-3 -5 9 2.08 0.1
-2 -5 9 0.05 0.03
-2 -5 9 0.02 0.02
-2 -5 9 0.04 0.03
-1 -5 9 6.66 0.21
-1 -5 9 6.41 0.2
0 5 -9 0.37 0.06
0 5 -9 0.36 0.05
0 -5 9 0.39 0.06
0 -5 9 0.41 0.05
-1 5 -9 4.34 0.17
-1 5 -9 4.71 0.16
-1 5 -9 4.74 0.17
1 -5 9 4.27 0.17
-2 5 -9 7.68 0.22
-2 5 -9 7.51 0.23
-2 5 -9 7.78 0.25
-3 5 -9 0.4 0.04
-3 5 -9 0.4 0.05
-3 5 -9 0.47 0.06
-5 -4 9 0.84 0.05
-5 -4 9 0.93 0.08
-5 -4 9 0.85 0.05
-4 -4 9 14.69 0.34
-4 -4 9 13.88 0.35
-4 -4 9 14.3 0.34
-4 -4 9 14.89 0.44
-3 -4 9 0.04 0.03
-3 -4 9 0.02 0.05
-3 -4 9 0.08 0.05
-3 -4 9 0.06 0.03
-3 -4 9 0 0.02
-2 -4 9 6.3 0.2
-2 -4 9 6.57 0.2
-2 -4 9 6.32 0.18
-1 -4 9 72.5 1.43
-1 -4 9 70.48 1.48
-1 -4 9 71.22 1.49
0 4 -9 4.66 0.17
0 4 -9 4.85 0.19
0 -4 9 4.88 0.17
0 -4 9 5.11 0.19
-1 4 -9 0.57 0.07
-1 4 -9 0.52 0.06
-1 4 -9 0.57 0.07
1 -4 9 0.51 0.07
1 -4 9 0.52 0.07
1 -4 9 0.42 0.06
-2 4 -9 22.01 0.56
-2 4 -9 21.26 0.49
-2 4 -9 21.7 0.5
-2 4 -9 22.08 0.52
-3 4 -9 0.79 0.07
-3 4 -9 0.74 0.05
-3 4 -9 0.75 0.06
-3 4 -9 0.78 0.07
-3 4 -9 0.76 0.07
-4 4 -9 2.13 0.08
-4 4 -9 1.94 0.1
-4 4 -9 2.04 0.1
-4 4 -9 2.11 0.09
-5 -3 9 1.14 0.06
-5 -3 9 1.15 0.09
-5 -3 9 1.18 0.06
-4 -3 9 12.09 0.29
-4 -3 9 11.67 0.39
-4 -3 9 11.76 0.29
-4 -3 9 11.19 0.29
-3 -3 9 4.95 0.22
-3 -3 9 5.41 0.17
-3 -3 9 5.01 0.16
-3 -3 9 5.01 0.27
-3 -3 9 5.39 0.16
-2 -3 9 2.78 0.12
-2 -3 9 2.95 0.11
-2 -3 9 2.91 0.15
-2 -3 9 2.71 0.12
-1 -3 9 77.89 1.52
-1 -3 9 76.39 1.58
-1 -3 9 76.59 1.6
0 3 -9 102.65 2.01
0 3 -9 102.28 2.11
0 -3 9 105.07 2.01
0 -3 9 103.24 2.1
-1 3 -9 90.35 1.89
-1 3 -9 89.9 2.03
-1 3 -9 89.4 1.87
-1 3 -9 93.86 1.8
1 -3 9 92.5 1.79
1 -3 9 92.46 1.88
-2 3 -9 0.03 0.02
-2 3 -9 -0.02 0.03
-2 3 -9 0.01 0.03
-2 3 -9 0.05 0.04
-2 3 -9 0.01 0.03
-3 3 -9 189.84 3.89
-3 3 -9 191.69 3.77
-3 3 -9 189.15 4.17
-3 3 -9 195.07 3.64
-3 3 -9 188.43 4.41
-4 3 -9 5.63 0.17
-4 3 -9 5.55 0.2
-4 3 -9 5.75 0.18
-4 3 -9 5.72 0.2
-5 3 -9 6.82 0.21
-5 3 -9 6.75 0.18
-5 3 -9 6.6 0.18
-5 3 -9 6.91 0.21
-5 -2 9 0.08 0.02
-5 -2 9 0.38 0.06
-4 -2 9 1.72 0.09
-4 -2 9 1.65 0.08
-4 -2 9 1.78 0.08
-4 -2 9 1.61 0.12
-4 -2 9 1.71 0.14
-3 -2 9 0.11 0.05
-3 -2 9 0.14 0.03
-3 -2 9 0.07 0.03
-3 -2 9 0.14 0.03
-3 -2 9 0.07 0.06
-2 -2 9 19.94 0.45
-2 -2 9 19.45 0.45
-2 -2 9 19.34 0.46
-1 -2 9 17.8 0.45
-1 -2 9 18.65 0.43
-1 -2 9 19.14 0.43
0 2 -9 10.13 0.27
0 2 -9 10.5 0.3
0 -2 9 10.97 0.28
0 -2 9 10.1 0.29
-1 2 -9 4.26 0.16
-1 2 -9 4.14 0.16
-1 2 -9 4.28 0.15
-1 2 -9 4.09 0.13
1 -2 9 3.9 0.16
1 -2 9 4.05 0.15
-2 2 -9 0 0.03
-2 2 -9 0.04 0.02
-2 2 -9 0 0.03
-2 2 -9 0.02 0.03
-3 2 -9 117.39 2.23
-3 2 -9 113.72 2.69
-3 2 -9 115.43 2.3
-3 2 -9 113.16 2.55
-3 2 -9 114.1 2.36
-4 2 -9 0.63 0.05
-4 2 -9 0.68 0.08
-4 2 -9 0.52 0.06
-4 2 -9 0.58 0.07
-5 2 -9 103.44 2.13
-5 2 -9 105.17 2.42
-5 2 -9 102.34 2.29
-5 2 -9 102.38 2.1
-5 -1 9 0.17 0.03
-5 -1 9 0.16 0.04
-5 -1 9 0.25 0.05
-5 -1 9 0.13 0.03
-4 -1 9 0.32 0.04
-4 -1 9 0.29 0.04
-4 -1 9 0.39 0.06
-4 -1 9 0.4 0.07
-4 -1 9 0.45 0.09
-4 -1 9 0.3 0.05
-3 -1 9 1.41 0.14
-3 -1 9 1.39 0.07
-3 -1 9 1.44 0.11
-3 -1 9 1.32 0.08
-3 -1 9 1.31 0.07
-3 -1 9 1.43 0.09
-2 -1 9 0.97 0.07
-2 -1 9 0.91 0.06
-2 -1 9 0.87 0.09
-2 -1 9 0.95 0.07
-2 -1 9 0.79 0.09
-1 -1 9 12 0.32
-1 -1 9 12.04 0.29
-1 -1 9 11.61 0.41
-1 -1 9 12.21 0.3
0 1 -9 9.48 0.25
0 1 -9 8.97 0.27
0 -1 9 9.1 0.26
0 -1 9 9.18 0.23
0 -1 9 8.96 0.38
0 -1 9 9.27 0.25
-1 1 -9 0.32 0.05
-1 1 -9 0.23 0.04
-1 1 -9 0.3 0.05
-1 1 -9 0.29 0.03
1 -1 9 0.23 0.04
-2 1 -9 8.23 0.22
-2 1 -9 8.34 0.24
-2 1 -9 8.49 0.23
-2 1 -9 8.3 0.27
-3 1 -9 2.65 0.13
-3 1 -9 2.92 0.12
-3 1 -9 2.71 0.11
-4 1 -9 6.17 0.19
-4 1 -9 6.71 0.23
-4 1 -9 6.55 0.23
-4 1 -9 6.24 0.18
-4 1 -9 6.21 0.19
-5 1 -9 4.34 0.14
-5 1 -9 4.24 0.14
-5 1 -9 4.78 0.18
-5 1 -9 4.52 0.18
-6 1 -9 8.1 0.23
-6 1 -9 7.82 0.24
-6 1 -9 7.95 0.2
-6 1 -9 8.01 0.2
-5 0 9 12.69 0.3
-5 0 9 12.44 0.32
-5 0 9 12.71 0.38
-5 0 9 12.47 0.3
-4 0 9 1.58 0.08
-4 0 9 1.55 0.12
-4 0 9 1.55 0.09
-4 0 9 1.47 0.08
-4 0 9 1.4 0.07
-3 0 9 13.07 0.48
-3 0 9 13.86 0.43
-3 0 9 13.21 0.35
-3 0 9 12.86 0.33
-3 0 9 13.03 0.53
-3 0 9 13.15 0.32
-3 0 9 13.6 0.33
-2 0 9 31.95 0.97
-2 0 9 31.14 0.67
-2 0 9 32.13 0.7
-2 0 9 31.93 0.7
-2 0 9 30.64 0.93
-1 0 9 0.01 0.02
-1 0 9 0.02 0.03
-1 0 9 0.14 0.04
-1 0 9 0.08 0.03
0 0 -9 1.07 0.08
0 0 -9 0.95 0.07
0 0 9 0.93 0.07
0 0 9 1.01 0.08
0 0 9 0.87 0.05
-1 0 -9 0.19 0.04
-1 0 -9 0.22 0.04
-1 0 -9 0.21 0.03
-1 0 -9 0.19 0.03
1 0 9 0.27 0.04
-2 0 -9 1.29 0.08
-2 0 -9 1.26 0.08
-2 0 -9 1.16 0.08
-2 0 -9 1.25 0.07
-2 0 -9 1.26 0.08
-3 0 -9 4.14 0.14
-3 0 -9 4.11 0.16
-3 0 -9 4.3 0.17
-3 0 -9 4.14 0.15
-3 0 -9 4.13 0.15
-4 0 -9 3.77 0.13
-4 0 -9 3.64 0.14
-4 0 -9 3.87 0.14
-4 0 -9 3.87 0.16
-5 0 -9 3.67 0.12
-5 0 -9 3.57 0.13
-5 0 -9 3.82 0.16
-6 0 -9 2.29 0.1
-6 0 -9 2.14 0.1
-6 0 -9 2.36 0.08
-6 0 -9 2.2 0.08
-5 1 9 1.4 0.06
-5 1 9 1.42 0.07
-5 1 9 1.42 0.06
-4 1 9 21.97 0.48
-4 1 9 20.71 0.5
-4 1 9 20.58 0.47
-4 1 9 21.92 0.61
-3 1 9 118.86 2.4
-3 1 9 123.38 3.38
-3 1 9 121.78 2.48
-3 1 9 117.69 3.84
-3 1 9 121.71 2.94
-3 1 9 119.1 2.48
-3 1 9 121.39 2.33
-2 1 9 84.81 1.78
-2 1 9 87.52 1.74
-2 1 9 83.55 1.68
-2 1 9 85.85 2.43
-2 1 9 85.62 1.78
-1 1 9 93.57 1.9
-1 1 9 91.3 1.87
-1 1 9 94.67 1.8
-1 1 9 88.84 2.45
0 -1 -9 18.75 0.45
0 -1 -9 18.78 0.43
0 -1 -9 18.1 0.45
0 1 9 19.02 0.43
0 1 9 18.35 0.45
0 1 9 18.38 0.42
0 1 9 18.99 0.59
-1 -1 -9 1.47 0.08
-1 -1 -9 1.41 0.08
-1 -1 -9 1.96 0.09
-1 -1 -9 1.47 0.09
-1 -1 -9 1.5 0.07
1 1 9 1.49 0.11
1 1 9 1.36 0.08
-2 -1 -9 30.39 0.66
-2 -1 -9 29.68 0.64
-2 -1 -9 30.23 0.7
-2 -1 -9 30.02 0.66
-2 -1 -9 29.89 0.67
-3 -1 -9 65.33 1.31
-3 -1 -9 64.01 1.27
-3 -1 -9 63.79 1.34
-3 -1 -9 63.96 1.53
-3 -1 -9 61.7 1.34
-3 -1 -9 63.29 1.41
-4 -1 -9 14.62 0.36
-4 -1 -9 14.82 0.35
-4 -1 -9 15.03 0.42
-4 -1 -9 14.87 0.36
-4 -1 -9 13.94 0.38
-5 -1 -9 22.26 0.5
-5 -1 -9 22.12 0.5
-5 -1 -9 21.24 0.52
-5 -1 -9 22.78 0.59
-6 -1 -9 1.67 0.07
-6 -1 -9 1.57 0.07
-6 -1 -9 1.63 0.09
-5 2 9 1.66 0.06
-4 2 9 15.48 0.35
-4 2 9 14.86 0.37
-4 2 9 14.47 0.34
-3 2 9 25.08 0.56
-3 2 9 25.49 0.57
-3 2 9 26.16 0.56
-3 2 9 25.1 0.83
-3 2 9 25.65 0.6
-2 2 9 1.53 0.1
-2 2 9 1.4 0.13
-2 2 9 1.52 0.08
-2 2 9 1.51 0.09
-2 2 9 1.49 0.09
-1 2 9 185.86 3.54
-1 2 9 182.57 3.67
-1 2 9 190.42 5.1
-1 2 9 180.7 3.75
-1 2 9 187.55 3.78
0 -2 -9 40.62 0.9
0 -2 -9 39.5 0.88
0 -2 -9 41.68 0.84
0 2 9 38.86 1.14
0 2 9 40.4 0.84
0 2 9 41.72 0.89
-1 -2 -9 120.35 2.41
-1 -2 -9 116.67 2.48
-1 -2 -9 120.89 2.27
-1 -2 -9 118.44 2.36
-1 -2 -9 115.06 2.36
1 2 9 117.61 2.26
1 2 9 111.28 3.07
-2 -2 -9 3.48 0.14
-2 -2 -9 3.46 0.14
-2 -2 -9 3.68 0.14
-2 -2 -9 3.4 0.13
-2 -2 -9 3.55 0.12
2 2 9 3.5 0.18
-3 -2 -9 2.77 0.13
-3 -2 -9 2.83 0.11
-3 -2 -9 2.75 0.12
-3 -2 -9 3 0.14
-3 -2 -9 2.83 0.12
-4 -2 -9 26.54 0.58
-4 -2 -9 25.51 0.58
-4 -2 -9 25.7 0.61
-4 -2 -9 25.46 0.56
-5 -2 -9 0.05 0.02
-5 -2 -9 0.07 0.03
-5 -2 -9 0.1 0.04
-6 -2 -9 4.18 0.15
-6 -2 -9 4.41 0.13
-4 3 9 0.06 0.02
-4 3 9 0.05 0.03
-4 3 9 0.05 0.02
-3 3 9 9.5 0.25
-3 3 9 9.64 0.28
-3 3 9 9.95 0.25
-3 3 9 9.62 0.24
-2 3 9 8.49 0.26
-2 3 9 8.66 0.22
-2 3 9 8.36 0.24
-2 3 9 8.02 0.35
-2 3 9 8.21 0.24
-1 3 9 0.88 0.08
-1 3 9 1.12 0.08
-1 3 9 1.06 0.11
-1 3 9 0.95 0.06
0 -3 -9 49.41 1
0 -3 -9 47.8 1.05
0 -3 -9 49 1.03
0 -3 -9 48.13 1.08
0 3 9 49.94 1
0 3 9 48.52 1.05
-1 -3 -9 45.89 0.98
-1 -3 -9 46.55 0.95
-1 -3 -9 46.89 0.98
-1 -3 -9 47.14 0.99
-1 -3 -9 46.24 1.03
1 3 9 42.67 1.28
1 3 9 46.43 0.94
-2 -3 -9 121.39 2.34
-2 -3 -9 120.31 2.58
-2 -3 -9 119.65 2.43
-2 -3 -9 120.14 2.45
-2 -3 -9 124.14 2.49
-3 -3 -9 71.1 1.46
-3 -3 -9 70.24 1.43
-3 -3 -9 71.28 1.54
-3 -3 -9 68.05 1.47
-3 -3 -9 68.05 1.39
-4 -3 -9 21.81 0.5
-4 -3 -9 21.12 0.48
-4 -3 -9 21.87 0.49
-4 -3 -9 21.19 0.53
-5 -3 -9 0.04 0.03
-5 -3 -9 0.01 0.02
-5 -3 -9 0.04 0.02
-6 -3 -9 2.62 0.11
-6 -3 -9 2.68 0.09
-6 -3 -9 2.45 0.09
-3 4 9 0.14 0.03
-3 4 9 0.14 0.03
-3 4 9 0.09 0.03
-3 4 9 0.19 0.04
-2 4 9 0.47 0.05
-2 4 9 0.47 0.06
-2 4 9 0.51 0.05
-2 4 9 0.52 0.06
1 -4 -9 22.87 0.57
-1 4 9 24.91 0.54
-1 4 9 25.34 0.57
-1 4 9 23.53 0.78
0 -4 -9 33.97 0.74
0 -4 -9 33.94 0.78
0 -4 -9 34.69 0.73
0 -4 -9 32.58 0.76
0 4 9 34.58 0.77
0 4 9 33.04 1.04
0 4 9 35.11 0.73
-1 -4 -9 3.95 0.15
-1 -4 -9 3.64 0.12
-1 -4 -9 3.75 0.14
-1 -4 -9 3.8 0.15
-1 -4 -9 3.78 0.14
1 4 9 3.72 0.14
1 4 9 3.56 0.16
-2 -4 -9 0.11 0.03
-2 -4 -9 0.03 0.03
-2 -4 -9 0.07 0.03
-2 -4 -9 0.02 0.03
-2 -4 -9 0.03 0.03
-3 -4 -9 0.05 0.04
-3 -4 -9 0.05 0.03
-3 -4 -9 0.05 0.03
-3 -4 -9 0.02 0.02
-3 -4 -9 0.08 0.03
-4 -4 -9 28.8 0.62
-4 -4 -9 28.19 0.64
-4 -4 -9 29.06 0.64
-4 -4 -9 29.18 0.67
-5 -4 -9 3.47 0.14
-5 -4 -9 3.3 0.12
-5 -4 -9 3.45 0.12
-6 -4 -9 12.77 0.31
-6 -4 -9 13.7 0.31
-6 -4 -9 13.89 0.34
-3 5 9 1.94 0.08
2 -5 -9 18.22 0.43
-2 5 9 17.86 0.41
-2 5 9 17.05 0.4
-2 5 9 17.94 0.43
1 -5 -9 0.16 0.04
1 -5 -9 0.24 0.05
-1 5 9 0.12 0.03
-1 5 9 0.14 0.04
0 -5 -9 0.35 0.05
0 -5 -9 0.31 0.05
0 -5 -9 0.34 0.05
0 5 9 0.31 0.05
0 5 9 0.33 0.05
-1 -5 -9 0.4 0.05
-1 -5 -9 0.25 0.05
-1 -5 -9 0.5 0.06
1 5 9 0.41 0.06
-2 -5 -9 0.7 0.06
-2 -5 -9 0.78 0.07
-2 -5 -9 0.78 0.07
-2 -5 -9 0.74 0.07
-2 -5 -9 0.69 0.07
-3 -5 -9 29.31 0.64
-3 -5 -9 29.05 0.7
-3 -5 -9 27.81 0.66
-3 -5 -9 29.94 0.63
-3 -5 -9 28.94 0.64
-4 -5 -9 16.84 0.4
-4 -5 -9 16.99 0.42
-4 -5 -9 17.21 0.4
-5 -5 -9 10.36 0.28
-5 -5 -9 10.35 0.26
-5 -5 -9 10.37 0.26
-6 -5 -9 1.51 0.08
-6 -5 -9 1.53 0.06
-6 -5 -9 1.47 0.06
1 -6 -9 0.21 0.03
1 -6 -9 0.2 0.04
-1 6 9 0.22 0.04
-1 6 9 0.22 0.04
-1 6 9 0.2 0.04
0 -6 -9 0.45 0.06
0 -6 -9 0.47 0.05
0 -6 -9 0.6 0.05
0 6 9 0.56 0.05
0 6 9 0.54 0.06
-1 -6 -9 5.85 0.19
-1 -6 -9 5.62 0.18
-1 -6 -9 5.81 0.19
1 6 9 5.81 0.2
-2 -6 -9 56.45 1.19
-2 -6 -9 57.14 1.26
-2 -6 -9 57.87 1.18
-2 -6 -9 55.5 1.14
-3 -6 -9 11.25 0.28
-3 -6 -9 11.24 0.32
-3 -6 -9 11.26 0.28
-3 -6 -9 11.29 0.28
-4 -6 -9 0.67 0.05
-4 -6 -9 0.62 0.05
-5 -6 -9 3.45 0.11
-5 -6 -9 3.47 0.12
-5 -6 -9 3.38 0.11
0 -7 -9 0.14 0.03
0 7 9 0.16 0.03
-1 -7 -9 0.08 0.03
-1 -7 -9 0.07 0.03
-1 -7 -9 0.09 0.03
1 7 9 0.1 0.03
-2 -7 -9 9.63 0.26
-2 -7 -9 9.4 0.24
-2 -7 -9 9.69 0.24
-3 -7 -9 2 0.08
-3 -7 -9 2 0.07
-4 -7 -9 0.95 0.05
-4 -7 -9 0.99 0.06
-3 -6 10 13.32 0.3
-2 -6 10 7.45 0.2
-1 -6 10 2.18 0.09
-1 -6 10 2.43 0.1
0 6 -10 4.21 0.15
0 6 -10 4.37 0.15
0 -6 10 4.31 0.15
0 -6 10 4.15 0.13
-1 6 -10 7.35 0.21
-1 6 -10 7.43 0.22
-1 6 -10 7.14 0.19
1 -6 10 7.42 0.21
-4 -5 10 1.19 0.05
-4 -5 10 1.16 0.06
-3 -5 10 2.16 0.09
-3 -5 10 2.05 0.08
-2 -5 10 2.46 0.11
-2 -5 10 2.37 0.11
-1 -5 10 21.89 0.5
-1 -5 10 22.17 0.52
0 5 -10 0.62 0.06
0 5 -10 0.57 0.07
0 5 -10 0.6 0.06
0 -5 10 0.55 0.06
0 -5 10 0.58 0.07
-1 5 -10 0.17 0.04
-1 5 -10 0.11 0.04
-1 5 -10 0.14 0.04
1 -5 10 0.21 0.05
-2 5 -10 0.29 0.04
-2 5 -10 0.32 0.04
-2 5 -10 0.31 0.05
-3 5 -10 0.05 0.02
-3 5 -10 0.02 0.02
-5 -4 10 1.09 0.05
-4 -4 10 0.1 0.03
-4 -4 10 0.09 0.02
-4 -4 10 0.23 0.05
-3 -4 10 17.96 0.41
-3 -4 10 17.62 0.41
-3 -4 10 17.24 0.51
-3 -4 10 18.51 0.4
-2 -4 10 2.46 0.11
-2 -4 10 2.51 0.1
-2 -4 10 2.41 0.11
-1 -4 10 34.49 0.73
-1 -4 10 34.3 0.76
-1 -4 10 33.74 0.73
0 4 -10 9.09 0.27
0 4 -10 8.8 0.27
0 4 -10 9.06 0.25
0 -4 10 8.77 0.25
0 -4 10 9.4 0.27
-1 4 -10 5.52 0.2
-1 4 -10 5.68 0.2
-1 4 -10 5.59 0.18
1 -4 10 5.44 0.2
-2 4 -10 11.06 0.3
-2 4 -10 10.79 0.29
-2 4 -10 11.19 0.32
-3 4 -10 0.33 0.04
-3 4 -10 0.28 0.05
-3 4 -10 0.37 0.04
-3 4 -10 0.29 0.03
-4 4 -10 7.67 0.19
-4 4 -10 7.92 0.23
-4 4 -10 7.99 0.2
-5 -3 10 0.07 0.02
-5 -3 10 0.05 0.02
-5 -3 10 0.14 0.04
-4 -3 10 46.59 1.19
-4 -3 10 45.89 0.93
-3 -3 10 7.28 0.21
-3 -3 10 6.91 0.19
-3 -3 10 7.01 0.27
-3 -3 10 6.84 0.19
-2 -3 10 17.12 0.52
-2 -3 10 17.67 0.42
-2 -3 10 17.96 0.41
-2 -3 10 18.18 0.43
-1 -3 10 40.06 0.84
-1 -3 10 40.34 0.87
-1 -3 10 39.06 0.85
0 3 -10 19.74 0.46
0 3 -10 20.02 0.49
0 -3 10 18.94 0.48
0 -3 10 20.05 0.46
-1 3 -10 20.02 0.46
-1 3 -10 20.35 0.49
1 -3 10 19.4 0.49
1 -3 10 19.3 0.45
-2 3 -10 17.9 0.49
-2 3 -10 17.94 0.43
-2 3 -10 17.87 0.48
-2 3 -10 18.15 0.45
-2 3 -10 18.53 0.42
-3 3 -10 0.98 0.06
-3 3 -10 1.12 0.08
-3 3 -10 1.07 0.07
-3 3 -10 0.95 0.08
-3 3 -10 1.02 0.07
-4 3 -10 4.38 0.13
-4 3 -10 4.24 0.14
-4 3 -10 4.54 0.16
-4 3 -10 4.13 0.16
-5 3 -10 0.01 0.01
-5 -2 10 0.02 0.03
-5 -2 10 0.03 0.02
-5 -2 10 0.01 0.02
-4 -2 10 12.78 0.3
-4 -2 10 13.2 0.41
-4 -2 10 12.16 0.3
-3 -2 10 5.08 0.16
-3 -2 10 4.95 0.17
-3 -2 10 4.68 0.21
-3 -2 10 5.64 0.16
-2 -2 10 92 1.84
-2 -2 10 90.17 1.78
-2 -2 10 90.33 1.88
-1 -2 10 4.16 0.15
-1 -2 10 3.79 0.13
-1 -2 10 4 0.16
0 2 -10 0.31 0.06
0 2 -10 0.31 0.05
0 -2 10 0.32 0.05
0 -2 10 0.41 0.06
-1 2 -10 9.75 0.28
-1 2 -10 9.76 0.27
-1 2 -10 9.31 0.24
1 -2 10 9.35 0.28
1 -2 10 9.82 0.26
-2 2 -10 14.55 0.37
-2 2 -10 13.69 0.41
-2 2 -10 14.67 0.36
-2 2 -10 14.04 0.34
-3 2 -10 47.34 1.17
-3 2 -10 47.25 1.01
-3 2 -10 47.43 0.98
-3 2 -10 48.82 1.02
-4 2 -10 1 0.08
-4 2 -10 0.99 0.06
-4 2 -10 1 0.07
-4 2 -10 0.99 0.08
-5 2 -10 107.8 2.41
-5 2 -10 110.23 2.55
-5 2 -10 110.94 2.24
-5 -1 10 2.3 0.11
-5 -1 10 2.1 0.07
-5 -1 10 1.97 0.08
-4 -1 10 0.44 0.05
-4 -1 10 0.49 0.04
-4 -1 10 0.41 0.05
-4 -1 10 0.46 0.07
-3 -1 10 2.1 0.09
-3 -1 10 2.05 0.13
-3 -1 10 2.03 0.09
-3 -1 10 1.95 0.1
-2 -1 10 4.92 0.17
-2 -1 10 4.88 0.17
-2 -1 10 5.07 0.15
-1 -1 10 12.05 0.32
-1 -1 10 12.22 0.31
-1 -1 10 11.99 0.3
0 1 -10 9.3 0.26
0 1 -10 9.82 0.29
0 -1 10 9.63 0.26
0 -1 10 9.69 0.28
-1 1 -10 0.07 0.02
-1 1 -10 0.03 0.03
-1 1 -10 -0.02 0.02
1 -1 10 -0.02 0.03
1 -1 10 0.01 0.03
-2 1 -10 1.37 0.07
-2 1 -10 1.41 0.09
-2 1 -10 1.33 0.08
-2 1 -10 1.38 0.09
-3 1 -10 4.24 0.15
-3 1 -10 4.54 0.18
-3 1 -10 4.26 0.14
-3 1 -10 4.27 0.15
-4 1 -10 0.56 0.07
-4 1 -10 0.55 0.05
-4 1 -10 0.56 0.06
-5 1 -10 104.89 2.13
-5 1 -10 101.7 2.1
-5 1 -10 104.86 2.43
-5 0 10 1.24 0.05
-4 0 10 4.22 0.15
-4 0 10 4.53 0.14
-4 0 10 4.54 0.14
-4 0 10 4.57 0.2
-3 0 10 0.94 0.08
-3 0 10 0.89 0.06
-3 0 10 0.83 0.06
-3 0 10 0.78 0.1
-3 0 10 0.82 0.09
-3 0 10 0.86 0.07
-2 0 10 5.16 0.17
-2 0 10 5.13 0.16
-2 0 10 5.05 0.24
-2 0 10 5.12 0.17
-1 0 10 5.29 0.17
-1 0 10 5.04 0.18
-1 0 10 5 0.15
0 0 -10 7.98 0.22
0 0 -10 7.61 0.24
0 0 10 6.97 0.3
0 0 10 7.35 0.22
0 0 10 7.67 0.24
-1 0 -10 3.92 0.16
-1 0 -10 4.22 0.13
-1 0 -10 4.36 0.15
-1 0 -10 4.09 0.14
1 0 10 4.06 0.16
1 0 10 4.21 0.15
-2 0 -10 6.27 0.2
-2 0 -10 6.36 0.18
-2 0 -10 6.57 0.2
-2 0 -10 6.11 0.2
-3 0 -10 2.42 0.12
-3 0 -10 2.32 0.11
-3 0 -10 2.33 0.1
-3 0 -10 2.46 0.11
-3 0 -10 2.43 0.12
-4 0 -10 31.33 0.68
-4 0 -10 31.71 0.81
-4 0 -10 32.29 0.7
-5 0 -10 5.71 0.17
-5 0 -10 5.9 0.17
-5 0 -10 5.83 0.2
-6 0 -10 6.19 0.16
-6 0 -10 6.05 0.16
-6 0 -10 6.28 0.16
-4 1 10 3.42 0.11
-4 1 10 3.4 0.12
-4 1 10 3.39 0.15
-4 1 10 3.42 0.13
-3 1 10 15.34 0.37
-3 1 10 15.25 0.36
-3 1 10 16.56 0.48
-3 1 10 16.09 0.38
-3 1 10 15.21 0.55
-3 1 10 15.95 0.4
-2 1 10 10.34 0.28
-2 1 10 10.34 0.41
-2 1 10 10.61 0.28
-2 1 10 10.33 0.27
1 -1 -10 5.77 0.19
-1 1 10 5.88 0.2
-1 1 10 5.88 0.17
-1 1 10 6.09 0.27
-1 1 10 6.04 0.19
0 -1 -10 70.53 1.35
0 -1 -10 65.81 1.46
0 -1 -10 66.45 1.41
0 1 10 65.95 1.41
0 1 10 68.04 1.35
-1 -1 -10 7.28 0.23
-1 -1 -10 7.94 0.22
-1 -1 -10 7.83 0.24
-1 -1 -10 8.01 0.23
-1 -1 -10 7.97 0.21
1 1 10 7.22 0.3
1 1 10 7.8 0.25
1 1 10 7.84 0.22
-2 -1 -10 9.28 0.25
-2 -1 -10 9.34 0.26
-2 -1 -10 9.55 0.27
-2 -1 -10 9.48 0.28
-2 -1 -10 8.79 0.26
-3 -1 -10 31.42 0.69
-3 -1 -10 30.48 0.7
-3 -1 -10 30.46 0.66
-3 -1 -10 31.2 0.68
-4 -1 -10 2.45 0.12
-4 -1 -10 2.61 0.11
-4 -1 -10 2.58 0.11
-4 -1 -10 2.55 0.1
-5 -1 -10 9.18 0.26
-5 -1 -10 8.96 0.24
-5 -1 -10 9.17 0.24
-6 -1 -10 0.43 0.04
-6 -1 -10 0.5 0.04
-4 2 10 2.49 0.08
-4 2 10 2.57 0.1
-4 2 10 2.47 0.09
-3 2 10 3.29 0.12
-3 2 10 3.02 0.13
-3 2 10 3.01 0.11
-3 2 10 3.09 0.11
-2 2 10 18.83 0.45
-2 2 10 18.69 0.64
-2 2 10 18.8 0.46
-2 2 10 18.76 0.44
-2 2 10 18.6 0.43
1 -2 -10 151.13 3.15
-1 2 10 151.63 3
-1 2 10 146.89 3.06
-1 2 10 152.84 4.16
-1 2 10 148.18 2.89
0 -2 -10 61.34 1.22
0 -2 -10 59.68 1.32
0 2 10 59.55 1.28
0 2 10 61.72 1.22
-1 -2 -10 32.35 0.71
-1 -2 -10 32.46 0.72
-1 -2 -10 33.79 0.74
-1 -2 -10 32.92 0.7
-1 -2 -10 33.07 0.76
1 2 10 33.12 0.7
1 2 10 32.23 0.75
-2 -2 -10 57.95 1.22
-2 -2 -10 58 1.29
-2 -2 -10 56.98 1.21
-2 -2 -10 58.04 1.17
-2 -2 -10 58.25 1.22
-3 -2 -10 0.17 0.04
-3 -2 -10 0.02 0.02
-3 -2 -10 0.02 0.03
-3 -2 -10 0.08 0.04
-3 -2 -10 0.06 0.03
-4 -2 -10 0.31 0.04
-4 -2 -10 0.35 0.05
-4 -2 -10 0.35 0.04
-4 -2 -10 0.37 0.06
-5 -2 -10 5.41 0.18
-5 -2 -10 5.14 0.16
-5 -2 -10 5.15 0.16
-6 -2 -10 10.45 0.27
-6 -2 -10 10.81 0.25
-6 -2 -10 10.32 0.25
-3 3 10 1.17 0.06
-3 3 10 1.21 0.07
-3 3 10 1.26 0.06
-3 3 10 1.17 0.07
-2 3 10 23.51 0.79
-2 3 10 23.98 0.54
-2 3 10 24.74 0.56
-2 3 10 24.91 0.57
-2 3 10 25.06 0.54
1 -3 -10 21.24 0.51
-1 3 10 21.12 0.51
-1 3 10 21.59 0.51
-1 3 10 21.77 0.49
-1 3 10 20.65 0.7
0 -3 -10 0.68 0.07
0 -3 -10 0.52 0.07
0 -3 -10 0.67 0.06
0 -3 -10 0.7 0.06
0 3 10 0.69 0.07
0 3 10 0.63 0.09
0 3 10 0.69 0.07
-1 -3 -10 229.49 4.73
-1 -3 -10 231.17 4.3
-1 -3 -10 225.54 4.59
-1 -3 -10 226.81 4.49
-1 -3 -10 226.8 4.47
1 3 10 219.55 4.29
1 3 10 225.19 4.48
-2 -3 -10 8.42 0.25
-2 -3 -10 7.99 0.26
-2 -3 -10 8.42 0.23
-2 -3 -10 8.53 0.25
-2 -3 -10 8.14 0.24
-3 -3 -10 16.58 0.4
-3 -3 -10 16.34 0.4
-3 -3 -10 16.93 0.4
-3 -3 -10 16.72 0.44
-3 -3 -10 16.78 0.43
-4 -3 -10 25.93 0.61
-4 -3 -10 25.51 0.56
-4 -3 -10 25.91 0.58
-5 -3 -10 0.67 0.05
-5 -3 -10 0.68 0.05
-5 -3 -10 0.87 0.07
-6 -3 -10 0.73 0.05
-6 -3 -10 0.8 0.05
-6 -3 -10 0.77 0.06
3 -4 -10 0.78 0.05
-3 4 10 0.8 0.05
-3 4 10 0.82 0.05
2 -4 -10 1.08 0.07
-2 4 10 1.06 0.07
-2 4 10 1.14 0.07
-2 4 10 1.15 0.07
1 -4 -10 4.75 0.16
1 -4 -10 4.61 0.15
-1 4 10 4.51 0.16
-1 4 10 4.6 0.16
-1 4 10 4.8 0.17
0 -4 -10 4.51 0.17
0 -4 -10 4.9 0.16
0 -4 -10 4.84 0.17
0 -4 -10 4.61 0.16
0 4 10 5.09 0.18
0 4 10 4.66 0.16
0 4 10 4.74 0.23
-1 -4 -10 9.68 0.27
-1 -4 -10 10.11 0.29
-1 -4 -10 9.99 0.28
-1 -4 -10 10.33 0.28
1 4 10 9.6 0.29
1 4 10 9.84 0.38
-2 -4 -10 101.39 1.99
-2 -4 -10 102.3 2.2
-2 -4 -10 100.24 2.09
-2 -4 -10 103.18 2.11
-2 -4 -10 103.51 2.07
-3 -4 -10 68.93 1.38
-3 -4 -10 69.21 1.53
-3 -4 -10 68.65 1.45
-3 -4 -10 70.93 1.46
-3 -4 -10 68.34 1.41
-4 -4 -10 37.14 0.82
-4 -4 -10 36.87 0.8
-4 -4 -10 36.71 0.77
-5 -4 -10 12.17 0.3
-5 -4 -10 12.27 0.3
-5 -4 -10 12.46 0.32
-6 -4 -10 3.55 0.12
-6 -4 -10 3.38 0.1
-6 -4 -10 3.46 0.1
2 -5 -10 0.97 0.05
-2 5 10 0.9 0.05
-2 5 10 0.86 0.06
-2 5 10 0.98 0.05
1 -5 -10 0.86 0.06
1 -5 -10 0.89 0.07
-1 5 10 0.89 0.06
-1 5 10 0.89 0.07
-1 5 10 0.89 0.07
0 -5 -10 2.15 0.1
0 -5 -10 2.12 0.11
0 -5 -10 2.23 0.1
0 5 10 2.09 0.11
0 5 10 2.35 0.1
-1 -5 -10 29.18 0.69
-1 -5 -10 29.44 0.63
-1 -5 -10 28.83 0.66
-2 -5 -10 17.95 0.41
-2 -5 -10 18.04 0.43
-2 -5 -10 17.82 0.46
-2 -5 -10 17.77 0.42
-2 -5 -10 17.36 0.43
-3 -5 -10 0.19 0.04
-3 -5 -10 0.12 0.04
-3 -5 -10 0.21 0.04
-3 -5 -10 0.18 0.04
-3 -5 -10 0.23 0.04
-4 -5 -10 14.62 0.35
-4 -5 -10 15.13 0.35
-4 -5 -10 15.33 0.38
-5 -5 -10 1.39 0.07
-5 -5 -10 1.44 0.06
-5 -5 -10 1.52 0.08
-1 6 10 0 0.02
0 -6 -10 6.05 0.18
0 -6 -10 6.04 0.18
0 6 10 5.82 0.18
0 6 10 6.38 0.18
-1 -6 -10 2.09 0.09
-1 -6 -10 2.43 0.1
-1 -6 -10 2.22 0.1
1 6 10 2.24 0.11
-2 -6 -10 5.53 0.17
-2 -6 -10 5.46 0.17
-2 -6 -10 5.66 0.19
-3 -6 -10 1.51 0.09
-3 -6 -10 1.39 0.06
-3 -6 -10 1.46 0.06
-3 -6 -10 1.59 0.08
-4 -6 -10 0.17 0.03
-4 -6 -10 0.13 0.02
-5 -6 -10 2.33 0.08
-2 -7 -10 0.05 0.02
-2 -7 -10 0.05 0.02
-2 -6 11 1.89 0.08
-1 -6 11 1.36 0.06
0 -6 11 2.38 0.09
-2 -5 11 0.12 0.03
-2 -5 11 0.07 0.03
-1 -5 11 0.19 0.04
-1 -5 11 0.15 0.03
0 5 -11 26.72 0.63
0 5 -11 25.88 0.6
0 -5 11 27.47 0.6
0 -5 11 25.44 0.56
-1 5 -11 0.35 0.05
-1 5 -11 0.34 0.04
-1 5 -11 0.45 0.05
1 -5 11 0.38 0.05
-2 5 -11 1.15 0.06
-2 5 -11 1.16 0.07
-3 -4 11 13.2 0.31
-3 -4 11 12.86 0.3
-2 -4 11 7.57 0.22
-2 -4 11 7.8 0.2
-2 -4 11 7.99 0.22
-1 -4 11 1.75 0.09
-1 -4 11 1.75 0.1
-1 -4 11 1.8 0.1
0 4 -11 1.41 0.08
0 4 -11 1.37 0.09
0 -4 11 1.44 0.09
0 -4 11 1.33 0.08
-1 4 -11 7.3 0.22
-1 4 -11 6.71 0.2
1 -4 11 7.14 0.23
-2 4 -11 2.25 0.1
-2 4 -11 1.96 0.09
-2 4 -11 2.01 0.1
-3 4 -11 0.18 0.03
-3 4 -11 0.2 0.04
-3 4 -11 0.16 0.03
-4 -3 11 0.56 0.05
-4 -3 11 0.62 0.04
-4 -3 11 0.63 0.07
-3 -3 11 21.57 0.47
-3 -3 11 21.44 0.48
-3 -3 11 21.44 0.48
-3 -3 11 21.88 0.61
-2 -3 11 0.85 0.07
-2 -3 11 0.82 0.07
-2 -3 11 0.82 0.05
-2 -3 11 0.9 0.08
-1 -3 11 2.28 0.11
-1 -3 11 2.26 0.11
0 3 -11 5.33 0.18
0 3 -11 5.53 0.2
0 -3 11 5.34 0.19
0 -3 11 5.54 0.18
-1 3 -11 24.95 0.56
-1 3 -11 25.18 0.59
1 -3 11 25.01 0.59
-2 3 -11 2.64 0.12
-2 3 -11 2.65 0.12
-3 3 -11 1.61 0.08
-3 3 -11 1.63 0.09
-3 3 -11 1.62 0.07
-3 3 -11 1.64 0.08
-4 3 -11 5.61 0.14
-4 3 -11 5.55 0.15
-4 3 -11 5.38 0.17
-4 -2 11 10.2 0.25
-4 -2 11 10.12 0.25
-4 -2 11 10.62 0.33
-3 -2 11 0.16 0.03
-3 -2 11 0.04 0.04
-3 -2 11 0.01 0.03
-3 -2 11 0.01 0.02
-2 -2 11 8.5 0.22
-2 -2 11 8.57 0.3
-2 -2 11 8.23 0.24
-2 -2 11 8.64 0.24
-1 -2 11 1.26 0.09
-1 -2 11 1.19 0.08
-1 -2 11 1.21 0.06
0 2 -11 13.73 0.34
0 2 -11 13.12 0.36
0 -2 11 13.09 0.33
0 -2 11 13.29 0.36
-1 2 -11 15.43 0.4
-1 2 -11 15.08 0.37
1 -2 11 14.74 0.36
1 -2 11 14.97 0.4
-2 2 -11 3.26 0.14
-2 2 -11 3.29 0.11
-2 2 -11 3.39 0.13
-3 2 -11 2.59 0.11
-3 2 -11 2.33 0.12
-3 2 -11 2.32 0.09
-3 2 -11 2.51 0.11
-4 2 -11 6.28 0.21
-4 2 -11 6.52 0.17
-4 2 -11 6.37 0.18
-5 2 -11 0.01 0.01
-4 -1 11 9.11 0.23
-4 -1 11 9.2 0.23
-4 -1 11 9.49 0.31
-3 -1 11 5.96 0.24
-3 -1 11 5.96 0.18
-3 -1 11 5.82 0.16
-3 -1 11 5.93 0.17
-2 -1 11 48.75 1.03
-2 -1 11 49.51 1.04
-2 -1 11 47.97 1
-1 -1 11 0.61 0.07
-1 -1 11 0.46 0.06
-1 -1 11 0.61 0.05
0 1 -11 23.17 0.53
0 1 -11 22.98 0.56
0 1 -11 23.77 0.53
0 -1 11 23.25 0.56
0 -1 11 24.37 0.53
-1 1 -11 0.92 0.07
-1 1 -11 1.06 0.08
1 -1 11 0.95 0.08
1 -1 11 0.95 0.07
-2 1 -11 5.97 0.2
-2 1 -11 6.12 0.19
-2 1 -11 6.14 0.17
-3 1 -11 27.22 0.61
-3 1 -11 27.47 0.72
-3 1 -11 27.46 0.61
-3 1 -11 28.33 0.6
-4 1 -11 4.07 0.13
-4 1 -11 3.91 0.16
-4 1 -11 3.71 0.13
-5 1 -11 12.37 0.31
-5 1 -11 13.8 0.3
-5 1 -11 12.76 0.31
-4 0 11 8.13 0.27
-4 0 11 7.83 0.2
-4 0 11 7.92 0.2
-3 0 11 1.53 0.07
-3 0 11 1.32 0.08
-3 0 11 1.34 0.07
-3 0 11 1.24 0.1
-2 0 11 2.82 0.12
-2 0 11 2.68 0.12
-2 0 11 2.78 0.1
-2 0 11 2.7 0.17
-1 0 11 14.18 0.36
-1 0 11 14.09 0.33
-1 0 11 13.62 0.35
-1 0 11 13.39 0.48
0 0 -11 0.32 0.05
0 0 -11 0.49 0.05
0 0 -11 0.37 0.06
0 0 11 0.27 0.05
0 0 11 0.3 0.05
-1 0 -11 0.27 0.05
-1 0 -11 0.23 0.04
-1 0 -11 0.2 0.05
1 0 11 0.24 0.05
1 0 11 0.33 0.05
-2 0 -11 0.19 0.04
-2 0 -11 0.29 0.05
-2 0 -11 0.15 0.04
-2 0 -11 0.24 0.03
-3 0 -11 2.24 0.09
-3 0 -11 2.18 0.1
-3 0 -11 2.16 0.1
-3 0 -11 2.22 0.11
-4 0 -11 18.77 0.43
-4 0 -11 18.11 0.42
-5 0 -11 0.09 0.03
-5 0 -11 0.2 0.03
-4 1 11 2.11 0.07
-4 1 11 2.22 0.09
-3 1 11 14.56 0.34
-3 1 11 14.74 0.44
-3 1 11 14.78 0.34
-3 1 11 14.22 0.33
-2 1 11 0.19 0.06
-2 1 11 0.25 0.04
-2 1 11 0.13 0.04
-2 1 11 0.19 0.03
-1 1 11 0.57 0.07
-1 1 11 0.53 0.05
-1 1 11 0.5 0.06
-1 1 11 0.52 0.08
0 -1 -11 1.38 0.09
0 -1 -11 1.38 0.09
0 -1 -11 1.4 0.08
0 1 11 1.55 0.1
0 1 11 1.36 0.08
-1 -1 -11 5.32 0.18
-1 -1 -11 5.68 0.18
-1 -1 -11 5.64 0.19
1 1 11 5.46 0.2
1 1 11 5.68 0.18
-2 -1 -11 18.93 0.49
-2 -1 -11 19.32 0.45
-2 -1 -11 19.26 0.47
-2 -1 -11 19.06 0.46
-2 -1 -11 19.64 0.45
-3 -1 -11 9.51 0.26
-3 -1 -11 8.88 0.25
-3 -1 -11 9.11 0.24
-3 -1 -11 9.12 0.27
-4 -1 -11 0.2 0.03
-4 -1 -11 0.17 0.04
-4 -1 -11 0.13 0.03
-5 -1 -11 0.5 0.04
-5 -1 -11 0.54 0.05
-5 -1 -11 0.51 0.04
-6 -1 -11 6.34 0.16
3 -2 -11 0.48 0.04
-3 2 11 0.27 0.03
-3 2 11 0.28 0.04
-3 2 11 0.28 0.04
2 -2 -11 8.92 0.24
-2 2 11 8.33 0.22
-2 2 11 8.78 0.24
-2 2 11 8.65 0.24
1 -2 -11 0.02 0.03
-1 2 11 0.05 0.03
-1 2 11 0.05 0.04
-1 2 11 0.05 0.03
0 -2 -11 4.73 0.16
0 -2 -11 4.58 0.16
0 -2 -11 4.6 0.17
0 -2 -11 4.74 0.18
0 2 11 4.48 0.16
0 2 11 4.4 0.17
-1 -2 -11 21.84 0.52
-1 -2 -11 22.69 0.53
-1 -2 -11 22.1 0.51
-1 -2 -11 22.62 0.55
1 2 11 21.2 0.53
-2 -2 -11 0.51 0.06
-2 -2 -11 0.56 0.07
-2 -2 -11 0.62 0.05
-2 -2 -11 0.49 0.06
-2 -2 -11 0.54 0.06
-3 -2 -11 0.02 0.03
-3 -2 -11 -0.01 0.02
-3 -2 -11 0.16 0.03
-3 -2 -11 0.04 0.03
-4 -2 -11 1.22 0.08
-4 -2 -11 1.12 0.07
-4 -2 -11 1.12 0.06
-5 -2 -11 0.98 0.06
-5 -2 -11 0.93 0.07
-5 -2 -11 1 0.06
-6 -2 -11 0.11 0.02
-6 -2 -11 0.12 0.02
-3 3 11 0.16 0.03
2 -3 -11 6.87 0.2
2 -3 -11 7.01 0.19
-2 3 11 6.89 0.19
-2 3 11 7.01 0.19
-2 3 11 6.7 0.2
1 -3 -11 1.22 0.08
1 -3 -11 1.09 0.08
1 -3 -11 1.12 0.07
-1 3 11 1.16 0.08
-1 3 11 1.14 0.07
0 -3 -11 0.01 0.03
0 -3 -11 0.02 0.03
0 -3 -11 0.04 0.03
0 -3 -11 0.07 0.03
0 3 11 0.06 0.03
0 3 11 0.08 0.03
0 3 11 0.03 0.04
-1 -3 -11 37.4 0.84
-1 -3 -11 39.28 0.84
-1 -3 -11 38.77 0.88
-1 -3 -11 37.94 0.81
1 3 11 38.68 0.86
-2 -3 -11 35.68 0.8
-2 -3 -11 36.91 0.77
-2 -3 -11 35.71 0.79
-2 -3 -11 36.85 0.79
-2 -3 -11 36.15 0.84
-3 -3 -11 86.78 1.83
-3 -3 -11 86.99 1.91
-3 -3 -11 88.96 1.82
-3 -3 -11 89.5 1.73
-3 -3 -11 88.81 1.78
-4 -3 -11 1 0.06
-4 -3 -11 1.09 0.08
-4 -3 -11 1.18 0.07
-5 -3 -11 0.37 0.05
-5 -3 -11 0.34 0.04
-5 -3 -11 0.36 0.04
2 -4 -11 3.63 0.12
-2 4 11 3.81 0.12
-2 4 11 3.76 0.11
-2 4 11 3.48 0.12
1 -4 -11 0.06 0.03
1 -4 -11 0.06 0.03
1 -4 -11 0.06 0.03
-1 4 11 0.04 0.03
-1 4 11 0.05 0.03
0 -4 -11 28.75 0.62
0 -4 -11 29.07 0.64
0 -4 -11 29.13 0.68
0 -4 -11 28.68 0.66
0 4 11 29.36 0.66
0 4 11 29.76 0.62
-1 -4 -11 3.19 0.14
-1 -4 -11 3.27 0.13
-1 -4 -11 3.26 0.13
-1 -4 -11 3.24 0.14
1 4 11 3.4 0.14
-2 -4 -11 36.65 0.79
-2 -4 -11 36.05 0.78
-2 -4 -11 36.56 0.8
-2 -4 -11 35.52 0.76
-2 -4 -11 36.02 0.84
-3 -4 -11 97.32 2.09
-3 -4 -11 94.68 1.93
-3 -4 -11 95.45 1.88
-3 -4 -11 99.17 1.98
-3 -4 -11 97.58 2
-4 -4 -11 7.29 0.22
-4 -4 -11 6.98 0.2
-4 -4 -11 7.4 0.19
-5 -4 -11 51.82 1.07
-5 -4 -11 49.05 1.06
-5 -4 -11 52.34 1.07
1 -5 -11 4.53 0.14
-1 5 11 4.54 0.14
-1 5 11 4.31 0.13
0 -5 -11 16.81 0.41
0 5 11 16.08 0.37
0 5 11 16.79 0.4
-1 -5 -11 1 0.07
-1 -5 -11 1.13 0.07
-1 -5 -11 1.06 0.07
1 5 11 0.93 0.07
-2 -5 -11 0.67 0.06
-2 -5 -11 0.65 0.06
-2 -5 -11 0.7 0.06
-2 -5 -11 0.64 0.06
-3 -5 -11 0.12 0.03
-3 -5 -11 0.13 0.03
-3 -5 -11 0.13 0.04
-3 -5 -11 0.26 0.04
-3 -5 -11 0.13 0.03
-4 -5 -11 11.31 0.29
-4 -5 -11 11 0.27
-4 -5 -11 11.36 0.27
-5 -5 -11 29.24 0.62
-1 -6 -11 0.1 0.03
-1 -6 -11 0.09 0.03
-1 -6 -11 0.06 0.03
1 6 11 0.07 0.03
-2 -6 -11 1.82 0.08
-2 -6 -11 1.68 0.08
-2 -6 -11 1.72 0.07
-3 -6 -11 1.93 0.08
-2 -5 12 6.73 0.17
-1 -5 12 1.95 0.08
-1 -5 12 2.03 0.08
0 5 -12 12.79 0.32
0 -5 12 14.03 0.33
-1 5 -12 0.23 0.03
-3 -4 12 1.71 0.07
-2 -4 12 21.95 0.47
-2 -4 12 21.76 0.48
-1 -4 12 1.43 0.08
-1 -4 12 1.59 0.08
0 4 -12 0.11 0.04
0 -4 12 0.19 0.04
0 -4 12 0.15 0.03
-1 4 -12 0.27 0.04
-1 4 -12 0.23 0.04
1 -4 12 0.22 0.04
-2 4 -12 9.77 0.25
-2 4 -12 9.83 0.24
-3 -3 12 8.57 0.27
-3 -3 12 8.55 0.21
-3 -3 12 8.12 0.2
-2 -3 12 2.78 0.11
-2 -3 12 2.7 0.14
-2 -3 12 2.68 0.11
-1 -3 12 24.64 0.54
-1 -3 12 24.44 0.56
0 3 -12 0.42 0.05
0 3 -12 0.48 0.06
0 -3 12 0.48 0.06
0 -3 12 0.42 0.05
-1 3 -12 0.12 0.03
-1 3 -12 0.14 0.04
1 -3 12 0.15 0.04
-2 3 -12 7.78 0.21
-2 3 -12 7.54 0.22
-3 3 -12 5.25 0.14
-3 3 -12 5.42 0.16
-3 -2 12 4.94 0.19
-3 -2 12 4.91 0.13
-2 -2 12 14.02 0.34
-2 -2 12 13.9 0.32
-2 -2 12 14.33 0.34
-2 -2 12 13.99 0.42
-1 -2 12 0.08 0.03
-1 -2 12 0.1 0.03
0 2 -12 1.98 0.1
0 2 -12 1.92 0.11
0 -2 12 1.91 0.1
0 -2 12 1.82 0.09
-1 2 -12 11.14 0.31
-1 2 -12 11.35 0.29
1 -2 12 11.66 0.32
-2 2 -12 0.03 0.03
-2 2 -12 0.03 0.03
-3 2 -12 24.7 0.52
-3 2 -12 23.2 0.52
-3 2 -12 24.3 0.52
-4 2 -12 0.01 0.02
-4 2 -12 0.01 0.02
-3 -1 12 0.08 0.04
-3 -1 12 0.18 0.03
-3 -1 12 0.11 0.03
-2 -1 12 0.47 0.07
-2 -1 12 0.39 0.04
-2 -1 12 0.39 0.05
-2 -1 12 0.45 0.05
1 1 -12 0.01 0.02
-1 -1 12 0.02 0.03
-1 -1 12 0 0.03
0 1 -12 41.5 0.89
0 1 -12 40.81 0.86
0 1 -12 42.37 0.92
0 -1 12 41.41 0.86
0 -1 12 42.34 0.91
-1 1 -12 6.89 0.22
-1 1 -12 6.79 0.21
1 -1 12 7.18 0.23
-2 1 -12 6.79 0.18
-2 1 -12 7.02 0.21
-2 1 -12 7.12 0.22
-3 1 -12 35.53 0.77
-3 1 -12 36.08 0.76
-3 1 -12 35.49 0.75
-4 1 -12 4.17 0.12
-4 1 -12 4.06 0.13
-3 0 12 28.54 0.6
-3 0 12 29.63 0.77
-3 0 12 28.26 0.62
-2 0 12 21.6 0.49
-2 0 12 21.75 0.48
-2 0 12 22.44 0.5
-1 0 12 6.17 0.27
-1 0 12 6.86 0.21
-1 0 12 6.78 0.2
0 0 -12 17.62 0.45
0 0 -12 18.3 0.42
0 0 -12 17.81 0.42
0 0 12 17.55 0.44
0 0 12 18.15 0.42
-1 0 -12 9.45 0.26
-1 0 -12 9.62 0.28
-1 0 -12 9.88 0.26
1 0 12 9.4 0.28
-2 0 -12 75.01 1.56
-2 0 -12 76.34 1.5
-2 0 -12 73.66 1.56
-2 0 -12 77.27 1.56
-3 0 -12 0.17 0.03
-3 0 -12 0.23 0.04
-3 0 -12 0.22 0.04
-4 0 -12 2.53 0.09
-4 0 -12 2.11 0.09
-5 0 -12 10.73 0.25
-3 1 12 5.89 0.21
-3 1 12 5.65 0.15
-3 1 12 5.82 0.16
-2 1 12 1.84 0.09
-2 1 12 1.89 0.09
1 -1 -12 0.71 0.06
-1 1 12 0.54 0.06
-1 1 12 0.59 0.06
0 -1 -12 1.7 0.09
0 -1 -12 1.85 0.09
0 -1 -12 1.81 0.11
0 1 12 1.81 0.09
0 1 12 1.96 0.11
-1 -1 -12 0.43 0.05
-1 -1 -12 0.48 0.05
-1 -1 -12 0.42 0.06
1 1 12 0.35 0.06
-2 -1 -12 1.32 0.08
-2 -1 -12 1.33 0.08
-2 -1 -12 1.42 0.09
-2 -1 -12 1.31 0.07
-3 -1 -12 7.29 0.21
-3 -1 -12 7.41 0.2
-3 -1 -12 7.52 0.21
-3 -1 -12 7.43 0.22
-4 -1 -12 6.85 0.19
-4 -1 -12 6.7 0.2
-4 -1 -12 7.24 0.19
-5 -1 -12 8.96 0.23
-5 -1 -12 9.59 0.23
2 -2 -12 1.35 0.07
-2 2 12 1.27 0.07
-2 2 12 1.34 0.07
-2 2 12 1.26 0.09
1 -2 -12 3.87 0.16
1 -2 -12 4.19 0.15
1 -2 -12 4.29 0.14
-1 2 12 4.32 0.15
-1 2 12 4.48 0.15
0 -2 -12 7.64 0.23
0 -2 -12 7.72 0.22
0 -2 -12 8.67 0.24
0 -2 -12 7.76 0.22
0 2 12 6.88 0.31
0 2 12 7.8 0.22
0 2 12 7.44 0.23
-1 -2 -12 2.56 0.12
-1 -2 -12 2.73 0.12
-1 -2 -12 2.52 0.12
1 2 12 2.5 0.13
-2 -2 -12 14.93 0.4
-2 -2 -12 15.36 0.39
-2 -2 -12 15.16 0.35
-2 -2 -12 15.38 0.37
-2 -2 -12 15.36 0.38
-3 -2 -12 0.02 0.02
-3 -2 -12 0.01 0.02
-3 -2 -12 0.02 0.03
-3 -2 -12 0.04 0.03
-4 -2 -12 6.98 0.21
-4 -2 -12 6.97 0.19
-4 -2 -12 7.33 0.19
-5 -2 -12 0.11 0.02
-5 -2 -12 0.07 0.03
-5 -2 -12 0.07 0.02
2 -3 -12 0.08 0.02
2 -3 -12 0.09 0.03
-2 3 12 0.06 0.02
-2 3 12 0.07 0.02
1 -3 -12 9.93 0.27
1 -3 -12 10.3 0.26
1 -3 -12 9.95 0.27
-1 3 12 10.01 0.25
-1 3 12 10.08 0.26
0 -3 -12 0.49 0.06
0 -3 -12 0.51 0.06
0 -3 -12 0.43 0.05
0 -3 -12 0.49 0.05
0 3 12 0.45 0.06
0 3 12 0.42 0.05
-1 -3 -12 5.69 0.19
-1 -3 -12 5.91 0.19
-1 -3 -12 5.55 0.18
-1 -3 -12 5.79 0.19
1 3 12 5.78 0.2
-2 -3 -12 9.31 0.26
-2 -3 -12 8.83 0.26
-2 -3 -12 8.43 0.24
-2 -3 -12 8.82 0.25
-3 -3 -12 0.88 0.05
-3 -3 -12 0.91 0.06
-3 -3 -12 0.94 0.07
-3 -3 -12 0.97 0.07
-4 -3 -12 10.98 0.27
-4 -3 -12 11.2 0.29
-4 -3 -12 11.2 0.27
-5 -3 -12 0.04 0.02
-5 -3 -12 0.09 0.02
1 -4 -12 0.13 0.03
1 -4 -12 0.16 0.03
-1 4 12 0.15 0.03
-1 4 12 0.13 0.03
0 -4 -12 25.18 0.55
0 -4 -12 24.49 0.58
0 -4 -12 24.15 0.56
0 4 12 25.53 0.56
0 4 12 24.21 0.52
-1 -4 -12 0.6 0.06
-1 -4 -12 0.64 0.05
-1 -4 -12 0.61 0.06
-1 -4 -12 0.59 0.06
1 4 12 0.66 0.07
-2 -4 -12 7.53 0.22
-2 -4 -12 7.22 0.21
-2 -4 -12 7.44 0.23
-2 -4 -12 7.1 0.2
-3 -4 -12 38.53 0.8
-3 -4 -12 38.48 0.83
-3 -4 -12 41.67 0.85
-3 -4 -12 38.27 0.81
-4 -4 -12 21.72 0.47
-4 -4 -12 21.91 0.49
-4 -4 -12 21.27 0.46
0 -5 -12 1.8 0.08
0 -5 -12 1.73 0.08
0 5 12 1.72 0.08
-1 -5 -12 2.92 0.1
-1 -5 -12 3.06 0.12
-1 -5 -12 3.09 0.11
1 5 12 2.99 0.12
-2 -5 -12 6.54 0.2
-2 -5 -12 6.12 0.18
-2 -5 -12 6.58 0.18
-2 -5 -12 6.53 0.18
-3 -5 -12 6.44 0.18
-3 -5 -12 7.05 0.18
-1 -4 13 0.17 0.03
0 4 -13 2.45 0.1
0 -4 13 2.39 0.1
-1 4 -13 3.75 0.12
-2 -3 13 0.81 0.05
-2 -3 13 0.83 0.05
-1 -3 13 10.22 0.25
-1 -3 13 10.12 0.26
0 3 -13 5.71 0.18
0 -3 13 6.23 0.18
0 -3 13 5.8 0.17
-1 3 -13 0.53 0.05
1 -3 13 0.58 0.06
-2 3 -13 0.81 0.05
-2 3 -13 0.8 0.05
-2 -2 13 4.69 0.18
-2 -2 13 4.66 0.14
-2 -2 13 4.31 0.14
-1 -2 13 0.43 0.05
-1 -2 13 0.51 0.05
-1 -2 13 0.48 0.06
0 2 -13 0.01 0.03
0 -2 13 0.05 0.03
0 -2 13 0.08 0.03
-1 2 -13 6.6 0.21
-1 2 -13 7.09 0.2
1 -2 13 7.05 0.21
-2 2 -13 0.42 0.05
-2 2 -13 0.49 0.05
-3 2 -13 0.67 0.05
-3 2 -13 0.65 0.04
2 1 -13 6.33 0.17
-2 -1 13 6.31 0.18
-2 -1 13 6.4 0.17
-2 -1 13 6.75 0.23
1 1 -13 8.11 0.21
-1 -1 13 8.13 0.23
-1 -1 13 7.88 0.21
0 1 -13 0.41 0.05
0 -1 13 0.43 0.06
0 -1 13 0.36 0.05
-1 1 -13 9.85 0.27
-1 1 -13 10.09 0.26
1 -1 13 9.65 0.28
-2 1 -13 4.49 0.15
-2 1 -13 4.38 0.15
-3 1 -13 4.37 0.14
-3 1 -13 4.31 0.13
2 0 -13 3.09 0.1
-2 0 13 3.03 0.11
-2 0 13 3.1 0.14
-2 0 13 3.06 0.1
1 0 -13 6.86 0.19
-1 0 13 6.76 0.19
-1 0 13 6.94 0.2
0 0 -13 1.79 0.1
0 0 -13 1.89 0.09
0 0 -13 1.9 0.09
0 0 13 2 0.1
0 0 13 1.78 0.09
-1 0 -13 2.72 0.11
-1 0 -13 2.38 0.12
-1 0 -13 2.71 0.11
1 0 13 2.89 0.13
-2 0 -13 7.2 0.21
-2 0 -13 7.49 0.21
-2 0 -13 7.66 0.22
-3 0 -13 1.1 0.07
-3 0 -13 1.16 0.06
-3 0 -13 1.08 0.05
-4 0 -13 3.43 0.1
-4 0 -13 3.3 0.11
2 -1 -13 4.63 0.13
-2 1 13 4.5 0.17
-2 1 13 4.4 0.13
1 -1 -13 6.35 0.21
1 -1 -13 6.8 0.19
-1 1 13 6.98 0.2
-1 1 13 6.79 0.19
0 -1 -13 5.23 0.18
0 -1 -13 5.39 0.17
0 1 13 5.12 0.16
0 1 13 5.28 0.18
-1 -1 -13 0.19 0.04
-1 -1 -13 0.23 0.04
-1 -1 -13 0.17 0.04
1 1 13 0.22 0.05
-2 -1 -13 16.83 0.41
-2 -1 -13 17.18 0.41
-2 -1 -13 16.38 0.39
-3 -1 -13 0.83 0.05
-3 -1 -13 0.76 0.05
-3 -1 -13 0.72 0.06
-3 -1 -13 0.78 0.06
-4 -1 -13 28.64 0.6
-4 -1 -13 29.51 0.62
1 -2 -13 0.38 0.04
1 -2 -13 0.41 0.05
-1 2 13 0.32 0.04
-1 2 13 0.4 0.05
0 -2 -13 29.53 0.63
0 -2 -13 28.18 0.64
0 2 13 28.09 0.6
0 2 13 29.21 0.64
-1 -2 -13 2.84 0.12
-1 -2 -13 2.68 0.11
-1 -2 -13 2.76 0.11
1 2 13 2.99 0.13
-2 -2 -13 6.54 0.19
-2 -2 -13 6.96 0.21
-2 -2 -13 6.79 0.2
-3 -2 -13 1.88 0.07
-3 -2 -13 1.67 0.07
-3 -2 -13 1.97 0.09
-3 -2 -13 1.79 0.09
-4 -2 -13 2.24 0.08
-4 -2 -13 2.15 0.09
-4 -2 -13 2.24 0.09
-1 3 13 12.95 0.3
0 -3 -13 1.57 0.08
0 -3 -13 1.61 0.08
0 -3 -13 1.36 0.08
0 3 13 1.51 0.08
-1 -3 -13 36.43 0.76
-1 -3 -13 34.54 0.73
-1 -3 -13 34.57 0.8
-1 -3 -13 35.37 0.76
1 3 13 36.29 0.77
-2 -3 -13 0.13 0.03
-2 -3 -13 0.11 0.03
-2 -3 -13 0.11 0.03
-2 -3 -13 0.15 0.03
-3 -3 -13 0.63 0.04
-3 -3 -13 0.65 0.05
-3 -3 -13 0.64 0.05
-4 -3 -13 0.51 0.05
-4 -3 -13 0.5 0.03
0 4 13 12.62 0.3
-1 -4 -13 13 0.3
-1 -4 -13 13.59 0.32
-1 -4 -13 13.22 0.33
-1 -4 -13 14.1 0.32
1 4 13 13.16 0.32
-2 -4 -13 11.15 0.27
-2 -4 -13 11.3 0.26
-2 -4 -13 10.59 0.26
-2 -4 -13 10.95 0.29
-3 -4 -13 6.28 0.17
-1 -2 14 1.92 0.08
0 2 -14 1.08 0.07
0 -2 14 1.17 0.07
-1 2 -14 16.76 0.39
-1 -1 14 1.88 0.08
-1 -1 14 1.8 0.07
0 1 -14 1.01 0.07
0 -1 14 1.05 0.06
0 -1 14 1.12 0.07
-1 1 -14 0.93 0.06
-1 1 -14 0.93 0.06
1 -1 14 0.93 0.07
-2 1 -14 0.01 0.02
-2 1 -14 -0.01 0.02
1 0 -14 2.54 0.09
-1 0 14 2.67 0.1
-1 0 14 2.77 0.12
0 0 -14 0.19 0.03
0 0 -14 0.17 0.03
0 0 14 0.2 0.04
0 0 14 0.18 0.03
-1 0 -14 6.65 0.19
-1 0 -14 6.59 0.19
-1 0 -14 6.48 0.18
1 0 14 6.72 0.2
-2 0 -14 2.05 0.08
-2 0 -14 1.97 0.08
-3 0 -14 4.41 0.13
1 -1 -14 27.58 0.59
-1 1 14 27.51 0.58
0 -1 -14 0.14 0.03
0 -1 -14 0.17 0.03
0 1 14 0.14 0.03
-1 -1 -14 0.62 0.05
-1 -1 -14 0.54 0.05
-1 -1 -14 0.67 0.05
1 1 14 0.63 0.06
-2 -1 -14 0.1 0.03
-2 -1 -14 0.14 0.03
-2 -1 -14 0.11 0.03
0 -2 -14 0.77 0.05
0 -2 -14 0.7 0.05
0 2 14 0.78 0.05
-1 -2 -14 0.64 0.05
-1 -2 -14 0.75 0.05
-1 -2 -14 0.7 0.05
1 2 14 0.74 0.06
-2 -2 -14 21.1 0.47
-2 -2 -14 21.79 0.48
-1 -3 -14 20.63 0.45
