#------------------------------------------------------------------------------
#$Date: 2016-03-22 22:09:21 +0200 (Tue, 22 Mar 2016) $
#$Revision: 179033 $
#$URL: svn://www.crystallography.net/cod/cif/4/12/31/4123199.cif $
#------------------------------------------------------------------------------
#
# This file is available in the Crystallography Open Database (COD),
# http://www.crystallography.net/
#
# All data on this site have been placed in the public domain by the
# contributors.
#
data_4123199
loop_
_publ_author_name
'Shaw, Megan H.'
'McCreanor, Niall G.'
'Whittingham, William G.'
'Bower, John F.'
_publ_section_title
;
 Reversible C-C bond activation enables stereocontrol in rh-catalyzed
 carbonylative cycloadditions of aminocyclopropanes.
;
_journal_issue                   1
_journal_name_full               'Journal of the American Chemical Society'
_journal_page_first              463
_journal_page_last               468
_journal_paper_doi               10.1021/ja511335v
_journal_volume                  137
_journal_year                    2015
_chemical_formula_moiety         'C18 H28 Cl2 N4 O6 Rh2, 2(C H2 Cl2)'
_chemical_formula_sum            'C20 H32 Cl6 N4 O6 Rh2'
_chemical_formula_weight         843.01
_chemical_name_systematic
;
 ?
;
_space_group_crystal_system      triclinic
_space_group_IT_number           2
_space_group_name_Hall           '-P 1'
_space_group_name_H-M_alt        'P -1'
_symmetry_space_group_name_Hall  '-P 1'
_symmetry_space_group_name_H-M   'P -1'
_atom_sites_solution_hydrogens   geom
_audit_creation_method           SHELXL-2013
_cell_angle_alpha                66.505(2)
_cell_angle_beta                 89.640(2)
_cell_angle_gamma                71.054(2)
_cell_formula_units_Z            1
_cell_length_a                   8.7080(3)
_cell_length_b                   9.9715(3)
_cell_length_c                   10.5466(3)
_cell_measurement_reflns_used    7316
_cell_measurement_temperature    100(2)
_cell_measurement_theta_max      27.49
_cell_measurement_theta_min      2.38
_cell_volume                     786.31(5)
_computing_cell_refinement       'Bruker Apex2'
_computing_data_collection       'Bruker Apex2'
_computing_data_reduction        'Bruker SAINT'
_computing_molecular_graphics    'Bruker ShelXTL'
_computing_publication_material  'Bruker ShelXTL'
_computing_structure_refinement  'SHELXL-2013 (Sheldrick, 2013)'
_computing_structure_solution    'SHELXS-2013 (Sheldrick, 2013)'
_diffrn_ambient_temperature      100(2)
_diffrn_measured_fraction_theta_full 0.996
_diffrn_measured_fraction_theta_max 0.994
_diffrn_measurement_device_type  'Bruker Apex II kappa CCD area detector'
_diffrn_measurement_method       'phi and omega scans'
_diffrn_radiation_source         'sealed tube'
_diffrn_radiation_type           MoK\a
_diffrn_radiation_wavelength     0.71073
_diffrn_reflns_av_R_equivalents  0.0262
_diffrn_reflns_av_unetI/netI     0.0263
_diffrn_reflns_Laue_measured_fraction_full 0.996
_diffrn_reflns_Laue_measured_fraction_max 0.994
_diffrn_reflns_limit_h_max       11
_diffrn_reflns_limit_h_min       -11
_diffrn_reflns_limit_k_max       12
_diffrn_reflns_limit_k_min       -12
_diffrn_reflns_limit_l_max       13
_diffrn_reflns_limit_l_min       -13
_diffrn_reflns_number            11983
_diffrn_reflns_point_group_measured_fraction_full 0.996
_diffrn_reflns_point_group_measured_fraction_max 0.994
_diffrn_reflns_theta_full        25.242
_diffrn_reflns_theta_max         27.505
_diffrn_reflns_theta_min         2.127
_exptl_absorpt_coefficient_mu    1.599
_exptl_absorpt_correction_T_max  0.7456
_exptl_absorpt_correction_T_min  0.6249
_exptl_absorpt_correction_type   multi-scan
_exptl_absorpt_process_details   SADABS-2012/1
_exptl_crystal_colour            colourless
_exptl_crystal_density_diffrn    1.780
_exptl_crystal_description       needle
_exptl_crystal_F_000             420
_exptl_crystal_size_max          0.50
_exptl_crystal_size_mid          0.10
_exptl_crystal_size_min          0.06
_refine_diff_density_max         1.191
_refine_diff_density_min         -1.186
_refine_diff_density_rms         0.128
_refine_ls_extinction_method     none
_refine_ls_goodness_of_fit_ref   0.932
_refine_ls_hydrogen_treatment    constr
_refine_ls_matrix_type           full
_refine_ls_number_parameters     175
_refine_ls_number_reflns         3594
_refine_ls_number_restraints     0
_refine_ls_restrained_S_all      0.932
_refine_ls_R_factor_all          0.0395
_refine_ls_R_factor_gt           0.0363
_refine_ls_shift/su_max          0.000
_refine_ls_shift/su_mean         0.000
_refine_ls_structure_factor_coef Fsqd
_refine_ls_weighting_details
'w=1/[\s^2^(Fo^2^)+(0.0290P)^2^+7.2282P] where P=(Fo^2^+2Fc^2^)/3'
_refine_ls_weighting_scheme      calc
_refine_ls_wR_factor_gt          0.0896
_refine_ls_wR_factor_ref         0.0912
_reflns_Friedel_coverage         0.000
_reflns_number_gt                3390
_reflns_number_total             3594
_reflns_threshold_expression     'I > 2\s(I)'
_cod_data_source_file            ja511335v_si_006.cif
_cod_data_source_block           MS1430
_cod_depositor_comments
;
The following automatic conversions were performed:
'__diffrn_radiation_source' tag replaced with
'_diffrn_radiation_source'.

Automatic conversion script
Id: cif_correct_tags 1440 2010-10-19 06:21:57Z saulius 

 Adding full bibliography for 4123199--4123207.cif.
;
_cod_original_cell_volume        786.31(4)
_cod_database_code               4123199
#BEGIN Tags that were not found in dictionaries:
_shelx_space_group_comment
;
The symmetry employed for this shelxl refinement is uniquely defined
by the following loop, which should always be used as a source of
symmetry information in preference to the above space-group names.
They are only intended as comments.
;
_shelxl_version_number           2013-3
_shelx_res_file
;
TITL MS1430 in P1                New: P-1
CELL  0.71073    8.7080    9.9715   10.5466    66.505    89.640    71.054
ZERR        1    0.0003    0.0003    0.0003     0.002     0.002     0.002
LATT 1
SFAC C  H  Cl N  O  Rh
UNIT 20 32 6 4 6 2
L.S. 50
ACTA
BOND $H
FMAP 2
PLAN 3
CONF
WGHT    0.029000    7.228199
FVAR       0.20356
C1    1    0.607042   -0.103458    0.305531    11.00000    0.01651    0.02208 =
         0.01630   -0.00934    0.00218   -0.00819
C2    1    0.089478    0.200923    0.295328    11.00000    0.01402    0.01534 =
         0.01454   -0.00492    0.00362   -0.00503
C3    1   -0.059081    0.389772    0.382806    11.00000    0.02120    0.02415 =
         0.03454   -0.01807    0.00745   -0.00538
AFIX 137
H3A   2    0.031873    0.334463    0.456815    11.00000   -1.50000
H3B   2   -0.159822    0.407763    0.421663    11.00000   -1.50000
H3C   2   -0.051198    0.488066    0.321439    11.00000   -1.50000
AFIX   0
C4    1   -0.201522    0.357913    0.201044    11.00000    0.01543    0.01932 =
         0.02460   -0.00484    0.00143   -0.00309
AFIX 137
H4A   2   -0.176136    0.313211    0.134608    11.00000   -1.50000
H4B   2   -0.234111    0.469478    0.153473    11.00000   -1.50000
H4C   2   -0.289447    0.330887    0.247338    11.00000   -1.50000
AFIX   0
C5    1   -0.030840    0.017786    0.270092    11.00000    0.01727    0.02346 =
         0.03895   -0.01831    0.00802   -0.01300
AFIX 137
H5A   2   -0.113854    0.061733    0.316970    11.00000   -1.50000
H5B   2    0.015846   -0.093312    0.323080    11.00000   -1.50000
H5C   2   -0.078844    0.040547    0.178848    11.00000   -1.50000
AFIX   0
C6    1    0.259078   -0.000607    0.231011    11.00000    0.01296    0.01764 =
         0.01808   -0.01241   -0.00148   -0.00334
AFIX  13
H6    2    0.280116   -0.113096    0.276363    11.00000   -1.20000
AFIX   0
C7    1    0.267961    0.049602    0.075151    11.00000    0.01359    0.02286 =
         0.02178   -0.01369    0.00126   -0.00471
AFIX  23
H7A   2    0.166598    0.061093    0.027285    11.00000   -1.20000
H7B   2    0.357615   -0.028147    0.059936    11.00000   -1.20000
AFIX   0
C8    1    0.295554    0.205678    0.019600    11.00000    0.01887    0.02104 =
         0.01588   -0.00647    0.00207   -0.00609
AFIX  23
H8A   2    0.330301    0.228392   -0.071913    11.00000   -1.20000
H8B   2    0.194325    0.289027    0.010942    11.00000   -1.20000
AFIX   0
C9    1    0.426643    0.195002    0.120785    11.00000    0.01661    0.01457 =
         0.01797   -0.00763    0.00630   -0.00689
C10   1    0.336598    0.541297    0.206770    11.00000    0.02485    0.02238 =
         0.02545   -0.01304    0.00118   -0.00509
AFIX  23
H10A  2    0.330893    0.437541    0.252636    11.00000   -1.20000
H10B  2    0.396826    0.545070    0.128477    11.00000   -1.20000
AFIX   0
CL1   3    0.402192   -0.134313    0.560508    11.00000    0.01475    0.01745 =
         0.01564   -0.00630    0.00289   -0.00813
CL2   3    0.440580    0.577453    0.324777    11.00000    0.03643    0.02788 =
         0.05012   -0.02406   -0.01777    0.00493
CL3   3    0.134694    0.681691    0.144610    11.00000    0.02274    0.03369 =
         0.03491   -0.01156   -0.00238   -0.00331
N2    4    0.097554    0.085368    0.256963    11.00000    0.00979    0.01673 =
         0.02112   -0.00885    0.00402   -0.00641
N3    4   -0.056187    0.297050    0.304495    11.00000    0.01088    0.01922 =
         0.02853   -0.01335    0.00409   -0.00188
O1    5    0.721004   -0.198839    0.300897    11.00000    0.01786    0.02583 =
         0.03433   -0.01807    0.00061    0.00180
O2    5    0.221028    0.217455    0.327898    11.00000    0.01205    0.01258 =
         0.02229   -0.00737    0.00187   -0.00344
O3    5    0.516740    0.270040    0.084448    11.00000    0.03091    0.03312 =
         0.01859   -0.00781    0.00488   -0.02390
RH1   6    0.428182    0.049788    0.318054    11.00000    0.00894    0.01148 =
         0.01290   -0.00585    0.00169   -0.00312
HKLF 4

REM  MS1430 in P1                New: P-1
REM R1 =  0.0363 for    3390 Fo > 4sig(Fo)  and  0.0395 for all    3594 data
REM    175 parameters refined using      0 restraints

END

WGHT      0.0000      4.3125

REM Highest difference peak  1.191,  deepest hole -1.186,  1-sigma level  0.128
Q1    1   0.4605 -0.0513  0.3489  11.00000  0.05    1.19
Q2    1   0.4118  0.1547  0.1894  11.00000  0.05    0.67
Q3    1   0.2750  0.0411  0.3197  11.00000  0.05    0.66
;
_shelx_res_checksum              11569
_shelx_hkl_file
;
  -1   0   0  378.35    6.17
  -1   0   0  380.93    6.00
  -1   0   0  386.48    7.22
   1   0   0  376.61    6.18
  -2   0   0  151.39    2.78
  -2   0   0  157.64    2.75
  -2   0   0  156.76    3.20
   2   0   0  155.29    2.80
   2   0   0  153.46    2.93
  -3   0   0   21.22    0.88
  -3   0   0   24.25    0.82
  -3   0   0   22.94    0.81
   3   0   0   23.29    0.80
   3   0   0   25.11    0.84
  -4   0   0   24.22    1.05
  -4   0   0   26.84    0.99
  -4   0   0   28.40    1.03
   4   0   0   28.84    1.04
   4   0   0   28.26    0.98
  -5   0   0   51.21    1.64
  -5   0   0   51.46    1.59
  -5   0   0   50.61    1.56
   5   0   0   52.53    1.61
   5   0   0   51.97    1.56
  -6   0   0  243.81    5.53
  -6   0   0  245.53    4.92
  -6   0   0  246.53    4.96
   6   0   0  253.36    5.03
   6   0   0  244.96    5.14
  -7   0   0  154.18    3.63
  -7   0   0  153.82    3.98
  -7   0   0  149.69    3.59
   7   0   0  152.70    3.69
   7   0   0  157.55    3.67
  -8   0   0   51.03    2.04
  -8   0   0   50.89    2.00
   8   0   0   50.52    1.90
   8   0   0   53.67    2.02
  -9   0   0   10.49    1.27
   9   0   0   12.11    1.17
 -10   0   0    2.20    0.85
  10   0   0    1.59    0.74
  10  -1   0    5.02    1.07
 -10   1   0    6.12    1.25
 -10   1   0    5.23    1.08
   9  -1   0    6.97    1.08
  -9   1   0    7.00    1.10
   8  -1   0   22.19    1.39
   8  -1   0   20.50    1.28
  -8   1   0   19.82    1.44
  -8   1   0   21.27    1.40
  -8   1   0   20.82    1.38
   7  -1   0   52.36    1.87
   7  -1   0   52.11    1.96
  -7   1   0   50.33    1.88
  -7   1   0   53.37    2.11
  -7   1   0   54.05    1.96
   6  -1   0  164.38    3.80
   6  -1   0  167.08    3.82
  -6   1   0  171.74    4.24
  -6   1   0  163.80    3.68
  -6   1   0  165.65    3.79
   5  -1   0  130.84    3.06
  -5   1   0  133.01    3.04
  -5   1   0  134.50    3.42
  -5   1   0  132.25    2.97
   4  -1   0    1.14    0.37
  -4   1   0    1.03    0.38
  -4   1   0    1.32    0.42
  -4   1   0    1.25    0.39
   3  -1   0   19.09    0.83
  -3   1   0   19.28    0.82
  -3   1   0   17.85    0.77
  -3   1   0   18.18    0.91
  -2   1   0    2.28    0.35
  -2   1   0    1.93    0.31
   1  -1   0  134.24    2.40
  -1   1   0  128.49    2.38
  -1   1   0  131.99    2.29
  -1   1   0  133.31    2.81
   0  -1   0  403.74    7.90
   0  -1   0  396.08    6.39
   0   1   0  392.19    6.39
   0   1   0  382.51    6.60
   0   1   0  410.59    7.56
   0   1   0  389.64    6.40
  -1  -1   0  262.82    4.30
   1   1   0  258.80    5.15
   1   1   0  272.55    4.96
   1   1   0  270.06    4.71
  -2  -1   0  150.44    2.60
   2   1   0  150.20    2.85
   2   1   0  149.46    3.02
   2   1   0  144.79    3.08
  -3  -1   0  106.33    2.05
   3   1   0  104.41    2.06
   3   1   0  106.39    2.24
   3   1   0   99.71    2.36
  -4  -1   0    9.70    0.58
   4   1   0    9.11    0.59
   4   1   0   11.64    0.62
  -5  -1   0   12.95    0.75
  -5  -1   0   13.13    0.81
   5   1   0   11.80    0.75
   5   1   0   13.72    0.79
  -6  -1   0  131.61    3.02
  -6  -1   0  138.80    3.16
   6   1   0  137.31    3.09
   6   1   0  134.02    3.21
  -7  -1   0  101.97    2.75
  -7  -1   0  101.68    2.64
   7   1   0   98.67    2.74
   7   1   0   99.70    2.65
  -8  -1   0    7.94    0.98
   8   1   0    8.42    0.89
   8   1   0   10.63    1.15
  -9  -1   0   20.16    1.39
   9   1   0   20.34    1.37
   9   1   0   22.14    1.59
   9   1   0   20.86    1.36
 -10  -1   0    1.68    0.81
  10   1   0    1.38    0.79
  10   1   0    1.71    0.68
   9  -2   0    1.68    0.81
  -9   2   0    3.78    0.98
  -9   2   0    2.83    1.02
   8  -2   0   28.50    1.66
  -8   2   0   30.24    1.82
  -8   2   0   31.47    1.73
  -8   2   0   27.57    1.64
   7  -2   0   65.31    2.30
   7  -2   0   60.54    2.14
  -7   2   0   62.16    2.17
  -7   2   0   62.74    2.48
  -7   2   0   62.71    2.25
   6  -2   0  165.78    3.96
  -6   2   0  168.20    3.82
  -6   2   0  174.31    4.50
  -6   2   0  170.73    3.96
   5  -2   0  167.14    3.81
  -5   2   0  171.21    3.81
  -5   2   0  175.37    4.39
  -5   2   0  177.10    3.71
   4  -2   0   57.54    1.73
  -4   2   0   59.18    1.73
  -4   2   0   56.73    1.63
  -4   2   0   56.56    1.95
   3  -2   0  143.35    3.02
  -3   2   0  136.25    2.96
  -3   2   0  140.11    2.85
  -3   2   0  144.94    3.50
   2  -2   0   75.06    1.78
  -2   2   0   74.87    1.77
  -2   2   0   75.63    1.68
  -2   2   0   78.42    2.10
   1  -2   0   14.24    0.61
  -1   2   0   15.39    0.63
  -1   2   0   13.94    0.60
  -1   2   0   11.42    0.73
   0  -2   0   54.14    1.16
   0   2   0   52.38    1.15
   0   2   0   54.74    1.39
   0   2   0   53.38    1.11
  -1  -2   0 1000.00   15.66
  -1  -2   0  978.40   18.68
   1   2   0  977.02   17.87
   1   2   0  980.02   18.54
   1   2   0  966.66   15.66
  -2  -2   0   74.36    1.76
   2   2   0   74.78    1.73
   2   2   0   75.10    1.69
   2   2   0   73.17    1.81
  -3  -2   0   63.29    1.32
   3   2   0   63.85    1.58
   3   2   0   64.70    1.64
   3   2   0   61.08    1.66
  -4  -2   0   17.94    0.68
   4   2   0   19.06    0.87
   4   2   0   17.59    0.82
   4   2   0   17.68    0.70
   4   2   0   19.45    0.84
  -5  -2   0    0.30    0.29
   5   2   0    0.33    0.33
   5   2   0   -0.79    0.28
   5   2   0   -0.10    0.31
  -6  -2   0    1.56    0.48
   6   2   0    0.94    0.46
   6   2   0    2.23    0.61
   6   2   0    0.36    0.44
  -7  -2   0   32.88    1.50
  -7  -2   0   34.64    1.34
   7   2   0   36.43    1.39
   7   2   0   32.77    1.66
   7   2   0   33.74    1.47
  -8  -2   0   36.82    1.68
   8   2   0   36.92    1.62
   8   2   0   35.93    1.82
   8   2   0   36.46    1.53
  -9  -2   0   39.33    1.88
   9   2   0   40.64    2.07
   9   2   0   40.85    1.82
   9   2   0   40.02    1.71
 -10  -2   0   36.17    1.95
  10   2   0   37.55    2.11
  10   2   0   36.04    1.79
 -11  -2   0   24.55    1.77
  11   2   0   18.77    1.79
  11   2   0   24.26    1.68
   9  -3   0   -0.05    0.76
  -9   3   0    0.59    0.90
  -9   3   0   -0.28    0.76
  -9   3   0   -0.51    0.81
   8  -3   0   -0.25    0.63
  -8   3   0   -0.42    0.63
  -8   3   0   -0.35    0.71
  -8   3   0   -0.39    0.68
  -8   3   0   -0.36    0.64
   7  -3   0   13.30    1.18
  -7   3   0    8.41    1.25
  -7   3   0   11.72    1.41
  -7   3   0   11.86    1.27
  -7   3   0   13.08    1.23
   6  -3   0   17.21    1.20
  -6   3   0   18.98    1.24
  -6   3   0   17.58    1.41
  -6   3   0   20.07    1.28
   5  -3   0    9.90    0.91
  -5   3   0    8.23    1.11
  -5   3   0    9.78    0.96
  -5   3   0   10.02    1.06
   4  -3   0   22.90    1.14
  -4   3   0   21.77    1.11
  -4   3   0   19.80    1.31
  -4   3   0   23.51    1.16
   3  -3   0    7.72    0.68
  -3   3   0    4.96    0.62
   2  -3   0   21.19    0.95
  -2   3   0   23.26    0.94
  -2   3   0   21.72    0.97
   1  -3   0    5.30    0.48
  -1   3   0    5.45    0.46
  -1   3   0    5.13    0.46
  -1   3   0    5.35    0.63
  -1   3   0    4.84    0.48
   0  -3   0   75.27    1.63
   0   3   0   75.08    1.56
   0   3   0   73.38    1.62
   0   3   0   73.03    1.95
  -1  -3   0   40.94    0.96
   1   3   0   37.48    1.22
   1   3   0   39.50    1.16
   1   3   0   38.56    0.94
  -2  -3   0   61.38    1.67
   2   3   0   64.48    1.60
   2   3   0   62.67    1.61
   2   3   0   63.39    1.74
  -3  -3   0  259.04    5.44
  -3  -3   0  262.61    5.32
   3   3   0  258.01    5.02
   3   3   0  259.20    5.23
   3   3   0  256.58    5.48
   4   3   0   40.95    1.34
   4   3   0   40.84    1.34
   4   3   0   39.77    1.39
  -5  -3   0    5.99    0.54
   5   3   0    5.73    0.57
   5   3   0    5.16    0.66
   5   3   0    5.86    0.69
   5   3   0    5.21    0.59
  -6  -3   0   12.43    0.71
   6   3   0   10.95    0.88
   6   3   0   12.46    0.86
   6   3   0   13.32    0.78
   6   3   0   12.65    0.94
   7   3   0   37.20    1.55
   7   3   0   35.73    1.67
   7   3   0   37.85    1.37
  -8  -3   0   23.82    1.34
   8   3   0   22.94    1.24
   8   3   0   22.18    1.31
   8   3   0   22.24    1.43
  -9  -3   0   25.64    1.57
   9   3   0   25.13    1.69
   9   3   0   26.16    1.52
   9   3   0   25.29    1.38
 -10  -3   0   64.35    2.53
  10   3   0   62.55    2.79
  10   3   0   62.71    2.48
  10   3   0   64.83    2.29
 -11  -3   0   10.56    1.52
  11   3   0   12.96    1.39
  11   3   0   13.54    1.79
   8  -4   0    0.99    0.85
  -8   4   0    1.36    0.79
  -8   4   0    0.56    0.84
  -8   4   0   -0.09    0.84
   7  -4   0    2.93    0.86
  -7   4   0    2.84    0.93
  -7   4   0    2.84    0.91
   6  -4   0    6.86    1.05
  -6   4   0    5.36    1.11
  -6   4   0    4.98    1.01
  -6   4   0    6.73    1.05
   5  -4   0   36.07    1.61
  -5   4   0   32.40    1.91
  -5   4   0   33.97    1.57
  -5   4   0   32.80    1.64
   4  -4   0   36.77    1.55
  -4   4   0   37.42    1.55
  -4   4   0   37.89    1.60
  -4   4   0   35.79    1.90
   3  -4   0  119.83    2.94
  -3   4   0  123.79    2.98
  -3   4   0  116.46    3.12
  -3   4   0  128.29    3.56
  -3   4   0  123.97    2.94
   2  -4   0  246.23    4.76
  -2   4   0  240.51    4.77
  -2   4   0  243.70    4.73
  -2   4   0  248.25    5.67
  -2   4   0  231.29    5.30
   1  -4   0    1.84    0.39
  -1   4   0    2.17    0.37
  -1   4   0    0.81    0.40
  -1   4   0    1.95    0.43
   0  -4   0    7.18    0.54
   0   4   0    7.63    0.50
   0   4   0    6.09    0.73
   0   4   0    8.03    0.58
  -1  -4   0    4.98    0.42
   1   4   0    5.39    0.59
   1   4   0    3.49    0.54
   1   4   0    4.66    0.44
  -2  -4   0  273.71    5.88
  -2  -4   0  286.08    4.84
   2   4   0  281.56    4.84
   2   4   0  277.28    5.98
  -3  -4   0  196.85    4.44
   3   4   0  204.91    4.30
   3   4   0  198.00    4.14
   3   4   0  201.72    4.57
  -4  -4   0  447.44    8.78
  -4  -4   0  428.66    8.94
   4   4   0  436.74    9.04
   4   4   0  433.87    8.62
   4   4   0  441.93    8.27
  -5  -4   0  147.12    3.48
   5   4   0  147.56    3.42
   5   4   0  143.46    3.65
   5   4   0  145.41    3.48
  -6  -4   0   11.05    0.65
   6   4   0   10.12    0.88
   6   4   0   11.25    0.69
   6   4   0   11.14    0.87
   6   4   0    9.82    0.83
   7   4   0    3.15    0.55
   7   4   0    2.59    0.67
   7   4   0    1.98    0.60
   7   4   0    2.13    0.60
   8   4   0   19.13    1.28
   8   4   0   15.41    1.10
   8   4   0   18.71    1.38
   9   4   0   91.71    3.20
   9   4   0   89.16    2.53
   9   4   0   89.07    2.93
 -10  -4   0   60.73    2.58
  10   4   0   69.75    2.94
  10   4   0   64.40    2.60
  10   4   0   69.89    2.31
 -11  -4   0   47.35    2.36
  11   4   0   47.12    2.57
  11   4   0   51.71    2.13
   7  -5   0    7.25    1.26
  -7   5   0    4.22    1.22
  -7   5   0    7.25    1.28
  -7   5   0    5.92    1.25
   6  -5   0   12.79    1.56
  -6   5   0   11.70    1.56
  -6   5   0   12.95    1.48
  -6   5   0   14.94    1.56
   5  -5   0   19.72    1.37
  -5   5   0   19.64    1.39
  -5   5   0   19.31    1.35
  -5   5   0   17.61    1.64
   4  -5   0   13.35    1.11
  -4   5   0   12.90    1.34
  -4   5   0   11.89    1.07
  -4   5   0   14.01    1.12
   3  -5   0   97.50    2.63
  -3   5   0   95.02    2.59
  -3   5   0   86.86    2.56
  -3   5   0   94.13    3.10
  -3   5   0   91.07    2.55
   2  -5   0   57.38    1.81
  -2   5   0   52.61    1.77
  -2   5   0   57.62    2.22
  -2   5   0   56.88    1.75
  -2   5   0   54.35    1.74
   1  -5   0   38.11    1.38
  -1   5   0   40.09    1.72
  -1   5   0   39.49    1.29
  -1   5   0   41.27    1.41
   0  -5   0    8.51    0.69
   0   5   0    8.64    0.72
   0   5   0    4.95    0.81
   0   5   0    8.71    0.61
  -1  -5   0  144.08    2.93
   1   5   0  143.49    3.51
   1   5   0  141.56    2.92
   1   5   0  144.31    3.65
  -2  -5   0   15.64    0.69
   2   5   0   15.29    0.99
   2   5   0   13.18    0.87
   2   5   0   15.21    0.71
  -3  -5   0   68.78    2.11
  -3  -5   0   68.30    1.55
   3   5   0   70.68    2.23
   3   5   0   70.34    2.04
  -4  -5   0  345.47    7.24
  -4  -5   0  339.86    7.33
   4   5   0  347.39    7.08
   4   5   0  342.58    7.47
   4   5   0  342.07    6.79
  -5  -5   0   36.00    1.47
  -5  -5   0   34.79    1.49
   5   5   0   36.24    1.46
   5   5   0   35.82    1.44
   5   5   0   33.60    1.51
  -6  -5   0    0.43    0.49
  -6  -5   0    1.12    0.49
   6   5   0    1.07    0.51
   6   5   0    1.09    0.46
   6   5   0    0.69    0.42
   7   5   0   28.99    1.45
   7   5   0   25.96    1.42
   7   5   0   25.54    1.39
   8   5   0   90.59    2.94
   8   5   0   88.71    2.93
   8   5   0   90.46    2.85
   9   5   0   79.08    2.94
   9   5   0   81.01    2.84
  10   5   0   63.26    2.61
  10   5   0   59.24    2.70
  10   5   0   62.91    2.08
 -11  -5   0   38.36    2.17
  11   5   0   42.84    2.39
  11   5   0   39.91    2.23
   7  -6   0    7.55    1.35
  -7   6   0    7.68    1.36
  -7   6   0    5.12    1.26
  -7   6   0    4.61    1.19
   6  -6   0    1.69    0.92
  -6   6   0    2.52    0.89
  -6   6   0    1.87    0.94
  -6   6   0    3.28    0.99
   5  -6   0   22.24    1.59
  -5   6   0   21.12    1.95
  -5   6   0   21.17    1.60
  -5   6   0   22.67    1.60
   4  -6   0   69.00    2.45
  -4   6   0   67.01    2.37
  -4   6   0   72.88    2.99
  -4   6   0   66.67    2.41
   3  -6   0  112.83    3.07
  -3   6   0  112.34    3.71
  -3   6   0  109.65    2.98
  -3   6   0  109.78    3.02
   2  -6   0  179.01    4.11
  -2   6   0  179.31    4.07
  -2   6   0  183.80    4.94
  -2   6   0  181.02    4.01
   1  -6   0  269.38    5.41
  -1   6   0  271.99    5.33
  -1   6   0  267.74    5.37
  -1   6   0  273.23    6.48
   0  -6   0    7.83    0.74
   0   6   0    7.34    0.96
   0   6   0    8.23    0.77
   0   6   0    9.42    0.70
  -1  -6   0   27.20    1.10
   1   6   0   26.10    1.11
   1   6   0   29.29    1.42
   1   6   0   27.56    1.44
  -2  -6   0   33.55    1.13
   2   6   0   33.31    1.58
   2   6   0   34.74    1.44
   2   6   0   35.26    1.20
  -3  -6   0  104.32    2.27
   3   6   0  103.95    3.10
   3   6   0  107.66    2.29
  -4  -6   0   85.62    2.62
  -4  -6   0   85.37    2.62
   4   6   0   88.73    2.80
   4   6   0   87.89    2.54
  -5  -6   0   98.42    2.86
  -5  -6   0   95.39    2.85
   5   6   0   95.57    2.75
   5   6   0   94.41    2.99
  -6  -6   0   82.92    2.63
  -6  -6   0   83.20    2.68
   6   6   0   79.72    2.54
   6   6   0   81.59    2.77
   6   6   0   83.99    2.60
  -7  -6   0    9.51    1.05
  -7  -6   0    9.71    1.07
   7   6   0    6.72    0.91
   7   6   0    9.05    1.00
   7   6   0    8.76    0.99
  -8  -6   0    4.99    1.04
   8   6   0    3.04    0.74
   8   6   0    2.76    0.72
   8   6   0    3.78    0.83
   9   6   0   17.00    1.47
   9   6   0   18.49    1.49
  10   6   0   37.25    2.11
  10   6   0   36.51    2.04
 -11  -6   0   16.38    1.68
  11   6   0   14.73    1.65
   6  -7   0   -0.25    0.81
  -6   7   0    1.25    0.85
  -6   7   0    0.85    0.94
  -6   7   0    0.47    0.89
   5  -7   0   37.47    2.07
  -5   7   0   42.74    2.16
  -5   7   0   37.89    2.01
  -5   7   0   39.44    2.56
   4  -7   0   39.79    2.02
  -4   7   0   37.14    1.86
  -4   7   0   39.15    2.02
  -4   7   0   41.50    2.54
   3  -7   0   41.64    1.87
  -3   7   0   36.11    1.69
  -3   7   0   40.01    1.87
  -3   7   0   35.19    2.32
   2  -7   0   37.67    1.75
  -2   7   0   40.39    2.18
  -2   7   0   37.38    1.76
  -2   7   0   39.98    1.61
   1  -7   0    8.39    1.01
  -1   7   0    8.33    1.21
  -1   7   0   10.25    0.89
  -1   7   0   10.04    0.99
   0  -7   0   18.17    1.12
   0   7   0   20.51    1.17
   0   7   0   13.56    1.49
  -1  -7   0    8.58    0.83
   1   7   0    6.28    1.01
   1   7   0    8.80    0.91
   1   7   0    7.35    1.06
  -2  -7   0  129.88    2.94
   2   7   0  130.40    3.81
   2   7   0  132.41    2.96
   2   7   0  134.28    3.58
   3   7   0   30.01    1.63
   3   7   0   27.49    1.14
  -4  -7   0   60.14    2.27
   4   7   0   60.55    2.38
  -5  -7   0   84.55    2.84
  -5  -7   0   90.55    2.89
   5   7   0   86.69    2.73
   5   7   0   93.79    3.07
  -6  -7   0   45.70    2.04
  -6  -7   0   49.83    2.09
   6   7   0   48.00    2.01
   6   7   0   47.14    2.16
  -7  -7   0   12.56    1.18
  -7  -7   0   11.06    1.23
   7   7   0   11.64    1.22
   7   7   0   13.40    1.23
   7   7   0    7.80    1.03
  -8  -7   0    3.29    0.80
  -8  -7   0    4.09    0.95
   8   7   0    3.55    0.89
   8   7   0    2.63    0.77
   8   7   0    0.63    0.63
  -9  -7   0    3.02    0.96
   9   7   0    3.36    0.91
   9   7   0    4.60    0.97
   9   7   0    4.31    0.99
 -10  -7   0   11.24    1.61
  10   7   0   12.46    1.56
  10   7   0    8.46    1.30
   5  -8   0    0.83    0.87
  -5   8   0    0.26    0.84
  -5   8   0   -0.04    0.79
  -5   8   0    0.20    0.98
   4  -8   0    0.95    0.79
  -4   8   0    0.85    0.87
  -4   8   0    0.28    0.95
  -4   8   0    0.07    0.74
   3  -8   0   11.92    1.47
  -3   8   0   11.83    1.32
  -3   8   0   12.75    1.78
  -3   8   0   14.39    1.57
   2  -8   0   25.03    1.57
  -2   8   0   27.68    2.09
  -2   8   0   27.58    1.67
  -2   8   0   26.85    1.45
   1  -8   0   11.61    1.15
  -1   8   0   11.99    1.01
  -1   8   0    9.79    1.39
  -1   8   0   13.02    1.23
   0  -8   0   70.17    2.27
   0   8   0   69.64    2.87
   0   8   0   72.30    2.29
   0   8   0   77.87    2.93
   1   8   0   20.35    1.21
   1   8   0   20.55    1.52
   1   8   0   19.33    1.53
   2   8   0    2.09    0.63
   2   8   0    1.94    0.75
   2   8   0    0.18    0.66
   3   8   0    6.81    0.87
   3   8   0    8.55    1.27
  -4  -8   0   41.36    2.01
   4   8   0   37.71    2.02
   4   8   0   40.62    1.42
  -5  -8   0    0.49    0.62
   5   8   0   -0.12    0.59
  -6  -8   0   48.28    2.21
  -6  -8   0   51.46    2.23
   6   8   0   49.82    2.38
   6   8   0   50.74    2.15
  -7  -8   0   70.36    2.70
  -7  -8   0   70.88    2.70
   7   8   0   66.81    2.87
   7   8   0   69.47    2.66
  -8  -8   0   19.47    1.54
  -8  -8   0   19.91    1.61
   8   8   0   17.11    1.57
   8   8   0   16.71    1.48
  -9  -8   0   13.44    1.43
  -9  -8   0   14.50    1.71
   9   8   0   13.34    1.52
   9   8   0   12.77    1.60
 -10  -8   0    0.21    0.85
   3  -9   0    6.41    1.34
  -3   9   0    7.27    1.37
  -3   9   0    5.86    1.33
  -2   9   0   17.51    1.60
  -2   9   0   19.89    1.92
  -1   9   0   18.86    1.89
  -1   9   0   22.14    1.58
  -1   9   0   20.37    1.88
   0   9   0   11.52    1.29
   0   9   0    9.19    1.40
   0   9   0    9.34    1.53
   1   9   0   48.86    2.34
   1   9   0   46.37    2.44
   1   9   0   46.66    1.87
   2   9   0   39.49    1.67
   2   9   0   42.82    2.06
   2   9   0   36.99    2.21
   3   9   0    1.65    0.81
   3   9   0    2.08    0.69
   3   9   0    0.71    0.75
  -4  -9   0    7.08    1.20
   4   9   0    8.35    1.37
   4   9   0    7.06    0.89
  -5  -9   0   14.27    1.47
   5   9   0   14.42    1.54
  -6  -9   0   58.91    2.56
   6   9   0   62.06    2.82
  -7  -9   0   51.56    2.46
  -7  -9   0   47.17    2.35
   7   9   0   50.78    2.63
  -8  -9   0   35.03    2.06
  -8  -9   0   36.42    2.12
   8   9   0   35.54    2.29
   8   9   0   39.28    2.14
  -9  -9   0   14.00    1.73
  -9  -9   0   14.87    1.57
   9   9   0   11.22    1.62
  -2  10   0    7.44    1.65
  -2  10   0    3.92    1.16
  -2  10   0    3.54    1.19
  -1  10   0   32.72    1.96
  -1  10   0   29.98    2.35
  -1  10   0   31.78    2.36
   0  10   0   19.76    1.91
   0  10   0   17.95    1.57
   0  10   0   20.00    2.00
   1  10   0   84.84    3.57
   1  10   0   80.20    3.31
   1  10   0   79.56    2.67
   2  10   0   21.65    1.76
   2  10   0   19.62    1.93
   2  10   0   19.23    1.39
  -3 -10   0   30.02    2.12
   3  10   0   28.46    1.90
   3  10   0   31.46    1.54
   3  10   0   27.68    2.13
  -4 -10   0    0.98    0.82
   4  10   0    2.34    0.99
   4  10   0    1.91    0.76
  -5 -10   0   36.17    2.24
   5  10   0   36.93    2.34
  -6 -10   0   13.58    1.54
   6  10   0    8.33    1.49
  -7 -10   0   53.63    2.71
   7  10   0   55.47    2.96
  -8 -10   0   54.73    2.73
   8  10   0   54.18    3.00
  -9 -10   0   10.75    1.53
   9  10   0   10.16    1.72
   0 -11   0   45.71    2.75
   0  11   0   44.62    2.30
   0  11   0   45.11    2.83
   0  11   0   44.39    2.92
  -1 -11   0   26.96    2.26
   1  11   0   27.04    2.21
   1  11   0   26.65    1.83
   1  11   0   30.01    2.48
  -2 -11   0   16.97    2.00
   2  11   0   13.69    1.69
   2  11   0   13.43    2.00
   2  11   0   17.63    1.65
  -3 -11   0   14.45    1.88
   3  11   0   13.87    1.39
   3  11   0   15.06    2.01
  -4 -11   0   10.35    1.64
   4  11   0   11.71    1.86
   4  11   0   12.47    1.29
  -5 -11   0   20.22    1.96
   5  11   0   20.33    2.07
  -6 -11   0   50.94    2.75
   6  11   0   45.58    2.81
  -7 -11   0   44.31    2.67
   7  11   0   43.41    2.80
   6  11  -1    0.29    1.06
  -6 -11   1    1.08    0.99
   5  11  -1    1.88    1.24
  -5 -11   1    4.43    1.31
   4  11  -1   32.38    2.54
  -4 -11   1   32.23    2.41
   3  11  -1   26.31    1.68
   3  11  -1   24.17    2.33
   2  11  -1   40.42    2.03
   2  11  -1   40.66    2.55
   2  11  -1   39.47    2.77
   1  11  -1   22.48    2.21
   1  11  -1   22.48    2.42
   1  11  -1   25.15    1.79
   8  10  -1   35.96    2.59
  -8 -10   1   40.49    2.47
   7  10  -1    6.04    1.45
  -7 -10   1    8.10    1.44
   6  10  -1    4.31    1.29
  -6 -10   1    4.00    1.10
   5  10  -1    1.21    1.00
  -5 -10   1    1.32    0.84
   4  10  -1   16.83    2.04
   3  10  -1   27.09    1.56
   3  10  -1   25.75    2.17
   2  10  -1   71.21    3.13
   2  10  -1   85.19    2.62
   2  10  -1   75.47    3.44
   1  10  -1   29.24    2.36
   1  10  -1   26.03    1.68
   1  10  -1   27.42    2.11
   0  10  -1    3.45    1.30
   0  10  -1    0.32    0.93
   0  10  -1    3.56    1.02
  -1  10  -1    0.68    1.10
  -1  10  -1    1.98    1.23
  -1  10  -1    1.91    0.98
   9   9  -1   31.17    2.32
   9   9  -1   35.81    2.30
  -9  -9   1   32.55    2.09
   8   9  -1   72.65    3.02
   8   9  -1   78.77    3.48
  -8  -9   1   71.89    3.01
   7   9  -1   89.65    3.69
  -7  -9   1   91.18    3.33
   6   9  -1    8.13    1.46
  -6  -9   1    9.38    1.38
   5   9  -1    2.75    1.02
  -5  -9   1    3.32    0.98
   4   9  -1   16.59    1.69
   3   9  -1   57.47    2.42
   3   9  -1   61.46    2.84
   3   9  -1   61.63    1.98
   2   9  -1   72.53    2.24
   2   9  -1   64.48    2.97
   2   9  -1   65.64    2.73
   1   9  -1   35.12    2.12
   1   9  -1   37.61    1.75
   1   9  -1   34.92    2.28
   0   9  -1   34.78    2.30
   0   9  -1   33.00    1.78
   0   9  -1   32.33    2.18
  -1   9  -1    7.28    1.51
  -1   9  -1    5.80    1.31
  -1   9  -1    9.95    1.29
  -2   9  -1    5.23    1.21
  -2   9  -1    3.41    1.20
  -2   9  -1    4.33    1.30
  -3   9  -1    8.09    1.56
  -3   9  -1    9.01    1.74
  -3   9  -1    7.05    1.37
  10   8  -1   44.02    2.45
  10   8  -1   48.77    2.58
   9   8  -1   27.35    1.90
   9   8  -1   28.05    1.95
   9   8  -1   25.10    1.96
   8   8  -1   47.34    2.35
   8   8  -1   50.82    2.58
  -8  -8   1   50.28    2.30
  -8  -8   1   49.22    2.29
   7   8  -1   37.38    2.26
   7   8  -1   39.88    2.12
  -7  -8   1   39.49    2.01
  -7  -8   1   36.63    1.97
   6   8  -1    5.86    1.05
   6   8  -1    4.75    1.13
  -6  -8   1    7.11    1.11
   5   8  -1    1.15    0.83
  -5  -8   1    0.47    0.67
   4   8  -1   56.66    2.55
   3   8  -1   90.32    2.27
   3   8  -1   84.09    3.17
   3   8  -1   80.96    2.78
   2   8  -1   65.61    2.76
   2   8  -1   64.50    2.50
   2   8  -1   66.63    2.04
   1   8  -1  113.13    3.81
   1   8  -1  114.06    3.69
   1   8  -1  116.42    2.96
   0   8  -1   13.89    1.47
   0   8  -1   13.64    1.18
   0   8  -1   13.48    1.62
  -1   8  -1    0.75    0.75
  -1   8  -1   -0.15    0.75
  -1   8  -1    0.65    0.81
  -2   8  -1    1.42    1.01
  -2   8  -1    3.75    0.97
  -2   8  -1    0.02    0.90
  -3   8  -1   56.90    2.31
  -3   8  -1   61.68    2.56
  -3   8  -1   64.11    3.13
   3  -8   1   57.91    2.49
  -4   8  -1   25.08    1.74
  -4   8  -1   24.20    1.91
  -4   8  -1   25.20    2.30
   4  -8   1   22.68    1.79
  10   7  -1   11.16    1.51
  10   7  -1   12.12    1.62
   9   7  -1   39.71    2.12
   9   7  -1   37.58    2.15
   9   7  -1   38.36    2.17
  -9  -7   1   39.32    2.10
   8   7  -1   33.65    1.89
   8   7  -1   32.10    1.91
   8   7  -1   33.11    1.94
  -8  -7   1   33.32    1.80
  -8  -7   1   35.39    1.82
   7   7  -1   24.70    1.71
   7   7  -1   22.03    1.55
   7   7  -1   22.54    1.55
  -7  -7   1   23.53    1.51
  -7  -7   1   24.30    1.54
   6   7  -1   52.25    2.36
   6   7  -1   49.38    2.15
  -6  -7   1   50.39    2.15
  -6  -7   1   49.11    2.04
   5   7  -1    2.00    0.74
   5   7  -1    3.67    0.90
  -5  -7   1    2.74    0.77
   4   7  -1    4.13    0.89
   3   7  -1   13.61    1.25
   2   7  -1   38.56    1.93
   2   7  -1   38.47    1.78
   2   7  -1   41.88    1.43
   1   7  -1   35.63    1.44
   1   7  -1   32.73    1.82
   1   7  -1   36.00    1.88
  -1  -7   1   32.90    1.44
   0   7  -1   18.51    1.17
   0   7  -1   18.01    1.42
   0   7  -1   15.52    1.44
   0  -7   1   17.69    1.09
  -1   7  -1   34.60    1.58
  -1   7  -1   35.03    1.96
  -1   7  -1   32.79    1.91
   1  -7   1   34.04    1.54
  -2   7  -1   23.07    1.84
  -2   7  -1   22.92    1.47
  -2   7  -1   21.47    1.37
   2  -7   1   24.60    1.47
  -3   7  -1    4.18    0.90
  -3   7  -1    1.49    0.92
  -3   7  -1    2.20    0.71
   3  -7   1    1.81    0.76
  -4   7  -1    3.53    0.97
  -4   7  -1    2.64    0.96
  -4   7  -1    2.62    1.14
   4  -7   1    3.20    1.00
  -5   7  -1   20.06    1.75
  -5   7  -1   18.46    2.02
  -5   7  -1   18.00    1.60
   5  -7   1   17.94    1.66
  11   6  -1    5.44    1.19
  11   6  -1    4.67    1.19
 -11  -6   1    4.07    1.03
  10   6  -1    3.55    0.98
  10   6  -1    4.96    1.11
 -10  -6   1    7.21    1.35
   9   6  -1   41.89    2.22
   9   6  -1   42.24    2.16
   9   6  -1   42.72    2.13
  -9  -6   1   45.24    2.16
   8   6  -1   26.11    1.62
   8   6  -1   26.34    1.62
   8   6  -1   24.50    1.64
  -8  -6   1   26.23    1.60
   7   6  -1   26.79    1.57
   7   6  -1   28.41    1.59
   7   6  -1   25.22    1.59
  -7  -6   1   28.08    1.52
  -7  -6   1   29.78    1.56
   6   6  -1   34.53    1.83
   6   6  -1   37.04    1.75
   6   6  -1   34.88    1.70
  -6  -6   1   33.56    1.63
  -6  -6   1   36.63    1.63
   5   6  -1   21.74    1.44
   5   6  -1   23.16    1.38
   5   6  -1   21.80    1.35
  -5  -6   1   23.35    1.27
  -5  -6   1   23.37    1.36
   4   6  -1   49.58    1.93
   4   6  -1   50.70    2.09
   3   6  -1   10.16    1.04
   2   6  -1   11.71    0.78
   2   6  -1   11.65    1.08
   2   6  -1   11.64    0.96
  -2  -6   1   11.04    0.71
   1   6  -1   31.63    1.25
   1   6  -1   34.24    1.62
   1   6  -1   35.54    1.69
  -1  -6   1   33.21    1.22
   0   6  -1  200.78    5.08
   0   6  -1  205.16    5.12
   0   6  -1  199.59    4.15
   0  -6   1  198.91    4.16
  -1   6  -1   42.91    1.53
  -1   6  -1   39.84    1.56
  -1   6  -1   35.36    1.91
   1  -6   1   39.37    1.55
  -2   6  -1   25.38    1.36
  -2   6  -1   25.91    1.70
  -2   6  -1   28.18    1.37
   2  -6   1   27.42    1.40
  -3   6  -1   31.53    1.54
  -3   6  -1   28.86    1.94
  -3   6  -1   30.31    1.63
   3  -6   1   29.81    1.59
  -4   6  -1    3.37    0.81
  -4   6  -1    3.01    1.01
  -4   6  -1    3.40    0.92
   4  -6   1    2.62    0.83
  -5   6  -1   30.67    2.20
  -5   6  -1   29.25    1.77
  -5   6  -1   31.22    1.90
   5  -6   1   33.44    1.93
  -6   6  -1   36.59    2.47
  -6   6  -1   37.28    2.16
  -6   6  -1   37.79    2.08
   6  -6   1   38.70    2.14
  11   5  -1   14.50    1.80
  11   5  -1   17.55    1.67
 -11  -5   1   17.58    1.61
  10   5  -1    3.52    0.97
  10   5  -1    4.57    1.07
 -10  -5   1    4.68    1.03
   9   5  -1    9.01    1.23
   9   5  -1    8.24    1.19
   9   5  -1    9.36    1.23
   8   5  -1   12.32    1.22
   8   5  -1   12.74    1.22
   8   5  -1   11.52    1.18
   7   5  -1   36.52    1.74
   7   5  -1   38.40    1.76
   7   5  -1   35.64    1.78
  -7  -5   1   36.96    1.73
   6   5  -1   32.73    1.56
   6   5  -1   32.57    1.63
   6   5  -1   32.54    1.53
  -6  -5   1   33.57    1.45
  -6  -5   1   32.35    1.48
   5   5  -1  159.81    4.18
   5   5  -1  152.07    3.74
   5   5  -1  157.18    3.89
  -5  -5   1  154.83    3.82
  -5  -5   1  151.33    3.82
   4   5  -1  130.36    3.59
   4   5  -1  129.82    3.35
   4   5  -1  132.90    3.27
  -4  -5   1  130.48    3.30
   3   5  -1   79.05    2.37
   3   5  -1   83.93    2.60
   2   5  -1   44.19    1.56
   2   5  -1   44.68    1.75
   2   5  -1   46.09    1.25
  -2  -5   1   44.30    1.21
   1   5  -1   20.35    1.18
   1   5  -1   20.42    0.90
  -1  -5   1   20.53    0.85
   0   5  -1   59.87    1.70
   0   5  -1   63.55    2.17
   0   5  -1   59.04    2.09
   0  -5   1   60.61    1.69
  -1   5  -1   76.50    2.15
  -1   5  -1   80.94    2.70
  -1   5  -1   84.23    2.15
   1  -5   1   78.55    2.15
  -2   5  -1  188.15    4.08
  -2   5  -1  192.44    4.96
  -2   5  -1  185.19    4.06
   2  -5   1  183.56    4.06
  -3   5  -1   42.85    1.76
  -3   5  -1   46.56    1.77
  -3   5  -1   47.13    2.21
   3  -5   1   48.73    1.83
  -4   5  -1   23.24    1.41
  -4   5  -1   25.88    1.44
  -4   5  -1   22.75    1.72
   4  -5   1   24.85    1.44
  -5   5  -1    4.95    0.95
  -5   5  -1    7.78    1.17
  -5   5  -1    4.93    1.17
   5  -5   1    5.13    1.03
  -6   5  -1   50.89    2.28
  -6   5  -1   52.26    2.72
  -6   5  -1   48.70    2.27
   6  -5   1   48.25    2.24
  -7   5  -1   43.33    2.27
  -7   5  -1   45.12    2.37
  -7   5  -1   44.34    2.64
   7  -5   1   41.30    2.23
  11   4  -1   16.70    1.59
  11   4  -1   16.00    1.94
 -11  -4   1   16.99    1.54
  10   4  -1   30.82    1.88
  10   4  -1   29.09    2.03
 -10  -4   1   27.00    1.78
   9   4  -1   23.35    1.72
   9   4  -1   22.50    1.57
  -9  -4   1   24.36    1.57
   8   4  -1   12.02    1.14
   8   4  -1    9.83    1.16
   8   4  -1   10.41    1.14
   7   4  -1   21.74    1.38
   7   4  -1   22.62    1.39
   7   4  -1   25.39    1.41
   6   4  -1  126.25    3.26
   6   4  -1  120.00    3.43
   6   4  -1  123.82    3.31
   5   4  -1   80.84    2.36
   5   4  -1   79.26    2.52
   5   4  -1   81.92    2.36
  -5  -4   1   78.97    2.31
  -5  -4   1   79.92    2.25
   4   4  -1  158.00    3.72
   4   4  -1  154.09    3.92
   4   4  -1  154.21    3.59
  -4  -4   1  157.46    3.67
   3   4  -1  162.26    3.62
   3   4  -1  165.31    3.79
   3   4  -1  165.26    4.02
  -3  -4   1  165.88    3.75
   2   4  -1    0.64    0.41
   2   4  -1    1.06    0.42
   1   4  -1   61.29    1.92
   1   4  -1   60.74    1.82
   1   4  -1   59.63    1.45
  -1  -4   1   61.58    1.45
   0   4  -1  316.66    5.70
   0   4  -1  311.50    6.89
   0   4  -1  323.81    6.86
   0  -4   1  322.71    5.72
  -1   4  -1  529.52    9.52
  -1   4  -1  549.75   11.08
  -1   4  -1  525.46    9.27
   1  -4   1  530.90    9.29
  -2   4  -1  287.15    5.53
  -2   4  -1  297.21    6.66
  -2   4  -1  284.37    5.63
   2  -4   1  280.35    5.52
  -3   4  -1   53.81    2.26
  -3   4  -1   54.62    1.85
  -3   4  -1   55.58    1.86
   3  -4   1   52.64    1.82
  -4   4  -1   82.69    2.49
  -4   4  -1   79.00    2.45
  -4   4  -1   82.16    2.92
  -4   4  -1   80.07    2.43
   4  -4   1   76.71    2.41
  -5   4  -1    2.45    0.74
  -5   4  -1    2.43    0.73
  -5   4  -1    0.83    0.70
   5  -4   1    2.24    0.73
  -6   4  -1   32.87    1.79
  -6   4  -1   29.55    2.01
  -6   4  -1   31.17    1.79
   6  -4   1   29.96    1.70
  -7   4  -1   47.81    2.57
  -7   4  -1   47.17    2.25
  -7   4  -1   45.28    2.26
   7  -4   1   47.71    2.26
  -8   4  -1   77.80    3.41
  -8   4  -1   74.79    3.02
  -8   4  -1   75.91    2.98
   8  -4   1   70.68    2.92
  11   3  -1   45.19    2.31
  11   3  -1   42.94    2.49
  11   3  -1   47.42    2.04
 -11  -3   1   48.26    2.30
  10   3  -1   51.17    2.48
  10   3  -1   49.48    2.26
  10   3  -1   47.69    1.93
 -10  -3   1   49.26    2.20
   9   3  -1   13.08    1.26
   9   3  -1   15.03    1.31
   9   3  -1   13.31    1.32
  -9  -3   1   14.88    1.33
   8   3  -1   32.14    1.38
   8   3  -1   36.52    1.82
   8   3  -1   35.17    1.70
  -8  -3   1   37.36    1.69
   7   3  -1   14.57    1.13
   7   3  -1   13.69    1.13
   7   3  -1   15.04    0.86
   6   3  -1  169.01    4.18
   6   3  -1  167.02    3.95
   6   3  -1  162.84    4.24
   5   3  -1   18.13    1.08
   5   3  -1   21.67    1.10
   5   3  -1   18.95    1.14
   4   3  -1  213.35    4.49
   4   3  -1  212.68    4.90
   4   3  -1  212.94    4.64
   3   3  -1    5.89    0.67
   3   3  -1    5.34    0.61
   2   3  -1  107.76    2.46
   2   3  -1  105.26    2.73
   2   3  -1  110.15    2.60
  -2  -3   1  111.34    2.54
   1   3  -1    6.74    0.55
   1   3  -1    6.67    0.41
   1   3  -1    6.30    0.59
  -1  -3   1    6.88    0.41
   0   3  -1   92.83    2.41
   0   3  -1   91.28    1.97
   0   3  -1   97.12    2.44
   0  -3   1   96.67    2.00
  -1   3  -1   18.46    1.05
  -1   3  -1   19.56    0.82
  -1   3  -1   17.29    0.82
   1  -3   1   19.06    0.83
  -2   3  -1   53.49    1.59
  -2   3  -1   57.96    1.98
  -2   3  -1   54.70    1.60
   2  -3   1   57.18    1.63
  -3   3  -1   55.37    1.79
  -3   3  -1   61.52    1.85
  -3   3  -1   58.29    2.15
   3  -3   1   60.34    1.82
  -4   3  -1    3.04    0.75
  -4   3  -1    4.61    0.76
  -4   3  -1    4.39    0.76
  -4   3  -1    4.99    0.71
   4  -3   1    5.37    0.80
  -5   3  -1   -0.56    0.47
  -5   3  -1   -0.12    0.57
  -5   3  -1    0.38    0.57
  -5   3  -1    1.08    0.58
   5  -3   1    1.11    0.57
  -6   3  -1    2.51    0.80
  -6   3  -1    2.46    0.74
  -6   3  -1    3.43    0.85
  -6   3  -1    3.02    0.76
   6  -3   1    2.81    0.74
  -7   3  -1   47.31    2.12
  -7   3  -1   45.16    2.16
  -7   3  -1   47.29    2.03
  -7   3  -1   45.00    2.34
   7  -3   1   44.23    2.08
  -8   3  -1   13.13    1.62
  -8   3  -1   12.57    1.45
  -8   3  -1   12.16    1.60
  -8   3  -1   13.48    1.53
   8  -3   1   12.00    1.49
  -9   3  -1    3.51    1.14
  -9   3  -1    3.50    1.10
   9  -3   1    3.27    1.12
  11   2  -1   58.66    2.86
  11   2  -1   57.04    2.32
 -11  -2   1   56.75    2.52
  10   2  -1    9.43    1.26
  10   2  -1   11.51    1.30
  10   2  -1   11.47    1.55
 -10  -2   1   10.58    1.38
   9   2  -1    5.97    1.11
   9   2  -1    5.29    0.87
   9   2  -1    5.53    0.89
  -9  -2   1    5.26    1.01
   8   2  -1    0.21    0.52
   8   2  -1   -0.18    0.39
   8   2  -1   -0.65    0.44
  -8  -2   1   -0.30    0.43
   7   2  -1   40.75    1.73
   7   2  -1   41.47    1.90
   7   2  -1   46.22    1.49
  -7  -2   1   42.33    1.68
   6   2  -1  141.85    3.78
   6   2  -1  147.09    3.03
   6   2  -1  144.41    3.53
  -6  -2   1  144.03    2.98
   5   2  -1  256.63    5.75
   5   2  -1  263.24    5.67
   5   2  -1  257.08    5.32
   4   2  -1  158.33    3.57
   4   2  -1  151.26    3.37
   4   2  -1  152.42    3.67
   3   2  -1   63.77    1.71
   3   2  -1   59.13    1.78
   3   2  -1   62.71    1.67
   2   2  -1  198.48    4.09
   2   2  -1  207.87    3.92
   2   2  -1  195.65    4.29
  -2  -2   1  197.55    4.07
   1   2  -1    3.46    0.45
   1   2  -1    3.04    0.36
   1   2  -1    2.93    0.38
   1   2  -1    3.17    0.44
   0   2  -1   44.16    1.28
   0   2  -1   43.50    1.05
   0   2  -1   42.49    1.31
   0  -2   1   45.98    1.06
  -1   2  -1   31.46    0.95
  -1   2  -1   32.22    0.97
  -1   2  -1   31.85    1.16
   1  -2   1   33.30    0.97
  -2   2  -1  229.60    3.99
  -2   2  -1  224.05    4.36
  -2   2  -1  218.59    4.25
  -2   2  -1  225.45    5.01
   2  -2   1  226.49    4.27
  -3   2  -1   85.80    2.64
  -3   2  -1   89.24    2.22
  -3   2  -1   91.59    2.29
  -3   2  -1   89.24    2.04
   3  -2   1   91.44    2.24
  -4   2  -1   13.43    0.93
  -4   2  -1   14.79    0.99
  -4   2  -1   13.30    0.82
  -4   2  -1   12.18    1.02
   4  -2   1   13.86    0.92
  -5   2  -1   97.01    3.00
  -5   2  -1   96.85    2.47
  -5   2  -1   99.60    2.75
  -5   2  -1   96.96    2.65
   5  -2   1   96.32    2.66
  -6   2  -1   -0.79    0.54
  -6   2  -1    0.26    0.51
  -6   2  -1    0.59    0.46
  -6   2  -1    0.08    0.50
   6  -2   1    0.54    0.48
  -7   2  -1    0.82    0.67
  -7   2  -1    1.25    0.63
  -7   2  -1   -1.11    0.52
  -7   2  -1    2.03    0.70
   7  -2   1    0.93    0.58
  -8   2  -1    2.16    0.79
  -8   2  -1    2.64    0.87
  -8   2  -1    1.03    0.78
  -8   2  -1    1.76    0.85
   8  -2   1    2.19    0.77
  -9   2  -1   51.97    2.35
  -9   2  -1   47.60    2.45
  -9   2  -1   51.27    2.49
   9  -2   1   48.38    2.36
  10   1  -1   22.43    1.42
  10   1  -1   21.31    1.55
  10   1  -1   23.11    1.82
 -10  -1   1   21.78    1.59
   9   1  -1   13.95    1.12
   9   1  -1   12.68    1.20
   9   1  -1   14.56    1.45
  -9  -1   1   14.21    1.23
   8   1  -1   12.75    1.27
   8   1  -1   14.42    1.12
   8   1  -1   14.10    1.02
  -8  -1   1   13.88    1.10
   7   1  -1   47.41    2.16
   7   1  -1   58.67    1.81
   7   1  -1   50.98    1.93
  -7  -1   1   55.02    1.92
  -7  -1   1   57.57    1.83
   6   1  -1   61.97    2.28
   6   1  -1   68.03    1.84
   6   1  -1   63.89    2.03
  -6  -1   1   63.62    1.77
  -6  -1   1   67.24    1.99
   5   1  -1   53.53    1.91
   5   1  -1   53.11    1.70
   5   1  -1   57.07    1.50
  -5  -1   1   52.51    1.43
  -5  -1   1   56.75    1.65
   4   1  -1    5.52    0.68
   4   1  -1    4.16    0.55
   4   1  -1    5.24    0.47
  -4  -1   1    4.87    0.41
   3   1  -1   14.04    0.72
   3   1  -1   13.24    0.67
   3   1  -1   13.42    0.71
   2   1  -1   47.29    1.35
   2   1  -1   48.66    1.24
   2   1  -1   50.12    1.32
   1   1  -1  152.95    3.25
   1   1  -1  158.85    2.94
   1   1  -1  155.65    3.13
   1   1  -1  152.69    3.10
   0   1  -1    5.17    0.35
  -1   1  -1    1.42    0.49
  -2   1  -1    4.90    0.54
  -2   1  -1    5.96    0.51
  -2   1  -1    5.18    0.58
  -2   1  -1    5.01    0.43
   2  -1   1    5.36    0.53
  -3   1  -1    7.04    0.63
  -3   1  -1    8.21    0.62
  -3   1  -1    7.85    0.54
  -3   1  -1    6.55    0.71
   3  -1   1    9.60    0.66
  -4   1  -1  187.76    3.87
  -4   1  -1  186.31    3.66
  -4   1  -1  188.03    4.41
   4  -1   1  189.22    3.90
  -5   1  -1   58.69    1.88
  -5   1  -1   59.20    1.77
  -5   1  -1   57.90    2.04
   5  -1   1   58.15    1.90
  -6   1  -1   11.75    0.97
  -6   1  -1   10.06    0.99
  -6   1  -1   10.94    1.03
   6  -1   1   10.29    0.78
   6  -1   1   12.81    1.04
  -7   1  -1   19.51    1.39
  -7   1  -1   23.12    1.29
  -7   1  -1   23.90    1.38
  -7   1  -1   19.26    1.41
   7  -1   1   20.31    1.12
   7  -1   1   21.16    1.34
  -8   1  -1    5.29    1.10
  -8   1  -1    6.68    1.07
  -8   1  -1    3.90    0.97
  -8   1  -1    5.15    0.92
   8  -1   1    5.26    0.95
  -9   1  -1   12.01    1.57
  -9   1  -1   15.50    1.39
   9  -1   1   10.92    1.36
 -10   1  -1   16.60    1.84
 -10   1  -1   20.58    1.96
  10  -1   1   19.36    1.97
  10   0  -1   46.11    2.04
  10   0  -1   39.65    2.34
 -10   0   1   41.41    2.08
   9   0  -1   19.48    1.32
   9   0  -1   19.04    1.40
  -9   0   1   20.47    1.43
   8   0  -1   21.29    1.26
   8   0  -1   18.75    1.24
  -8   0   1   18.47    1.28
   7   0  -1   26.03    1.36
   7   0  -1   24.87    1.28
  -7   0   1   26.01    1.26
  -7   0   1   25.01    1.35
   6   0  -1   11.40    0.86
   5   0  -1    9.89    0.74
   5   0  -1   11.39    0.73
  -5   0   1    9.59    0.74
  -5   0   1    9.75    0.69
   4   0  -1  143.87    2.90
   4   0  -1  144.27    3.16
  -4   0   1  146.11    2.89
  -4   0   1  148.04    2.98
   3   0  -1  132.72    2.81
   3   0  -1  136.68    2.56
  -3   0   1  135.38    2.55
  -3   0   1  130.19    2.59
   2   0  -1  381.67    6.91
   2   0  -1  389.17    6.36
  -2   0   1  383.74    6.35
  -2   0   1  388.23    6.28
   1   0  -1  481.49    9.40
   1   0  -1  526.86    9.09
   1   0  -1  477.12    8.52
  -1   0   1  482.75    7.70
   0   0  -1   63.16    1.35
   0   0  -1   61.04    1.10
   0   0  -1   60.32    1.31
   0   0  -1   61.27    1.26
   0   0   1   59.56    1.10
  -1   0  -1   30.02    0.75
  -1   0  -1   30.17    0.80
  -1   0  -1   32.57    0.85
  -1   0  -1   31.67    0.76
   1   0   1   29.17    0.74
  -2   0  -1    2.87    0.38
  -2   0  -1    1.52    0.38
  -2   0  -1    2.33    0.33
   2   0   1    2.61    0.38
  -3   0  -1  316.91    6.39
  -3   0  -1  307.32    5.36
  -3   0  -1  313.32    5.57
   3   0   1  314.83    5.59
   3   0   1  311.86    5.66
  -4   0  -1  314.24    5.55
  -4   0  -1  309.92    5.74
  -4   0  -1  321.67    6.55
   4   0   1  316.36    5.79
   4   0   1  301.99    5.78
  -5   0  -1  237.25    4.60
  -5   0  -1  243.75    5.32
  -5   0  -1  240.71    4.75
   5   0   1  241.76    4.79
   5   0   1  229.65    4.70
  -6   0  -1  367.80    6.74
  -6   0  -1  364.77    7.80
  -6   0  -1  367.15    6.94
   6   0   1  344.61    6.94
   6   0   1  359.90    6.95
  -7   0  -1    2.34    0.64
  -7   0  -1    1.47    0.57
  -7   0  -1    2.21    0.58
   7   0   1    1.33    0.41
   7   0   1    2.36    0.63
  -8   0  -1   18.53    1.35
  -8   0  -1   18.11    1.42
  -8   0  -1   18.67    1.32
  -8   0  -1   18.23    1.33
   8   0   1   18.32    1.30
  -9   0  -1   12.86    1.51
  -9   0  -1   13.15    1.37
   9   0   1   10.07    1.31
 -10   0  -1   66.28    2.64
 -10   0  -1   62.71    2.75
  10   0   1   71.46    2.72
  10  -1  -1    0.13    0.62
 -10   1   1    0.55    0.76
   9  -1  -1   75.78    2.70
   9  -1  -1   75.88    2.65
  -9   1   1   79.29    2.71
   8  -1  -1   62.94    2.23
   8  -1  -1   60.19    2.24
  -8   1   1   60.17    2.32
  -8   1   1   63.19    2.25
   7  -1  -1    9.57    0.92
   7  -1  -1    9.24    0.93
  -7   1   1    8.36    0.92
  -7   1   1    9.56    0.93
  -7   1   1    8.28    0.92
   6  -1  -1   62.18    1.98
   6  -1  -1   59.40    1.89
  -6   1   1   61.72    1.92
  -6   1   1   59.41    1.88
  -6   1   1   58.52    2.05
   5  -1  -1    2.78    0.54
   5  -1  -1    2.12    0.51
  -5   1   1    1.55    0.46
  -5   1   1    1.75    0.44
  -5   1   1    2.89    0.54
   4  -1  -1    4.77    0.57
  -4   1   1    5.11    0.51
  -4   1   1    4.57    0.60
  -4   1   1    5.71    0.54
   3  -1  -1   93.93    2.01
  -3   1   1   90.62    1.98
  -3   1   1   90.76    1.98
   2  -1  -1  336.37    5.62
  -2   1   1  326.21    5.60
  -2   1   1  324.32    5.48
   1  -1  -1  173.04    2.99
  -1   1   1  171.78    2.94
  -1   1   1  173.88    2.99
   0  -1  -1  360.38    6.02
   0  -1  -1  365.78    6.90
   0  -1  -1  379.65    7.07
   0   1   1  363.59    6.02
   0   1   1  385.59    7.38
  -1  -1  -1    1.79    0.18
  -1  -1  -1    2.35    0.26
  -1  -1  -1    1.49    0.27
   1   1   1    1.94    0.23
  -2  -1  -1    0.33    0.24
  -2  -1  -1   -0.07    0.22
   2   1   1    0.07    0.21
   2   1   1   -0.17    0.16
  -3  -1  -1   17.32    0.71
   3   1   1   17.97    0.71
   3   1   1   17.59    0.61
  -4  -1  -1   66.39    1.72
   4   1   1   69.83    1.67
   4   1   1   71.34    1.76
  -5  -1  -1  375.04    6.85
  -5  -1  -1  380.45    6.73
   5   1   1  374.24    7.06
   5   1   1  379.62    6.89
  -6  -1  -1   74.41    2.16
  -6  -1  -1   74.99    2.14
   6   1   1   71.83    2.12
   6   1   1   72.98    2.02
  -7  -1  -1    2.47    0.67
  -7  -1  -1    3.00    0.73
   7   1   1    2.33    0.52
   7   1   1    1.71    0.63
  -8  -1  -1    3.03    0.81
  -8  -1  -1    3.32    0.74
   8   1   1    2.66    0.78
   8   1   1    3.91    0.72
  -9  -1  -1   27.61    1.67
  -9  -1  -1   26.40    1.56
   9   1   1   27.72    1.57
 -10  -1  -1   26.92    1.78
 -10  -1  -1   26.01    1.75
  10   1   1   25.16    1.63
  10   1   1   28.18    1.91
   9  -2  -1   81.53    2.87
  -9   2   1   82.70    2.92
   8  -2  -1   78.89    2.68
   8  -2  -1   78.82    2.68
  -8   2   1   83.15    2.95
  -8   2   1   79.45    2.71
  -8   2   1   82.11    2.69
   7  -2  -1  157.92    3.86
   7  -2  -1  154.98    3.99
  -7   2   1  159.26    4.35
  -7   2   1  155.91    3.80
  -7   2   1  159.80    3.86
   6  -2  -1   16.03    1.05
  -6   2   1   16.35    1.17
  -6   2   1   16.03    1.05
  -6   2   1   17.44    1.08
   5  -2  -1    1.82    0.48
  -5   2   1    0.75    0.50
  -5   2   1    2.31    0.50
  -5   2   1    2.32    0.52
   4  -2  -1    4.05    0.57
  -4   2   1    3.30    0.62
  -4   2   1    4.42    0.57
  -4   2   1    4.37    0.60
   3  -2  -1  262.58    4.83
  -3   2   1  254.62    4.79
  -3   2   1  258.43    4.69
  -3   2   1  260.86    5.66
   2  -2  -1  919.71   14.96
  -2   2   1  884.90   14.93
  -2   2   1  931.40   14.53
   1  -2  -1  811.17   13.03
  -1   2   1  801.85   13.02
  -1   2   1  781.66   15.81
   0  -2  -1  666.39   10.87
   0  -2  -1  695.61   12.47
   0   2   1  653.35   10.86
   0   2   1  665.02   13.25
  -1  -2  -1   48.73    1.31
  -1  -2  -1   59.75    1.35
  -1  -2  -1   49.11    1.06
   1   2   1   48.08    1.06
  -2  -2  -1   -0.49    0.27
  -2  -2  -1    0.19    0.24
   2   2   1   -0.03    0.21
   2   2   1   -0.03    0.22
  -3  -2  -1   14.70    0.73
  -3  -2  -1   17.17    0.64
   3   2   1   15.49    0.62
   3   2   1   16.60    0.65
   3   2   1   16.52    0.64
  -4  -2  -1  263.84    4.80
   4   2   1  264.67    5.06
   4   2   1  270.87    5.43
   4   2   1  263.80    4.82
  -5  -2  -1   82.90    2.01
   5   2   1   79.42    2.07
   5   2   1   87.30    2.07
  -6  -2  -1  174.97    3.68
   6   2   1  174.16    3.71
   6   2   1  174.23    3.81
  -7  -2  -1  114.14    3.00
  -7  -2  -1  116.38    2.87
   7   2   1  115.70    2.91
   7   2   1  115.94    2.94
   7   2   1  116.55    3.28
  -8  -2  -1    0.99    0.59
   8   2   1    0.46    0.54
   8   2   1    1.18    0.49
   8   2   1    0.86    0.57
  -9  -2  -1   12.07    1.28
   9   2   1   15.37    1.46
   9   2   1   11.93    1.39
 -10  -2  -1    0.11    0.75
 -10  -2  -1   -0.22    0.65
  10   2   1    0.26    0.67
  10   2   1    0.19    0.72
 -11  -2  -1   21.52    1.69
 -11  -2  -1   20.30    1.68
  11   2   1   20.69    1.82
  11   2   1   22.80    1.73
   9  -3  -1    4.39    1.07
  -9   3   1    4.04    1.09
  -9   3   1    4.62    1.12
   8  -3  -1   95.47    3.09
   8  -3  -1   94.61    3.06
  -8   3   1   97.58    3.48
  -8   3   1   91.97    3.02
  -8   3   1   93.66    3.06
   7  -3  -1   93.86    2.90
  -7   3   1   95.05    2.88
  -7   3   1   93.03    2.86
  -7   3   1   95.61    3.27
   6  -3  -1    1.40    0.53
  -6   3   1    1.36    0.55
  -6   3   1    1.48    0.61
  -6   3   1    2.17    0.66
   5  -3  -1    4.08    0.68
  -5   3   1    5.03    0.72
  -5   3   1    3.38    0.76
  -5   3   1    5.56    0.74
   4  -3  -1   35.69    1.38
  -4   3   1   38.50    1.40
  -4   3   1   30.72    1.72
  -4   3   1   38.68    1.40
  -3   3   1    5.64    0.85
   2  -3  -1   80.25    1.90
  -2   3   1   76.24    1.86
  -2   3   1   78.62    2.26
   1  -3  -1  104.67    2.22
  -1   3   1  108.87    2.60
  -1   3   1  103.07    2.20
  -1   3   1  100.36    2.64
   0  -3  -1    7.00    0.46
   0   3   1    7.98    0.59
   0   3   1    5.99    0.42
  -1  -3  -1   20.16    0.85
  -1  -3  -1   21.76    0.85
  -1  -3  -1   20.05    0.66
   1   3   1   21.10    0.67
  -2  -3  -1    1.75    0.47
  -3  -3  -1   35.46    1.32
  -3  -3  -1   39.72    1.04
   3   3   1   40.24    1.04
   3   3   1   40.25    1.13
   3   3   1   39.75    1.15
   3   3   1   40.97    1.21
  -4  -3  -1   76.01    2.09
  -4  -3  -1   81.84    1.80
   4   3   1   80.67    1.98
   4   3   1   79.26    2.04
   4   3   1   78.25    1.79
   4   3   1   81.63    2.03
  -5  -3  -1   15.39    0.74
   5   3   1   14.96    0.75
   5   3   1   13.56    0.78
   5   3   1   12.90    0.82
  -6  -3  -1  174.91    3.60
   6   3   1  176.60    3.64
   6   3   1  175.39    4.19
   6   3   1  177.24    3.91
  -7  -3  -1   13.46    0.91
   7   3   1   16.63    0.99
   7   3   1   11.22    0.94
   7   3   1   12.52    1.04
   8   3   1   11.52    0.95
   8   3   1    9.29    1.02
   8   3   1   10.11    0.96
  -9  -3  -1   23.17    1.54
   9   3   1   24.90    1.41
   9   3   1   21.42    1.56
   9   3   1   22.50    1.40
 -10  -3  -1    1.56    0.80
 -10  -3  -1    1.56    0.77
  10   3   1    2.38    0.76
  10   3   1    0.97    0.75
 -11  -3  -1    0.60    0.77
 -11  -3  -1    0.86    0.81
  11   3   1    1.33    0.75
  11   3   1    1.43    0.88
   8  -4  -1   39.32    2.06
  -8   4   1   41.40    2.13
  -8   4   1   40.60    2.36
  -8   4   1   43.74    2.23
   7  -4  -1   56.20    2.27
  -7   4   1   52.87    2.56
  -7   4   1   56.21    2.27
   6  -4  -1  100.39    2.97
  -6   4   1   99.55    3.45
  -6   4   1  102.26    2.95
   5  -4  -1   12.41    1.02
  -5   4   1   12.95    1.04
  -5   4   1   10.26    1.26
   4  -4  -1    1.08    0.52
  -4   4   1   -0.43    0.50
  -4   4   1    0.27    0.45
   3  -4  -1   47.70    1.61
  -3   4   1   43.15    1.97
  -3   4   1   45.71    1.56
  -3   4   1   48.34    1.75
   2  -4  -1   37.49    1.30
  -2   4   1   38.70    1.43
  -2   4   1   37.10    1.28
  -2   4   1   35.23    1.59
   1  -4  -1   88.89    2.08
  -1   4   1   83.57    2.03
  -1   4   1   88.47    2.47
  -1   4   1   85.67    2.30
   0  -4  -1   80.86    1.86
   0   4   1   80.81    2.22
   0   4   1   81.19    1.85
  -1  -4  -1   73.20    1.61
   1   4   1   66.45    1.89
   1   4   1   70.14    1.61
  -2  -4  -1   44.54    1.49
  -2  -4  -1   46.15    1.15
  -2  -4  -1   44.12    1.45
   2   4   1   44.85    1.43
   2   4   1   45.60    1.14
  -3  -4  -1  121.74    2.99
  -3  -4  -1  118.58    2.36
  -3  -4  -1  122.34    3.01
   3   4   1  119.86    2.38
   3   4   1  122.14    2.94
   3   4   1  120.54    2.72
  -4  -4  -1   34.38    1.03
  -4  -4  -1   33.75    1.35
   4   4   1   33.58    1.24
   4   4   1   34.00    1.22
   4   4   1   32.46    1.15
   4   4   1   32.39    1.01
  -5  -4  -1    7.38    0.57
  -5  -4  -1    7.49    0.72
   5   4   1    7.45    0.65
   5   4   1    6.48    0.60
   5   4   1    6.89    0.63
   5   4   1    6.95    0.59
  -6  -4  -1    2.68    0.48
   6   4   1    0.49    0.46
   6   4   1    0.70    0.42
   6   4   1    2.38    0.46
   6   4   1    1.14    0.41
   7   4   1   24.91    1.26
   7   4   1   23.08    1.31
   7   4   1   25.15    1.15
   8   4   1  131.99    3.49
   8   4   1  131.84    3.72
   8   4   1  130.76    3.16
   9   4   1   33.07    1.83
   9   4   1   34.26    1.56
   9   4   1   32.74    1.69
 -10  -4  -1   35.37    1.98
  10   4   1   35.89    2.08
  10   4   1   36.00    1.74
 -11  -4  -1    3.90    1.02
 -11  -4  -1    3.23    0.91
  11   4   1    3.62    1.00
  11   4   1    5.28    1.02
   8  -5  -1    0.80    0.76
  -8   5   1   -0.04    0.83
  -8   5   1    0.15    0.73
  -8   5   1    1.00    0.87
   7  -5  -1   20.01    1.56
  -7   5   1   21.16    1.65
  -7   5   1   21.29    1.67
  -7   5   1   21.13    1.88
   6  -5  -1   19.02    1.43
  -6   5   1   19.92    1.70
  -6   5   1   22.98    1.54
  -6   5   1   20.57    1.53
   5  -5  -1    0.68    0.51
  -5   5   1   -0.44    0.55
  -5   5   1    1.88    0.66
  -5   5   1    0.75    0.62
   4  -5  -1    4.54    0.81
  -4   5   1    5.71    0.87
  -4   5   1    5.22    0.91
  -4   5   1    3.72    0.88
   3  -5  -1    3.36    0.67
  -3   5   1    2.88    0.77
  -3   5   1    3.07    0.63
  -3   5   1    3.78    0.75
   2  -5  -1    8.74    0.82
  -2   5   1    8.39    0.80
  -2   5   1    8.71    1.04
  -2   5   1    9.41    0.80
   1  -5  -1    3.03    0.56
  -1   5   1    1.21    0.55
  -1   5   1    3.14    0.53
  -1   5   1    3.15    0.46
  -1   5   1    2.92    0.53
   0  -5  -1  136.21    2.92
   0   5   1  139.79    2.93
   0   5   1  136.60    2.73
   0   5   1  136.24    3.51
  -1  -5  -1   11.03    0.68
   1   5   1    9.87    0.78
   1   5   1   10.04    0.65
  -2  -5  -1   72.07    1.68
  -2  -5  -1   69.33    2.11
   2   5   1   71.18    2.13
   2   5   1   73.25    1.69
  -3  -5  -1  184.94    4.25
  -3  -5  -1  180.34    4.30
  -3  -5  -1  186.87    3.45
   3   5   1  184.17    4.30
   3   5   1  179.12    3.44
   3   5   1  180.68    3.97
  -4  -5  -1    2.09    0.57
  -4  -5  -1    3.38    0.42
  -4  -5  -1    3.26    0.63
   4   5   1    3.94    0.46
   4   5   1    2.57    0.54
   4   5   1    4.11    0.56
  -5  -5  -1    3.17    0.45
  -5  -5  -1    3.31    0.67
  -5  -5  -1    2.47    0.59
   5   5   1    3.00    0.48
   5   5   1    2.92    0.53
   5   5   1    2.72    0.51
   5   5   1    2.26    0.49
  -6  -5  -1   17.67    1.13
  -6  -5  -1   19.06    0.89
   6   5   1   17.29    1.02
   6   5   1   17.55    0.88
   6   5   1   18.53    1.05
   6   5   1   18.74    1.08
   7   5   1   63.46    2.13
   7   5   1   60.18    2.07
   7   5   1   62.46    2.09
   7   5   1   61.93    1.76
   8   5   1   39.67    1.53
   8   5   1   39.30    1.80
   8   5   1   39.88    1.77
   8   5   1   39.53    1.84
   9   5   1   51.63    2.21
   9   5   1   51.83    1.81
   9   5   1   50.44    2.12
  10   5   1   43.16    1.74
  10   5   1   40.14    2.13
  10   5   1   38.48    2.02
 -11  -5  -1   -0.77    0.76
  11   5   1    0.34    0.67
   7  -6  -1    9.17    1.46
  -7   6   1    7.48    1.49
  -7   6   1    9.29    1.45
  -7   6   1   11.14    1.51
   6  -6  -1   14.96    1.62
  -6   6   1   13.39    1.53
  -6   6   1   13.34    1.68
  -6   6   1   15.40    1.60
   5  -6  -1  109.86    3.30
  -5   6   1  113.28    3.31
  -5   6   1  105.31    3.22
  -5   6   1  110.94    3.89
   4  -6  -1   83.92    2.64
  -4   6   1   80.90    3.14
  -4   6   1   81.47    2.58
  -4   6   1   81.64    2.59
   3  -6  -1   56.94    2.00
  -3   6   1   51.04    2.39
  -3   6   1   54.24    1.96
  -3   6   1   52.56    1.96
  -3   6   1   49.44    1.86
   2  -6  -1   25.97    1.30
  -2   6   1   24.00    1.23
  -2   6   1   19.73    1.55
  -2   6   1   25.64    1.27
  -2   6   1   24.86    1.18
   1  -6  -1    9.61    0.87
  -1   6   1   10.29    0.88
  -1   6   1    7.25    0.75
  -1   6   1    4.30    1.09
   0  -6  -1   95.63    2.38
   0   6   1   94.94    2.13
   0   6   1   93.37    2.92
   0   6   1   90.15    2.34
  -1  -6  -1  110.99    2.56
   1   6   1  112.91    2.57
   1   6   1  113.09    3.11
  -2  -6  -1  186.33    3.68
  -2  -6  -1  180.62    4.43
   2   6   1  183.42    3.65
   2   6   1  187.75    4.55
   2   6   1  190.76    4.33
  -3  -6  -1  139.72    2.86
  -3  -6  -1  138.80    3.59
  -3  -6  -1  138.27    3.61
   3   6   1  137.94    2.86
   3   6   1  139.82    3.66
  -4  -6  -1   68.83    1.71
  -4  -6  -1   67.61    2.25
  -4  -6  -1   68.72    2.29
   4   6   1   69.34    1.71
   4   6   1   70.42    2.32
   4   6   1   71.49    2.08
  -5  -6  -1   14.18    1.17
  -5  -6  -1   15.24    1.10
   5   6   1   16.09    1.01
   5   6   1   18.06    0.86
   5   6   1   16.84    1.13
  -6  -6  -1   53.05    2.10
  -6  -6  -1   52.23    2.06
   6   6   1   51.60    2.00
   6   6   1   54.89    1.92
   6   6   1   55.59    1.55
   6   6   1   54.36    1.90
  -7  -6  -1   26.62    1.60
  -7  -6  -1   24.07    1.50
   7   6   1   28.77    1.46
   7   6   1   26.85    1.12
   7   6   1   26.12    1.37
   7   6   1   26.33    1.39
   8   6   1   46.59    1.57
   8   6   1   46.40    1.94
   8   6   1   43.26    1.89
   8   6   1   47.55    1.96
   9   6   1  125.04    3.60
   9   6   1  126.90    3.05
   9   6   1  124.22    3.72
  10   6   1   22.30    1.29
  10   6   1   24.35    1.67
  11   6   1    2.14    0.72
   6  -7  -1   30.92    1.97
  -6   7   1   32.18    2.02
  -6   7   1   32.45    2.40
  -6   7   1   31.69    1.98
   5  -7  -1   61.05    2.56
  -5   7   1   65.63    2.60
  -5   7   1   63.75    2.52
  -5   7   1   67.27    3.15
   4  -7  -1   26.31    1.60
  -4   7   1   23.41    1.52
  -4   7   1   24.89    1.97
  -4   7   1   25.72    1.63
   3  -7  -1  107.54    3.12
  -3   7   1  101.43    3.69
  -3   7   1  104.11    3.04
  -3   7   1  104.57    2.93
   2  -7  -1    6.83    1.01
  -2   7   1    5.55    0.80
  -2   7   1    4.88    1.02
  -2   7   1    7.24    1.02
   1  -7  -1   17.12    1.15
  -1   7   1   15.23    0.97
  -1   7   1   14.14    1.42
  -1   7   1   15.21    1.11
   0  -7  -1   43.83    1.64
   0   7   1   45.13    1.39
   0   7   1   44.62    1.62
   0   7   1   42.32    2.04
  -1  -7  -1  167.40    3.66
   1   7   1  170.76    4.39
   1   7   1  168.00    3.66
  -2  -7  -1   72.89    1.99
  -2  -7  -1   72.14    2.50
   2   7   1   74.92    2.00
   2   7   1   72.50    2.53
   2   7   1   77.39    2.38
  -3  -7  -1   97.76    2.30
  -3  -7  -1   94.48    2.94
   3   7   1   96.92    2.31
   3   7   1   98.60    3.04
  -4  -7  -1   20.70    1.02
  -4  -7  -1   22.74    1.36
  -4  -7  -1   20.50    1.33
   4   7   1   20.47    1.34
   4   7   1   21.91    0.99
  -5  -7  -1   14.15    1.26
  -5  -7  -1   13.56    1.17
   5   7   1   11.79    1.14
   5   7   1   13.20    1.04
   5   7   1   13.96    0.83
  -6  -7  -1   60.27    2.34
  -6  -7  -1   57.98    2.30
   6   7   1   59.71    2.33
   6   7   1   59.91    2.14
   6   7   1   60.80    1.67
  -7  -7  -1   63.27    2.52
  -7  -7  -1   65.54    2.46
   7   7   1   64.08    2.46
   7   7   1   69.43    2.36
  -8  -7  -1   75.15    2.87
  -8  -7  -1   76.78    2.69
   8   7   1   77.80    2.64
   8   7   1   74.75    2.60
   8   7   1   70.88    2.61
  -9  -7  -1   27.94    1.85
   9   7   1   26.40    1.70
   9   7   1   25.93    1.74
 -10  -7  -1   26.32    2.00
  10   7   1   26.60    1.77
   5  -8  -1   20.09    1.76
  -5   8   1   20.52    1.65
  -5   8   1   19.73    2.08
  -5   8   1   21.88    1.80
   4  -8  -1   94.13    3.20
  -4   8   1   97.93    3.92
  -4   8   1   91.62    3.00
  -4   8   1   97.69    3.19
   3  -8  -1  121.20    3.54
  -3   8   1  124.85    4.29
  -3   8   1  120.34    3.52
  -3   8   1  116.18    3.28
   2  -8  -1   17.54    1.35
  -2   8   1   18.30    1.16
  -2   8   1   17.36    1.67
  -2   8   1   18.17    1.39
   1  -8  -1    5.63    0.94
  -1   8   1    3.16    0.93
  -1   8   1    4.32    0.69
  -1   8   1    5.13    0.91
   0  -8  -1   22.20    1.30
   0   8   1   24.01    1.31
   0   8   1   21.31    1.57
  -1  -8  -1   33.15    1.45
   1   8   1   33.73    1.88
   1   8   1   33.19    1.73
   1   8   1   32.79    1.43
  -2  -8  -1   58.03    2.37
  -2  -8  -1   59.65    1.88
   2   8   1   61.11    2.45
   2   8   1   62.02    1.92
   2   8   1   60.10    2.24
  -3  -8  -1   72.42    2.66
   3   8   1   76.30    2.09
   3   8   1   73.35    2.74
  -4  -8  -1   32.69    1.77
   4   8   1   34.00    1.85
   4   8   1   35.68    1.34
  -5  -8  -1    4.66    0.92
  -5  -8  -1    5.73    1.06
   5   8   1    5.94    1.08
   5   8   1    6.16    0.73
  -6  -8  -1   15.37    1.41
  -6  -8  -1   13.39    1.28
   6   8   1   13.58    1.34
   6   8   1   13.95    0.90
   6   8   1   14.09    1.20
  -7  -8  -1   12.72    1.32
  -7  -8  -1   11.40    1.30
   7   8   1    9.10    1.30
   7   8   1   11.07    1.23
  -8  -8  -1    3.05    0.88
  -8  -8  -1    4.21    1.05
   8   8   1    2.85    0.86
   8   8   1    2.86    0.88
  -9  -8  -1    2.57    0.97
  -9  -8  -1    2.86    0.92
 -10  -8  -1   38.89    2.33
   4  -9  -1   16.70    1.66
  -4   9   1   18.07    2.19
  -4   9   1   22.93    1.84
   3  -9  -1   11.90    1.47
  -3   9   1   13.77    1.63
  -3   9   1   12.95    1.73
   2  -9  -1   38.13    2.01
  -2   9   1   41.04    2.08
  -2   9   1   39.37    2.44
   1  -9  -1    5.67    0.98
  -1   9   1    7.47    1.28
  -1   9   1    8.53    1.22
   0  -9  -1    5.65    1.00
   0   9   1    5.84    0.95
   0   9   1    5.43    1.14
  -1  -9  -1   15.72    1.56
   1   9   1   14.96    1.49
   1   9   1   13.38    1.46
   1   9   1   17.22    1.23
  -2  -9  -1   53.05    2.40
   2   9   1   53.82    2.49
   2   9   1   55.65    1.95
   2   9   1   52.42    2.31
  -3  -9  -1   51.17    2.37
   3   9   1   49.74    1.80
   3   9   1   48.38    2.09
   3   9   1   49.42    2.38
  -4  -9  -1   73.77    2.86
   4   9   1   75.38    2.16
   4   9   1   72.77    2.92
  -5  -9  -1   15.34    1.46
   5   9   1   15.82    1.50
   5   9   1   17.17    1.05
  -6  -9  -1   10.91    1.42
  -6  -9  -1   13.32    1.42
   6   9   1   12.60    1.58
  -7  -9  -1    3.73    0.96
  -7  -9  -1    2.02    0.84
   7   9   1    1.28    0.80
  -8  -9  -1    1.64    0.82
  -8  -9  -1   -0.05    0.73
   8   9   1    0.02    0.72
  -9  -9  -1   11.22    1.61
  -9  -9  -1   11.08    1.49
 -10  -9  -1   11.74    1.63
   2 -10  -1   31.42    2.11
  -2  10   1   29.03    2.37
  -2  10   1   29.40    2.02
   1 -10  -1   26.38    1.98
  -1  10   1   24.04    2.15
  -1  10   1   25.02    1.79
   0 -10  -1   21.52    1.83
   0  10   1   20.27    1.97
   0  10   1   20.46    1.55
   0  10   1   16.41    1.81
  -1 -10  -1    7.96    1.34
   1  10   1    5.50    1.24
   1  10   1    7.76    1.13
   1  10   1    5.77    1.31
  -2 -10  -1    0.70    0.79
   2  10   1    0.96    0.71
   2  10   1    0.78    0.84
   2  10   1    0.81    0.84
  -3 -10  -1    4.79    1.14
   3  10   1    3.94    0.83
   3  10   1    2.15    0.84
   3  10   1    3.95    1.05
  -4 -10  -1   35.95    2.14
   4  10   1   39.41    1.66
   4  10   1   34.26    2.16
  -5 -10  -1   23.03    1.78
   5  10   1   21.18    1.29
   5  10   1   21.77    1.82
  -6 -10  -1   25.45    1.94
   6  10   1   22.21    1.90
  -7 -10  -1   48.66    2.51
   7  10   1   47.20    2.63
  -8 -10  -1    0.83    0.85
  -8 -10  -1   -0.12    0.92
   8  10   1    0.14    0.86
  -9 -10  -1    1.35    0.94
  -9 -10  -1   -0.17    0.87
   1 -11  -1   53.11    2.88
  -1  11   1   55.33    3.11
  -1  11   1   58.61    3.18
  -1  11   1   58.69    2.66
   0 -11  -1   13.56    1.79
   0  11   1   14.22    2.04
   0  11   1   11.79    1.75
   0  11   1   15.67    1.73
  -1 -11  -1   16.52    1.96
   1  11   1   16.70    1.64
   1  11   1   15.37    1.77
   1  11   1   15.95    2.04
  -2 -11  -1    0.50    0.94
   2  11   1    0.11    0.95
   2  11   1    0.54    0.84
   2  11   1   -0.24    0.69
  -3 -11  -1    8.15    1.51
   3  11   1   11.38    1.30
   3  11   1    9.25    1.69
  -4 -11  -1   65.25    3.07
   4  11   1   69.96    2.34
   4  11   1   62.55    3.12
  -5 -11  -1   57.62    2.86
   5  11   1   60.50    2.11
   5  11   1   54.13    2.93
  -6 -11  -1   38.92    2.45
   6  11   1   37.63    2.50
  -7 -11  -1   17.85    1.92
   7  11   1   17.28    2.17
  -8 -11  -1    2.43    1.07
   8  11   1    2.62    1.27
  -2 -12  -1    0.74    1.05
   2  12   1   -0.72    0.93
   2  12   1    0.62    1.08
  -3 -12  -1    4.54    1.33
   3  12   1    5.97    1.13
   3  12   1    4.14    1.47
  -4 -12  -1   15.65    2.04
   4  12   1   18.34    2.32
   4  12   1   17.54    1.49
  -5 -12  -1   44.38    2.85
   5  12   1   42.80    1.99
   5  12   1   43.09    2.85
   7  10  -2    5.93    1.56
  -7 -10   2    8.37    1.46
   6  10  -2    2.96    1.16
  -6 -10   2    1.62    1.05
   5  10  -2   19.60    2.02
   4  10  -2   21.31    2.15
   3  10  -2   17.56    2.03
   3  10  -2   19.02    1.37
   2  10  -2    3.15    0.96
   2  10  -2    3.64    1.15
   2  10  -2    2.24    1.32
   1  10  -2    1.75    1.14
   1  10  -2    1.63    1.24
   1  10  -2    1.16    0.86
   0  10  -2    1.82    0.94
   0  10  -2   -0.60    1.18
   0  10  -2    0.47    1.10
   9   9  -2    3.92    1.26
   9   9  -2    4.33    1.27
   8   9  -2   10.30    1.76
   8   9  -2    6.13    1.34
  -8  -9   2   11.44    1.52
   7   9  -2    0.21    0.96
  -7  -9   2    0.59    0.80
   6   9  -2   13.16    1.80
  -6  -9   2   14.77    1.62
   5   9  -2    9.12    1.59
   4   9  -2   81.17    3.44
   3   9  -2   44.72    2.26
   3   9  -2   47.88    2.64
   2   9  -2   40.83    2.53
   2   9  -2   41.94    1.75
   2   9  -2   39.18    2.22
   1   9  -2   13.89    1.34
   1   9  -2   15.47    1.79
   1   9  -2   15.49    1.94
   0   9  -2    0.45    0.80
   0   9  -2    0.47    1.01
   0   9  -2    0.40    0.92
  -1   9  -2    2.52    0.96
  -1   9  -2    1.04    1.08
  -1   9  -2    2.56    1.23
  -2   9  -2   43.41    2.83
  -2   9  -2   47.21    2.33
  -2   9  -2   42.36    2.80
   9   8  -2   22.57    1.86
   9   8  -2   21.59    1.89
   9   8  -2   24.04    2.09
   8   8  -2   16.04    1.82
   8   8  -2   14.14    1.78
  -8  -8   2   15.16    1.50
   7   8  -2    1.46    0.90
   7   8  -2    3.50    1.02
  -7  -8   2    1.94    0.78
   6   8  -2    3.35    1.04
   6   8  -2    3.67    1.09
  -6  -8   2    3.30    0.91
   5   8  -2   20.27    1.74
   4   8  -2   99.81    3.62
   3   8  -2   36.54    2.15
   3   8  -2   33.02    1.84
   2   8  -2   54.66    2.63
   2   8  -2   54.79    2.37
   2   8  -2   56.12    1.86
   1   8  -2    0.75    0.84
   1   8  -2    0.34    0.64
   1   8  -2   -0.02    0.74
   0   8  -2    9.85    1.44
   0   8  -2   11.61    1.51
   0   8  -2   14.16    1.26
  -1   8  -2   11.98    1.61
  -1   8  -2   14.86    1.48
  -1   8  -2   15.51    1.74
  -2   8  -2  100.53    3.90
  -2   8  -2   99.51    3.76
  -2   8  -2   96.02    3.11
  -3   8  -2   64.40    3.10
  -3   8  -2   63.78    2.69
  -3   8  -2   65.56    3.27
  -4   8  -2   24.63    2.09
  -4   8  -2   25.29    2.26
  -4   8  -2   27.87    2.43
  10   7  -2   87.69    3.67
  10   7  -2   88.24    3.54
  10   7  -2   89.49    3.41
   9   7  -2   60.05    2.66
   9   7  -2   58.50    2.81
   9   7  -2   58.78    2.71
   8   7  -2   12.67    1.44
   8   7  -2   12.05    1.47
   8   7  -2   11.37    1.43
  -8  -7   2    9.16    1.16
   7   7  -2   26.46    1.74
   7   7  -2   26.25    1.90
   7   7  -2   27.42    1.75
  -7  -7   2   26.81    1.55
  -7  -7   2   25.39    1.65
   6   7  -2   13.00    1.48
   6   7  -2   12.86    1.37
   6   7  -2   13.77    1.33
   5   7  -2   45.63    2.12
   5   7  -2   46.78    2.30
   4   7  -2   58.24    2.52
   3   7  -2   53.49    2.41
   3   7  -2   55.66    2.10
   2   7  -2   46.80    2.08
   2   7  -2   52.48    1.66
   2   7  -2   50.78    2.32
   1   7  -2   13.07    1.50
   1   7  -2   10.59    1.02
   1   7  -2   11.23    1.27
   0   7  -2    2.30    0.89
   0   7  -2    4.57    0.77
   0   7  -2    4.19    0.98
  -1   7  -2    5.57    1.10
  -1   7  -2    4.53    1.02
  -1   7  -2    6.74    1.00
  -2   7  -2    6.18    1.26
  -2   7  -2    7.14    1.11
  -2   7  -2    6.17    1.24
   2  -7   2    4.73    0.93
  -3   7  -2   15.05    1.45
  -3   7  -2   14.48    1.80
  -3   7  -2   14.64    1.67
   3  -7   2   14.43    1.37
  -4   7  -2   34.83    2.33
  -4   7  -2   32.62    2.40
  -4   7  -2   30.03    1.83
  -4   7  -2   30.88    2.03
   4  -7   2   30.60    1.90
  -5   7  -2    7.42    1.58
  -5   7  -2    9.23    1.49
  -5   7  -2    6.12    1.24
   5  -7   2    8.40    1.43
  10   6  -2   73.65    3.15
  10   6  -2   72.53    3.09
  10   6  -2   70.18    2.94
   9   6  -2   25.96    1.79
   9   6  -2   22.77    1.72
   9   6  -2   20.59    1.77
   8   6  -2   13.68    1.43
   8   6  -2   14.43    1.38
   8   6  -2   13.20    1.36
  -8  -6   2   13.59    1.24
   7   6  -2    0.83    0.65
   7   6  -2    2.40    0.79
   7   6  -2    0.34    0.57
  -7  -6   2    1.40    0.58
  -7  -6   2    1.18    0.56
   6   6  -2   32.37    1.75
   6   6  -2   31.04    1.70
   6   6  -2   32.94    1.89
  -6  -6   2   33.02    1.65
  -6  -6   2   32.97    1.54
   5   6  -2   32.02    1.80
   5   6  -2   31.92    1.71
   5   6  -2   33.68    1.66
   4   6  -2  132.71    3.90
   4   6  -2  128.92    3.64
   3   6  -2  122.72    3.68
   2   6  -2   32.73    1.73
   2   6  -2   33.58    1.61
   1   6  -2   45.95    1.52
   1   6  -2   44.99    1.97
   1   6  -2   43.82    2.01
  -1  -6   2   47.70    1.51
   0   6  -2    2.18    0.87
   0   6  -2    5.04    0.73
   0   6  -2    2.82    0.79
   0  -6   2    4.31    0.67
  -1   6  -2   17.18    1.45
  -1   6  -2   16.45    1.14
  -1   6  -2   16.41    1.36
   1  -6   2   16.90    1.09
  -2   6  -2    5.41    0.86
  -2   6  -2    4.00    0.94
  -2   6  -2    4.46    0.99
   2  -6   2    4.35    0.81
  -3   6  -2   42.94    2.47
  -3   6  -2   44.74    1.94
  -3   6  -2   45.00    1.99
   3  -6   2   44.26    1.91
  -4   6  -2   15.30    1.50
  -4   6  -2   16.70    1.81
  -4   6  -2   16.14    1.40
   4  -6   2   16.48    1.44
  -5   6  -2   30.93    1.97
  -5   6  -2   25.47    1.75
  -5   6  -2   32.38    2.31
   5  -6   2   25.75    1.78
  -6   6  -2   35.14    2.53
  -6   6  -2   36.07    2.21
  -6   6  -2   31.06    2.02
   6  -6   2   34.72    2.16
  11   5  -2   12.98    1.74
  11   5  -2   11.93    1.60
 -11  -5   2   15.96    1.70
  10   5  -2   14.64    1.55
  10   5  -2   13.02    1.53
 -10  -5   2   13.13    1.49
   9   5  -2   56.99    2.54
   9   5  -2   60.25    2.55
   9   5  -2   55.31    2.59
   8   5  -2   25.64    1.73
   8   5  -2   27.65    1.71
   8   5  -2   27.31    1.66
  -8  -5   2   27.90    1.57
   7   5  -2    3.24    0.78
   7   5  -2    2.92    0.76
   7   5  -2    4.28    0.85
  -7  -5   2    2.45    0.67
   6   5  -2    7.81    1.07
   6   5  -2    8.45    1.04
   6   5  -2    7.06    0.99
  -6  -5   2    8.71    0.86
  -6  -5   2    9.01    0.92
   5   5  -2    2.87    0.82
   5   5  -2    2.67    0.71
   5   5  -2    2.07    0.64
  -5  -5   2    2.59    0.57
   4   5  -2   33.12    1.58
   4   5  -2   32.71    1.65
   4   5  -2   33.53    1.52
   3   5  -2    3.22    0.66
   3   5  -2    2.86    0.68
   2   5  -2   17.75    1.20
   2   5  -2   16.47    1.13
   1   5  -2   30.24    1.51
   1   5  -2   30.92    1.13
   1   5  -2   29.60    1.51
  -1  -5   2   31.21    1.08
   0   5  -2   25.14    1.39
   0   5  -2   27.18    1.46
   0   5  -2   25.00    1.12
   0  -5   2   26.32    1.09
  -1   5  -2   55.19    1.80
  -1   5  -2   55.09    2.32
  -1   5  -2   56.00    2.13
   1  -5   2   57.97    1.81
  -2   5  -2    0.80    0.54
  -2   5  -2    1.12    0.57
  -2   5  -2   -0.17    0.63
   2  -5   2    0.35    0.45
  -3   5  -2    0.40    0.54
  -3   5  -2    1.09    0.66
  -3   5  -2    0.43    0.71
   3  -5   2    1.35    0.58
  -4   5  -2    1.53    0.78
  -4   5  -2    0.22    0.71
  -4   5  -2    1.19    0.66
   4  -5   2    0.23    0.57
  -5   5  -2   60.78    2.44
  -5   5  -2   64.25    2.97
  -5   5  -2   62.82    2.48
   5  -5   2   62.21    2.46
  -6   5  -2   29.09    1.85
  -6   5  -2   30.26    2.18
  -6   5  -2   27.20    1.90
   6  -5   2   26.47    1.86
  -7   5  -2   16.95    2.06
  -7   5  -2   17.26    1.86
  -7   5  -2   15.51    1.84
   7  -5   2   16.78    1.87
  11   4  -2   -0.63    0.69
  11   4  -2   -0.40    0.72
 -11  -4   2    0.13    0.78
  10   4  -2   30.76    1.95
  10   4  -2   29.77    1.99
 -10  -4   2   30.49    1.80
   9   4  -2   31.58    1.86
   9   4  -2   32.27    1.91
  -9  -4   2   31.21    1.68
   8   4  -2   25.46    1.62
   8   4  -2   24.21    1.64
   8   4  -2   25.42    1.61
   7   4  -2   90.43    2.89
   7   4  -2   92.65    2.96
   7   4  -2   94.58    3.12
   6   4  -2   27.39    1.53
   6   4  -2   26.72    1.46
   6   4  -2   30.17    1.51
  -6  -4   2   29.16    1.34
   5   4  -2   31.07    1.59
   5   4  -2   33.39    1.52
   5   4  -2   33.28    1.52
  -5  -4   2   32.20    1.28
   4   4  -2   10.70    0.96
  -4  -4   2   12.59    0.78
   3   4  -2   17.58    0.99
   3   4  -2   16.69    1.06
   3   4  -2   16.70    1.05
   2   4  -2  216.13    4.70
   2   4  -2  206.81    4.97
   1   4  -2   53.51    1.37
   1   4  -2   53.66    1.80
   1   4  -2   52.37    1.85
  -1  -4   2   53.47    1.35
   0   4  -2  235.36    4.41
   0   4  -2  228.44    5.33
   0   4  -2  236.44    5.40
   0  -4   2  235.72    4.43
  -1   4  -2   95.80    2.40
  -1   4  -2   98.08    2.79
  -1   4  -2   95.06    2.91
   1  -4   2   99.66    2.40
  -2   4  -2   11.46    0.94
  -2   4  -2   10.04    0.94
  -2   4  -2   10.54    1.19
   2  -4   2   12.73    0.91
  -3   4  -2    1.69    0.59
  -3   4  -2    1.23    0.71
  -3   4  -2    1.40    0.58
   3  -4   2    1.33    0.59
  -4   4  -2   56.19    2.07
  -4   4  -2   55.85    2.41
  -4   4  -2   51.20    1.97
   4  -4   2   53.59    2.03
  -5   4  -2   54.72    2.58
  -5   4  -2   54.34    2.17
  -5   4  -2   56.32    2.21
   5  -4   2   52.56    2.14
  -6   4  -2  116.86    3.54
  -6   4  -2  115.21    4.03
  -6   4  -2  114.97    3.48
   6  -4   2  108.92    3.45
  -7   4  -2  133.51    4.04
  -7   4  -2  130.85    4.55
  -7   4  -2  137.84    4.00
   7  -4   2  127.82    3.96
  -8   4  -2   24.57    1.87
  -8   4  -2   22.58    2.18
  -8   4  -2   25.11    1.98
   8  -4   2   21.11    1.86
  11   3  -2   11.09    1.73
  11   3  -2   11.66    1.55
 -11  -3   2   11.58    1.42
  10   3  -2    0.96    0.76
  10   3  -2    0.15    0.71
 -10  -3   2    0.61    0.69
   9   3  -2   -0.31    0.60
   9   3  -2    0.36    0.65
  -9  -3   2   -1.01    0.48
   8   3  -2   59.30    2.47
   8   3  -2   58.27    2.31
  -8  -3   2   60.33    2.14
   7   3  -2  145.04    4.05
   7   3  -2  139.17    4.00
   7   3  -2  141.04    3.78
   6   3  -2   61.16    2.16
   6   3  -2   60.83    2.19
   6   3  -2   58.25    2.28
   5   3  -2  123.76    3.19
   5   3  -2  125.12    3.25
   5   3  -2  122.93    3.43
   4   3  -2   66.56    2.03
   4   3  -2   61.31    2.15
   4   3  -2   60.46    1.99
  -4  -3   2   66.07    1.78
   3   3  -2   18.50    0.98
   3   3  -2   17.10    0.96
   3   3  -2   17.49    1.02
  -3  -3   2   18.96    0.77
   2   3  -2    8.60    0.67
   2   3  -2    8.84    0.64
   2   3  -2    8.66    0.74
   2   3  -2    9.73    0.74
   1   3  -2  172.85    4.08
   1   3  -2  179.87    3.99
   0   3  -2  185.46    4.21
   0   3  -2  173.89    4.12
   0   3  -2  177.45    3.42
   0  -3   2  185.51    3.44
  -1   3  -2   92.36    2.21
  -1   3  -2   98.87    2.73
  -1   3  -2   96.14    2.58
  -1   3  -2   97.99    2.29
   1  -3   2   97.98    2.24
  -2   3  -2  243.21    4.90
  -2   3  -2  245.53    5.67
  -2   3  -2  243.21    4.79
   2  -3   2  241.97    4.78
  -3   3  -2    9.71    0.98
  -3   3  -2   10.78    1.11
  -3   3  -2   11.97    0.95
   3  -3   2   10.42    0.90
  -4   3  -2    1.66    0.59
  -4   3  -2    2.08    0.70
  -4   3  -2    1.25    0.64
   4  -3   2    1.28    0.56
  -5   3  -2   17.43    1.13
  -5   3  -2   16.67    1.30
  -5   3  -2   19.22    1.28
  -5   3  -2   17.31    1.44
   5  -3   2   18.22    1.26
  -6   3  -2   56.18    2.24
  -6   3  -2   50.08    2.01
  -6   3  -2   57.49    2.26
  -6   3  -2   54.94    2.51
   6  -3   2   53.53    2.19
  -7   3  -2   23.85    1.59
  -7   3  -2   23.97    1.91
  -7   3  -2   26.36    1.73
  -7   3  -2   23.05    1.64
   7  -3   2   24.12    1.65
  -8   3  -2   16.79    1.82
  -8   3  -2   14.07    1.72
  -8   3  -2   14.46    1.58
  -8   3  -2   13.27    1.71
   8  -3   2   12.84    1.57
  11   2  -2   17.33    1.56
  11   2  -2   13.03    1.77
  11   2  -2   14.39    1.66
 -11  -2   2   16.21    1.71
  10   2  -2   12.39    1.66
  10   2  -2   12.20    1.50
  10   2  -2   12.12    1.21
 -10  -2   2   13.46    1.42
   9   2  -2   31.89    1.77
   9   2  -2   33.24    1.46
   9   2  -2   31.52    1.96
  -9  -2   2   32.60    1.70
   8   2  -2   30.56    1.83
   8   2  -2   29.95    1.29
   8   2  -2   31.68    1.68
  -8  -2   2   32.43    1.58
   7   2  -2  117.60    3.62
   7   2  -2  120.99    3.38
  -7  -2   2  119.97    3.07
   6   2  -2  217.40    5.35
   6   2  -2  224.50    5.34
   6   2  -2  224.15    5.02
  -6  -2   2  225.83    4.54
   5   2  -2  115.41    3.27
   5   2  -2  116.46    3.12
   5   2  -2  117.55    2.99
   4   2  -2    3.34    0.68
   4   2  -2    5.78    0.69
   4   2  -2    4.22    0.73
   3   2  -2    9.59    0.77
   3   2  -2    7.89    0.70
   3   2  -2    8.92    0.71
   2   2  -2  187.22    3.74
   2   2  -2  181.21    4.13
   2   2  -2  181.38    3.94
   1   2  -2  851.23   16.20
   1   2  -2  892.86   15.18
   1   2  -2  844.35   16.78
   1   2  -2  893.63   16.72
   0   2  -2  257.55    4.55
   0   2  -2  253.68    5.44
   0   2  -2  268.15    5.53
   0  -2   2  264.48    4.56
  -1   2  -2  294.90    5.43
  -1   2  -2  297.28    6.24
  -1   2  -2  285.98    5.22
  -1   2  -2  289.41    6.04
   1  -2   2  295.54    5.24
  -2   2  -2  134.27    3.56
  -2   2  -2  141.61    3.00
  -2   2  -2  144.76    2.68
  -2   2  -2  139.38    3.06
   2  -2   2  143.55    3.02
  -3   2  -2    5.85    0.85
  -3   2  -2    9.13    0.84
  -3   2  -2   11.23    0.84
  -3   2  -2    8.80    0.65
   3  -2   2    8.35    0.76
  -4   2  -2    0.52    0.55
  -4   2  -2    0.46    0.50
  -4   2  -2    0.75    0.48
  -4   2  -2    1.13    0.41
   4  -2   2   -0.25    0.37
  -5   2  -2   93.03    2.99
  -5   2  -2   87.03    2.33
  -5   2  -2   87.31    2.63
  -5   2  -2   92.02    2.63
   5  -2   2   85.83    2.59
  -6   2  -2   21.07    1.39
  -6   2  -2   20.06    1.48
  -6   2  -2   21.74    1.38
  -6   2  -2   21.56    1.22
   6  -2   2   22.11    1.38
  -7   2  -2   28.55    1.90
  -7   2  -2   28.08    1.56
  -7   2  -2   30.63    1.78
  -7   2  -2   28.94    1.71
   7  -2   2   31.36    1.73
  -8   2  -2   83.86    2.75
  -8   2  -2   81.50    3.24
  -8   2  -2   78.22    2.93
  -8   2  -2   80.25    2.98
   8  -2   2   74.71    2.87
  -9   2  -2   18.52    1.63
  -9   2  -2   21.56    2.06
  -9   2  -2   15.38    1.72
   9  -2   2   16.81    1.81
  10   1  -2    9.41    1.35
  10   1  -2    8.31    1.11
  10   1  -2    6.66    1.27
 -10  -1   2    9.55    1.35
   9   1  -2   10.19    1.08
   9   1  -2    7.39    1.12
   9   1  -2    8.56    1.31
  -9  -1   2   10.20    1.16
   8   1  -2    9.08    1.12
   8   1  -2    9.43    1.30
   8   1  -2   10.22    0.89
  -8  -1   2   10.28    0.98
   7   1  -2  120.83    3.69
   7   1  -2  131.22    2.95
   7   1  -2  125.74    3.44
  -7  -1   2  123.76    3.15
   6   1  -2  156.86    3.22
   6   1  -2  152.23    4.07
   6   1  -2  158.41    3.78
  -6  -1   2  154.99    3.44
  -6  -1   2  149.86    3.14
   5   1  -2   26.73    1.34
   5   1  -2   27.07    1.25
  -5  -1   2   28.18    1.12
   4   1  -2   40.25    1.54
   4   1  -2   40.89    1.39
   4   1  -2   43.04    1.51
  -4  -1   2   42.02    1.24
   3   1  -2    2.23    0.42
   3   1  -2    1.97    0.43
   3   1  -2    1.94    0.41
   2   1  -2  153.48    3.14
   2   1  -2  157.93    3.33
   2   1  -2  148.68    3.47
   1   1  -2   31.04    0.99
   1   1  -2   29.73    1.04
   1   1  -2   32.14    0.99
   1   1  -2   30.94    0.92
   0   1  -2  201.66    4.17
   0   1  -2  202.93    3.69
   0   1  -2  196.54    3.47
   0   1  -2  206.71    4.24
   0  -1   2  196.56    3.47
  -1   1  -2   37.91    1.09
  -1   1  -2   38.08    1.27
  -1   1  -2   40.57    1.10
  -1   1  -2   37.20    1.04
   1  -1   2   38.19    1.05
  -2   1  -2    2.02    0.39
  -2   1  -2    1.45    0.42
  -2   1  -2    0.78    0.41
  -2   1  -2    1.68    0.29
   2  -1   2    1.47    0.41
  -3   1  -2   32.02    1.22
  -3   1  -2   29.70    1.18
  -3   1  -2   27.78    1.31
  -3   1  -2   28.96    0.97
   3  -1   2   31.24    1.20
  -4   1  -2   29.45    1.28
  -4   1  -2   31.23    1.42
  -4   1  -2   29.95    1.28
  -4   1  -2   31.04    1.13
   4  -1   2   30.47    1.29
  -5   1  -2   17.00    1.13
  -5   1  -2   14.97    0.96
  -5   1  -2   15.53    1.10
  -5   1  -2   15.94    1.15
   5  -1   2   14.93    1.07
  -6   1  -2   21.97    1.18
  -6   1  -2   21.75    1.32
  -6   1  -2   21.74    1.36
  -6   1  -2   23.84    1.44
   6  -1   2   20.09    1.28
  -7   1  -2    1.92    0.77
  -7   1  -2    2.21    0.80
  -7   1  -2    2.66    0.82
  -7   1  -2    3.37    0.74
   7  -1   2    2.88    0.83
  -8   1  -2    2.41    0.89
  -8   1  -2    5.26    1.05
  -8   1  -2    3.36    0.92
  -8   1  -2    4.66    0.93
   8  -1   2    3.17    0.88
  -9   1  -2    9.64    1.49
  -9   1  -2    9.35    1.41
  -9   1  -2    9.33    1.22
   9  -1   2   11.46    1.46
  10   0  -2    2.63    1.02
  10   0  -2    2.47    0.80
  10   0  -2    3.08    0.86
 -10   0   2    2.34    0.83
   9   0  -2    0.26    0.55
   9   0  -2    0.66    0.59
   9   0  -2   -0.44    0.61
  -9   0   2    0.95    0.62
   8   0  -2   66.90    2.42
   8   0  -2   71.08    2.21
   8   0  -2   68.36    2.74
  -8   0   2   68.51    2.31
   7   0  -2   81.04    2.22
   7   0  -2   74.35    2.45
   7   0  -2   68.49    2.71
  -7   0   2   77.09    2.33
   6   0  -2  115.70    2.66
   6   0  -2  111.77    3.28
   6   0  -2  112.80    3.03
  -6   0   2  113.60    2.79
  -6   0   2  113.06    2.61
   5   0  -2  142.81    2.94
   5   0  -2  139.94    3.36
  -5   0   2  140.10    2.91
  -5   0   2  143.61    3.06
   4   0  -2  200.73    4.43
   4   0  -2  194.63    3.62
   4   0  -2  190.91    4.10
  -4   0   2  195.70    3.61
  -4   0   2  192.02    3.72
   3   0  -2    5.85    0.39
   3   0  -2    4.95    0.50
   3   0  -2    6.03    0.57
  -3   0   2    5.21    0.43
  -3   0   2    4.80    0.33
   2   0  -2   12.49    0.63
   2   0  -2   11.45    0.68
   2   0  -2   12.24    0.68
  -2   0   2   12.58    0.50
   1   0  -2   19.29    0.71
   1   0  -2   15.32    0.66
   1   0  -2   15.33    0.74
   1   0  -2   17.56    0.73
  -1   0   2   19.17    0.48
   0   0  -2  618.63   10.66
   0   0  -2  620.99   10.04
   0   0  -2  608.22   11.82
   0   0  -2  655.81   11.95
   0   0  -2  637.02   11.43
   0   0   2  614.74   10.03
   0   0   2  596.42   12.18
  -1   0  -2    4.06    0.44
  -1   0  -2    3.68    0.45
  -1   0  -2    4.01    0.39
   1   0   2    3.47    0.36
  -2   0  -2  201.27    3.80
  -2   0  -2  198.98    3.70
  -2   0  -2  192.60    4.10
  -2   0  -2  203.51    4.29
   2   0   2  198.44    3.71
  -3   0  -2   47.49    1.51
  -3   0  -2   48.40    1.39
  -3   0  -2   47.85    1.24
  -3   0  -2   46.53    1.38
  -3   0  -2   46.01    1.37
   3   0   2   45.19    1.37
  -4   0  -2  146.85    3.21
  -4   0  -2  145.72    3.26
  -4   0  -2  144.52    2.97
  -4   0  -2  146.47    3.56
   4   0   2  147.60    3.22
  -5   0  -2   57.47    1.71
  -5   0  -2   55.42    1.84
  -5   0  -2   55.95    1.85
  -5   0  -2   56.63    1.94
   5   0   2   55.83    1.85
  -6   0  -2   19.28    1.26
  -6   0  -2   20.44    1.30
  -6   0  -2   20.20    1.16
  -6   0  -2   22.44    1.33
   6   0   2   19.96    1.23
  -7   0  -2    1.21    0.62
  -7   0  -2    2.37    0.63
  -7   0  -2    1.73    0.69
  -7   0  -2    2.97    0.77
   7   0   2    1.79    0.66
  -8   0  -2    4.82    0.98
  -8   0  -2    5.86    1.04
  -8   0  -2    7.10    1.14
  -8   0  -2    4.16    0.89
   8   0   2    7.79    1.16
  -9   0  -2   92.51    3.16
  -9   0  -2   92.88    3.19
  -9   0  -2   88.59    2.93
   9   0   2   90.54    3.10
 -10   0  -2   39.91    2.12
 -10   0  -2   39.53    2.23
  10   0   2   36.57    2.05
  10  -1  -2   23.19    1.93
  10  -1  -2   20.71    1.55
  10  -1  -2   20.69    1.63
 -10   1   2   24.58    1.73
   9  -1  -2    8.84    1.24
   9  -1  -2   12.53    1.35
  -9   1   2   11.11    1.26
   8  -1  -2    1.71    0.65
   8  -1  -2    2.40    0.67
  -8   1   2    1.86    0.67
  -8   1   2    2.49    0.66
   7  -1  -2    0.41    0.47
   7  -1  -2    0.86    0.43
  -7   1   2    1.27    0.50
  -7   1   2    0.79    0.49
  -7   1   2    0.86    0.50
   6  -1  -2   29.79    1.23
   6  -1  -2   27.90    1.35
  -6   1   2   26.81    1.33
  -6   1   2   27.99    1.27
  -6   1   2   28.50    1.21
   5  -1  -2   16.65    0.86
   5  -1  -2   19.38    1.06
  -5   1   2   17.65    0.86
  -5   1   2   19.00    0.96
   4  -1  -2    0.12    0.28
  -4   1   2    0.03    0.27
  -4   1   2    0.19    0.25
   3  -1  -2  151.54    2.86
  -3   1   2  147.21    2.83
  -3   1   2  144.77    2.87
   2  -1  -2    2.03    0.30
  -2   1   2    2.29    0.31
  -2   1   2    2.12    0.32
   1  -1  -2   20.79    0.57
  -1   1   2   19.09    0.55
  -1  -1  -2  147.75    3.11
  -1  -1  -2  152.76    2.73
  -1  -1  -2  155.85    3.17
   1   1   2  145.69    2.71
  -2  -1  -2   80.48    1.89
  -2  -1  -2   79.80    1.72
  -2  -1  -2   81.08    1.72
  -2  -1  -2   77.53    1.90
   2   1   2   80.46    1.73
  -3  -1  -2  161.74    3.54
  -3  -1  -2  169.05    3.27
  -3  -1  -2  168.29    3.62
  -3  -1  -2  167.19    3.31
   3   1   2  164.53    3.25
  -4  -1  -2  197.57    3.97
  -4  -1  -2  204.28    4.41
  -4  -1  -2  199.11    4.04
   4   1   2  198.82    3.99
  -5  -1  -2   24.21    1.18
  -5  -1  -2   25.10    1.15
   5   1   2   22.39    1.15
  -6  -1  -2    1.54    0.63
  -6  -1  -2    2.89    0.63
  -6  -1  -2    2.74    0.67
   6   1   2    2.18    0.63
  -7  -1  -2   25.79    1.42
  -7  -1  -2   26.82    1.37
  -7  -1  -2   28.42    1.46
   7   1   2   27.81    1.42
  -8  -1  -2   21.48    1.39
  -8  -1  -2   18.98    1.40
  -8  -1  -2   20.25    1.40
   8   1   2   18.71    1.31
  -9  -1  -2   37.22    1.93
  -9  -1  -2   38.16    1.86
   9   1   2   30.67    1.78
 -10  -1  -2   29.08    1.89
 -10  -1  -2   29.14    1.86
  10   1   2   25.41    1.71
   9  -2  -2   44.56    2.14
   9  -2  -2   45.59    2.09
  -9   2   2   43.08    2.10
   8  -2  -2   38.82    1.87
   8  -2  -2   36.42    1.72
  -8   2   2   37.85    1.83
  -8   2   2   37.00    1.89
   7  -2  -2    1.37    0.53
   7  -2  -2    0.57    0.52
  -7   2   2    0.29    0.49
  -7   2   2    1.14    0.52
  -7   2   2    1.07    0.53
   6  -2  -2   12.74    1.17
   6  -2  -2   16.81    1.03
  -6   2   2   15.96    1.01
  -6   2   2   16.87    1.06
  -6   2   2   17.26    1.16
   5  -2  -2   25.82    1.14
  -5   2   2   23.74    1.14
  -5   2   2   24.11    1.29
  -5   2   2   26.72    1.14
   4  -2  -2  246.11    4.73
  -4   2   2  248.48    4.69
  -4   2   2  242.74    4.69
   3  -2  -2  683.01   11.40
  -3   2   2  667.42   11.37
  -3   2   2  684.65   11.15
   2  -2  -2  120.15    2.41
  -2   2   2  117.20    2.38
   1  -2  -2  310.83    5.32
  -1   2   2  310.82    5.31
   0  -2  -2   64.00    1.60
   0  -2  -2   64.59    1.38
   0   2   2   63.98    1.37
   0   2   2   70.42    1.76
  -1  -2  -2  181.38    3.76
  -1  -2  -2  176.65    3.72
  -1  -2  -2  180.45    3.20
   1   2   2  180.43    3.20
  -2  -2  -2  249.25    4.34
  -2  -2  -2  242.48    4.95
  -2  -2  -2  247.74    4.32
   2   2   2  238.06    4.29
  -3  -2  -2  564.74    9.45
  -3  -2  -2  565.91    9.71
  -3  -2  -2  556.26   10.76
   3   2   2  567.09    9.81
   3   2   2  557.11    9.46
  -4  -2  -2  258.30    4.89
  -4  -2  -2  262.91    4.82
  -4  -2  -2  253.55    5.34
   4   2   2  256.66    4.85
   4   2   2  263.29    4.84
  -5  -2  -2  193.06    3.97
  -5  -2  -2  195.34    3.91
   5   2   2  193.38    3.93
   5   2   2  185.77    3.85
  -6  -2  -2   79.47    2.20
  -6  -2  -2   80.76    2.25
   6   2   2   74.80    2.06
   6   2   2   84.10    2.25
  -7  -2  -2   35.28    1.53
  -7  -2  -2   31.75    1.51
  -7  -2  -2   34.17    1.50
   7   2   2   31.36    1.28
   7   2   2   32.78    1.47
  -8  -2  -2   29.21    1.54
  -8  -2  -2   30.09    1.53
  -8  -2  -2   25.62    1.48
   8   2   2   27.58    1.49
  -9  -2  -2   52.94    2.20
  -9  -2  -2   54.73    2.23
   9   2   2   53.82    2.19
 -10  -2  -2   94.61    3.21
 -10  -2  -2   93.63    3.16
  10   2   2   97.51    3.48
  10   2   2   93.63    3.11
   9  -3  -2   60.27    2.58
   9  -3  -2   65.83    2.61
  -9   3   2   58.15    2.56
  -9   3   2   64.23    3.05
   8  -3  -2   35.75    1.86
   8  -3  -2   34.97    1.80
  -8   3   2   34.07    1.96
  -8   3   2   36.38    1.87
   7  -3  -2    5.65    0.87
  -7   3   2    4.25    0.88
  -7   3   2    5.06    0.87
  -7   3   2    5.95    0.88
   6  -3  -2    1.85    0.56
  -6   3   2    1.50    0.52
  -6   3   2    2.81    0.60
  -6   3   2    2.25    0.66
   5  -3  -2   62.65    1.96
  -5   3   2   66.30    2.36
  -5   3   2   62.24    1.99
  -5   3   2   63.05    1.96
   4  -3  -2  103.56    2.52
  -4   3   2  101.36    2.52
  -4   3   2  101.44    2.49
  -4   3   2  100.10    2.97
   3  -3  -2  163.77    3.39
  -3   3   2  162.90    3.37
   2  -3  -2  399.18    7.01
  -2   3   2  399.64    7.00
   1  -3  -2   61.99    1.50
  -1   3   2   60.96    1.85
  -1   3   2   62.60    1.49
   0  -3  -2   11.07    0.68
   0  -3  -2   11.39    0.56
   0   3   2   12.11    0.55
   0   3   2   12.45    0.74
  -1  -3  -2    7.80    0.69
   1   3   2   12.23    0.53
  -2  -3  -2  357.48    6.19
  -2  -3  -2  374.29    7.40
  -2  -3  -2  354.14    7.23
   2   3   2  372.15    6.23
  -3  -3  -2  317.77    6.45
  -3  -3  -2  320.67    5.56
  -3  -3  -2  307.99    5.54
   3   3   2  319.04    5.57
  -4  -3  -2  145.24    3.31
  -4  -3  -2  138.32    2.83
  -4  -3  -2  144.41    2.90
   4   3   2  139.39    3.06
   4   3   2  140.62    2.90
   4   3   2  139.47    2.93
  -5  -3  -2   19.36    0.88
  -5  -3  -2   21.68    0.95
  -5  -3  -2   21.24    1.09
   5   3   2   19.32    0.89
   5   3   2   23.59    0.98
   5   3   2   19.51    0.97
  -7  -3  -2   12.84    0.97
  -7  -3  -2   12.88    0.98
   7   3   2   12.57    0.95
   7   3   2   12.05    0.88
   7   3   2   13.12    1.03
  -8  -3  -2   24.22    1.36
   8   3   2   23.14    1.34
   8   3   2   22.33    1.42
   8   3   2   24.62    1.22
  -9  -3  -2   85.74    2.83
  -9  -3  -2   82.80    2.74
   9   3   2   85.22    2.95
   9   3   2   83.53    2.68
 -10  -3  -2   29.91    1.78
 -10  -3  -2   30.00    1.83
  10   3   2   31.85    1.75
  10   3   2   30.26    1.87
 -11  -3  -2    8.25    1.31
 -11  -3  -2   13.18    1.60
  11   3   2   11.26    1.42
   8  -4  -2   31.53    1.85
   8  -4  -2   32.85    1.89
  -8   4   2   35.52    2.12
   7  -4  -2   60.66    2.30
  -7   4   2   57.74    2.27
  -7   4   2   59.87    2.65
   6  -4  -2    0.74    0.52
  -6   4   2    0.40    0.58
  -6   4   2    0.28    0.51
   5  -4  -2   26.52    1.34
  -5   4   2   26.06    1.62
  -5   4   2   26.07    1.32
   4  -4  -2   50.82    1.75
  -4   4   2   51.59    1.72
  -4   4   2   49.78    2.09
   3  -4  -2  363.75    6.82
  -3   4   2  378.79    8.10
  -3   4   2  361.99    6.78
   2  -4  -2  343.96    6.34
  -2   4   2  343.24    7.62
  -2   4   2  351.26    6.32
   1  -4  -2  104.18    2.34
   1  -4  -2  107.38    2.53
  -1   4   2  103.38    2.78
  -1   4   2  105.19    2.33
   0  -4  -2   77.12    1.82
   0  -4  -2   80.65    2.08
   0   4   2   81.51    2.21
   0   4   2   78.25    1.82
  -1  -4  -2    8.76    0.78
  -1  -4  -2   10.93    0.60
   1   4   2   10.68    0.58
  -2  -4  -2   57.59    1.43
  -2  -4  -2   58.75    1.80
  -2  -4  -2   58.40    1.76
   2   4   2   57.89    1.42
  -3  -4  -2   80.19    2.27
  -3  -4  -2   78.12    2.22
  -3  -4  -2   79.17    1.78
   3   4   2   77.90    1.79
   3   4   2   81.35    2.04
  -4  -4  -2  317.32    5.60
  -4  -4  -2  301.26    5.54
  -4  -4  -2  322.32    6.54
   4   4   2  303.82    5.58
   4   4   2  319.30    6.15
  -5  -4  -2   26.15    1.00
  -5  -4  -2   25.59    1.21
  -5  -4  -2   24.21    0.88
   5   4   2   26.33    1.03
   5   4   2   25.44    1.00
   5   4   2   27.12    1.05
  -6  -4  -2   42.03    1.61
  -6  -4  -2   42.69    1.41
  -6  -4  -2   40.70    1.33
   6   4   2   42.85    1.51
   6   4   2   40.77    1.39
   6   4   2   39.18    1.42
  -7  -4  -2   59.90    1.85
  -7  -4  -2   55.79    1.78
   7   4   2   56.92    1.85
   7   4   2   59.18    2.04
   7   4   2   57.69    1.85
  -8  -4  -2    6.62    0.90
   8   4   2    6.70    0.91
   8   4   2    7.03    0.99
   8   4   2    7.02    0.89
  -9  -4  -2    0.55    0.64
   9   4   2    0.65    0.66
   9   4   2    1.70    0.73
 -10  -4  -2   10.19    1.32
 -10  -4  -2   10.65    1.27
  10   4   2    7.45    1.10
 -11  -4  -2   13.36    1.52
 -11  -4  -2   13.70    1.60
  11   4   2   14.69    1.60
   8  -5  -2   17.62    1.59
  -8   5   2   19.80    1.73
  -8   5   2   17.95    1.80
   7  -5  -2    6.11    1.10
  -7   5   2    4.74    1.15
  -7   5   2    5.74    1.09
   6  -5  -2    0.77    0.58
  -6   5   2    0.64    0.79
  -6   5   2    0.90    0.68
   5  -5  -2    2.11    0.65
  -5   5   2    0.05    0.52
  -5   5   2   -0.72    0.50
  -5   5   2    0.65    0.72
   4  -5  -2   29.00    1.39
  -4   5   2   28.20    1.58
  -4   5   2   30.37    1.43
  -4   5   2   31.22    1.76
   3  -5  -2   38.97    1.54
  -3   5   2   39.01    1.84
  -3   5   2   41.76    1.79
  -3   5   2   41.35    1.53
   2  -5  -2    6.58    0.78
  -2   5   2    8.10    0.87
  -2   5   2    5.72    0.71
  -2   5   2    4.97    0.84
   1  -5  -2   45.95    1.46
   1  -5  -2   40.53    1.52
  -1   5   2   45.16    1.43
  -1   5   2   43.67    1.62
  -1   5   2   38.45    1.75
   0  -5  -2    0.91    0.54
  -1  -5  -2   15.81    0.77
  -1  -5  -2   13.87    0.93
   1   5   2   15.32    0.75
  -2  -5  -2    9.55    1.02
  -2  -5  -2   14.88    0.94
  -2  -5  -2   13.93    0.73
   2   5   2   13.92    0.71
  -3  -5  -2  100.25    2.75
  -3  -5  -2   99.55    2.75
  -3  -5  -2  100.31    2.21
   3   5   2  103.76    2.64
   3   5   2  100.56    2.21
  -4  -5  -2  197.20    4.45
  -4  -5  -2  187.81    4.52
  -4  -5  -2  185.89    3.62
   4   5   2  182.98    3.64
   4   5   2  187.03    3.99
   4   5   2  195.69    4.35
  -5  -5  -2   28.35    1.06
  -5  -5  -2   28.22    1.33
   5   5   2   29.38    1.10
   5   5   2   27.62    1.06
  -6  -5  -2   32.86    1.23
  -6  -5  -2   32.61    1.10
  -6  -5  -2   32.02    1.54
   6   5   2   33.10    1.22
   6   5   2   32.67    1.29
   6   5   2   33.93    1.36
  -7  -5  -2    2.46    0.76
  -7  -5  -2    4.90    0.64
   7   5   2    4.17    0.65
   7   5   2    3.47    0.66
   7   5   2    3.17    0.63
  -8  -5  -2   42.37    1.62
   8   5   2   42.80    1.73
   8   5   2   45.36    1.66
   8   5   2   44.01    1.88
  -9  -5  -2    3.89    0.80
   9   5   2    2.63    0.72
   9   5   2    3.15    0.73
   9   5   2    2.51    0.81
  10   5   2   19.65    1.37
 -11  -5  -2   12.02    1.54
  11   5   2   13.12    1.43
   7  -6  -2    7.92    1.28
  -7   6   2    6.07    1.22
  -7   6   2    8.53    1.36
  -7   6   2    6.28    1.32
   6  -6  -2   38.59    2.00
  -6   6   2   41.20    2.41
  -6   6   2   42.03    2.09
   5  -6  -2    9.92    1.20
  -5   6   2   13.45    1.41
  -5   6   2   12.44    1.39
  -5   6   2    9.47    1.37
   4  -6  -2    8.65    1.07
  -4   6   2    9.87    1.12
  -4   6   2    8.44    1.24
  -4   6   2    9.30    1.22
   3  -6  -2    5.54    0.90
  -3   6   2    3.87    0.94
  -3   6   2    6.45    0.94
  -3   6   2    5.47    0.94
   2  -6  -2   65.68    2.07
  -2   6   2   64.94    2.03
  -2   6   2   66.49    2.48
  -2   6   2   65.34    2.28
   1  -6  -2   72.42    2.08
   1  -6  -2   70.33    2.24
  -1   6   2   68.51    2.50
  -1   6   2   73.12    2.07
  -1   6   2   72.45    2.31
   0  -6  -2   53.93    1.92
   0  -6  -2   58.17    1.71
   0   6   2   53.87    1.66
   0   6   2   52.56    2.07
  -1  -6  -2  144.68    3.67
  -1  -6  -2  149.45    3.15
   1   6   2  146.23    3.11
   1   6   2  144.05    3.73
  -2  -6  -2  107.80    3.01
  -2  -6  -2  113.91    2.51
   2   6   2  110.95    2.50
   2   6   2  114.80    2.89
  -3  -6  -2   31.05    1.41
  -3  -6  -2   29.80    1.09
  -3  -6  -2   28.31    1.46
   3   6   2   31.91    1.37
   3   6   2   29.58    1.08
  -4  -6  -2    0.99    0.46
  -4  -6  -2   -0.64    0.47
   4   6   2    1.12    0.35
   4   6   2    1.40    0.44
   4   6   2    0.87    0.36
  -5  -6  -2   71.38    2.40
  -5  -6  -2   68.45    1.80
  -5  -6  -2   73.52    2.46
   5   6   2   72.07    1.86
   5   6   2   68.79    2.21
   5   6   2   70.58    2.01
  -6  -6  -2   56.24    2.16
  -6  -6  -2   57.14    1.77
  -6  -6  -2   57.36    2.24
   6   6   2   54.60    1.94
   6   6   2   57.80    1.68
   6   6   2   60.11    1.88
  -7  -6  -2   31.12    1.74
   7   6   2   33.03    1.45
   7   6   2   34.45    1.34
  -8  -6  -2   85.29    2.96
   8   6   2   88.77    2.41
   8   6   2   88.03    2.74
   8   6   2   92.43    2.74
   9   6   2   16.17    1.11
   9   6   2   13.92    1.21
  10   6   2    1.31    0.65
  11   6   2   15.67    1.38
   6  -7  -2    1.00    0.79
  -6   7   2    1.79    1.04
  -6   7   2    0.68    0.79
  -6   7   2    1.02    0.95
   5  -7  -2    5.00    1.00
  -5   7   2    4.03    1.12
  -5   7   2    5.35    1.06
  -5   7   2    5.48    1.08
   4  -7  -2   15.05    1.55
  -4   7   2   15.84    1.63
  -4   7   2   13.51    1.28
  -4   7   2   14.46    1.24
   3  -7  -2   16.23    1.27
  -3   7   2   16.88    1.35
  -3   7   2   15.90    1.14
  -3   7   2   15.72    1.26
  -3   7   2   15.68    1.54
   2  -7  -2   56.13    2.06
   2  -7  -2   53.46    1.97
  -2   7   2   51.99    1.76
  -2   7   2   58.93    2.48
  -2   7   2   54.65    2.07
  -2   7   2   55.48    1.97
   1  -7  -2   19.21    1.18
   1  -7  -2   19.11    1.29
  -1   7   2   17.83    1.14
  -1   7   2   15.75    1.44
  -1   7   2   17.63    0.95
   0  -7  -2  142.97    3.80
   0  -7  -2  144.89    3.37
   0   7   2  141.78    3.33
   0   7   2  148.16    4.03
  -1  -7  -2  117.53    2.79
  -1  -7  -2  113.66    3.23
   1   7   2  112.39    2.74
   1   7   2  115.61    3.27
  -2  -7  -2   18.13    1.22
  -2  -7  -2   18.37    0.97
   2   7   2   17.08    0.94
   2   7   2   18.50    1.12
  -3  -7  -2   53.85    1.61
  -3  -7  -2   51.11    2.03
   3   7   2   52.39    1.59
   3   7   2   55.86    2.05
  -4  -7  -2   75.43    1.98
  -4  -7  -2   73.31    2.54
  -4  -7  -2   75.82    2.57
   4   7   2   78.56    2.54
   4   7   2   74.39    1.96
  -5  -7  -2   66.43    2.46
  -5  -7  -2   69.08    2.51
   5   7   2   72.90    2.46
   5   7   2   67.34    2.09
   5   7   2   70.56    1.88
  -6  -7  -2  136.89    3.89
  -6  -7  -2  137.00    3.99
   6   7   2  140.08    3.83
   6   7   2  140.21    3.08
   6   7   2  142.07    3.53
  -7  -7  -2   87.09    3.04
  -7  -7  -2   90.71    2.94
   7   7   2   84.12    2.25
   7   7   2   83.74    2.74
   7   7   2   89.04    2.63
  -8  -7  -2   21.36    1.63
  -8  -7  -2   22.54    1.67
   8   7   2   22.84    1.18
  -9  -7  -2   21.29    1.71
  -9  -7  -2   24.22    1.82
   9   7   2   21.89    1.26
  10   7   2    1.96    0.73
   5  -8  -2   67.61    2.78
  -5   8   2   75.04    3.40
  -5   8   2   71.73    2.76
  -5   8   2   72.06    2.81
   4  -8  -2   37.54    1.99
  -4   8   2   34.99    2.35
  -4   8   2   35.41    1.97
  -4   8   2   36.43    1.88
   3  -8  -2   18.20    1.45
  -3   8   2   21.46    1.49
  -3   8   2   17.42    1.72
  -3   8   2   18.40    1.31
   2  -8  -2   14.13    1.28
   2  -8  -2   13.34    1.39
  -2   8   2   14.57    1.47
  -2   8   2   14.31    1.44
  -2   8   2   12.89    1.08
   1  -8  -2   50.54    1.96
   1  -8  -2   50.75    2.10
  -1   8   2   47.01    1.60
  -1   8   2   51.29    2.33
  -1   8   2   48.97    1.91
   0  -8  -2  105.92    2.84
   0  -8  -2  102.91    3.18
   0   8   2   98.30    2.75
   0   8   2  103.08    3.36
  -1  -8  -2   75.51    2.65
  -1  -8  -2   72.55    2.21
   1   8   2   77.28    2.26
   1   8   2   75.54    2.67
  -2  -8  -2  117.33    2.88
  -2  -8  -2  114.92    3.47
   2   8   2  115.22    3.35
   2   8   2  116.30    2.88
   2   8   2  124.17    3.66
  -3  -8  -2   27.52    1.60
  -3  -8  -2   28.73    1.26
   3   8   2   28.02    1.25
   3   8   2   27.08    1.58
  -4  -8  -2   14.19    1.34
   4   8   2   13.73    1.22
   4   8   2   14.53    0.94
  -5  -8  -2    2.42    0.77
  -5  -8  -2    2.07    0.74
   5   8   2    2.48    0.78
   5   8   2    2.51    0.59
  -6  -8  -2  125.37    3.79
  -6  -8  -2  123.82    3.85
   6   8   2  125.11    3.76
   6   8   2  123.95    2.91
  -7  -8  -2   85.72    3.00
  -7  -8  -2   82.38    3.04
   7   8   2   82.06    2.23
   7   8   2   83.70    2.92
  -8  -8  -2   54.22    2.37
  -8  -8  -2   47.95    2.39
   8   8   2   50.95    1.71
  -9  -8  -2   14.87    1.59
  -9  -8  -2   15.95    1.65
   9   8   2   17.63    1.19
 -10  -8  -2    2.13    0.99
  10   8   2    0.52    0.65
   4  -9  -2    9.42    1.41
  -4   9   2    7.59    1.49
  -4   9   2    9.68    1.48
   3  -9  -2    4.81    1.08
  -3   9   2    4.96    1.26
  -3   9   2    5.94    1.20
   2  -9  -2   28.00    1.79
   2  -9  -2   26.73    1.69
  -2   9   2   26.42    2.06
  -2   9   2   25.24    1.70
   1  -9  -2   62.89    2.33
   1  -9  -2   63.10    2.57
  -1   9   2   62.17    2.31
  -1   9   2   64.98    2.84
   0  -9  -2   32.31    1.87
   0  -9  -2   32.87    1.66
   0   9   2   29.84    1.58
   0   9   2   30.59    1.93
  -1  -9  -2  144.57    3.66
  -1  -9  -2  151.60    4.34
   1   9   2  156.99    4.44
   1   9   2  146.54    3.65
  -2  -9  -2   56.79    2.06
  -2  -9  -2   55.65    2.40
   2   9   2   54.49    2.26
   2   9   2   54.04    2.44
   2   9   2   55.13    1.93
  -3  -9  -2    7.32    1.17
   3   9   2    5.77    0.93
   3   9   2   11.53    1.04
   3   9   2   11.72    1.30
  -4  -9  -2    2.73    0.85
   4   9   2    4.22    0.75
   4   9   2    3.35    0.91
  -5  -9  -2   45.49    2.24
   5   9   2   43.70    1.61
   5   9   2   46.42    2.24
  -6  -9  -2   24.95    1.77
  -6  -9  -2   27.44    1.81
   6   9   2   23.70    1.70
   6   9   2   27.16    1.25
  -7  -9  -2   64.54    2.78
  -7  -9  -2   65.66    2.74
   7   9   2   67.86    2.78
   7   9   2   67.30    2.03
  -8  -9  -2   50.09    2.53
  -8  -9  -2   50.79    2.49
   8   9   2   52.12    1.80
  -9  -9  -2   14.26    1.64
  -9  -9  -2    9.91    1.46
   9   9   2   10.52    1.00
 -10  -9  -2    4.44    1.28
   3 -10  -2    9.45    1.46
  -3  10   2    8.71    1.56
  -3  10   2   12.78    1.66
   2 -10  -2    0.12    0.73
   2 -10  -2    0.95    0.87
  -2  10   2    2.13    1.02
  -2  10   2    0.46    1.00
   1 -10  -2    1.86    0.98
   1 -10  -2    1.11    0.80
  -1  10   2    0.18    0.88
  -1  10   2    1.86    0.84
   0 -10  -2    9.90    1.45
   0  10   2    9.47    1.25
   0  10   2    9.09    1.40
  -1 -10  -2   36.59    2.17
   1  10   2   34.81    1.72
   1  10   2   36.84    2.11
   1  10   2   34.78    2.21
  -2 -10  -2   12.48    1.53
   2  10   2    9.48    1.28
   2  10   2   11.67    1.22
   2  10   2   10.86    1.51
  -3 -10  -2   71.25    2.92
   3  10   2   68.38    2.60
   3  10   2   70.97    3.00
   3  10   2   72.23    2.31
  -4 -10  -2    5.60    1.19
   4  10   2    4.58    1.08
   4  10   2    4.19    0.87
  -5 -10  -2    4.04    1.03
   5  10   2    3.81    1.05
   5  10   2    3.22    0.74
  -6 -10  -2   13.93    1.57
   6  10   2   11.21    1.57
   6  10   2   12.86    1.08
  -7 -10  -2    4.29    1.17
  -7 -10  -2    3.34    1.02
   7  10   2    3.94    1.05
   7  10   2    3.94    0.79
  -8 -10  -2   16.59    1.78
  -8 -10  -2   19.46    1.77
  -9 -10  -2   17.44    1.86
  -9 -10  -2   18.34    1.94
   1 -11  -2    1.03    1.01
  -1  11   2    0.67    1.11
  -1  11   2    1.50    1.04
   0 -11  -2    3.94    1.15
   0  11   2    4.29    1.07
   0  11   2    4.39    1.35
   0  11   2    4.19    1.24
  -1 -11  -2    5.82    1.24
   1  11   2    3.01    0.99
   1  11   2    4.00    1.22
   1  11   2    5.26    1.24
  -2 -11  -2   63.59    2.91
   2  11   2   55.46    2.67
   2  11   2   55.91    2.88
   2  11   2   62.05    2.34
  -3 -11  -2   41.38    2.42
   3  11   2   35.44    2.36
   3  11   2   43.79    1.92
  -4 -11  -2   21.65    2.03
   4  11   2   19.48    1.41
   4  11   2   19.27    1.84
  -5 -11  -2   19.00    1.90
   5  11   2   20.55    1.85
   5  11   2   17.05    1.31
  -6 -11  -2    1.49    0.88
   6  11   2    0.16    0.95
   6  11   2    1.71    0.70
  -7 -11  -2    2.47    0.99
   7  11   2    1.58    1.10
  -8 -11  -2   17.89    1.95
  -8 -11  -2   20.73    1.96
  -1 -12  -2    2.04    1.12
   1  12   2    0.40    0.88
   1  12   2    0.95    1.01
   1  12   2   -0.76    0.93
  -2 -12  -2    5.87    1.39
   2  12   2    4.13    1.31
   2  12   2    4.05    1.42
   2  12   2    5.87    1.14
  -3 -12  -2    7.21    1.53
   3  12   2    8.62    1.66
   3  12   2    9.31    1.31
  -4 -12  -2   56.60    3.12
   4  12   2   52.41    2.22
   4  12   2   52.34    2.98
  -5 -12  -2   24.43    2.26
   5  12   2   23.73    1.59
   5  12   2   20.63    2.11
  -6 -12  -2    8.65    1.59
   6  12   2    6.92    1.52
   6  12   2    9.77    1.28
   6  10  -3    5.12    1.51
   5  10  -3    0.84    1.18
   4  10  -3    6.56    1.62
   3  10  -3   26.11    2.52
   2  10  -3   47.39    2.04
   2  10  -3   46.75    3.00
   2  10  -3   42.66    2.64
   1  10  -3    8.33    1.74
   1  10  -3   10.93    1.41
   1  10  -3    8.73    1.60
   8   9  -3   23.35    2.10
   8   9  -3   24.87    2.30
  -8  -9   3   25.69    2.01
   7   9  -3   27.31    2.31
  -7  -9   3   27.90    2.10
   6   9  -3    4.22    1.34
   5   9  -3   23.81    2.11
   4   9  -3    3.29    1.26
   3   9  -3    0.13    1.00
   3   9  -3    0.18    0.79
   2   9  -3   -0.98    0.87
   2   9  -3    0.30    0.95
   1   9  -3   11.66    1.31
   1   9  -3   13.00    1.86
   1   9  -3   11.38    1.67
   0   9  -3   15.93    1.57
   0   9  -3   18.05    2.14
   0   9  -3   13.18    1.79
  -1   9  -3   17.65    1.66
  -1   9  -3   19.13    2.17
  -1   9  -3   18.54    2.26
   9   8  -3   -0.05    1.00
   9   8  -3    0.82    1.10
   9   8  -3    1.39    0.94
   8   8  -3    7.67    1.42
   8   8  -3    6.43    1.27
   8   8  -3    6.40    1.40
  -8  -8   3    5.35    1.08
   7   8  -3   11.20    1.70
   7   8  -3   11.17    1.55
  -7  -8   3   12.07    1.48
   6   8  -3   54.17    2.87
   5   8  -3   46.18    2.55
   4   8  -3    8.99    1.43
   3   8  -3   16.81    1.72
   3   8  -3   14.53    1.41
   2   8  -3    1.44    0.86
   2   8  -3   -0.03    0.72
   2   8  -3    2.47    0.66
   1   8  -3   40.47    1.74
   1   8  -3   40.06    2.39
   1   8  -3   36.25    2.25
   0   8  -3   33.59    2.23
   0   8  -3   34.43    1.74
   0   8  -3   31.27    2.23
  -1   8  -3   46.88    2.72
  -1   8  -3   51.23    2.75
  -1   8  -3   50.17    2.17
  -2   8  -3   36.52    2.07
  -2   8  -3   39.75    2.63
  -2   8  -3   42.16    2.61
  -3   8  -3    3.45    1.32
  -3   8  -3    1.67    1.12
  -3   8  -3    2.70    1.08
  10   7  -3   15.72    1.79
  10   7  -3   16.43    2.07
  10   7  -3   16.56    2.00
   9   7  -3    3.18    1.12
   9   7  -3    2.19    1.05
   9   7  -3    2.57    1.01
   8   7  -3    1.81    0.86
   8   7  -3    2.77    0.95
   8   7  -3    3.62    1.04
  -8  -7   3    1.84    0.72
   7   7  -3   18.47    1.64
   7   7  -3   19.26    1.69
   7   7  -3   17.92    1.80
  -7  -7   3   20.74    1.58
   6   7  -3   97.84    3.39
   6   7  -3   98.42    3.69
   6   7  -3   89.08    3.10
   5   7  -3   51.01    2.36
   5   7  -3   49.95    2.49
   4   7  -3   79.01    3.11
   3   7  -3   14.41    1.30
   3   7  -3   13.52    1.43
   2   7  -3    6.05    1.04
   2   7  -3    6.28    0.78
   2   7  -3    5.95    1.13
   1   7  -3    3.53    0.73
   1   7  -3    3.60    0.99
   1   7  -3    1.93    0.83
   0   7  -3   63.16    2.72
   0   7  -3   60.15    2.10
   0   7  -3   63.66    2.78
  -1   7  -3   87.88    3.39
  -1   7  -3   84.50    3.28
  -1   7  -3   83.61    2.66
  -2   7  -3   51.00    2.76
  -2   7  -3   52.08    2.20
  -2   7  -3   52.28    2.64
  -3   7  -3   18.50    2.05
  -3   7  -3   19.57    1.87
  -3   7  -3   18.61    1.64
  -4   7  -3    6.52    1.48
  -4   7  -3    8.54    1.56
  -4   7  -3    8.64    1.49
  10   6  -3   24.01    1.99
  10   6  -3   21.32    2.01
  10   6  -3   23.80    1.94
 -10  -6   3   19.79    1.63
   9   6  -3   11.58    1.53
   9   6  -3    9.92    1.50
   9   6  -3    8.26    1.42
   8   6  -3    0.43    0.72
   8   6  -3    0.48    0.75
   8   6  -3    0.98    0.76
   7   6  -3   14.18    1.43
   7   6  -3   16.23    1.57
   7   6  -3   14.82    1.45
  -7  -6   3   16.37    1.31
   6   6  -3   46.28    2.38
   6   6  -3   48.84    2.13
   6   6  -3   47.83    2.18
   5   6  -3  184.67    4.95
   5   6  -3  193.63    5.29
   5   6  -3  185.94    4.66
   4   6  -3  102.70    3.26
   4   6  -3  103.04    3.46
   3   6  -3    1.74    0.75
   3   6  -3    1.11    0.61
   2   6  -3    0.98    0.62
   2   6  -3    1.16    0.66
   1   6  -3   24.27    1.60
   1   6  -3   22.58    1.16
   1   6  -3   23.11    1.55
   0   6  -3  119.56    3.75
   0   6  -3  121.11    2.97
   0   6  -3  119.86    3.75
  -1   6  -3  108.50    2.89
  -1   6  -3  105.55    3.50
  -1   6  -3  106.79    3.61
  -2   6  -3  107.91    3.76
  -2   6  -3  103.39    2.97
  -2   6  -3  102.59    3.47
   2  -6   3  100.83    2.94
  -3   6  -3   24.11    1.66
  -3   6  -3   20.20    1.99
  -3   6  -3   23.72    1.78
   3  -6   3   25.00    1.52
  -4   6  -3    1.53    1.02
  -4   6  -3    0.12    0.83
  -4   6  -3    3.18    1.07
   4  -6   3    0.51    0.72
  -5   6  -3    0.25    0.94
  -5   6  -3   -0.06    0.96
  -5   6  -3    1.24    0.82
  -5   6  -3    0.08    1.05
   5  -6   3    0.52    0.90
  10   5  -3   30.82    2.17
  10   5  -3   33.24    2.18
 -10  -5   3   31.40    1.91
   9   5  -3   22.01    1.70
   9   5  -3   18.37    1.68
   9   5  -3   20.95    1.81
  -9  -5   3   20.52    1.46
   8   5  -3    2.58    0.85
   8   5  -3    1.95    0.79
   8   5  -3    2.04    0.87
   7   5  -3    3.33    0.93
   7   5  -3    3.04    0.84
   7   5  -3    3.16    0.85
   6   5  -3   48.33    2.27
   6   5  -3   49.15    2.09
   6   5  -3   49.96    2.15
  -6  -5   3   49.76    1.77
   5   5  -3  143.82    3.97
   5   5  -3  140.51    3.75
   5   5  -3  150.92    4.31
   4   5  -3   61.50    2.43
   4   5  -3   64.13    2.19
   4   5  -3   62.28    2.32
   3   5  -3   62.90    2.07
   3   5  -3   63.29    2.10
   3   5  -3   64.04    2.29
   3   5  -3   61.90    2.36
   2   5  -3   -0.20    0.56
   2   5  -3    0.87    0.56
   1   5  -3    2.77    0.71
   1   5  -3    3.21    0.56
  -1  -5   3    1.81    0.43
   0   5  -3    6.38    0.77
   0   5  -3    5.58    0.94
   0   5  -3    4.99    0.94
   0  -5   3    5.58    0.69
  -1   5  -3   21.80    1.53
  -1   5  -3   22.96    1.48
  -1   5  -3   19.99    1.17
   1  -5   3   20.44    1.12
  -2   5  -3   47.75    1.83
  -2   5  -3   46.85    2.08
  -2   5  -3   50.89    2.31
   2  -5   3   47.60    1.79
  -3   5  -3    2.60    0.95
  -3   5  -3    3.15    0.81
  -3   5  -3    4.26    0.92
  -3   5  -3    3.79    0.82
   3  -5   3    3.40    0.75
  -4   5  -3    6.74    1.27
  -4   5  -3    4.56    1.05
  -4   5  -3    4.68    0.96
  -4   5  -3    5.44    1.09
   4  -5   3    4.46    0.97
  -5   5  -3    0.16    0.81
  -5   5  -3    2.24    0.86
  -5   5  -3    0.40    0.90
   5  -5   3    0.57    0.73
  -6   5  -3    1.34    0.87
  -6   5  -3    2.92    1.11
  -6   5  -3    1.05    1.02
   6  -5   3    2.02    0.99
  10   4  -3   26.11    1.96
  10   4  -3   27.61    1.92
 -10  -4   3   26.38    1.68
   9   4  -3    3.42    0.91
   9   4  -3    4.58    1.03
  -9  -4   3    4.02    0.88
   8   4  -3    1.14    0.68
   8   4  -3    0.22    0.68
   8   4  -3    1.70    0.73
  -8  -4   3    0.86    0.56
   7   4  -3    8.62    1.14
   7   4  -3    9.85    1.20
   7   4  -3   11.10    1.35
  -7  -4   3    9.41    0.89
   6   4  -3   68.87    2.61
   6   4  -3   71.24    2.51
   6   4  -3   66.73    2.39
  -6  -4   3   68.17    2.08
   5   4  -3   13.79    1.14
   5   4  -3   14.84    1.25
   5   4  -3   11.29    1.09
  -5  -4   3   14.53    0.85
   4   4  -3  287.19    6.51
   4   4  -3  300.30    6.93
   4   4  -3  299.65    6.22
   3   4  -3  119.24    3.27
   3   4  -3  121.58    3.05
   3   4  -3  119.13    3.42
   2   4  -3   18.27    1.15
   2   4  -3   15.25    1.03
   2   4  -3   16.49    1.01
   1   4  -3   11.99    0.97
   1   4  -3   10.85    0.98
  -1   4  -3   16.40    1.28
  -1   4  -3   17.34    1.01
  -1   4  -3   16.82    1.16
   1  -4   3   17.12    0.96
  -2   4  -3   48.89    1.77
  -2   4  -3   48.85    1.92
  -2   4  -3   50.48    2.21
   2  -4   3   49.95    1.73
  -3   4  -3   66.53    2.26
  -3   4  -3   67.54    2.68
  -3   4  -3   68.57    2.42
  -3   4  -3   70.33    2.26
   3  -4   3   70.89    2.26
  -4   4  -3  105.22    3.04
  -4   4  -3  102.42    3.57
  -4   4  -3  101.37    3.03
   4  -4   3   97.81    2.97
  -5   4  -3   28.53    1.71
  -5   4  -3   26.21    2.02
  -5   4  -3   26.54    1.73
   5  -4   3   25.78    1.64
  -6   4  -3   38.87    2.41
  -6   4  -3   37.37    2.06
  -6   4  -3   32.99    1.96
   6  -4   3   31.33    1.91
  -7   4  -3    0.49    1.00
  -7   4  -3    0.36    0.93
  -7   4  -3    3.16    1.02
   7  -4   3    0.83    0.88
  11   3  -3   19.41    1.95
  11   3  -3   16.86    1.77
 -11  -3   3   21.01    1.62
  10   3  -3   24.23    1.95
  10   3  -3   25.89    1.85
 -10  -3   3   25.81    1.63
   9   3  -3   16.81    1.50
   9   3  -3   15.21    1.55
  -9  -3   3   16.79    1.31
   8   3  -3   47.19    2.26
   8   3  -3   45.12    2.10
  -8  -3   3   48.42    1.88
   7   3  -3    5.36    0.92
   7   3  -3    5.64    0.92
   7   3  -3    6.71    1.08
  -7  -3   3    7.31    0.91
   6   3  -3   11.39    1.08
   6   3  -3   10.98    1.08
   6   3  -3    8.32    1.10
   5   3  -3    4.18    0.74
   4   3  -3   27.44    1.49
   4   3  -3   28.07    1.35
   4   3  -3   23.62    1.33
   3   3  -3    2.75    0.58
   3   3  -3    3.71    0.70
   3   3  -3    4.10    0.68
   2   3  -3  248.62    5.79
   2   3  -3  263.41    5.21
   2   3  -3  265.85    5.61
   2   3  -3  254.95    5.59
   1   3  -3   36.73    1.43
   1   3  -3   37.60    1.49
   0   3  -3    2.39    0.46
   0   3  -3    3.14    0.58
   0   3  -3    2.34    0.58
   0  -3   3    1.71    0.40
  -1   3  -3   47.62    1.89
  -1   3  -3   44.84    1.52
  -1   3  -3   50.26    1.72
   1  -3   3   46.41    1.48
  -2   3  -3   10.94    0.96
  -2   3  -3   13.56    0.97
  -2   3  -3   14.60    0.98
  -2   3  -3   10.92    1.12
   2  -3   3   12.20    0.89
  -3   3  -3   81.65    2.38
  -3   3  -3   79.40    2.38
  -3   3  -3   80.77    2.79
   3  -3   3   78.53    2.33
  -4   3  -3   54.73    2.07
  -4   3  -3   58.81    2.10
  -4   3  -3   57.14    2.42
   4  -3   3   57.03    2.08
  -5   3  -3   95.83    2.97
  -5   3  -3   95.52    2.93
  -5   3  -3   96.20    3.40
   5  -3   3   96.25    2.94
  -6   3  -3   32.46    1.84
  -6   3  -3   30.77    1.78
  -6   3  -3   29.47    2.04
   6  -3   3   30.65    1.75
  -7   3  -3    2.36    0.87
  -7   3  -3    0.03    0.86
  -7   3  -3    3.66    1.05
   7  -3   3    1.15    0.87
  -8   3  -3    1.25    0.89
  -8   3  -3    1.15    1.04
  -8   3  -3    0.98    1.06
   8  -3   3    1.03    0.91
  10   2  -3   14.76    1.50
  10   2  -3   12.58    1.60
 -10  -2   3   15.05    1.37
   9   2  -3   57.39    2.64
   9   2  -3   54.96    2.40
  -9  -2   3   57.41    2.18
   8   2  -3   44.11    2.03
   8   2  -3   38.03    2.11
  -8  -2   3   45.45    1.83
   7   2  -3  163.99    4.26
   7   2  -3  166.31    4.60
  -7  -2   3  166.04    3.77
   6   2  -3   11.23    1.10
   6   2  -3   12.13    1.10
   6   2  -3   11.27    1.16
  -6  -2   3   13.13    0.92
   5   2  -3    1.75    0.63
   5   2  -3    1.62    0.52
   5   2  -3    1.24    0.57
  -5  -2   3    0.57    0.40
   4   2  -3    1.87    0.56
   4   2  -3    1.62    0.56
   3   2  -3  260.30    5.23
   3   2  -3  256.35    5.80
   3   2  -3  254.87    5.50
   2   2  -3  429.06    7.93
   2   2  -3  428.45    8.57
   2   2  -3  423.78    8.44
   2   2  -3  418.26    8.79
   1   2  -3  496.56    9.79
   1   2  -3  491.42   10.12
   1   2  -3  509.80    9.10
   1   2  -3  512.94   10.08
   0   2  -3  140.79    2.81
   0   2  -3  149.82    3.52
   0   2  -3  145.32    3.44
   0  -2   3  145.92    2.83
  -1   2  -3   14.28    0.82
  -1   2  -3   15.12    1.03
  -1   2  -3   16.19    0.87
   1  -2   3   14.99    0.80
  -2   2  -3   29.35    1.21
  -2   2  -3   29.28    1.16
  -2   2  -3   23.90    1.41
  -2   2  -3   25.01    1.23
   2  -2   3   24.22    1.16
  -3   2  -3   48.23    1.93
  -3   2  -3   45.86    1.33
  -3   2  -3   45.68    1.66
  -3   2  -3   47.94    1.67
   3  -2   3   46.78    1.65
  -4   2  -3  173.84    3.98
  -4   2  -3  169.00    4.04
  -4   2  -3  177.68    3.55
  -4   2  -3  175.40    4.62
   4  -2   3  176.33    4.01
  -5   2  -3  274.81    6.02
  -5   2  -3  285.03    5.93
  -5   2  -3  283.52    5.42
  -5   2  -3  279.63    6.82
   5  -2   3  284.36    5.95
  -6   2  -3   71.23    2.82
  -6   2  -3   71.82    2.55
  -6   2  -3   74.72    2.27
  -6   2  -3   72.82    2.57
   6  -2   3   72.67    2.55
  -7   2  -3   71.74    2.68
  -7   2  -3   66.82    2.88
  -7   2  -3   69.46    2.65
  -7   2  -3   64.06    2.29
   7  -2   3   64.11    2.57
  -8   2  -3    1.19    0.98
  -8   2  -3    1.72    0.89
  -8   2  -3    0.36    0.77
  -8   2  -3    1.52    0.82
   8  -2   3    0.02    0.73
  10   1  -3   14.17    1.65
  10   1  -3   11.78    1.09
  10   1  -3   12.94    1.68
 -10  -1   3   12.63    1.44
   9   1  -3   34.40    2.10
   9   1  -3   33.60    1.89
   9   1  -3   34.48    1.49
  -9  -1   3   35.02    1.76
   8   1  -3   45.53    2.01
   8   1  -3   46.34    1.60
   8   1  -3   41.50    2.14
  -8  -1   3   41.57    1.78
   7   1  -3  205.88    5.31
   7   1  -3  212.37    4.99
  -7  -1   3  195.73    4.35
   6   1  -3    7.92    0.97
   6   1  -3    7.51    1.09
  -6  -1   3    8.58    0.80
   5   1  -3   31.36    1.41
   5   1  -3   33.79    1.52
  -5  -1   3   32.85    1.21
   4   1  -3   63.15    1.99
   4   1  -3   65.10    1.94
   4   1  -3   61.26    2.11
  -4  -1   3   61.99    1.60
   3   1  -3   39.89    1.38
   3   1  -3   41.97    1.43
   3   1  -3   41.23    1.54
  -3  -1   3   41.39    1.11
   2   1  -3   29.00    1.06
   2   1  -3   29.04    1.21
   2   1  -3   28.62    1.07
   2   1  -3   30.47    1.13
  -2  -1   3   27.91    0.77
   1   1  -3  880.74   16.52
   1   1  -3  900.15   15.49
   1   1  -3  881.04   17.16
   1   1  -3  891.54   17.13
   0   1  -3  285.47    4.97
   0   1  -3  294.74    6.03
   0   1  -3  292.92    5.25
   0   1  -3  280.68    5.90
   0  -1   3  284.18    4.96
  -1   1  -3    2.67    0.47
  -1   1  -3    1.23    0.39
  -1   1  -3    2.05    0.37
   1  -1   3    1.20    0.39
  -2   1  -3    3.21    0.62
  -2   1  -3    5.49    0.50
  -2   1  -3    4.15    0.56
  -2   1  -3    4.71    0.39
  -2   1  -3    3.84    0.58
   2  -1   3    3.91    0.56
  -3   1  -3   27.51    0.93
  -3   1  -3   27.65    1.18
  -3   1  -3   27.79    1.36
  -3   1  -3   27.73    1.21
   3  -1   3   27.48    1.19
  -4   1  -3   81.94    2.32
  -4   1  -3   80.61    2.34
  -4   1  -3   86.21    2.63
  -4   1  -3   81.87    2.00
   4  -1   3   80.86    2.33
  -5   1  -3   28.03    1.49
  -5   1  -3   29.08    1.46
  -5   1  -3   29.60    1.58
  -5   1  -3   29.96    1.23
   5  -1   3   26.46    1.42
  -6   1  -3   59.70    2.36
  -6   1  -3   58.04    1.87
  -6   1  -3   56.38    2.15
  -6   1  -3   55.78    2.13
   6  -1   3   53.94    2.09
  -7   1  -3    2.15    0.80
  -7   1  -3    0.59    0.79
  -7   1  -3    1.32    0.72
  -7   1  -3    0.53    0.61
   7  -1   3    1.71    0.70
  -8   1  -3    1.20    0.82
  -8   1  -3    1.18    0.83
  -8   1  -3    0.79    0.69
  -8   1  -3    2.08    0.96
   8  -1   3    1.42    0.77
  -9   1  -3    4.40    1.01
  -9   1  -3    6.52    1.34
  -9   1  -3    6.98    1.30
   9  -1   3    6.30    1.23
  10   0  -3    5.40    1.24
  10   0  -3    4.18    0.88
  10   0  -3    5.86    1.15
 -10   0   3    5.95    1.03
   9   0  -3   46.89    1.85
   9   0  -3   44.01    2.40
   9   0  -3   46.81    2.21
  -9   0   3   43.70    1.98
   8   0  -3   81.79    2.34
   8   0  -3   80.02    3.02
   8   0  -3   78.71    2.74
  -8   0   3   77.02    2.48
   7   0  -3   83.61    2.23
   7   0  -3   81.77    2.69
   7   0  -3   81.00    2.92
  -7   0   3   83.16    2.44
   6   0  -3  125.49    2.80
   6   0  -3  127.20    3.37
   6   0  -3  129.47    3.65
  -6   0   3  128.43    3.04
  -6   0   3  128.79    2.93
   5   0  -3    6.85    0.83
   5   0  -3    7.15    0.88
   5   0  -3    6.51    0.55
  -5   0   3    6.01    0.49
  -5   0   3    6.65    0.64
   4   0  -3   69.43    2.02
   4   0  -3   69.38    2.14
  -4   0   3   68.75    1.53
  -4   0   3   68.14    1.73
   3   0  -3   69.40    1.89
   3   0  -3   71.06    1.99
   3   0  -3   67.23    2.05
  -3   0   3   69.13    1.59
   2   0  -3  288.66    5.72
   2   0  -3  281.42    6.00
   2   0  -3  277.71    5.37
  -2   0   3  282.60    4.71
   1   0  -3  268.51    5.43
   1   0  -3  260.80    5.17
   1   0  -3  259.86    4.86
   1   0  -3  254.27    5.43
   0   0  -3  451.12    8.72
   0   0  -3  420.03    8.56
   0   0  -3  435.01    7.25
   0   0  -3  423.05    7.65
   0   0  -3  453.33    8.29
   0   0   3  430.17    8.77
   0   0   3  441.36    7.24
  -1   0  -3  118.01    2.38
  -1   0  -3  123.34    2.87
   1   0   3  118.58    2.37
  -2   0  -3   14.44    0.75
  -2   0  -3   14.63    0.73
  -2   0  -3   14.91    0.83
   2   0   3   13.99    0.72
  -3   0  -3   83.83    2.34
  -3   0  -3   80.92    2.08
  -3   0  -3   83.35    2.10
  -3   0  -3   82.87    1.81
   3   0   3   80.49    2.07
  -4   0  -3    1.38    0.48
  -4   0  -3    1.43    0.42
  -4   0  -3    0.19    0.53
  -4   0  -3    0.96    0.45
   4   0   3    0.48    0.45
  -5   0  -3   67.73    1.93
  -5   0  -3   70.44    2.18
  -5   0  -3   69.57    2.16
  -5   0  -3   71.52    2.36
   5   0   3   70.70    2.16
  -6   0  -3  118.74    3.22
  -6   0  -3  121.69    3.21
  -6   0  -3  125.19    2.96
  -6   0  -3  119.99    3.48
   6   0   3  116.66    3.17
  -7   0  -3   20.93    1.44
  -7   0  -3   23.86    1.48
  -7   0  -3   22.54    1.54
  -7   0  -3   22.81    1.34
   7   0   3   23.33    1.48
  -8   0  -3   92.12    2.82
  -8   0  -3   94.59    3.10
  -8   0  -3   94.18    3.27
  -8   0  -3   90.57    3.05
   8   0   3   95.05    3.08
  -9   0  -3    1.25    0.80
  -9   0  -3    1.32    0.98
  -9   0  -3    1.20    0.81
   9   0   3    1.26    0.78
  10  -1  -3    1.42    0.75
  10  -1  -3    0.56    0.70
  10  -1  -3    1.14    0.92
 -10   1   3    0.94    0.73
   9  -1  -3   50.14    2.31
   9  -1  -3   49.27    2.03
   9  -1  -3   51.42    2.60
  -9   1   3   49.21    2.14
   8  -1  -3   16.48    1.48
   8  -1  -3   17.69    1.17
   8  -1  -3   16.70    1.34
  -8   1   3   14.89    1.17
  -8   1   3   16.98    1.23
   7  -1  -3   37.27    1.77
   7  -1  -3   41.38    1.55
   7  -1  -3   37.71    1.94
  -7   1   3   37.90    1.65
  -7   1   3   38.67    1.62
   6  -1  -3   32.85    1.27
   6  -1  -3   31.80    1.52
  -6   1   3   32.25    1.39
  -6   1   3   32.12    1.25
   5  -1  -3    0.76    0.34
   5  -1  -3    1.71    0.50
  -5   1   3    0.82    0.33
  -5   1   3    0.59    0.36
   4  -1  -3   27.32    1.21
   4  -1  -3   26.77    0.95
  -4   1   3   25.28    0.90
  -4   1   3   24.96    1.01
   3  -1  -3   79.99    1.73
   3  -1  -3   77.92    2.19
  -3   1   3   78.07    1.79
  -3   1   3   79.44    1.71
   2  -1  -3    3.51    0.52
   2  -1  -3    5.40    0.39
  -2   1   3    4.92    0.35
  -2   1   3    4.63    0.39
   1  -1  -3  165.02    2.96
   1  -1  -3  165.98    3.46
  -1   1   3  169.24    2.96
   0  -1  -3  103.57    2.45
   0  -1  -3  106.89    2.27
   0  -1  -3  107.85    2.08
   0  -1  -3  109.38    2.59
   0   1   3  110.29    2.08
   0   1   3  116.04    2.64
  -1  -1  -3   45.51    1.35
  -1  -1  -3   43.72    1.33
  -1  -1  -3   45.04    1.16
   1   1   3   44.42    1.13
  -2  -1  -3    2.87    0.46
  -2  -1  -3    3.27    0.44
  -2  -1  -3    2.88    0.43
   2   1   3    3.31    0.44
  -3  -1  -3    3.78    0.51
  -3  -1  -3    4.37    0.55
  -3  -1  -3    4.59    0.54
  -3  -1  -3    4.31    0.55
   3   1   3    4.32    0.54
  -4  -1  -3   46.38    1.48
  -4  -1  -3   46.60    1.52
  -4  -1  -3   46.05    1.58
  -4  -1  -3   44.90    1.52
   4   1   3   46.48    1.51
  -5  -1  -3   30.17    1.31
  -5  -1  -3   31.59    1.39
  -5  -1  -3   29.52    1.34
   5   1   3   30.57    1.31
  -6  -1  -3   18.18    1.23
  -6  -1  -3   15.19    1.18
  -6  -1  -3   18.43    1.17
  -6  -1  -3   16.83    1.17
   6   1   3   17.74    1.18
  -7  -1  -3   30.72    1.57
  -7  -1  -3   31.81    1.57
  -7  -1  -3   30.70    1.57
  -7  -1  -3   31.29    1.49
   7   1   3   33.05    1.59
  -8  -1  -3   24.41    1.57
  -8  -1  -3   25.51    1.53
  -8  -1  -3   24.97    1.49
   8   1   3   23.44    1.53
  -9  -1  -3   20.75    1.54
  -9  -1  -3   19.23    1.62
  -9  -1  -3   19.54    1.49
   9   1   3   17.07    1.46
 -10  -1  -3    5.24    1.06
 -10  -1  -3    3.92    1.06
  10   1   3    3.72    1.07
  10  -2  -3    7.68    1.25
   9  -2  -3   10.47    1.39
   9  -2  -3   13.05    1.27
  -9   2   3   14.30    1.55
   8  -2  -3   21.14    1.35
   8  -2  -3   23.40    1.56
  -8   2   3   21.10    1.50
  -8   2   3   23.36    1.49
   7  -2  -3   51.61    1.86
   7  -2  -3   50.28    2.08
  -7   2   3   51.03    2.08
  -7   2   3   53.39    2.00
   6  -2  -3   16.59    1.02
   6  -2  -3   14.30    1.21
  -6   2   3   16.96    1.11
  -6   2   3   18.08    1.03
  -6   2   3   16.65    1.16
   5  -2  -3  134.67    3.07
  -5   2   3  136.47    3.07
  -5   2   3  138.44    3.16
   4  -2  -3   85.21    2.08
  -4   2   3   83.22    2.05
  -4   2   3   86.53    2.16
   2  -2  -3   40.80    1.13
  -2   2   3   41.20    1.11
   1  -2  -3   45.98    1.13
  -1   2   3   45.17    1.12
  -1   2   3   47.09    1.54
   0  -2  -3   80.78    1.70
   0   2   3   77.10    1.69
   0   2   3   93.13    2.25
  -1  -2  -3   91.64    1.91
  -1  -2  -3   92.97    2.25
   1   2   3   94.08    1.92
  -2  -2  -3  896.16   17.02
  -2  -2  -3  910.53   14.86
  -2  -2  -3  953.59   17.38
   2   2   3  860.96   14.82
  -3  -2  -3  315.45    5.69
  -3  -2  -3  312.29    5.59
  -3  -2  -3  317.81    6.35
  -3  -2  -3  303.98    6.31
   3   2   3  302.60    5.57
  -4  -2  -3    1.92    0.47
  -4  -2  -3    1.27    0.39
  -4  -2  -3    2.51    0.52
   4   2   3    2.24    0.46
  -5  -2  -3   34.71    1.39
  -5  -2  -3   36.90    1.34
  -5  -2  -3   35.70    1.38
   5   2   3   36.45    1.37
  -6  -2  -3   49.69    1.76
  -6  -2  -3   50.92    1.78
   6   2   3   51.65    1.80
  -7  -2  -3   69.55    2.27
  -7  -2  -3   70.96    2.28
  -7  -2  -3   71.87    2.24
   7   2   3   65.74    2.23
  -8  -2  -3   74.70    2.52
  -8  -2  -3   75.83    2.50
  -8  -2  -3   76.41    2.55
   8   2   3   77.67    2.57
  -9  -2  -3  119.28    3.40
  -9  -2  -3  113.08    3.42
   9   2   3  109.58    3.38
 -10  -2  -3   18.29    1.51
 -10  -2  -3   15.08    1.54
  10   2   3   16.88    1.72
   9  -3  -3    1.34    0.73
   9  -3  -3    1.20    0.75
  -9   3   3    2.74    0.96
   8  -3  -3    8.72    1.17
   8  -3  -3    7.73    1.19
  -8   3   3    8.01    1.19
  -8   3   3    9.22    1.21
   7  -3  -3    4.42    0.80
   7  -3  -3    3.95    0.85
  -7   3   3    4.65    0.84
  -7   3   3    4.76    0.86
  -7   3   3    5.11    0.93
   6  -3  -3    6.87    0.89
  -6   3   3    7.76    1.03
  -6   3   3    8.21    0.96
  -6   3   3    9.06    1.02
   5  -3  -3   25.12    1.22
  -5   3   3   27.60    1.32
  -5   3   3   27.46    1.23
   4  -3  -3   27.51    1.17
  -4   3   3   27.07    1.13
   3  -3  -3  120.04    2.68
  -3   3   3  121.38    2.66
   2  -3  -3   41.13    1.24
  -2   3   3   41.56    1.22
   1  -3  -3   87.43    1.95
  -1   3   3   93.57    2.54
  -1   3   3   87.69    1.95
   0  -3  -3    9.82    0.55
   0  -3  -3    9.55    0.68
   0   3   3   10.36    0.53
   0   3   3   11.28    0.76
  -1  -3  -3  276.76    4.92
  -1  -3  -3  287.83    5.73
  -1  -3  -3  272.96    5.75
   1   3   3  282.00    4.94
  -2  -3  -3  411.86    7.13
  -2  -3  -3  425.06    8.26
   2   3   3  411.26    7.14
  -3  -3  -3  185.63    3.55
  -3  -3  -3  183.31    4.08
   3   3   3  180.72    3.54
  -4  -3  -3   34.96    1.19
  -4  -3  -3   33.47    1.08
  -4  -3  -3   33.78    1.32
   4   3   3   33.83    1.17
  -5  -3  -3   26.98    1.09
  -5  -3  -3   28.23    1.26
  -5  -3  -3   26.35    1.13
   5   3   3   27.57    1.14
  -6  -3  -3   75.23    2.07
  -6  -3  -3   71.83    2.07
   6   3   3   68.31    2.06
  -7  -3  -3   42.98    1.73
  -7  -3  -3   44.44    1.69
   7   3   3   41.78    1.67
  -8  -3  -3  133.86    3.48
  -8  -3  -3  127.23    3.41
   8   3   3  135.31    3.49
   8   3   3  130.75    3.62
  -9  -3  -3   63.75    2.38
  -9  -3  -3   63.91    2.47
   9   3   3   62.28    2.46
   9   3   3   60.25    2.35
 -10  -3  -3   20.14    1.53
 -10  -3  -3   20.22    1.67
  10   3   3   19.69    1.56
   9  -4  -3    3.07    1.00
   9  -4  -3    3.86    1.02
  -9   4   3    2.28    1.00
   8  -4  -3    2.24    0.88
   8  -4  -3    1.88    0.81
  -8   4   3    1.39    0.79
   7  -4  -3   12.94    1.18
  -7   4   3   13.80    1.20
  -7   4   3   13.08    1.41
   6  -4  -3   77.95    2.45
  -6   4   3   75.26    2.43
  -6   4   3   81.86    2.90
   5  -4  -3   84.99    2.50
  -5   4   3   88.49    2.51
  -5   4   3   91.72    3.00
   4  -4  -3  262.17    5.28
  -4   4   3  262.16    5.23
   3  -4  -3  276.39    5.38
  -3   4   3  278.52    5.34
   2  -4  -3   29.31    1.12
  -2   4   3   27.95    1.09
  -2   4   3   28.57    1.40
   1  -4  -3    8.39    0.63
  -1   4   3    9.80    0.87
  -1   4   3    9.02    0.60
   0  -4  -3  264.67    5.35
   0  -4  -3  254.79    4.70
   0   4   3  250.38    5.74
   0   4   3  254.48    4.69
  -1  -4  -3   75.32    2.09
  -1  -4  -3   75.23    2.09
  -1  -4  -3   77.00    1.78
   1   4   3   76.18    1.77
  -2  -4  -3  142.01    3.40
  -2  -4  -3  143.53    3.37
  -2  -4  -3  140.77    2.83
   2   4   3  143.17    2.86
  -3  -4  -3  561.07   11.31
  -3  -4  -3  556.24    9.52
  -3  -4  -3  570.66   11.05
   3   4   3  552.52    9.53
  -4  -4  -3  140.07    3.41
  -4  -4  -3  133.95    2.75
  -4  -4  -3  140.71    2.93
   4   4   3  138.60    2.92
  -5  -4  -3    2.14    0.50
  -5  -4  -3    2.17    0.56
  -5  -4  -3    1.58    0.35
   5   4   3    2.28    0.48
  -6  -4  -3    3.17    0.65
  -6  -4  -3    3.01    0.50
  -6  -4  -3    3.09    0.59
   6   4   3    3.14    0.54
   6   4   3    2.51    0.43
   6   4   3    1.28    0.41
  -7  -4  -3   64.84    1.99
  -7  -4  -3   65.17    2.08
   7   4   3   63.30    1.89
   7   4   3   65.69    2.09
   7   4   3   67.44    2.14
  -8  -4  -3  119.76    3.39
  -8  -4  -3  122.62    3.21
   8   4   3  124.28    3.43
   8   4   3  123.03    3.25
  -9  -4  -3   55.23    2.13
   9   4   3   55.53    2.19
 -10  -4  -3   45.57    2.04
 -10  -4  -3   42.73    2.20
  10   4   3   41.53    2.01
   8  -5  -3    0.24    0.73
  -8   5   3   -0.03    0.78
   7  -5  -3   15.32    1.39
  -7   5   3   18.61    1.68
  -7   5   3   17.70    1.46
   6  -5  -3   36.59    1.74
  -6   5   3   34.88    2.12
  -6   5   3   35.22    1.74
   5  -5  -3   66.54    2.26
  -5   5   3   65.36    2.64
  -5   5   3   67.70    2.25
   4  -5  -3   83.38    2.46
  -4   5   3   84.43    2.43
  -4   5   3   86.76    2.95
  -4   5   3   81.79    2.90
   3  -5  -3   31.51    1.36
  -3   5   3   31.46    1.33
  -3   5   3   31.19    1.68
   2  -5  -3   66.14    1.93
  -2   5   3   65.36    2.32
  -2   5   3   63.42    1.88
   0  -5  -3  169.47    3.95
   0  -5  -3  168.18    3.46
   0   5   3  170.76    4.19
   0   5   3  170.62    3.46
  -1  -5  -3   59.17    1.57
  -1  -5  -3   56.44    1.89
   1   5   3   56.99    1.54
  -2  -5  -3  211.50    4.86
  -2  -5  -3  213.05    4.81
   2   5   3  213.04    4.05
  -3  -5  -3   48.18    1.38
  -3  -5  -3   49.21    1.76
  -3  -5  -3   49.40    1.75
   3   5   3   46.48    1.38
   3   5   3   47.04    1.49
  -4  -5  -3    6.63    0.85
  -4  -5  -3    6.73    0.61
  -4  -5  -3    5.91    0.79
   4   5   3    6.62    0.62
  -5  -5  -3   11.81    0.60
  -5  -5  -3   12.78    0.83
  -5  -5  -3   14.19    1.06
   5   5   3   12.35    0.80
  -6  -5  -3   23.58    1.15
  -6  -5  -3   22.51    1.43
  -6  -5  -3   21.77    0.94
   6   5   3   23.51    1.12
   6   5   3   18.75    0.98
  -7  -5  -3   45.86    1.64
  -7  -5  -3   43.05    1.49
  -7  -5  -3   43.54    1.92
   7   5   3   46.09    1.66
   7   5   3   36.53    1.58
  -8  -5  -3   31.21    1.42
   8   5   3   32.54    1.45
   8   5   3   35.52    1.58
  -9  -5  -3   64.91    2.26
   9   5   3   67.40    2.32
  10   5   3   21.15    1.48
 -11  -5  -3    3.06    0.99
  11   5   3    4.17    1.05
   7  -6  -3    1.59    0.83
  -7   6   3    0.76    0.80
  -7   6   3    1.56    0.86
   6  -6  -3    9.54    1.27
  -6   6   3    8.16    1.34
  -6   6   3    8.49    1.42
  -6   6   3    9.42    1.28
   5  -6  -3   87.79    2.83
  -5   6   3   83.28    2.74
  -5   6   3   86.05    3.24
  -5   6   3   91.07    3.41
   4  -6  -3   42.06    1.77
  -4   6   3   37.21    2.04
  -4   6   3   38.51    2.00
  -4   6   3   36.22    1.68
   3  -6  -3   97.25    2.74
  -3   6   3   99.01    2.72
  -3   6   3  100.63    3.27
  -3   6   3  100.69    3.28
   2  -6  -3   15.57    1.04
  -2   6   3   13.36    1.18
  -2   6   3   12.78    1.22
  -2   6   3   14.15    0.99
   1  -6  -3   42.41    1.54
   1  -6  -3   37.34    1.72
  -1   6   3   44.66    1.81
  -1   6   3   42.00    1.51
   0  -6  -3   45.08    1.51
   0  -6  -3   40.09    1.74
   0   6   3   43.31    1.45
  -1  -6  -3   73.83    2.38
  -1  -6  -3   79.34    2.03
   1   6   3   78.64    2.02
  -2  -6  -3   30.69    1.42
  -2  -6  -3   29.69    1.14
   2   6   3   29.57    1.13
  -3  -6  -3   24.52    1.37
  -3  -6  -3   24.43    1.31
   3   6   3   25.26    1.03
   3   6   3   26.90    1.19
  -4  -6  -3   53.72    2.02
  -4  -6  -3   54.02    2.04
  -4  -6  -3   55.70    1.59
   4   6   3   55.22    1.60
   4   6   3   55.16    1.81
  -5  -6  -3   89.07    2.83
  -5  -6  -3   86.99    2.19
  -5  -6  -3   90.33    2.77
   5   6   3   87.10    2.20
  -6  -6  -3   47.47    2.09
  -6  -6  -3   48.67    1.65
  -6  -6  -3   47.93    2.06
   6   6   3   50.52    1.65
  -7  -6  -3   55.72    2.30
   7   6   3   54.28    1.82
  -8  -6  -3    1.75    0.84
   9   6   3   20.49    1.29
  10   6   3    6.13    1.04
  11   6   3   16.57    1.62
   6  -7  -3    7.06    1.25
  -6   7   3    7.49    1.37
  -6   7   3    6.26    1.17
   5  -7  -3   11.02    1.39
  -5   7   3   13.88    1.59
  -5   7   3   10.85    1.65
  -5   7   3   12.51    1.46
   4  -7  -3   15.36    1.31
  -4   7   3   14.77    1.48
  -4   7   3   14.78    1.29
  -4   7   3   15.17    1.57
   3  -7  -3   35.71    1.68
  -3   7   3   34.13    1.85
  -3   7   3   36.84    2.04
  -3   7   3   37.43    1.68
   2  -7  -3   16.36    1.21
  -2   7   3   16.59    1.17
  -2   7   3   17.72    1.40
  -2   7   3   19.29    1.41
   1  -7  -3   26.73    1.37
   1  -7  -3   27.84    1.48
  -1   7   3   28.10    1.55
  -1   7   3   25.06    1.58
  -1   7   3   28.85    1.36
   0  -7  -3    4.97    0.78
   0  -7  -3    3.08    0.77
   0   7   3    2.26    0.76
   0   7   3    4.57    0.75
  -1  -7  -3    2.08    0.70
  -1  -7  -3    3.81    0.66
   1   7   3    3.44    0.63
  -2  -7  -3   25.05    1.12
  -2  -7  -3   24.09    1.42
   2   7   3   22.86    1.09
  -3  -7  -3  108.19    3.29
  -3  -7  -3  114.50    3.30
  -3  -7  -3  114.68    2.68
   3   7   3  113.05    2.66
   3   7   3  116.18    3.19
  -4  -7  -3   16.93    1.27
  -4  -7  -3   15.42    0.98
  -4  -7  -3   16.89    1.30
   4   7   3   16.54    0.94
   4   7   3   17.32    1.12
  -5  -7  -3   15.78    1.01
  -5  -7  -3   15.18    1.39
  -5  -7  -3   20.25    1.38
   5   7   3   18.48    0.99
   5   7   3   16.32    1.14
  -6  -7  -3   87.58    2.94
  -6  -7  -3   85.71    2.98
   6   7   3   87.26    2.31
  -7  -7  -3   19.89    1.54
  -7  -7  -3   21.24    1.55
   7   7   3   18.18    1.08
  -8  -7  -3    0.15    0.70
  -8  -7  -3   -0.21    0.77
   8   7   3    0.18    0.49
  -9  -7  -3    1.23    0.84
   9   7   3    3.00    0.70
  10   7   3   59.21    2.20
   6  -8  -3   17.07    1.66
  -6   8   3   20.08    1.81
  -6   8   3   19.31    1.72
  -6   8   3   18.68    2.20
   5  -8  -3    2.96    0.94
  -5   8   3    0.92    0.84
  -5   8   3    1.76    0.92
  -5   8   3    0.49    0.81
   4  -8  -3   15.41    1.41
  -4   8   3   17.89    1.48
  -4   8   3   16.65    1.77
   3  -8  -3   30.20    1.71
  -3   8   3   30.55    1.67
  -3   8   3   28.80    1.76
  -3   8   3   29.26    2.04
   2  -8  -3   50.70    2.04
   2  -8  -3   49.58    2.03
  -2   8   3   49.70    2.17
  -2   8   3   48.56    1.98
  -2   8   3   50.31    2.44
   1  -8  -3   15.94    1.27
   1  -8  -3   14.48    1.18
  -1   8   3   14.53    1.13
  -1   8   3   15.89    1.36
   0  -8  -3   87.26    2.84
   0  -8  -3   88.10    2.55
   0   8   3   88.32    3.01
   0   8   3   85.47    2.52
  -1  -8  -3  140.47    3.89
  -1  -8  -3  134.53    3.30
   1   8   3  133.12    3.28
   1   8   3  139.69    3.89
  -2  -8  -3    0.37    0.50
  -2  -8  -3    0.66    0.70
   2   8   3    0.73    0.50
   2   8   3   -1.12    0.56
  -3  -8  -3    4.12    0.95
  -3  -8  -3    6.16    0.81
   3   8   3    5.98    0.98
   3   8   3    7.47    0.86
  -4  -8  -3   26.90    1.67
  -4  -8  -3   25.48    1.63
  -4  -8  -3   26.69    1.24
   4   8   3   25.68    1.20
   4   8   3   25.19    1.48
  -5  -8  -3   29.34    1.73
  -5  -8  -3   27.09    1.72
   5   8   3   30.32    1.30
   5   8   3   28.35    1.60
  -6  -8  -3  100.21    3.39
  -6  -8  -3  103.32    3.36
   6   8   3  101.91    3.14
   6   8   3   98.32    2.56
  -7  -8  -3   25.82    1.77
  -7  -8  -3   27.46    1.77
   7   8   3   28.19    1.29
  -8  -8  -3   19.84    1.64
  -8  -8  -3   20.02    1.65
   8   8   3   17.87    1.16
  -9  -8  -3    5.40    1.17
  -9  -8  -3    4.77    1.17
   9   8   3    5.89    0.88
 -10  -8  -3   32.54    2.25
  10   8   3   36.62    1.72
   4  -9  -3    1.51    0.96
  -4   9   3    1.11    0.96
  -4   9   3    3.21    1.09
   3  -9  -3   58.03    2.48
  -3   9   3   63.93    2.55
  -3   9   3   61.11    2.98
   2  -9  -3   88.70    3.03
   2  -9  -3   86.48    2.90
  -2   9   3   88.83    3.49
  -2   9   3   90.30    2.91
   1  -9  -3   24.50    1.65
   1  -9  -3   24.06    1.55
  -1   9   3   26.20    1.53
  -1   9   3   25.09    1.84
   0  -9  -3   69.99    2.40
   0  -9  -3   71.16    2.70
   0   9   3   73.65    2.41
   0   9   3   71.35    2.90
  -1  -9  -3   14.40    1.15
  -1  -9  -3   14.27    1.46
   1   9   3   14.58    1.15
   1   9   3   12.04    1.37
  -2  -9  -3    0.45    0.54
  -2  -9  -3    0.40    0.72
   2   9   3    0.81    0.65
   2   9   3    2.81    0.73
  -3  -9  -3   43.89    2.17
  -3  -9  -3   41.73    1.65
   3   9   3   40.22    1.99
   3   9   3   39.14    1.85
   3   9   3   43.94    1.67
  -4  -9  -3  174.04    4.84
   4   9   3  176.35    3.93
   4   9   3  179.25    4.87
  -5  -9  -3   65.83    2.70
  -5  -9  -3   63.58    2.70
   5   9   3   65.21    2.59
   5   9   3   64.81    2.01
  -6  -9  -3   47.75    2.30
  -6  -9  -3   46.19    2.29
   6   9   3   44.30    2.17
   6   9   3   49.44    1.72
  -7  -9  -3   64.99    2.74
  -7  -9  -3   67.39    2.85
   7   9   3   69.04    2.12
  -8  -9  -3    3.08    1.04
  -8  -9  -3    4.07    1.05
   8   9   3    3.72    0.77
  -9  -9  -3    4.00    1.22
  -9  -9  -3    6.14    1.34
   9   9   3    5.96    0.90
 -10  -9  -3   14.30    1.94
  10   9   3   12.87    1.24
   3 -10  -3   19.73    1.68
  -3  10   3   19.57    1.70
  -3  10   3   20.37    2.01
   2 -10  -3   26.14    1.77
  -2  10   3   28.89    2.17
  -2  10   3   25.68    1.82
   1 -10  -3   77.74    3.05
   1 -10  -3   80.23    2.83
  -1  10   3   83.22    3.39
  -1  10   3   75.36    2.74
   0 -10  -3   17.21    1.44
   0 -10  -3   18.62    1.68
   0  10   3   14.63    1.35
   0  10   3   18.32    1.67
  -1 -10  -3   25.85    1.57
  -1 -10  -3   24.81    1.88
   1  10   3   26.58    1.79
   1  10   3   26.93    1.55
  -2 -10  -3    4.59    1.13
   2  10   3    3.12    1.03
   2  10   3    5.62    0.89
   2  10   3    3.36    0.88
  -3 -10  -3    4.49    1.02
   3  10   3    4.30    0.81
   3  10   3    2.49    0.79
   3  10   3    3.50    0.89
  -4 -10  -3   39.25    2.23
   4  10   3   39.36    2.10
   4  10   3   38.55    1.67
  -5 -10  -3   23.86    1.83
   5  10   3   25.35    1.74
   5  10   3   22.29    1.32
  -6 -10  -3   42.64    2.31
  -6 -10  -3   42.81    2.37
   6  10   3   41.93    2.25
   6  10   3   46.34    1.75
  -7 -10  -3   40.76    2.34
  -7 -10  -3   37.83    2.24
   7  10   3   38.95    1.64
  -8 -10  -3    1.63    0.97
  -8 -10  -3    0.00    0.94
   8  10   3    1.64    0.68
  -9 -10  -3    3.51    1.33
  -9 -10  -3    6.32    1.45
   9  10   3    4.29    0.93
   2 -11  -3   28.62    2.01
  -2  11   3   30.99    2.45
  -2  11   3   32.37    2.21
   1 -11  -3   61.32    2.92
  -1  11   3   64.34    2.65
  -1  11   3   61.52    3.15
   0 -11  -3   44.57    2.52
   0  11   3   42.26    2.14
   0  11   3   45.39    2.58
  -1 -11  -3   39.35    2.37
   1  11   3   32.93    2.31
   1  11   3   35.11    2.20
   1  11   3   35.04    1.84
  -2 -11  -3    1.01    0.98
   2  11   3    0.93    0.74
   2  11   3   -0.17    0.77
   2  11   3    0.48    0.77
  -3 -11  -3    0.61    0.97
   3  11   3    1.24    0.75
   3  11   3    1.18    0.89
  -4 -11  -3    7.82    1.49
   4  11   3    7.78    1.38
   4  11   3   10.49    1.21
  -5 -11  -3   25.33    2.02
   5  11   3   23.69    1.91
   5  11   3   23.67    1.42
  -6 -11  -3   24.25    1.99
   6  11   3   24.08    1.46
   6  11   3   23.15    1.91
  -7 -11  -3   13.01    1.86
  -7 -11  -3   12.10    1.66
   7  11   3   14.06    1.20
  -8 -11  -3   23.00    2.09
  -8 -11  -3   23.02    2.13
   8  11   3   24.40    1.47
  -1 -12  -3   19.65    2.07
   1  12   3   16.04    1.92
   1  12   3   18.82    2.01
   1  12   3   17.76    1.63
  -2 -12  -3    4.32    1.35
   2  12   3    4.21    1.05
   2  12   3    3.63    1.14
   2  12   3    4.11    1.30
  -3 -12  -3   12.66    1.84
   3  12   3   11.60    1.42
   3  12   3    7.05    1.59
  -4 -12  -3    6.95    1.47
   4  12   3    6.68    1.56
   4  12   3    5.27    1.10
  -5 -12  -3    4.29    1.28
   5  12   3    4.44    1.29
   5  12   3    3.98    0.97
  -6 -12  -3    1.94    1.07
   6  12   3    0.87    0.94
   6  12   3    1.93    0.79
  -7 -12  -3   18.77    2.16
   7  12   3   21.69    1.52
   7   9  -4    3.62    1.38
   6   9  -4    1.04    1.16
   5   9  -4   19.13    2.36
   4   9  -4   51.07    3.03
   3   9  -4   13.34    1.95
   2   9  -4   34.56    2.31
   2   9  -4   39.03    2.69
   1   9  -4   18.12    2.29
   1   9  -4   14.65    1.45
   1   9  -4   11.53    1.68
   0   9  -4    4.00    1.08
   0   9  -4    2.29    1.19
   0   9  -4    2.69    1.42
   8   8  -4    2.90    1.10
   8   8  -4    3.28    1.16
   8   8  -4    2.11    1.22
  -8  -8   4    2.75    0.96
   7   8  -4   12.50    1.91
   7   8  -4   11.49    1.60
   6   8  -4    0.08    1.01
   5   8  -4    3.92    1.25
   4   8  -4   20.90    1.99
   3   8  -4   20.42    1.74
   3   8  -4   21.13    1.98
   2   8  -4   38.30    2.47
   2   8  -4   37.51    2.24
   1   8  -4   15.14    1.95
   1   8  -4   15.29    1.64
   1   8  -4   13.51    1.24
   0   8  -4   16.85    1.92
   0   8  -4   18.09    2.13
   0   8  -4   17.25    1.43
  -1   8  -4    4.22    1.33
  -1   8  -4    5.91    1.20
  -1   8  -4    5.27    1.47
  -2   8  -4    0.37    1.13
  -2   8  -4    3.36    1.38
  -2   8  -4    3.01    1.01
   9   7  -4    7.40    1.41
   9   7  -4    6.65    1.47
   9   7  -4    6.78    1.32
   8   7  -4   13.89    1.69
   8   7  -4   10.17    1.44
   8   7  -4   13.36    1.79
   7   7  -4   29.26    2.04
   7   7  -4   24.52    1.85
   7   7  -4   26.67    2.11
   6   7  -4   18.82    1.86
   6   7  -4   21.83    1.75
   6   7  -4   20.58    1.65
   5   7  -4   25.02    1.96
   4   7  -4    2.30    1.00
   4   7  -4    1.14    0.73
   3   7  -4    2.98    1.04
   3   7  -4    1.20    0.74
   2   7  -4    2.99    0.99
   2   7  -4    2.11    0.88
   1   7  -4   57.30    2.74
   1   7  -4   58.42    1.94
   1   7  -4   58.36    2.58
   0   7  -4   72.74    3.06
   0   7  -4   69.81    3.05
   0   7  -4   72.24    2.34
  -1   7  -4   14.00    1.78
  -1   7  -4   14.75    1.38
  -1   7  -4   16.26    1.88
  -2   7  -4   31.68    2.32
  -2   7  -4   31.94    1.85
  -2   7  -4   29.78    2.32
  -3   7  -4    0.47    1.06
  -3   7  -4    1.12    0.94
  -3   7  -4    0.08    1.05
  10   6  -4   -0.04    0.88
  10   6  -4    0.98    0.95
  10   6  -4    0.44    1.00
 -10  -6   4    0.19    0.76
   9   6  -4    4.36    1.28
   9   6  -4    4.57    1.24
   9   6  -4    4.69    1.20
  -9  -6   4    4.40    0.94
   8   6  -4   31.40    2.07
   8   6  -4   31.04    2.03
   8   6  -4   31.44    2.21
   7   6  -4   36.77    2.10
   7   6  -4   33.36    2.18
   7   6  -4   36.51    2.04
   6   6  -4   71.45    3.06
   6   6  -4   66.05    2.59
   6   6  -4   65.68    2.74
   5   6  -4   41.64    2.16
   5   6  -4   45.23    2.05
   5   6  -4   45.90    2.42
   4   6  -4    3.90    1.04
   3   6  -4    0.78    0.75
   3   6  -4    0.97    0.68
   2   6  -4   34.57    1.82
   2   6  -4   31.47    1.93
   1   6  -4  120.02    2.86
   1   6  -4  118.82    3.86
   1   6  -4  122.79    3.75
   0   6  -4   84.96    3.18
   0   6  -4   87.22    3.21
   0   6  -4   90.50    2.50
  -1   6  -4   84.82    3.13
  -1   6  -4   78.94    3.18
  -1   6  -4   75.36    2.46
  -2   6  -4   13.29    1.72
  -2   6  -4   17.96    1.72
  -2   6  -4   15.95    1.40
  -3   6  -4    2.33    0.90
  -3   6  -4    1.85    1.06
  -3   6  -4    0.65    0.95
  -4   6  -4   -1.21    0.98
  -4   6  -4   -0.67    0.94
  -4   6  -4    0.25    0.92
  -5   6  -4   66.35    3.50
  -5   6  -4   67.65    2.90
  10   5  -4    5.81    1.34
  10   5  -4    6.10    1.35
 -10  -5   4    7.29    1.21
   9   5  -4    5.64    1.19
   9   5  -4    5.42    1.29
   9   5  -4    3.12    1.04
  -9  -5   4    3.96    0.90
   8   5  -4   22.10    1.67
   8   5  -4   22.85    1.88
   8   5  -4   20.92    1.74
  -8  -5   4   16.56    1.29
   7   5  -4   82.25    2.99
   7   5  -4   82.83    3.29
   7   5  -4   82.76    3.06
   6   5  -4   56.87    2.42
   6   5  -4   53.88    2.53
   6   5  -4   59.45    2.36
   5   5  -4   40.68    1.88
   5   5  -4   41.07    2.15
   5   5  -4   42.73    2.02
   4   5  -4    6.75    0.94
   4   5  -4    8.16    1.16
   4   5  -4    8.76    1.18
   3   5  -4    4.63    0.94
   3   5  -4    3.59    0.78
   3   5  -4    4.40    0.80
   2   5  -4   31.32    1.65
   2   5  -4   28.72    1.68
   1   5  -4   35.20    1.85
   1   5  -4   35.23    1.76
   1   5  -4   32.42    1.29
   0   5  -4  159.97    4.46
   0   5  -4  161.15    4.43
   0   5  -4  157.82    3.52
  -1   5  -4   95.82    3.32
  -1   5  -4   93.03    2.61
  -1   5  -4   98.72    3.21
  -2   5  -4    0.65    0.73
  -2   5  -4    1.22    0.66
  -2   5  -4    0.34    0.76
   2  -5   4    0.74    0.54
  -3   5  -4   12.95    1.50
  -3   5  -4   12.42    1.58
  -3   5  -4   13.42    1.40
   3  -5   4   12.64    1.20
  -4   5  -4    0.24    0.80
  -4   5  -4    0.43    0.85
  -4   5  -4    1.00    0.88
   4  -5   4   -0.12    0.64
  -5   5  -4   16.56    1.74
  -5   5  -4   12.71    1.74
   5  -5   4   12.83    1.59
  -6   5  -4   13.54    1.95
  -6   5  -4   16.16    1.82
   6  -5   4   14.07    1.83
  10   4  -4    6.77    1.31
  10   4  -4    8.65    1.49
 -10  -4   4    8.45    1.26
   9   4  -4    0.70    0.75
   9   4  -4    1.99    0.82
  -9  -4   4    0.85    0.64
   8   4  -4   27.36    1.83
   8   4  -4   29.82    1.86
   8   4  -4   30.12    1.99
  -8  -4   4   29.40    1.53
   7   4  -4  135.58    3.96
   7   4  -4  136.56    4.31
   7   4  -4  135.13    4.04
  -7  -4   4  136.59    3.32
   6   4  -4   78.39    2.69
   6   4  -4   74.21    2.70
   6   4  -4   76.79    2.93
   5   4  -4   66.32    2.60
   5   4  -4   66.00    2.44
   5   4  -4   63.20    2.33
   4   4  -4    2.80    0.71
   4   4  -4    3.89    0.79
   4   4  -4    3.57    0.83
   3   4  -4   10.65    1.10
   3   4  -4    9.69    0.95
   3   4  -4    8.94    0.93
   3   4  -4    9.65    1.08
   2   4  -4   18.12    1.27
   2   4  -4   21.18    1.26
   2   4  -4   20.94    1.20
   1   4  -4   85.23    2.78
   1   4  -4   89.31    2.76
   1   4  -4   85.78    2.05
  -1  -4   4   84.56    2.03
   0   4  -4  162.96    3.47
   0   4  -4  162.11    4.29
   0   4  -4  167.81    4.39
   0  -4   4  167.83    3.49
  -1   4  -4   34.52    1.82
  -1   4  -4   36.05    1.71
  -1   4  -4   36.75    1.47
   1  -4   4   36.28    1.42
  -2   4  -4   80.76    2.40
  -2   4  -4   78.52    2.93
  -2   4  -4   81.57    2.69
   2  -4   4   79.20    2.37
  -3   4  -4    1.29    0.69
  -3   4  -4    1.08    0.80
  -3   4  -4    0.61    0.67
   3  -4   4    1.24    0.61
  -4   4  -4    0.51    0.75
  -4   4  -4    1.02    0.75
  -4   4  -4   -0.11    0.70
   4  -4   4    0.99    0.70
  -5   4  -4    1.50    0.88
  -5   4  -4    0.38    0.86
  -5   4  -4    1.88    0.81
   5  -4   4   -0.34    0.62
  -6   4  -4   31.07    2.31
  -6   4  -4   34.54    2.12
  -6   4  -4   30.93    1.98
   6  -4   4   32.53    2.04
  -7   4  -4   44.55    2.50
  -7   4  -4   48.55    2.55
  -7   4  -4   50.33    2.96
   7  -4   4   45.50    2.49
  10   3  -4    0.52    0.76
  10   3  -4    0.05    0.74
 -10  -3   4    1.23    0.69
   9   3  -4    1.14    0.82
   9   3  -4    3.11    0.92
  -9  -3   4    2.10    0.69
   8   3  -4   14.11    1.41
   8   3  -4   13.33    1.36
  -8  -3   4   13.91    1.10
   7   3  -4   61.22    2.61
   7   3  -4   60.47    2.44
   7   3  -4   58.89    2.41
  -7  -3   4   60.05    2.00
   6   3  -4   78.29    2.87
   6   3  -4   71.09    2.59
   6   3  -4   73.80    2.58
  -6  -3   4   75.12    2.12
   5   3  -4   43.03    2.01
   5   3  -4   45.15    1.90
   5   3  -4   43.23    1.85
   4   3  -4    7.10    0.93
   4   3  -4    7.18    0.99
   3   3  -4    5.01    0.76
   3   3  -4    5.27    0.82
   3   3  -4    4.78    0.74
   3   3  -4    4.55    0.69
   2   3  -4   30.49    1.45
   2   3  -4   31.18    1.39
   2   3  -4   32.32    1.32
   2   3  -4   30.92    1.45
   1   3  -4   11.39    0.98
   1   3  -4   12.57    0.85
   1   3  -4   12.55    0.97
   0   3  -4    5.01    0.66
   0   3  -4    5.74    0.84
   0   3  -4    8.70    0.91
   0  -3   4    5.43    0.61
  -1   3  -4   26.95    1.52
  -1   3  -4   24.17    1.18
  -1   3  -4   28.63    1.37
   1  -3   4   26.99    1.15
  -2   3  -4   40.46    1.94
  -2   3  -4   40.38    1.56
  -2   3  -4   41.14    1.67
   2  -3   4   38.22    1.51
  -3   3  -4    4.33    0.82
  -3   3  -4    5.13    0.80
  -3   3  -4    5.62    1.02
   3  -3   4    6.04    0.88
  -4   3  -4   34.51    1.59
  -4   3  -4   32.44    1.68
  -4   3  -4   32.35    1.64
  -4   3  -4   32.48    1.97
   4  -3   4   31.44    1.58
  -5   3  -4    0.96    0.81
  -5   3  -4    1.23    0.79
  -5   3  -4    0.43    0.66
   5  -3   4    1.27    0.70
  -6   3  -4    1.29    0.78
  -6   3  -4    0.26    0.90
  -6   3  -4    1.28    0.90
   6  -3   4    0.11    0.76
  -7   3  -4    2.12    1.09
  -7   3  -4    4.27    1.11
  -7   3  -4    2.44    1.05
   7  -3   4    2.60    0.97
  10   2  -4    5.51    1.39
  10   2  -4    6.79    1.24
 -10  -2   4    6.84    1.12
   9   2  -4   13.73    1.56
   9   2  -4   12.84    1.69
  -9  -2   4   12.59    1.17
   8   2  -4    2.77    0.89
   8   2  -4    2.24    0.81
  -8  -2   4    4.49    0.78
   7   2  -4   16.64    1.35
   7   2  -4   15.77    1.38
  -7  -2   4   15.35    1.07
   6   2  -4   82.07    2.78
   6   2  -4   85.15    2.99
   6   2  -4   84.94    2.73
  -6  -2   4   86.32    2.28
   5   2  -4   81.58    2.57
   5   2  -4   80.61    2.78
   5   2  -4   79.27    2.50
  -5  -2   4   79.16    2.03
   4   2  -4   74.22    2.29
   4   2  -4   75.90    2.58
   4   2  -4   74.79    2.36
  -4  -2   4   76.54    1.82
   3   2  -4   50.32    1.71
   3   2  -4   49.49    1.90
   3   2  -4   49.43    1.64
   3   2  -4   51.42    1.79
  -3  -2   4   48.23    1.24
   2   2  -4   18.10    1.03
   2   2  -4   19.34    1.07
   2   2  -4   17.76    1.02
   2   2  -4   17.65    1.14
   1   2  -4   16.69    0.85
   1   2  -4   15.13    0.96
   1   2  -4   15.78    0.98
   1   2  -4   16.09    0.99
   0   2  -4   40.91    1.28
   0   2  -4   44.67    1.67
   0   2  -4   43.42    1.55
   0  -2   4   43.52    1.25
  -1   2  -4   58.05    1.83
  -1   2  -4   55.23    1.64
  -1   2  -4   55.73    2.05
   1  -2   4   55.48    1.62
  -2   2  -4   87.50    2.43
  -2   2  -4   86.56    2.34
  -2   2  -4   85.64    2.76
   2  -2   4   88.48    2.32
  -3   2  -4  280.75    5.02
  -3   2  -4  284.92    5.72
  -3   2  -4  291.36    6.75
  -3   2  -4  285.88    6.19
   3  -2   4  283.05    5.71
  -4   2  -4  134.62    3.51
  -4   2  -4  138.38    2.98
  -4   2  -4  140.54    4.10
  -4   2  -4  140.11    3.59
   4  -2   4  142.70    3.55
  -5   2  -4   34.37    1.97
  -5   2  -4   34.79    1.72
  -5   2  -4   31.26    1.72
  -5   2  -4   31.27    1.36
   5  -2   4   31.59    1.66
  -6   2  -4   17.52    1.68
  -6   2  -4   16.88    1.45
  -6   2  -4   16.73    1.22
  -6   2  -4   18.78    1.57
   6  -2   4   19.13    1.49
  -7   2  -4    5.14    1.08
  -7   2  -4    5.08    1.18
  -7   2  -4    3.40    1.11
  -7   2  -4    4.96    0.94
   7  -2   4    3.37    0.95
  -8   2  -4   53.92    2.62
  -8   2  -4   49.86    2.58
  -8   2  -4   56.86    2.89
  -8   2  -4   52.94    2.48
   8  -2   4   52.12    2.54
  10   1  -4   15.71    1.58
  10   1  -4   15.52    1.68
 -10  -1   4   16.99    1.40
   9   1  -4   24.22    1.73
   9   1  -4   21.88    1.81
  -9  -1   4   23.50    1.46
   8   1  -4   15.07    1.44
   8   1  -4   15.73    1.35
  -8  -1   4   14.29    1.15
   7   1  -4    5.77    1.06
   7   1  -4    5.77    0.98
  -7  -1   4    6.26    0.83
   6   1  -4    1.01    0.60
   6   1  -4    1.29    0.64
  -6  -1   4    0.47    0.40
   5   1  -4    8.19    0.98
   5   1  -4    8.35    0.91
   5   1  -4    8.14    1.06
  -5  -1   4    8.65    0.71
   4   1  -4   81.06    2.45
   4   1  -4   82.11    2.38
   4   1  -4   85.72    2.71
  -4  -1   4   82.95    1.95
   3   1  -4   27.47    1.36
   3   1  -4   27.23    1.21
   3   1  -4   28.56    1.24
  -3  -1   4   27.18    0.86
   2   1  -4  110.52    2.73
   2   1  -4  102.86    2.55
   2   1  -4  110.51    2.76
   2   1  -4  101.16    2.87
   1   1  -4  119.53    2.64
   1   1  -4  110.72    2.98
   1   1  -4  122.08    3.02
   1   1  -4  121.30    2.90
   0   1  -4   81.65    1.88
   0   1  -4   88.30    2.42
   0   1  -4   82.21    1.93
   0   1  -4   82.71    2.27
   0  -1   4   83.97    1.86
  -1   1  -4   10.44    0.72
  -1   1  -4   11.80    0.91
  -1   1  -4   10.43    0.71
   1  -1   4   10.06    0.65
  -2   1  -4  200.86    4.73
  -2   1  -4  198.60    4.31
  -2   1  -4  192.40    4.00
   2  -1   4  196.52    4.00
  -3   1  -4  130.72    3.54
  -3   1  -4  128.27    3.06
  -3   1  -4  126.28    2.54
  -3   1  -4  129.46    3.11
   3  -1   4  130.68    3.07
  -4   1  -4   65.36    2.39
  -4   1  -4   64.64    2.12
  -4   1  -4   64.16    2.14
  -4   1  -4   65.28    1.72
   4  -1   4   66.76    2.12
  -5   1  -4   95.49    2.80
  -5   1  -4   94.94    3.12
  -5   1  -4   89.51    2.32
  -5   1  -4   91.86    2.79
   5  -1   4   91.14    2.76
  -6   1  -4    1.77    0.75
  -6   1  -4    1.86    0.85
  -6   1  -4    1.80    0.74
  -6   1  -4    1.03    0.53
   6  -1   4    1.10    0.66
  -7   1  -4    5.29    1.02
  -7   1  -4    5.45    0.87
  -7   1  -4    3.62    1.01
  -7   1  -4    5.94    1.15
   7  -1   4    6.50    1.13
  -8   1  -4    5.61    1.15
  -8   1  -4   10.37    1.54
  -8   1  -4    8.62    1.14
  -8   1  -4    8.71    1.39
   8  -1   4   10.03    1.40
  -9   1  -4   45.25    2.45
  -9   1  -4   43.38    2.51
  -9   1  -4   47.25    2.19
   9  -1   4   45.31    2.39
  10   0  -4   61.82    2.76
  10   0  -4   66.41    2.33
  10   0  -4   69.33    3.14
 -10   0   4   64.49    2.55
   9   0  -4   93.84    3.60
   9   0  -4   95.97    3.35
   9   0  -4   96.05    2.69
  -9   0   4   93.84    2.97
   8   0  -4   13.68    0.97
   8   0  -4   13.11    1.56
   8   0  -4   15.32    1.34
  -8   0   4   14.73    1.15
   7   0  -4   35.79    1.77
   7   0  -4   31.92    1.90
   7   0  -4   36.18    1.32
  -7   0   4   33.39    1.50
   6   0  -4    3.57    0.74
   6   0  -4    3.24    0.78
  -6   0   4    4.78    0.70
   5   0  -4   73.53    2.36
   5   0  -4   78.26    2.53
  -5   0   4   79.27    2.05
   4   0  -4  229.91    5.18
   4   0  -4  228.60    4.90
  -4   0   4  222.10    4.22
   3   0  -4  414.40    7.87
   3   0  -4  409.39    8.32
   3   0  -4  411.86    8.72
  -3   0   4  412.92    6.90
   2   0  -4  339.95    6.77
   2   0  -4  333.05    7.14
   2   0  -4  337.45    6.40
  -2   0   4  330.92    5.52
   1   0  -4  165.45    3.46
   1   0  -4  176.89    3.98
   1   0  -4  163.82    3.94
   1   0  -4  180.96    3.75
   0   0  -4   12.51    0.86
   0   0   4   17.82    0.68
  -1   0  -4   37.90    1.19
  -1   0  -4   39.30    1.44
   1   0   4   37.94    1.15
  -2   0  -4   87.17    2.14
  -2   0  -4   92.05    2.51
   2   0   4   88.90    2.13
  -3   0  -4   56.55    1.94
  -3   0  -4   56.69    1.75
  -3   0  -4   57.96    1.41
   3   0   4   56.45    1.71
  -4   0  -4  346.81    6.83
  -4   0  -4  349.21    6.10
  -4   0  -4  349.12    6.66
  -4   0  -4  342.39    7.59
   4   0   4  346.18    6.66
  -5   0  -4  141.15    3.13
  -5   0  -4  146.59    3.60
  -5   0  -4  147.60    3.58
  -5   0  -4  141.68    3.90
   5   0   4  142.32    3.55
  -6   0  -4   11.21    1.22
  -6   0  -4    8.94    1.12
  -6   0  -4   10.61    0.90
  -6   0  -4   10.76    1.27
   6   0   4    9.46    1.17
  -7   0  -4    2.66    0.83
  -7   0  -4    1.05    0.72
  -7   0  -4    2.83    0.73
  -7   0  -4    1.50    0.81
   7   0   4    1.64    0.74
  -8   0  -4    8.84    1.37
  -8   0  -4    5.23    0.97
  -8   0  -4    6.20    1.16
  -8   0  -4    8.48    1.21
   8   0   4    7.77    1.20
  -9   0  -4   46.02    2.09
  -9   0  -4   43.45    2.29
  -9   0  -4   43.90    2.38
   9   0   4   49.67    2.39
  10  -1  -4   43.95    2.36
  10  -1  -4   43.51    1.99
  10  -1  -4   43.76    2.59
 -10   1   4   42.83    2.17
   9  -1  -4   57.56    2.14
   9  -1  -4   56.11    2.49
   9  -1  -4   56.67    2.81
  -9   1   4   54.25    2.26
   8  -1  -4   54.69    2.32
   8  -1  -4   53.38    1.89
   8  -1  -4   48.43    2.47
  -8   1   4   52.35    2.06
   7  -1  -4    9.69    0.84
   7  -1  -4   10.75    1.12
   7  -1  -4    7.88    1.33
  -7   1   4   12.38    1.01
   6  -1  -4   30.89    1.22
   6  -1  -4   29.98    1.56
   6  -1  -4   29.41    1.68
  -6   1   4   29.52    1.33
   5  -1  -4   16.89    1.11
   5  -1  -4   14.70    1.22
   5  -1  -4   15.68    0.83
  -5   1   4   14.20    0.75
  -5   1   4   15.97    0.93
   4  -1  -4   51.39    1.35
   4  -1  -4   50.06    1.88
   4  -1  -4   49.91    1.74
  -4   1   4   49.13    1.47
  -4   1   4   47.16    1.30
   3  -1  -4  310.96    6.47
   3  -1  -4  309.23    6.12
   3  -1  -4  314.37    5.38
  -3   1   4  307.62    5.40
  -3   1   4  300.70    5.36
   2  -1  -4   41.01    1.43
   2  -1  -4   42.36    1.37
   2  -1  -4   42.41    1.06
  -2   1   4   43.00    1.05
   1  -1  -4  182.94    3.94
   1  -1  -4  188.46    3.95
   1  -1  -4  203.80    3.37
   1  -1  -4  175.89    3.71
  -1   1   4  182.15    3.33
   0  -1  -4    3.15    0.40
  -1  -1  -4   90.72    1.99
  -1  -1  -4   87.24    2.30
  -1  -1  -4   94.02    2.41
   1   1   4   90.53    1.98
  -2  -1  -4    6.60    0.65
  -2  -1  -4    6.02    0.66
  -2  -1  -4    5.61    0.56
   2   1   4    6.78    0.52
  -3  -1  -4   99.26    2.36
  -3  -1  -4   97.85    2.60
  -3  -1  -4  100.50    2.68
   3   1   4   99.93    2.37
  -4  -1  -4   16.42    1.00
  -4  -1  -4   16.05    1.02
  -4  -1  -4   13.14    0.98
  -4  -1  -4   15.02    0.97
   4   1   4   15.93    0.93
  -5  -1  -4    5.54    0.79
  -5  -1  -4    2.91    0.66
  -5  -1  -4    6.15    0.87
  -5  -1  -4   10.09    0.95
   5   1   4    6.67    0.86
  -6  -1  -4   28.29    1.45
  -6  -1  -4   24.42    1.29
  -6  -1  -4   28.61    1.52
  -6  -1  -4   29.20    1.49
   6   1   4   25.96    1.40
  -7  -1  -4    9.15    1.06
  -7  -1  -4   10.22    1.05
  -7  -1  -4    9.36    1.15
  -7  -1  -4    9.73    1.20
   7   1   4    8.91    1.11
  -8  -1  -4    2.62    0.91
  -8  -1  -4    4.07    0.86
  -8  -1  -4    4.68    0.95
   8   1   4    4.90    1.01
  -9  -1  -4    0.81    0.74
  -9  -1  -4    2.11    0.84
  -9  -1  -4    1.25    0.97
   9   1   4    0.41    0.78
   9  -2  -4   69.05    2.49
   9  -2  -4   70.31    2.89
   9  -2  -4   75.21    3.24
  -9   2   4   71.79    2.70
   8  -2  -4   97.41    3.56
   8  -2  -4   98.33    2.85
   8  -2  -4  101.78    3.32
  -8   2   4   95.20    3.19
  -8   2   4   97.52    3.03
   7  -2  -4   11.28    0.96
   7  -2  -4   11.59    1.13
  -7   2   4   12.51    1.31
   6  -2  -4    2.12    0.65
   6  -2  -4    2.57    0.53
  -6   2   4    1.40    0.58
  -6   2   4    2.05    0.51
   5  -2  -4   24.23    1.35
   5  -2  -4   26.25    1.11
  -5   2   4   24.69    1.21
  -5   2   4   24.14    1.06
   4  -2  -4   83.91    2.05
  -4   2   4   81.97    2.01
  -4   2   4   83.64    2.14
   3  -2  -4  115.77    2.44
  -3   2   4  112.93    2.43
   2  -2  -4  142.11    3.28
   2  -2  -4  140.82    2.77
  -2   2   4  139.43    2.76
   1  -2  -4   98.13    2.38
   1  -2  -4   99.71    2.08
   1  -2  -4  103.80    2.41
  -1   2   4  100.12    2.07
  -1   2   4  106.14    2.78
  -1  -2  -4   20.62    0.98
  -1  -2  -4   20.59    0.81
  -1  -2  -4   21.37    0.95
   1   2   4   20.78    0.78
  -2  -2  -4   23.82    0.94
  -2  -2  -4   24.12    1.11
  -2  -2  -4   24.72    1.06
   2   2   4   23.58    0.90
  -3  -2  -4   29.50    1.10
  -3  -2  -4   29.27    1.26
  -3  -2  -4   30.12    1.20
   3   2   4   28.29    1.07
  -4  -2  -4    2.67    0.52
  -4  -2  -4    2.46    0.54
  -4  -2  -4    2.71    0.56
  -4  -2  -4    2.39    0.51
   4   2   4    2.05    0.48
  -5  -2  -4   99.90    2.75
  -5  -2  -4   99.25    2.58
  -5  -2  -4  103.79    2.62
  -5  -2  -4   97.62    2.75
   5   2   4   98.23    2.59
  -6  -2  -4  123.57    3.15
  -6  -2  -4  122.47    3.14
  -6  -2  -4  122.27    3.26
   6   2   4  122.85    3.16
  -7  -2  -4   21.34    1.31
  -7  -2  -4   25.02    1.43
  -7  -2  -4   24.36    1.36
   7   2   4   21.82    1.37
  -8  -2  -4   46.48    2.07
  -8  -2  -4   46.00    1.99
  -8  -2  -4   48.00    2.02
   8   2   4   49.34    2.10
  -9  -2  -4    2.45    0.79
  -9  -2  -4    2.61    0.87
  -9  -2  -4    2.35    0.93
   9   2   4    1.44    0.85
 -10  -2  -4    0.09    0.69
 -10  -2  -4    1.30    0.82
  10   2   4   -0.71    0.77
   9  -3  -4   28.06    1.70
   9  -3  -4   27.43    1.91
  -9   3   4   29.55    1.86
   8  -3  -4    6.93    1.07
   8  -3  -4    5.62    1.08
  -8   3   4    5.89    1.07
  -8   3   4    4.65    0.97
   7  -3  -4   32.58    1.54
   7  -3  -4   33.62    1.81
  -7   3   4   31.86    1.66
  -7   3   4   33.55    1.80
   6  -3  -4    2.66    0.63
  -6   3   4    3.04    0.65
  -6   3   4    2.86    0.67
   5  -3  -4   32.25    1.35
  -5   3   4   33.09    1.34
   3  -3  -4   12.38    0.78
  -3   3   4   12.84    0.74
   2  -3  -4   25.00    0.97
  -2   3   4   24.80    0.92
   1  -3  -4   15.64    0.73
  -1   3   4   17.05    1.05
  -1   3   4   15.55    0.69
   0  -3  -4    5.80    0.59
   0  -3  -4    6.18    0.63
   0   3   4    6.29    0.69
   0   3   4    5.23    0.44
  -1  -3  -4    7.96    0.59
  -1  -3  -4    7.49    0.67
  -1  -3  -4    6.70    0.73
   1   3   4    7.90    0.53
  -2  -3  -4   32.83    1.29
  -2  -3  -4   32.99    1.10
   2   3   4   32.08    1.06
  -3  -3  -4    5.56    0.62
  -3  -3  -4    5.63    0.67
  -3  -3  -4    5.40    0.57
   3   3   4    6.39    0.65
  -4  -3  -4   79.06    2.05
  -4  -3  -4   79.79    2.31
   4   3   4   76.37    2.03
  -5  -3  -4    6.55    0.70
  -5  -3  -4    5.98    0.73
  -5  -3  -4    5.11    0.80
   5   3   4    6.31    0.79
  -6  -3  -4   20.95    1.12
  -6  -3  -4   18.71    1.30
  -6  -3  -4   21.21    1.19
   6   3   4   19.60    1.14
  -7  -3  -4   94.26    2.65
  -7  -3  -4   93.23    2.67
   7   3   4   89.45    2.67
  -8  -3  -4   17.06    1.33
  -8  -3  -4   18.81    1.31
   8   3   4   16.69    1.29
  -9  -3  -4    0.30    0.77
  -9  -3  -4    1.26    0.68
  -9  -3  -4    1.77    0.91
   9   3   4    1.12    0.75
 -10  -3  -4   -0.01    0.69
 -10  -3  -4   -0.32    0.78
  10   3   4    0.41    0.81
   9  -4  -4    5.57    1.16
   9  -4  -4    4.44    1.11
  -9   4   4    4.07    1.13
   8  -4  -4   16.55    1.34
   8  -4  -4   17.07    1.86
  -8   4   4   14.99    1.53
   7  -4  -4  101.28    3.04
  -7   4   4  103.01    3.52
   6  -4  -4   36.04    1.62
  -6   4   4   35.88    1.88
  -6   4   4   34.09    1.59
   5  -4  -4   60.86    2.03
  -5   4   4   63.18    2.03
   4  -4  -4    1.44    0.49
  -4   4   4    1.65    0.49
   3  -4  -4   32.21    1.28
  -3   4   4   32.13    1.24
   2  -4  -4   18.53    0.93
  -2   4   4   19.78    1.26
  -2   4   4   18.87    0.91
   1  -4  -4  200.49    3.93
  -1   4   4  204.73    3.93
  -1   4   4  198.92    4.96
   0  -4  -4  297.98    5.43
   0  -4  -4  306.11    6.19
   0   4   4  301.51    5.43
   0   4   4  290.41    6.70
  -1  -4  -4  261.10    4.81
  -1  -4  -4  259.83    5.61
  -1  -4  -4  262.74    5.55
   1   4   4  259.60    4.81
  -2  -4  -4  302.81    6.39
  -2  -4  -4  300.93    5.45
  -2  -4  -4  304.24    6.44
   2   4   4  296.34    5.45
  -3  -4  -4   43.86    1.63
  -3  -4  -4   43.95    1.37
   3   4   4   45.04    1.37
  -4  -4  -4   20.98    1.00
  -4  -4  -4   21.33    1.16
   4   4   4   21.78    1.00
  -5  -4  -4    1.27    0.40
  -5  -4  -4    1.38    0.51
  -5  -4  -4    1.53    0.59
   5   4   4    1.55    0.46
  -6  -4  -4  152.17    3.89
  -6  -4  -4  152.93    3.50
  -6  -4  -4  150.88    3.40
   6   4   4  149.27    3.50
  -7  -4  -4   99.38    2.78
  -7  -4  -4   97.32    3.01
  -7  -4  -4   96.90    2.67
   7   4   4  102.10    2.76
   7   4   4  102.96    2.82
  -8  -4  -4   67.86    2.27
  -8  -4  -4   68.80    2.39
   8   4   4   69.03    2.38
  -9  -4  -4   24.43    1.52
   9   4   4   25.03    1.61
 -10  -4  -4   -0.44    0.81
 -10  -4  -4    2.33    0.80
  10   4   4    1.61    0.88
   8  -5  -4   12.27    1.62
   8  -5  -4   13.29    1.54
  -8   5   4   14.39    1.75
   7  -5  -4    7.58    1.13
  -7   5   4    5.58    1.16
   6  -5  -4   85.41    2.74
  -6   5   4   83.33    3.19
  -6   5   4   86.72    2.75
   5  -5  -4   60.19    2.14
  -5   5   4   60.61    2.11
  -5   5   4   59.06    2.50
   4  -5  -4    2.20    0.59
  -4   5   4    2.49    0.60
  -4   5   4    3.25    0.86
   3  -5  -4    9.51    0.87
  -3   5   4    9.24    0.83
  -3   5   4   10.40    1.22
   2  -5  -4   35.60    1.37
  -2   5   4   36.61    1.79
  -2   5   4   37.99    1.38
   1  -5  -4  183.70    3.79
   1  -5  -4  189.44    4.17
  -1   5   4  177.69    4.64
  -1   5   4  181.19    3.75
   0  -5  -4  247.17    5.31
   0  -5  -4  243.66    4.70
   0   5   4  238.99    5.73
   0   5   4  247.78    4.70
  -1  -5  -4  152.27    3.66
  -1  -5  -4  150.00    3.15
  -1  -5  -4  148.02    3.70
   1   5   4  153.59    3.16
  -2  -5  -4   91.01    2.20
  -2  -5  -4   93.93    2.63
  -2  -5  -4   93.95    2.66
   2   5   4   95.62    2.22
  -3  -5  -4   15.80    1.06
  -3  -5  -4   12.23    1.05
  -3  -5  -4   13.13    0.80
   3   5   4   15.09    0.81
  -4  -5  -4   24.65    1.11
  -4  -5  -4   25.55    1.36
  -4  -5  -4   24.86    1.39
   4   5   4   26.52    1.11
  -5  -5  -4  149.39    3.31
  -5  -5  -4  150.10    3.84
   5   5   4  145.70    3.29
  -6  -5  -4  145.09    3.23
  -6  -5  -4  151.52    3.44
  -6  -5  -4  145.97    3.91
   6   5   4  148.88    3.45
  -7  -5  -4   51.42    1.73
  -7  -5  -4   53.20    1.90
  -7  -5  -4   53.82    2.20
   7   5   4   53.80    1.90
  -8  -5  -4  138.92    3.47
  -8  -5  -4  136.29    3.87
  -8  -5  -4  143.84    3.83
   8   5   4  138.94    3.54
  -9  -5  -4    5.51    0.93
   9   5   4    8.99    1.16
  10   5   4    2.00    0.79
   7  -6  -4   51.35    2.33
  -7   6   4   53.82    2.74
  -7   6   4   49.76    2.77
  -7   6   4   50.80    2.42
   6  -6  -4  123.85    3.66
  -6   6   4  133.03    3.71
  -6   6   4  130.31    4.43
  -6   6   4  130.05    4.30
   5  -6  -4   96.17    2.97
  -5   6   4  103.59    3.59
  -5   6   4   97.98    3.61
  -5   6   4   98.42    2.94
   4  -6  -4  152.65    3.79
  -4   6   4  156.23    4.55
  -4   6   4  155.37    4.63
  -4   6   4  153.95    3.78
   3  -6  -4    3.98    0.70
  -3   6   4    6.08    0.86
  -3   6   4    7.06    1.20
   2  -6  -4   21.79    1.20
  -2   6   4   20.38    1.15
  -2   6   4   24.12    1.57
   1  -6  -4   45.63    1.81
   1  -6  -4   47.73    1.66
  -1   6   4   48.39    2.03
  -1   6   4   48.87    1.65
   0  -6  -4  151.96    3.76
   0  -6  -4  149.38    3.32
   0   6   4  150.27    3.31
   0   6   4  147.43    4.03
  -1  -6  -4  209.76    4.87
  -1  -6  -4  207.08    4.20
   1   6   4  206.46    4.18
  -2  -6  -4   51.62    1.94
  -2  -6  -4   53.12    1.61
  -2  -6  -4   50.73    1.90
   2   6   4   51.98    1.58
  -3  -6  -4   82.77    2.60
  -3  -6  -4   85.95    2.17
  -3  -6  -4   85.70    2.64
   3   6   4   85.72    2.17
  -4  -6  -4    1.88    0.47
  -4  -6  -4    1.94    0.61
  -4  -6  -4   -0.01    0.57
   4   6   4    1.50    0.44
  -5  -6  -4   20.22    1.39
  -5  -6  -4   17.70    1.42
  -5  -6  -4   18.12    1.05
   5   6   4   18.84    1.03
  -6  -6  -4   51.86    2.18
  -6  -6  -4   49.08    1.74
   6   6   4   51.04    1.74
  -7  -6  -4   85.43    2.47
  -7  -6  -4   86.27    2.90
   7   6   4   84.38    2.42
  -8  -6  -4   32.76    1.95
   8   6   4   37.06    1.62
   9   6   4   12.13    1.18
  10   6   4    8.40    1.21
   7  -7  -4   30.91    2.03
  -7   7   4   35.39    2.37
  -7   7   4   35.81    2.16
   6  -7  -4   14.82    1.66
  -6   7   4   16.04    2.07
  -6   7   4   14.80    1.66
  -6   7   4   15.71    1.49
   5  -7  -4   56.32    2.33
  -5   7   4   55.26    2.29
  -5   7   4   56.18    2.71
  -5   7   4   57.02    2.79
   4  -7  -4   28.39    1.62
  -4   7   4   28.20    1.88
  -4   7   4   28.75    1.95
  -4   7   4   28.47    1.60
   3  -7  -4    0.62    0.58
  -3   7   4    1.18    0.62
  -3   7   4    1.79    0.85
  -3   7   4    0.43    0.67
   2  -7  -4   21.22    1.29
  -2   7   4   20.24    1.55
  -2   7   4   20.63    1.24
   1  -7  -4   19.83    1.22
   1  -7  -4   17.88    1.32
  -1   7   4   19.59    1.18
  -1   7   4   20.20    1.41
   0  -7  -4  159.49    4.02
   0  -7  -4  152.52    3.54
   0   7   4  151.08    3.49
  -1  -7  -4   80.68    2.64
  -1  -7  -4   84.22    2.28
   1   7   4   81.60    2.25
  -2  -7  -4   48.07    1.60
  -2  -7  -4   44.17    1.89
   2   7   4   48.15    1.58
  -3  -7  -4   19.90    1.45
  -3  -7  -4   25.89    1.18
  -3  -7  -4   24.35    1.40
   3   7   4   23.02    1.10
  -4  -7  -4   21.00    1.38
  -4  -7  -4   20.33    1.41
   4   7   4   21.45    1.18
   4   7   4   22.66    1.11
  -5  -7  -4   19.17    1.55
  -5  -7  -4   20.53    1.46
  -5  -7  -4   20.76    1.17
   5   7   4   23.61    1.18
  -6  -7  -4   49.59    2.26
  -6  -7  -4   50.94    2.23
  -6  -7  -4   49.05    1.73
   6   7   4   51.71    1.74
  -7  -7  -4   19.57    1.58
  -7  -7  -4   19.17    1.54
   7   7   4   19.74    1.20
  -8  -7  -4   10.84    1.36
   8   7   4   12.04    1.05
  -9  -7  -4   27.78    1.95
   9   7   4   26.08    1.50
  10   7   4    6.93    1.10
   6  -8  -4   29.59    1.94
  -6   8   4   28.33    2.26
  -6   8   4   28.64    1.98
   5  -8  -4   28.57    1.83
  -5   8   4   32.26    2.27
  -5   8   4   27.81    1.82
   4  -8  -4   13.02    1.49
  -4   8   4   13.54    1.48
  -4   8   4   13.26    1.75
  -4   8   4   13.47    1.71
   3  -8  -4   48.63    2.11
  -3   8   4   51.86    2.11
  -3   8   4   47.94    2.47
  -3   8   4   49.39    2.41
   2  -8  -4    6.89    1.03
  -2   8   4    5.66    0.94
  -2   8   4    7.32    1.10
  -2   8   4    4.85    1.09
   1  -8  -4    1.10    0.68
   1  -8  -4    0.59    0.60
  -1   8   4    1.89    0.67
  -1   8   4    1.61    0.76
   0  -8  -4   -0.62    0.57
   0  -8  -4    0.88    0.67
   0   8   4   -0.52    0.49
  -1  -8  -4   17.88    1.18
  -1  -8  -4   17.59    1.41
   1   8   4   17.12    1.11
  -2  -8  -4   50.04    2.20
  -2  -8  -4   53.49    1.83
   2   8   4   56.34    1.84
  -3  -8  -4   26.03    1.73
  -3  -8  -4   33.81    1.43
   3   8   4   33.34    1.37
  -4  -8  -4   58.41    1.88
  -4  -8  -4   55.72    2.38
  -4  -8  -4   52.32    2.26
   4   8   4   56.64    2.12
   4   8   4   54.52    1.80
  -5  -8  -4   55.99    2.38
  -5  -8  -4   51.62    2.31
   5   8   4   53.80    1.77
   5   8   4   52.22    2.06
  -6  -8  -4   25.41    1.71
  -6  -8  -4   24.60    1.78
   6   8   4   28.68    1.33
  -7  -8  -4    0.44    0.69
  -7  -8  -4    0.82    0.74
   7   8   4    0.45    0.53
  -8  -8  -4   16.88    1.66
  -8  -8  -4   16.72    1.62
   8   8   4   19.81    1.23
  -9  -8  -4    6.46    1.33
  -9  -8  -4    6.77    1.29
   9   8   4    6.07    1.00
 -10  -8  -4   13.63    1.98
  10   8   4   13.42    1.45
   5  -9  -4    7.30    1.44
  -5   9   4    7.54    1.35
  -5   9   4    7.14    1.42
  -5   9   4    9.52    1.42
   4  -9  -4   11.00    1.48
  -4   9   4   11.00    1.48
  -4   9   4    8.95    1.56
   3  -9  -4   25.44    1.70
  -3   9   4   28.54    1.72
  -3   9   4   23.23    1.75
  -3   9   4   24.75    2.07
   2  -9  -4    9.12    1.20
   2  -9  -4   12.89    1.51
  -2   9   4    6.99    1.25
  -2   9   4   10.20    1.28
   1  -9  -4    7.23    1.09
   1  -9  -4    9.20    1.21
  -1   9   4    9.02    1.18
  -1   9   4    6.85    1.21
   0  -9  -4    2.04    0.81
   0  -9  -4    2.50    0.69
   0   9   4    1.10    0.61
   0   9   4   -0.09    0.71
  -1  -9  -4   69.63    2.33
  -1  -9  -4   73.47    2.74
   1   9   4   75.40    2.78
   1   9   4   71.93    2.34
  -2  -9  -4   28.73    1.81
  -2  -9  -4   30.53    1.50
   2   9   4   30.18    1.46
   2   9   4   29.28    1.62
  -3  -9  -4   99.83    3.38
  -3  -9  -4   99.82    2.75
   3   9   4  100.80    3.05
   3   9   4  100.59    2.74
   3   9   4  104.16    3.32
  -4  -9  -4   36.58    2.02
  -4  -9  -4   34.00    1.56
   4   9   4   33.12    1.77
   4   9   4   35.17    1.49
  -5  -9  -4   15.45    1.69
  -5  -9  -4   15.28    1.43
   5   9   4   17.54    1.12
   5   9   4   14.60    1.27
  -6  -9  -4   35.26    2.12
  -6  -9  -4   38.88    2.13
   6   9   4   36.09    1.54
   6   9   4   33.40    1.81
  -7  -9  -4   16.23    1.58
  -7  -9  -4   15.08    1.67
   7   9   4   15.67    1.13
  -8  -9  -4   29.79    2.11
  -8  -9  -4   31.90    2.12
   8   9   4   34.07    1.57
  -9  -9  -4   41.90    2.46
  -9  -9  -4   37.29    2.41
   9   9   4   38.99    1.79
 -10  -9  -4   56.77    3.01
  10   9   4   57.40    2.28
   3 -10  -4   17.66    1.64
  -3  10   4   18.66    1.67
  -3  10   4   18.84    1.88
   2 -10  -4   56.89    2.46
  -2  10   4   56.23    2.86
  -2  10   4   54.13    2.37
   1 -10  -4   65.40    2.70
   1 -10  -4   67.78    2.60
  -1  10   4   65.33    2.52
  -1  10   4   67.62    3.06
   0 -10  -4   13.59    1.35
   0 -10  -4   13.41    1.57
   0  10   4   13.51    1.49
   0  10   4   13.61    1.31
  -1 -10  -4    2.59    0.88
  -1 -10  -4    1.21    0.70
   1  10   4    0.50    0.70
   1  10   4    0.40    0.66
  -2 -10  -4   16.38    1.63
  -2 -10  -4   12.83    1.20
   2  10   4   12.63    1.18
   2  10   4   13.84    1.33
  -3 -10  -4   66.60    2.78
   3  10   4   61.56    2.61
   3  10   4   62.99    2.19
   3  10   4   60.78    2.38
  -4 -10  -4   44.92    2.33
   4  10   4   40.21    2.13
   4  10   4   44.06    1.78
  -5 -10  -4   62.41    2.78
   5  10   4   59.12    2.54
   5  10   4   62.18    2.10
  -6 -10  -4   10.57    1.58
  -6 -10  -4   13.32    1.65
   6  10   4   12.13    1.22
   6  10   4   12.37    1.54
  -7 -10  -4   -0.36    0.88
  -7 -10  -4    0.92    0.84
   7  10   4   -0.28    0.56
  -8 -10  -4   17.38    1.99
  -8 -10  -4   23.12    1.99
   8  10   4   20.79    1.35
  -9 -10  -4   27.86    2.29
  -9 -10  -4   30.47    2.28
   9  10   4   33.10    1.66
   2 -11  -4   50.16    2.47
  -2  11   4   53.88    2.50
  -2  11   4   55.32    3.03
   1 -11  -4   24.34    1.86
   1 -11  -4   30.96    2.16
  -1  11   4   30.99    2.32
  -1  11   4   31.67    1.96
   0 -11  -4    9.98    1.40
   0 -11  -4   12.19    1.65
   0  11   4    9.57    1.42
   0  11   4   10.72    1.56
  -1 -11  -4   12.12    1.62
   1  11   4   12.09    1.46
   1  11   4   11.28    1.58
  -2 -11  -4   83.83    3.35
   2  11   4   83.60    2.78
   2  11   4   88.17    3.24
   2  11   4   85.24    3.45
  -3 -11  -4   57.01    2.76
   3  11   4   57.50    2.69
   3  11   4   56.73    2.52
   3  11   4   52.65    2.14
  -4 -11  -4  110.97    3.93
   4  11   4  105.93    3.77
   4  11   4  103.80    3.04
  -5 -11  -4   59.22    2.82
   5  11   4   54.84    2.12
   5  11   4   55.52    2.65
  -6 -11  -4   17.36    1.88
   6  11   4   14.72    1.76
   6  11   4   14.65    1.25
  -7 -11  -4    2.02    1.14
  -7 -11  -4    5.70    1.44
   7  11   4    5.29    0.92
  -8 -11  -4   17.46    1.89
  -8 -11  -4   18.02    2.10
   8  11   4   17.15    1.35
   0 -12  -4   22.60    2.14
   0  12   4   20.15    2.07
   0  12   4   19.75    1.96
  -1 -12  -4    2.64    1.14
   1  12   4    0.09    0.81
   1  12   4    1.57    0.97
  -2 -12  -4    1.95    1.08
   2  12   4    1.05    0.91
   2  12   4    0.70    0.78
   2  12   4    0.87    1.06
  -3 -12  -4    9.98    1.65
   3  12   4    8.75    1.59
   3  12   4    8.64    1.24
  -4 -12  -4   19.90    2.06
   4  12   4   17.73    1.46
   4  12   4   18.08    1.85
  -5 -12  -4   24.80    2.29
   5  12   4   27.20    1.61
   5  12   4   27.24    2.11
  -6 -12  -4   24.53    2.23
   6  12   4   23.78    1.60
   6  12   4   22.41    1.99
  -7 -12  -4    0.15    1.07
   7  12   4    2.32    0.85
   5   9  -5   38.36    2.79
   4   9  -5   14.54    2.11
   3   9  -5   14.21    2.08
   2   9  -5    1.94    1.15
   2   9  -5    3.29    1.46
   7   8  -5    6.65    1.46
   7   8  -5    7.14    1.63
   6   8  -5   78.33    3.68
   5   8  -5   40.18    2.73
   4   8  -5   23.02    2.25
   3   8  -5    7.60    1.35
   3   8  -5   10.96    1.76
   2   8  -5    0.65    0.90
   2   8  -5    1.50    1.24
   1   8  -5    2.75    1.37
   1   8  -5    2.36    1.03
   1   8  -5    5.47    0.99
   0   8  -5   26.82    1.71
   0   8  -5   24.70    2.41
   0   8  -5   25.66    2.23
  -1   8  -5   20.49    1.66
  -1   8  -5   17.25    2.09
  -1   8  -5   20.91    2.42
   8   7  -5    1.82    1.14
   8   7  -5    1.57    1.18
   8   7  -5    1.94    1.00
   7   7  -5    9.42    1.46
   7   7  -5    9.83    1.58
   7   7  -5    9.94    1.72
   6   7  -5   20.59    2.06
   6   7  -5   23.72    1.81
   6   7  -5   22.06    1.89
   5   7  -5   19.18    1.98
   4   7  -5   41.55    2.54
   3   7  -5    5.64    1.34
   3   7  -5    4.24    1.02
   2   7  -5   28.08    2.12
   2   7  -5   28.43    1.92
   1   7  -5   10.55    1.45
   1   7  -5   12.11    1.14
   1   7  -5   12.08    1.69
   0   7  -5    0.16    1.08
   0   7  -5    1.49    0.92
   0   7  -5    1.12    0.79
  -1   7  -5    0.72    0.96
  -1   7  -5    0.53    0.79
  -1   7  -5   -0.16    1.03
  -2   7  -5    4.06    1.23
  -2   7  -5    2.62    1.37
  -2   7  -5    4.76    1.12
   9   6  -5   18.27    1.92
   9   6  -5   20.01    2.09
   9   6  -5   19.82    1.93
   8   6  -5    1.35    0.93
   8   6  -5    1.55    0.99
   8   6  -5    2.61    1.03
   7   6  -5    1.41    0.90
   7   6  -5    1.62    0.89
   7   6  -5    2.13    0.89
   6   6  -5    0.34    0.70
   6   6  -5    1.44    0.87
   6   6  -5   -0.15    0.87
   5   6  -5   33.96    1.93
   5   6  -5   34.70    2.25
   5   6  -5   35.91    2.10
   4   6  -5   14.02    1.62
   4   6  -5   11.77    1.26
   3   6  -5   25.80    1.67
   3   6  -5   25.56    1.90
   2   6  -5   45.01    2.18
   2   6  -5   45.37    2.34
   1   6  -5   20.50    1.76
   1   6  -5   19.02    1.66
   1   6  -5   18.48    1.18
   0   6  -5   10.65    1.50
   0   6  -5   11.17    1.12
   0   6  -5   10.85    1.46
  -1   6  -5    2.95    1.00
  -1   6  -5    4.25    0.92
  -1   6  -5    2.66    1.03
  -2   6  -5    9.09    1.24
  -2   6  -5    8.38    1.47
  -2   6  -5    7.16    1.44
  -3   6  -5   10.45    1.65
  -3   6  -5   13.43    1.54
  -3   6  -5   14.75    1.84
  -4   6  -5   64.09    3.39
  -4   6  -5   62.10    2.77
 -10  -5   5   12.45    1.44
   9   5  -5   28.52    2.12
   9   5  -5   30.51    2.17
   9   5  -5   33.13    2.38
  -9  -5   5   28.47    1.65
   8   5  -5   42.11    2.53
   8   5  -5   38.15    2.29
   8   5  -5   40.07    2.33
  -8  -5   5   40.82    1.79
   7   5  -5   53.29    2.72
   7   5  -5   52.08    2.46
   7   5  -5   51.39    2.50
  -7  -5   5   49.66    1.84
   6   5  -5    1.17    0.78
   6   5  -5    3.38    1.01
   6   5  -5    2.41    0.89
   5   5  -5   12.49    1.30
   5   5  -5   13.58    1.44
   5   5  -5   15.33    1.59
   4   5  -5    0.70    0.78
   4   5  -5    1.26    0.73
   4   5  -5    0.62    0.62
   4   5  -5    0.78    0.73
   3   5  -5   39.71    2.10
   3   5  -5   38.29    1.85
   3   5  -5   37.85    1.76
   2   5  -5   40.48    1.97
   2   5  -5   41.33    2.11
   1   5  -5   81.03    2.94
   1   5  -5   76.62    2.84
   0   5  -5   42.26    2.17
   0   5  -5   43.37    1.68
   0   5  -5   41.82    2.17
  -1   5  -5    2.53    0.87
  -1   5  -5    1.20    0.80
  -1   5  -5    3.20    0.83
  -2   5  -5    1.11    0.75
  -2   5  -5    2.23    0.98
  -2   5  -5    1.13    0.91
  -3   5  -5    6.62    1.35
  -3   5  -5    6.52    1.28
  -3   5  -5    7.72    1.19
  -4   5  -5   33.66    2.41
  -4   5  -5   36.31    2.08
  -5   5  -5   23.68    2.26
  -5   5  -5   23.05    2.00
  10   4  -5    7.09    1.45
  10   4  -5    5.47    1.27
 -10  -4   5    8.22    1.18
   9   4  -5   34.05    2.20
   9   4  -5   30.33    2.26
   9   4  -5   28.57    2.08
  -9  -4   5   32.30    1.72
   8   4  -5  142.02    4.31
   8   4  -5  131.15    4.29
   8   4  -5  141.60    4.66
  -8  -4   5  130.85    3.42
   7   4  -5   45.88    2.26
   7   4  -5   46.79    2.28
   7   4  -5   47.32    2.52
  -7  -4   5   45.08    1.75
   6   4  -5   14.97    1.39
   6   4  -5   16.71    1.49
   6   4  -5   16.35    1.56
  -6  -4   5   14.19    0.99
   5   4  -5    8.07    1.15
   5   4  -5    9.44    1.34
   5   4  -5    7.30    1.07
   4   4  -5   76.24    2.54
   4   4  -5   76.09    2.74
   4   4  -5   77.01    2.52
   4   4  -5   80.68    2.98
   3   4  -5   41.24    1.77
   3   4  -5   40.86    1.92
   3   4  -5   40.23    1.75
   3   4  -5   40.59    2.03
   2   4  -5  222.54    5.67
   2   4  -5  226.99    4.97
   2   4  -5  225.26    5.48
   1   4  -5  129.63    3.71
   1   4  -5  128.10    3.75
   0   4  -5   38.79    1.91
   0   4  -5   39.82    1.49
   0   4  -5   38.36    1.97
  -1   4  -5   28.54    1.75
  -1   4  -5   28.40    1.68
  -1   4  -5   27.55    1.42
  -2   4  -5    7.09    1.08
  -2   4  -5    7.38    1.17
  -2   4  -5    6.55    0.98
   2  -4   5    6.02    0.91
  -3   4  -5   25.39    1.75
  -3   4  -5   28.19    1.67
  -3   4  -5   29.62    2.02
   3  -4   5   28.58    1.57
  -4   4  -5   47.78    2.19
  -4   4  -5   43.48    2.47
   4  -4   5   44.00    2.05
  -5   4  -5   63.59    3.13
  -5   4  -5   69.45    2.78
   5  -4   5   65.70    2.67
  -6   4  -5   56.43    2.68
  -6   4  -5   55.86    3.01
   6  -4   5   51.46    2.54
  10   3  -5    8.45    1.40
  10   3  -5   10.47    1.57
 -10  -3   5    9.98    1.31
   9   3  -5   43.38    2.37
   9   3  -5   39.66    2.33
  -9  -3   5   41.41    1.86
   8   3  -5   61.22    2.69
   8   3  -5   60.67    2.70
   8   3  -5   59.80    2.85
  -8  -3   5   61.58    2.16
   7   3  -5   81.06    2.98
   7   3  -5   77.86    2.97
   7   3  -5   82.92    3.28
  -7  -3   5   82.19    2.40
   6   3  -5   24.93    1.64
   6   3  -5   22.53    1.69
   6   3  -5   25.01    1.58
  -6  -3   5   23.55    1.16
   5   3  -5    5.85    0.99
   5   3  -5    7.25    1.17
   5   3  -5    7.56    1.05
  -5  -3   5    6.66    0.73
   4   3  -5    5.54    1.00
   4   3  -5    3.85    0.83
   4   3  -5    5.50    0.82
   4   3  -5    4.47    0.86
  -4  -3   5    4.91    0.57
   3   3  -5   29.53    1.65
   3   3  -5   31.42    1.48
   3   3  -5   28.82    1.57
   3   3  -5   29.73    1.46
   2   3  -5  187.53    4.16
   2   3  -5  183.05    4.73
   2   3  -5  180.19    4.54
   2   3  -5  185.19    4.56
   1   3  -5   79.23    2.19
   1   3  -5   78.94    2.61
   1   3  -5   77.24    2.59
   0   3  -5   19.43    1.40
   0   3  -5   18.72    1.04
   0   3  -5   19.85    1.30
   0  -3   5   20.32    0.96
  -1   3  -5   10.34    0.97
  -1   3  -5    9.68    1.04
  -1   3  -5    9.91    1.12
   1  -3   5    7.92    0.77
  -2   3  -5    3.77    0.77
  -2   3  -5    2.10    0.72
  -2   3  -5    2.26    0.78
   2  -3   5    1.57    0.60
  -3   3  -5    8.20    1.04
  -3   3  -5    6.27    1.09
  -3   3  -5    5.99    0.99
   3  -3   5    4.80    0.88
  -4   3  -5   16.19    1.43
  -4   3  -5   19.36    1.68
   4  -3   5   18.36    1.33
  -5   3  -5   23.14    1.72
  -5   3  -5   19.25    1.84
   5  -3   5   19.84    1.52
  -6   3  -5    1.94    1.02
  -6   3  -5    2.19    1.07
   6  -3   5    1.09    0.83
  -7   3  -5   11.60    1.73
  -7   3  -5    7.65    1.35
  -7   3  -5   10.18    1.56
   7  -3   5   11.72    1.63
  10   2  -5   11.92    1.72
  10   2  -5   12.45    1.69
 -10  -2   5   13.68    1.45
   9   2  -5   34.96    2.13
   9   2  -5   33.09    2.16
  -9  -2   5   31.97    1.70
   8   2  -5   49.91    2.45
   8   2  -5   53.70    2.47
  -8  -2   5   51.84    1.98
   7   2  -5  209.61    5.60
   7   2  -5  214.79    5.37
  -7  -2   5  211.64    4.51
   6   2  -5    7.41    1.06
   6   2  -5   13.48    1.26
   6   2  -5   13.16    1.39
  -6  -2   5   12.10    0.94
   5   2  -5   15.71    1.40
   5   2  -5   19.05    1.34
   5   2  -5   17.60    1.32
  -5  -2   5   16.52    0.93
   4   2  -5    1.59    0.68
   4   2  -5    1.82    0.76
   4   2  -5    2.55    0.69
  -4  -2   5    2.92    0.45
   3   2  -5   74.28    2.31
   3   2  -5   72.83    2.41
   3   2  -5   77.79    2.29
   3   2  -5   75.79    2.57
   2   2  -5   43.84    1.57
   2   2  -5   44.44    1.74
   2   2  -5   43.24    1.80
   2   2  -5   43.94    1.70
   1   2  -5  211.69    5.03
   1   2  -5  214.69    4.40
   1   2  -5  209.67    5.03
   0   2  -5   42.29    1.80
   0   2  -5   42.86    1.67
   0   2  -5   40.89    1.34
   0  -2   5   38.92    1.26
  -1   2  -5   11.04    1.13
  -1   2  -5    8.23    0.85
  -1   2  -5   11.29    0.94
   1  -2   5    8.95    0.80
  -2   2  -5   23.14    1.24
  -2   2  -5   23.43    1.23
  -2   2  -5   24.33    1.52
   2  -2   5   24.96    1.21
  -3   2  -5    1.88    0.67
  -3   2  -5    3.05    0.66
  -3   2  -5    1.86    0.76
   3  -2   5    1.37    0.58
  -4   2  -5   16.53    1.37
  -4   2  -5   17.54    1.53
   4  -2   5   19.10    1.31
  -5   2  -5   33.31    1.85
  -5   2  -5   30.30    1.96
   5  -2   5   29.69    1.68
  -6   2  -5   35.97    1.97
  -6   2  -5   35.14    2.24
  -6   2  -5   41.79    2.15
   6  -2   5   36.01    1.99
  -7   2  -5   27.72    1.93
  -7   2  -5   31.75    2.08
  -7   2  -5   27.91    2.17
   7  -2   5   33.22    2.04
  10   1  -5    0.46    0.75
  10   1  -5    0.22    0.88
 -10  -1   5    0.43    0.62
   9   1  -5   17.38    1.84
   9   1  -5   18.56    2.06
  -9  -1   5   15.90    1.31
   8   1  -5   34.25    2.14
   8   1  -5   35.10    2.01
  -8  -1   5   37.18    1.68
   7   1  -5   48.50    2.20
   7   1  -5   41.24    2.29
  -7  -1   5   48.35    1.79
   6   1  -5   34.89    1.78
   6   1  -5   32.95    1.83
  -6  -1   5   33.38    1.40
   5   1  -5   65.42    2.54
   5   1  -5   61.85    2.29
   5   1  -5   63.28    2.24
  -5  -1   5   65.44    1.81
   4   1  -5    1.17    0.62
   4   1  -5    0.65    0.59
   4   1  -5    1.01    0.51
  -4  -1   5    0.66    0.32
   3   1  -5   29.96    1.48
   3   1  -5   30.11    1.33
   3   1  -5   31.45    1.41
  -3  -1   5   29.67    0.90
   2   1  -5    2.44    0.59
   2   1  -5    1.69    0.50
   2   1  -5    1.94    0.57
   2   1  -5    2.11    0.56
   1   1  -5  104.30    2.46
   1   1  -5  104.69    2.87
   1   1  -5  100.51    2.85
   1   1  -5  102.84    2.74
   0   1  -5   28.78    1.39
   0   1  -5   27.05    1.00
   0   1  -5   26.03    1.03
   0   1  -5   25.52    1.22
   0  -1   5   27.72    1.01
   0  -1   5   26.53    0.95
  -1   1  -5    6.43    0.78
   1  -1   5    6.79    0.75
  -2   1  -5   39.99    1.75
  -2   1  -5   34.44    1.44
   2  -1   5   34.92    1.38
  -3   1  -5    5.08    0.96
  -3   1  -5    5.37    0.86
   3  -1   5    6.96    0.90
  -4   1  -5   11.46    1.22
  -4   1  -5   11.19    0.78
  -4   1  -5   12.13    1.29
   4  -1   5   11.44    1.07
  -5   1  -5   16.66    1.47
  -5   1  -5   15.90    0.99
  -5   1  -5   15.38    1.37
  -5   1  -5   18.57    1.35
   5  -1   5   16.33    1.28
  -6   1  -5   42.44    2.23
  -6   1  -5   41.89    2.11
  -6   1  -5   40.73    2.00
  -6   1  -5   39.05    1.58
   6  -1   5   39.33    1.97
  -7   1  -5    0.68    0.77
  -7   1  -5    0.22    0.87
  -7   1  -5    0.32    0.86
   7  -1   5    1.90    0.83
  -8   1  -5   58.21    2.74
  -8   1  -5   57.21    2.91
  -8   1  -5   54.43    2.63
   8  -1   5   53.89    2.58
  10   0  -5   15.68    1.60
  10   0  -5   15.29    1.91
 -10   0   5   17.37    1.48
   9   0  -5    1.38    0.85
   9   0  -5    0.27    0.90
  -9   0   5    2.64    0.80
   8   0  -5    1.97    0.77
   8   0  -5    0.21    0.87
  -8   0   5    2.69    0.71
   7   0  -5   40.42    2.27
   7   0  -5   44.59    2.13
  -7   0   5   47.79    1.80
   6   0  -5  112.35    3.57
   6   0  -5  114.72    3.35
  -6   0   5  122.94    2.92
   5   0  -5   49.25    2.03
   5   0  -5   45.90    1.89
  -5   0   5   49.29    1.57
   4   0  -5  168.70    4.20
   4   0  -5  165.81    3.96
  -4   0   5  167.92    3.33
   3   0  -5   71.95    2.09
   3   0  -5   70.58    2.18
   3   0  -5   70.36    2.34
  -3   0   5   68.32    1.61
   2   0  -5    7.24    0.83
   2   0  -5    9.86    0.82
   2   0  -5    9.76    0.77
   2   0  -5    7.18    0.87
   1   0  -5   23.67    0.80
   1   0  -5   19.33    0.89
   1   0  -5   20.41    1.08
   1   0  -5   20.77    1.02
   1   0  -5   20.87    1.14
  -1   0   5   21.64    0.72
   0   0  -5  306.93    5.39
   0   0  -5  303.94    5.64
   0   0  -5  309.58    6.64
   0   0  -5  317.93    6.24
   0   0  -5  294.70    6.40
   0   0   5  290.72    6.46
   0   0   5  301.69    5.37
  -1   0  -5  249.88    5.61
  -1   0  -5  241.34    5.24
  -1   0  -5  247.25    4.63
   1   0   5  246.61    4.61
  -2   0  -5  272.80    6.10
  -2   0  -5  262.83    5.14
   2   0   5  269.24    5.16
  -3   0  -5  229.88    4.68
  -3   0  -5  228.21    5.44
  -3   0  -5  231.48    4.09
   3   0   5  225.46    4.66
  -4   0  -5  122.48    2.63
  -4   0  -5  119.11    3.49
  -4   0  -5  123.24    3.13
   4   0   5  125.06    3.13
  -5   0  -5    1.06    0.62
  -5   0  -5    2.18    0.79
  -5   0  -5    0.85    0.48
  -5   0  -5    0.98    0.70
   5   0   5    1.23    0.63
  -6   0  -5   31.66    1.40
  -6   0  -5   29.49    1.73
  -6   0  -5   33.80    1.89
  -6   0  -5   31.51    1.70
   6   0   5   32.77    1.73
  -7   0  -5   61.50    2.50
  -7   0  -5   63.12    2.17
  -7   0  -5   63.08    2.75
  -7   0  -5   65.32    2.59
   7   0   5   64.25    2.53
  -8   0  -5   69.78    2.81
  -8   0  -5   70.58    2.86
  -8   0  -5   71.74    3.05
  -8   0  -5   67.74    2.37
   8   0   5   69.45    2.77
  -9   0  -5   33.78    2.24
  -9   0  -5   30.03    2.02
  -9   0  -5   24.53    1.72
   9   0   5   28.62    2.02
  10  -1  -5   31.35    1.69
  10  -1  -5   31.28    2.32
  10  -1  -5   32.12    2.13
 -10   1   5   30.78    1.93
   9  -1  -5   29.49    1.54
   9  -1  -5   29.79    1.92
   9  -1  -5   27.51    2.13
  -9   1   5   31.43    1.78
   8  -1  -5    1.53    0.97
   8  -1  -5    4.42    0.74
   8  -1  -5    3.04    0.86
  -8   1   5    3.81    0.79
   7  -1  -5   20.37    1.62
   7  -1  -5   21.25    1.11
   7  -1  -5   21.40    1.53
  -7   1   5   23.59    1.33
   6  -1  -5    6.20    1.03
   6  -1  -5    5.99    0.92
   6  -1  -5    7.32    0.69
  -6   1   5    8.23    0.93
   5  -1  -5   78.64    2.65
   5  -1  -5   75.67    1.90
   5  -1  -5   77.45    2.49
  -5   1   5   74.96    2.10
   4  -1  -5  190.70    4.39
   4  -1  -5  194.94    3.68
   4  -1  -5  190.34    4.66
  -4   1   5  196.00    3.84
   3  -1  -5   50.17    1.76
   3  -1  -5   50.08    1.68
  -3   1   5   49.76    1.25
  -3   1   5   49.05    1.36
   2  -1  -5   35.86    1.00
   2  -1  -5   35.45    1.33
   2  -1  -5   34.68    1.29
  -2   1   5   35.10    0.98
   1  -1  -5    1.17    0.52
   1  -1  -5    1.34    0.42
   1  -1  -5    1.86    0.55
   0  -1  -5  307.42    5.36
   0  -1  -5  296.74    6.27
   0  -1  -5  290.27    5.57
   0  -1  -5  297.02    6.33
   0  -1  -5  308.61    6.56
   0  -1  -5  308.23    6.01
   0   1   5  298.87    6.57
   0   1   5  305.96    5.34
  -1  -1  -5  112.58    2.49
  -1  -1  -5  117.56    3.07
  -1  -1  -5  113.23    2.93
   1   1   5  117.82    2.49
  -2  -1  -5  194.28    4.44
  -2  -1  -5  190.48    3.85
  -2  -1  -5  193.71    4.54
   2   1   5  190.55    3.82
  -3  -1  -5   67.20    2.17
  -3  -1  -5   65.52    1.91
  -3  -1  -5   66.57    2.15
   3   1   5   67.78    1.91
  -4  -1  -5    2.78    0.66
  -4  -1  -5    4.49    0.73
  -4  -1  -5    3.77    0.77
   4   1   5    3.27    0.68
  -5  -1  -5    6.46    0.79
  -5  -1  -5    6.49    0.96
  -5  -1  -5    7.24    0.98
  -5  -1  -5    8.37    0.99
   5   1   5    7.26    0.97
  -6  -1  -5   56.74    1.87
  -6  -1  -5   56.89    2.15
  -6  -1  -5   61.66    2.32
  -6  -1  -5   57.42    2.17
   6   1   5   55.83    2.13
  -7  -1  -5   72.58    2.62
  -7  -1  -5   68.46    2.67
  -7  -1  -5   69.56    2.53
  -7  -1  -5   70.08    2.28
   7   1   5   71.55    2.58
  -8  -1  -5   24.57    1.82
  -8  -1  -5   27.15    1.56
  -8  -1  -5   27.15    2.05
  -8  -1  -5   24.33    1.67
   8   1   5   25.14    1.73
  -9  -1  -5   46.41    2.14
  -9  -1  -5   47.67    2.46
  -9  -1  -5   45.86    2.32
   9   1   5   49.99    2.43
   9  -2  -5   41.00    2.22
   9  -2  -5   37.41    2.38
   9  -2  -5   37.96    1.78
  -9   2   5   39.21    2.00
   8  -2  -5    2.83    0.72
   8  -2  -5    2.83    0.99
   8  -2  -5    2.76    0.91
  -8   2   5    3.10    0.85
  -8   2   5    2.72    0.78
   7  -2  -5    8.83    1.21
   7  -2  -5   10.10    1.38
   7  -2  -5    9.39    0.90
  -7   2   5   11.28    1.21
   6  -2  -5   72.51    2.70
   6  -2  -5   74.78    2.12
   6  -2  -5   73.29    2.54
  -6   2   5   69.23    2.24
   5  -2  -5  230.86    5.59
   5  -2  -5  235.59    4.58
   5  -2  -5  228.07    5.26
  -5   2   5  223.47    4.52
  -5   2   5  231.56    4.70
   4  -2  -5  174.64    4.30
   4  -2  -5  172.65    4.05
   4  -2  -5  170.32    3.46
  -4   2   5  164.29    3.44
  -4   2   5  166.29    3.55
   3  -2  -5  347.25    6.18
   3  -2  -5  345.54    7.26
  -3   2   5  348.21    6.17
   2  -2  -5   97.33    2.12
   2  -2  -5   99.43    2.54
  -2   2   5   95.90    2.10
   1  -2  -5    7.96    0.64
   1  -2  -5    6.38    0.73
  -1   2   5    7.80    0.49
  -1   2   5    7.20    0.82
  -1  -2  -5   83.53    2.35
  -1  -2  -5   88.60    2.46
  -1  -2  -5   82.96    2.01
   1   2   5   89.44    2.01
  -2  -2  -5  319.76    6.82
  -2  -2  -5  324.22    5.94
  -2  -2  -5  335.72    7.01
   2   2   5  319.52    5.91
  -3  -2  -5  120.30    3.10
  -3  -2  -5  115.11    3.09
  -3  -2  -5  116.95    2.73
   3   2   5  117.72    2.72
  -4  -2  -5   69.08    2.20
  -4  -2  -5   69.22    2.25
  -4  -2  -5   67.77    2.01
   4   2   5   67.90    2.00
  -5  -2  -5   22.51    1.37
  -5  -2  -5   21.45    1.27
  -5  -2  -5   22.27    1.28
  -5  -2  -5   21.04    1.18
   5   2   5   22.42    1.22
  -6  -2  -5    1.76    0.70
  -6  -2  -5    2.15    0.63
  -6  -2  -5    3.03    0.75
  -6  -2  -5    2.69    0.69
   6   2   5    3.60    0.74
  -7  -2  -5    6.88    0.97
  -7  -2  -5    8.61    1.07
  -7  -2  -5    7.05    0.98
  -7  -2  -5    9.16    1.10
  -7  -2  -5    7.17    1.11
   7   2   5    8.28    1.15
  -8  -2  -5   45.60    2.15
  -8  -2  -5   43.61    2.03
  -8  -2  -5   46.43    1.97
   8   2   5   42.62    2.08
  -9  -2  -5   23.93    1.67
  -9  -2  -5   20.52    1.76
  -9  -2  -5   21.12    1.58
   9   2   5   24.95    1.77
   9  -3  -5    5.40    1.32
   9  -3  -5    8.59    1.46
   9  -3  -5    5.29    1.04
   8  -3  -5    7.78    1.33
   8  -3  -5    5.79    0.98
   8  -3  -5    5.72    1.19
  -8   3   5    5.86    1.06
   7  -3  -5    9.90    1.10
   7  -3  -5   11.72    1.42
   7  -3  -5    9.11    1.23
   6  -3  -5   40.83    1.60
   6  -3  -5   39.36    1.93
   5  -3  -5   27.07    1.23
  -5   3   5   25.02    1.17
   4  -3  -5   52.45    1.64
  -4   3   5   53.51    1.65
   3  -3  -5  144.19    3.09
  -3   3   5  142.61    3.06
   2  -3  -5    2.13    0.55
   2  -3  -5    2.44    0.47
  -2   3   5    2.22    0.43
  -2   3   5    2.34    0.68
   1  -3  -5    1.33    0.37
   1  -3  -5    1.11    0.40
   1  -3  -5    1.98    0.44
  -1   3   5    1.69    0.37
  -1   3   5    1.04    0.57
   0  -3  -5   44.01    1.34
   0  -3  -5   55.66    1.56
   0  -3  -5   45.21    1.60
   0   3   5   44.27    1.71
   0   3   5   45.09    1.30
  -1  -3  -5   88.55    2.32
  -1  -3  -5   88.93    2.06
  -1  -3  -5   89.28    2.46
   1   3   5   90.08    2.06
   1   3   5   86.71    2.55
  -2  -3  -5   53.08    1.71
  -2  -3  -5   50.97    1.81
  -2  -3  -5   48.19    1.50
   2   3   5   50.66    1.48
  -3  -3  -5   90.39    2.62
  -3  -3  -5   92.82    2.51
  -3  -3  -5   88.11    2.23
   3   3   5   87.48    2.21
  -4  -3  -5    6.72    0.79
  -4  -3  -5    7.69    0.94
  -4  -3  -5    7.32    0.81
   4   3   5    7.44    0.70
  -5  -3  -5    2.45    0.62
  -5  -3  -5    2.40    0.56
  -5  -3  -5    3.36    0.72
   5   3   5    2.71    0.60
  -6  -3  -5    6.66    0.91
  -6  -3  -5    6.12    0.80
  -6  -3  -5    5.48    0.87
   6   3   5    7.41    0.93
  -7  -3  -5    0.53    0.59
  -7  -3  -5    1.24    0.64
  -7  -3  -5    0.72    0.55
   7   3   5    0.37    0.54
  -8  -3  -5   17.89    1.44
  -8  -3  -5   16.17    1.30
  -8  -3  -5   18.87    1.47
   8   3   5   16.77    1.37
  -9  -3  -5    7.63    1.15
  -9  -3  -5    6.52    1.20
  -9  -3  -5    7.93    1.32
   9   3   5    7.48    1.24
 -10  -3  -5   23.68    1.73
 -10  -3  -5   23.34    1.77
  10   3   5   24.05    1.85
   8  -4  -5    9.16    1.38
   8  -4  -5   11.44    1.36
  -8   4   5   10.77    1.42
   7  -4  -5    1.70    0.65
   7  -4  -5    1.04    0.60
  -7   4   5    0.61    0.64
   6  -4  -5    3.03    0.71
   5  -4  -5   19.44    1.14
  -5   4   5   19.41    1.11
   4  -4  -5   70.49    2.10
  -4   4   5   73.21    2.09
   3  -4  -5   20.67    1.06
  -3   4   5   21.71    1.50
  -3   4   5   22.01    1.06
   2  -4  -5   72.66    1.95
  -2   4   5   74.43    1.92
  -2   4   5   71.72    2.57
   1  -4  -5   88.07    2.34
   1  -4  -5   88.36    2.14
  -1   4   5   88.76    2.83
  -1   4   5   86.79    2.11
   0  -4  -5   29.47    1.31
   0  -4  -5   30.33    1.12
   0   4   5   26.78    1.03
   0   4   5   28.08    1.39
  -1  -4  -5  106.87    2.93
  -1  -4  -5  110.33    2.49
  -1  -4  -5  118.21    2.90
   1   4   5  111.24    2.49
  -2  -4  -5   32.83    1.42
  -2  -4  -5   22.91    1.38
  -2  -4  -5   31.20    1.18
   2   4   5   30.79    1.14
  -3  -4  -5  116.29    2.73
  -3  -4  -5  119.67    3.17
   3   4   5  117.12    2.71
  -4  -4  -5  120.27    3.01
  -4  -4  -5  118.74    2.83
  -4  -4  -5  117.18    3.23
   4   4   5  116.59    2.82
  -5  -4  -5  108.45    3.11
  -5  -4  -5  110.19    2.75
   5   4   5  102.26    2.68
  -6  -4  -5   54.75    1.81
  -6  -4  -5   58.28    2.26
  -6  -4  -5   57.54    1.99
   6   4   5   58.79    1.97
  -7  -4  -5   34.47    1.55
  -7  -4  -5   34.89    1.64
  -7  -4  -5   36.62    1.84
   7   4   5   36.57    1.66
  -8  -4  -5   15.63    1.50
  -8  -4  -5   13.19    1.37
  -8  -4  -5   12.53    1.15
   8   4   5   13.44    1.41
  -9  -4  -5    8.76    1.16
  -9  -4  -5   10.37    1.51
   9   4   5    8.79    1.27
 -10  -4  -5   22.22    1.63
 -10  -4  -5   24.09    1.80
  10   4   5   19.64    1.70
   8  -5  -5    3.23    0.88
   8  -5  -5    1.76    0.89
  -8   5   5    1.86    0.87
   7  -5  -5    4.05    0.75
  -7   5   5    5.56    1.12
   6  -5  -5    2.66    0.70
  -6   5   5    2.58    0.83
  -6   5   5    2.79    0.72
   5  -5  -5    7.56    0.97
  -5   5   5    7.25    1.28
  -5   5   5    9.76    0.94
   4  -5  -5    1.35    0.56
  -4   5   5    0.34    0.44
  -4   5   5    1.07    0.81
   3  -5  -5   31.75    1.37
  -3   5   5   31.98    1.86
  -3   5   5   31.59    1.35
   2  -5  -5   75.03    2.14
  -2   5   5   77.51    2.82
  -2   5   5   82.01    2.17
   1  -5  -5   26.18    1.37
   1  -5  -5   29.75    1.22
  -1   5   5   28.12    1.16
  -1   5   5   28.91    1.57
   0  -5  -5   59.83    2.03
   0  -5  -5   59.93    1.74
   0   5   5   61.79    2.21
   0   5   5   62.11    1.73
  -2  -5  -5   32.17    1.44
  -2  -5  -5   31.48    1.25
   2   5   5   29.09    1.17
  -3  -5  -5   31.48    1.24
  -3  -5  -5   26.40    1.48
  -3  -5  -5   31.23    1.48
   3   5   5   29.55    1.17
  -4  -5  -5  131.20    3.00
  -4  -5  -5  127.08    3.49
   4   5   5  125.71    2.97
  -5  -5  -5  131.94    3.62
  -5  -5  -5  132.52    3.14
   5   5   5  126.10    3.08
  -6  -5  -5   34.35    1.75
  -6  -5  -5   31.88    1.52
   6   5   5   30.14    1.45
  -7  -5  -5   14.88    1.44
  -7  -5  -5   20.15    1.30
  -7  -5  -5   16.19    1.03
   7   5   5   19.86    1.23
  -8  -5  -5    1.73    0.73
  -8  -5  -5    0.71    0.53
  -8  -5  -5    0.40    0.75
   8   5   5    1.82    0.63
  -9  -5  -5   34.61    1.73
   9   5   5   32.93    1.77
 -10  -5  -5   36.61    2.03
  10   5   5   35.54    1.97
   7  -6  -5   41.92    2.06
  -7   6   5   43.05    2.65
  -7   6   5   39.48    2.35
   6  -6  -5   22.84    1.56
  -6   6   5   25.94    2.05
  -6   6   5   23.68    1.58
  -6   6   5   26.05    1.89
   5  -6  -5   10.30    1.28
  -5   6   5    9.86    1.38
  -5   6   5   11.13    1.60
  -5   6   5    9.01    1.17
   4  -6  -5    0.24    0.53
  -4   6   5    1.52    0.83
  -4   6   5    0.76    0.54
   3  -6  -5  124.23    3.22
  -3   6   5  123.48    4.03
  -3   6   5  129.60    3.22
   2  -6  -5   28.18    1.35
  -2   6   5   27.64    1.76
  -2   6   5   28.82    1.32
   1  -6  -5  363.05    6.91
   1  -6  -5  382.32    7.74
  -1   6   5  362.08    6.88
  -1   6   5  357.72    8.50
   0  -6  -5  245.46    4.92
   0  -6  -5  257.13    5.62
   0   6   5  238.81    6.02
   0   6   5  249.24    4.93
  -1  -6  -5   52.88    2.00
  -1  -6  -5   53.85    1.70
   1   6   5   53.33    1.66
  -2  -6  -5   81.95    2.55
  -2  -6  -5   83.36    2.60
   2   6   5   81.74    2.14
  -3  -6  -5    8.49    0.95
  -3  -6  -5    9.12    1.05
  -3  -6  -5    9.20    0.82
   3   6   5    9.07    0.77
  -4  -6  -5   69.65    2.00
  -4  -6  -5   71.21    2.47
  -4  -6  -5   68.14    2.43
   4   6   5   67.14    1.97
  -5  -6  -5  183.14    4.66
  -5  -6  -5  186.47    4.01
  -5  -6  -5  178.65    4.80
   5   6   5  179.37    3.98
  -6  -6  -5  148.68    4.08
  -6  -6  -5  147.06    3.51
   6   6   5  144.17    3.49
  -7  -6  -5   32.02    1.56
  -7  -6  -5   32.71    1.86
   7   6   5   33.79    1.53
  -8  -6  -5    2.46    0.88
   8   6   5    3.62    0.79
  -9  -6  -5    0.19    0.84
   9   6   5   -0.17    0.64
  10   6   5   18.36    1.59
   7  -7  -5   21.21    1.71
  -7   7   5   25.04    2.06
   6  -7  -5   16.36    1.52
  -6   7   5   19.23    1.61
  -6   7   5   15.61    1.89
  -6   7   5   17.57    1.69
   5  -7  -5    6.11    1.14
  -5   7   5    5.34    1.33
  -5   7   5    5.49    1.18
  -5   7   5    4.62    1.16
   4  -7  -5    4.85    0.93
  -4   7   5    4.34    1.03
  -4   7   5    5.94    1.35
  -4   7   5    4.70    0.94
   3  -7  -5   32.25    1.62
  -3   7   5   32.60    2.01
  -3   7   5   35.41    1.64
   2  -7  -5   90.16    2.65
  -2   7   5   91.18    3.24
  -2   7   5   91.78    2.65
   1  -7  -5  191.58    4.29
   1  -7  -5  198.38    4.67
  -1   7   5  193.13    4.27
  -1   7   5  185.54    5.16
   0  -7  -5   58.06    2.16
   0  -7  -5   60.83    1.97
   0   7   5   57.01    1.90
  -1  -7  -5   42.15    1.86
  -1  -7  -5   44.41    1.64
   1   7   5   46.06    1.60
  -2  -7  -5   14.05    0.98
  -2  -7  -5   12.22    1.20
  -2  -7  -5   11.56    1.09
   2   7   5   11.46    0.86
  -3  -7  -5   59.90    2.25
  -3  -7  -5   60.83    2.35
   3   7   5   61.33    1.86
  -4  -7  -5   63.39    2.41
  -4  -7  -5   62.10    1.95
  -4  -7  -5   62.51    2.44
   4   7   5   65.35    1.95
  -5  -7  -5  118.39    2.94
  -5  -7  -5  113.06    3.60
  -5  -7  -5  120.62    3.60
   5   7   5  116.74    2.93
  -6  -7  -5  216.87    4.61
  -6  -7  -5  219.21    5.48
  -6  -7  -5  208.24    5.61
   6   7   5  214.06    4.61
  -7  -7  -5   28.34    1.79
  -7  -7  -5   24.89    1.76
  -7  -7  -5   24.77    1.42
   7   7   5   25.05    1.38
  -8  -7  -5    9.06    1.32
   8   7   5    8.10    1.07
  -9  -7  -5    0.45    0.88
   9   7   5    1.29    0.67
  10   7   5   13.97    1.33
   6  -8  -5   60.95    2.73
  -6   8   5   63.41    3.21
  -6   8   5   62.67    2.73
   5  -8  -5    5.86    1.15
  -5   8   5    4.96    1.10
  -5   8   5    8.23    1.64
  -5   8   5    7.53    1.38
   4  -8  -5   12.49    1.48
  -4   8   5   14.20    1.67
  -4   8   5   16.92    1.91
  -4   8   5   16.91    1.70
   3  -8  -5    1.37    0.81
  -3   8   5    2.11    1.01
  -3   8   5    1.19    0.73
  -3   8   5    1.61    0.87
   2  -8  -5   47.56    1.99
  -2   8   5   44.59    1.89
  -2   8   5   43.80    2.26
   1  -8  -5    6.62    1.04
   1  -8  -5    6.74    1.01
  -1   8   5    6.79    0.98
  -1   8   5    8.48    1.29
   0  -8  -5  117.36    3.12
   0  -8  -5  121.40    3.51
   0   8   5  118.00    3.08
  -1  -8  -5   60.42    2.05
  -1  -8  -5   61.42    2.41
   1   8   5   59.96    2.03
  -2  -8  -5   16.11    1.15
   2   8   5   16.93    1.08
  -3  -8  -5   18.18    1.42
  -3  -8  -5   10.54    1.34
  -3  -8  -5   18.18    1.20
   3   8   5   15.85    1.06
  -4  -8  -5    1.53    0.93
  -4  -8  -5    4.39    0.87
   4   8   5    5.28    0.75
   4   8   5    4.40    0.75
  -5  -8  -5    6.11    0.86
  -5  -8  -5    2.60    1.03
  -5  -8  -5    6.34    1.10
   5   8   5   10.45    0.93
  -6  -8  -5   46.53    1.80
  -6  -8  -5   45.55    2.27
  -6  -8  -5   45.78    2.29
   6   8   5   46.95    1.80
  -7  -8  -5   28.31    1.92
  -7  -8  -5   31.20    1.95
   7   8   5   28.64    1.46
  -8  -8  -5   13.12    1.57
  -8  -8  -5   11.22    1.57
   8   8   5   13.13    1.15
  -9  -8  -5    1.96    1.05
  -9  -8  -5    1.88    1.08
   9   8   5    3.62    0.86
 -10  -8  -5    7.87    1.65
  10   8   5    9.27    1.25
   5  -9  -5    1.02    0.83
  -5   9   5    1.01    0.94
  -5   9   5    2.12    0.97
   4  -9  -5    2.57    0.93
  -4   9   5    2.05    1.05
  -4   9   5    1.15    0.83
  -4   9   5    2.00    0.98
   3  -9  -5   12.40    1.48
  -3   9   5   12.38    1.63
  -3   9   5   10.65    1.57
  -3   9   5   14.00    1.49
   2  -9  -5    5.36    1.02
  -2   9   5    5.96    1.08
  -2   9   5    6.05    1.23
  -2   9   5    3.81    1.03
   1  -9  -5   53.24    2.26
   1  -9  -5   48.90    2.09
  -1   9   5   52.18    2.47
  -1   9   5   51.13    2.08
   0  -9  -5   56.41    2.34
   0  -9  -5   55.33    2.14
   0   9   5   55.15    2.10
  -1  -9  -5   20.72    1.36
  -1  -9  -5   17.30    1.53
   1   9   5   21.15    1.29
  -2  -9  -5   23.17    1.75
  -2  -9  -5   25.22    1.44
   2   9   5   26.83    1.43
  -3  -9  -5    8.17    1.27
  -3  -9  -5   12.33    1.17
   3   9   5   12.68    1.03
  -4  -9  -5    4.16    0.82
  -4  -9  -5    3.84    1.05
  -4  -9  -5    4.78    1.11
   4   9   5    5.11    0.90
   4   9   5    4.52    0.80
  -5  -9  -5    4.42    1.02
  -5  -9  -5    4.29    0.85
  -5  -9  -5    2.64    1.01
   5   9   5    3.86    0.82
   5   9   5    6.10    0.86
  -6  -9  -5   10.38    1.43
  -6  -9  -5    8.33    1.35
   6   9   5   10.02    1.00
  -7  -9  -5   58.89    2.71
  -7  -9  -5   57.71    2.73
   7   9   5   59.68    2.09
  -8  -9  -5   20.11    1.93
  -8  -9  -5   20.74    1.89
   8   9   5   20.12    1.39
  -9  -9  -5   32.69    2.30
  -9  -9  -5   31.10    2.28
   9   9   5   34.30    1.79
   3 -10  -5   12.49    1.57
  -3  10   5   13.77    1.89
  -3  10   5   12.04    1.54
   2 -10  -5    4.68    1.18
  -2  10   5    5.30    1.13
  -2  10   5    6.51    1.19
   1 -10  -5    1.51    0.86
   1 -10  -5    0.80    0.79
  -1  10   5    0.85    0.78
  -1  10   5    1.95    0.92
   0 -10  -5    0.98    0.84
   0 -10  -5    1.03    0.72
   0  10   5    0.81    0.73
   0  10   5    0.49    0.76
  -1 -10  -5   36.74    1.84
  -1 -10  -5   37.73    2.12
   1  10   5   36.11    2.02
   1  10   5   36.04    1.79
  -2 -10  -5   25.25    1.90
  -2 -10  -5   28.50    1.61
   2  10   5   29.99    1.77
   2  10   5   30.12    1.59
  -3 -10  -5   47.04    2.43
  -3 -10  -5   46.13    1.96
   3  10   5   48.12    1.95
   3  10   5   50.93    2.16
  -4 -10  -5   31.24    2.07
  -4 -10  -5   29.93    1.69
   4  10   5   29.26    1.52
   4  10   5   28.70    1.73
  -5 -10  -5   11.96    1.56
  -5 -10  -5   12.65    1.66
   5  10   5   10.53    1.22
   5  10   5   11.25    1.35
  -6 -10  -5    0.68    0.94
  -6 -10  -5    1.34    0.94
   6  10   5    1.85    0.67
  -7 -10  -5   10.84    1.70
  -7 -10  -5    7.58    1.41
   7  10   5    6.82    0.98
  -8 -10  -5   27.81    2.21
  -8 -10  -5   29.13    2.20
   8  10   5   27.81    1.57
  -9 -10  -5   40.44    2.65
  -9 -10  -5   41.38    2.62
   9  10   5   43.32    1.97
   2 -11  -5    1.79    1.03
  -2  11   5    2.28    0.93
  -2  11   5    1.56    0.98
   1 -11  -5    0.86    0.89
   1 -11  -5    1.61    0.97
  -1  11   5    0.10    0.90
  -1  11   5    1.56    0.92
   0 -11  -5   35.08    2.19
   0 -11  -5   29.79    1.94
   0  11   5   32.91    1.95
   0  11   5   38.50    2.32
  -1 -11  -5   61.77    2.48
  -1 -11  -5   65.23    2.88
   1  11   5   63.42    2.49
   1  11   5   62.94    2.82
  -2 -11  -5   22.66    1.60
  -2 -11  -5   23.62    1.96
   2  11   5   22.99    1.73
   2  11   5   22.69    1.56
  -3 -11  -5   68.92    3.04
   3  11   5   67.40    2.92
   3  11   5   69.92    2.70
   3  11   5   66.84    2.43
  -4 -11  -5   30.93    2.21
   4  11   5   27.10    1.59
   4  11   5   27.24    1.87
  -5 -11  -5    0.35    0.91
   5  11   5   -0.40    0.70
   5  11   5   -0.17    0.59
  -6 -11  -5    7.57    1.45
  -6 -11  -5    7.67    1.55
   6  11   5    7.78    1.07
  -7 -11  -5   26.39    2.28
  -7 -11  -5   25.91    2.19
   7  11   5   24.89    1.54
  -8 -11  -5   59.38    3.11
  -8 -11  -5   57.69    3.04
   8  11   5   59.78    2.30
   0 -12  -5    7.27    1.47
   0  12   5    8.52    1.41
   0  12   5    4.67    1.31
  -1 -12  -5   13.37    1.81
   1  12   5   12.48    1.73
   1  12   5   11.69    1.56
  -2 -12  -5   23.98    2.11
   2  12   5   24.11    1.92
   2  12   5   20.38    1.97
   2  12   5   24.38    1.71
  -3 -12  -5   48.51    2.70
   3  12   5   46.34    2.15
   3  12   5   42.70    2.50
  -4 -12  -5   18.76    2.08
   4  12   5   15.35    1.72
   4  12   5   20.06    1.47
  -5 -12  -5   13.15    1.98
   5  12   5   14.29    1.50
   5  12   5    9.64    1.56
  -6 -12  -5    6.81    1.58
   6  12   5    5.94    1.06
  -7 -12  -5   22.57    2.46
   7  12   5   18.59    1.48
   6   8  -6   29.48    2.58
   5   8  -6   20.55    2.37
   4   8  -6    1.33    1.22
   3   8  -6    1.93    1.17
   3   8  -6    3.42    1.39
   2   8  -6   20.66    2.32
   2   8  -6   17.71    1.94
   1   8  -6   48.82    3.05
   1   8  -6   38.74    2.64
   7   7  -6   23.96    2.09
   7   7  -6   28.80    2.35
   7   7  -6   22.53    1.97
   6   7  -6   52.74    2.88
   6   7  -6   57.84    3.16
   5   7  -6   35.43    2.57
   4   7  -6    0.15    1.07
   3   7  -6    0.67    1.10
   3   7  -6    0.84    0.85
   2   7  -6    5.34    1.46
   2   7  -6    2.60    1.02
   1   7  -6   40.30    2.46
   1   7  -6   47.51    2.78
   0   7  -6   38.29    1.88
   0   7  -6   34.90    2.43
   0   7  -6   40.15    2.66
  -1   7  -6   16.06    1.64
  -1   7  -6   12.97    1.90
  -1   7  -6   19.36    2.23
   8   6  -6   11.49    1.65
   8   6  -6   13.57    1.96
   8   6  -6   13.08    1.68
   7   6  -6   39.41    2.30
   7   6  -6   35.84    2.36
   7   6  -6   37.69    2.55
   6   6  -6   54.90    2.92
   6   6  -6   53.65    2.49
   6   6  -6   46.57    2.58
   5   6  -6   34.34    2.44
   5   6  -6   33.30    2.15
   5   6  -6   35.46    2.02
   4   6  -6   15.31    1.51
   4   6  -6   18.41    1.89
   3   6  -6    1.46    0.87
   3   6  -6    3.30    1.13
   2   6  -6   14.52    1.80
   2   6  -6   13.92    1.53
   1   6  -6    7.60    1.31
   1   6  -6    8.62    1.49
   0   6  -6   16.32    1.88
   0   6  -6    9.75    1.47
   0   6  -6   13.28    1.27
  -1   6  -6   51.85    2.71
  -1   6  -6   44.16    2.00
  -1   6  -6   44.75    2.61
  -2   6  -6   18.02    2.05
  -2   6  -6   16.17    1.53
  -2   6  -6   13.95    1.85
  -3   6  -6   18.31    1.70
  -3   6  -6   17.09    2.10
   9   5  -6    1.75    1.19
   9   5  -6    3.49    1.23
   9   5  -6    2.98    1.20
   8   5  -6    5.69    1.25
   8   5  -6    3.27    1.19
   8   5  -6    3.64    1.16
   7   5  -6   18.33    1.85
   7   5  -6   15.65    1.61
   7   5  -6   17.19    1.69
   6   5  -6    0.01    0.84
   6   5  -6    1.86    0.96
   6   5  -6    1.89    0.86
   5   5  -6   32.50    2.04
   5   5  -6   34.47    2.23
   5   5  -6   36.03    1.95
   4   5  -6   52.92    2.28
   4   5  -6   52.44    2.25
   4   5  -6   49.72    2.40
   4   5  -6   55.53    2.66
   3   5  -6   38.07    1.98
   3   5  -6   43.58    2.35
   2   5  -6    9.37    1.38
   2   5  -6    7.25    1.15
   1   5  -6    8.00    1.19
   1   5  -6   11.29    1.49
   0   5  -6    6.36    1.20
   0   5  -6    5.89    1.18
   0   5  -6    7.04    0.96
  -1   5  -6    0.77    0.76
  -1   5  -6    0.60    0.91
  -1   5  -6    0.29    0.94
  -2   5  -6   19.07    1.83
  -2   5  -6   16.93    1.48
  -2   5  -6   17.46    1.83
  -3   5  -6   42.90    2.66
  -3   5  -6   47.84    2.21
  -4   5  -6   11.04    1.77
  -4   5  -6   15.99    1.75
   9   4  -6   31.90    2.38
   9   4  -6   26.68    2.09
   9   4  -6   29.31    2.17
  -9  -4   6   31.38    1.68
   8   4  -6    1.64    1.10
   8   4  -6    2.91    1.01
   8   4  -6    4.31    1.16
   7   4  -6    1.04    0.91
   7   4  -6    0.58    0.88
   7   4  -6    0.87    0.79
   6   4  -6    1.68    0.93
   6   4  -6    1.24    0.80
   6   4  -6    1.74    0.85
   5   4  -6   17.35    1.45
   5   4  -6   16.58    1.46
   5   4  -6   17.42    1.59
   4   4  -6   42.41    2.12
   4   4  -6   42.11    1.97
   4   4  -6   42.44    2.28
   4   4  -6   42.27    1.94
   3   4  -6  106.20    3.45
   3   4  -6  105.13    3.30
   3   4  -6  113.34    3.16
   3   4  -6  113.43    3.71
   2   4  -6   82.54    2.89
   2   4  -6   85.20    2.58
   2   4  -6   82.40    3.03
   1   4  -6    1.23    0.74
   1   4  -6    2.56    0.88
   0   4  -6    1.77    0.68
   0   4  -6    2.02    0.80
   0   4  -6    2.98    0.94
  -1   4  -6    5.94    1.09
  -1   4  -6    5.72    1.08
  -1   4  -6    6.62    0.99
  -2   4  -6  132.37    3.99
  -2   4  -6  134.70    3.51
  -2   4  -6  131.04    4.29
  -3   4  -6   82.16    3.16
  -3   4  -6   75.33    3.32
  -3   4  -6   82.62    2.76
  -4   4  -6  142.42    4.86
  -4   4  -6  147.91    4.09
  -5   4  -6   28.11    2.31
  -5   4  -6   28.74    2.05
  10   3  -6   34.71    2.44
 -10  -3   6   37.47    1.93
   9   3  -6   32.02    2.22
   9   3  -6   29.98    2.17
  -9  -3   6   28.30    1.65
   8   3  -6   69.69    3.19
   8   3  -6   59.02    2.80
   8   3  -6   66.81    2.90
  -8  -3   6   63.74    2.22
   7   3  -6    4.80    1.26
   7   3  -6    3.28    0.98
   7   3  -6    4.53    1.06
  -7  -3   6    7.09    0.86
   6   3  -6    0.92    0.81
   6   3  -6   -0.37    0.57
   6   3  -6    1.17    0.77
  -6  -3   6    0.30    0.39
   5   3  -6   -0.47    0.67
   5   3  -6    0.20    0.66
   5   3  -6    0.27    0.77
   4   3  -6   31.18    1.74
   4   3  -6   31.90    1.68
   4   3  -6   30.71    1.59
   4   3  -6   29.95    1.85
   3   3  -6  147.59    4.00
   3   3  -6  144.17    4.25
   3   3  -6  140.72    4.02
   3   3  -6  148.47    3.74
   2   3  -6  116.48    3.45
   2   3  -6  114.36    3.07
   2   3  -6  119.92    3.64
   2   3  -6  116.34    3.46
   1   3  -6   18.88    1.46
   1   3  -6   23.63    1.23
   1   3  -6   20.69    1.49
   0   3  -6    1.58    0.57
   0   3  -6    1.98    0.71
   0   3  -6    1.10    0.75
  -1   3  -6   21.71    1.58
  -1   3  -6   23.54    1.48
  -1   3  -6   24.03    1.33
  -2   3  -6   13.68    1.25
  -2   3  -6   16.18    1.38
  -2   3  -6   17.22    1.52
  -3   3  -6   40.54    1.97
  -3   3  -6   42.76    2.34
  -3   3  -6   42.29    1.93
   3  -3   6   42.20    1.87
  -4   3  -6   81.00    2.84
  -4   3  -6   77.83    3.30
   4  -3   6   80.42    2.77
  -5   3  -6    5.96    1.34
  -5   3  -6    5.56    1.23
   5  -3   6    2.98    0.97
  -6   3  -6    0.69    1.05
  -6   3  -6    1.59    1.07
   6  -3   6    2.60    1.05
  10   2  -6   33.50    2.43
  10   2  -6   36.74    2.39
 -10  -2   6   34.63    1.90
   9   2  -6   46.54    2.55
   9   2  -6   44.52    2.57
  -9  -2   6   48.22    2.03
   8   2  -6   68.00    2.89
   8   2  -6   67.47    2.95
  -8  -2   6   70.14    2.34
   7   2  -6    3.97    0.96
   7   2  -6    4.76    1.00
  -7  -2   6    6.20    0.83
   6   2  -6    9.11    1.24
   6   2  -6    8.93    1.16
   6   2  -6    8.77    1.33
  -6  -2   6   11.11    0.90
   5   2  -6   47.07    2.34
   5   2  -6   47.05    2.06
   5   2  -6   45.93    2.10
  -5  -2   6   49.16    1.53
   4   2  -6  143.15    4.21
   4   2  -6  146.58    3.75
   4   2  -6  141.72    3.92
  -4  -2   6  136.90    2.81
   3   2  -6   92.32    2.86
   3   2  -6   93.27    2.70
   3   2  -6   86.04    2.95
   3   2  -6   91.26    2.80
   2   2  -6  201.60    4.49
   2   2  -6  204.31    5.15
   2   2  -6  198.01    4.89
   2   2  -6  203.19    5.02
   1   2  -6  152.60    3.46
   1   2  -6  147.41    4.03
   1   2  -6  150.08    4.04
   0   2  -6   13.74    0.98
   0   2  -6   14.21    1.15
   0   2  -6   15.68    1.29
   0  -2   6   12.73    0.83
  -1   2  -6    1.56    0.74
  -1   2  -6    2.54    0.65
  -1   2  -6    1.72    0.58
   1  -2   6    2.38    0.53
  -2   2  -6   35.42    1.56
  -2   2  -6   37.09    1.63
  -2   2  -6   35.28    1.88
   2  -2   6   37.39    1.52
  -3   2  -6   98.56    2.90
  -3   2  -6  100.18    3.41
  -3   2  -6  101.22    2.88
   3  -2   6   99.69    2.83
  -4   2  -6   53.14    2.19
  -4   2  -6   57.16    2.60
   4  -2   6   55.09    2.13
  -5   2  -6   50.81    2.33
  -5   2  -6   54.81    2.69
   5  -2   6   53.15    2.27
  -6   2  -6    7.81    1.46
  -6   2  -6   10.58    1.56
   6  -2   6    7.77    1.30
  -7   2  -6    2.25    1.18
  -7   2  -6    1.19    1.11
   7  -2   6    1.72    1.01
  10   1  -6   28.59    2.19
  10   1  -6   26.58    2.26
 -10  -1   6   27.69    1.74
   9   1  -6   57.03    2.95
   9   1  -6   53.08    2.69
  -9  -1   6   57.58    2.24
   8   1  -6   17.12    1.78
   8   1  -6   21.77    1.78
  -8  -1   6   18.21    1.31
   7   1  -6   23.03    1.72
   7   1  -6   20.20    1.67
  -7  -1   6   20.44    1.25
   6   1  -6    3.16    0.80
   6   1  -6    3.34    0.84
  -6  -1   6    3.46    0.62
   5   1  -6   27.25    1.59
   5   1  -6   26.91    1.55
   5   1  -6   25.55    1.76
  -5  -1   6   24.31    1.11
   4   1  -6   40.63    2.03
   4   1  -6   43.02    1.84
   4   1  -6   44.40    1.87
  -4  -1   6   41.26    1.25
   3   1  -6   46.38    1.84
   3   1  -6   44.47    1.72
   3   1  -6   40.58    1.89
   3   1  -6   43.05    1.77
  -3  -1   6   41.25    1.11
   2   1  -6   54.21    2.02
   2   1  -6   54.14    1.81
   2   1  -6   53.03    1.94
   2   1  -6   54.10    2.06
   1   1  -6   21.25    1.10
   1   1  -6   22.93    1.27
   1   1  -6   21.54    1.30
   1   1  -6   20.78    1.27
   0   1  -6    2.68    0.54
   0   1  -6    2.53    0.61
   0   1  -6    2.64    0.66
   0  -1   6    2.48    0.43
  -1   1  -6    3.79    0.63
  -1   1  -6    4.25    0.64
  -1   1  -6    4.15    0.82
   1  -1   6    3.73    0.58
  -2   1  -6   61.95    2.43
  -2   1  -6   61.83    1.95
   2  -1   6   67.07    1.98
  -3   1  -6    3.07    0.76
  -3   1  -6    2.31    0.79
   3  -1   6    3.68    0.73
  -4   1  -6   17.02    1.50
  -4   1  -6   17.11    1.35
   4  -1   6   18.74    1.27
  -5   1  -6   20.26    1.57
  -5   1  -6   21.35    1.70
   5  -1   6   20.26    1.42
  -6   1  -6    1.09    0.92
  -6   1  -6   -0.38    0.80
   6  -1   6    0.54    0.75
  -7   1  -6   13.06    1.72
  -7   1  -6   14.56    1.67
   7  -1   6   14.11    1.64
  -8   1  -6    1.74    1.13
  -8   1  -6    5.29    1.32
   8  -1   6    3.95    1.13
  10   0  -6   39.14    2.41
  10   0  -6   35.06    2.51
 -10   0   6   39.54    2.08
   9   0  -6   52.99    2.84
   9   0  -6   58.54    2.71
  -9   0   6   54.85    2.26
   8   0  -6   24.93    1.98
   8   0  -6   26.99    1.87
  -8   0   6   26.02    1.50
   7   0  -6   42.28    2.07
   7   0  -6   33.45    2.04
  -7   0   6   38.32    1.64
   6   0  -6    1.40    0.70
   6   0  -6    1.32    0.73
  -6   0   6    1.37    0.50
   5   0  -6    5.27    0.89
   5   0  -6    5.74    0.94
  -5   0   6    4.74    0.66
   4   0  -6   21.18    1.49
   4   0  -6   22.41    1.34
   4   0  -6   19.49    1.27
  -4   0   6   20.09    0.92
   3   0  -6  109.94    3.35
   3   0  -6  118.75    3.03
   3   0  -6  117.54    3.15
   2   0  -6    2.96    0.59
   2   0  -6    1.38    0.59
   2   0  -6    3.02    0.63
   2   0  -6    2.00    0.61
   1   0  -6   55.57    1.81
   1   0  -6   50.11    1.88
   1   0  -6   55.09    2.01
   1   0  -6   50.86    1.61
  -1   0   6   54.04    1.80
  -1   0   6   53.77    1.35
   0   0  -6   98.72    2.23
   0   0  -6   95.66    2.66
   0   0  -6   98.88    2.92
   0   0   6  100.00    2.20
   0   0   6   94.80    2.58
  -1   0  -6   31.06    1.52
  -1   0  -6   29.29    1.18
  -1   0  -6   28.56    1.25
   1   0   6   29.14    1.12
  -2   0  -6   31.78    1.32
  -2   0  -6   31.23    1.65
   2   0   6   30.78    1.27
  -3   0  -6    6.46    0.98
  -3   0  -6    4.85    0.79
   3   0   6    4.93    0.77
  -4   0  -6   72.74    1.86
  -4   0  -6   70.73    2.67
  -4   0  -6   72.15    2.32
   4   0   6   71.70    2.32
  -5   0  -6   44.30    1.96
  -5   0  -6   46.68    2.20
   5   0   6   43.89    1.91
  -6   0  -6   76.17    2.74
  -6   0  -6   76.43    2.98
   6   0   6   72.88    2.65
  -7   0  -6   62.71    2.62
  -7   0  -6   63.48    2.84
   7   0   6   60.97    2.57
  -8   0  -6   49.02    2.54
  -8   0  -6   48.71    2.71
   8   0   6   48.37    2.45
   9  -1  -6   17.34    2.02
   9  -1  -6   16.54    1.68
   9  -1  -6   13.81    1.15
  -9   1   6   16.25    1.40
   8  -1  -6   26.83    1.82
   8  -1  -6   23.70    1.88
  -8   1   6   23.47    1.50
   7  -1  -6    2.85    0.85
   7  -1  -6    3.36    0.94
  -7   1   6    4.25    0.82
   6  -1  -6   13.43    1.25
   6  -1  -6   15.39    1.32
  -6   1   6   12.46    1.01
   5  -1  -6   63.53    2.26
   5  -1  -6   61.31    2.37
  -5   1   6   60.93    1.88
   4  -1  -6    8.02    0.99
   4  -1  -6    6.58    0.95
  -4   1   6    8.39    0.79
   3  -1  -6   11.17    0.94
   3  -1  -6   10.97    0.97
   2  -1  -6   34.91    1.06
   2  -1  -6   38.22    1.46
   2  -1  -6   37.41    1.42
  -2   1   6   35.35    1.05
   1  -1  -6   40.30    1.39
   1  -1  -6   42.72    1.49
   1  -1  -6   41.61    1.21
   1  -1  -6   39.62    1.60
   1  -1  -6   41.74    1.70
  -1   1   6   43.02    1.18
  -1   1   6   42.73    1.64
   0  -1  -6   19.71    0.99
   0  -1  -6   16.93    0.90
   0  -1  -6   15.45    1.12
   0  -1  -6   13.10    0.78
   0  -1  -6   12.19    0.96
   0   1   6   18.75    0.81
   0   1   6   17.08    1.04
  -1  -1  -6  155.20    3.94
  -1  -1  -6  148.41    3.79
  -1  -1  -6  147.14    3.16
   1   1   6  149.41    3.14
  -2  -1  -6  106.05    3.06
  -2  -1  -6  108.07    3.10
  -2  -1  -6  105.66    2.58
   2   1   6  106.75    2.56
  -3  -1  -6   11.86    0.99
  -3  -1  -6   10.42    1.12
   3   1   6   12.14    0.91
  -4  -1  -6    6.34    0.92
  -4  -1  -6    5.08    0.90
   4   1   6    4.93    0.82
  -5  -1  -6   31.23    1.66
  -5  -1  -6   32.88    1.32
  -5  -1  -6   34.34    1.79
   5   1   6   31.79    1.60
  -6  -1  -6   85.99    2.81
  -6  -1  -6   84.81    3.02
  -6  -1  -6   85.16    2.35
   6   1   6   86.95    2.81
  -7  -1  -6   22.49    1.69
  -7  -1  -6   22.50    1.74
  -7  -1  -6   21.68    1.34
   7   1   6   20.37    1.59
  -8  -1  -6   55.07    2.19
  -8  -1  -6   57.56    2.50
  -8  -1  -6   58.56    2.62
  -8  -1  -6   59.22    2.87
   8   1   6   59.05    2.61
  -9  -1  -6    3.92    1.26
  -9  -1  -6    5.99    1.20
   9   1   6    5.86    1.36
   9  -2  -6   16.88    1.74
   9  -2  -6   16.96    1.30
   9  -2  -6   18.62    1.71
  -9   2   6   16.04    1.47
   8  -2  -6   26.41    1.41
   8  -2  -6   25.56    1.89
   8  -2  -6   27.48    1.85
  -8   2   6   31.35    1.71
   7  -2  -6   38.50    2.03
   7  -2  -6   41.96    2.18
   7  -2  -6   37.91    1.55
  -7   2   6   37.46    1.76
   6  -2  -6   69.73    2.04
   6  -2  -6   70.23    2.57
   6  -2  -6   71.23    2.74
  -6   2   6   72.27    2.30
   5  -2  -6   61.05    2.25
   5  -2  -6   61.38    1.78
   5  -2  -6   60.79    2.38
   4  -2  -6  117.66    3.34
   4  -2  -6  114.75    3.16
   4  -2  -6  117.49    2.62
  -4   2   6  110.56    2.57
   3  -2  -6    3.02    0.49
   3  -2  -6    2.18    0.64
   3  -2  -6    2.82    0.64
  -3   2   6    3.03    0.45
   2  -2  -6  147.49    3.37
   2  -2  -6  145.19    3.49
   2  -2  -6  138.31    2.89
  -2   2   6  139.83    2.88
   1  -2  -6   95.14    2.55
   1  -2  -6   99.74    2.42
   1  -2  -6   95.02    2.17
   1  -2  -6   96.71    2.46
  -1   2   6   92.89    2.11
  -1   2   6  100.26    2.93
   0  -2  -6  181.66    3.86
   0  -2  -6  174.29    3.52
   0  -2  -6  185.46    4.45
   0  -2  -6  179.21    4.19
   0  -2  -6  182.41    3.69
   0   2   6  181.33    3.54
   0   2   6  178.33    4.43
  -1  -2  -6  470.82    8.21
  -1  -2  -6  454.47    9.46
  -1  -2  -6  483.70    9.84
   1   2   6  460.20    8.17
  -2  -2  -6  263.52    5.09
  -2  -2  -6  265.28    5.90
  -2  -2  -6  272.73    6.10
   2   2   6  258.30    5.06
  -3  -2  -6  129.76    3.54
  -3  -2  -6  133.35    3.11
  -3  -2  -6  133.83    3.59
   3   2   6  134.75    3.11
  -4  -2  -6    1.19    0.59
  -4  -2  -6    1.93    0.64
  -4  -2  -6    0.75    0.60
   4   2   6    1.86    0.54
  -5  -2  -6   75.90    2.59
  -5  -2  -6   74.57    2.36
  -5  -2  -6   76.80    2.61
   5   2   6   75.15    2.36
  -6  -2  -6   60.32    2.34
  -6  -2  -6   56.25    2.18
  -6  -2  -6   58.75    2.32
   6   2   6   59.02    2.17
  -7  -2  -6   85.30    2.89
  -7  -2  -6   85.79    2.58
  -7  -2  -6   87.34    3.02
   7   2   6   86.15    2.86
  -8  -2  -6   72.64    2.71
  -8  -2  -6   77.07    2.56
  -8  -2  -6   77.41    2.90
   8   2   6   80.40    2.89
  -9  -2  -6   15.45    1.47
  -9  -2  -6   18.36    1.93
  -9  -2  -6   16.53    1.51
   9   2   6   19.63    1.76
   9  -3  -6    3.42    1.09
   9  -3  -6    1.37    0.78
   9  -3  -6    1.73    0.87
   8  -3  -6    7.30    1.39
   8  -3  -6    5.36    1.19
   8  -3  -6    5.22    0.98
   7  -3  -6   82.47    3.21
   7  -3  -6   76.69    2.42
   7  -3  -6   74.81    2.88
   6  -3  -6   16.83    1.49
   6  -3  -6   18.20    1.13
   6  -3  -6   16.41    1.41
   5  -3  -6   66.10    2.42
   5  -3  -6   67.20    2.01
   5  -3  -6   64.62    2.54
   4  -3  -6   76.27    2.65
   4  -3  -6   78.46    2.11
  -4   3   6   76.19    2.09
   3  -3  -6    0.74    0.65
   3  -3  -6    2.05    0.52
  -3   3   6    2.07    0.44
   2  -3  -6   17.39    0.88
   2  -3  -6   15.48    1.02
  -2   3   6   18.21    0.83
  -2   3   6   17.22    1.28
   1  -3  -6  204.61    4.41
   1  -3  -6  200.12    3.95
   1  -3  -6  199.36    4.47
  -1   3   6  207.80    3.96
  -1   3   6  202.22    5.12
   0  -3  -6   92.01    2.59
   0  -3  -6   98.30    2.39
   0  -3  -6   89.68    2.17
   0   3   6   89.56    2.77
   0   3   6   91.41    2.16
  -1  -3  -6   32.77    1.30
  -1  -3  -6   29.71    1.48
  -1  -3  -6   30.97    1.21
   1   3   6   29.74    1.14
   1   3   6   27.83    1.40
  -2  -3  -6   53.06    1.91
  -2  -3  -6   53.90    1.70
  -2  -3  -6   52.70    1.97
   2   3   6   52.59    1.61
  -3  -3  -6   31.79    1.34
  -3  -3  -6   31.07    1.47
  -3  -3  -6   31.47    1.57
   3   3   6   30.96    1.28
  -4  -3  -6   65.53    2.05
  -4  -3  -6   65.14    2.32
  -4  -3  -6   64.18    2.25
   4   3   6   65.66    2.01
  -5  -3  -6   19.32    1.24
  -5  -3  -6   20.43    1.46
  -5  -3  -6   21.39    1.35
   5   3   6   18.52    1.17
  -6  -3  -6   75.31    2.43
  -6  -3  -6   69.52    2.53
  -6  -3  -6   71.35    2.45
   6   3   6   68.63    2.34
  -7  -3  -6   81.99    2.83
  -7  -3  -6   84.31    2.78
  -7  -3  -6   79.95    2.69
   7   3   6   77.82    2.66
  -8  -3  -6   27.81    1.67
  -8  -3  -6   27.85    1.65
  -8  -3  -6   25.89    1.78
  -8  -3  -6   30.43    1.81
   8   3   6   25.16    1.70
  -9  -3  -6   15.80    1.71
  -9  -3  -6   16.26    1.54
  -9  -3  -6   15.67    1.44
   9   3   6   16.80    1.61
   8  -4  -6   25.80    2.02
   8  -4  -6   26.98    1.89
   8  -4  -6   25.73    1.60
  -8   4   6   28.48    1.89
   7  -4  -6   69.34    2.93
   7  -4  -6   62.04    2.29
   7  -4  -6   62.85    2.71
   6  -4  -6   83.30    3.10
   6  -4  -6   85.33    2.59
   5  -4  -6  117.16    2.99
  -5   4   6  109.33    2.98
   4  -4  -6   29.72    1.34
  -4   4   6   32.63    1.36
   3  -4  -6   45.56    1.59
  -3   4   6   46.79    1.57
  -3   4   6   42.22    2.07
   2  -4  -6    3.70    0.74
   2  -4  -6    3.75    0.62
  -2   4   6    4.49    0.93
  -2   4   6    5.34    0.68
   1  -4  -6   42.49    1.40
   1  -4  -6   46.31    1.61
   1  -4  -6   35.82    1.46
  -1   4   6   46.01    2.03
  -1   4   6   41.06    1.35
   0  -4  -6   49.60    1.80
   0   4   6   49.93    2.00
   0   4   6   50.60    1.48
  -1  -4  -6   60.72    1.73
  -1  -4  -6   52.08    2.03
  -1  -4  -6   60.00    1.91
   1   4   6   55.13    1.64
  -2  -4  -6  120.09    2.84
  -2  -4  -6  128.02    3.31
  -2  -4  -6  125.08    3.39
   2   4   6  124.02    2.85
  -3  -4  -6   12.98    0.97
  -3  -4  -6   11.44    1.22
   3   4   6   14.11    0.89
  -4  -4  -6   37.66    1.56
  -4  -4  -6   34.87    1.82
  -4  -4  -6   36.98    1.50
   4   4   6   35.45    1.45
  -5  -4  -6    8.27    0.99
  -5  -4  -6    7.77    0.94
  -5  -4  -6    8.35    1.06
   5   4   6    8.37    0.93
  -6  -4  -6   26.82    1.69
  -6  -4  -6   29.36    1.55
   6   4   6   26.63    1.42
  -7  -4  -6    1.64    0.81
  -7  -4  -6    1.09    0.68
   7   4   6    1.37    0.66
  -8  -4  -6   37.61    2.01
  -8  -4  -6   39.42    1.99
   8   4   6   37.22    1.89
  -9  -4  -6   13.27    1.49
  -9  -4  -6   12.80    1.58
   9   4   6   13.10    1.56
 -10  -4  -6    8.89    1.25
 -10  -4  -6    7.47    1.28
  10   4   6    7.63    1.39
   8  -5  -6    3.26    0.85
   8  -5  -6    5.59    1.29
  -8   5   6    4.67    1.16
   7  -5  -6   11.83    1.41
  -7   5   6   11.17    1.48
   6  -5  -6   57.44    2.20
   5  -5  -6    9.89    0.97
  -5   5   6   10.30    1.60
  -5   5   6   11.29    1.20
   4  -5  -6   21.16    1.22
  -4   5   6   19.80    1.65
  -4   5   6   21.69    1.22
   3  -5  -6    6.20    0.81
  -3   5   6    6.19    0.82
  -3   5   6    5.99    1.14
   2  -5  -6    2.26    0.60
  -2   5   6    2.98    0.57
  -2   5   6    3.37    0.89
   1  -5  -6   14.72    0.96
   1  -5  -6   15.38    1.12
  -1   5   6   13.77    0.86
  -1   5   6   13.12    1.27
   0  -5  -6   80.86    2.17
   0  -5  -6   85.54    2.51
   0   5   6   81.97    2.13
   0   5   6   79.28    2.73
  -1  -5  -6   89.78    2.78
  -1  -5  -6   98.91    2.73
   1   5   6   89.30    2.31
  -2  -5  -6   17.54    1.18
  -2  -5  -6   16.51    1.02
   2   5   6   15.81    0.94
  -3  -5  -6    9.17    0.85
  -3  -5  -6    8.81    0.98
  -3  -5  -6    7.94    1.00
   3   5   6    9.93    0.81
  -4  -5  -6   29.17    1.59
  -4  -5  -6   31.45    1.40
   4   5   6   28.55    1.28
  -5  -5  -6    0.57    0.59
  -5  -5  -6    1.01    0.70
   5   5   6    0.44    0.45
  -6  -5  -6    8.24    1.06
  -6  -5  -6    5.80    1.11
   6   5   6    6.40    0.93
  -7  -5  -6    1.85    0.84
  -7  -5  -6    1.14    0.73
   7   5   6    1.79    0.71
  -8  -5  -6   43.79    2.01
  -8  -5  -6   39.93    2.15
   8   5   6   42.97    1.97
   9   5   6   19.96    1.55
  10   5   6   26.00    1.84
   7  -6  -6    6.78    1.16
  -7   6   6    9.07    1.71
  -7   6   6    8.22    1.45
   6  -6  -6    5.54    1.06
  -6   6   6    6.60    1.50
   5  -6  -6   30.02    1.62
  -5   6   6   29.00    2.18
  -5   6   6   29.89    1.60
   4  -6  -6   52.35    1.98
  -4   6   6   48.67    1.91
  -4   6   6   46.92    2.53
   3  -6  -6    9.72    1.09
  -3   6   6   10.11    1.09
  -3   6   6   10.59    1.46
   2  -6  -6   21.12    1.21
  -2   6   6   18.46    1.62
  -2   6   6   19.22    1.12
   1  -6  -6   65.99    2.27
   1  -6  -6   65.18    2.04
  -1   6   6   67.11    2.63
  -1   6   6   66.49    2.03
   0  -6  -6    3.93    0.64
   0  -6  -6    4.52    0.81
   0   6   6    4.62    0.62
   0   6   6    4.73    0.88
  -1  -6  -6    9.33    0.89
  -1  -6  -6    9.91    1.12
   1   6   6    8.65    0.79
  -2  -6  -6   59.86    2.19
  -2  -6  -6   62.10    1.89
  -2  -6  -6   57.29    2.13
   2   6   6   58.00    1.82
  -3  -6  -6  147.24    3.96
  -3  -6  -6  148.11    3.36
  -3  -6  -6  141.53    3.88
   3   6   6  144.92    3.34
  -4  -6  -6   12.26    1.17
  -4  -6  -6   11.69    0.99
  -4  -6  -6   13.28    1.32
   4   6   6   10.95    0.89
  -5  -6  -6  161.25    3.71
  -5  -6  -6  152.74    4.35
  -5  -6  -6  157.40    4.30
   5   6   6  152.17    3.66
  -6  -6  -6   20.60    1.59
  -6  -6  -6   19.84    1.34
   6   6   6   20.78    1.27
  -7  -6  -6    1.12    0.82
  -7  -6  -6   -0.02    0.63
   7   6   6    0.89    0.57
  -8  -6  -6   -0.28    0.84
  -8  -6  -6    0.59    0.69
   8   6   6    0.91    0.65
  -9  -6  -6   45.69    2.42
   9   6   6   41.16    2.05
  10   6   6   40.40    2.20
   6  -7  -6    0.01    0.72
  -6   7   6   -0.22    0.66
  -6   7   6    0.84    1.09
   5  -7  -6   33.00    1.83
  -5   7   6   30.86    1.74
  -5   7   6   29.45    2.28
   4  -7  -6   46.64    2.06
  -4   7   6   45.74    2.61
  -4   7   6   46.33    2.00
   3  -7  -6  101.25    2.96
  -3   7   6   98.76    2.90
  -3   7   6   97.91    3.65
   2  -7  -6   14.78    1.17
  -2   7   6   12.68    1.09
  -2   7   6   13.27    1.45
   1  -7  -6   17.67    1.60
   1  -7  -6   22.89    1.34
  -1   7   6   23.21    1.63
  -1   7   6   23.09    1.26
   0  -7  -6    1.79    0.80
   0  -7  -6    4.42    0.79
   0   7   6    2.07    0.80
   0   7   6    2.95    0.67
  -1  -7  -6   13.14    1.03
  -1  -7  -6   11.88    1.27
   1   7   6   12.22    0.93
  -2  -7  -6  138.29    3.87
  -2  -7  -6  139.91    3.87
  -2  -7  -6  139.36    3.31
   2   7   6  132.82    3.24
  -3  -7  -6   93.88    3.05
  -3  -7  -6   93.95    3.10
   3   7   6   96.02    2.58
  -4  -7  -6   61.21    2.49
  -4  -7  -6   62.47    2.44
  -4  -7  -6   62.50    2.04
   4   7   6   60.35    2.02
  -5  -7  -6   83.73    2.44
  -5  -7  -6   81.48    2.95
  -5  -7  -6   83.54    2.97
   5   7   6   76.51    2.35
  -6  -7  -6    0.73    0.84
  -6  -7  -6    1.67    0.73
  -6  -7  -6    1.86    0.70
   6   7   6    1.13    0.58
  -7  -7  -6    1.17    0.82
  -7  -7  -6    0.89    0.81
  -7  -7  -6    1.76    0.73
   7   7   6    0.53    0.60
  -8  -7  -6   35.29    2.20
   8   7   6   38.97    1.83
  -9  -7  -6   82.63    3.27
   9   7   6   80.41    2.80
  10   7   6   66.18    2.63
   6  -8  -6    1.05    0.87
  -6   8   6   -0.98    1.15
  -6   8   6   -0.37    0.73
   5  -8  -6    3.47    1.00
  -5   8   6    2.66    1.02
  -5   8   6    2.79    0.97
  -5   8   6    3.81    1.32
   4  -8  -6   41.01    2.05
  -4   8   6   42.13    2.54
  -4   8   6   42.72    2.46
  -4   8   6   42.18    2.05
   3  -8  -6  152.90    4.06
  -3   8   6  159.80    4.10
  -3   8   6  155.37    4.95
   2  -8  -6   75.87    2.56
  -2   8   6   77.91    2.56
  -2   8   6   77.49    3.15
   1  -8  -6   62.41    2.50
   1  -8  -6   64.77    2.27
  -1   8   6   66.08    2.25
  -1   8   6   64.24    2.71
   0  -8  -6   58.10    2.40
   0  -8  -6   56.50    2.06
   0   8   6   56.98    2.04
  -1  -8  -6    3.90    0.77
  -1  -8  -6    2.00    0.87
  -2  -8  -6    4.11    0.97
  -2  -8  -6    5.15    0.84
   2   8   6    4.60    0.77
  -3  -8  -6  116.66    3.68
  -3  -8  -6  118.05    3.71
  -3  -8  -6  125.88    3.17
   3   8   6  120.11    3.09
  -4  -8  -6  115.51    3.69
  -4  -8  -6  116.42    3.70
   4   8   6  116.54    3.03
  -5  -8  -6   19.70    1.76
  -5  -8  -6   25.00    1.39
  -5  -8  -6   24.05    1.67
   5   8   6   21.16    1.28
  -6  -8  -6   44.38    2.30
  -6  -8  -6   44.11    2.27
  -6  -8  -6   44.07    1.85
   6   8   6   43.21    1.81
  -7  -8  -6    1.28    0.90
  -7  -8  -6    3.07    0.80
  -7  -8  -6    2.00    0.93
   7   8   6    0.77    0.57
  -8  -8  -6    5.74    1.34
  -8  -8  -6    5.29    1.30
   8   8   6    5.51    0.95
  -9  -8  -6    3.49    1.21
  -9  -8  -6    2.71    1.26
   9   8   6    3.27    0.93
   5  -9  -6    8.84    1.51
  -5   9   6   10.23    1.88
  -5   9   6    5.09    1.22
  -5   9   6    6.84    1.46
   4  -9  -6   32.96    1.93
  -4   9   6   29.54    1.86
  -4   9   6   30.77    2.37
  -4   9   6   31.22    2.24
   3  -9  -6   84.99    3.01
  -3   9   6   88.23    3.00
  -3   9   6   90.55    3.58
  -3   9   6   84.77    3.52
   2  -9  -6   97.28    3.12
  -2   9   6   97.51    3.08
  -2   9   6   96.71    3.63
   1  -9  -6   32.56    1.88
   1  -9  -6   31.83    1.73
  -1   9   6   29.63    1.63
   0  -9  -6    0.32    0.70
   0  -9  -6    1.12    0.67
   0   9   6    1.71    0.65
  -1  -9  -6   16.20    1.29
  -1  -9  -6   14.59    1.53
   1   9   6   15.75    1.25
  -2  -9  -6   23.08    1.83
  -2  -9  -6   27.87    1.52
   2   9   6   28.16    1.46
  -3  -9  -6  117.09    3.20
  -3  -9  -6  121.87    3.86
   3   9   6  115.11    3.15
  -4  -9  -6   56.28    2.58
  -4  -9  -6   61.51    2.68
  -4  -9  -6   56.16    2.12
   4   9   6   58.08    2.09
   4   9   6   58.39    2.19
  -5  -9  -6   71.49    2.99
  -5  -9  -6   72.30    2.97
   5   9   6   73.70    2.33
  -6  -9  -6   33.41    2.18
  -6  -9  -6   35.22    2.15
  -6  -9  -6   36.78    1.83
   6   9   6   34.37    1.65
  -7  -9  -6    1.28    0.94
  -7  -9  -6    1.94    0.94
   7   9   6    0.91    0.56
  -8  -9  -6    2.80    1.09
  -8  -9  -6    1.79    1.09
   8   9   6    2.01    0.76
  -9  -9  -6    0.83    1.09
  -9  -9  -6    2.87    1.23
   9   9   6    2.71    0.84
   3 -10  -6    4.09    1.09
  -3  10   6    5.81    1.20
  -3  10   6    5.30    1.29
  -3  10   6    6.01    1.39
   2 -10  -6   30.77    1.91
  -2  10   6   35.64    2.27
  -2  10   6   32.95    1.90
   1 -10  -6   29.85    1.92
   1 -10  -6   29.62    1.81
  -1  10   6   29.02    2.06
  -1  10   6   28.32    1.72
   0 -10  -6   15.52    1.57
   0 -10  -6   13.14    1.52
   0  10   6   13.20    1.29
  -1 -10  -6    2.16    1.02
  -1 -10  -6    3.28    0.90
   1  10   6    4.27    0.90
  -2 -10  -6   -0.61    0.83
  -2 -10  -6    1.64    0.78
   2  10   6    2.43    0.78
  -3 -10  -6    7.88    1.14
  -3 -10  -6    6.54    1.26
   3  10   6    8.10    1.09
  -4 -10  -6    7.81    1.40
  -4 -10  -6    6.98    1.05
   4  10   6    7.78    1.07
   4  10   6    8.44    1.18
  -5 -10  -6   17.29    1.49
  -5 -10  -6   17.18    1.76
  -5 -10  -6   17.01    1.72
   5  10   6   16.59    1.24
  -6 -10  -6    2.37    1.06
  -6 -10  -6    2.50    1.08
   6  10   6    2.36    0.67
  -7 -10  -6   12.46    1.74
  -7 -10  -6   16.04    1.82
   7  10   6   14.60    1.26
  -8 -10  -6    5.12    1.34
  -8 -10  -6    3.84    1.29
   8  10   6    4.08    0.89
  -9 -10  -6    2.34    1.32
  -9 -10  -6    4.25    1.36
   9  10   6    4.56    0.95
   2 -11  -6   11.96    1.64
  -2  11   6   13.50    1.65
  -2  11   6   15.53    1.97
   1 -11  -6   52.30    2.76
   1 -11  -6   49.45    2.42
  -1  11   6   52.28    2.83
  -1  11   6   50.38    2.37
   0 -11  -6   42.41    2.36
   0 -11  -6   39.55    2.12
   0  11   6   40.03    2.43
   0  11   6   43.54    2.16
  -1 -11  -6    3.26    1.02
  -1 -11  -6    5.22    1.25
   1  11   6    3.38    0.99
   1  11   6    4.33    1.06
  -2 -11  -6    4.61    1.08
  -2 -11  -6    5.87    1.33
   2  11   6    3.53    1.00
   2  11   6    4.82    1.04
  -3 -11  -6    2.05    1.09
  -3 -11  -6    1.42    0.89
   3  11   6    2.46    0.85
   3  11   6    1.02    0.77
  -4 -11  -6    1.20    1.07
   4  11   6    2.35    0.93
   4  11   6    2.36    0.82
  -5 -11  -6   11.75    1.83
   5  11   6   12.91    1.39
  -6 -11  -6   40.50    2.59
  -6 -11  -6   40.98    2.61
   6  11   6   39.91    1.90
  -7 -11  -6   40.64    2.58
  -7 -11  -6   40.12    2.64
   7  11   6   42.03    1.97
  -8 -11  -6   12.48    1.83
  -8 -11  -6   13.86    2.05
   8  11   6   14.32    1.39
   0 -12  -6   24.86    2.18
   0 -12  -6   24.52    1.95
   0  12   6   26.24    1.91
   0  12   6   24.71    2.11
  -1 -12  -6   31.71    2.03
  -1 -12  -6   35.63    2.42
   1  12   6   32.89    2.25
   1  12   6   34.34    2.03
  -2 -12  -6   17.82    1.98
   2  12   6   17.49    1.72
   2  12   6   15.85    1.54
  -3 -12  -6    3.72    1.25
   3  12   6    4.87    1.26
   3  12   6    5.86    1.11
  -4 -12  -6    2.17    1.19
   4  12   6    1.73    0.85
   4  12   6    1.20    0.94
  -5 -12  -6   10.64    1.83
   5  12   6   10.27    1.29
  -6 -12  -6   29.59    2.57
   6  12   6   30.56    1.77
  -7 -12  -6   16.42    2.13
  -7 -12  -6   16.09    2.23
   7  12   6   13.92    1.50
   6   7  -7   19.84    2.31
   5   7  -7    0.11    1.20
   4   7  -7    3.42    1.31
   3   7  -7   11.42    1.59
   3   7  -7   11.75    2.00
   2   7  -7   60.79    3.21
   2   7  -7   48.78    2.73
   1   7  -7   23.70    2.33
   1   7  -7   20.87    2.05
   7   6  -7   31.63    2.18
   7   6  -7   30.44    2.30
   7   6  -7   37.82    2.75
   6   6  -7    6.24    1.51
   6   6  -7    4.98    1.25
   6   6  -7    5.60    1.30
   5   6  -7    2.91    1.26
   5   6  -7    0.41    0.94
   4   6  -7    9.24    1.66
   4   6  -7    8.40    1.32
   3   6  -7   52.76    2.97
   3   6  -7   49.63    2.50
   2   6  -7   31.44    2.12
   2   6  -7   36.19    2.47
   1   6  -7   62.61    3.02
   1   6  -7   50.79    2.71
   0   6  -7   38.13    2.50
   0   6  -7   42.80    2.60
   0   6  -7   42.40    1.91
  -1   6  -7    1.73    0.97
  -1   6  -7    2.38    1.25
  -1   6  -7    0.00    0.97
  -2   6  -7    0.13    0.98
  -2   6  -7    0.96    1.02
   8   5  -7   53.40    2.82
   8   5  -7   52.94    3.18
   8   5  -7   49.15    2.72
   7   5  -7   30.60    2.17
   7   5  -7   30.39    2.10
   7   5  -7   29.81    2.42
   6   5  -7    4.75    1.16
   6   5  -7    4.44    1.23
   6   5  -7    6.16    1.44
   5   5  -7    8.23    1.28
   5   5  -7    8.90    1.54
   5   5  -7    9.82    1.52
   4   5  -7   13.12    1.49
   4   5  -7   13.80    1.82
   4   5  -7   12.49    1.40
   3   5  -7    7.95    1.48
   3   5  -7    7.01    1.16
   2   5  -7   27.23    2.09
   2   5  -7   29.85    1.93
   1   5  -7   22.38    1.81
   1   5  -7   24.19    1.98
   0   5  -7    6.84    1.32
   0   5  -7    8.09    1.44
   0   5  -7    7.24    0.99
  -1   5  -7   18.31    1.44
  -1   5  -7   17.55    1.80
  -1   5  -7   15.93    1.81
  -2   5  -7    1.90    0.94
  -2   5  -7   -0.21    0.87
  -3   5  -7    2.51    1.04
  -3   5  -7   -0.15    1.08
   9   4  -7   11.94    1.96
   9   4  -7   12.84    1.76
   9   4  -7    9.96    1.63
   8   4  -7   42.62    2.46
   8   4  -7   43.16    2.80
   8   4  -7   41.77    2.51
   7   4  -7   23.23    1.91
   7   4  -7   25.19    2.21
   7   4  -7   24.78    1.94
   6   4  -7   28.12    1.96
   6   4  -7   31.87    2.00
   6   4  -7   29.62    2.16
   5   4  -7   12.21    1.32
   5   4  -7   13.83    1.52
   5   4  -7   13.08    1.48
   5   4  -7   13.54    1.73
   4   4  -7    0.27    0.74
   4   4  -7    1.66    0.94
   4   4  -7    0.45    0.70
   4   4  -7    0.86    0.78
   3   4  -7    1.39    0.83
   3   4  -7    1.53    0.71
   3   4  -7    1.12    0.89
   2   4  -7   22.79    1.82
   2   4  -7   20.35    1.60
   1   4  -7    1.02    0.82
   1   4  -7   -0.01    0.68
   0   4  -7   19.23    1.21
   0   4  -7   18.52    1.63
   0   4  -7   18.05    1.62
  -1   4  -7   65.44    2.73
  -1   4  -7   64.37    2.89
  -1   4  -7   63.71    2.20
  -2   4  -7   22.56    1.77
  -2   4  -7   21.23    1.93
  -2   4  -7   23.10    1.58
  -3   4  -7   11.76    1.66
  -3   4  -7   14.16    1.50
  -4   4  -7    0.44    0.91
  -4   4  -7    1.26    1.07
   9   3  -7    0.66    1.00
   9   3  -7    0.89    1.01
   8   3  -7   -0.03    0.89
   8   3  -7   -0.34    0.91
   8   3  -7    0.09    0.82
   7   3  -7   21.32    1.79
   7   3  -7   25.13    1.86
   7   3  -7   24.55    2.12
   6   3  -7   11.70    1.43
   6   3  -7   11.97    1.56
   6   3  -7   11.48    1.62
   5   3  -7   44.52    2.13
   5   3  -7   37.17    2.07
   5   3  -7   43.52    2.39
   4   3  -7   49.48    2.40
   4   3  -7   44.31    2.18
   4   3  -7   46.15    2.08
   4   3  -7   45.19    2.08
   3   3  -7   11.04    1.46
   3   3  -7   10.59    1.34
   3   3  -7    9.50    1.23
   3   3  -7    8.34    1.07
   2   3  -7    5.02    0.87
   2   3  -7    5.81    1.09
   2   3  -7    4.32    0.93
   1   3  -7    5.77    1.10
   1   3  -7    4.37    0.94
   0   3  -7    7.98    1.17
   0   3  -7    5.58    1.09
   0   3  -7    5.52    0.80
  -1   3  -7   23.57    1.72
  -1   3  -7   22.99    1.61
  -1   3  -7   20.13    1.32
  -2   3  -7   76.24    2.45
  -2   3  -7   74.57    2.71
  -2   3  -7   67.20    3.00
  -3   3  -7   45.71    2.56
  -3   3  -7   47.41    2.09
  -4   3  -7    1.99    1.11
  -4   3  -7    1.53    1.01
  -5   3  -7    1.85    1.08
  -5   3  -7    0.22    1.01
   9   2  -7    4.39    1.22
   9   2  -7    3.32    1.14
  -9  -2   7    5.27    0.95
   8   2  -7    0.27    0.85
   8   2  -7    0.83    0.84
  -8  -2   7   -0.04    0.49
   7   2  -7   15.01    1.58
   7   2  -7   17.95    1.60
  -7  -2   7   17.61    1.15
   6   2  -7   10.33    1.54
   6   2  -7   10.82    1.40
   6   2  -7   10.58    1.36
   5   2  -7  133.02    3.79
   5   2  -7  132.24    4.30
   5   2  -7  123.15    3.85
   4   2  -7   55.95    2.51
   4   2  -7   56.68    2.21
   4   2  -7   51.56    2.28
   3   2  -7   32.84    1.73
   3   2  -7   33.33    1.88
   3   2  -7   33.80    1.69
   3   2  -7   33.17    1.77
   2   2  -7   12.94    1.21
   2   2  -7   15.16    1.40
   2   2  -7   15.35    1.35
   2   2  -7   16.11    1.37
   1   2  -7   38.63    1.93
   1   2  -7   41.45    1.61
   1   2  -7   40.41    1.97
   0   2  -7   15.64    1.02
   0   2  -7   15.64    1.31
   0   2  -7   18.01    1.41
  -1   2  -7   89.27    2.47
  -1   2  -7   90.43    3.16
  -1   2  -7   92.46    2.90
  -2   2  -7  210.41    4.56
  -2   2  -7  209.79    5.09
  -2   2  -7  197.05    5.50
  -3   2  -7   77.27    2.54
  -3   2  -7   80.26    3.18
   3  -2   7   78.75    2.54
  -4   2  -7   42.66    2.07
  -4   2  -7   42.42    2.43
   4  -2   7   42.46    1.94
  -5   2  -7    1.90    1.04
  -5   2  -7    1.03    0.94
   5  -2   7    0.77    0.77
  -6   2  -7   11.33    1.67
  -6   2  -7   14.37    1.75
   6  -2   7   14.61    1.68
   9   1  -7    2.46    1.11
   9   1  -7    3.28    1.16
  -9  -1   7    3.46    0.86
   8   1  -7    1.20    0.86
   8   1  -7    1.13    0.83
  -8  -1   7    1.09    0.63
   7   1  -7    2.50    0.88
   7   1  -7    2.16    0.92
  -7  -1   7    1.25    0.56
   6   1  -7   30.19    1.82
   6   1  -7   29.40    1.81
  -6  -1   7   33.03    1.37
   5   1  -7   79.11    3.12
   5   1  -7   74.04    2.74
   5   1  -7   78.26    2.74
  -5  -1   7   73.39    1.99
   4   1  -7  103.16    3.21
   4   1  -7  105.63    3.58
   4   1  -7  101.26    3.07
   3   1  -7   65.77    2.64
   3   1  -7   67.69    2.48
   3   1  -7   71.59    2.35
   3   1  -7   72.59    2.52
   2   1  -7    3.27    0.83
   2   1  -7    0.87    0.70
   2   1  -7    2.00    0.81
   2   1  -7    4.50    0.86
   1   1  -7    6.20    0.96
   1   1  -7    4.67    0.86
   1   1  -7    8.85    0.83
   1   1  -7    5.08    0.77
   0   1  -7   37.12    1.36
   0   1  -7   38.73    1.71
   0   1  -7   37.86    1.87
  -1   1  -7   34.27    1.39
  -1   1  -7   36.93    1.88
  -1   1  -7   39.62    1.67
   1  -1   7   38.35    1.42
  -2   1  -7   22.92    1.28
  -2   1  -7   22.74    1.63
   2  -1   7   21.41    1.18
  -3   1  -7   19.13    1.58
  -3   1  -7   19.99    1.32
   3  -1   7   19.88    1.28
  -4   1  -7   16.13    1.35
  -4   1  -7   14.83    1.60
   4  -1   7   14.91    1.26
  -5   1  -7   13.61    1.53
  -5   1  -7    9.73    1.48
   5  -1   7   13.68    1.50
  -6   1  -7    5.88    1.30
  -6   1  -7    5.38    1.34
   6  -1   7    7.88    1.35
  -7   1  -7    1.64    1.15
  -7   1  -7    2.29    1.16
   7  -1   7    0.63    1.00
   9   0  -7   14.49    1.86
   9   0  -7   16.98    1.77
  -9   0   7   18.26    1.49
   8   0  -7    2.23    0.99
   8   0  -7    0.08    0.83
  -8   0   7    0.88    0.59
   7   0  -7   47.39    2.36
   7   0  -7   45.42    2.28
  -7   0   7   48.01    1.87
   6   0  -7   56.63    2.39
   6   0  -7   56.01    2.43
  -6   0   7   55.93    1.88
   5   0  -7   78.98    2.79
   5   0  -7   78.41    2.77
  -5   0   7   84.45    2.19
   4   0  -7  206.96    5.17
   4   0  -7  214.59    5.60
   4   0  -7  213.45    5.02
   3   0  -7   63.26    2.20
   3   0  -7   62.52    2.47
   3   0  -7   62.97    2.25
   2   0  -7   17.09    1.36
   2   0  -7   16.26    1.40
   2   0  -7   14.24    1.16
   2   0  -7   19.69    1.34
   1   0  -7   17.24    1.25
   1   0  -7   20.71    0.96
   1   0  -7   18.61    1.34
   1   0  -7   16.39    1.03
   1   0  -7   17.25    1.24
  -1   0   7   17.78    0.83
  -1   0   7   20.59    1.26
   0   0  -7   41.74    1.38
   0   0  -7   41.17    1.69
   0   0  -7   38.78    1.87
   0   0   7   43.70    1.60
   0   0   7   40.31    1.31
  -1   0  -7   10.34    1.18
  -1   0  -7   10.24    0.86
  -1   0  -7   11.87    0.92
   1   0   7   11.57    0.81
  -2   0  -7   75.84    2.69
  -2   0  -7   71.91    2.13
   2   0   7   74.25    2.13
  -3   0  -7   59.33    2.45
  -3   0  -7   59.98    2.04
   3   0   7   59.34    2.00
  -4   0  -7   10.70    1.25
  -4   0  -7   11.77    1.36
   4   0   7   10.34    1.22
  -5   0  -7   29.30    1.89
  -5   0  -7   28.01    1.70
   5   0   7   28.29    1.64
  -6   0  -7    2.86    1.01
  -6   0  -7    2.44    1.03
   6   0   7    3.53    0.99
  -7   0  -7    2.37    1.03
  -7   0  -7    2.87    1.11
   7   0   7    1.61    1.02
   9  -1  -7   31.79    2.16
   9  -1  -7   32.06    2.26
  -9   1   7   33.63    1.89
   8  -1  -7    0.11    0.71
   8  -1  -7    0.64    0.74
  -8   1   7   -0.01    0.62
   7  -1  -7    5.64    1.21
   7  -1  -7    5.81    1.08
  -7   1   7    6.48    1.01
   6  -1  -7    5.66    1.06
   6  -1  -7    4.98    0.97
  -6   1   7    5.28    0.85
   5  -1  -7   45.33    2.12
   5  -1  -7   44.66    2.00
   4  -1  -7   48.36    2.00
   4  -1  -7   44.36    1.91
   3  -1  -7   24.08    1.41
   3  -1  -7   27.74    1.45
   2  -1  -7   10.26    0.98
   2  -1  -7   11.08    1.02
  -2   1   7    9.12    0.58
   1  -1  -7    5.57    0.69
   1  -1  -7    6.05    0.93
   1  -1  -7    6.15    0.88
  -1   1   7   10.14    1.09
  -1   1   7    8.58    0.63
   0  -1  -7    2.97    0.63
   0  -1  -7    1.67    0.63
   0  -1  -7    1.99    0.58
   0  -1  -7    2.42    0.56
   0   1   7    3.09    0.51
   0   1   7    3.74    0.73
  -1  -1  -7   11.47    1.14
  -1  -1  -7   11.64    0.90
  -1  -1  -7   11.68    0.86
   1   1   7   11.78    0.79
  -2  -1  -7   80.94    2.74
  -2  -1  -7   79.63    2.23
   2   1   7   84.06    2.26
  -3  -1  -7    1.97    0.71
  -3  -1  -7    2.69    0.68
   3   1   7    3.35    0.68
  -4  -1  -7   11.66    1.18
  -4  -1  -7   11.60    1.28
   4   1   7   11.28    1.04
  -5  -1  -7   32.34    1.87
  -5  -1  -7   30.02    1.70
   5   1   7   32.44    1.64
  -6  -1  -7    4.20    1.05
  -6  -1  -7    7.09    1.16
   6   1   7    7.02    1.08
  -7  -1  -7    8.52    1.38
  -7  -1  -7    6.91    1.31
   7   1   7   10.41    1.37
  -8  -1  -7    1.16    0.99
  -8  -1  -7    0.34    1.01
   8   1   7    2.92    1.02
   9  -2  -7   12.86    1.78
   9  -2  -7   12.15    1.20
   9  -2  -7   16.17    1.88
   8  -2  -7   33.29    2.18
   8  -2  -7   33.64    2.08
   8  -2  -7   29.16    1.47
   7  -2  -7   16.21    1.49
   7  -2  -7   13.64    1.02
   7  -2  -7   15.16    1.78
   6  -2  -7   -0.85    0.64
   6  -2  -7    0.98    0.64
   6  -2  -7    1.12    0.46
   5  -2  -7   16.37    1.47
   5  -2  -7   16.60    0.95
   5  -2  -7   17.08    1.37
   4  -2  -7   15.90    0.88
   4  -2  -7   13.29    1.26
   4  -2  -7   16.29    1.23
   3  -2  -7  114.28    3.17
   3  -2  -7  113.89    2.53
   3  -2  -7  114.64    3.05
  -3   2   7  100.87    2.47
   2  -2  -7   33.82    1.20
   2  -2  -7   34.69    1.49
   2  -2  -7   34.00    1.46
  -2   2   7   32.99    1.74
  -2   2   7   33.17    1.15
   1  -2  -7   73.96    2.08
   1  -2  -7   73.47    2.11
   1  -2  -7   73.72    1.85
   1  -2  -7   72.50    2.27
  -1   2   7   69.64    2.50
  -1   2   7   66.90    1.77
   0  -2  -7  135.05    3.14
   0  -2  -7  137.05    3.71
   0  -2  -7  128.89    2.86
   0  -2  -7  133.38    2.96
   0  -2  -7  132.42    3.46
   0   2   7  129.52    2.84
   0   2   7  131.82    3.62
  -1  -2  -7   11.46    1.07
  -1  -2  -7   10.14    1.04
  -1  -2  -7   10.34    0.88
   1   2   7   11.70    0.79
  -2  -2  -7    5.39    0.74
  -2  -2  -7    5.02    0.87
  -2  -2  -7    5.00    0.87
   2   2   7    6.55    0.76
  -3  -2  -7   86.15    2.41
  -3  -2  -7   87.39    2.87
  -3  -2  -7   88.43    2.87
   3   2   7   88.63    2.42
  -4  -2  -7   75.96    2.39
  -4  -2  -7   81.52    2.77
  -4  -2  -7   81.85    2.76
   4   2   7   78.47    2.39
  -5  -2  -7   44.18    2.07
  -5  -2  -7   42.27    2.08
  -5  -2  -7   44.26    1.86
   5   2   7   41.61    1.78
  -6  -2  -7  122.86    3.46
  -6  -2  -7  126.43    3.05
  -6  -2  -7  123.49    3.84
   6   2   7  124.97    3.47
  -7  -2  -7   65.77    2.78
  -7  -2  -7   66.49    2.61
   7   2   7   72.72    2.67
  -8  -2  -7    2.03    0.97
   8   2   7    1.66    0.91
   8  -3  -7   24.59    1.92
   8  -3  -7   28.34    1.55
   8  -3  -7   30.42    2.12
   7  -3  -7   25.88    1.41
   7  -3  -7   25.89    1.82
   7  -3  -7   27.42    1.96
   6  -3  -7   28.08    1.88
   6  -3  -7   28.83    1.38
   6  -3  -7   29.21    1.78
   5  -3  -7   12.64    1.25
   5  -3  -7   11.46    0.94
   5  -3  -7    6.75    1.23
   4  -3  -7   35.32    1.88
   4  -3  -7   39.57    1.84
   4  -3  -7   40.56    1.45
   3  -3  -7   77.34    2.52
   3  -3  -7   73.65    2.02
  -3   3   7   71.88    1.98
   2  -3  -7   54.48    1.88
   2  -3  -7   51.18    1.58
  -2   3   7   47.90    1.49
  -2   3   7   52.10    2.23
   1  -3  -7  195.89    4.55
   1  -3  -7  201.44    4.37
  -1   3   7  202.18    5.18
  -1   3   7  189.60    3.90
   0  -3  -7   26.10    1.38
   0  -3  -7   26.92    1.15
   0  -3  -7   26.98    1.09
   0   3   7   28.69    1.55
   0   3   7   26.57    1.10
  -1  -3  -7   91.88    2.30
  -1  -3  -7   90.64    2.43
  -1  -3  -7   90.90    2.71
   1   3   7   91.25    2.27
   1   3   7   82.06    2.75
  -2  -3  -7    9.27    0.93
  -2  -3  -7    8.86    1.03
  -2  -3  -7    8.20    0.99
   2   3   7    7.81    0.74
  -3  -3  -7   96.94    2.96
  -3  -3  -7   96.81    3.00
  -3  -3  -7   90.79    2.52
   3   3   7   94.30    2.53
  -4  -3  -7   40.13    1.89
  -4  -3  -7   40.43    1.92
  -4  -3  -7   39.25    1.67
   4   3   7   40.31    1.62
  -5  -3  -7   66.15    2.29
  -5  -3  -7   69.00    2.60
  -5  -3  -7   71.48    2.58
   5   3   7   66.28    2.26
  -6  -3  -7   65.38    2.59
  -6  -3  -7   62.84    2.37
  -6  -3  -7   64.36    2.52
   6   3   7   64.24    2.34
  -7  -3  -7   23.29    1.69
  -7  -3  -7   23.53    1.73
  -7  -3  -7   24.89    1.70
   7   3   7   24.11    1.61
  -8  -3  -7   -0.82    0.68
  -8  -3  -7    2.51    1.04
   8   3   7    0.71    0.78
  -9  -3  -7   14.05    1.79
  -9  -3  -7   11.09    1.38
   9   3   7   14.15    1.72
   8  -4  -7   21.02    1.47
   8  -4  -7   22.30    1.81
   8  -4  -7   23.05    1.98
   7  -4  -7   75.15    2.56
   7  -4  -7   76.63    3.05
   7  -4  -7   79.86    3.27
   6  -4  -7  105.46    3.65
   6  -4  -7   99.45    2.90
   6  -4  -7  106.02    3.48
   5  -4  -7   23.51    1.32
   5  -4  -7   21.76    1.73
   4  -4  -7   15.54    1.40
   4  -4  -7   19.09    1.13
  -4   4   7   15.51    1.56
  -4   4   7   14.74    1.04
   3  -4  -7   28.71    1.58
   3  -4  -7   28.47    1.30
  -3   4   7   31.00    1.85
  -3   4   7   30.45    1.28
   2  -4  -7  177.72    3.80
   2  -4  -7  183.69    4.29
  -2   4   7  180.47    5.01
  -2   4   7  177.09    3.78
   1  -4  -7  186.16    4.16
   1  -4  -7  180.91    3.82
   1  -4  -7  182.59    4.33
  -1   4   7  186.68    5.03
  -1   4   7  182.31    3.81
   0  -4  -7  196.71    4.60
   0  -4  -7  199.33    4.47
   0   4   7  188.63    3.93
   0   4   7  185.03    5.01
  -1  -4  -7  222.81    4.54
  -1  -4  -7  229.28    5.14
  -1  -4  -7  233.52    5.36
   1   4   7  228.98    4.58
  -2  -4  -7    3.36    0.72
  -2  -4  -7    2.99    0.68
  -2  -4  -7    3.47    0.82
   2   4   7    3.88    0.64
  -3  -4  -7    2.28    0.70
  -3  -4  -7    2.91    0.84
  -3  -4  -7    3.76    0.75
   3   4   7    3.74    0.65
  -4  -4  -7  108.26    3.26
  -4  -4  -7   99.58    2.77
  -4  -4  -7  102.06    3.06
   4   4   7   99.37    2.73
  -5  -4  -7   81.54    2.68
  -5  -4  -7   75.47    2.45
  -5  -4  -7   81.46    2.83
   5   4   7   76.90    2.42
  -6  -4  -7   32.09    1.74
  -6  -4  -7   31.70    1.93
  -6  -4  -7   32.04    1.72
   6   4   7   31.82    1.62
  -7  -4  -7   56.21    2.32
  -7  -4  -7   57.02    2.48
   7   4   7   60.37    2.33
  -8  -4  -7   27.36    1.92
  -8  -4  -7   28.04    1.85
   8   4   7   30.78    1.84
  -9  -4  -7    1.43    0.94
  -9  -4  -7    1.70    1.07
   9   4   7    2.35    0.99
   8  -5  -7   17.63    1.88
   8  -5  -7   14.19    1.76
   8  -5  -7   17.23    1.48
  -8   5   7   17.67    1.74
   7  -5  -7   42.62    2.49
   7  -5  -7   44.33    2.06
   7  -5  -7   42.52    2.37
   6  -5  -7   43.45    2.28
   6  -5  -7   41.27    1.89
  -6   5   7   40.30    2.56
   5  -5  -7   21.46    1.63
   5  -5  -7   19.68    1.34
  -5   5   7   22.96    1.92
   4  -5  -7    1.61    0.63
   4  -5  -7    2.53    0.85
  -4   5   7    2.67    1.02
  -4   5   7    1.07    0.56
   3  -5  -7  124.65    3.13
   3  -5  -7  128.06    3.54
  -3   5   7  124.31    3.11
  -3   5   7  121.68    4.08
   2  -5  -7   36.67    1.65
   2  -5  -7   37.43    1.49
  -2   5   7   36.17    2.10
  -2   5   7   39.05    1.50
   1  -5  -7   83.92    2.29
   1  -5  -7   88.57    2.55
   1  -5  -7   78.54    2.35
  -1   5   7   88.19    2.29
  -1   5   7   80.22    2.97
   0  -5  -7   81.49    2.24
   0  -5  -7   83.15    2.57
   0   5   7   82.07    2.20
   0   5   7   78.14    2.81
  -1  -5  -7    1.50    0.54
  -1  -5  -7    2.11    0.57
  -1  -5  -7    1.53    0.67
   1   5   7    1.05    0.38
  -2  -5  -7    0.53    0.62
  -2  -5  -7    1.10    0.58
  -2  -5  -7    1.48    0.54
   2   5   7    0.46    0.39
  -3  -5  -7   48.04    2.09
  -3  -5  -7   44.85    1.67
  -3  -5  -7   42.85    1.87
   3   5   7   40.46    1.58
  -4  -5  -7   68.99    2.64
  -4  -5  -7   65.03    2.16
   4   5   7   65.65    2.10
  -5  -5  -7   63.37    2.20
  -5  -5  -7   65.14    2.62
   5   5   7   58.27    2.07
  -6  -5  -7   56.46    2.54
  -6  -5  -7   58.59    2.22
   6   5   7   56.40    2.14
  -7  -5  -7   30.73    1.75
  -7  -5  -7   31.62    1.97
   7   5   7   30.29    1.72
  -8  -5  -7    4.89    1.19
  -8  -5  -7    6.52    1.21
   8   5   7    8.14    1.20
  -9  -5  -7    0.07    0.86
  -9  -5  -7    1.10    0.97
   9   5   7    0.49    0.81
   7  -6  -7   32.44    1.92
  -7   6   7   31.81    2.52
  -7   6   7   31.57    2.21
   6  -6  -7   27.86    1.69
  -6   6   7   29.32    2.31
   5  -6  -7   45.68    2.00
  -5   6   7   47.31    2.70
   4  -6  -7    8.87    1.17
  -4   6   7    8.23    1.47
  -4   6   7    7.32    1.05
   3  -6  -7   10.63    1.13
  -3   6   7   13.11    1.73
  -3   6   7   11.56    1.02
   2  -6  -7    2.52    0.69
  -2   6   7    2.71    0.60
  -2   6   7    3.34    1.08
   1  -6  -7   80.10    2.53
   1  -6  -7   78.80    2.31
  -1   6   7   80.64    2.30
  -1   6   7   75.15    2.96
   0  -6  -7   25.92    1.29
   0  -6  -7   28.36    1.58
   0   6   7   24.52    1.66
   0   6   7   26.83    1.26
  -1  -6  -7   65.73    2.06
  -1  -6  -7   65.56    2.32
  -1  -6  -7   64.42    2.37
   1   6   7   60.32    1.94
  -2  -6  -7   41.33    1.99
  -2  -6  -7   43.56    1.65
  -2  -6  -7   44.17    1.89
   2   6   7   43.56    1.60
  -3  -6  -7    2.42    0.83
  -3  -6  -7    3.20    0.72
  -3  -6  -7    2.96    0.79
   3   6   7    3.76    0.68
  -4  -6  -7   19.05    1.26
  -4  -6  -7   16.28    1.45
  -4  -6  -7   19.36    1.41
   4   6   7   18.31    1.15
  -5  -6  -7    2.63    0.77
  -5  -6  -7    1.97    0.84
  -5  -6  -7    2.86    0.89
   5   6   7    1.69    0.61
  -6  -6  -7   20.58    1.51
  -6  -6  -7   22.20    1.80
   6   6   7   21.91    1.40
  -7  -6  -7    2.23    1.02
  -7  -6  -7    4.00    0.96
   7   6   7    4.37    0.82
  -8  -6  -7   17.29    1.82
  -8  -6  -7   16.74    1.53
   8   6   7   20.10    1.52
  -9  -6  -7   16.44    1.83
   9   6   7   16.02    1.55
   6  -7  -7   18.57    1.58
  -6   7   7   22.33    2.25
   5  -7  -7    2.14    0.79
  -5   7   7    3.60    1.04
  -5   7   7    2.47    1.25
   4  -7  -7    5.23    0.95
  -4   7   7    4.48    1.31
  -4   7   7    7.77    1.08
   3  -7  -7    1.68    0.66
  -3   7   7    0.37    0.87
  -3   7   7    0.96    0.60
   2  -7  -7   41.88    1.79
  -2   7   7   36.18    2.18
  -2   7   7   38.95    1.71
   1  -7  -7   13.43    1.37
   1  -7  -7   13.55    1.17
  -1   7   7   14.42    1.13
  -1   7   7   12.44    1.43
   0  -7  -7   54.83    1.96
   0  -7  -7   57.48    2.28
   0   7   7   52.96    2.45
   0   7   7   57.46    1.95
  -1  -7  -7   86.55    2.51
  -1  -7  -7   86.92    2.92
   1   7   7   84.67    2.44
  -2  -7  -7   22.70    1.71
  -2  -7  -7   27.74    1.63
   2   7   7   27.23    1.33
  -3  -7  -7   28.76    1.68
  -3  -7  -7   26.78    1.85
  -3  -7  -7   31.17    1.51
   3   7   7   28.79    1.38
  -4  -7  -7    6.07    1.07
  -4  -7  -7    4.16    1.07
  -4  -7  -7    5.33    0.89
   4   7   7    5.94    0.86
  -5  -7  -7    3.18    0.81
  -5  -7  -7    3.25    0.93
  -5  -7  -7    3.76    0.99
   5   7   7    3.29    0.70
  -6  -7  -7   35.54    1.77
  -6  -7  -7   36.36    2.15
  -6  -7  -7   38.20    2.12
   6   7   7   39.84    1.81
  -7  -7  -7   54.97    2.20
  -7  -7  -7   53.92    2.61
   7   7   7   53.80    2.18
  -8  -7  -7   70.55    2.62
  -8  -7  -7   71.22    3.08
   8   7   7   72.74    2.63
  -9  -7  -7   15.32    1.80
   9   7   7   16.07    1.66
   5  -8  -7   18.47    1.59
  -5   8   7   13.32    1.99
  -5   8   7   15.90    1.48
  -5   8   7   16.87    1.81
   4  -8  -7   67.20    2.63
  -4   8   7   66.02    2.55
  -4   8   7   70.86    3.33
   3  -8  -7   24.44    1.63
  -3   8   7   27.56    2.12
  -3   8   7   25.44    1.58
   2  -8  -7   27.92    1.65
  -2   8   7   30.03    1.61
  -2   8   7   34.07    2.20
   1  -8  -7   19.17    1.34
   1  -8  -7   16.69    1.58
  -1   8   7   19.88    1.68
  -1   8   7   16.89    1.21
   0  -8  -7   30.47    1.82
   0  -8  -7   29.27    1.56
   0   8   7   28.36    1.49
  -1  -8  -7   47.89    1.89
  -1  -8  -7   48.42    2.27
   1   8   7   45.74    1.80
  -2  -8  -7  109.70    3.55
  -2  -8  -7  110.68    3.03
   2   8   7  110.34    2.98
  -3  -8  -7   96.82    3.30
  -3  -8  -7   90.34    3.18
   3   8   7   95.91    2.72
  -4  -8  -7   14.49    1.29
  -4  -8  -7   16.56    1.63
  -4  -8  -7   16.73    1.47
   4   8   7   15.23    1.18
  -5  -8  -7   33.12    2.01
  -5  -8  -7   37.58    1.78
  -5  -8  -7   33.75    2.12
   5   8   7   38.88    1.75
  -6  -8  -7    8.17    1.08
  -6  -8  -7    5.60    1.23
  -6  -8  -7    7.85    1.31
   6   8   7    7.57    1.01
  -7  -8  -7   39.98    2.28
  -7  -8  -7   37.04    1.88
  -7  -8  -7   41.51    2.39
   7   8   7   44.98    1.93
  -8  -8  -7   39.22    2.37
  -8  -8  -7   30.97    2.23
   8   8   7   36.81    1.91
  -9  -8  -7   47.47    2.83
  -9  -8  -7   48.42    2.70
   9   8   7   45.90    2.22
   4  -9  -7   33.86    2.04
  -4   9   7   33.75    2.36
  -4   9   7   32.69    1.99
  -4   9   7   31.23    2.53
   3  -9  -7   37.31    2.00
  -3   9   7   37.48    2.00
  -3   9   7   34.95    2.41
   2  -9  -7   30.73    1.79
  -2   9   7   27.79    1.69
  -2   9   7   27.84    2.08
   1  -9  -7    8.21    1.18
   1  -9  -7    6.77    1.16
  -1   9   7    9.08    1.51
  -1   9   7    7.60    1.09
   0  -9  -7   20.81    1.46
   0  -9  -7   18.44    1.68
   0   9   7   21.41    1.41
  -1  -9  -7   96.36    2.90
  -1  -9  -7   97.46    3.35
   1   9   7   93.99    2.84
  -2  -9  -7  132.39    3.56
  -2  -9  -7  139.91    4.19
   2   9   7  132.72    3.50
  -3  -9  -7   96.64    2.93
  -3  -9  -7  101.03    3.53
   3   9   7   99.45    2.90
  -4  -9  -7   26.51    1.61
  -4  -9  -7   24.74    1.75
  -4  -9  -7   26.32    2.00
   4   9   7   20.99    1.40
  -5  -9  -7    5.76    1.23
  -5  -9  -7    5.40    1.22
   5   9   7    6.49    0.97
  -6  -9  -7   14.01    1.56
  -6  -9  -7   13.71    1.42
  -6  -9  -7   12.62    1.61
   6   9   7   15.34    1.24
  -7  -9  -7   46.64    2.57
  -7  -9  -7   42.84    2.51
   7   9   7   46.57    2.07
  -8  -9  -7   82.79    3.48
  -8  -9  -7   81.58    3.53
   8   9   7   83.04    2.84
  -9  -9  -7   83.35    3.76
  -9  -9  -7   83.46    3.57
   9   9   7   85.82    2.96
   3 -10  -7   50.69    2.47
  -3  10   7   47.82    2.39
  -3  10   7   52.25    2.81
  -3  10   7   53.20    2.87
   2 -10  -7   23.33    1.73
  -2  10   7   22.42    1.66
   1 -10  -7   15.12    1.62
   1 -10  -7   14.48    1.63
  -1  10   7   15.42    1.40
   0 -10  -7    1.35    0.98
   0 -10  -7    1.86    0.82
   0  10   7    2.19    0.84
  -1 -10  -7   36.47    2.26
  -1 -10  -7   37.57    1.91
   1  10   7   34.83    1.83
  -2 -10  -7   30.28    1.75
  -2 -10  -7   28.26    2.09
   2  10   7   29.61    1.65
  -3 -10  -7   73.59    2.61
  -3 -10  -7   74.06    3.08
   3  10   7   73.29    2.52
  -4 -10  -7   34.53    2.18
  -4 -10  -7   36.55    2.31
  -4 -10  -7   33.90    1.84
   4  10   7   35.79    1.76
  -5 -10  -7    5.93    1.06
  -5 -10  -7    5.63    1.40
  -5 -10  -7    5.07    1.21
   5  10   7    5.65    1.00
  -6 -10  -7    2.56    1.09
  -6 -10  -7    2.96    1.16
   6  10   7    2.09    0.73
  -7 -10  -7    1.05    1.03
  -7 -10  -7    1.96    1.16
   7  10   7    0.47    0.70
  -8 -10  -7    8.61    1.72
  -8 -10  -7    8.70    1.60
   8  10   7   11.09    1.36
   2 -11  -7   12.31    1.65
  -2  11   7   13.35    1.59
  -2  11   7   12.95    1.89
   1 -11  -7    8.28    1.36
  -1  11   7    9.68    1.41
  -1  11   7    8.06    1.48
   0 -11  -7    9.15    1.38
   0 -11  -7    7.66    1.43
   0  11   7    9.15    1.35
  -1 -11  -7   19.35    1.67
  -1 -11  -7   17.94    1.94
   1  11   7   16.99    1.49
  -2 -11  -7   17.13    1.97
  -2 -11  -7   17.49    1.57
   2  11   7   15.02    1.46
  -3 -11  -7   63.11    3.04
  -3 -11  -7   64.43    2.51
   3  11   7   62.89    2.42
  -4 -11  -7   33.03    1.92
  -4 -11  -7   36.19    2.41
   4  11   7   31.98    1.78
  -5 -11  -7   45.62    2.75
  -5 -11  -7   38.60    2.53
   5  11   7   37.06    1.89
  -6 -11  -7    8.10    1.65
  -6 -11  -7    9.52    1.72
   6  11   7    9.20    1.21
  -7 -11  -7    0.29    1.15
  -7 -11  -7    1.88    1.21
   7  11   7    3.29    0.93
  -8 -11  -7    2.05    1.29
  -8 -11  -7   -0.07    1.15
   8  11   7    1.42    0.81
   0 -12  -7    8.92    1.46
   0 -12  -7    8.86    1.62
   0  12   7    9.08    1.68
   0  12   7    8.88    1.46
  -1 -12  -7    6.39    1.32
  -1 -12  -7    7.29    1.47
   1  12   7    6.70    1.34
   1  12   7    8.85    1.37
  -2 -12  -7    0.81    1.08
  -2 -12  -7    0.41    0.91
   2  12   7    0.35    0.82
   2  12   7    0.12    0.71
  -3 -12  -7   -0.07    1.07
   3  12   7    0.63    0.84
  -4 -12  -7    3.18    1.36
   4  12   7    3.39    0.95
  -5 -12  -7   25.46    2.47
   5  12   7   20.79    1.58
  -6 -12  -7    5.69    1.60
   6  12   7    5.18    1.06
   6   6  -8   -0.09    1.07
   6   6  -8    1.27    1.38
   5   6  -8   12.62    1.96
   4   6  -8   29.57    2.52
   3   6  -8   35.31    2.62
   3   6  -8   33.25    2.26
   2   6  -8   10.49    1.63
   2   6  -8   13.19    1.97
   1   6  -8   12.61    1.76
   1   6  -8   16.53    2.10
   0   6  -8    1.91    0.97
   0   6  -8    2.20    1.33
   0   6  -8    1.04    1.14
   7   5  -8    3.42    1.35
   7   5  -8    2.28    1.13
   7   5  -8    4.08    1.36
   6   5  -8    0.35    1.20
   6   5  -8   -0.18    0.95
   6   5  -8    0.38    0.97
   5   5  -8   29.34    1.97
   5   5  -8   31.26    2.39
   5   5  -8   31.12    2.19
   4   5  -8   43.47    2.23
   4   5  -8   45.76    2.76
   4   5  -8   39.83    2.35
   3   5  -8   52.14    2.65
   3   5  -8   61.38    3.09
   2   5  -8   44.19    2.64
   2   5  -8   34.81    2.23
   1   5  -8    6.69    1.55
   1   5  -8    5.25    1.28
   0   5  -8    1.16    1.10
   0   5  -8    0.54    0.78
   0   5  -8   -0.35    0.91
  -1   5  -8    3.81    1.32
  -1   5  -8    3.34    1.21
  -1   5  -8    2.80    1.02
  -2   5  -8   25.78    2.26
  -2   5  -8   28.13    1.85
   8   4  -8   36.31    2.78
   8   4  -8   36.18    2.47
   8   4  -8   32.04    2.36
   7   4  -8    4.90    1.26
   7   4  -8    5.58    1.58
   7   4  -8    4.42    1.27
   6   4  -8    9.74    1.75
   6   4  -8    7.85    1.39
   6   4  -8    7.85    1.37
   5   4  -8   30.77    1.98
   5   4  -8   31.78    2.35
   5   4  -8   30.03    2.06
   4   4  -8   40.21    2.31
   4   4  -8   37.88    2.06
   4   4  -8   44.82    2.53
   4   4  -8   37.96    2.15
   3   4  -8   80.23    2.79
   3   4  -8   78.15    3.14
   3   4  -8   82.56    3.40
   2   4  -8   56.82    2.67
   2   4  -8   66.75    2.99
   1   4  -8    8.76    1.49
   1   4  -8    8.60    1.33
   0   4  -8   13.36    1.67
   0   4  -8   12.86    1.17
   0   4  -8   13.10    1.61
  -1   4  -8    1.56    1.02
  -1   4  -8   -0.45    0.88
  -1   4  -8    1.49    0.80
  -2   4  -8   16.32    1.57
  -2   4  -8   20.37    1.93
  -3   4  -8   17.52    1.59
  -3   4  -8   15.27    1.95
   8   3  -8   53.85    2.85
   8   3  -8   47.97    2.69
   7   3  -8    6.65    1.60
   7   3  -8    9.08    1.51
   7   3  -8    6.75    1.35
   6   3  -8    0.99    0.86
   6   3  -8    1.86    1.25
   6   3  -8    2.89    1.02
   5   3  -8   -0.09    0.89
   5   3  -8    0.78    0.85
   5   3  -8    1.22    0.85
   4   3  -8   24.92    1.97
   4   3  -8   20.15    1.57
   4   3  -8   19.51    1.56
   4   3  -8   21.51    1.72
   3   3  -8   15.48    1.53
   3   3  -8   17.37    1.65
   3   3  -8   12.46    1.31
   3   3  -8   13.20    1.43
   2   3  -8   18.96    1.64
   2   3  -8   19.55    1.74
   2   3  -8   19.23    1.37
   1   3  -8   22.29    1.69
   1   3  -8   21.28    1.74
   0   3  -8    1.87    0.88
   0   3  -8    0.69    0.58
   0   3  -8   -0.09    0.84
  -1   3  -8    3.93    1.07
  -1   3  -8    6.06    1.20
  -1   3  -8    4.27    0.88
  -2   3  -8    1.33    0.98
  -2   3  -8    1.36    0.80
  -3   3  -8    6.38    1.11
  -3   3  -8    3.85    1.25
  -4   3  -8    6.77    1.26
  -4   3  -8    6.70    1.44
   8   2  -8   16.69    1.78
   8   2  -8   15.72    1.87
   7   2  -8   32.62    2.11
   7   2  -8   29.25    2.11
   6   2  -8   39.65    2.20
   6   2  -8   36.21    2.15
   6   2  -8   39.01    2.57
   5   2  -8    7.98    1.27
   5   2  -8    8.60    1.49
   5   2  -8   10.22    1.41
   4   2  -8   -0.08    0.73
   4   2  -8    0.33    0.72
   4   2  -8    0.96    0.72
   3   2  -8    1.44    0.79
   3   2  -8    0.74    0.81
   3   2  -8    1.31    0.72
   3   2  -8    1.73    0.78
   2   2  -8   33.98    1.95
   2   2  -8   33.88    1.68
   2   2  -8   37.93    1.96
   2   2  -8   33.86    1.95
   1   2  -8   61.60    2.62
   1   2  -8   62.93    2.11
   1   2  -8   65.32    2.61
   0   2  -8   39.23    2.01
   0   2  -8   41.20    2.12
   0   2  -8   38.00    1.52
  -1   2  -8  100.68    3.58
  -1   2  -8  107.82    2.79
  -1   2  -8  106.89    3.36
  -2   2  -8    7.25    1.33
  -2   2  -8    9.37    1.14
  -3   2  -8    2.59    1.11
  -3   2  -8    2.26    0.87
  -4   2  -8   10.74    1.53
  -4   2  -8   13.06    1.49
  -5   2  -8   50.91    2.48
  -5   2  -8   48.77    2.80
   9   1  -8    0.74    1.10
   9   1  -8    1.46    0.97
  -9  -1   8    1.10    0.80
   8   1  -8    0.86    0.99
   8   1  -8    0.68    0.86
   7   1  -8   50.39    2.52
   7   1  -8   48.74    2.51
   6   1  -8   34.96    2.04
   6   1  -8   35.18    2.03
   5   1  -8   61.03    2.89
   5   1  -8   62.33    2.58
   5   1  -8   65.42    2.60
   4   1  -8   25.76    1.89
   4   1  -8   30.09    1.78
   4   1  -8   27.58    1.64
   3   1  -8    4.95    0.93
   3   1  -8    4.53    0.90
   3   1  -8    4.19    0.93
   3   1  -8    4.90    1.10
   2   1  -8    4.68    0.93
   2   1  -8    5.51    1.08
   2   1  -8    4.09    0.84
   2   1  -8    5.20    1.00
   1   1  -8   55.57    2.40
   1   1  -8   56.94    2.32
   1   1  -8   54.33    1.94
   0   1  -8  108.92    3.28
   0   1  -8  108.24    2.63
   0   1  -8  104.48    3.48
  -1   1  -8   63.56    2.04
  -1   1  -8   60.18    2.59
  -1   1  -8   68.23    2.39
  -2   1  -8   22.79    1.79
  -2   1  -8   24.63    1.40
  -3   1  -8   12.68    1.32
  -3   1  -8   14.74    1.61
  -4   1  -8    4.16    1.21
  -4   1  -8    4.12    0.99
   4  -1   8    4.56    1.00
  -5   1  -8   15.82    1.84
  -5   1  -8   17.82    1.82
   5  -1   8   18.04    1.80
  -6   1  -8   30.48    2.09
  -6   1  -8   32.82    2.38
   6  -1   8   32.20    2.08
   9   0  -8   -0.31    0.93
   9   0  -8    0.50    0.91
  -9   0   8    0.10    0.71
   8   0  -8   15.95    1.83
   8   0  -8   16.48    1.75
  -8   0   8   16.73    1.38
   7   0  -8   37.40    2.13
   7   0  -8   36.85    2.22
  -7   0   8   36.04    1.69
   6   0  -8   59.58    2.50
   6   0  -8   53.87    2.48
  -6   0   8   52.58    1.89
   5   0  -8  142.82    4.21
   5   0  -8  147.68    4.10
   4   0  -8   14.94    1.31
   4   0  -8   14.34    1.34
   4   0  -8   13.50    1.51
   3   0  -8   -0.18    0.64
   3   0  -8    1.50    0.83
   3   0  -8    1.54    0.78
   2   0  -8    0.87    0.79
   2   0  -8    1.97    0.70
   2   0  -8    1.98    0.73
   2   0  -8    1.73    0.72
  -2   0   8    2.04    0.75
   1   0  -8  114.47    3.57
   1   0  -8  114.49    3.47
   1   0  -8  120.08    3.31
   1   0  -8  115.57    2.94
   1   0  -8  114.92    2.62
  -1   0   8  114.68    3.32
   0   0  -8  156.57    4.51
   0   0  -8  164.24    4.24
   0   0  -8  164.59    3.48
   0   0   8  159.63    4.03
  -1   0  -8  161.06    4.06
  -1   0  -8  155.73    3.51
  -1   0  -8  153.79    4.46
  -2   0  -8   93.64    2.62
  -2   0  -8   95.00    3.28
   2   0   8   96.12    2.62
  -3   0  -8    2.38    0.74
  -3   0  -8    2.38    0.87
   3   0   8    1.56    0.64
  -4   0  -8    0.44    0.79
  -4   0  -8    1.04    0.72
   4   0   8    0.54    0.63
  -5   0  -8    9.20    1.43
  -5   0  -8    8.67    1.31
   5   0   8    9.01    1.23
  -6   0  -8   67.35    2.76
  -6   0  -8   71.23    3.18
   6   0   8   65.11    2.69
  -7   0  -8   20.49    2.08
  -7   0  -8   22.04    1.92
   7   0   8   20.14    1.80
   9  -1  -8    2.35    1.07
   9  -1  -8    1.90    1.03
   8  -1  -8   11.67    1.76
   8  -1  -8   11.71    1.67
   7  -1  -8   26.28    2.02
   7  -1  -8   28.77    1.93
   6  -1  -8   95.69    3.42
   6  -1  -8   96.76    3.27
   5  -1  -8   55.82    2.34
   5  -1  -8   56.87    2.45
   4  -1  -8   36.96    1.83
   4  -1  -8   36.67    1.84
   3  -1  -8    5.17    0.89
   3  -1  -8    5.09    0.89
   2  -1  -8   32.68    1.54
   2  -1  -8   33.99    1.67
  -2   1   8   34.07    1.77
   1  -1  -8   19.57    1.27
   1  -1  -8   17.68    1.09
   1  -1  -8   16.85    1.30
   1  -1  -8   16.68    1.38
   1  -1  -8   18.34    0.99
  -1   1   8   17.37    1.38
   0  -1  -8   36.27    1.73
   0  -1  -8   41.42    2.01
   0  -1  -8   40.37    1.48
   0   1   8   41.60    1.41
   0   1   8   42.56    1.82
  -1  -1  -8   87.96    3.05
  -1  -1  -8   87.15    2.35
   1   1   8   89.20    2.36
  -2  -1  -8   10.68    1.28
  -2  -1  -8    9.83    0.96
   2   1   8   12.21    0.95
  -3  -1  -8    5.60    0.88
  -3  -1  -8    6.90    1.12
   3   1   8    6.02    0.88
  -4  -1  -8    2.26    0.87
  -4  -1  -8    1.58    0.77
   4   1   8    1.11    0.64
  -5  -1  -8   13.35    1.43
  -5  -1  -8   11.10    1.46
   5   1   8   12.44    1.20
  -6  -1  -8   17.28    1.75
  -6  -1  -8   18.45    1.60
   6   1   8   18.32    1.51
  -7  -1  -8   32.87    2.05
  -7  -1  -8   30.68    2.26
   7   1   8   35.04    2.09
   8  -2  -8    2.87    1.11
   8  -2  -8    2.53    1.07
   7  -2  -8   69.66    2.88
   7  -2  -8   68.68    3.08
   6  -2  -8   40.00    2.31
   6  -2  -8   44.57    2.18
   5  -2  -8   59.52    2.39
   5  -2  -8   57.74    2.58
   4  -2  -8   84.51    2.15
   4  -2  -8   81.22    2.74
   4  -2  -8   82.03    2.80
   3  -2  -8    1.36    0.48
   3  -2  -8    1.91    0.71
   3  -2  -8    1.20    0.66
   2  -2  -8    6.17    0.89
   2  -2  -8    4.48    0.85
   2  -2  -8    5.78    0.69
  -2   2   8    5.73    1.03
   1  -2  -8    0.96    0.57
   1  -2  -8    1.30    0.58
   1  -2  -8    2.22    0.54
  -1   2   8    0.85    0.36
  -1   2   8    1.00    0.73
   0  -2  -8   27.82    1.20
   0  -2  -8   25.64    1.29
   0  -2  -8   27.71    1.63
   0  -2  -8   22.72    1.14
   0   2   8   27.76    1.58
   0   2   8   24.92    1.09
  -1  -2  -8   84.81    2.27
  -1  -2  -8   82.55    2.87
  -1  -2  -8   79.05    2.75
   1   2   8   82.46    2.22
  -2  -2  -8   71.73    2.66
  -2  -2  -8   68.66    2.62
  -2  -2  -8   68.38    2.11
   2   2   8   69.87    2.11
  -3  -2  -8   59.16    2.55
  -3  -2  -8   59.95    2.04
  -3  -2  -8   64.41    2.54
   3   2   8   61.60    2.02
  -4  -2  -8    4.90    0.91
  -4  -2  -8    4.93    1.02
   4   2   8    5.39    0.89
  -5  -2  -8   21.56    1.68
  -5  -2  -8   22.48    1.54
   5   2   8   23.06    1.44
  -6  -2  -8    9.85    1.33
  -6  -2  -8    8.16    1.32
   6   2   8    8.59    1.27
  -7  -2  -8   14.35    1.69
  -7  -2  -8   10.24    1.50
   7   2   8   13.82    1.61
  -8  -2  -8    9.13    1.54
   8   2   8    8.94    1.48
   8  -3  -8    0.50    0.59
   8  -3  -8    0.19    0.85
   8  -3  -8   -0.12    0.93
   7  -3  -8    3.51    1.17
   7  -3  -8    4.38    1.08
   7  -3  -8    5.30    0.84
   6  -3  -8    1.83    0.98
   6  -3  -8    3.02    0.91
   6  -3  -8    3.46    0.70
   5  -3  -8   64.90    2.50
   5  -3  -8   67.55    2.72
   5  -3  -8   64.18    2.03
   4  -3  -8    1.61    0.71
   4  -3  -8    1.73    0.73
   4  -3  -8    1.82    0.61
   3  -3  -8   11.28    1.16
   3  -3  -8   10.71    1.15
   3  -3  -8   10.41    0.87
  -3   3   8   11.51    1.47
   2  -3  -8   12.46    1.05
   2  -3  -8   12.31    0.88
   2  -3  -8   12.12    1.13
  -2   3   8   11.32    0.82
  -2   3   8   11.63    1.36
   1  -3  -8   10.34    1.04
   1  -3  -8   11.37    1.13
   1  -3  -8   10.04    0.93
  -1   3   8   11.55    1.42
  -1   3   8   11.96    0.79
   0  -3  -8    3.54    0.66
   0  -3  -8    4.25    0.66
   0  -3  -8    5.13    0.67
   0  -3  -8    3.72    0.81
   0   3   8    5.19    0.98
   0   3   8    3.71    0.58
  -1  -3  -8   13.97    1.27
  -1  -3  -8   12.91    0.98
  -1  -3  -8   15.14    1.01
   1   3   8   13.69    0.91
  -2  -3  -8   98.15    2.64
  -2  -3  -8  101.44    3.17
  -2  -3  -8  105.28    3.24
   2   3   8   98.42    2.61
  -3  -3  -8   59.88    2.05
  -3  -3  -8   62.13    2.44
  -3  -3  -8   64.84    2.49
   3   3   8   61.98    2.05
  -4  -3  -8   25.52    1.69
  -4  -3  -8   24.66    1.73
  -4  -3  -8   25.69    1.44
   4   3   8   26.14    1.39
  -5  -3  -8   45.71    1.98
  -5  -3  -8   48.04    2.30
  -5  -3  -8   47.17    2.25
   5   3   8   46.98    1.94
  -6  -3  -8    0.49    0.81
  -6  -3  -8   -0.14    0.77
  -6  -3  -8    1.32    0.78
   6   3   8    0.33    0.64
  -7  -3  -8    2.00    0.89
  -7  -3  -8    0.33    0.86
   7   3   8    0.39    0.71
  -8  -3  -8   52.17    2.59
   8   3   8   52.74    2.54
   8  -4  -8    9.60    1.55
   8  -4  -8    9.26    1.22
   8  -4  -8   10.81    1.70
   7  -4  -8   11.31    1.51
   7  -4  -8   10.63    1.64
   7  -4  -8   12.51    1.17
   6  -4  -8    8.87    1.41
   6  -4  -8    9.65    1.39
   6  -4  -8    8.31    1.06
   5  -4  -8   11.04    1.16
   5  -4  -8    9.78    1.34
   5  -4  -8    9.78    1.27
   4  -4  -8   47.21    2.11
   4  -4  -8   45.92    1.75
  -4   4   8   43.53    2.36
   3  -4  -8   81.82    2.68
   3  -4  -8   82.45    2.32
  -3   4   8   78.35    3.15
   2  -4  -8  105.33    2.93
   2  -4  -8  102.17    2.62
  -2   4   8  102.20    3.54
  -2   4   8   98.59    2.55
   1  -4  -8  111.23    2.75
   1  -4  -8  115.85    3.16
   1  -4  -8  115.25    2.93
  -1   4   8  112.54    2.74
  -1   4   8  113.92    3.68
   0  -4  -8   32.84    1.37
   0  -4  -8   34.43    1.71
   0   4   8   33.38    1.85
   0   4   8   33.69    1.31
  -1  -4  -8    8.95    0.94
  -1  -4  -8    8.27    0.89
  -1  -4  -8   10.62    1.21
   1   4   8    7.92    0.78
  -2  -4  -8   69.16    2.27
  -2  -4  -8   66.58    2.10
  -2  -4  -8   67.36    2.53
   2   4   8   65.12    2.03
  -3  -4  -8   69.47    2.66
  -3  -4  -8   73.55    2.64
  -3  -4  -8   72.47    2.30
   3   4   8   71.47    2.22
  -4  -4  -8  204.46    5.20
  -4  -4  -8  204.43    5.26
  -4  -4  -8  199.24    4.51
   4   4   8  197.20    4.49
  -5  -4  -8   67.39    2.70
  -5  -4  -8   71.03    2.64
  -5  -4  -8   66.74    2.35
   5   4   8   63.80    2.31
  -6  -4  -8   34.15    1.90
  -6  -4  -8   34.85    1.81
  -6  -4  -8   38.52    2.11
   6   4   8   32.36    1.70
  -7  -4  -8   11.00    1.43
  -7  -4  -8    9.35    1.37
   7   4   8   11.27    1.35
  -8  -4  -8   28.24    2.06
  -8  -4  -8   30.53    2.12
   8   4   8   33.56    2.00
   7  -5  -8    8.42    1.42
   7  -5  -8    6.58    1.41
   7  -5  -8    5.44    1.05
  -7   5   8   12.46    1.98
   6  -5  -8    1.11    0.76
   6  -5  -8    1.72    0.94
   6  -5  -8    1.84    0.94
  -6   5   8    3.06    1.25
   5  -5  -8   12.96    1.58
   5  -5  -8   13.93    1.39
  -5   5   8   14.27    1.91
   4  -5  -8  117.00    3.53
   4  -5  -8  111.26    3.02
  -4   5   8  101.79    3.94
   3  -5  -8   29.51    1.44
   3  -5  -8   31.85    1.66
  -3   5   8   30.46    1.40
  -3   5   8   25.60    1.93
   2  -5  -8   99.96    2.71
   2  -5  -8  104.09    2.98
  -2   5   8  105.32    2.72
  -2   5   8  101.70    3.68
   1  -5  -8  112.78    2.87
   1  -5  -8  116.76    3.26
   1  -5  -8  114.80    2.99
  -1   5   8  113.62    3.77
  -1   5   8  116.35    2.87
   0  -5  -8    2.30    0.64
   0  -5  -8    1.74    0.73
   0   5   8    1.78    0.50
   0   5   8    1.11    0.73
  -1  -5  -8   14.87    1.40
  -1  -5  -8   13.86    1.04
  -1  -5  -8   16.83    1.17
   1   5   8   15.75    1.00
  -2  -5  -8   22.80    1.66
  -2  -5  -8   24.05    1.37
  -2  -5  -8   23.35    1.39
   2   5   8   24.60    1.24
  -3  -5  -8  108.37    2.92
  -3  -5  -8  114.70    3.55
  -3  -5  -8  111.32    3.30
   3   5   8  110.35    2.93
  -4  -5  -8   83.86    3.05
  -4  -5  -8   80.43    2.53
   4   5   8   81.48    2.49
  -5  -5  -8   98.79    3.35
  -5  -5  -8   96.38    2.91
   5   5   8   94.52    2.82
  -6  -5  -8   20.68    1.52
  -6  -5  -8   20.66    1.79
  -6  -5  -8   19.24    1.50
   6   5   8   21.89    1.43
  -7  -5  -8   14.94    1.53
  -7  -5  -8   11.02    1.44
   7   5   8   10.62    1.38
  -8  -5  -8   18.28    1.71
  -8  -5  -8   17.67    1.81
   8   5   8   19.20    1.67
  -9  -5  -8   39.55    2.31
  -9  -5  -8   39.41    2.46
   9   5   8   42.10    2.32
   7  -6  -8   22.49    1.99
   7  -6  -8   21.61    1.65
   7  -6  -8   20.33    1.98
  -7   6   8   19.23    2.26
   6  -6  -8    7.68    1.22
   6  -6  -8    9.97    1.58
  -6   6   8    7.93    1.69
   5  -6  -8   15.18    1.55
   5  -6  -8   14.03    1.50
  -5   6   8   15.68    2.07
   4  -6  -8   18.48    1.35
   4  -6  -8   17.79    1.57
  -4   6   8   19.98    1.93
   3  -6  -8   62.85    2.20
   3  -6  -8   63.68    2.44
  -3   6   8   64.56    2.19
  -3   6   8   62.62    3.00
   2  -6  -8   76.69    2.39
   2  -6  -8   74.72    2.57
  -2   6   8   76.56    3.16
  -2   6   8   80.80    2.41
   1  -6  -8  124.49    3.47
   1  -6  -8  123.18    3.21
   1  -6  -8  122.70    3.13
  -1   6   8  125.32    3.12
  -1   6   8  119.21    4.03
   0  -6  -8   41.84    1.99
   0  -6  -8   42.24    1.69
   0   6   8   42.67    1.65
   0   6   8   40.65    2.14
  -1  -6  -8    7.08    1.08
  -1  -6  -8    9.87    1.19
   1   6   8   10.70    0.93
  -2  -6  -8   35.99    1.76
  -2  -6  -8   34.81    1.96
  -2  -6  -8   38.28    1.61
   2   6   8   36.41    1.53
  -3  -6  -8   20.85    1.72
  -3  -6  -8   21.33    1.47
  -3  -6  -8   19.68    1.34
   3   6   8   21.09    1.23
  -4  -6  -8    7.73    1.28
  -4  -6  -8    7.51    1.16
  -4  -6  -8    6.67    0.97
   4   6   8    8.16    1.01
  -5  -6  -8  159.38    4.60
  -5  -6  -8  153.06    4.48
  -5  -6  -8  149.67    3.85
   5   6   8  150.18    3.84
  -6  -6  -8   20.83    1.54
  -6  -6  -8   18.21    1.81
   6   6   8   18.36    1.37
  -7  -6  -8   18.24    1.83
  -7  -6  -8   18.57    1.58
   7   6   8   18.96    1.46
  -8  -6  -8    1.47    1.06
  -8  -6  -8    1.12    0.93
   8   6   8    2.44    0.83
  -9  -6  -8    0.65    0.96
  -9  -6  -8    0.47    1.04
   9   6   8    1.38    0.93
   6  -7  -8   -0.11    0.69
   6  -7  -8   -0.03    0.83
  -6   7   8    0.34    1.14
   5  -7  -8    6.31    1.13
  -5   7   8    5.79    1.52
   4  -7  -8   21.00    1.51
  -4   7   8   17.21    1.39
  -4   7   8   18.94    2.07
   3  -7  -8   68.62    2.45
  -3   7   8   71.45    2.44
  -3   7   8   65.81    3.14
   2  -7  -8    6.46    1.03
  -2   7   8    5.72    1.29
  -2   7   8    7.11    0.98
   1  -7  -8   22.71    1.60
   1  -7  -8   26.77    1.43
   1  -7  -8   24.79    1.45
  -1   7   8   26.56    1.92
  -1   7   8   26.21    1.44
   0  -7  -8   16.07    1.22
   0  -7  -8   17.26    1.53
   0   7   8   17.71    1.58
   0   7   8   18.53    1.17
  -1  -7  -8   15.51    1.56
  -1  -7  -8   15.96    1.22
   1   7   8   17.48    1.15
  -2  -7  -8   24.40    1.58
  -2  -7  -8   21.77    1.68
   2   7   8   21.91    1.25
  -3  -7  -8   16.28    1.55
  -3  -7  -8   13.95    1.20
  -3  -7  -8   15.10    1.35
   3   7   8   14.02    1.11
  -4  -7  -8   25.20    1.54
  -4  -7  -8   25.75    1.69
  -4  -7  -8   25.83    1.84
   4   7   8   22.57    1.39
  -5  -7  -8   37.24    1.81
  -5  -7  -8   36.98    2.21
  -5  -7  -8   37.12    2.11
   5   7   8   37.57    1.72
  -6  -7  -8   51.52    2.19
  -6  -7  -8   54.47    2.57
  -6  -7  -8   53.61    2.64
   6   7   8   56.43    2.21
  -7  -7  -8   21.36    1.83
  -7  -7  -8   21.85    1.61
  -7  -7  -8   20.82    1.98
   7   7   8   21.68    1.54
  -8  -7  -8    0.82    1.08
  -8  -7  -8    1.25    0.91
   8   7   8    3.01    0.90
  -9  -7  -8   -0.50    1.01
   9   7   8    0.83    0.93
   5  -8  -8    0.73    0.81
  -5   8   8    0.52    1.14
   4  -8  -8   -0.25    0.70
  -4   8   8    1.12    1.17
  -4   8   8    1.08    0.76
   3  -8  -8    2.77    0.93
  -3   8   8    1.13    1.02
  -3   8   8    1.34    0.76
   2  -8  -8    3.69    0.92
  -2   8   8    2.81    0.86
  -2   8   8    2.66    1.18
   1  -8  -8   34.06    1.94
   1  -8  -8   32.13    1.70
  -1   8   8   34.15    1.69
  -1   8   8   32.72    2.13
   0  -8  -8   29.04    1.84
   0  -8  -8   28.72    1.56
   0   8   8   24.97    1.43
  -1  -8  -8   29.85    1.92
  -1  -8  -8   27.67    1.55
   1   8   8   30.10    1.51
  -2  -8  -8   40.42    1.83
  -2  -8  -8   40.31    2.18
   2   8   8   39.78    1.74
  -3  -8  -8    1.68    0.91
  -3  -8  -8    1.19    0.74
   3   8   8    1.67    0.65
  -4  -8  -8   10.99    1.50
  -4  -8  -8   11.61    1.53
  -4  -8  -8   10.63    1.26
   4   8   8   12.60    1.14
  -5  -8  -8    1.62    0.96
  -5  -8  -8    2.41    0.97
  -5  -8  -8    1.40    0.84
   5   8   8    3.47    0.84
  -6  -8  -8   40.68    1.94
  -6  -8  -8   36.78    2.22
  -6  -8  -8   36.96    2.31
   6   8   8   38.35    1.85
  -7  -8  -8   16.48    1.85
  -7  -8  -8   18.09    2.04
  -7  -8  -8   15.12    1.48
   7   8   8   16.80    1.44
  -8  -8  -8   21.76    2.16
  -8  -8  -8   23.87    2.07
  -8  -8  -8   24.77    1.87
   8   8   8   23.40    1.73
  -9  -8  -8    8.68    1.78
  -9  -8  -8    6.42    1.53
   9   8   8    9.54    1.47
   4  -9  -8    1.36    0.99
  -4   9   8    0.49    1.19
  -4   9   8    0.49    0.81
   3  -9  -8    2.93    0.97
  -3   9   8    4.28    1.38
  -3   9   8    4.02    1.02
   2  -9  -8   23.74    1.67
  -2   9   8   24.43    1.59
  -2   9   8   24.06    2.11
   1  -9  -8   22.64    1.63
   1  -9  -8   27.91    1.93
  -1   9   8   23.89    1.55
  -1   9   8   27.66    2.11
   0  -9  -8   44.39    2.32
   0  -9  -8   43.20    2.00
   0   9   8   45.33    1.99
  -1  -9  -8   58.24    2.63
  -1  -9  -8   57.05    2.24
   1   9   8   57.12    2.18
  -2  -9  -8   18.94    1.46
  -2  -9  -8   20.31    1.84
   2   9   8   18.59    1.36
  -3  -9  -8    4.33    1.08
  -3  -9  -8    5.02    1.24
  -3  -9  -8    7.72    1.11
   3   9   8    5.68    0.99
  -4  -9  -8    1.90    1.02
  -4  -9  -8    1.28    0.80
   4   9   8    0.26    0.57
  -5  -9  -8   36.59    2.31
  -5  -9  -8   37.81    1.95
  -5  -9  -8   35.70    2.19
   5   9   8   37.29    1.84
  -6  -9  -8   50.66    2.23
  -6  -9  -8   51.38    2.67
  -6  -9  -8   55.23    2.82
   6   9   8   51.27    2.17
  -7  -9  -8   79.00    3.43
  -7  -9  -8   83.55    3.48
  -7  -9  -8   78.89    2.82
   7   9   8   81.76    2.87
  -8  -9  -8   63.48    3.12
  -8  -9  -8   57.41    3.04
   8   9   8   54.10    2.43
   3 -10  -8    3.25    1.08
  -3  10   8    4.16    1.16
  -3  10   8    5.61    1.46
   2 -10  -8    1.76    0.86
  -2  10   8    1.81    0.94
  -2  10   8    4.25    1.30
   1 -10  -8   18.95    1.61
   1 -10  -8   16.96    1.86
  -1  10   8   19.58    1.56
   0 -10  -8   70.12    3.01
   0 -10  -8   67.61    2.63
   0  10   8   66.74    2.52
  -1 -10  -8   34.37    1.90
  -1 -10  -8   33.00    2.30
   1  10   8   36.09    1.90
  -2 -10  -8   41.00    2.54
  -2 -10  -8   45.88    2.14
   2  10   8   45.24    2.05
  -3 -10  -8   32.91    2.33
  -3 -10  -8   34.04    1.89
   3  10   8   32.28    1.75
  -4 -10  -8    2.14    1.01
  -4 -10  -8    0.46    1.04
  -4 -10  -8    0.86    0.81
   4  10   8    2.10    0.79
  -5 -10  -8    8.83    1.57
  -5 -10  -8    9.56    1.55
  -5 -10  -8   10.71    1.41
   5  10   8   10.08    1.27
  -6 -10  -8   17.94    2.02
  -6 -10  -8   17.70    1.92
   6  10   8   17.28    1.48
  -7 -10  -8   48.83    2.82
  -7 -10  -8   49.21    2.92
   7  10   8   51.33    2.28
  -8 -10  -8   28.79    2.49
  -8 -10  -8   25.78    2.33
   8  10   8   30.40    1.91
   2 -11  -8    0.78    0.94
  -2  11   8    0.09    0.91
  -2  11   8    1.27    0.96
   1 -11  -8   53.74    2.50
  -1  11   8   54.99    2.48
   0 -11  -8   54.13    2.82
   0 -11  -8   59.83    2.59
   0  11   8   55.55    2.47
  -1 -11  -8   59.60    2.63
  -1 -11  -8   66.15    3.05
   1  11   8   66.16    2.61
  -2 -11  -8   52.06    2.82
  -2 -11  -8   50.48    2.36
   2  11   8   51.70    2.32
  -3 -11  -8   17.35    2.01
  -3 -11  -8   18.62    1.66
   3  11   8   16.80    1.48
  -4 -11  -8    6.02    1.16
  -4 -11  -8    1.55    1.26
   4  11   8    2.94    0.86
  -5 -11  -8   10.22    1.44
  -5 -11  -8    8.61    1.73
  -5 -11  -8    9.60    1.67
   5  11   8   11.05    1.38
  -6 -11  -8   53.48    3.05
  -6 -11  -8   51.39    2.92
   6  11   8   55.80    2.40
  -7 -11  -8   30.99    2.57
  -7 -11  -8   29.21    2.47
   7  11   8   32.22    1.91
   0 -12  -8   18.36    1.89
   0 -12  -8   18.73    2.14
   0  12   8   16.44    1.92
   0  12   8   19.63    1.75
  -1 -12  -8   23.38    1.92
  -1 -12  -8   23.26    2.22
   1  12   8   19.99    1.75
  -2 -12  -8    4.74    1.38
  -2 -12  -8    6.50    1.34
   2  12   8    6.03    1.24
  -3 -12  -8    9.14    1.41
  -3 -12  -8    7.47    1.60
   3  12   8    7.47    1.28
  -4 -12  -8    8.99    1.68
   4  12   8    9.92    1.37
  -5 -12  -8   -1.05    1.32
   5  12   8    2.24    0.92
  -6 -12  -8    3.80    1.59
  -6 -12  -8    3.56    1.56
   6  12   8    1.35    0.98
   5   5  -9   21.59    2.41
   5   5  -9   20.87    1.92
   4   5  -9   24.91    2.31
   4   5  -9   17.64    1.94
   3   5  -9   44.76    2.83
   3   5  -9   35.06    2.46
   2   5  -9    0.26    1.23
   2   5  -9    0.29    1.03
   1   5  -9    0.26    0.98
   1   5  -9    0.34    1.19
   0   5  -9    5.33    1.55
   0   5  -9    4.97    1.01
   0   5  -9    3.37    1.27
   6   4  -9   12.58    2.03
   6   4  -9   14.62    1.79
   6   4  -9    8.25    1.53
   5   4  -9   30.56    2.43
   5   4  -9   25.54    2.09
   5   4  -9   23.00    1.92
   4   4  -9   49.66    2.86
   4   4  -9   41.46    2.43
   4   4  -9   44.75    2.30
   3   4  -9   34.10    2.27
   3   4  -9   38.79    2.53
   3   4  -9   31.05    1.94
   2   4  -9    3.03    1.27
   2   4  -9    2.45    1.06
   1   4  -9    1.40    0.94
   1   4  -9    3.64    1.31
   0   4  -9   40.03    2.49
   0   4  -9   34.09    2.34
  -1   4  -9   46.69    1.98
  -1   4  -9   41.05    2.62
  -2   4  -9   30.31    2.42
  -2   4  -9   33.70    1.92
   7   3  -9   17.82    2.35
   7   3  -9   18.03    1.90
   7   3  -9   14.58    1.85
   6   3  -9   20.56    1.91
   6   3  -9   21.24    2.25
   6   3  -9   19.77    1.87
   5   3  -9   71.29    3.40
   5   3  -9   68.81    2.89
   5   3  -9   68.39    3.09
   4   3  -9   26.85    2.17
   4   3  -9   22.19    1.82
   4   3  -9   21.83    1.87
   4   3  -9   23.41    1.74
   3   3  -9   26.68    1.95
   3   3  -9   28.91    1.77
   3   3  -9   27.38    2.14
   2   3  -9   29.25    2.10
   2   3  -9   26.58    2.00
   1   3  -9    7.78    1.39
   1   3  -9    6.50    1.21
   0   3  -9    5.53    1.29
   0   3  -9    5.64    1.17
   0   3  -9    5.59    0.91
  -1   3  -9    8.40    1.07
  -1   3  -9    6.72    1.38
  -2   3  -9   18.38    1.97
  -2   3  -9   24.27    1.61
  -3   3  -9    6.59    1.19
  -3   3  -9    4.09    1.36
   8   2  -9    1.45    1.04
   8   2  -9    0.81    1.12
   7   2  -9    4.62    1.33
   7   2  -9    6.02    1.37
   6   2  -9   24.84    2.28
   6   2  -9   24.72    2.00
   6   2  -9   23.74    1.96
   5   2  -9   45.72    2.42
   5   2  -9   47.12    2.40
   5   2  -9   49.54    2.80
   4   2  -9   22.66    2.04
   4   2  -9   21.52    1.67
   4   2  -9   21.22    1.78
   3   2  -9   30.15    1.95
   3   2  -9   34.54    2.04
   3   2  -9   35.36    2.21
   3   2  -9   31.37    1.81
   2   2  -9   22.27    1.86
   2   2  -9   22.77    1.77
   2   2  -9   18.54    1.45
   1   2  -9    6.86    1.25
   1   2  -9    9.33    1.40
   0   2  -9    3.41    0.72
   0   2  -9    4.13    1.02
   0   2  -9    3.28    0.97
  -1   2  -9   17.16    1.29
  -1   2  -9   15.30    1.70
  -2   2  -9   19.44    1.88
  -2   2  -9   21.00    1.43
  -3   2  -9   11.19    1.28
  -3   2  -9    8.43    1.51
  -4   2  -9   42.40    2.70
  -4   2  -9   47.81    2.27
   8   1  -9   14.48    1.84
   8   1  -9   11.70    1.70
   7   1  -9    2.89    1.10
   7   1  -9    3.08    1.10
   6   1  -9    2.30    0.97
   6   1  -9    1.02    0.87
   5   1  -9    1.13    1.08
   5   1  -9    1.63    0.93
   5   1  -9    1.97    0.94
   4   1  -9   19.17    1.58
   4   1  -9   23.09    1.96
   4   1  -9   20.07    1.63
   3   1  -9    3.05    1.08
   3   1  -9    2.61    0.93
   3   1  -9    2.37    0.84
   2   1  -9    2.89    0.96
   2   1  -9    2.85    0.79
   2   1  -9    3.39    1.07
   2   1  -9    4.13    0.96
   1   1  -9   37.15    2.15
   1   1  -9   41.74    2.15
   0   1  -9    2.31    0.64
   0   1  -9    2.12    0.83
   0   1  -9    2.83    0.94
  -1   1  -9    5.04    0.84
  -1   1  -9    5.41    1.01
  -1   1  -9    3.99    1.03
  -2   1  -9    1.19    0.96
  -2   1  -9    0.75    0.74
  -3   1  -9   19.42    1.45
  -3   1  -9   19.23    1.88
  -4   1  -9   18.83    1.58
  -4   1  -9   19.67    1.95
  -5   1  -9   26.39    2.26
  -5   1  -9   27.79    1.95
   8   0  -9   17.26    1.88
   8   0  -9   15.10    1.88
   7   0  -9   17.67    1.82
   7   0  -9   17.51    1.79
   6   0  -9   21.57    1.83
   6   0  -9   20.83    1.78
   5   0  -9    3.92    0.97
   5   0  -9    4.45    1.10
   4   0  -9    7.34    1.24
   4   0  -9    8.00    1.15
   3   0  -9   23.45    1.54
   3   0  -9   25.54    1.66
   3   0  -9   24.52    1.86
   2   0  -9   71.89    2.80
   2   0  -9   66.37    2.30
   2   0  -9   64.69    2.70
   2   0  -9   68.18    2.56
  -2   0   9   67.60    2.57
   1   0  -9   79.84    2.43
   1   0  -9   80.40    2.12
   1   0  -9   81.94    2.97
   1   0  -9   76.44    2.99
   0   0  -9   68.54    2.89
   0   0  -9   74.93    2.69
   0   0  -9   73.93    2.13
  -1   0  -9   86.45    2.44
  -1   0  -9   92.59    2.89
  -1   0  -9   85.19    3.26
  -2   0  -9    5.01    0.86
  -2   0  -9    3.15    1.03
  -3   0  -9    6.53    1.28
  -3   0  -9    7.73    1.09
  -4   0  -9   29.53    2.15
  -4   0  -9   30.76    1.78
  -5   0  -9   94.15    3.73
  -5   0  -9   90.38    3.13
  -6   0  -9   40.68    2.30
  -6   0  -9   40.60    2.65
   6   0   9   42.24    2.26
   8  -1  -9   26.70    2.26
   8  -1  -9   30.10    2.20
   7  -1  -9   31.09    2.12
   7  -1  -9   32.05    2.23
   6  -1  -9   26.43    1.88
   6  -1  -9   26.69    1.87
   5  -1  -9    7.78    1.19
   5  -1  -9    5.65    1.09
   4  -1  -9   -0.09    0.70
   4  -1  -9    0.65    0.74
   3  -1  -9   74.79    2.56
   3  -1  -9   74.66    2.65
  -3   1   9   70.51    2.81
   2  -1  -9   69.15    2.45
   2  -1  -9   68.53    2.28
  -2   1   9   64.38    2.62
   1  -1  -9   45.88    1.77
   1  -1  -9   45.42    2.23
   1  -1  -9   45.20    1.55
   1  -1  -9   42.98    1.93
   1  -1  -9   43.91    2.07
  -1   1   9   44.83    2.06
   0  -1  -9   90.35    2.37
   0  -1  -9   86.99    2.87
   0  -1  -9   83.43    3.14
   0   1   9   86.40    2.78
  -1  -1  -9    9.19    1.31
  -1  -1  -9   10.98    1.05
  -2  -1  -9    1.96    0.66
  -2  -1  -9    0.69    0.87
   2   1   9    2.21    0.65
  -3  -1  -9    1.74    0.95
  -3  -1  -9    0.78    0.66
   3   1   9    1.18    0.61
  -4  -1  -9   51.95    2.17
  -4  -1  -9   53.22    2.56
   4   1   9   54.11    2.18
  -5  -1  -9   40.42    2.12
  -5  -1  -9   41.95    2.41
   5   1   9   42.27    2.05
  -6  -1  -9   34.10    2.07
  -6  -1  -9   28.69    2.23
   6   1   9   35.39    2.00
   8  -2  -9   78.54    3.32
   8  -2  -9   72.71    3.50
   7  -2  -9   45.55    2.42
   7  -2  -9   46.08    2.62
   6  -2  -9   22.89    1.79
   6  -2  -9   26.57    1.91
   5  -2  -9    6.13    1.13
   5  -2  -9    8.72    1.31
   4  -2  -9    0.67    0.63
   4  -2  -9   -0.23    0.66
   3  -2  -9   26.58    1.20
   3  -2  -9   29.24    1.61
   3  -2  -9   30.01    1.64
  -3   2   9   28.03    1.86
   2  -2  -9   60.63    2.25
   2  -2  -9   61.89    2.21
   2  -2  -9   60.67    1.83
  -2   2   9   64.47    2.65
   1  -2  -9  178.93    4.33
   1  -2  -9  172.85    3.73
   1  -2  -9  178.63    4.10
  -1   2   9  176.49    4.87
   0  -2  -9   41.07    1.72
   0  -2  -9   40.21    2.15
   0  -2  -9   40.87    1.56
   0  -2  -9   34.76    1.47
   0   2   9   41.60    1.96
  -1  -2  -9   31.10    1.45
  -1  -2  -9   29.30    1.86
   1   2   9   30.13    1.35
  -2  -2  -9   13.70    1.12
  -2  -2  -9   14.23    1.41
   2   2   9   12.39    1.00
  -3  -2  -9   10.60    1.39
  -3  -2  -9   13.22    1.25
   3   2   9   11.41    1.04
  -4  -2  -9    3.83    1.07
  -4  -2  -9    5.32    1.00
   4   2   9    5.63    0.95
  -5  -2  -9   17.41    1.48
  -5  -2  -9   18.65    1.76
   5   2   9   17.50    1.41
  -6  -2  -9   49.96    2.64
  -6  -2  -9   51.00    2.35
   6   2   9   47.68    2.28
  -7  -2  -9   18.70    1.99
  -7  -2  -9   20.04    1.85
   7   2   9   19.19    1.80
   8  -3  -9   37.04    2.42
   8  -3  -9   34.81    1.68
   8  -3  -9   39.05    2.60
   7  -3  -9   51.03    1.94
   7  -3  -9   58.36    2.73
   7  -3  -9   58.79    2.95
   6  -3  -9   23.24    1.92
   6  -3  -9   27.21    1.86
   6  -3  -9   22.68    1.28
   5  -3  -9    2.25    0.93
   5  -3  -9    1.24    0.74
   5  -3  -9    2.17    0.63
   4  -3  -9    8.07    1.13
   4  -3  -9    9.29    0.96
   4  -3  -9    7.74    1.14
  -4   3   9    8.22    1.51
   3  -3  -9    1.17    0.72
   3  -3  -9    1.86    0.69
   3  -3  -9    1.51    0.57
  -3   3   9    1.91    0.95
   2  -3  -9   40.33    1.77
   2  -3  -9   40.81    1.53
   2  -3  -9   39.70    1.76
  -2   3   9   40.10    2.19
   1  -3  -9   65.38    2.17
   1  -3  -9   64.54    2.45
   1  -3  -9   66.05    2.18
  -1   3   9   63.83    2.66
   0  -3  -9    6.12    1.02
   0  -3  -9   11.03    1.02
   0  -3  -9    6.87    0.86
   0  -3  -9    7.11    0.87
   0   3   9    7.03    1.15
   0   3   9    9.37    0.87
  -1  -3  -9   21.65    1.22
  -1  -3  -9   21.68    1.60
   1   3   9   20.75    1.16
  -2  -3  -9   27.25    1.84
  -2  -3  -9   27.64    1.45
  -2  -3  -9   29.20    1.78
   2   3   9   29.26    1.39
  -3  -3  -9    0.33    0.62
  -3  -3  -9    0.39    0.72
  -3  -3  -9   -0.70    0.70
   3   3   9   -0.03    0.46
  -4  -3  -9   -0.11    0.70
  -4  -3  -9    0.19    0.65
  -4  -3  -9   -0.27    0.84
   4   3   9    0.66    0.60
  -5  -3  -9   27.23    1.96
  -5  -3  -9   25.75    1.62
  -5  -3  -9   27.06    1.92
   5   3   9   27.10    1.58
  -6  -3  -9   19.74    1.86
  -6  -3  -9   21.84    1.69
   6   3   9   20.95    1.58
  -7  -3  -9   23.21    1.80
  -7  -3  -9   19.02    1.93
   7   3   9   22.59    1.74
   7  -4  -9   54.75    2.89
   7  -4  -9   52.85    2.11
   7  -4  -9   53.37    2.68
   6  -4  -9   46.23    2.48
   6  -4  -9   41.17    2.23
   6  -4  -9   42.41    1.84
   5  -4  -9    8.23    1.31
   5  -4  -9    8.86    1.09
   5  -4  -9   11.12    1.38
  -5   4   9    9.63    1.61
   4  -4  -9    2.06    0.68
   4  -4  -9    2.39    0.88
   4  -4  -9    2.37    0.89
  -4   4   9    1.34    1.03
   3  -4  -9    1.95    0.66
   3  -4  -9    1.19    0.73
   3  -4  -9    1.23    0.76
  -3   4   9    0.70    0.91
   2  -4  -9    3.45    0.69
   2  -4  -9    2.39    0.74
   2  -4  -9    2.61    0.75
  -2   4   9    3.38    1.08
   1  -4  -9   26.77    1.62
   1  -4  -9   26.74    1.31
   1  -4  -9   21.17    1.35
  -1   4   9   25.38    1.84
  -1   4   9   25.76    1.25
   0  -4  -9  112.77    3.41
   0  -4  -9  112.85    2.86
   0   4   9  107.36    2.79
   0   4   9  117.84    3.73
  -1  -4  -9   38.45    1.94
  -1  -4  -9   36.17    1.58
  -1  -4  -9   35.42    1.58
   1   4   9   36.49    1.50
  -2  -4  -9   27.38    1.77
  -2  -4  -9   26.09    1.48
  -2  -4  -9   28.31    1.45
   2   4   9   26.08    1.35
  -3  -4  -9   57.81    2.47
  -3  -4  -9   57.09    2.09
  -3  -4  -9   58.43    2.48
   3   4   9   55.89    2.01
  -4  -4  -9   17.93    1.62
  -4  -4  -9   19.00    1.53
  -4  -4  -9   17.17    1.34
   4   4   9   18.24    1.25
  -5  -4  -9   10.39    1.26
  -5  -4  -9   13.74    1.55
  -5  -4  -9   13.74    1.60
   5   4   9   12.31    1.22
  -6  -4  -9    0.52    0.82
  -6  -4  -9    1.50    0.99
  -6  -4  -9    0.53    0.80
   6   4   9   -0.69    0.57
  -7  -4  -9   23.61    1.79
  -7  -4  -9   24.22    2.01
   7   4   9   24.09    1.73
  -8  -4  -9   33.32    2.19
   8   4   9   31.53    2.05
   7  -5  -9   15.07    1.89
   7  -5  -9   15.94    1.42
   7  -5  -9   16.94    1.79
  -7   5   9   16.16    2.27
   6  -5  -9   22.76    1.54
   6  -5  -9   24.43    1.94
   6  -5  -9   28.08    1.99
  -6   5   9   24.85    2.34
   5  -5  -9   33.34    1.68
   5  -5  -9   31.52    2.03
   5  -5  -9   30.24    1.92
  -5   5   9   29.18    2.32
   4  -5  -9   11.77    1.24
   4  -5  -9   11.13    1.43
  -4   5   9   12.87    1.83
   3  -5  -9    3.65    0.96
   3  -5  -9    4.27    0.84
  -3   5   9    5.57    1.28
   2  -5  -9   23.96    1.50
   2  -5  -9   25.83    1.36
   2  -5  -9   24.35    1.53
  -2   5   9   25.94    1.31
  -2   5   9   24.58    1.98
   1  -5  -9   32.82    1.51
   1  -5  -9   26.05    1.49
   1  -5  -9   35.64    1.82
  -1   5   9   33.70    1.46
  -1   5   9   33.14    2.07
   0  -5  -9   40.06    2.02
   0   5   9   40.24    1.60
   0   5   9   44.07    2.25
  -1  -5  -9   81.21    2.56
  -1  -5  -9   80.72    2.85
  -1  -5  -9   79.02    2.35
   1   5   9   78.07    2.33
  -2  -5  -9  102.08    3.05
  -2  -5  -9  100.38    3.32
  -2  -5  -9  103.43    2.84
   2   5   9  104.16    2.81
  -3  -5  -9   12.52    1.43
  -3  -5  -9   12.96    1.16
  -3  -5  -9   10.55    1.18
   3   5   9   11.25    1.04
  -4  -5  -9   40.67    1.86
  -4  -5  -9   44.07    2.30
   4   5   9   42.67    1.81
  -5  -5  -9    3.04    1.09
  -5  -5  -9    0.76    0.75
   5   5   9    1.34    0.64
  -6  -5  -9   34.02    1.98
  -6  -5  -9   32.55    1.86
  -6  -5  -9   33.42    2.15
   6   5   9   34.66    1.80
  -7  -5  -9   37.70    2.08
  -7  -5  -9   35.20    2.28
   7   5   9   36.91    2.03
  -8  -5  -9   53.43    2.58
  -8  -5  -9   52.80    2.78
   8   5   9   56.12    2.64
   6  -6  -9   23.31    1.64
   6  -6  -9   24.50    1.98
   6  -6  -9   20.98    1.95
  -6   6   9   22.39    2.37
   5  -6  -9   66.70    2.87
   5  -6  -9   62.89    2.44
  -5   6   9   62.33    3.30
   4  -6  -9   81.12    3.02
   4  -6  -9   81.19    2.65
  -4   6   9   74.93    3.52
   3  -6  -9   68.65    2.59
   3  -6  -9   68.50    2.37
  -3   6   9   67.17    3.20
   2  -6  -9   47.93    1.90
   2  -6  -9   45.47    1.99
  -2   6   9   48.57    2.60
  -2   6   9   50.37    1.92
   1  -6  -9   11.32    1.10
   1  -6  -9   12.91    1.43
  -1   6   9   12.39    1.63
  -1   6   9   11.64    1.01
   0  -6  -9    5.24    0.92
   0  -6  -9    6.79    1.09
   0   6   9    5.24    1.07
   0   6   9    4.17    0.76
  -1  -6  -9  102.12    3.37
  -1  -6  -9  110.06    3.24
   1   6   9  100.86    2.80
  -2  -6  -9   67.50    2.71
  -2  -6  -9   65.20    2.20
  -2  -6  -9   61.80    2.39
   2   6   9   65.41    2.17
  -3  -6  -9   74.12    2.42
  -3  -6  -9   68.31    2.58
  -3  -6  -9   70.88    2.87
   3   6   9   70.56    2.32
  -4  -6  -9   64.14    2.81
  -4  -6  -9   60.57    2.51
  -4  -6  -9   63.99    2.31
   4   6   9   66.54    2.29
  -5  -6  -9    7.99    1.36
  -5  -6  -9   10.50    1.47
  -5  -6  -9   10.64    1.29
   5   6   9   10.47    1.22
  -6  -6  -9    4.65    1.18
  -6  -6  -9    4.92    1.07
   6   6   9    5.09    0.99
  -7  -6  -9    3.93    1.07
  -7  -6  -9    2.77    1.19
   7   6   9    2.95    0.89
  -8  -6  -9   37.17    2.43
  -8  -6  -9   31.02    2.10
   8   6   9   38.93    2.12
   6  -7  -9   27.86    1.85
   6  -7  -9   27.04    2.18
  -6   7   9   27.04    2.58
   5  -7  -9   26.66    2.02
   5  -7  -9   28.36    1.80
  -5   7   9   21.54    2.34
   4  -7  -9  109.94    3.36
   4  -7  -9  117.72    3.79
  -4   7   9  107.12    4.38
   3  -7  -9   48.28    2.09
   3  -7  -9   47.89    2.24
  -3   7   9   45.31    2.22
  -3   7   9   47.81    2.77
   2  -7  -9    7.88    1.13
  -2   7   9    8.70    1.53
  -2   7   9    6.32    1.00
   1  -7  -9    0.76    0.81
   1  -7  -9    1.07    0.66
  -1   7   9    1.47    0.62
  -1   7   9    1.63    0.93
   0  -7  -9   40.80    2.08
   0  -7  -9   43.31    1.85
   0   7   9   41.48    2.31
   0   7   9   43.49    1.79
  -1  -7  -9   35.79    1.71
  -1  -7  -9   37.30    2.06
   1   7   9   37.51    1.69
  -2  -7  -9   77.85    2.82
  -2  -7  -9   79.14    3.00
   2   7   9   79.75    2.49
  -3  -7  -9  114.46    3.73
  -3  -7  -9  106.21    3.49
  -3  -7  -9  110.28    3.11
   3   7   9  111.42    3.09
  -4  -7  -9   16.16    1.53
  -4  -7  -9   12.47    1.59
  -4  -7  -9   13.67    1.43
   4   7   9   13.60    1.20
  -5  -7  -9   12.83    1.42
  -5  -7  -9    9.95    1.55
  -5  -7  -9   13.40    1.64
   5   7   9   12.67    1.33
  -6  -7  -9   14.53    1.76
  -6  -7  -9   14.36    1.82
  -6  -7  -9   13.87    1.49
   6   7   9   13.75    1.35
  -7  -7  -9   32.10    1.96
  -7  -7  -9   35.44    2.26
  -7  -7  -9   29.91    2.30
   7   7   9   34.43    1.92
  -8  -7  -9   16.76    1.78
  -8  -7  -9   15.95    1.93
   8   7   9   18.38    1.64
   5  -8  -9   13.88    1.81
   5  -8  -9   11.43    1.56
  -5   8   9   16.05    2.31
   4  -8  -9   30.67    2.04
   4  -8  -9   30.48    1.89
  -4   8   9   31.89    2.52
   3  -8  -9   49.52    2.23
  -3   8   9   52.47    2.92
  -3   8   9   46.58    2.15
   2  -8  -9   49.65    2.20
  -2   8   9   50.48    2.86
  -2   8   9   53.78    2.16
   1  -8  -9    1.30    0.78
   1  -8  -9    2.27    0.93
  -1   8   9    1.90    1.06
  -1   8   9    1.06    0.74
   0  -8  -9    3.94    0.91
   0  -8  -9    4.71    1.09
   0   8   9    2.81    0.75
  -1  -8  -9    4.11    0.89
  -1  -8  -9    4.93    1.08
   1   8   9    4.67    0.87
  -2  -8  -9   18.36    1.45
  -2  -8  -9   19.63    1.76
   2   8   9   18.41    1.35
  -3  -8  -9   19.07    1.81
  -3  -8  -9   21.68    1.64
   3   8   9   18.61    1.36
  -4  -8  -9   14.42    1.47
  -4  -8  -9   14.47    1.71
  -4  -8  -9   15.18    1.54
   4   8   9   16.24    1.30
  -5  -8  -9   35.55    2.16
  -5  -8  -9   34.31    2.31
  -5  -8  -9   33.87    1.86
   5   8   9   34.01    1.82
  -6  -8  -9    1.19    1.06
  -6  -8  -9   -0.28    0.83
  -6  -8  -9    0.93    0.99
   6   8   9    1.00    0.69
  -7  -8  -9   -0.06    1.02
  -7  -8  -9    2.68    1.07
  -7  -8  -9    0.39    0.96
   7   8   9    1.69    0.89
  -8  -8  -9    4.23    1.34
  -8  -8  -9    8.83    1.39
  -8  -8  -9    6.84    1.50
   8   8   9    6.80    1.24
   4  -9  -9    6.49    1.29
  -4   9   9    5.32    1.72
   3  -9  -9   27.13    1.89
  -3   9   9   29.08    2.47
  -3   9   9   29.06    1.82
   2  -9  -9   28.96    1.84
  -2   9   9   29.79    1.78
  -2   9   9   27.55    2.27
   1  -9  -9    1.94    1.01
   1  -9  -9    2.49    0.95
  -1   9   9    2.16    1.13
  -1   9   9    2.75    0.84
   0  -9  -9    1.16    0.78
   0  -9  -9    1.82    1.00
   0   9   9    3.12    0.87
  -1  -9  -9   20.95    1.56
  -1  -9  -9   17.51    1.89
   1   9   9   19.49    1.40
  -2  -9  -9    2.25    0.85
  -2  -9  -9    0.44    1.02
   2   9   9    1.95    0.78
  -3  -9  -9   20.08    1.60
  -3  -9  -9   20.25    2.00
  -3  -9  -9   21.82    1.79
   3   9   9   23.89    1.56
  -4  -9  -9   53.70    2.63
  -4  -9  -9   59.67    2.95
   4   9   9   58.23    2.30
  -5  -9  -9   27.02    1.80
  -5  -9  -9   28.69    2.25
  -5  -9  -9   26.28    2.05
   5   9   9   28.29    1.72
  -6  -9  -9   11.64    1.68
  -6  -9  -9   11.80    1.45
  -6  -9  -9   10.55    1.72
   6   9   9   16.21    1.49
  -7  -9  -9    3.10    1.05
  -7  -9  -9    4.02    1.34
  -7  -9  -9    3.81    1.31
   7   9   9    4.04    1.07
  -8  -9  -9    4.69    1.47
  -8  -9  -9    3.67    1.34
   8   9   9    4.85    1.16
   3 -10  -9    2.65    1.12
  -3  10   9    2.07    0.94
  -3  10   9    3.56    1.37
   2 -10  -9   32.86    1.98
  -2  10   9   30.12    1.91
  -2  10   9   34.82    2.53
   1 -10  -9   60.06    2.55
  -1  10   9   57.19    2.47
   0 -10  -9   17.90    1.61
   0 -10  -9   17.78    1.98
   0  10   9   18.91    1.59
  -1 -10  -9    1.15    1.17
  -1 -10  -9    3.05    0.99
   1  10   9    2.57    0.80
  -2 -10  -9   11.45    1.67
  -2 -10  -9   12.94    1.51
   2  10   9   10.83    1.34
  -3 -10  -9    0.54    1.18
  -3 -10  -9    2.02    0.96
   3  10   9    1.27    0.76
  -4 -10  -9    2.61    1.25
  -4 -10  -9    2.74    1.04
  -4 -10  -9    2.80    1.18
   4  10   9    3.17    0.91
  -5 -10  -9   29.51    2.17
  -5 -10  -9   28.26    2.46
   5  10   9   32.71    1.85
  -6 -10  -9   31.40    2.03
  -6 -10  -9   30.78    2.36
  -6 -10  -9   34.58    2.57
   6  10   9   32.69    1.99
  -7 -10  -9    7.49    1.64
  -7 -10  -9    9.48    1.74
   7  10   9   13.20    1.59
   1 -11  -9   81.51    3.14
  -1  11   9   83.03    3.11
   0 -11  -9   45.42    2.37
   0 -11  -9   42.06    2.65
   0  11   9   45.16    2.25
  -1 -11  -9   19.94    1.75
  -1 -11  -9   17.71    2.05
   1  11   9   17.41    1.84
  -2 -11  -9    1.88    1.01
  -2 -11  -9    0.14    1.14
   2  11   9    1.14    0.79
  -3 -11  -9    9.43    1.75
  -3 -11  -9    8.64    1.42
   3  11   9   10.69    1.39
  -4 -11  -9   34.81    2.10
  -4 -11  -9   32.51    2.57
   4  11   9   34.03    1.97
  -5 -11  -9  134.20    4.79
  -5 -11  -9  129.23    4.73
  -5 -11  -9  136.47    4.02
   5  11   9  134.63    3.92
  -6 -11  -9   46.81    3.01
  -6 -11  -9   44.30    2.70
  -6 -11  -9   43.68    2.79
   6  11   9   45.80    2.32
  -1 -12  -9   17.39    2.04
  -1 -12  -9   19.03    1.98
   1  12   9   19.48    1.70
  -2 -12  -9    4.89    1.30
  -2 -12  -9    2.91    1.34
   2  12   9    1.54    1.00
  -3 -12  -9    2.50    1.13
  -3 -12  -9    1.32    1.27
   3  12   9    2.43    0.96
  -4 -12  -9   21.81    2.41
  -4 -12  -9   17.62    1.90
   4  12   9   16.64    1.62
  -5 -12  -9   24.85    2.66
   5  12   9   27.55    1.91
   4   4 -10    3.01    1.46
   4   4 -10    4.47    1.27
   3   4 -10   -0.38    1.12
   3   4 -10   -0.01    0.97
   2   4 -10    8.30    1.59
   2   4 -10   15.77    2.04
   1   4 -10   17.76    2.11
   1   4 -10   13.89    1.90
   6   3 -10   37.41    2.81
   6   3 -10   28.72    2.38
   6   3 -10   31.80    2.33
   5   3 -10   34.76    2.42
   5   3 -10   35.31    2.72
   5   3 -10   33.09    2.22
   4   3 -10    2.74    1.12
   4   3 -10    2.93    1.35
   4   3 -10    3.81    1.33
   4   3 -10    3.11    1.14
   3   3 -10   -0.21    0.91
   3   3 -10    0.52    1.12
   2   3 -10   28.69    2.20
   2   3 -10   31.39    2.32
   1   3 -10   22.87    2.07
   1   3 -10   24.91    2.08
   0   3 -10   12.23    1.19
   0   3 -10   12.84    1.74
  -1   3 -10   42.65    1.93
  -1   3 -10   42.15    2.62
   6   2 -10   42.16    2.55
   6   2 -10   47.14    3.01
   6   2 -10   39.66    2.51
   5   2 -10   37.81    2.43
   5   2 -10   40.80    2.78
   5   2 -10   39.54    2.34
   4   2 -10   21.74    1.93
   4   2 -10   22.53    1.79
   4   2 -10   23.47    2.28
   3   2 -10    1.26    1.13
   3   2 -10    1.91    1.03
   3   2 -10   -0.84    0.82
   3   2 -10    0.58    0.92
   2   2 -10   12.55    1.60
   2   2 -10   15.60    1.80
   1   2 -10   48.92    2.58
   1   2 -10   48.04    2.63
   0   2 -10   43.82    2.55
   0   2 -10   45.91    1.78
   0   2 -10   48.72    2.64
  -1   2 -10   26.25    2.10
  -1   2 -10   30.38    1.59
  -2   2 -10    9.46    1.60
  -2   2 -10   11.14    1.31
  -3   2 -10   11.82    1.83
  -3   2 -10   14.76    1.57
   7   1 -10   54.75    2.93
   7   1 -10   62.91    3.03
   6   1 -10   22.37    1.99
   6   1 -10   24.77    2.09
   5   1 -10   66.91    3.32
   5   1 -10   66.23    2.86
   5   1 -10   62.04    2.91
   4   1 -10   17.96    1.70
   4   1 -10   18.19    2.05
   4   1 -10   15.53    1.68
   3   1 -10    0.99    0.90
   3   1 -10    0.08    0.76
   3   1 -10   -1.00    0.90
   2   1 -10    1.31    0.85
   2   1 -10    1.96    1.00
   1   1 -10   22.93    1.85
   1   1 -10   20.64    1.77
   0   1 -10   12.61    1.51
   0   1 -10   11.44    1.07
   0   1 -10   10.90    1.52
  -1   1 -10   10.57    1.11
  -1   1 -10    9.79    1.53
  -2   1 -10    6.46    1.36
  -2   1 -10    7.45    1.09
  -3   1 -10    2.50    1.12
  -3   1 -10    1.16    0.86
  -4   1 -10    1.84    0.96
  -4   1 -10   -0.06    1.06
   7   0 -10    5.02    1.24
   7   0 -10    5.73    1.30
   6   0 -10   19.52    1.86
   6   0 -10   24.68    2.03
   5   0 -10   36.78    2.19
   5   0 -10   33.63    2.15
   4   0 -10   19.91    1.67
   4   0 -10   18.93    1.72
   3   0 -10   31.35    2.15
   3   0 -10   28.39    1.87
   3   0 -10   31.66    1.81
  -3   0  10   30.90    1.92
   2   0 -10    7.38    1.08
   2   0 -10   11.11    1.37
   2   0 -10    9.41    1.40
   2   0 -10    9.57    1.48
   1   0 -10    1.23    0.82
   1   0 -10    3.16    1.02
   0   0 -10    4.08    1.03
   0   0 -10    4.37    0.83
   0   0 -10    5.00    1.11
  -1   0 -10   36.06    2.26
  -1   0 -10   36.72    1.65
  -2   0 -10   26.93    2.11
  -2   0 -10   28.79    1.54
  -3   0 -10   18.48    1.43
  -3   0 -10   22.31    1.99
  -4   0 -10   54.45    2.88
  -4   0 -10   49.92    2.27
  -5   0 -10   20.72    1.84
  -5   0 -10   22.15    2.12
   7  -1 -10    2.82    1.02
   7  -1 -10    1.47    1.11
   6  -1 -10    3.50    1.09
   6  -1 -10    7.55    1.33
   5  -1 -10    2.43    1.02
   5  -1 -10    3.01    1.00
   4  -1 -10   37.12    2.07
   4  -1 -10   38.66    2.03
  -4   1  10   38.77    2.30
   3  -1 -10   21.87    1.56
   3  -1 -10   19.47    1.59
  -3   1  10   19.83    1.72
   2  -1 -10   13.71    1.44
   2  -1 -10   15.13    1.34
  -2   1  10   13.69    1.48
   1  -1 -10   20.11    1.72
   1  -1 -10   24.31    1.57
   1  -1 -10   22.25    1.20
  -1   1  10   23.57    1.59
   0  -1 -10    0.42    0.79
   0  -1 -10    0.04    0.79
   0  -1 -10    1.45    0.64
  -1  -1 -10   11.48    1.08
  -1  -1 -10   10.85    1.49
  -2  -1 -10   32.29    1.62
  -2  -1 -10   33.93    2.20
  -3  -1 -10   50.75    2.06
  -3  -1 -10   53.66    2.72
  -4  -1 -10   26.49    2.10
  -4  -1 -10   21.54    1.61
  -5  -1 -10   19.68    2.04
  -5  -1 -10   21.25    1.74
   7  -2 -10    3.56    1.21
   7  -2 -10    3.77    1.13
   6  -2 -10   13.26    1.66
   6  -2 -10   13.17    1.70
   5  -2 -10   29.65    1.99
   5  -2 -10   27.21    1.93
   4  -2 -10   43.98    2.20
   4  -2 -10   47.62    2.25
  -4   2  10   46.31    2.53
   3  -2 -10   81.80    2.88
   3  -2 -10   88.47    2.89
  -3   2  10   80.93    3.26
   2  -2 -10  136.77    3.84
   2  -2 -10  141.06    3.69
   2  -2 -10  133.98    3.19
  -2   2  10  133.27    4.26
   1  -2 -10   48.56    1.90
   1  -2 -10   50.88    1.77
   1  -2 -10   49.98    2.10
  -1   2  10   53.84    2.32
   0  -2 -10   27.70    1.92
   0  -2 -10   32.51    1.45
   0   2  10   32.01    1.74
  -1  -2 -10    1.10    0.86
  -1  -2 -10    0.65    0.54
  -2  -2 -10   41.02    2.32
  -2  -2 -10   41.32    1.80
  -3  -2 -10   67.76    2.94
  -3  -2 -10   64.52    2.31
  -4  -2 -10   34.00    1.82
  -4  -2 -10   39.86    2.39
   4   2  10   34.57    1.80
  -5  -2 -10   57.72    2.46
  -5  -2 -10   60.46    2.98
   5   2  10   61.40    2.46
  -6  -2 -10    9.59    1.45
  -6  -2 -10    9.36    1.64
   6   2  10    9.62    1.45
   7  -3 -10   30.44    2.18
   7  -3 -10   27.06    2.24
   6  -3 -10    1.99    0.96
   6  -3 -10    0.60    0.91
   5  -3 -10   25.75    1.91
   5  -3 -10   26.73    1.95
  -5   3  10   25.67    2.18
   4  -3 -10   28.53    1.81
   4  -3 -10   29.12    1.84
   4  -3 -10   26.44    1.36
  -4   3  10   28.90    2.16
   3  -3 -10  105.39    3.23
   3  -3 -10   99.51    2.67
   3  -3 -10  100.16    3.19
  -3   3  10   98.67    3.71
   2  -3 -10   65.06    2.11
   2  -3 -10   71.91    2.47
   2  -3 -10   64.75    2.39
  -2   3  10   67.05    2.95
   1  -3 -10   20.81    1.42
   1  -3 -10   19.57    1.36
  -1   3  10   19.36    1.67
   0  -3 -10    5.23    0.86
   0   3  10    6.62    1.13
  -1  -3 -10    4.79    0.81
  -2  -3 -10   35.36    2.11
  -2  -3 -10   35.97    1.66
  -2  -3 -10   39.43    2.18
   2   3  10   36.92    1.63
  -3  -3 -10   46.93    2.00
  -3  -3 -10   48.38    2.44
   3   3  10   49.34    1.96
  -4  -3 -10   84.83    2.82
  -4  -3 -10   87.30    3.37
   4   3  10   93.78    2.89
  -5  -3 -10   14.76    1.56
  -5  -3 -10   13.23    1.67
   5   3  10   12.34    1.41
  -6  -3 -10    0.81    1.05
  -6  -3 -10    0.33    0.87
   6   3  10    1.01    0.80
  -7  -3 -10    3.41    1.17
   7  -4 -10    9.91    1.53
   7  -4 -10   10.80    1.76
   7  -4 -10   10.14    1.19
  -7   4  10   13.23    2.20
   6  -4 -10    1.50    0.78
   6  -4 -10    0.65    1.09
   6  -4 -10    2.47    1.04
  -6   4  10    1.69    1.25
   5  -4 -10    2.38    1.10
   5  -4 -10    3.41    1.03
   5  -4 -10    3.44    0.75
  -5   4  10    4.26    1.31
   4  -4 -10   39.69    2.13
   4  -4 -10   43.67    1.79
   4  -4 -10   43.30    2.15
  -4   4  10   40.99    2.56
   3  -4 -10   36.08    1.92
   3  -4 -10   37.68    1.65
   3  -4 -10   34.20    1.83
  -3   4  10   40.45    2.42
   2  -4 -10   76.25    2.59
   2  -4 -10   69.60    2.24
   2  -4 -10   71.72    2.48
  -2   4  10   69.53    3.13
   1  -4 -10   64.92    2.21
   1  -4 -10   68.20    2.35
   1  -4 -10   69.92    2.59
  -1   4  10   69.28    2.91
   0  -4 -10    6.85    0.97
   0  -4 -10    6.10    1.09
   0  -4 -10    6.94    0.89
   0   4  10    6.36    1.16
  -1  -4 -10    4.33    0.80
  -1  -4 -10    1.55    0.83
   1   4  10    2.65    0.62
  -2  -4 -10    2.63    0.78
  -2  -4 -10    0.84    0.85
   2   4  10    0.63    0.52
  -3  -4 -10   11.62    1.26
  -3  -4 -10   10.66    1.46
  -3  -4 -10   10.62    1.44
   3   4  10   11.34    1.09
  -4  -4 -10   31.42    1.79
  -4  -4 -10   34.11    2.09
  -4  -4 -10   34.07    2.20
   4   4  10   34.42    1.71
  -5  -4 -10   24.73    1.69
  -5  -4 -10   26.54    1.96
  -5  -4 -10   22.60    2.00
   5   4  10   21.75    1.53
  -6  -4 -10   20.21    1.88
  -6  -4 -10   18.74    1.66
  -6  -4 -10   19.29    1.96
   6   4  10   18.18    1.62
  -7  -4 -10    2.96    1.07
   7   4  10    4.91    1.19
   6  -5 -10    5.34    1.04
   6  -5 -10    5.36    1.28
   6  -5 -10    5.60    1.19
  -6   5  10   10.78    2.00
   5  -5 -10    2.85    1.07
   5  -5 -10    1.39    0.80
   5  -5 -10    2.36    1.01
  -5   5  10    2.08    1.19
   4  -5 -10   13.91    1.55
   4  -5 -10    9.86    1.20
   4  -5 -10   10.85    1.45
  -4   5  10   10.31    1.72
   3  -5 -10    7.79    1.16
   3  -5 -10    9.02    1.28
   3  -5 -10    8.46    1.07
  -3   5  10    8.42    1.60
   2  -5 -10   35.93    1.87
   2  -5 -10   36.80    1.69
  -2   5  10   37.80    2.34
   1  -5 -10   46.19    2.17
   1  -5 -10   44.85    1.84
  -1   5  10   44.70    2.50
   0  -5 -10    4.77    0.96
   0   5  10    3.58    1.08
   0   5  10    2.56    0.65
  -1  -5 -10    7.24    1.00
  -1  -5 -10    7.43    1.20
   1   5  10   10.21    0.98
  -2  -5 -10   -0.47    0.59
  -2  -5 -10   -0.51    0.82
  -2  -5 -10   -0.17    0.63
   2   5  10    0.69    0.55
  -3  -5 -10    2.65    0.85
  -3  -5 -10    2.26    0.99
  -3  -5 -10    1.17    0.75
   3   5  10    2.53    0.72
  -4  -5 -10   10.13    1.40
  -4  -5 -10    9.54    1.25
  -4  -5 -10    7.18    1.35
   4   5  10    9.78    1.24
  -5  -5 -10   95.98    3.12
  -5  -5 -10   98.38    3.65
   5   5  10   96.89    3.08
  -6  -5 -10   10.55    1.44
  -6  -5 -10   10.13    1.56
  -6  -5 -10   13.19    1.57
   6   5  10   11.82    1.41
  -7  -5 -10   12.42    1.74
  -7  -5 -10   11.63    1.55
   7   5  10   11.94    1.49
   6  -6 -10    4.72    1.36
   6  -6 -10    4.63    1.13
   6  -6 -10    3.65    1.25
  -6   6  10    4.21    1.59
   5  -6 -10    8.88    1.47
   5  -6 -10    7.22    1.35
   5  -6 -10    8.84    1.31
  -5   6  10   10.66    1.91
   4  -6 -10   25.01    1.84
   4  -6 -10   27.00    1.65
  -4   6  10   27.16    2.33
   3  -6 -10    2.48    0.75
  -3   6  10    3.48    1.22
   2  -6 -10    7.26    1.10
   2  -6 -10    8.40    1.14
  -2   6  10    6.97    1.45
   1  -6 -10   56.38    2.10
   1  -6 -10   56.79    2.40
  -1   6  10   56.14    2.03
  -1   6  10   55.16    2.81
   0  -6 -10   82.34    2.91
   0  -6 -10   76.69    2.52
   0   6  10   79.54    3.22
   0   6  10   79.42    2.48
  -1  -6 -10   63.34    2.66
  -1  -6 -10   68.26    2.47
   1   6  10   62.23    2.18
  -2  -6 -10   38.63    2.16
  -2  -6 -10   39.29    1.81
  -2  -6 -10   33.52    1.82
   2   6  10   35.93    1.67
  -3  -6 -10   34.01    1.76
  -3  -6 -10   35.78    2.16
  -3  -6 -10   35.55    1.89
   3   6  10   34.01    1.67
  -4  -6 -10    6.07    1.31
  -4  -6 -10    5.47    1.04
  -4  -6 -10    6.86    1.22
   4   6  10    5.27    1.03
  -5  -6 -10   18.13    1.97
  -5  -6 -10   15.14    1.68
  -5  -6 -10   16.85    1.55
   5   6  10   17.90    1.45
  -6  -6 -10   20.89    1.72
  -6  -6 -10   25.57    2.17
   6   6  10   24.22    1.69
  -7  -6 -10   56.16    2.54
  -7  -6 -10   53.27    2.82
   7   6  10   52.44    2.41
   5  -7 -10   21.45    1.68
   5  -7 -10   22.03    1.97
  -5   7  10   20.74    2.63
   4  -7 -10   15.76    1.45
  -4   7  10   14.84    2.18
   3  -7 -10   -0.41    0.62
  -3   7  10    0.97    1.01
   2  -7 -10    1.47    0.73
  -2   7  10    0.98    1.07
   1  -7 -10   67.13    2.65
   1  -7 -10   62.03    2.32
  -1   7  10   63.91    3.05
  -1   7  10   62.30    2.26
   0  -7 -10   76.08    2.91
   0  -7 -10   75.33    2.56
   0   7  10   77.91    3.31
   0   7  10   81.95    2.57
  -1  -7 -10   66.83    2.42
  -1  -7 -10   66.69    2.78
   1   7  10   69.31    2.37
  -2  -7 -10   83.80    2.99
  -2  -7 -10   81.59    3.21
   2   7  10   81.48    2.65
  -3  -7 -10    5.70    1.32
  -3  -7 -10    5.29    1.15
  -3  -7 -10    4.46    1.01
   3   7  10    4.83    0.91
  -4  -7 -10   -0.14    1.07
  -4  -7 -10    1.69    0.89
  -4  -7 -10    2.40    0.86
   4   7  10    1.34    0.73
  -5  -7 -10   37.55    1.98
  -5  -7 -10   35.06    2.18
  -5  -7 -10   36.02    2.48
   5   7  10   37.51    1.89
  -6  -7 -10  111.61    4.03
  -6  -7 -10  117.46    3.53
  -6  -7 -10  121.53    4.19
   6   7  10  113.89    3.55
  -7  -7 -10   53.03    2.83
  -7  -7 -10   54.44    2.54
  -7  -7 -10   53.46    2.98
   7   7  10   57.47    2.52
   4  -8 -10   45.24    2.27
  -4   8  10   42.88    2.93
   3  -8 -10   37.93    2.05
  -3   8  10   40.02    2.80
   2  -8 -10   -0.07    0.73
  -2   8  10    0.47    1.09
  -2   8  10    0.13    0.60
   1  -8 -10   17.49    1.71
   1  -8 -10   17.02    1.46
  -1   8  10   17.95    1.42
  -1   8  10   18.07    1.86
   0  -8 -10   22.69    1.60
   0  -8 -10   22.21    1.84
   0   8  10   24.29    1.52
  -1  -8 -10   73.72    2.61
  -1  -8 -10   72.46    3.01
   1   8  10   70.04    2.50
  -2  -8 -10   63.76    2.50
  -2  -8 -10   64.16    2.91
   2   8  10   65.29    2.44
  -3  -8 -10   20.22    2.03
  -3  -8 -10   21.92    1.74
   3   8  10   21.25    1.54
  -4  -8 -10    5.71    1.15
  -4  -8 -10    4.74    1.30
  -4  -8 -10    3.03    1.33
   4   8  10    5.85    1.06
  -5  -8 -10    6.95    1.57
  -5  -8 -10    6.19    1.18
  -5  -8 -10    5.81    1.31
   5   8  10    6.72    1.14
  -6  -8 -10   12.84    1.83
  -6  -8 -10   13.94    1.87
  -6  -8 -10   16.20    1.72
   6   8  10   16.25    1.48
  -7  -8 -10   15.83    2.08
  -7  -8 -10   15.81    1.73
  -7  -8 -10   16.64    2.11
   7   8  10   17.70    1.62
   3  -9 -10    3.04    1.06
  -3   9  10    1.35    1.41
   2  -9 -10    1.97    0.94
  -2   9  10    4.56    1.07
  -2   9  10    5.91    1.52
   1  -9 -10   10.16    1.50
   1  -9 -10   12.78    1.46
  -1   9  10   10.28    1.37
  -1   9  10   12.95    1.98
   0  -9 -10   46.24    2.15
   0  -9 -10   48.24    2.52
   0   9  10   47.66    2.12
  -1  -9 -10   38.28    2.01
  -1  -9 -10   33.26    2.28
   1   9  10   36.36    1.86
  -2  -9 -10   54.51    2.78
  -2  -9 -10   51.14    2.32
   2   9  10   48.62    2.18
  -3  -9 -10   55.12    2.86
  -3  -9 -10   50.88    2.35
  -3  -9 -10   47.92    2.54
   3   9  10   49.53    2.24
  -4  -9 -10    2.82    1.28
  -4  -9 -10    0.07    0.89
   4   9  10    1.16    0.78
  -5  -9 -10    6.23    1.48
  -5  -9 -10    6.85    1.28
  -5  -9 -10    7.31    1.57
   5   9  10    9.03    1.30
  -6  -9 -10    6.44    1.33
  -6  -9 -10    8.92    1.66
  -6  -9 -10    8.99    1.71
   6   9  10   10.37    1.42
  -7  -9 -10   17.65    2.06
  -7  -9 -10   18.37    1.77
  -7  -9 -10   15.62    2.09
   7   9  10   19.39    1.95
   2 -10 -10   14.37    1.68
  -2  10  10   12.42    1.99
  -2  10  10   13.72    1.67
   1 -10 -10    5.85    1.18
  -1  10  10    7.50    1.25
   0 -10 -10    2.96    1.26
   0 -10 -10    0.65    0.94
   0  10  10    2.12    0.96
  -1 -10 -10   -0.15    1.05
  -1 -10 -10   -0.18    0.82
   1  10  10    0.31    0.72
  -2 -10 -10    9.58    1.67
  -2 -10 -10    8.79    1.33
   2  10  10    9.52    1.29
  -3 -10 -10   19.82    1.70
  -3 -10 -10   19.20    2.12
   3  10  10   19.65    1.58
  -4 -10 -10   15.02    1.79
  -4 -10 -10   17.20    2.10
  -4 -10 -10   14.80    1.96
   4  10  10   16.90    1.74
  -5 -10 -10    5.52    1.42
  -5 -10 -10    4.57    1.57
   5  10  10    4.88    1.02
  -6 -10 -10    0.82    1.17
  -6 -10 -10   -0.50    1.10
  -6 -10 -10    2.59    1.37
   6  10  10    2.39    1.03
   0 -11 -10    1.89    1.05
   0 -11 -10   -0.59    1.13
   0  11  10    1.44    0.83
  -1 -11 -10    5.16    1.45
  -1 -11 -10    5.65    1.33
   1  11  10    4.79    1.19
  -2 -11 -10    9.11    1.47
  -2 -11 -10   11.64    1.83
   2  11  10   10.13    1.44
  -3 -11 -10   36.38    2.19
  -3 -11 -10   38.51    2.75
   3  11  10   35.36    1.98
  -4 -11 -10   54.68    3.15
  -4 -11 -10   49.44    2.54
   4  11  10   55.78    2.49
  -5 -11 -10   19.70    2.41
  -5 -11 -10   21.47    1.98
  -5 -11 -10   17.64    2.28
   5  11  10   20.25    1.79
   5   2 -11    6.46    1.48
   5   2 -11    6.07    1.43
   5   2 -11    6.62    1.76
   4   2 -11    6.51    1.43
   4   2 -11    6.04    1.64
   3   2 -11   26.43    2.38
   3   2 -11   17.27    1.89
   2   2 -11   32.44    2.48
   2   2 -11   28.62    2.23
   1   2 -11   64.19    3.20
   1   2 -11   56.74    2.98
   0   2 -11   40.42    1.75
   0   2 -11   35.87    2.56
  -1   2 -11   11.96    1.87
  -1   2 -11   12.01    1.26
   5   1 -11    1.36    1.14
   5   1 -11    3.78    1.21
   4   1 -11   12.25    1.71
   4   1 -11    9.32    1.43
   4   1 -11   12.21    1.96
   3   1 -11   18.11    2.15
   3   1 -11   18.24    1.83
   2   1 -11   27.11    2.13
   2   1 -11   34.89    2.43
   1   1 -11   49.42    2.73
   1   1 -11   59.21    2.89
   0   1 -11   13.17    1.76
   0   1 -11   14.98    1.22
  -1   1 -11   21.39    1.45
  -1   1 -11   19.96    2.05
  -2   1 -11    0.56    1.12
  -2   1 -11    0.51    0.81
   6   0 -11   24.04    2.13
   6   0 -11   29.24    2.20
   5   0 -11   12.13    1.65
   5   0 -11   14.33    1.77
   4   0 -11    0.61    0.93
   4   0 -11    0.18    0.94
   3   0 -11   15.22    1.58
   3   0 -11   14.73    1.66
   2   0 -11   27.55    1.99
   2   0 -11   31.86    2.24
   1   0 -11   16.00    1.71
   1   0 -11   16.14    1.80
   0   0 -11   44.45    2.52
   0   0 -11   42.93    1.75
  -1   0 -11   17.74    1.88
  -1   0 -11   24.58    1.45
  -2   0 -11   -0.01    0.66
  -2   0 -11   -0.62    0.96
  -3   0 -11    1.36    0.80
  -3   0 -11   -0.74    0.99
   6  -1 -11   17.17    1.90
   6  -1 -11   16.53    1.82
   5  -1 -11   13.21    1.72
   5  -1 -11   15.42    1.75
  -5   1  11   17.51    2.00
   4  -1 -11    4.80    1.12
   4  -1 -11    2.64    1.09
  -4   1  11    2.43    1.18
   3  -1 -11    3.56    1.00
   3  -1 -11    4.34    1.14
  -3   1  11    4.17    1.15
   2  -1 -11   -0.28    0.82
   1  -1 -11    5.82    0.87
   0  -1 -11   16.12    1.20
   0  -1 -11   16.16    1.72
  -1  -1 -11   13.14    1.22
  -1  -1 -11   13.09    1.74
  -2  -1 -11   27.02    1.59
  -2  -1 -11   27.97    2.14
  -3  -1 -11    1.88    0.79
  -3  -1 -11    1.63    1.07
  -4  -1 -11   -0.04    0.76
  -4  -1 -11   -0.22    1.08
   6  -2 -11   21.23    2.17
   6  -2 -11   17.67    2.00
  -6   2  11   20.19    2.27
   5  -2 -11   19.15    1.82
   5  -2 -11   20.73    1.90
  -5   2  11   23.61    2.17
   4  -2 -11   17.70    1.73
   4  -2 -11   16.99    1.65
  -4   2  11   19.06    1.97
   3  -2 -11   26.86    1.88
   3  -2 -11   28.23    1.83
  -3   2  11   26.54    2.11
   2  -2 -11    2.19    0.70
   2  -2 -11    1.85    0.94
   2  -2 -11    3.59    0.91
  -2   2  11    3.38    1.09
   1  -2 -11    7.58    1.04
  -1   2  11    6.54    1.26
   0  -2 -11    1.22    0.66
  -1  -2 -11   89.34    2.64
  -1  -2 -11   85.67    3.45
  -2  -2 -11   64.86    3.05
  -2  -2 -11   64.71    2.32
  -3  -2 -11   51.27    2.73
  -3  -2 -11   52.01    2.15
  -4  -2 -11   38.76    2.54
  -4  -2 -11   39.67    2.01
  -5  -2 -11    8.82    1.38
  -5  -2 -11    7.69    1.59
   6  -3 -11    8.45    1.53
   6  -3 -11    9.44    1.51
  -6   3  11   12.38    2.03
   5  -3 -11   21.72    1.93
   5  -3 -11   26.15    2.03
  -5   3  11   23.58    2.25
   4  -3 -11   25.62    1.85
   4  -3 -11   22.60    1.36
   4  -3 -11   26.42    1.89
  -4   3  11   26.00    2.18
   3  -3 -11   27.90    1.47
   3  -3 -11   29.31    1.83
   3  -3 -11   33.27    1.94
  -3   3  11   25.66    2.14
   2  -3 -11    7.00    0.99
   2  -3 -11    7.24    1.07
   2  -3 -11    9.68    1.44
  -2   3  11    9.13    1.52
  -1   3  11    0.61    0.93
   0  -3 -11   13.08    1.15
   0   3  11   11.77    1.39
  -1  -3 -11   57.46    2.09
  -2  -3 -11   35.91    1.78
  -2  -3 -11   39.55    2.36
  -3  -3 -11   90.90    3.56
  -3  -3 -11   91.45    2.90
  -4  -3 -11   12.52    1.38
  -4  -3 -11   11.42    1.64
  -5  -3 -11    1.70    1.13
  -5  -3 -11    0.98    0.92
   5   3  11    1.25    0.87
   6  -4 -11   13.08    1.76
   6  -4 -11   11.94    1.65
   6  -4 -11    9.41    1.18
  -6   4  11    9.76    2.03
   5  -4 -11   60.56    2.82
   5  -4 -11   51.45    2.10
   5  -4 -11   60.35    2.80
  -5   4  11   60.98    3.30
   4  -4 -11   68.04    2.83
   4  -4 -11   66.28    2.76
   4  -4 -11   63.93    2.28
  -4   4  11   68.27    3.36
   3  -4 -11   41.00    2.12
   3  -4 -11   36.07    2.02
   3  -4 -11   33.11    1.66
  -3   4  11   33.64    2.42
   2  -4 -11   84.08    2.58
   2  -4 -11   87.23    2.92
  -2   4  11   81.84    3.43
   1  -4 -11    0.63    0.75
   1  -4 -11    0.48    0.66
  -1   4  11   -0.42    0.94
   0  -4 -11    7.29    1.31
   0  -4 -11    7.49    1.11
   0   4  11    8.08    1.32
  -1  -4 -11    7.79    1.36
  -1  -4 -11   10.83    1.19
  -2  -4 -11   57.41    2.75
  -2  -4 -11   51.26    2.10
  -3  -4 -11   41.57    2.53
  -3  -4 -11   38.90    1.94
   3   4  11   40.77    1.90
  -4  -4 -11   39.37    2.41
  -4  -4 -11   31.55    1.94
  -4  -4 -11   40.48    2.52
   4   4  11   37.85    1.93
  -5  -4 -11   11.23    1.65
  -5  -4 -11    9.97    1.37
   5   4  11    9.83    1.29
  -6  -4 -11    1.22    0.93
  -6  -4 -11    1.28    1.10
   6   4  11    0.77    0.79
   5  -5 -11   42.59    2.35
   5  -5 -11   38.44    1.93
   5  -5 -11   39.25    2.38
  -5   5  11   34.01    2.69
   4  -5 -11   36.08    2.14
   4  -5 -11   37.39    2.20
   4  -5 -11   36.39    1.83
  -4   5  11   37.22    2.66
   3  -5 -11   16.68    1.57
   3  -5 -11   15.67    1.34
  -3   5  11   18.02    2.01
   2  -5 -11   14.95    1.52
   2  -5 -11   14.22    1.49
   2  -5 -11   12.99    1.23
  -2   5  11   15.83    1.97
   1  -5 -11    3.34    0.91
   1  -5 -11    2.79    0.88
   1  -5 -11    2.83    0.98
  -1   5  11    3.07    1.27
   0  -5 -11    2.12    0.96
   0   5  11    1.21    0.88
  -1  -5 -11   49.24    2.47
  -1  -5 -11   51.45    2.02
  -2  -5 -11   39.29    1.88
  -2  -5 -11   42.54    2.40
   2   5  11   39.88    1.81
  -3  -5 -11   15.18    1.45
  -3  -5 -11   15.14    1.79
   3   5  11   14.13    1.29
  -4  -5 -11   39.25    2.36
  -4  -5 -11   46.64    2.65
  -4  -5 -11   42.01    2.09
   4   5  11   43.68    2.04
  -5  -5 -11    2.44    1.20
  -5  -5 -11    3.21    1.09
   5   5  11    3.96    1.00
  -6  -5 -11    3.39    1.43
  -6  -5 -11    2.92    1.06
   6   5  11    1.80    0.89
   5  -6 -11    5.14    1.11
   5  -6 -11    5.03    1.33
  -5   6  11    5.63    1.69
   4  -6 -11   44.86    2.44
   4  -6 -11   40.56    2.02
  -4   6  11   38.47    2.81
   3  -6 -11   14.94    1.37
  -3   6  11   18.49    2.25
   2  -6 -11    7.57    1.15
  -2   6  11    6.70    1.48
   1  -6 -11   16.55    1.60
   1  -6 -11   14.23    1.27
  -1   6  11   14.96    1.81
   0  -6 -11    0.83    0.83
   0  -6 -11    1.51    0.74
   0   6  11    1.91    1.03
  -1  -6 -11    2.34    1.00
   1   6  11    4.18    0.80
  -2  -6 -11    0.68    0.81
  -2  -6 -11    1.15    1.05
   2   6  11    0.22    0.56
  -3  -6 -11    9.72    1.49
  -3  -6 -11   10.64    1.36
   3   6  11   12.01    1.34
  -4  -6 -11   11.47    1.66
  -4  -6 -11    8.29    1.45
  -4  -6 -11   10.10    1.39
   4   6  11    9.36    1.27
  -5  -6 -11   26.44    2.00
  -5  -6 -11   32.10    2.30
  -5  -6 -11   28.26    1.84
   5   6  11   24.70    1.74
  -6  -6 -11   18.49    2.06
  -6  -6 -11   17.09    2.01
  -6  -6 -11   16.63    1.66
   6   6  11   16.77    1.61
   4  -7 -11   15.49    1.53
  -4   7  11   19.42    2.30
   3  -7 -11   13.63    1.51
  -3   7  11   14.64    2.05
   2  -7 -11   22.35    1.58
  -2   7  11   21.98    2.19
   1  -7 -11   11.15    1.51
   1  -7 -11   11.48    1.31
  -1   7  11   11.99    1.80
   0  -7 -11    6.71    1.25
   0  -7 -11    5.68    1.05
   0   7  11    5.09    0.95
  -1  -7 -11   20.36    1.86
  -1  -7 -11   20.12    1.61
   1   7  11   17.70    1.40
  -2  -7 -11    9.78    1.50
   2   7  11    9.59    1.25
  -3  -7 -11   26.83    1.91
  -3  -7 -11   29.95    2.22
  -3  -7 -11   29.13    1.80
   3   7  11   30.04    1.73
  -4  -7 -11   10.83    1.52
  -4  -7 -11   12.16    1.48
  -4  -7 -11    8.92    1.62
   4   7  11   11.54    1.42
  -5  -7 -11   61.57    2.57
  -5  -7 -11   58.37    2.87
  -5  -7 -11   63.96    3.20
   5   7  11   62.74    2.53
  -6  -7 -11   21.66    1.99
  -6  -7 -11   22.18    1.80
  -6  -7 -11   23.77    2.29
   6   7  11   20.10    1.72
   3  -8 -11   26.26    1.81
  -3   8  11   25.70    2.51
   2  -8 -11   33.82    1.95
  -2   8  11   34.67    2.58
   1  -8 -11   30.53    2.10
   1  -8 -11   29.15    1.80
  -1   8  11   30.71    2.31
   0  -8 -11   53.49    2.33
   0  -8 -11   53.83    2.70
   0   8  11   53.15    2.21
  -1  -8 -11   38.46    2.01
  -1  -8 -11   34.11    2.36
   1   8  11   35.31    1.87
  -2  -8 -11   13.57    1.55
  -2  -8 -11   13.13    1.79
   2   8  11   13.45    1.47
  -3  -8 -11    1.54    1.24
  -3  -8 -11    1.11    0.95
   3   8  11   -0.28    0.75
  -4  -8 -11   13.84    1.93
  -4  -8 -11   12.12    1.74
  -4  -8 -11   16.28    1.66
   4   8  11   15.24    1.48
  -5  -8 -11   26.21    2.38
  -5  -8 -11   29.21    1.96
  -5  -8 -11   27.55    2.14
   5   8  11   27.17    1.88
  -6  -8 -11   23.08    2.31
  -6  -8 -11   25.91    2.20
  -6  -8 -11   21.29    1.83
   6   8  11   26.05    1.84
   2  -9 -11   40.85    2.27
  -2   9  11   42.95    2.85
   1  -9 -11   54.50    2.50
  -1   9  11   62.12    3.27
  -1   9  11   53.82    2.43
   0  -9 -11   42.75    2.18
   0  -9 -11   40.81    2.49
   0   9  11   41.59    2.05
  -1  -9 -11   19.76    2.06
  -1  -9 -11   19.95    1.69
   1   9  11   17.71    1.50
  -2  -9 -11   17.35    1.77
  -2  -9 -11   15.09    1.93
   2   9  11   18.64    1.53
  -3  -9 -11   22.72    2.31
  -3  -9 -11   25.25    1.90
  -3  -9 -11   18.90    1.91
   3   9  11   27.16    1.80
  -4  -9 -11   66.23    3.33
  -4  -9 -11   60.21    2.95
   4   9  11   66.42    2.68
  -5  -9 -11   42.03    2.86
  -5  -9 -11   37.66    2.53
  -5  -9 -11   37.37    2.20
   5   9  11   39.96    2.14
  -6  -9 -11   49.36    2.85
  -6  -9 -11   52.11    3.06
  -6  -9 -11   46.52    2.50
   6   9  11   47.43    2.42
   1 -10 -11   27.51    2.01
  -1  10  11   27.66    1.88
   0 -10 -11   10.76    1.53
   0 -10 -11   12.72    1.82
   0  10  11   13.19    1.59
  -1 -10 -11   13.12    1.81
  -1 -10 -11   17.57    1.83
   1  10  11   15.94    1.50
  -2 -10 -11    9.41    1.36
  -2 -10 -11    7.86    1.61
   2  10  11   10.42    1.40
  -3 -10 -11    0.46    1.17
  -3 -10 -11    1.18    0.97
   3  10  11    2.02    0.88
  -4 -10 -11   -0.46    1.10
  -4 -10 -11    0.85    0.98
  -4 -10 -11    0.46    1.24
   4  10  11    1.40    0.90
  -5 -10 -11   22.66    2.55
  -5 -10 -11   20.95    2.13
   5  10  11   23.93    1.83
  -1 -11 -11   20.94    1.89
  -1 -11 -11   20.85    2.27
   1  11  11   22.47    1.84
  -2 -11 -11    6.82    1.35
  -2 -11 -11    7.11    1.60
   2  11  11    6.30    1.27
  -3 -11 -11    5.24    1.23
  -3 -11 -11    5.27    1.56
   3  11  11    5.91    1.20
   3   1 -12   16.76    2.15
   2   1 -12   14.61    2.03
   2   1 -12   14.25    1.94
   1   1 -12   10.48    1.66
   4   0 -12   52.28    2.80
   3   0 -12   49.38    2.66
   1   0 -12   31.86    2.33
   0   0 -12    3.66    0.85
   0   0 -12    2.20    1.14
  -1   0 -12    1.61    1.18
  -1   0 -12    1.32    0.81
   5  -1 -12    9.75    1.56
   5  -1 -12   11.24    1.71
  -5   1  12   12.51    1.94
   4  -1 -12   28.57    2.07
   4  -1 -12   24.84    2.04
   3  -1 -12   25.67    2.03
   1  -1 -12    9.37    1.08
   0  -1 -12    2.53    1.16
   0  -1 -12    0.98    0.77
  -1  -1 -12    2.61    0.86
  -1  -1 -12    3.56    1.27
  -2  -1 -12   13.12    1.36
  -2  -1 -12   11.08    1.78
   5  -2 -12    5.12    1.35
   5  -2 -12    7.63    1.38
  -5   2  12    6.61    1.61
   4  -2 -12    0.69    1.06
   4  -2 -12    1.80    1.07
  -4   2  12    0.01    1.12
   3  -2 -12   21.01    1.89
  -3   2  12   20.48    2.12
   0  -2 -12   19.38    1.35
  -1  -2 -12    1.15    1.06
  -1  -2 -12    0.24    0.69
  -2  -2 -12    0.31    0.99
  -2  -2 -12   -0.12    0.72
  -3  -2 -12    1.04    1.09
  -3  -2 -12    1.34    0.84
   5  -3 -12    1.01    1.06
   5  -3 -12    1.90    1.09
  -5   3  12    2.05    1.35
   4  -3 -12   -0.12    0.92
   4  -3 -12    1.68    1.02
  -4   3  12    1.47    1.26
   3  -3 -12    0.83    0.66
   3  -3 -12    1.91    0.94
  -3   3  12    0.65    1.15
   2  -3 -12    6.71    1.03
  -2   3  12    5.73    1.37
  -1   3  12   38.68    2.35
   0  -3 -12   27.30    1.55
  -1  -3 -12   13.38    1.27
  -2  -3 -12    7.07    1.41
  -2  -3 -12    7.70    1.13
  -3  -3 -12    1.04    1.04
  -3  -3 -12    1.29    0.83
  -4  -3 -12    4.98    1.37
  -4  -3 -12    5.08    1.11
   5  -4 -12   25.72    2.21
   5  -4 -12   25.84    2.10
  -5   4  12   24.24    2.49
   4  -4 -12    1.43    1.02
   4  -4 -12    1.39    0.78
  -4   4  12    1.55    1.38
   3  -4 -12    6.07    1.26
   3  -4 -12    5.50    1.01
  -3   4  12    6.29    1.62
   2  -4 -12    3.35    1.04
   2  -4 -12    3.65    0.85
  -2   4  12    3.12    1.21
   1  -4 -12   37.33    1.83
  -1   4  12   37.08    2.40
   0  -4 -12   52.07    2.15
  -1  -4 -12   88.33    2.80
  -2  -4 -12   25.01    1.61
  -3  -4 -12   15.76    1.40
  -4  -4 -12   10.20    1.38
  -4  -4 -12    9.29    1.61
   4  -5 -12   14.50    1.42
   4  -5 -12   16.00    1.85
  -4   5  12   16.55    2.34
   3  -5 -12    0.50    0.96
   3  -5 -12    1.86    0.84
  -3   5  12    0.46    1.16
   2  -5 -12   -0.85    0.85
   2  -5 -12    0.39    0.76
  -2   5  12   -1.55    1.00
   1  -5 -12   24.64    1.60
  -1   5  12   21.45    2.05
   0  -5 -12   53.28    2.65
  -1  -5 -12   71.96    2.57
  -1  -5 -12   75.26    3.18
  -2  -5 -12   18.72    1.98
  -2  -5 -12   17.58    1.62
  -3  -5 -12    4.56    1.40
  -3  -5 -12    5.54    1.10
  -4  -5 -12    2.72    0.99
  -4  -5 -12    3.86    1.31
  -5  -5 -12   36.76    2.14
  -5  -5 -12   42.92    2.75
   5   5  12   39.52    2.15
   4  -6 -12   53.45    2.65
   4  -6 -12   47.96    2.26
  -4   6  12   47.41    3.11
   3  -6 -12    1.97    0.99
   3  -6 -12    0.83    0.87
  -3   6  12    1.02    1.19
   2  -6 -12    1.05    0.78
   2  -6 -12    0.53    0.90
  -2   6  12   -0.01    1.21
   1  -6 -12   18.95    1.82
   1  -6 -12   23.89    1.60
   1  -6 -12   20.22    1.73
  -1   6  12   24.88    2.16
   0  -6 -12   18.95    1.56
   0  -6 -12   20.97    1.92
  -1  -6 -12   23.52    2.07
  -2  -6 -12   42.99    2.03
  -2  -6 -12   39.69    2.51
  -3  -6 -12    4.57    1.37
  -3  -6 -12    6.64    1.20
   3   6  12    5.53    1.12
  -4  -6 -12    1.55    0.98
  -4  -6 -12    4.30    1.45
   4   6  12    2.21    0.88
  -5  -6 -12   -0.20    1.10
  -5  -6 -12    0.49    0.86
   5   6  12   -0.22    0.75
   3  -7 -12    4.57    1.14
  -3   7  12    5.49    1.63
   2  -7 -12    1.60    0.89
  -2   7  12    0.22    1.19
   1  -7 -12   23.05    2.02
   1  -7 -12   25.38    1.74
  -1   7  12   29.19    2.27
   0  -7 -12   17.94    1.90
   0  -7 -12   16.33    1.53
  -1  -7 -12   41.78    2.53
  -1  -7 -12   39.81    2.10
  -2  -7 -12   32.73    2.38
   2   7  12   34.37    1.92
  -3  -7 -12    9.17    1.38
  -3  -7 -12    8.65    1.57
   3   7  12   11.69    1.45
  -4  -7 -12   11.42    1.55
  -4  -7 -12   11.41    1.78
   4   7  12    8.46    1.33
  -5  -7 -12    0.60    0.98
  -5  -7 -12    0.92    1.13
   5   7  12    0.91    0.78
   2  -8 -12    6.73    1.29
  -2   8  12    7.78    1.71
   1  -8 -12    3.03    1.32
   1  -8 -12    3.68    1.01
  -1   8  12    3.55    1.33
   0  -8 -12    0.91    1.15
   0  -8 -12    2.01    0.92
  -1  -8 -12    1.71    1.16
  -1  -8 -12    2.08    0.97
   1   8  12    2.01    0.80
  -2  -8 -12    4.05    1.17
  -2  -8 -12    4.21    1.32
   2   8  12    3.97    1.06
  -3  -8 -12   27.54    2.32
   3   8  12   25.25    1.82
  -4  -8 -12   16.71    1.80
  -4  -8 -12   13.85    1.98
   4   8  12   16.72    1.59
  -5  -8 -12   17.21    2.20
  -5  -8 -12   18.17    2.09
  -5  -8 -12   19.45    1.80
   5   8  12   19.31    1.76
   1  -9 -12   15.88    1.78
   0  -9 -12   -1.04    0.90
   0  -9 -12   -0.34    1.13
  -1  -9 -12    1.58    1.31
  -1  -9 -12    4.05    1.07
   1   9  12    1.90    0.85
  -2  -9 -12   34.81    2.10
  -2  -9 -12   31.71    2.52
   2   9  12   30.72    1.90
  -3  -9 -12   43.30    2.37
  -3  -9 -12   40.95    2.76
   3   9  12   40.68    2.20
  -4  -9 -12   42.66    2.93
  -4  -9 -12   38.83    2.53
   4   9  12   42.73    2.29
  -1 -10 -12    0.17    0.98
  -1 -10 -12   -0.58    1.22
   1  10  12    0.64    0.77
  -2 -10 -12    4.50    1.25
  -2 -10 -12    4.30    1.50
   2  10  12    2.85    1.07
  -3 -10 -12   15.76    1.82
  -3 -10 -12   16.50    2.19
   3  10  12   20.74    1.75
   0  -2 -13    1.05    0.83
  -1  -2 -13   17.89    1.46
  -3   3  13   18.93    2.23
   2  -3 -13   22.44    1.59
   0  -3 -13    5.54    1.08
  -1  -3 -13    5.91    1.04
  -2  -3 -13   11.31    1.40
   3  -4 -13    6.84    1.11
  -3   4  13    9.52    1.82
   2  -4 -13   55.67    2.27
  -2   4  13   51.17    3.03
   1  -4 -13    7.01    1.22
  -1   4  13    9.77    1.67
  -1  -4 -13    2.34    0.91
  -2  -4 -13    0.23    0.79
  -3  -4 -13    0.34    0.79
   3  -5 -13    4.67    1.36
   3  -5 -13    4.20    1.03
  -3   5  13    4.24    1.52
   2  -5 -13   31.24    1.88
  -2   5  13   32.15    2.61
   1  -5 -13   55.99    2.38
  -1   5  13   56.59    2.94
  -1  -5 -13    7.42    1.20
  -2  -5 -13    1.56    0.91
  -3  -5 -13    0.21    0.87
   2  -6 -13   21.44    1.70
  -2   6  13   25.48    2.42
   1  -6 -13   67.23    2.61
  -1   6  13   66.33    3.26
   0  -6 -13   45.56    2.19
   0  -6 -13   39.79    2.50
  -1  -6 -13   36.27    2.48
  -2  -6 -13    8.36    1.59
  -2  -6 -13    8.81    1.35
  -3  -6 -13   -0.10    0.93
  -3  -6 -13   -1.06    1.08
   2  -7 -13   20.31    1.74
   1  -7 -13   31.53    1.99
   1  -7 -13   29.83    2.30
  -1   7  13   31.77    2.47
   0  -7 -13   35.06    2.03
   0  -7 -13   34.99    2.40
  -1  -7 -13   25.32    2.20
  -1  -7 -13   24.00    1.82
  -2  -7 -13   -0.53    1.08
  -3  -7 -13    5.79    1.51
  -3  -7 -13    7.36    1.41
   0  -8 -13    9.86    1.49
   0  -8 -13   13.17    1.80
  -1  -8 -13    7.01    1.49
  -1  -8 -13    6.29    1.33
  -2  -8 -13   14.99    1.94
  -2  -8 -13   14.90    1.82
   0   0   0    0.00    0.00
;
_shelx_hkl_checksum              70351
#END Tags that were not found in dictionaries
loop_
_space_group_symop_operation_xyz
'x, y, z'
'-x, -y, -z'
loop_
_atom_site_label
_atom_site_type_symbol
_atom_site_fract_x
_atom_site_fract_y
_atom_site_fract_z
_atom_site_U_iso_or_equiv
_atom_site_adp_type
_atom_site_occupancy
_atom_site_site_symmetry_order
_atom_site_calc_flag
_atom_site_refinement_flags_posn
_atom_site_refinement_flags_adp
C1 C 0.6070(5) -0.1035(5) 0.3055(4) 0.0175(8) Uani 1 1 d . .
C2 C 0.0895(5) 0.2009(5) 0.2953(4) 0.0151(7) Uani 1 1 d . .
C3 C -0.0591(6) 0.3898(5) 0.3828(5) 0.0254(9) Uani 1 1 d . .
H3A H 0.0319 0.3345 0.4568 0.038 Uiso 1 1 calc R U
H3B H -0.1598 0.4078 0.4217 0.038 Uiso 1 1 calc R U
H3C H -0.0512 0.4881 0.3214 0.038 Uiso 1 1 calc R U
C4 C -0.2015(5) 0.3579(5) 0.2010(5) 0.0221(9) Uani 1 1 d . .
H4A H -0.1761 0.3132 0.1346 0.033 Uiso 1 1 calc R U
H4B H -0.2341 0.4695 0.1535 0.033 Uiso 1 1 calc R U
H4C H -0.2894 0.3309 0.2473 0.033 Uiso 1 1 calc R U
C5 C -0.0308(5) 0.0178(5) 0.2701(5) 0.0232(9) Uani 1 1 d . .
H5A H -0.1139 0.0617 0.3170 0.035 Uiso 1 1 calc R U
H5B H 0.0158 -0.0933 0.3231 0.035 Uiso 1 1 calc R U
H5C H -0.0788 0.0405 0.1788 0.035 Uiso 1 1 calc R U
C6 C 0.2591(5) -0.0006(5) 0.2310(4) 0.0151(7) Uani 1 1 d . .
H6 H 0.2801 -0.1131 0.2764 0.018 Uiso 1 1 calc R U
C7 C 0.2680(5) 0.0496(5) 0.0752(4) 0.0184(8) Uani 1 1 d . .
H7A H 0.1666 0.0611 0.0273 0.022 Uiso 1 1 calc R U
H7B H 0.3576 -0.0281 0.0599 0.022 Uiso 1 1 calc R U
C8 C 0.2956(5) 0.2057(5) 0.0196(4) 0.0193(8) Uani 1 1 d . .
H8A H 0.3303 0.2284 -0.0719 0.023 Uiso 1 1 calc R U
H8B H 0.1943 0.2890 0.0109 0.023 Uiso 1 1 calc R U
C9 C 0.4266(5) 0.1950(5) 0.1208(4) 0.0157(8) Uani 1 1 d . .
C10 C 0.3366(6) 0.5413(5) 0.2068(5) 0.0241(9) Uani 1 1 d . .
H10A H 0.3309 0.4375 0.2526 0.029 Uiso 1 1 calc R U
H10B H 0.3968 0.5451 0.1285 0.029 Uiso 1 1 calc R U
Cl1 Cl 0.40219(11) -0.13431(11) 0.56051(10) 0.01550(19) Uani 1 1 d . .
Cl2 Cl 0.44058(16) 0.57745(15) 0.32478(15) 0.0398(3) Uani 1 1 d . .
Cl3 Cl 0.13469(14) 0.68169(15) 0.14461(14) 0.0332(3) Uani 1 1 d . .
N2 N 0.0976(4) 0.0854(4) 0.2570(4) 0.0151(7) Uani 1 1 d . .
N3 N -0.0562(4) 0.2970(4) 0.3045(4) 0.0193(7) Uani 1 1 d . .
O1 O 0.7210(4) -0.1988(4) 0.3009(4) 0.0267(7) Uani 1 1 d . .
O2 O 0.2210(3) 0.2175(3) 0.3279(3) 0.0159(6) Uani 1 1 d . .
O3 O 0.5167(4) 0.2700(4) 0.0844(3) 0.0252(7) Uani 1 1 d . .
Rh1 Rh 0.42818(3) 0.04979(3) 0.31805(3) 0.01098(9) Uani 1 1 d . .
loop_
_atom_site_aniso_label
_atom_site_aniso_U_11
_atom_site_aniso_U_22
_atom_site_aniso_U_33
_atom_site_aniso_U_23
_atom_site_aniso_U_13
_atom_site_aniso_U_12
C1 0.0165(19) 0.022(2) 0.0163(19) -0.0093(16) 0.0022(15) -0.0082(16)
C2 0.0140(18) 0.0153(18) 0.0145(18) -0.0049(15) 0.0036(14) -0.0050(15)
C3 0.021(2) 0.024(2) 0.035(3) -0.018(2) 0.0075(18) -0.0054(18)
C4 0.0154(19) 0.019(2) 0.025(2) -0.0048(17) 0.0014(16) -0.0031(16)
C5 0.0173(19) 0.023(2) 0.039(3) -0.018(2) 0.0080(18) -0.0130(17)
C6 0.0130(17) 0.0176(18) 0.0181(19) -0.0124(16) -0.0015(14) -0.0033(15)
C7 0.0136(18) 0.023(2) 0.022(2) -0.0137(17) 0.0013(15) -0.0047(15)
C8 0.0189(19) 0.021(2) 0.0159(19) -0.0065(16) 0.0021(15) -0.0061(16)
C9 0.0166(18) 0.0146(18) 0.0180(19) -0.0076(16) 0.0063(15) -0.0069(15)
C10 0.025(2) 0.022(2) 0.025(2) -0.0130(19) 0.0012(18) -0.0051(18)
Cl1 0.0147(4) 0.0175(4) 0.0156(4) -0.0063(4) 0.0029(3) -0.0081(3)
Cl2 0.0364(7) 0.0279(6) 0.0501(8) -0.0241(6) -0.0178(6) 0.0049(5)
Cl3 0.0227(5) 0.0337(6) 0.0349(6) -0.0116(5) -0.0024(5) -0.0033(5)
N2 0.0098(14) 0.0167(16) 0.0211(17) -0.0088(14) 0.0040(12) -0.0064(13)
N3 0.0109(15) 0.0192(17) 0.029(2) -0.0134(15) 0.0041(14) -0.0019(13)
O1 0.0179(15) 0.0258(17) 0.0343(18) -0.0181(15) 0.0006(13) 0.0018(13)
O2 0.0120(13) 0.0126(13) 0.0223(15) -0.0074(12) 0.0019(11) -0.0034(10)
O3 0.0309(17) 0.0331(18) 0.0186(15) -0.0078(14) 0.0049(13) -0.0239(15)
Rh1 0.00894(14) 0.01148(15) 0.01290(15) -0.00585(11) 0.00169(10) -0.00312(10)
loop_
_atom_type_symbol
_atom_type_description
_atom_type_scat_dispersion_real
_atom_type_scat_dispersion_imag
_atom_type_scat_source
C C 0.0033 0.0016 'International Tables Vol C Tables 4.2.6.8 and 6.1.1.4'
H H 0.0000 0.0000 'International Tables Vol C Tables 4.2.6.8 and 6.1.1.4'
Cl Cl 0.1484 0.1585 'International Tables Vol C Tables 4.2.6.8 and 6.1.1.4'
N N 0.0061 0.0033 'International Tables Vol C Tables 4.2.6.8 and 6.1.1.4'
O O 0.0106 0.0060 'International Tables Vol C Tables 4.2.6.8 and 6.1.1.4'
Rh Rh -1.1178 0.9187 'International Tables Vol C Tables 4.2.6.8 and 6.1.1.4'
loop_
_geom_angle_atom_site_label_1
_geom_angle_atom_site_label_2
_geom_angle_atom_site_label_3
_geom_angle
_geom_angle_site_symmetry_1
_geom_angle_site_symmetry_3
O1 C1 Rh1 178.0(4) . .
O2 C2 N2 120.0(3) . .
O2 C2 N3 119.1(4) . .
N2 C2 N3 120.9(4) . .
N3 C3 H3A 109.5 . .
N3 C3 H3B 109.5 . .
H3A C3 H3B 109.5 . .
N3 C3 H3C 109.5 . .
H3A C3 H3C 109.5 . .
H3B C3 H3C 109.5 . .
N3 C4 H4A 109.5 . .
N3 C4 H4B 109.5 . .
H4A C4 H4B 109.5 . .
N3 C4 H4C 109.5 . .
H4A C4 H4C 109.5 . .
H4B C4 H4C 109.5 . .
N2 C5 H5A 109.5 . .
N2 C5 H5B 109.5 . .
H5A C5 H5B 109.5 . .
N2 C5 H5C 109.5 . .
H5A C5 H5C 109.5 . .
H5B C5 H5C 109.5 . .
N2 C6 C7 111.6(3) . .
N2 C6 Rh1 106.3(2) . .
C7 C6 Rh1 109.9(3) . .
N2 C6 H6 109.7 . .
C7 C6 H6 109.7 . .
Rh1 C6 H6 109.7 . .
C6 C7 C8 107.5(3) . .
C6 C7 H7A 110.2 . .
C8 C7 H7A 110.2 . .
C6 C7 H7B 110.2 . .
C8 C7 H7B 110.2 . .
H7A C7 H7B 108.5 . .
C9 C8 C7 108.5(3) . .
C9 C8 H8A 110.0 . .
C7 C8 H8A 110.0 . .
C9 C8 H8B 110.0 . .
C7 C8 H8B 110.0 . .
H8A C8 H8B 108.4 . .
O3 C9 C8 122.7(4) . .
O3 C9 Rh1 124.7(3) . .
C8 C9 Rh1 112.5(3) . .
Cl2 C10 Cl3 110.9(2) . .
Cl2 C10 H10A 109.5 . .
Cl3 C10 H10A 109.5 . .
Cl2 C10 H10B 109.5 . .
Cl3 C10 H10B 109.5 . .
H10A C10 H10B 108.0 . .
Rh1 Cl1 Rh1 93.56(3) 2_656 .
C2 N2 C5 123.7(3) . .
C2 N2 C6 117.2(3) . .
C5 N2 C6 117.6(3) . .
C2 N3 C3 119.0(4) . .
C2 N3 C4 122.1(4) . .
C3 N3 C4 114.9(3) . .
C2 O2 Rh1 112.3(2) . .
C1 Rh1 C9 90.76(17) . .
C1 Rh1 C6 95.37(16) . .
C9 Rh1 C6 84.10(17) . .
C1 Rh1 O2 177.22(15) . .
C9 Rh1 O2 89.02(14) . .
C6 Rh1 O2 81.86(13) . .
C1 Rh1 Cl1 93.45(13) . 2_656
C9 Rh1 Cl1 98.66(12) . 2_656
C6 Rh1 Cl1 170.73(11) . 2_656
O2 Rh1 Cl1 89.32(8) . 2_656
C1 Rh1 Cl1 91.67(13) . .
C9 Rh1 Cl1 174.21(12) . .
C6 Rh1 Cl1 90.44(12) . .
O2 Rh1 Cl1 88.29(8) . .
Cl1 Rh1 Cl1 86.44(3) 2_656 .
loop_
_geom_bond_atom_site_label_1
_geom_bond_atom_site_label_2
_geom_bond_distance
_geom_bond_site_symmetry_2
C1 O1 1.147(5) .
C1 Rh1 1.842(4) .
C2 O2 1.277(5) .
C2 N2 1.347(5) .
C2 N3 1.349(5) .
C3 N3 1.460(6) .
C3 H3A 0.9600 .
C3 H3B 0.9600 .
C3 H3C 0.9600 .
C4 N3 1.467(5) .
C4 H4A 0.9600 .
C4 H4B 0.9600 .
C4 H4C 0.9600 .
C5 N2 1.462(5) .
C5 H5A 0.9600 .
C5 H5B 0.9600 .
C5 H5C 0.9600 .
C6 N2 1.479(5) .
C6 C7 1.525(6) .
C6 Rh1 2.032(4) .
C6 H6 0.9800 .
C7 C8 1.529(6) .
C7 H7A 0.9700 .
C7 H7B 0.9700 .
C8 C9 1.516(6) .
C8 H8A 0.9700 .
C8 H8B 0.9700 .
C9 O3 1.213(5) .
C9 Rh1 2.003(4) .
C10 Cl2 1.756(5) .
C10 Cl3 1.779(5) .
C10 H10A 0.9700 .
C10 H10B 0.9700 .
Cl1 Rh1 2.4951(10) 2_656
Cl1 Rh1 2.5455(10) .
O2 Rh1 2.059(3) .
Rh1 Cl1 2.4951(10) 2_656
loop_
_geom_torsion_atom_site_label_1
_geom_torsion_atom_site_label_2
_geom_torsion_atom_site_label_3
_geom_torsion_atom_site_label_4
_geom_torsion
N2 C6 C7 C8 78.0(4)
Rh1 C6 C7 C8 -39.7(4)
C6 C7 C8 C9 44.8(4)
C7 C8 C9 O3 151.3(4)
C7 C8 C9 Rh1 -30.3(4)
O2 C2 N2 C5 155.3(4)
N3 C2 N2 C5 -22.4(6)
O2 C2 N2 C6 -10.3(6)
N3 C2 N2 C6 171.9(4)
C7 C6 N2 C2 -103.8(4)
Rh1 C6 N2 C2 16.0(4)
C7 C6 N2 C5 89.7(4)
Rh1 C6 N2 C5 -150.5(3)
O2 C2 N3 C3 -15.1(6)
N2 C2 N3 C3 162.7(4)
O2 C2 N3 C4 141.3(4)
N2 C2 N3 C4 -40.9(6)
N2 C2 O2 Rh1 -1.4(5)
N3 C2 O2 Rh1 176.3(3)
