#------------------------------------------------------------------------------
#$Date: 2016-03-04 11:16:28 +0200 (Fri, 04 Mar 2016) $
#$Revision: 177398 $
#$URL: svn://www.crystallography.net/cod/cif/4/12/49/4124911.cif $
#------------------------------------------------------------------------------
#
# This file is available in the Crystallography Open Database (COD),
# http://www.crystallography.net/
#
# All data on this site have been placed in the public domain by the
# contributors.
#
data_4124911
loop_
_publ_author_name
'Cornella, Josep'
'Edwards, Jacob T.'
'Qin, Tian'
'Kawamura, Shuhei'
'Wang, Jie'
'Pan, Chung-Mao'
'Gianatassio, Ryan'
'Schmidt, Michael'
'Eastgate, Martin D.'
'Baran, Phil S.'
_publ_section_title
;
 Practical Ni-Catalyzed Aryl-Alkyl Cross-Coupling of Secondary
 Redox-Active Esters.
;
_journal_issue                   7
_journal_name_full               'Journal of the American Chemical Society'
_journal_page_first              2174
_journal_page_last               2177
_journal_paper_doi               10.1021/jacs.6b00250
_journal_volume                  138
_journal_year                    2016
_chemical_formula_moiety         'C16 H15 Cl4 N O4'
_chemical_formula_sum            'C16 H15 Cl4 N O4'
_chemical_formula_weight         427.09
_chemical_name_systematic
;
 ?
;
_space_group_crystal_system      triclinic
_space_group_IT_number           2
_space_group_name_Hall           '-P 1'
_space_group_name_H-M_alt        'P -1'
_symmetry_space_group_name_Hall  '-P 1'
_symmetry_space_group_name_H-M   'P -1'
_atom_sites_solution_hydrogens   geom
_audit_creation_date             2015-11-12
_audit_creation_method
;
Olex2 1.2-beta
(compiled 2015.11.10 svn.r3248 for OlexSys, GUI svn.r5133)
;
_cell_angle_alpha                104.489(3)
_cell_angle_beta                 90.358(3)
_cell_angle_gamma                111.767(3)
_cell_formula_units_Z            2
_cell_length_a                   8.8700(7)
_cell_length_b                   9.1094(8)
_cell_length_c                   12.6095(10)
_cell_measurement_reflns_used    3775
_cell_measurement_temperature    296(2)
_cell_measurement_theta_max      26.180
_cell_measurement_theta_min      2.488
_cell_volume                     910.54(13)
_computing_cell_refinement       'SAINT v8.34A (Bruker, 2013)'
_computing_data_collection       'APEX2 v2013.6-2 (Bruker, 2013)'
_computing_data_reduction        'SAINT v8.34A (Bruker, 2013)'
_computing_molecular_graphics    'Olex2 (Dolomanov et al., 2009)'
_computing_publication_material  'Olex2 (Dolomanov et al., 2009)'
_computing_structure_refinement  'ShelXL (Sheldrick, 2015)'
_computing_structure_solution    'XT (Sheldrick, 2008)'
_diffrn_ambient_temperature      296.15
_diffrn_detector                 'Bruker APEX CCD'
_diffrn_detector_area_resol_mean 8.0
_diffrn_detector_type            'CCD Area Detector'
_diffrn_measured_fraction_theta_full 0.998
_diffrn_measured_fraction_theta_max 0.994
_diffrn_measurement_device       'Kappa Four-Circle Diffractometer'
_diffrn_measurement_device_type  'Bruker APEX-II CCD'
_diffrn_measurement_method       '\f and \w scans'
_diffrn_radiation_monochromator  graphite
_diffrn_radiation_probe          x-ray
_diffrn_radiation_type           MoK\a
_diffrn_radiation_wavelength     0.71073
_diffrn_reflns_av_R_equivalents  0.0324
_diffrn_reflns_av_unetI/netI     0.0413
_diffrn_reflns_laue_measured_fraction_full 0.998
_diffrn_reflns_laue_measured_fraction_max 0.994
_diffrn_reflns_limit_h_max       11
_diffrn_reflns_limit_h_min       -10
_diffrn_reflns_limit_k_max       7
_diffrn_reflns_limit_k_min       -11
_diffrn_reflns_limit_l_max       15
_diffrn_reflns_limit_l_min       -15
_diffrn_reflns_number            11540
_diffrn_reflns_point_group_measured_fraction_full 0.998
_diffrn_reflns_point_group_measured_fraction_max 0.994
_diffrn_reflns_theta_full        25.242
_diffrn_reflns_theta_max         26.358
_diffrn_reflns_theta_min         2.488
_diffrn_source                   'sealed tube'
_diffrn_source_type              fine-focus
_diffrn_standards_number         0
_exptl_absorpt_coefficient_mu    0.671
_exptl_absorpt_correction_T_max  0.2602
_exptl_absorpt_correction_T_min  0.2261
_exptl_absorpt_correction_type   multi-scan
_exptl_absorpt_process_details
;
SADABS-2014/5 (Bruker,2014/5) was used for absorption correction.
wR2(int) was 0.0450 before and 0.0393 after correction.
The Ratio of minimum to maximum transmission is 0.8689.
The \l/2 correction factor is 0.00150.
;
_exptl_crystal_colour            colourless
_exptl_crystal_density_diffrn    1.558
_exptl_crystal_description       plate
_exptl_crystal_F_000             436
_exptl_crystal_size_max          0.29
_exptl_crystal_size_mid          0.2
_exptl_crystal_size_min          0.08
_refine_diff_density_max         0.901
_refine_diff_density_min         -0.837
_refine_diff_density_rms         0.080
_refine_ls_extinction_method     none
_refine_ls_goodness_of_fit_ref   1.035
_refine_ls_hydrogen_treatment    constr
_refine_ls_matrix_type           full
_refine_ls_number_parameters     228
_refine_ls_number_reflns         3701
_refine_ls_number_restraints     0
_refine_ls_restrained_S_all      1.035
_refine_ls_R_factor_all          0.0755
_refine_ls_R_factor_gt           0.0544
_refine_ls_shift/su_max          0.007
_refine_ls_shift/su_mean         0.000
_refine_ls_structure_factor_coef Fsqd
_refine_ls_weighting_details
'w=1/[\s^2^(Fo^2^)+(0.0557P)^2^+1.8268P] where P=(Fo^2^+2Fc^2^)/3'
_refine_ls_weighting_scheme      calc
_refine_ls_wR_factor_gt          0.1273
_refine_ls_wR_factor_ref         0.1400
_reflns_Friedel_coverage         0.000
_reflns_number_gt                2825
_reflns_number_total             3701
_reflns_threshold_expression     'I > 2\s(I)'
_cod_data_source_file            ja6b00250_si_002.cif
_cod_data_source_block           baran544
_cod_depositor_comments
;
The following automatic conversions were performed:

'_diffrn_radiation_probe' value 'X-ray' changed to 'x-ray' according
to
/usr/data/users/saulius/crontab/automatic-downloads/rss-feeds/ACS/lib/dictionaries/cif_core.dic
dictionary named 'cif_core.dic' version 2.4.2 from 2011-04-26.

Automatic conversion script
Id: cif_fix_values 4268 2015-11-12 08:31:59Z antanas 

 Adding full bibliography for 4124911.cif.
;
_cod_database_code               4124911
_shelxl_version_number           2014-3
_shelx_space_group_comment
;
The symmetry employed for this shelxl refinement is uniquely defined
by the following loop, which should always be used as a source of
symmetry information in preference to the above space-group names.
They are only intended as comments.
;
_shelx_estimated_absorpt_t_max   0.948
_shelx_estimated_absorpt_t_min   0.829
_olex2_refinement_description
;
1. Fixed Uiso
 At 1.2 times of:
  All C(H) groups, All C(H,H) groups
 At 1.5 times of:
  All C(H,H,H) groups
2.a Ternary CH refined with riding coordinates:
 C6(H6)
2.b Secondary CH2 refined with riding coordinates:
 C7(H7A,H7B), C8(H8A,H8B), C9(H9A,H9B), C14(H14A,H14B)
2.c Idealised Me refined as rotating group:
 C10(H10A,H10B,H10C), C15(H15A,H15B,H15C)
;
_shelx_res_file
;
TITL baran544 in P-1
CELL 0.71073 8.87 9.1094 12.6095 104.489 90.358 111.767
ZERR 2 0.0007 0.0008 0.001 0.003 0.003 0.003
LATT 1
SFAC C H Cl N O
UNIT 32 30 8 2 8

L.S. 4
PLAN  -4 0 0
SIZE 0.08 0.2 0.29
TEMP 23
HTAB
BOND $H
CONF
fmap 2
acta
MORE -1
REM <olex2.extras>
REM <HklSrc "%.\\baran544.hkl">
REM </olex2.extras>

WGHT    0.055700    1.826800
FVAR       0.16302
CL1   3    0.908640    0.022234   -0.146634    11.00000    0.05037    0.04153 =
         0.05392    0.01578    0.01855    0.03202
CL2   3    0.540288   -0.089334   -0.217916    11.00000    0.05240    0.02801 =
         0.03099    0.00430    0.00401    0.01401
CL3   3    1.083670    0.325777    0.053764    11.00000    0.02326    0.03932 =
         0.05691    0.02416    0.00674    0.01651
CL4   3    0.343444    0.116624   -0.099442    11.00000    0.02532    0.03475 =
         0.03130    0.01041   -0.00387    0.00875
O1    5    0.696761    0.664754    0.257069    11.00000    0.05105    0.02826 =
         0.02857    0.00196   -0.00319    0.02224
O2    5    0.432071    0.433384    0.102187    11.00000    0.02531    0.04258 =
         0.03019    0.01072    0.00468    0.01935
O3    5    0.971952    0.583399    0.215312    11.00000    0.03144    0.03118 =
         0.05698    0.00486   -0.01671    0.00713
N1    4    0.704325    0.541880    0.169657    11.00000    0.03028    0.03175 =
         0.02514    0.00236    0.00062    0.01518
C1    1    0.802072    0.133440   -0.079372    11.00000    0.03347    0.02664 =
         0.03616    0.01735    0.01202    0.01696
C2    1    0.881036    0.269720    0.010373    11.00000    0.02326    0.02807 =
         0.03999    0.01893    0.00597    0.01217
C3    1    0.792201    0.356625    0.062275    11.00000    0.02158    0.02531 =
         0.03127    0.01363    0.00253    0.00911
C4    1    0.844578    0.506012    0.158514    11.00000    0.02741    0.02662 =
         0.03676    0.01218   -0.00061    0.01042
C5    1    0.634480    0.604248    0.346169    11.00000    0.06425    0.04742 =
         0.02278    0.00608   -0.00540    0.03625
C6    1    0.632173    0.742821    0.440242    11.00000    0.11577    0.07311 =
         0.02485   -0.00725   -0.01090    0.06978
AFIX  13
H6    2    0.687947    0.829906    0.404951    11.00000   -1.20000
AFIX   0
C7    1    0.766953    0.790365    0.524883    11.00000    0.07066    0.07755 =
         0.08286   -0.05397   -0.02205    0.03765
AFIX  23
H7A   2    0.811197    0.909440    0.544077    11.00000   -1.20000
H7B   2    0.712895    0.761785    0.587721    11.00000   -1.20000
AFIX   0
C8    1    0.898146    0.754416    0.530088    11.00000    0.21771    0.11857 =
         0.13662   -0.09881   -0.14070    0.14466
AFIX  23
H8A   2    0.942829    0.766748    0.461352    11.00000   -1.20000
H8B   2    0.853029    0.637080    0.522045    11.00000   -1.20000
AFIX   0
C9    1    1.038426    0.813164    0.606620    11.00000    0.10689    0.08417 =
         0.07599   -0.02424   -0.01849    0.06360
AFIX  23
H9A   2    1.129445    0.871656    0.571120    11.00000   -1.20000
H9B   2    1.024913    0.895127    0.667434    11.00000   -1.20000
AFIX   0
C10   1    1.086394    0.722500    0.650192    11.00000    0.34776    0.06330 =
         0.15515   -0.04063   -0.17273    0.10278
AFIX 137
H10A  2    1.114897    0.647766    0.593733    11.00000   -1.50000
H10B  2    1.000051    0.661416    0.686503    11.00000   -1.50000
H10C  2    1.180085    0.790556    0.702908    11.00000   -1.50000
AFIX   0
C11   1    0.636128    0.084614   -0.112618    11.00000    0.03694    0.02230 =
         0.02268    0.00983    0.00554    0.01156
C12   1    0.627508    0.311279    0.027690    11.00000    0.02285    0.02687 =
         0.02444    0.01265    0.00352    0.01159
C13   1    0.565735    0.428652    0.100061    11.00000    0.02691    0.02890 =
         0.02062    0.01229    0.00392    0.01263
C14   1    0.491079    0.766122    0.443037    11.00000    0.08582    0.16184 =
         0.13630   -0.10905   -0.05061    0.09072
AFIX  23
H14A  2    0.523276    0.882624    0.477810    11.00000   -1.20000
H14B  2    0.434705    0.711123    0.496400    11.00000   -1.20000
AFIX   0
C15   1    0.364194    0.728947    0.356952    11.00000    0.07560    0.05850 =
         0.04181    0.01810    0.01244    0.03953
AFIX 137
H15A  2    0.357483    0.633198    0.300475    11.00000   -1.50000
H15B  2    0.389011    0.820296    0.325958    11.00000   -1.50000
H15C  2    0.261584    0.708587    0.387090    11.00000   -1.50000
AFIX   0
O16   5    0.593122    0.463509    0.342310    11.00000    0.08335    0.04472 =
         0.02837    0.01396    0.00641    0.03142
C17   1    0.547267    0.175647   -0.059158    11.00000    0.02466    0.02699 =
         0.02369    0.01207    0.00166    0.00892
HKLF 4

REM  baran544 in P-1
REM R1 =  0.0544 for    2825 Fo > 4sig(Fo)  and  0.0755 for all    3701 data
REM    228 parameters refined using      0 restraints

END

WGHT      0.0552      1.8382

REM No hydrogen bonds found for HTAB generation

REM Highest difference peak  0.901,  deepest hole -0.837,  1-sigma level  0.080
Q1    1   0.5118  0.8180  0.4002  11.00000  0.05    0.64
Q2    1   0.9709  0.7145  0.6403  11.00000  0.05    0.62
Q3    1   1.1414  0.7447  0.6126  11.00000  0.05    0.54
Q4    1   0.9834  0.8113  0.5203  11.00000  0.05    0.50
;
_shelx_res_checksum              13737
_shelx_hkl_file
;
  -1   0   0   23.85    0.61
   1   0   0   23.51    0.62
   1   0   0   23.55    0.62
  -2   0   0   63.21    1.59
  -2   0   0   65.95    1.64
  -2   0   0   65.14    1.61
  -2   0   0   62.36    1.64
   2   0   0   63.71    1.63
   2   0   0   66.76    1.64
   2   0   0   62.68    1.60
  -3   0   0   10.44    0.39
  -3   0   0    9.99    0.36
  -3   0   0    9.53    0.42
  -3   0   0    9.76    0.43
   3   0   0    9.80    0.34
   3   0   0    9.87    0.39
   3   0   0    9.65    0.42
   3   0   0   10.27    0.44
  -4   0   0   40.98    1.15
  -4   0   0   43.77    1.20
  -4   0   0   41.55    1.15
  -4   0   0   42.68    1.26
   4   0   0   41.95    1.25
   4   0   0   40.92    1.19
   4   0   0   41.09    1.12
   4   0   0   45.37    1.26
  -5   0   0    9.62    0.41
  -5   0   0    9.26    0.50
  -5   0   0    9.46    0.43
   5   0   0    9.82    0.39
   5   0   0    9.32    0.46
   5   0   0   10.25    0.51
  -6   0   0    2.79    0.27
  -6   0   0    2.36    0.26
  -6   0   0    2.34    0.34
   6   0   0    2.22    0.28
   6   0   0    2.19    0.22
  -7   0   0    7.27    0.58
  -7   0   0    7.54    0.44
  -7   0   0    7.89    0.43
   7   0   0    7.26    0.47
   7   0   0    7.89    0.39
  -8   0   0    3.51    0.37
  -8   0   0    3.69    0.36
  -8   0   0    4.18    0.53
   8   0   0    2.76    0.36
  -9   0   0    5.17    0.59
  -9   0   0    6.31    0.56
   9   0   0    5.20    0.50
 -10   0   0    0.23    0.33
  10   0   0    0.45    0.28
  10  -1   0    2.76    0.42
 -10   1   0    2.58    0.53
   9  -1   0    0.51    0.29
  -9   1   0    0.77    0.34
   8  -1   0    1.44    0.24
   8  -1   0    1.07    0.26
  -8   1   0    0.79    0.18
  -8   1   0    0.89    0.19
  -8   1   0    0.85    0.31
   7  -1   0    5.33    0.37
   7  -1   0    4.97    0.42
  -7   1   0    6.10    0.35
  -7   1   0    5.02    0.49
  -7   1   0    5.77    0.33
   6  -1   0    0.20    0.14
   6  -1   0   -0.02    0.15
  -6   1   0    0.09    0.21
  -6   1   0    0.00    0.11
  -6   1   0    0.00    0.11
   5  -1   0    4.26    0.34
   5  -1   0    4.19    0.41
   5  -1   0    4.07    0.39
   5  -1   0    4.24    0.29
  -5   1   0    3.76    0.23
  -5   1   0    3.92    0.24
  -5   1   0    4.58    0.40
   4  -1   0   32.81    1.03
   4  -1   0   36.35    1.03
   4  -1   0   31.67    0.97
  -4   1   0   34.57    0.98
  -4   1   0   32.57    1.02
  -4   1   0   32.71    0.89
  -4   1   0   32.78    0.88
   3  -1   0    2.29    0.24
   3  -1   0    1.62    0.18
   3  -1   0    2.30    0.22
  -3   1   0    1.96    0.13
  -3   1   0    2.02    0.14
  -3   1   0    1.85    0.18
  -3   1   0    1.87    0.22
   2  -1   0    0.34    0.12
   2  -1   0    0.12    0.10
  -2   1   0    0.23    0.12
  -2   1   0    0.24    0.05
  -2   1   0    0.24    0.05
  -2   1   0    0.31    0.12
   1  -1   0    8.89    0.23
  -1   1   0    9.13    0.28
  -1  -1   0   20.23    0.59
  -1  -1   0   20.53    0.61
  -1  -1   0   21.38    0.57
  -1  -1   0   19.90    0.57
  -1  -1   0   20.74    0.51
   1   1   0   20.46    0.60
   1   1   0   21.33    0.58
  -2  -1   0   10.47    0.37
  -2  -1   0   10.97    0.41
  -2  -1   0   10.49    0.42
  -2  -1   0   10.53    0.39
   2   1   0   10.89    0.39
   2   1   0   10.91    0.42
   2   1   0   10.45    0.39
  -3  -1   0    8.54    0.38
  -3  -1   0    9.53    0.37
  -3  -1   0    8.93    0.44
  -3  -1   0    9.02    0.40
   3   1   0    8.88    0.39
   3   1   0    9.16    0.27
   3   1   0    9.37    0.44
   3   1   0    9.29    0.41
  -4  -1   0   27.89    0.86
  -4  -1   0   27.65    0.93
  -4  -1   0   25.27    0.88
  -4  -1   0   27.33    0.86
  -4  -1   0   27.13    0.86
   4   1   0   28.11    0.87
   4   1   0   26.79    0.72
   4   1   0   29.54    0.91
  -5  -1   0   11.91    0.61
  -5  -1   0   11.76    0.52
  -5  -1   0   11.92    0.54
  -5  -1   0   13.01    0.59
   5   1   0   12.47    0.39
   5   1   0   12.24    0.58
   5   1   0   11.87    0.53
  -6  -1   0    4.54    0.36
  -6  -1   0    5.11    0.37
  -6  -1   0    5.53    0.51
   6   1   0    4.85    0.24
   6   1   0    4.84    0.41
  -7  -1   0   13.41    0.63
  -7  -1   0   12.80    0.76
  -7  -1   0   13.35    0.62
   7   1   0   12.19    0.62
  -8  -1   0    3.79    0.41
  -8  -1   0    3.52    0.40
  -8  -1   0    3.99    0.56
   8   1   0    2.86    0.40
  -9  -1   0    3.04    0.51
  -9  -1   0    3.75    0.42
   9   1   0    3.11    0.44
  10  -2   0    1.12    0.35
 -10   2   0    1.04    0.40
   9  -2   0    8.99    0.62
   9  -2   0    8.57    0.56
  -9   2   0    9.43    0.71
   8  -2   0    8.55    0.51
   8  -2   0    7.33    0.53
  -8   2   0    7.71    0.36
  -8   2   0    7.34    0.58
  -8   2   0    8.19    0.35
   7  -2   0   14.50    0.67
   7  -2   0   14.48    0.64
  -7   2   0   14.52    0.72
  -7   2   0   14.34    0.48
  -7   2   0   13.65    0.48
   6  -2   0    0.43    0.18
   6  -2   0    0.61    0.21
  -6   2   0    0.79    0.12
  -6   2   0    1.12    0.26
  -6   2   0    0.74    0.11
   5  -2   0    4.53    0.34
   5  -2   0    4.90    0.34
  -5   2   0    4.48    0.19
  -5   2   0    4.25    0.19
  -5   2   0    4.69    0.35
   4  -2   0   34.00    1.01
   4  -2   0   33.36    1.00
  -4   2   0   34.20    0.83
  -4   2   0   34.08    0.83
  -4   2   0   34.06    0.99
  -4   2   0   34.04    1.02
   3  -2   0   11.94    0.43
   3  -2   0   11.73    0.44
  -3   2   0   10.60    0.44
  -3   2   0   11.81    0.43
   2  -2   0   30.16    0.85
   2  -2   0   30.31    0.75
   2  -2   0   31.32    0.75
  -2   2   0   31.37    0.85
   1  -2   0   18.22    0.51
   0  -2   0    2.39    0.17
   0  -2   0    2.02    0.16
   0  -2   0    2.09    0.18
  -1  -2   0    5.35    0.25
  -1  -2   0    5.76    0.30
  -1  -2   0    5.43    0.29
   1   2   0    6.07    0.31
   1   2   0    5.65    0.26
  -2  -2   0   71.05    1.88
  -2  -2   0   71.51    1.90
  -2  -2   0   73.73    1.83
  -2  -2   0   70.10    1.83
   2   2   0   71.41    1.85
  -3  -2   0    1.81    0.22
  -3  -2   0    1.51    0.24
  -3  -2   0    1.95    0.20
  -3  -2   0    1.46    0.21
   3   2   0    1.53    0.21
   3   2   0    1.80    0.25
  -4  -2   0   12.35    0.54
  -4  -2   0   12.06    0.55
  -4  -2   0   13.44    0.55
  -4  -2   0   13.68    0.63
   4   2   0   14.06    0.57
  -5  -2   0    6.12    0.42
  -5  -2   0    6.27    0.41
  -5  -2   0    5.67    0.45
  -5  -2   0    6.25    0.41
  -6  -2   0    0.47    0.28
  -6  -2   0    0.05    0.19
  -6  -2   0   -0.32    0.15
  -6  -2   0   -0.15    0.18
  -7  -2   0    0.09    0.22
  -7  -2   0   -0.13    0.28
  -7  -2   0   -0.11    0.21
  -8  -2   0   -0.17    0.22
  -8  -2   0    0.19    0.28
  -9  -2   0    2.69    0.41
  -9  -2   0    3.15    0.58
  11  -3   0    1.20    0.38
  10  -3   0   11.89    0.73
  10  -3   0   11.77    0.76
 -10   3   0   13.17    0.85
   9  -3   0    5.02    0.48
   9  -3   0    4.02    0.46
  -9   3   0    4.06    0.51
   8  -3   0    0.11    0.21
   8  -3   0    0.51    0.25
  -8   3   0    0.14    0.25
   7  -3   0    0.08    0.20
   7  -3   0    0.02    0.20
  -7   3   0    0.20    0.23
   6  -3   0   52.57    1.54
  -6   3   0   52.21    1.56
   5  -3   0   29.02    0.94
   5  -3   0   29.62    0.93
  -5   3   0   28.23    0.94
   4  -3   0   18.85    0.67
   4  -3   0   20.21    0.66
  -4   3   0   19.03    0.67
   3  -3   0   17.80    0.47
   3  -3   0   18.21    0.47
   3  -3   0   17.53    0.59
   3  -3   0   19.03    0.61
  -3   3   0   19.18    0.62
   2  -3   0   28.10    0.73
   2  -3   0   26.78    0.74
   2  -3   0   27.21    0.81
   1  -3   0  137.63    3.35
   0  -3   0    3.33    0.22
   0  -3   0    3.56    0.25
   0  -3   0    3.35    0.22
  -1  -3   0   22.94    0.76
  -1  -3   0   23.22    0.77
  -1  -3   0   21.83    0.70
   1   3   0   24.38    0.77
   1   3   0   23.50    0.71
  -2  -3   0   28.99    0.95
  -2  -3   0   28.45    0.95
  -2  -3   0   28.01    0.87
  -2  -3   0   30.07    0.75
  -2  -3   0   30.28    0.88
   2   3   0   29.38    0.95
   2   3   0   29.79    0.88
  -3  -3   0    2.46    0.29
  -3  -3   0    2.47    0.25
  -3  -3   0    2.46    0.30
  -3  -3   0    2.04    0.23
  -3  -3   0    2.54    0.29
   3   3   0    2.28    0.26
  -4  -3   0    6.15    0.43
  -4  -3   0    6.05    0.38
  -4  -3   0    5.88    0.45
  -4  -3   0    6.96    0.45
   4   3   0    7.45    0.43
  -5  -3   0    7.17    0.53
  -5  -3   0    7.30    0.49
  -5  -3   0    7.21    0.50
  -5  -3   0    7.31    0.46
  -6  -3   0    2.63    0.42
  -6  -3   0    2.90    0.40
  -6  -3   0    3.25    0.39
  -6  -3   0    3.45    0.42
  -7  -3   0   12.61    0.71
  -7  -3   0   12.80    0.84
  -8  -3   0    0.93    0.33
  -8  -3   0    0.64    0.35
  11  -4   0    2.82    0.49
  10  -4   0    0.21    0.31
  10  -4   0    0.83    0.34
   9  -4   0    7.98    0.64
   9  -4   0    8.63    0.62
   8  -4   0   -0.06    0.22
   8  -4   0    0.06    0.24
   7  -4   0   15.70    0.73
   6  -4   0   33.84    1.11
   5  -4   0    0.48    0.18
   5  -4   0    0.40    0.15
   4  -4   0   20.38    0.67
   4  -4   0   19.98    0.51
   4  -4   0   18.08    0.68
   4  -4   0   19.35    0.50
   3  -4   0    0.27    0.14
   3  -4   0    0.17    0.09
   3  -4   0    0.29    0.09
   2  -4   0    0.13    0.13
   2  -4   0    0.03    0.10
   2  -4   0    0.38    0.10
   1  -4   0   22.83    0.73
   0  -4   0    6.51    0.33
   0  -4   0    6.56    0.37
   0  -4   0    5.97    0.33
  -1  -4   0   22.61    0.75
  -1  -4   0   24.13    0.82
  -1  -4   0   22.77    0.81
  -2  -4   0    1.25    0.23
  -2  -4   0    0.94    0.17
  -2  -4   0    0.63    0.20
  -2  -4   0    0.91    0.22
   2   4   0    0.73    0.16
  -3  -4   0   15.15    0.60
  -3  -4   0   15.05    0.71
  -3  -4   0   16.40    0.71
  -3  -4   0   16.07    0.69
   3   4   0   15.83    0.61
  -4  -4   0    0.15    0.15
  -4  -4   0   -0.10    0.17
  -4  -4   0    0.20    0.23
  -4  -4   0    0.18    0.19
   4   4   0    0.00    0.16
  -5  -4   0    6.53    0.63
  -5  -4   0    7.03    0.54
  -5  -4   0    7.02    0.47
  -5  -4   0    7.14    0.53
  -6  -4   0   -0.09    0.18
  -6  -4   0   -0.11    0.26
  -6  -4   0   -0.07    0.24
  -7  -4   0    0.63    0.35
  -7  -4   0    0.28    0.25
  11  -5   0    0.09    0.34
  11  -5   0   -0.07    0.48
  10  -5   0    4.90    0.59
  10  -5   0    4.79    0.58
   9  -5   0    0.75    0.34
   9  -5   0    1.36    0.36
   8  -5   0    5.80    0.56
   8  -5   0    6.26    0.56
   7  -5   0   18.40    0.81
   6  -5   0    4.70    0.44
   5  -5   0   10.51    0.47
   5  -5   0   10.17    0.52
   4  -5   0    3.71    0.33
   4  -5   0    3.94    0.21
   4  -5   0    4.57    0.21
   3  -5   0   27.19    0.80
   3  -5   0   26.68    0.88
   3  -5   0   27.40    0.79
   2  -5   0    0.24    0.12
   2  -5   0    0.14    0.11
   1  -5   0    4.41    0.31
   1  -5   0    4.46    0.30
   1  -5   0    4.10    0.29
   0  -5   0   23.71    0.81
   0  -5   0   23.73    0.83
   0  -5   0   25.71    0.86
   0  -5   0   23.90    0.84
  -1  -5   0   21.97    0.82
  -1  -5   0   21.45    0.76
  -1  -5   0   20.89    0.81
  -1  -5   0   21.33    0.80
  -2  -5   0    2.22    0.26
  -2  -5   0    3.06    0.38
  -2  -5   0    2.63    0.33
  -2  -5   0    1.81    0.28
  -3  -5   0    3.29    0.38
  -3  -5   0    3.48    0.33
  -3  -5   0    3.30    0.38
  -3  -5   0    4.20    0.48
   3   5   0    3.28    0.32
  -4  -5   0   22.32    0.85
  -4  -5   0   23.82    1.02
  -4  -5   0   22.00    0.94
  -5  -5   0    0.04    0.25
  -5  -5   0    0.20    0.20
  -5  -5   0    0.18    0.26
  -6  -5   0    2.54    0.43
  -6  -5   0    2.28    0.47
  -7  -5   0    0.08    0.36
  -7  -5   0   -0.66    0.23
  10  -6   0    8.75    0.74
  10  -6   0    7.32    0.66
   9  -6   0   -0.20    0.30
   9  -6   0    0.14    0.30
   8  -6   0    0.73    0.27
   8  -6   0    0.89    0.33
   7  -6   0    9.05    0.60
   6  -6   0    1.82    0.30
   5  -6   0   13.39    0.63
   5  -6   0   13.63    0.42
   5  -6   0   13.30    0.57
   5  -6   0   12.91    0.43
   4  -6   0   18.83    0.61
   4  -6   0   19.39    0.75
   4  -6   0   19.24    0.63
   3  -6   0    2.80    0.30
   3  -6   0    3.77    0.27
   3  -6   0    3.27    0.25
   2  -6   0    7.89    0.40
   2  -6   0    8.22    0.42
   1  -6   0   12.76    0.58
   1  -6   0   12.97    0.57
   1  -6   0   13.53    0.59
   1  -6   0   12.91    0.58
   0  -6   0    0.27    0.16
   0  -6   0   -0.14    0.14
   0  -6   0    0.46    0.19
   0  -6   0   -0.06    0.14
  -1  -6   0   37.01    1.17
  -1  -6   0   36.57    1.26
  -1  -6   0   37.76    1.24
  -1  -6   0   35.90    1.25
  -2  -6   0    2.41    0.37
  -2  -6   0    3.30    0.40
  -2  -6   0    2.96    0.23
  -2  -6   0    3.50    0.35
  -2  -6   0    3.53    0.45
  -3  -6   0    0.18    0.24
  -3  -6   0    0.43    0.25
  -3  -6   0    0.06    0.15
  -4  -6   0    0.79    0.33
  -4  -6   0    0.75    0.32
  -4  -6   0    0.71    0.22
  -5  -6   0    1.40    0.39
  -5  -6   0    1.61    0.40
  -6  -6   0    1.69    0.44
  -6  -6   0    2.45    0.53
  10  -7   0    0.27    0.32
  10  -7   0   -0.02    0.32
   9  -7   0    1.42    0.43
   9  -7   0    1.43    0.38
   8  -7   0    3.04    0.43
   7  -7   0    0.39    0.27
   6  -7   0    3.63    0.18
   6  -7   0    3.77    0.18
   6  -7   0    3.33    0.40
   5  -7   0    0.27    0.12
   5  -7   0    0.55    0.22
   5  -7   0    0.41    0.12
   4  -7   0    1.46    0.21
   4  -7   0    1.58    0.21
   4  -7   0    1.69    0.30
   3  -7   0    3.42    0.31
   3  -7   0    2.80    0.35
   3  -7   0    2.66    0.30
   2  -7   0   14.62    0.64
   2  -7   0   15.02    0.65
   2  -7   0   15.73    0.67
   1  -7   0   -0.06    0.16
   1  -7   0    0.26    0.18
   1  -7   0   -0.15    0.15
   1  -7   0    0.20    0.18
   0  -7   0    1.25    0.27
   0  -7   0    1.00    0.24
   0  -7   0    1.31    0.28
   0  -7   0    1.43    0.27
  -1  -7   0    2.68    0.34
  -1  -7   0    3.22    0.47
  -1  -7   0    3.36    0.43
  -1  -7   0    2.62    0.38
  -2  -7   0    3.65    0.47
  -2  -7   0    3.61    0.47
  -2  -7   0    3.58    0.38
  -3  -7   0    5.41    0.57
  -3  -7   0    5.64    0.63
  -3  -7   0    5.33    0.61
  -4  -7   0    1.67    0.41
  -4  -7   0    2.53    0.48
  -5  -7   0    0.23    0.29
  -5  -7   0   -0.07    0.34
  10  -8   0    1.51    0.68
  10  -8   0    1.49    0.50
   9  -8   0    3.96    0.54
   9  -8   0    5.07    0.67
   8  -8   0   23.24    1.07
   7  -8   0    3.17    0.43
   6  -8   0   36.67    1.30
   5  -8   0    3.78    0.29
   5  -8   0    3.53    0.27
   5  -8   0    2.98    0.38
   4  -8   0   14.05    0.69
   4  -8   0   14.80    0.62
   4  -8   0   14.03    0.59
   3  -8   0    8.12    0.46
   3  -8   0    7.67    0.46
   3  -8   0    8.12    0.49
   3  -8   0    7.71    0.51
   2  -8   0   11.86    0.63
   2  -8   0   13.48    0.66
   2  -8   0   12.79    0.66
   2  -8   0   14.22    0.67
   1  -8   0    3.70    0.40
   1  -8   0    3.67    0.41
   1  -8   0    3.59    0.40
   1  -8   0    4.09    0.44
   0  -8   0   -0.21    0.22
   0  -8   0    0.13    0.22
   0  -8   0    0.04    0.18
  -1  -8   0    4.72    0.51
  -1  -8   0    5.66    0.59
  -1  -8   0    5.53    0.45
  -2  -8   0    1.70    0.37
  -2  -8   0    1.69    0.39
  -3  -8   0    2.78    0.50
  -3  -8   0    2.52    0.49
   9  -9   0    6.93    0.75
   9  -9   0    6.10    0.65
   8  -9   0   -0.13    0.36
   8  -9   0    0.17    0.31
   7  -9   0    0.74    0.31
   6  -9   0    0.32    0.26
   5  -9   0   19.82    0.88
   5  -9   0   19.14    0.72
   4  -9   0    0.33    0.17
   4  -9   0    0.18    0.21
   4  -9   0    0.51    0.21
   4  -9   0    0.18    0.17
   3  -9   0    0.16    0.18
   3  -9   0    0.44    0.23
   3  -9   0    0.08    0.19
   3  -9   0    0.49    0.24
   2  -9   0    6.45    0.82
   2  -9   0    4.33    0.46
   2  -9   0    4.77    0.49
   2  -9   0    4.33    0.48
   1  -9   0    1.64    0.34
   1  -9   0    2.01    0.38
   1  -9   0    2.41    0.38
   0  -9   0    5.61    0.58
   0  -9   0    5.70    0.60
   0  -9   0    6.25    0.70
  -1  -9   0    0.12    0.24
  -1  -9   0    0.18    0.27
  -2  -9   0    1.15    0.38
  -2  -9   0    1.30    0.39
   8 -10   0   -0.37    0.49
   8 -10   0    0.21    0.29
   7 -10   0    0.21    0.31
   7 -10   0    0.38    0.39
   6 -10   0    2.75    0.44
   5 -10   0    0.58    0.28
   4 -10   0    2.27    0.37
   4 -10   0    2.17    0.39
   4 -10   0    2.16    0.32
   3 -10   0    0.11    0.22
   3 -10   0    0.00    0.21
   3 -10   0   -0.03    0.23
   3 -10   0    0.59    0.23
   2 -10   0    0.17    0.23
   2 -10   0   -0.06    0.20
   2 -10   0   -0.01    0.22
   2 -10   0    0.08    0.23
   1 -10   0    0.05    0.26
   1 -10   0    0.13    0.24
   0 -10   0    1.18    0.38
   0 -10   0    1.33    0.37
   4 -11   0   -0.09    0.25
   4 -11   0    0.12    0.26
   4 -11   0   -0.08    0.27
   3 -11   1    1.88    0.35
   3 -11   1    2.34    0.43
   3 -11   1    1.89    0.37
   3 -11   1    3.20    0.48
   3 -11   1    2.57    0.45
   4 -11   1    2.79    0.41
   4 -11   1    2.79    0.48
   4 -11   1    3.43    0.51
   4 -11   1    3.60    0.66
   5 -11   1    0.06    0.27
   5 -11   1   -0.59    0.29
   6 -11   1    3.12    0.45
   0 -10   1    1.24    0.36
   0 -10   1    0.85    0.35
   1 -10   1    0.63    0.29
   1 -10   1    0.41    0.26
   1 -10   1    0.78    0.29
   2 -10   1    0.00    0.21
   2 -10   1    0.25    0.24
   2 -10   1    0.11    0.23
   2 -10   1    0.02    0.21
   2 -10   1    0.36    0.25
   3 -10   1    0.36    0.23
   3 -10   1    0.54    0.29
   3 -10   1    0.34    0.24
   3 -10   1    0.11    0.22
   3 -10   1    0.47    0.27
   4 -10   1   -0.25    0.15
   4 -10   1   -0.04    0.25
   4 -10   1    0.09    0.22
   4 -10   1   -0.28    0.21
   5 -10   1    1.07    0.31
   5 -10   1    0.87    0.36
   6 -10   1    3.24    0.46
   6 -10   1    1.94    0.47
   7 -10   1    0.16    0.29
   7 -10   1   -0.15    0.30
   8 -10   1    0.51    0.35
   8 -10   1   -0.21    0.37
  -2  -9   1    4.90    0.63
  -2  -9   1    5.01    0.61
  -1  -9   1   -0.32    0.21
  -1  -9   1   -0.53    0.24
   0  -9   1    0.14    0.18
   0  -9   1    0.24    0.25
   0  -9   1    0.16    0.23
   0  -9   1    0.23    0.27
   1  -9   1    0.67    0.27
   1  -9   1    0.91    0.28
   1  -9   1    0.13    0.20
   1  -9   1    0.50    0.25
   2  -9   1   22.98    0.99
   2  -9   1   23.85    0.97
   2  -9   1   24.69    0.94
   2  -9   1   26.09    1.07
   2  -9   1   23.18    0.98
   2  -9   1   24.88    1.02
   3  -9   1   -0.11    0.16
   3  -9   1    0.06    0.15
   3  -9   1    0.35    0.25
   3  -9   1    0.40    0.22
   3  -9   1    0.15    0.21
   4  -9   1    1.03    0.23
   4  -9   1    0.86    0.28
   4  -9   1    0.92    0.23
   4  -9   1    1.26    0.36
   5  -9   1    1.19    0.32
   5  -9   1    1.08    0.21
   5  -9   1    0.43    0.33
   6  -9   1    0.64    0.36
   6  -9   1    0.45    0.30
   7  -9   1   -0.16    0.24
   7  -9   1   -0.10    0.32
   8  -9   1    5.06    0.58
   8  -9   1    3.36    0.59
   9  -9   1    2.57    0.48
   9  -9   1    2.31    0.54
  -4  -8   1    0.09    0.39
  -4  -8   1   -0.54    0.24
  -3  -8   1    5.37    0.62
  -3  -8   1    5.14    0.59
  -2  -8   1    5.93    0.48
  -2  -8   1    5.47    0.63
  -2  -8   1    5.97    0.61
  -1  -8   1    1.81    0.33
  -1  -8   1    1.72    0.32
  -1  -8   1    1.81    0.34
  -1  -8   1    1.80    0.36
   0  -8   1    5.58    0.48
   0  -8   1    6.24    0.43
   0  -8   1    5.97    0.53
   0  -8   1    6.42    0.53
   1  -8   1   -0.04    0.16
   1  -8   1   -0.10    0.19
   1  -8   1    0.02    0.16
   1  -8   1    0.16    0.19
   1  -8   1    0.02    0.15
   2  -8   1   42.52    1.38
   2  -8   1   43.29    1.35
   2  -8   1   41.31    1.42
   2  -8   1   41.89    1.39
   3  -8   1   -0.19    0.17
   3  -8   1   -0.04    0.14
   3  -8   1   -0.22    0.13
   4  -8   1    2.55    0.34
   4  -8   1    1.49    0.24
   4  -8   1    1.75    0.24
   5  -8   1    0.42    0.21
   5  -8   1    0.56    0.15
   5  -8   1    0.69    0.16
   6  -8   1   29.23    1.12
   6  -8   1   28.71    1.23
   7  -8   1    5.61    0.56
   7  -8   1    4.17    0.55
   8  -8   1    1.03    0.32
   8  -8   1    1.29    0.40
   9  -8   1    2.69    0.54
   9  -8   1    2.54    0.47
  10  -8   1   -0.07    0.36
  10  -8   1   -0.04    0.37
  -5  -7   1   -0.09    0.34
  -5  -7   1    0.22    0.30
  -4  -7   1    3.31    0.56
  -4  -7   1    2.10    0.43
  -3  -7   1    0.76    0.29
  -3  -7   1    0.97    0.35
  -3  -7   1    1.30    0.27
  -2  -7   1    0.85    0.24
  -2  -7   1    0.78    0.33
  -2  -7   1    0.70    0.27
  -1  -7   1    0.42    0.15
  -1  -7   1    0.33    0.24
  -1  -7   1    0.22    0.23
  -1  -7   1    0.38    0.23
  -1  -7   1    0.33    0.20
   0  -7   1    1.10    0.25
   0  -7   1    1.03    0.22
   0  -7   1    0.45    0.23
   0  -7   1    0.95    0.24
   0  -7   1    0.60    0.23
   1  -7   1    0.46    0.19
   1  -7   1    0.45    0.20
   1  -7   1    0.09    0.17
   1  -7   1    0.21    0.19
   2  -7   1    0.05    0.15
   2  -7   1   -0.17    0.15
   3  -7   1   20.64    0.78
   3  -7   1   20.35    0.73
   3  -7   1   20.64    0.75
   4  -7   1    3.89    0.29
   4  -7   1    2.97    0.33
   4  -7   1    4.08    0.28
   5  -7   1   20.88    0.66
   5  -7   1   21.49    0.67
   5  -7   1   22.10    0.86
   6  -7   1   -0.12    0.21
   6  -7   1    0.11    0.07
   6  -7   1    0.01    0.07
   7  -7   1    2.87    0.42
   7  -7   1    2.84    0.48
   8  -7   1    0.57    0.32
   8  -7   1    1.25    0.36
   9  -7   1    0.17    0.29
   9  -7   1    0.36    0.31
  10  -7   1    2.10    0.42
  10  -7   1    2.33    0.49
  -6  -6   1    0.75    0.35
  -6  -6   1    1.53    0.48
  -5  -6   1    0.94    0.33
  -5  -6   1    0.47    0.23
  -5  -6   1    0.66    0.37
  -4  -6   1    7.16    0.70
  -4  -6   1    6.34    0.47
  -4  -6   1    6.02    0.59
  -3  -6   1    3.09    0.39
  -3  -6   1    3.16    0.43
  -3  -6   1    3.38    0.37
  -2  -6   1    0.51    0.23
  -2  -6   1    0.47    0.23
  -2  -6   1    0.72    0.14
  -2  -6   1    0.93    0.24
  -2  -6   1    1.18    0.30
  -1  -6   1   13.12    0.62
  -1  -6   1   13.70    0.53
  -1  -6   1   13.14    0.67
  -1  -6   1   13.26    0.65
   0  -6   1    1.00    0.22
   0  -6   1    1.33    0.24
   0  -6   1    1.55    0.27
   1  -6   1    0.09    0.15
   1  -6   1    0.15    0.15
   1  -6   1    0.30    0.16
   2  -6   1   27.54    0.90
   2  -6   1   26.89    0.88
   3  -6   1    5.97    0.33
   3  -6   1    4.81    0.35
   4  -6   1   37.47    1.20
   4  -6   1   40.11    1.09
   4  -6   1   39.43    1.07
   5  -6   1    1.61    0.27
   5  -6   1    2.02    0.16
   5  -6   1    1.73    0.14
   6  -6   1    1.48    0.30
   7  -6   1    1.75    0.35
   7  -6   1    1.89    0.34
   8  -6   1    8.31    0.62
   8  -6   1    8.15    0.63
   9  -6   1    0.31    0.28
   9  -6   1    1.58    0.41
  10  -6   1    0.75    0.35
  10  -6   1    0.41    0.32
  -7  -5   1    0.51    0.37
  -7  -5   1    1.42    0.38
  -6  -5   1   -0.40    0.24
  -6  -5   1    0.19    0.23
  -6  -5   1   -0.16    0.29
  -5  -5   1    1.79    0.44
  -5  -5   1    1.94    0.32
  -5  -5   1    1.38    0.34
  -4  -5   1   36.37    1.36
  -4  -5   1   36.25    1.22
  -4  -5   1   37.24    1.34
  -4  -5   1   36.77    1.30
  -3  -5   1    0.63    0.19
  -3  -5   1    0.32    0.20
  -3  -5   1    0.19    0.22
  -2  -5   1   13.65    0.45
  -2  -5   1   14.92    0.68
  -2  -5   1   14.45    0.62
  -2  -5   1   13.53    0.66
  -1  -5   1    4.60    0.34
  -1  -5   1    4.16    0.35
  -1  -5   1    4.68    0.41
  -1  -5   1    4.95    0.28
   0  -5   1    8.51    0.45
   0  -5   1    8.95    0.47
   0  -5   1    9.45    0.46
   1  -5   1   43.83    1.27
   2  -5   1    6.93    0.34
   2  -5   1    6.84    0.36
   3  -5   1   35.49    1.06
   3  -5   1   35.09    0.99
   4  -5   1   29.90    0.96
   4  -5   1   29.61    0.80
   4  -5   1   29.93    0.81
   5  -5   1   37.72    1.22
   5  -5   1   41.71    1.24
   6  -5   1    0.27    0.24
   6  -5   1    0.09    0.20
   7  -5   1   67.95    2.00
   7  -5   1   68.85    2.08
   8  -5   1    0.27    0.28
   8  -5   1    0.21    0.26
   9  -5   1    6.63    0.60
   9  -5   1    6.32    0.62
  10  -5   1   -0.14    0.29
  10  -5   1    0.45    0.33
  11  -5   1    0.34    0.37
  -8  -4   1    0.42    0.30
  -8  -4   1    0.89    0.69
  -7  -4   1    1.09    0.33
  -7  -4   1    1.35    0.41
  -7  -4   1    0.75    0.30
  -6  -4   1    1.39    0.39
  -6  -4   1    0.71    0.29
  -6  -4   1    0.87    0.26
  -5  -4   1   12.17    0.64
  -5  -4   1   13.15    0.70
  -5  -4   1   12.54    0.73
  -5  -4   1   14.01    0.70
  -4  -4   1   19.34    0.87
  -4  -4   1   20.44    0.84
  -4  -4   1   20.15    0.79
   3   4  -1   11.09    0.52
  -3  -4   1   10.76    0.51
  -3  -4   1   11.38    0.57
  -3  -4   1   11.12    0.48
  -3  -4   1   10.18    0.57
   2   4  -1    1.81    0.24
  -2  -4   1    1.56    0.28
  -2  -4   1    1.95    0.14
  -2  -4   1    2.08    0.25
  -2  -4   1    1.50    0.24
  -2  -4   1    1.75    0.21
  -1  -4   1   31.90    0.87
  -1  -4   1   29.25    0.96
  -1  -4   1   30.94    1.00
  -1  -4   1   31.73    1.00
   0  -4   1   19.98    0.69
   0  -4   1   19.60    0.68
   0  -4   1   19.13    0.68
   1  -4   1    8.68    0.38
   2  -4   1   31.77    0.90
   2  -4   1   32.54    0.94
   3  -4   1   16.07    0.48
   3  -4   1   16.18    0.58
  -4   4  -1    1.06    0.20
   4  -4   1    0.77    0.18
   4  -4   1    0.97    0.08
   4  -4   1    0.91    0.08
   4  -4   1    0.65    0.17
   5  -4   1    0.62    0.17
   5  -4   1    1.28    0.22
   6  -4   1    8.68    0.49
   6  -4   1    8.76    0.54
   7  -4   1   12.59    0.68
   7  -4   1   13.53    0.64
   8  -4   1   -0.33    0.21
   8  -4   1    0.00    0.24
   9  -4   1    3.53    0.46
   9  -4   1    3.43    0.45
  10  -4   1    0.46    0.31
  10  -4   1    0.29    0.31
  11  -4   1    0.51    0.35
  -8  -3   1    1.40    0.44
  -8  -3   1    1.32    0.33
  -7  -3   1    3.37    0.53
  -7  -3   1    2.77    0.42
  -7  -3   1    3.12    0.41
  -6  -3   1   13.43    0.68
  -6  -3   1   13.04    0.68
  -6  -3   1   12.52    0.74
  -6  -3   1   12.99    0.66
  -5  -3   1    1.14    0.28
  -5  -3   1    1.05    0.26
  -5  -3   1    0.68    0.22
  -5  -3   1    1.02    0.24
   4   3  -1    4.33    0.37
  -4  -3   1    4.46    0.35
  -4  -3   1    4.92    0.42
  -4  -3   1    4.99    0.46
   3   3  -1    9.05    0.47
  -3  -3   1    8.11    0.43
  -3  -3   1    8.03    0.46
  -3  -3   1    9.12    0.49
  -3  -3   1    8.64    0.38
   2   3  -1  103.16    2.73
   2   3  -1  105.51    2.70
  -2  -3   1  102.78    2.74
  -2  -3   1  110.13    2.63
  -2  -3   1  103.83    2.71
  -2  -3   1  105.70    2.70
   1   3  -1    1.35    0.20
  -1  -3   1    1.59    0.14
  -1  -3   1    1.25    0.22
  -1  -3   1    1.17    0.21
  -1  -3   1    1.70    0.21
   0  -3   1    7.16    0.34
  -2   3  -1    0.58    0.12
   2  -3   1    0.50    0.13
  -3   3  -1  129.09    3.13
   3  -3   1  126.98    2.99
   3  -3   1  122.85    3.13
  -4   3  -1    2.63    0.25
   4  -3   1    2.32    0.24
   4  -3   1    2.30    0.26
   5  -3   1    2.85    0.29
   5  -3   1    3.35    0.33
   5  -3   1    2.88    0.29
  -6   3  -1   61.89    1.78
   6  -3   1   59.20    1.72
   6  -3   1   60.26    1.76
  -7   3  -1    1.01    0.11
  -7   3  -1    0.89    0.29
  -7   3  -1    0.99    0.11
   7  -3   1    0.97    0.26
   7  -3   1    0.36    0.22
  -8   3  -1   -0.34    0.21
   8  -3   1   -0.34    0.19
   8  -3   1   -0.05    0.21
  -9   3  -1    2.74    0.47
   9  -3   1    2.70    0.43
   9  -3   1    3.13    0.41
 -10   3  -1    9.88    0.74
  10  -3   1   10.10    0.68
  10  -3   1    9.73    0.71
  -9  -2   1    4.52    0.49
  -9  -2   1    4.21    0.62
  -8  -2   1    1.34    0.30
  -8  -2   1    1.03    0.38
   7   2  -1    0.92    0.27
  -7  -2   1    1.09    0.36
  -7  -2   1    0.99    0.27
  -7  -2   1    1.05    0.28
   6   2  -1    0.33    0.18
  -6  -2   1    0.41    0.24
  -6  -2   1   -0.12    0.18
  -6  -2   1   -0.01    0.18
  -6  -2   1   -0.16    0.16
   5   2  -1   12.54    0.54
  -5  -2   1   12.08    0.56
  -5  -2   1   11.92    0.62
  -5  -2   1   11.07    0.58
   4   2  -1   22.84    0.75
   4   2  -1   23.64    0.84
  -4  -2   1   21.89    0.84
  -4  -2   1   23.39    0.81
  -4  -2   1   23.30    0.74
  -4  -2   1   21.37    0.80
   3   2  -1   15.84    0.63
   3   2  -1   16.96    0.63
  -3  -2   1   15.82    0.59
  -3  -2   1   15.55    0.63
  -3  -2   1   14.89    0.53
  -3  -2   1   16.12    0.60
   2   2  -1   70.48    1.90
  -2  -2   1   70.66    1.91
  -2  -2   1   74.88    1.82
  -2  -2   1   76.27    1.90
  -2  -2   1   70.38    1.89
   1   2  -1    6.17    0.31
   1   2  -1    6.05    0.30
  -1  -2   1    5.98    0.30
  -1  -2   1    6.01    0.21
  -1  -2   1    5.67    0.29
   0  -2   1   74.06    1.85
   0  -2   1   72.18    1.80
  -1   2  -1    2.60    0.16
   1  -2   1    2.67    0.22
   1  -2   1    2.83    0.17
  -2   2  -1   43.43    1.13
   2  -2   1   43.83    1.14
   2  -2   1   42.93    1.18
   2  -2   1   44.34    1.06
  -3   2  -1   16.34    0.54
  -3   2  -1   16.42    0.41
   3  -2   1   15.40    0.41
   3  -2   1   15.25    0.41
   3  -2   1   14.47    0.52
   3  -2   1   15.67    0.56
   3  -2   1   16.35    0.55
  -4   2  -1   27.36    0.89
  -4   2  -1   28.08    0.71
  -4   2  -1   28.05    0.85
  -4   2  -1   28.08    0.72
   4  -2   1   26.86    0.71
   4  -2   1   28.94    0.90
   4  -2   1   26.82    0.87
   4  -2   1   26.43    0.84
  -5   2  -1   44.45    1.40
  -5   2  -1   47.31    1.20
  -5   2  -1   47.43    1.21
   5  -2   1   51.76    1.59
   5  -2   1   45.83    1.36
   5  -2   1   48.53    1.41
   5  -2   1   46.35    1.36
  -6   2  -1   22.17    0.66
  -6   2  -1   21.76    0.85
  -6   2  -1   22.04    0.65
   6  -2   1   21.91    0.82
   6  -2   1   22.40    0.80
  -7   2  -1   25.25    0.75
  -7   2  -1   25.46    1.01
  -7   2  -1   24.37    0.75
   7  -2   1   23.67    0.91
   7  -2   1   24.95    0.91
  -8   2  -1    2.64    0.24
  -8   2  -1    2.20    0.22
  -8   2  -1    1.81    0.36
   8  -2   1    1.90    0.31
   8  -2   1    1.92    0.32
  -9   2  -1    2.56    0.46
   9  -2   1    2.12    0.39
   9  -2   1    3.27    0.40
 -10   2  -1    1.40    0.43
  10  -2   1    0.70    0.35
   9   1  -1    1.57    0.34
  -9  -1   1    0.98    0.29
  -9  -1   1    1.60    0.45
   8   1  -1    2.34    0.37
  -8  -1   1    2.58    0.35
  -8  -1   1    2.72    0.36
  -8  -1   1    2.53    0.44
   7   1  -1    0.83    0.24
  -7  -1   1    0.23    0.20
  -7  -1   1    0.30    0.21
  -7  -1   1    0.86    0.30
   6   1  -1    3.73    0.36
   6   1  -1    3.25    0.20
  -6  -1   1    3.49    0.33
  -6  -1   1    3.28    0.40
  -6  -1   1    3.22    0.32
  -6  -1   1    3.51    0.44
   5   1  -1    2.21    0.16
   5   1  -1    2.29    0.27
  -5  -1   1    2.49    0.27
  -5  -1   1    2.83    0.33
  -5  -1   1    1.96    0.29
   4   1  -1   44.63    1.30
   4   1  -1   42.18    1.08
   4   1  -1   40.85    1.19
   4   1  -1   41.46    1.29
  -4  -1   1   44.11    1.20
  -4  -1   1   43.00    1.22
  -4  -1   1   44.02    1.29
  -4  -1   1   41.47    1.28
   3   1  -1    2.95    0.26
   3   1  -1    3.29    0.24
   3   1  -1    2.67    0.26
  -3  -1   1    2.63    0.20
  -3  -1   1    2.83    0.27
  -3  -1   1    2.37    0.21
  -3  -1   1    2.51    0.25
   2   1  -1   15.69    0.54
   2   1  -1   15.87    0.41
   2   1  -1   15.22    0.47
   2   1  -1   16.76    0.55
  -2  -1   1   15.84    0.54
  -2  -1   1   15.97    0.54
  -2  -1   1   16.21    0.48
   1   1  -1  136.18    3.22
   1   1  -1  140.39    3.32
   1   1  -1  142.77    3.25
   1   1  -1  132.42    3.31
  -1  -1   1  140.56    3.25
  -1  -1   1  136.42    3.31
  -1  -1   1  138.03    3.27
  -1  -1   1  129.17    3.31
   0   1  -1   -0.67    0.09
   0   1  -1   -0.79    0.06
   0  -1   1   -0.96    0.06
   0  -1   1   -0.94    0.05
  -1   1  -1  115.57    2.77
  -1   1  -1  117.39    2.74
  -1   1  -1  114.26    2.72
   1  -1   1  115.23    2.72
   1  -1   1  115.91    2.74
   1  -1   1  113.78    2.72
   1  -1   1  111.54    2.76
  -2   1  -1   20.14    0.54
  -2   1  -1   19.92    0.58
  -2   1  -1   20.26    0.62
  -2   1  -1   20.11    0.53
   2  -1   1   19.34    0.61
   2  -1   1   19.74    0.60
   2  -1   1   20.00    0.53
   2  -1   1   20.56    0.53
   2  -1   1   19.77    0.59
  -3   1  -1   28.87    0.86
  -3   1  -1   28.33    0.76
  -3   1  -1   27.61    0.75
  -3   1  -1   29.14    0.83
   3  -1   1   29.18    0.84
   3  -1   1   27.27    0.75
   3  -1   1   28.60    0.82
   3  -1   1   28.96    0.86
  -4   1  -1   16.11    0.64
  -4   1  -1   16.26    0.52
  -4   1  -1   17.25    0.53
  -4   1  -1   18.19    0.62
   4  -1   1   17.67    0.54
   4  -1   1   18.43    0.66
   4  -1   1   16.84    0.59
   4  -1   1   16.94    0.63
   4  -1   1   17.04    0.61
  -5   1  -1    5.43    0.28
  -5   1  -1    5.75    0.29
  -5   1  -1    5.70    0.40
   5  -1   1    5.49    0.38
   5  -1   1    5.30    0.33
   5  -1   1    5.84    0.37
  -6   1  -1    0.50    0.14
  -6   1  -1    0.49    0.24
  -6   1  -1    0.90    0.16
   6  -1   1    0.03    0.14
   6  -1   1    0.21    0.17
  -7   1  -1    2.09    0.25
  -7   1  -1    2.28    0.37
  -7   1  -1    1.89    0.23
   7  -1   1    1.83    0.26
   7  -1   1    1.44    0.29
  -8   1  -1    1.26    0.36
  -8   1  -1    1.89    0.25
  -8   1  -1    1.68    0.25
   8  -1   1    1.23    0.25
   8  -1   1    1.55    0.32
  -9   1  -1    0.09    0.30
   9  -1   1    0.49    0.29
 -10   1  -1    0.22    0.35
  10  -1   1   -0.18    0.26
  10   0  -1    2.07    0.42
 -10   0   1    1.87    0.45
   9   0  -1    1.28    0.32
  -9   0   1    1.43    0.37
  -9   0   1    1.00    0.38
   8   0  -1   19.20    0.83
  -8   0   1   19.58    0.77
  -8   0   1   19.63    0.75
  -8   0   1   19.04    0.93
   7   0  -1   13.81    0.64
   7   0  -1   13.01    0.53
  -7   0   1   12.79    0.70
  -7   0   1   13.27    0.56
  -7   0   1   14.53    0.60
   6   0  -1   15.64    0.67
   6   0  -1   17.67    0.60
  -6   0   1   17.70    0.77
  -6   0   1   17.45    0.63
  -6   0   1   17.32    0.63
   5   0  -1    1.85    0.22
  -5   0   1    1.83    0.21
  -5   0   1    2.19    0.29
  -5   0   1    2.82    0.40
  -5   0   1    2.16    0.28
   4   0  -1   90.16    2.31
   4   0  -1   85.27    2.24
   4   0  -1   89.44    2.34
  -4   0   1   90.25    2.25
  -4   0   1   84.40    2.32
  -4   0   1   86.61    2.21
  -4   0   1   87.62    2.31
   3   0  -1   22.79    0.70
   3   0  -1   21.25    0.65
   3   0  -1   22.69    0.73
  -3   0   1   22.39    0.66
  -3   0   1   21.83    0.70
  -3   0   1   21.01    0.72
   2   0  -1   34.83    0.96
   2   0  -1   33.99    0.89
   2   0  -1   34.89    0.93
  -2   0   1   33.57    0.92
  -2   0   1   33.16    0.95
  -2   0   1   34.34    0.89
   1   0  -1   11.90    0.36
   1   0  -1   10.96    0.31
   1   0  -1   11.20    0.32
  -1   0   1   11.24    0.32
  -1   0   1   10.96    0.31
  -1   0  -1   30.36    0.77
  -1   0  -1   30.53    0.78
  -1   0  -1   30.90    0.78
  -1   0  -1   30.21    0.80
  -1   0  -1   30.03    0.78
   1   0   1   29.73    0.78
   1   0   1   30.10    0.78
   1   0   1   30.95    0.79
   1   0   1   30.46    0.78
   1   0   1   30.54    0.80
  -2   0  -1    9.43    0.34
  -2   0  -1    9.69    0.32
  -2   0  -1   10.20    0.36
  -2   0  -1    9.56    0.38
  -2   0  -1    9.53    0.34
   2   0   1    9.92    0.36
   2   0   1    9.57    0.38
   2   0   1    9.96    0.35
   2   0   1   10.30    0.34
   2   0   1    9.52    0.32
   2   0   1    9.95    0.37
  -3   0  -1   28.26    0.82
  -3   0  -1   28.22    0.87
  -3   0  -1   28.39    0.79
  -3   0  -1   27.03    0.80
   3   0   1   27.53    0.77
   3   0   1   27.29    0.86
   3   0   1   27.20    0.82
   3   0   1   27.68    0.80
   3   0   1   28.79    0.84
  -4   0  -1    1.12    0.17
  -4   0  -1    1.07    0.20
  -4   0  -1    1.50    0.26
  -4   0  -1    1.30    0.18
   4   0   1    0.95    0.22
   4   0   1    1.09    0.16
   4   0   1    1.21    0.19
   4   0   1    1.19    0.18
   4   0   1    1.34    0.20
  -5   0  -1   41.18    1.31
  -5   0  -1   41.72    1.18
  -5   0  -1   41.01    1.19
   5   0   1   42.13    1.27
   5   0   1   40.49    1.24
   5   0   1   41.50    1.14
  -6   0  -1    0.38    0.16
  -6   0  -1    0.24    0.20
  -6   0  -1    0.62    0.18
   6   0   1    0.33    0.14
   6   0   1    0.20    0.21
  -7   0  -1    0.74    0.31
  -7   0  -1    0.69    0.20
  -7   0  -1    0.82    0.21
   7   0   1    0.58    0.25
   7   0   1    0.98    0.19
  -8   0  -1    0.75    0.22
  -8   0  -1    0.11    0.26
  -8   0  -1    0.31    0.19
   8   0   1    0.38    0.26
  -9   0  -1    7.05    0.72
  -9   0  -1    7.75    0.55
   9   0   1    7.34    0.64
 -10   0  -1    1.12    0.39
  10   0   1    1.38    0.40
  10  -1  -1    4.62    0.52
 -10   1   1    3.84    0.54
   9  -1  -1    0.26    0.25
  -9   1   1   -0.26    0.27
   8  -1  -1   -0.13    0.21
   8  -1  -1    0.18    0.17
  -8   1   1    0.29    0.15
  -8   1   1   -0.21    0.20
  -8   1   1    0.04    0.14
   7  -1  -1    1.82    0.26
   7  -1  -1    1.58    0.27
  -7   1   1    1.85    0.22
  -7   1   1    2.25    0.36
  -7   1   1    1.94    0.22
   6  -1  -1    3.79    0.33
  -6   1   1    3.80    0.25
  -6   1   1    4.04    0.25
  -6   1   1    4.84    0.44
   5  -1  -1    5.74    0.36
   5  -1  -1    6.02    0.38
  -5   1   1    6.38    0.42
  -5   1   1    6.28    0.29
  -5   1   1    5.50    0.37
   4  -1  -1   -0.01    0.13
   4  -1  -1    0.09    0.13
   4  -1  -1    0.16    0.15
  -4   1   1    0.22    0.14
  -4   1   1    0.08    0.09
  -4   1   1    0.27    0.14
   3  -1  -1  307.94    7.18
   3  -1  -1  302.12    7.18
   3  -1  -1  287.25    7.24
  -3   1   1  304.04    7.18
  -3   1   1  306.26    7.19
   2  -1  -1   31.10    0.79
   2  -1  -1   31.19    0.86
   2  -1  -1   29.66    0.81
  -2   1   1   28.81    0.79
  -2   1   1   29.39    0.81
  -2   1   1   30.35    0.75
   1  -1  -1    2.11    0.12
   1  -1  -1    2.21    0.09
   1  -1  -1    2.07    0.11
  -1   1   1    2.21    0.13
  -1   1   1    2.08    0.13
   0  -1  -1    9.81    0.33
   0  -1  -1   10.08    0.32
   0  -1  -1   10.24    0.30
   0   1   1   10.69    0.30
   0   1   1    9.96    0.33
   0   1   1   10.17    0.33
  -1  -1  -1  112.81    2.81
  -1  -1  -1  114.10    2.86
  -1  -1  -1  117.84    2.78
  -1  -1  -1  118.60    2.85
  -1  -1  -1  121.06    2.87
   1   1   1  117.36    2.85
   1   1   1  118.80    2.86
   1   1   1  116.72    2.79
   1   1   1  117.15    2.86
   1   1   1  118.58    2.81
  -2  -1  -1   34.51    1.02
  -2  -1  -1   37.38    0.95
  -2  -1  -1   35.67    1.00
  -2  -1  -1   35.49    0.91
  -2  -1  -1   36.61    0.99
  -2  -1  -1   35.52    0.99
   2   1   1   34.75    1.02
   2   1   1   35.97    0.91
   2   1   1   34.51    0.99
   2   1   1   35.45    0.95
  -3  -1  -1    0.76    0.17
  -3  -1  -1    0.64    0.15
  -3  -1  -1    0.72    0.16
  -3  -1  -1    1.06    0.16
  -3  -1  -1    0.68    0.18
  -3  -1  -1    0.88    0.10
   3   1   1    0.99    0.16
   3   1   1    0.76    0.17
   3   1   1    0.88    0.21
   3   1   1    1.16    0.19
   3   1   1    0.78    0.11
  -4  -1  -1   48.65    1.34
  -4  -1  -1   45.79    1.31
  -4  -1  -1   46.83    1.33
  -4  -1  -1   44.21    1.39
   4   1   1   45.63    1.32
   4   1   1   46.29    1.33
   4   1   1   45.83    1.19
  -5  -1  -1   12.03    0.54
  -5  -1  -1   12.72    0.65
  -5  -1  -1   13.36    0.57
   5   1   1   13.62    0.58
   5   1   1   13.12    0.58
   5   1   1   12.81    0.43
  -6  -1  -1   29.70    1.01
  -6  -1  -1   28.83    1.12
  -6  -1  -1   28.75    0.99
   6   1   1   28.82    1.01
   6   1   1   29.75    0.83
  -7  -1  -1    8.81    0.52
  -7  -1  -1    9.22    0.54
  -7  -1  -1    9.74    0.67
   7   1   1    7.43    0.54
  -8  -1  -1    3.08    0.38
  -8  -1  -1    2.31    0.45
  -8  -1  -1    2.12    0.34
   8   1   1    3.06    0.42
  -9  -1  -1    0.93    0.31
  -9  -1  -1    1.24    0.40
   9   1   1    1.28    0.36
  10  -2  -1    0.43    0.30
 -10   2   1    0.27    0.32
   9  -2  -1    7.79    0.58
   9  -2  -1    8.71    0.55
  -9   2   1    5.91    0.61
   8  -2  -1    4.74    0.42
   8  -2  -1    4.79    0.47
  -8   2   1    4.04    0.48
  -8   2   1    4.34    0.27
  -8   2   1    4.31    0.26
   7  -2  -1    0.48    0.20
  -7   2   1    0.37    0.11
  -7   2   1    0.67    0.25
  -7   2   1    0.49    0.12
   6  -2  -1    0.31    0.17
  -6   2   1    0.49    0.10
  -6   2   1    0.47    0.20
  -6   2   1    0.35    0.10
   5  -2  -1    5.52    0.34
   5  -2  -1    5.33    0.34
  -5   2   1    5.72    0.36
  -5   2   1    5.49    0.21
   4  -2  -1   11.84    0.53
   4  -2  -1   12.35    0.46
   4  -2  -1   11.38    0.47
  -4   2   1   12.44    0.48
  -4   2   1   11.66    0.33
  -4   2   1   12.10    0.47
   3  -2  -1    0.50    0.14
   3  -2  -1    0.51    0.12
  -3   2   1    0.59    0.15
  -3   2   1    0.41    0.13
  -3   2   1    0.53    0.06
  -3   2   1    0.48    0.06
   2  -2  -1   16.75    0.47
   2  -2  -1   16.77    0.54
   2  -2  -1   17.10    0.48
   2  -2  -1   17.58    0.46
  -2   2   1   16.75    0.46
  -2   2   1   16.89    0.47
   1  -2  -1    0.34    0.09
   1  -2  -1    0.39    0.10
  -1   2   1    0.25    0.11
  -1   2   1    0.17    0.10
   0  -2  -1   59.71    1.53
   0  -2  -1   60.92    1.54
   0  -2  -1   58.98    1.50
   0   2   1   59.29    1.51
   0   2   1   59.52    1.54
  -1  -2  -1    0.22    0.12
  -1  -2  -1    0.21    0.08
  -1  -2  -1    0.10    0.08
  -1  -2  -1    0.25    0.13
  -1  -2  -1    0.31    0.13
   1   2   1    0.23    0.14
   1   2   1    0.20    0.08
   1   2   1    0.22    0.14
  -2  -2  -1    1.72    0.16
  -2  -2  -1    1.66    0.22
  -2  -2  -1    1.73    0.14
  -2  -2  -1    1.99    0.22
  -2  -2  -1    1.87    0.24
  -2  -2  -1    1.96    0.25
   2   2   1    1.77    0.23
   2   2   1    1.49    0.16
   2   2   1    1.44    0.21
  -3  -2  -1    0.28    0.17
  -3  -2  -1    0.48    0.17
  -3  -2  -1    0.57    0.14
  -3  -2  -1    0.19    0.16
  -3  -2  -1    0.57    0.15
  -3  -2  -1    0.26    0.07
   3   2   1    0.35    0.19
   3   2   1    0.75    0.18
   3   2   1    0.45    0.14
  -4  -2  -1    9.97    0.44
  -4  -2  -1    9.13    0.48
  -4  -2  -1    9.43    0.53
  -4  -2  -1    9.89    0.48
   4   2   1    9.54    0.45
  -5  -2  -1    7.69    0.52
  -5  -2  -1    7.11    0.45
  -5  -2  -1    7.16    0.46
   5   2   1    6.96    0.44
  -6  -2  -1   -0.07    0.16
  -6  -2  -1   -0.04    0.21
  -6  -2  -1   -0.03    0.17
  -7  -2  -1    2.33    0.35
  -7  -2  -1    2.98    0.48
  -7  -2  -1    3.54    0.42
  -8  -2  -1    0.69    0.28
  -8  -2  -1    0.53    0.36
  -9  -2  -1    0.11    0.33
  -9  -2  -1    0.17    0.26
  11  -3  -1    0.20    0.30
  10  -3  -1    8.09    0.62
  10  -3  -1    7.72    0.66
 -10   3   1    8.81    0.70
   9  -3  -1    0.34    0.27
   9  -3  -1    0.11    0.24
  -9   3   1    0.44    0.30
   8  -3  -1   -0.29    0.18
   8  -3  -1    0.02    0.21
  -8   3   1    0.30    0.25
   7  -3  -1   31.30    1.08
  -7   3   1   31.17    1.11
   6  -3  -1   15.29    0.67
   6  -3  -1   16.79    0.66
  -6   3   1   17.23    0.68
   5  -3  -1   29.41    0.89
   5  -3  -1   26.29    0.92
  -5   3   1   28.61    0.91
   4  -3  -1    0.07    0.10
   4  -3  -1   -0.02    0.14
  -4   3   1    0.02    0.12
   3  -3  -1  150.90    3.50
   3  -3  -1  148.62    3.49
   3  -3  -1  142.96    3.56
   3  -3  -1  145.20    3.63
  -3   3   1  146.11    3.50
   2  -3  -1    1.70    0.15
   2  -3  -1    1.53    0.15
  -2   3   1    1.71    0.16
   1  -3  -1  430.29   10.11
   1  -3  -1  427.36   10.10
   1  -3  -1  430.49   10.08
  -1   3   1  418.32   10.10
   0  -3  -1   24.77    0.75
   0  -3  -1   24.29    0.78
   0  -3  -1   26.11    0.78
   0   3   1   25.57    0.80
  -1  -3  -1   70.26    1.86
  -1  -3  -1   69.33    1.87
  -1  -3  -1   68.70    1.77
  -1  -3  -1   69.11    1.86
   1   3   1   69.71    1.88
   1   3   1   72.46    1.87
  -2  -3  -1    0.42    0.10
  -2  -3  -1    0.51    0.18
  -2  -3  -1    0.49    0.13
  -2  -3  -1    0.80    0.13
  -2  -3  -1    0.46    0.18
  -2  -3  -1    0.75    0.18
   2   3   1    0.47    0.18
   2   3   1    0.59    0.13
   2   3   1    0.56    0.17
  -3  -3  -1    0.03    0.06
  -3  -3  -1    0.15    0.10
  -3  -3  -1    0.01    0.16
  -3  -3  -1    0.09    0.18
  -3  -3  -1    0.09    0.16
   3   3   1    0.08    0.12
  -4  -3  -1   23.19    0.78
  -4  -3  -1   22.41    0.92
  -4  -3  -1   23.06    0.89
  -4  -3  -1   22.74    0.87
   4   3   1   22.96    0.80
  -5  -3  -1   -0.11    0.19
  -5  -3  -1    0.30    0.22
  -5  -3  -1    0.63    0.26
  -5  -3  -1    0.04    0.16
   5   3   1    0.24    0.19
  -6  -3  -1    1.59    0.40
  -6  -3  -1    0.76    0.25
  -6  -3  -1    1.21    0.27
  -7  -3  -1    7.51    0.73
  -7  -3  -1    8.40    0.59
  -8  -3  -1    2.18    0.38
  -8  -3  -1    2.48    0.50
  11  -4  -1    4.19    0.57
  10  -4  -1    0.42    0.31
  10  -4  -1    0.70    0.32
 -10   4   1    0.63    0.34
   9  -4  -1    3.70    0.48
   9  -4  -1    3.46    0.47
   8  -4  -1    7.82    0.55
   7  -4  -1    4.53    0.43
   6  -4  -1    3.83    0.37
   6  -4  -1    4.32    0.32
   5  -4  -1    1.44    0.24
   5  -4  -1    1.53    0.20
   4  -4  -1    6.48    0.38
   4  -4  -1    6.80    0.32
   4  -4  -1    6.87    0.24
   4  -4  -1    7.07    0.24
   3  -4  -1    1.13    0.14
   3  -4  -1    1.32    0.21
   3  -4  -1    1.15    0.14
  -3   4   1    0.96    0.14
   2  -4  -1    0.25    0.11
   2  -4  -1    0.24    0.11
  -2   4   1    0.23    0.13
   1  -4  -1   14.56    0.54
   1  -4  -1   15.09    0.52
   1  -4  -1   13.95    0.53
  -1   4   1   14.31    0.55
   0  -4  -1   37.99    1.14
   0  -4  -1   36.79    1.10
   0  -4  -1   38.54    1.07
   0  -4  -1   37.06    1.12
   0   4   1   37.00    1.13
  -1  -4  -1    1.68    0.24
  -1  -4  -1    1.51    0.23
  -1  -4  -1    1.73    0.19
  -1  -4  -1    2.02    0.25
   1   4   1    1.83    0.26
   1   4   1    1.57    0.25
  -2  -4  -1    5.66    0.39
  -2  -4  -1    5.87    0.30
  -2  -4  -1    5.50    0.39
  -2  -4  -1    5.89    0.27
  -2  -4  -1    6.74    0.42
  -3  -4  -1    0.82    0.23
  -3  -4  -1    0.72    0.16
  -3  -4  -1    0.69    0.23
  -3  -4  -1    0.78    0.11
  -3  -4  -1    0.59    0.22
   3   4   1    0.51    0.16
  -4  -4  -1   20.31    0.76
  -4  -4  -1   23.26    0.95
  -4  -4  -1   20.47    0.88
  -4  -4  -1   21.08    0.87
   4   4   1   21.67    0.76
  -5  -4  -1    0.19    0.17
  -5  -4  -1    0.27    0.25
  -5  -4  -1    0.16    0.24
  -6  -4  -1    3.00    0.49
  -6  -4  -1    3.46    0.46
  -7  -4  -1    1.20    0.40
  -7  -4  -1    1.13    0.36
  11  -5  -1    0.06    0.35
  11  -5  -1    0.30    0.35
  10  -5  -1    8.63    0.75
  10  -5  -1    8.60    0.71
   9  -5  -1    0.79    0.29
   9  -5  -1    1.41    0.38
   8  -5  -1    3.44    0.40
   7  -5  -1    3.12    0.40
   6  -5  -1    9.61    0.46
   6  -5  -1    9.54    0.53
   5  -5  -1    5.55    0.33
   5  -5  -1    5.88    0.21
   5  -5  -1    6.30    0.41
   5  -5  -1    5.58    0.20
   4  -5  -1    1.97    0.17
   4  -5  -1    2.17    0.27
   4  -5  -1    1.78    0.17
   3  -5  -1   29.45    0.97
   3  -5  -1   31.14    0.90
   3  -5  -1   30.68    0.88
   2  -5  -1   -0.09    0.10
   2  -5  -1    0.00    0.10
   1  -5  -1   24.11    0.78
   1  -5  -1   23.21    0.80
   1  -5  -1   23.48    0.81
   0  -5  -1   19.31    0.72
   0  -5  -1   20.50    0.76
   0  -5  -1   19.07    0.67
   0  -5  -1   19.43    0.74
  -1  -5  -1    9.25    0.50
  -1  -5  -1    9.15    0.50
  -1  -5  -1    9.60    0.51
  -1  -5  -1    9.12    0.42
  -2  -5  -1    3.54    0.40
  -2  -5  -1    3.85    0.41
  -2  -5  -1    2.94    0.38
  -2  -5  -1    3.39    0.26
  -2  -5  -1    3.75    0.24
  -3  -5  -1    2.41    0.34
  -3  -5  -1    2.69    0.27
  -3  -5  -1    2.27    0.34
  -3  -5  -1    2.90    0.41
  -3  -5  -1    2.70    0.18
  -4  -5  -1    5.55    0.55
  -4  -5  -1    6.00    0.38
  -4  -5  -1    6.39    0.58
  -5  -5  -1    1.69    0.41
  -5  -5  -1    1.52    0.36
  -6  -5  -1    1.67    0.37
  -6  -5  -1    2.30    0.52
  10  -6  -1    3.35    0.52
  10  -6  -1    3.24    0.48
   9  -6  -1    1.16    0.35
   8  -6  -1    1.38    0.35
   7  -6  -1   21.46    0.90
   6  -6  -1    7.02    0.48
   6  -6  -1    6.61    0.38
   5  -6  -1   11.49    0.40
   5  -6  -1   11.39    0.39
   5  -6  -1   10.72    0.48
   5  -6  -1   11.02    0.57
   4  -6  -1    2.36    0.31
   4  -6  -1    2.77    0.23
   4  -6  -1    2.09    0.21
   3  -6  -1    8.22    0.46
   3  -6  -1    8.88    0.41
   3  -6  -1    9.51    0.43
   2  -6  -1   49.61    1.42
   2  -6  -1   49.27    1.43
   2  -6  -1   50.09    1.45
   1  -6  -1    0.09    0.14
   1  -6  -1    0.08    0.15
   1  -6  -1    0.24    0.16
   0  -6  -1    7.41    0.41
   0  -6  -1    7.08    0.46
   0  -6  -1    7.50    0.46
   0  -6  -1    7.45    0.45
  -1  -6  -1   25.44    0.96
  -1  -6  -1   25.06    0.85
  -1  -6  -1   23.67    0.94
  -2  -6  -1    0.29    0.15
  -2  -6  -1    0.55    0.26
  -2  -6  -1    0.62    0.26
  -2  -6  -1    0.69    0.26
  -3  -6  -1    2.87    0.45
  -3  -6  -1    2.37    0.40
  -3  -6  -1    2.03    0.26
  -4  -6  -1    1.23    0.35
  -4  -6  -1    1.33    0.35
  -5  -6  -1    0.33    0.33
  -5  -6  -1    0.38    0.30
  -6  -6  -1    5.89    0.75
  -6  -6  -1    7.74    0.74
  10  -7  -1    0.14    0.32
  10  -7  -1    0.19    0.31
   9  -7  -1    3.26    0.48
   8  -7  -1    0.45    0.30
   7  -7  -1    0.16    0.27
   6  -7  -1    2.12    0.17
   6  -7  -1    2.05    0.16
   6  -7  -1    2.50    0.38
   5  -7  -1   14.22    0.70
   5  -7  -1   13.42    0.51
   5  -7  -1   13.19    0.49
   4  -7  -1    5.44    0.46
   4  -7  -1    5.42    0.34
   4  -7  -1    5.62    0.33
   3  -7  -1    6.34    0.39
   3  -7  -1    6.47    0.39
   3  -7  -1    6.48    0.39
   3  -7  -1    6.40    0.44
   2  -7  -1   20.18    0.79
   2  -7  -1   21.23    0.79
   2  -7  -1   20.71    0.81
   1  -7  -1    0.00    0.14
   1  -7  -1   -0.14    0.16
   1  -7  -1   -0.16    0.14
   1  -7  -1   -0.15    0.14
   0  -7  -1    2.76    0.32
   0  -7  -1    2.72    0.36
   0  -7  -1    2.43    0.34
   0  -7  -1    2.18    0.33
  -1  -7  -1    0.21    0.22
  -1  -7  -1    0.34    0.23
  -1  -7  -1    0.19    0.17
  -2  -7  -1    6.38    0.62
  -2  -7  -1    5.52    0.38
  -2  -7  -1    5.63    0.58
  -3  -7  -1    0.48    0.31
  -3  -7  -1    0.04    0.29
  -4  -7  -1    0.65    0.32
  -4  -7  -1    0.01    0.28
   9  -8  -1    3.41    0.52
   8  -8  -1    6.75    0.63
   7  -8  -1    1.91    0.40
   6  -8  -1    1.98    0.38
   5  -8  -1    1.38    0.21
   5  -8  -1    1.17    0.21
   5  -8  -1    1.10    0.29
   4  -8  -1   -0.17    0.19
   4  -8  -1    0.08    0.14
   4  -8  -1    0.10    0.16
   4  -8  -1   -0.04    0.13
   3  -8  -1   18.91    0.77
   3  -8  -1   20.11    0.78
   3  -8  -1   19.62    0.84
   3  -8  -1   19.11    0.78
   2  -8  -1    1.53    0.29
   2  -8  -1    1.90    0.31
   2  -8  -1    1.75    0.30
   2  -8  -1    1.53    0.29
   1  -8  -1    1.12    0.28
   1  -8  -1    0.90    0.25
   1  -8  -1    0.94    0.26
   1  -8  -1    1.16    0.25
   0  -8  -1    1.97    0.35
   0  -8  -1    2.56    0.39
   0  -8  -1    1.90    0.31
  -1  -8  -1    3.04    0.44
  -1  -8  -1    2.13    0.37
  -2  -8  -1    0.58    0.34
  -2  -8  -1    0.76    0.30
  -3  -8  -1    0.40    0.32
  -3  -8  -1    0.60    0.35
   9  -9  -1    8.06    0.81
   8  -9  -1    1.26    0.39
   7  -9  -1    4.52    0.51
   6  -9  -1    1.00    0.32
   5  -9  -1    7.85    0.60
   5  -9  -1    7.38    0.43
   4  -9  -1    7.68    0.59
   4  -9  -1    7.36    0.49
   4  -9  -1    7.35    0.48
   4  -9  -1    8.45    0.49
   3  -9  -1    0.48    0.21
   3  -9  -1    0.52    0.22
   3  -9  -1    0.17    0.25
   3  -9  -1    0.52    0.22
   2  -9  -1    0.29    0.22
   2  -9  -1    0.56    0.24
   2  -9  -1    0.16    0.21
   1  -9  -1    1.51    0.31
   1  -9  -1    1.83    0.34
   1  -9  -1    1.27    0.30
   0  -9  -1   14.93    0.84
   0  -9  -1   14.83    0.81
  -1  -9  -1    0.13    0.26
  -1  -9  -1    0.16    0.30
  -2  -9  -1    0.03    0.37
  -2  -9  -1    0.69    0.34
   7 -10  -1    0.24    0.29
   6 -10  -1    0.21    0.31
   5 -10  -1    0.63    0.32
   4 -10  -1    0.44    0.30
   4 -10  -1    0.30    0.21
   3 -10  -1    1.26    0.30
   3 -10  -1    1.39    0.34
   3 -10  -1    1.75    0.39
   2 -10  -1   -0.31    0.19
   2 -10  -1   -0.10    0.21
   1 -10  -1    0.35    0.28
   1 -10  -1    0.29    0.25
   2 -11   2    0.19    0.24
   2 -11   2    0.11    0.28
   2 -11   2    0.09    0.23
   2 -11   2   -0.06    0.25
   3 -11   2    0.58    0.30
   3 -11   2    0.58    0.33
   3 -11   2    0.48    0.30
   3 -11   2    0.21    0.25
   3 -11   2    0.21    0.24
   4 -11   2    3.50    0.46
   4 -11   2    4.03    0.65
   4 -11   2    2.96    0.50
   4 -11   2    3.49    0.45
   4 -11   2    3.28    0.49
   5 -11   2    3.00    0.44
   5 -11   2    3.04    0.52
   6 -11   2    1.64    0.43
   6 -11   2    2.36    0.42
  -1 -10   2    0.42    0.36
  -1 -10   2    0.48    0.35
   0 -10   2    1.19    0.33
   0 -10   2    1.78    0.41
   0 -10   2    1.23    0.39
   1 -10   2    0.23    0.25
   1 -10   2    0.13    0.21
   1 -10   2    0.65    0.31
   1 -10   2    0.04    0.22
   1 -10   2    0.22    0.28
   2 -10   2    0.10    0.21
   2 -10   2    0.24    0.25
   2 -10   2   -0.01    0.23
   2 -10   2   -0.21    0.18
   2 -10   2   -0.47    0.18
   3 -10   2    8.68    0.65
   3 -10   2    7.38    0.53
   3 -10   2    7.14    0.52
   3 -10   2    8.68    0.62
   3 -10   2    7.71    0.64
   4 -10   2   -0.13    0.20
   4 -10   2    0.25    0.19
   4 -10   2   -0.07    0.25
   5 -10   2    0.71    0.28
   5 -10   2    0.20    0.29
   6 -10   2    3.57    0.58
   6 -10   2    2.69    0.42
   7 -10   2    2.77    0.52
   7 -10   2    2.28    0.41
   8 -10   2    4.48    0.63
   8 -10   2    4.78    0.55
  -2  -9   2    4.79    0.66
  -2  -9   2    5.37    0.61
  -1  -9   2    0.57    0.33
  -1  -9   2    0.52    0.27
  -1  -9   2    0.55    0.29
   0  -9   2    4.01    0.41
   0  -9   2    3.38    0.46
   0  -9   2    4.58    0.54
   0  -9   2    3.19    0.47
   1  -9   2    2.35    0.40
   1  -9   2    1.68    0.30
   1  -9   2    1.98    0.39
   1  -9   2    1.66    0.33
   2  -9   2   19.18    0.85
   2  -9   2   21.40    0.82
   2  -9   2   21.02    0.89
   2  -9   2   19.04    0.90
   2  -9   2   19.48    0.94
   2  -9   2   20.65    0.91
   3  -9   2    4.73    0.43
   3  -9   2    5.33    0.56
   3  -9   2    4.16    0.42
   3  -9   2    4.84    0.55
   3  -9   2    5.38    0.47
   4  -9   2    0.16    0.16
   4  -9   2    0.20    0.18
   4  -9   2    0.10    0.26
   4  -9   2   -0.01    0.20
   5  -9   2    2.55    0.38
   5  -9   2    2.74    0.50
   5  -9   2    2.88    0.30
   6  -9   2    1.81    0.41
   6  -9   2    2.24    0.38
   7  -9   2    0.26    0.29
   7  -9   2    0.12    0.29
   8  -9   2    0.38    0.29
   8  -9   2    0.33    0.37
   9  -9   2    3.79    0.62
   9  -9   2    3.55    0.50
  -4  -8   2    0.00    0.28
  -4  -8   2    0.48    0.34
  -3  -8   2    0.88    0.39
  -3  -8   2    1.05    0.38
  -3  -8   2    0.83    0.28
  -2  -8   2   -0.12    0.24
  -2  -8   2   -0.25    0.18
  -2  -8   2    0.31    0.28
  -1  -8   2   12.84    0.73
  -1  -8   2   14.20    0.79
  -1  -8   2   13.47    0.59
  -1  -8   2   14.77    0.76
   0  -8   2    0.85    0.22
   0  -8   2    1.12    0.30
   0  -8   2    0.97    0.31
   1  -8   2    2.58    0.39
   1  -8   2    3.00    0.41
   1  -8   2    2.50    0.34
   1  -8   2    3.12    0.36
   2  -8   2   26.01    1.05
   2  -8   2   25.74    1.01
   2  -8   2   25.98    1.03
   2  -8   2   25.36    0.91
   2  -8   2   26.66    0.99
   3  -8   2    8.10    0.57
   3  -8   2    8.62    0.50
   3  -8   2    9.28    0.51
   4  -8   2    0.50    0.26
   4  -8   2    0.69    0.18
   4  -8   2    0.55    0.22
   4  -8   2    0.35    0.17
   5  -8   2    6.69    0.50
   5  -8   2    6.71    0.37
   5  -8   2    7.16    0.36
   5  -8   2    6.77    0.62
   6  -8   2    6.93    0.56
   6  -8   2    5.19    0.56
   7  -8   2   15.80    0.82
   7  -8   2   15.40    0.92
   8  -8   2   -0.10    0.32
   8  -8   2    0.03    0.29
   9  -8   2    0.11    0.33
   9  -8   2    0.49    0.32
  10  -8   2    1.59    0.48
  10  -8   2    1.44    0.45
  -5  -7   2    1.88    0.44
  -5  -7   2    0.90    0.43
  -4  -7   2    2.64    0.49
  -4  -7   2    2.66    0.43
  -4  -7   2    2.39    0.39
  -3  -7   2    2.77    0.44
  -3  -7   2    3.67    0.53
  -3  -7   2    2.93    0.40
  -2  -7   2    0.13    0.20
  -2  -7   2    0.06    0.26
  -1  -7   2    3.35    0.31
  -1  -7   2    3.94    0.43
  -1  -7   2    3.23    0.40
  -1  -7   2    3.07    0.42
   0  -7   2    0.82    0.24
   0  -7   2    0.86    0.27
   0  -7   2    0.67    0.27
   0  -7   2    0.94    0.21
   1  -7   2    6.27    0.46
   1  -7   2    6.19    0.43
   1  -7   2    5.23    0.42
   1  -7   2    5.57    0.41
   2  -7   2    2.22    0.27
   2  -7   2    2.32    0.32
   2  -7   2    2.08    0.28
   3  -7   2    9.93    0.59
   3  -7   2   10.31    0.51
   3  -7   2   10.47    0.50
   4  -7   2    0.15    0.21
   4  -7   2    0.32    0.19
   4  -7   2    0.08    0.12
   5  -7   2    3.09    0.24
   5  -7   2    3.33    0.45
   5  -7   2    2.71    0.22
   5  -7   2    2.81    0.36
   6  -7   2    3.80    0.19
   6  -7   2    4.13    0.42
   6  -7   2    4.42    0.50
   6  -7   2    4.13    0.19
   7  -7   2   -0.05    0.24
   7  -7   2   -0.24    0.26
   8  -7   2    3.91    0.54
   8  -7   2    4.55    0.51
   9  -7   2    1.79    0.43
   9  -7   2    3.12    0.52
  10  -7   2    5.32    0.67
  10  -7   2    5.08    0.60
  -6  -6   2    1.82    0.49
  -6  -6   2    1.74    0.38
  -5  -6   2    1.09    0.38
  -5  -6   2    1.31    0.31
  -5  -6   2    1.29    0.36
  -4  -6   2    7.62    0.63
  -4  -6   2    8.56    0.58
  -3  -6   2    3.64    0.49
  -3  -6   2    4.80    0.46
  -2  -6   2    2.82    0.37
  -2  -6   2    1.98    0.19
  -2  -6   2    2.69    0.40
  -2  -6   2    2.70    0.35
  -1  -6   2    1.83    0.30
  -1  -6   2    1.41    0.28
  -1  -6   2    2.04    0.32
  -1  -6   2    1.92    0.22
   0  -6   2   15.64    0.60
   0  -6   2   14.52    0.68
   0  -6   2   15.23    0.66
   0  -6   2   14.10    0.66
   1  -6   2    6.69    0.41
   1  -6   2    7.50    0.43
   1  -6   2    7.55    0.47
   2  -6   2    2.05    0.29
   2  -6   2    2.49    0.27
   2  -6   2    2.20    0.25
   3  -6   2    4.54    0.43
   3  -6   2    3.74    0.27
   3  -6   2    3.92    0.33
   4  -6   2    5.74    0.30
   4  -6   2    5.03    0.35
   4  -6   2    5.33    0.43
   5  -6   2    0.86    0.26
   5  -6   2    0.74    0.23
   5  -6   2    0.69    0.11
   5  -6   2    0.85    0.12
   6  -6   2    4.11    0.49
   6  -6   2    3.46    0.39
   7  -6   2    2.19    0.33
   7  -6   2    2.64    0.44
   8  -6   2    2.10    0.41
   8  -6   2    1.29    0.35
   9  -6   2    5.61    0.61
   9  -6   2    5.15    0.59
  10  -6   2   -0.10    0.32
  10  -6   2    0.29    0.35
  -7  -5   2    3.18    0.54
  -7  -5   2    2.66    0.44
  -7  -5   2    2.46    0.43
  -6  -5   2    0.95    0.30
  -6  -5   2    0.70    0.36
  -6  -5   2    0.81    0.32
  -5  -5   2   -0.14    0.23
  -5  -5   2    0.08    0.22
  -4  -5   2   24.15    1.05
  -4  -5   2   22.16    0.97
  -4  -5   2   22.10    0.92
  -3  -5   2    0.31    0.18
  -3  -5   2    0.19    0.18
  -3  -5   2    0.25    0.22
  -2  -5   2    0.94    0.17
  -2  -5   2    1.69    0.28
  -2  -5   2    1.26    0.24
  -2  -5   2    1.16    0.14
  -2  -5   2    1.80    0.33
  -1  -5   2   39.82    1.27
  -1  -5   2   37.54    1.23
  -1  -5   2   41.19    1.11
  -1  -5   2   38.91    1.26
   0  -5   2    2.89    0.32
   0  -5   2    2.66    0.25
   0  -5   2    2.76    0.33
   0  -5   2    2.96    0.30
   1  -5   2  114.50    2.91
   1  -5   2  111.76    2.96
   2  -5   2   -0.13    0.14
   2  -5   2    0.01    0.11
   3  -5   2   42.61    1.19
   3  -5   2   39.50    1.27
   4  -5   2    1.49    0.28
   4  -5   2    1.85    0.24
   5  -5   2   29.08    0.76
   5  -5   2   29.63    1.07
   5  -5   2   30.20    1.00
   5  -5   2   28.65    0.76
   5  -5   2   30.82    0.76
   6  -5   2   16.64    0.78
   6  -5   2   17.70    0.73
   7  -5   2    9.90    0.61
   7  -5   2   10.68    0.66
   8  -5   2    0.58    0.30
   8  -5   2    0.31    0.27
   9  -5   2    0.76    0.31
   9  -5   2    0.28    0.30
  10  -5   2    7.58    0.67
  10  -5   2    7.48    0.70
  -8  -4   2    0.94    0.35
  -8  -4   2    1.19    0.37
  -8  -4   2    1.05    0.40
  -7  -4   2    2.06    0.40
  -7  -4   2    1.47    0.44
  -7  -4   2    1.87    0.37
  -6  -4   2   -0.42    0.21
  -6  -4   2    0.04    0.23
  -6  -4   2   -0.13    0.26
  -5  -4   2    4.43    0.48
  -5  -4   2    5.46    0.46
  -5  -4   2    5.20    0.56
  -4  -4   2    4.25    0.47
  -4  -4   2    3.63    0.39
  -4  -4   2    3.62    0.40
  -3  -4   2    0.35    0.18
  -3  -4   2    0.98    0.21
  -3  -4   2    0.49    0.23
  -3  -4   2    0.65    0.15
   2   4  -2    4.97    0.35
  -2  -4   2    4.32    0.36
  -2  -4   2    3.52    0.33
  -2  -4   2    3.94    0.19
  -2  -4   2    4.62    0.35
  -2  -4   2    4.48    0.25
   1   4  -2    1.71    0.25
  -1  -4   2    1.52    0.24
  -1  -4   2    2.08    0.27
  -1  -4   2    1.66    0.17
   0  -4   2    4.15    0.31
   0  -4   2    4.19    0.25
   1  -4   2    6.98    0.37
   1  -4   2    7.49    0.31
   2  -4   2   58.01    1.50
   2  -4   2   55.46    1.58
  -3   4  -2    0.23    0.12
   3  -4   2    0.12    0.16
   3  -4   2    0.12    0.14
  -4   4  -2   18.75    0.66
   4  -4   2   18.17    0.53
   4  -4   2   20.43    0.72
   4  -4   2   18.24    0.74
   4  -4   2   19.40    0.53
   4  -4   2   19.13    0.68
   5  -4   2    0.18    0.17
   5  -4   2    0.34    0.20
   6  -4   2    0.84    0.25
   6  -4   2    0.77    0.24
   7  -4   2    0.89    0.27
   7  -4   2    1.16    0.29
   8  -4   2    5.11    0.51
   8  -4   2    4.44    0.47
   9  -4   2    3.77    0.46
   9  -4   2    4.40    0.51
  10  -4   2    1.89    0.39
  10  -4   2    1.80    0.40
  -8  -3   2    2.05    0.37
  -8  -3   2    2.42    0.45
  -8  -3   2    1.85    0.47
  -7  -3   2    3.28    0.51
  -7  -3   2    4.23    0.50
  -7  -3   2    4.14    0.47
  -6  -3   2   12.35    0.73
  -6  -3   2   13.50    0.69
  -6  -3   2   12.94    0.71
  -5  -3   2    4.58    0.51
  -5  -3   2    5.36    0.47
  -5  -3   2    4.47    0.45
  -4  -3   2   18.35    0.80
  -4  -3   2   19.05    0.66
  -4  -3   2   20.58    0.78
  -4  -3   2   19.90    0.78
   3   3  -2    5.18    0.38
  -3  -3   2    4.63    0.26
  -3  -3   2    4.47    0.36
  -3  -3   2    4.39    0.38
  -3  -3   2    5.17    0.36
   2   3  -2   46.23    1.36
  -2  -3   2   46.68    1.36
  -2  -3   2   47.76    1.22
  -2  -3   2   46.46    1.15
  -2  -3   2   45.22    1.37
   1   3  -2   35.71    1.07
  -1  -3   2   38.45    0.96
  -1  -3   2   35.41    1.08
  -1  -3   2   35.32    1.08
   0  -3   2   15.69    0.52
   0  -3   2   16.36    0.59
   1  -3   2   22.99    0.64
   1  -3   2   22.62    0.72
  -2   3  -2    0.43    0.11
   2  -3   2    0.36    0.12
   2  -3   2    0.28    0.15
  -3   3  -2  155.84    3.86
   3  -3   2  157.65    3.78
   3  -3   2  155.02    3.94
   3  -3   2  154.97    3.87
   3  -3   2  167.74    3.78
  -4   3  -2   28.94    0.89
   4  -3   2   28.33    0.75
   4  -3   2   28.13    0.95
   4  -3   2   30.76    0.95
   4  -3   2   28.25    0.90
   4  -3   2   29.53    0.75
  -5   3  -2    0.08    0.07
   5  -3   2   -0.02    0.17
   5  -3   2    0.09    0.07
   5  -3   2   -0.13    0.16
  -6   3  -2    6.93    0.27
  -6   3  -2    7.66    0.51
  -6   3  -2    6.99    0.28
   6  -3   2    8.04    0.48
   6  -3   2    7.21    0.46
  -7   3  -2    3.25    0.44
  -7   3  -2    3.58    0.21
  -7   3  -2    2.94    0.20
   7  -3   2    2.60    0.34
   7  -3   2    2.92    0.36
  -8   3  -2    1.89    0.40
   8  -3   2    1.57    0.31
   8  -3   2    2.61    0.36
  -9   3  -2    0.16    0.34
   9  -3   2    0.03    0.24
   9  -3   2    0.44    0.26
 -10   3  -2    3.56    0.56
  10  -3   2    4.65    0.56
  10  -3   2    3.45    0.68
  -9  -2   2    5.22    0.53
  -9  -2   2    3.41    0.55
   8   2  -2    1.24    0.30
  -8  -2   2    0.70    0.32
  -8  -2   2    1.21    0.29
   7   2  -2    4.73    0.42
  -7  -2   2    5.46    0.47
  -7  -2   2    4.62    0.45
  -7  -2   2    4.44    0.50
  -7  -2   2    5.66    0.61
   6   2  -2    0.12    0.17
  -6  -2   2   -0.12    0.15
  -6  -2   2    0.08    0.21
  -6  -2   2    0.07    0.21
   5   2  -2   16.93    0.64
  -5  -2   2   17.20    0.78
  -5  -2   2   18.24    0.77
  -5  -2   2   17.72    0.71
   4   2  -2    3.32    0.25
   4   2  -2    3.29    0.40
  -4  -2   2    3.32    0.25
  -4  -2   2    3.11    0.29
  -4  -2   2    3.72    0.37
  -4  -2   2    3.62    0.35
   3   2  -2   40.37    1.17
   3   2  -2   38.61    1.15
   3   2  -2   35.88    1.02
  -3  -2   2   37.29    1.15
  -3  -2   2   34.77    1.14
  -3  -2   2   37.16    1.02
   2   2  -2    2.47    0.13
   2   2  -2    2.43    0.25
   2   2  -2    2.37    0.24
  -2  -2   2    2.76    0.26
  -2  -2   2    3.04    0.26
  -2  -2   2    2.99    0.14
  -2  -2   2    2.68    0.17
   1   2  -2    1.59    0.13
   1   2  -2    1.53    0.21
  -1  -2   2    1.43    0.10
  -1  -2   2    1.40    0.21
  -1  -2   2    1.52    0.13
  -1  -2   2    1.26    0.18
   0   2  -2  713.78   17.18
   0   2  -2  699.67   17.04
   0  -2   2  717.44   17.32
   0  -2   2  720.61   16.84
  -1   2  -2    2.14    0.14
  -1   2  -2    2.20    0.19
   1  -2   2    2.20    0.20
   1  -2   2    2.13    0.14
  -2   2  -2    4.26    0.27
  -2   2  -2    4.70    0.23
   2  -2   2    4.05    0.20
   2  -2   2    4.33    0.19
   2  -2   2    3.83    0.29
   2  -2   2    4.22    0.23
  -3   2  -2  108.37    2.66
  -3   2  -2  109.56    2.74
  -3   2  -2  110.86    2.65
   3  -2   2  108.27    2.65
   3  -2   2  104.79    2.73
   3  -2   2  116.60    2.80
   3  -2   2  108.54    2.78
   3  -2   2  113.27    2.65
  -4   2  -2  133.44    3.48
  -4   2  -2  136.18    3.30
  -4   2  -2  138.26    3.42
  -4   2  -2  137.56    3.31
   4  -2   2  146.57    3.49
   4  -2   2  137.28    3.30
   4  -2   2  130.91    3.41
   4  -2   2  137.04    3.30
   4  -2   2  137.16    3.45
  -5   2  -2    5.43    0.42
  -5   2  -2    5.48    0.27
  -5   2  -2    5.87    0.27
   5  -2   2    5.34    0.37
   5  -2   2    5.86    0.27
   5  -2   2    5.18    0.35
  -6   2  -2   13.08    0.47
  -6   2  -2   13.63    0.68
  -6   2  -2   13.73    0.48
   6  -2   2   13.16    0.60
   6  -2   2   13.21    0.60
  -7   2  -2   42.03    1.18
  -7   2  -2   41.57    1.44
  -7   2  -2   42.33    1.19
   7  -2   2   42.84    1.33
   7  -2   2   42.01    1.37
  -8   2  -2   10.25    0.46
  -8   2  -2   11.21    0.70
  -8   2  -2   11.02    0.48
   8  -2   2   10.73    0.60
   8  -2   2   11.14    0.62
  -9   2  -2    1.11    0.37
   9  -2   2    0.93    0.28
   9  -2   2    1.15    0.31
 -10   2  -2    2.28    0.51
  10  -2   2    2.36    0.44
   9   1  -2    0.08    0.24
  -9  -1   2    0.17    0.31
  -9  -1   2    0.17    0.23
   8   1  -2    1.50    0.31
  -8  -1   2    0.71    0.30
  -8  -1   2    1.29    0.28
  -8  -1   2    1.55    0.29
   7   1  -2    4.02    0.39
   7   1  -2    4.11    0.38
  -7  -1   2    3.48    0.46
  -7  -1   2    4.57    0.41
  -7  -1   2    4.11    0.49
   6   1  -2    6.34    0.40
   6   1  -2    6.81    0.30
  -6  -1   2    6.52    0.41
  -6  -1   2    7.54    0.53
  -6  -1   2    6.55    0.50
   5   1  -2    7.86    0.41
  -5  -1   2    8.28    0.41
  -5  -1   2    8.05    0.49
  -5  -1   2    8.54    0.43
  -5  -1   2    8.22    0.49
   4   1  -2    9.44    0.48
   4   1  -2    9.27    0.39
   4   1  -2    9.49    0.46
  -4  -1   2    9.96    0.50
  -4  -1   2    9.30    0.48
  -4  -1   2   10.00    0.40
   3   1  -2    5.59    0.23
   3   1  -2    6.26    0.33
   3   1  -2    5.78    0.35
   3   1  -2    5.86    0.27
  -3  -1   2    5.39    0.34
  -3  -1   2    5.68    0.35
  -3  -1   2    5.82    0.27
   2   1  -2    2.07    0.23
   2   1  -2    2.13    0.15
   2   1  -2    2.23    0.16
   2   1  -2    2.04    0.20
  -2  -1   2    2.59    0.24
  -2  -1   2    2.30    0.23
  -2  -1   2    1.97    0.15
   1   1  -2    1.13    0.08
   1   1  -2    1.34    0.17
   1   1  -2    1.40    0.12
  -1  -1   2    1.41    0.13
  -1  -1   2    1.20    0.08
  -1  -1   2    1.53    0.17
   0   1  -2   -0.63    0.09
   0   1  -2   -0.34    0.10
   0   1  -2   -0.59    0.04
   0  -1   2   -0.49    0.04
   0  -1   2   -0.40    0.11
   0  -1   2   -0.46    0.10
  -1   1  -2   44.11    1.15
  -1   1  -2   45.78    1.12
  -1   1  -2   43.60    1.10
  -1   1  -2   43.46    1.12
   1  -1   2   43.97    1.15
   1  -1   2   44.66    1.11
   1  -1   2   44.07    1.12
   1  -1   2   44.45    1.12
  -2   1  -2   41.06    1.05
  -2   1  -2   40.87    1.13
  -2   1  -2   40.60    1.10
  -2   1  -2   40.17    1.06
  -2   1  -2   41.66    1.09
   2  -1   2   41.87    1.06
   2  -1   2   42.41    1.13
   2  -1   2   41.28    1.09
   2  -1   2   40.55    1.11
   2  -1   2   40.73    1.05
  -3   1  -2   16.89    0.56
  -3   1  -2   17.31    0.57
  -3   1  -2   16.02    0.51
  -3   1  -2   16.08    0.60
  -3   1  -2   17.03    0.51
   3  -1   2   16.51    0.56
   3  -1   2   16.69    0.60
   3  -1   2   17.27    0.52
   3  -1   2   15.31    0.55
   3  -1   2   16.44    0.51
  -4   1  -2   13.36    0.58
  -4   1  -2   14.53    0.54
  -4   1  -2   13.52    0.48
  -4   1  -2   14.41    0.49
   4  -1   2   14.42    0.54
   4  -1   2   14.44    0.49
   4  -1   2   14.39    0.55
   4  -1   2   13.66    0.47
   4  -1   2   14.48    0.59
  -5   1  -2    3.14    0.24
  -5   1  -2    3.04    0.34
  -5   1  -2    3.39    0.25
   5  -1   2    3.45    0.30
   5  -1   2    3.39    0.32
   5  -1   2    4.01    0.27
   5  -1   2    3.36    0.35
  -6   1  -2    9.51    0.55
  -6   1  -2    9.28    0.43
  -6   1  -2    9.52    0.41
   6  -1   2    9.17    0.47
   6  -1   2    9.12    0.49
  -7   1  -2    2.99    0.28
  -7   1  -2    2.16    0.26
  -7   1  -2    2.64    0.41
   7  -1   2    2.68    0.36
   7  -1   2    2.74    0.30
  -8   1  -2    1.18    0.24
  -8   1  -2    1.64    0.26
  -8   1  -2    1.21    0.36
   8  -1   2    1.60    0.27
   8  -1   2    0.84    0.28
  -9   1  -2    3.71    0.56
   9  -1   2    3.55    0.47
 -10   1  -2    0.96    0.42
  10  -1   2    0.24    0.33
  10   0  -2    0.93    0.33
 -10   0   2    1.39    0.46
   9   0  -2    1.70    0.35
  -9   0   2    2.12    0.42
   8   0  -2    1.15    0.28
  -8   0   2    1.18    0.34
  -8   0   2    1.05    0.23
  -8   0   2    1.42    0.24
   7   0  -2   27.85    0.98
   7   0  -2   28.19    0.88
  -7   0   2   27.82    1.08
  -7   0   2   27.51    0.93
   6   0  -2    8.50    0.46
  -6   0   2    8.92    0.43
  -6   0   2    8.88    0.54
  -6   0   2    8.31    0.54
   5   0  -2   28.56    0.90
  -5   0   2   28.07    1.01
  -5   0   2   29.39    0.99
  -5   0   2   29.66    0.91
   4   0  -2   21.20    0.68
   4   0  -2   21.37    0.77
   4   0  -2   22.60    0.74
  -4   0   2   19.59    0.76
  -4   0   2   21.77    0.68
  -4   0   2   21.06    0.73
   3   0  -2   71.48    1.81
   3   0  -2   69.53    1.87
   3   0  -2   69.95    1.77
  -3   0   2   72.75    1.77
  -3   0   2   67.53    1.88
  -3   0   2   69.22    1.82
   2   0  -2   12.05    0.47
   2   0  -2   12.10    0.40
   2   0  -2   12.32    0.38
  -2   0   2   11.91    0.41
  -2   0   2   12.00    0.46
  -2   0   2   12.84    0.39
   1   0  -2   18.62    0.56
   1   0  -2   19.93    0.57
  -1   0   2   19.59    0.54
  -1   0   2   18.92    0.52
  -1   0   2   18.99    0.57
   0   0  -2   30.51    0.81
   0   0  -2   31.01    0.83
   0   0  -2   30.61    0.82
   0   0  -2   31.05    0.80
   0   0   2   30.80    0.83
   0   0   2   31.58    0.82
   0   0   2   31.52    0.80
   0   0   2   30.88    0.82
  -1   0  -2    3.31    0.21
  -1   0  -2    3.63    0.20
  -1   0  -2    3.41    0.20
  -1   0  -2    3.46    0.21
  -1   0  -2    3.30    0.20
   1   0   2    3.19    0.21
   1   0   2    3.72    0.20
   1   0   2    3.70    0.21
   1   0   2    3.29    0.20
  -2   0  -2   48.74    1.27
  -2   0  -2   48.09    1.31
  -2   0  -2   48.20    1.27
  -2   0  -2   48.32    1.26
  -2   0  -2   49.07    1.25
   2   0   2   49.25    1.26
   2   0   2   45.98    1.27
   2   0   2   47.47    1.26
   2   0   2   50.12    1.32
   2   0   2   47.51    1.27
  -3   0  -2  150.48    3.83
  -3   0  -2  153.18    3.75
  -3   0  -2  155.54    3.74
  -3   0  -2  159.07    3.79
  -3   0  -2  156.53    3.77
   3   0   2  153.42    3.84
   3   0   2  158.86    3.76
   3   0   2  152.34    3.76
   3   0   2  150.28    3.74
   3   0   2  154.34    3.75
   3   0   2  148.31    3.78
  -4   0  -2    7.73    0.37
  -4   0  -2    7.78    0.34
  -4   0  -2    8.92    0.40
  -4   0  -2    8.20    0.40
  -4   0  -2    7.38    0.45
   4   0   2    8.01    0.40
   4   0   2    9.69    0.56
   4   0   2    8.71    0.37
   4   0   2    8.32    0.39
   4   0   2    8.30    0.41
  -5   0  -2   21.86    0.74
  -5   0  -2   21.30    0.84
  -5   0  -2   20.72    0.72
   5   0   2   20.40    0.68
   5   0   2   21.09    0.78
   5   0   2   20.84    0.73
   5   0   2   21.92    0.78
  -6   0  -2    0.40    0.18
  -6   0  -2    0.55    0.27
  -6   0  -2    0.25    0.16
   6   0   2    0.57    0.23
   6   0   2    0.51    0.16
  -7   0  -2    0.01    0.26
  -7   0  -2    0.44    0.19
  -7   0  -2    0.17    0.19
   7   0   2    0.36    0.17
   7   0   2    0.27    0.25
  -8   0  -2    0.97    0.24
  -8   0  -2    1.45    0.41
  -8   0  -2    1.35    0.26
   8   0   2    2.22    0.38
  -9   0  -2    6.33    0.71
  -9   0  -2    5.50    0.48
   9   0   2    6.16    0.60
  10  -1  -2    4.01    0.47
 -10   1   2    5.35    0.66
   9  -1  -2    4.13    0.46
  -9   1   2    3.85    0.52
   8  -1  -2    0.00    0.18
   8  -1  -2   -0.20    0.16
  -8   1   2    0.08    0.22
  -8   1   2   -0.19    0.13
  -8   1   2    0.14    0.14
   7  -1  -2    0.31    0.18
  -7   1   2    0.46    0.15
  -7   1   2    0.84    0.27
   6  -1  -2   26.01    0.90
  -6   1   2   27.04    0.81
  -6   1   2   26.59    0.95
   5  -1  -2   14.89    0.59
   5  -1  -2   13.92    0.56
  -5   1   2   14.60    0.56
  -5   1   2   15.25    0.60
   4  -1  -2   22.51    0.72
   4  -1  -2   23.01    0.73
   4  -1  -2   22.67    0.81
  -4   1   2   22.58    0.82
  -4   1   2   22.49    0.73
  -4   1   2   22.91    0.71
   3  -1  -2   81.30    2.03
   3  -1  -2   80.93    2.04
   3  -1  -2   82.62    2.13
  -3   1   2   81.12    1.98
  -3   1   2   78.76    2.13
  -3   1   2   80.79    2.03
  -3   1   2   82.76    2.05
   2  -1  -2   21.33    0.61
   2  -1  -2   20.77    0.66
   2  -1  -2   21.62    0.56
   2  -1  -2   21.01    0.58
  -2   1   2   21.38    0.58
  -2   1   2   21.18    0.57
  -2   1   2   21.24    0.59
  -2   1   2   20.90    0.67
   1  -1  -2   74.90    1.86
   1  -1  -2   76.20    1.87
   1  -1  -2   74.52    1.86
  -1   1   2   76.61    1.86
  -1   1   2   74.80    1.87
  -1   1   2   76.75    1.87
   0  -1  -2    0.34    0.11
   0  -1  -2    0.29    0.11
   0  -1  -2    0.37    0.12
   0  -1  -2    0.29    0.06
   0  -1  -2    0.38    0.08
   0   1   2    0.33    0.11
   0   1   2    0.31    0.12
   0   1   2    0.46    0.10
  -1  -1  -2   13.29    0.44
  -1  -1  -2   11.96    0.43
  -1  -1  -2   12.80    0.45
  -1  -1  -2   12.27    0.42
   1   1   2   12.79    0.43
   1   1   2   12.06    0.43
   1   1   2   12.48    0.43
   1   1   2   12.32    0.45
  -2  -1  -2  244.26    5.62
  -2  -1  -2  227.62    5.67
  -2  -1  -2  226.41    5.69
  -2  -1  -2  233.41    5.66
  -2  -1  -2  235.94    5.67
   2   1   2  239.21    5.66
   2   1   2  229.28    5.61
   2   1   2  238.97    5.70
   2   1   2  239.18    5.58
   2   1   2  237.88    5.68
  -3  -1  -2   29.73    0.89
  -3  -1  -2   27.77    0.94
  -3  -1  -2   29.37    0.89
  -3  -1  -2   28.92    0.81
  -3  -1  -2   30.25    0.91
   3   1   2   29.50    0.84
   3   1   2   28.40    0.82
   3   1   2   28.74    0.90
   3   1   2   29.20    0.95
  -4  -1  -2    2.67    0.26
  -4  -1  -2    2.59    0.27
  -4  -1  -2    2.93    0.20
  -4  -1  -2    2.99    0.34
   4   1   2    2.78    0.22
   4   1   2    2.94    0.30
   4   1   2    2.30    0.26
   4   1   2    3.00    0.26
  -5  -1  -2   -0.10    0.19
  -5  -1  -2   -0.10    0.14
  -5  -1  -2    0.09    0.14
   5   1   2    0.01    0.16
   5   1   2   -0.06    0.16
   5   1   2   -0.07    0.10
   5   1   2    0.20    0.15
  -6  -1  -2   17.59    0.73
  -6  -1  -2   17.08    0.71
  -6  -1  -2   16.38    0.81
   6   1   2   17.87    0.76
   6   1   2   17.27    0.58
  -7  -1  -2    3.43    0.39
  -7  -1  -2    3.15    0.37
  -7  -1  -2    3.95    0.52
   7   1   2    3.07    0.40
  -8  -1  -2    0.59    0.26
  -8  -1  -2    0.00    0.28
  -8  -1  -2    0.47    0.24
  -9  -1  -2    1.12    0.31
  -9  -1  -2    1.55    0.46
  10  -2  -2    0.20    0.26
 -10   2   2    0.08    0.33
   9  -2  -2    4.27    0.45
   9  -2  -2    3.65    0.42
  -9   2   2    4.09    0.52
   8  -2  -2    1.08    0.26
  -8   2   2    0.67    0.27
  -8   2   2    1.02    0.20
  -8   2   2    1.15    0.16
   7  -2  -2   18.88    0.77
  -7   2   2   20.20    0.83
  -7   2   2   20.04    0.61
   6  -2  -2   12.01    0.56
   6  -2  -2   15.16    0.66
  -6   2   2   12.77    0.60
  -6   2   2   12.44    0.42
  -6   2   2   12.68    0.42
   5  -2  -2    0.31    0.15
   5  -2  -2    0.41    0.15
  -5   2   2    0.36    0.09
  -5   2   2    0.13    0.15
   4  -2  -2    1.03    0.19
   4  -2  -2    0.88    0.16
   4  -2  -2    1.13    0.22
  -4   2   2    1.36    0.12
  -4   2   2    1.40    0.12
  -4   2   2    1.40    0.21
  -4   2   2    0.89    0.17
   3  -2  -2   22.48    0.75
   3  -2  -2   21.33    0.59
   3  -2  -2   22.09    0.70
   3  -2  -2   21.62    0.61
  -3   2   2   21.19    0.62
  -3   2   2   22.40    0.61
  -3   2   2   21.84    0.60
   2  -2  -2   85.77    2.12
   2  -2  -2   81.77    1.98
   2  -2  -2   82.10    2.03
   2  -2  -2   81.60    2.04
  -2   2   2   82.68    2.03
  -2   2   2   83.49    2.04
   1  -2  -2    1.72    0.17
   1  -2  -2    2.05    0.18
   1  -2  -2    1.35    0.11
  -1   2   2    1.24    0.16
  -1   2   2    1.39    0.17
   0  -2  -2    0.52    0.14
   0  -2  -2    0.39    0.10
   0  -2  -2    0.44    0.14
   0   2   2    0.54    0.12
   0   2   2    0.59    0.14
   0   2   2    0.23    0.14
  -1  -2  -2   32.80    0.98
  -1  -2  -2   34.61    1.00
  -1  -2  -2   36.27    0.96
  -1  -2  -2   34.19    0.85
  -1  -2  -2   34.51    1.01
   1   2   2   34.70    0.99
   1   2   2   34.48    1.01
   1   2   2   35.00    0.99
  -2  -2  -2    1.75    0.13
  -2  -2  -2    1.54    0.23
  -2  -2  -2    1.61    0.23
  -2  -2  -2    1.66    0.16
  -2  -2  -2    1.99    0.23
  -2  -2  -2    1.60    0.23
   2   2   2    1.56    0.22
   2   2   2    1.49    0.22
   2   2   2    1.73    0.15
  -3  -2  -2   27.97    0.92
  -3  -2  -2   28.22    0.78
  -3  -2  -2   26.46    0.93
  -3  -2  -2   28.58    0.91
   3   2   2   27.31    0.93
   3   2   2   27.58    0.81
  -4  -2  -2   22.00    0.83
  -4  -2  -2   20.53    0.86
  -4  -2  -2   21.95    0.64
  -4  -2  -2   22.18    0.81
   4   2   2   22.60    0.74
   4   2   2   22.74    0.83
  -5  -2  -2    9.04    0.60
  -5  -2  -2    9.65    0.53
  -5  -2  -2   10.01    0.52
   5   2   2   10.36    0.50
  -6  -2  -2    1.24    0.27
  -6  -2  -2    1.71    0.38
  -6  -2  -2    1.08    0.26
  -7  -2  -2    1.39    0.40
  -7  -2  -2    1.48    0.32
  -7  -2  -2    1.05    0.33
  -8  -2  -2    1.11    0.31
  -8  -2  -2    1.86    0.45
  10  -3  -2    0.25    0.28
  10  -3  -2    0.19    0.30
 -10   3   2    0.33    0.32
   9  -3  -2    4.53    0.49
  -9   3   2    5.36    0.55
   8  -3  -2    0.50    0.26
  -8   3   2    0.78    0.28
   7  -3  -2   55.27    1.68
  -7   3   2   58.09    1.70
   6  -3  -2    1.29    0.26
   6  -3  -2    1.16    0.22
  -6   3   2    1.78    0.26
   5  -3  -2   39.56    1.19
   5  -3  -2   38.71    1.12
  -5   3   2   40.19    0.97
  -5   3   2   38.99    1.14
  -5   3   2   38.64    0.97
   4  -3  -2    3.61    0.21
   4  -3  -2    4.00    0.34
   4  -3  -2    3.67    0.31
   4  -3  -2    3.67    0.17
  -4   3   2    3.64    0.17
  -4   3   2    3.31    0.18
   3  -3  -2   50.68    1.39
   3  -3  -2   49.40    1.26
   3  -3  -2   48.86    1.27
   3  -3  -2   50.97    1.28
  -3   3   2   48.90    1.28
  -3   3   2   51.10    1.27
   2  -3  -2   10.10    0.37
   2  -3  -2   10.30    0.37
  -2   3   2    9.93    0.38
  -2   3   2   10.16    0.39
   1  -3  -2   10.37    0.41
   1  -3  -2    9.67    0.40
   1  -3  -2   10.66    0.36
  -1   3   2   10.04    0.41
  -1   3   2   10.66    0.43
   0  -3  -2   14.78    0.52
   0  -3  -2   15.01    0.57
   0  -3  -2   15.86    0.57
   0   3   2   15.02    0.56
   0   3   2   16.18    0.53
   0   3   2   14.86    0.57
  -1  -3  -2    3.02    0.28
  -1  -3  -2    2.57    0.27
  -1  -3  -2    2.29    0.15
  -1  -3  -2    2.61    0.23
  -1  -3  -2    2.91    0.28
   1   3   2    2.14    0.22
   1   3   2    2.32    0.26
  -2  -3  -2   17.31    0.57
  -2  -3  -2   16.98    0.52
  -2  -3  -2   17.79    0.68
  -2  -3  -2   17.94    0.70
  -2  -3  -2   17.02    0.66
   2   3   2   16.66    0.66
   2   3   2   19.02    0.70
  -3  -3  -2    3.26    0.33
  -3  -3  -2    3.39    0.21
  -3  -3  -2    3.57    0.38
  -3  -3  -2    2.87    0.32
  -3  -3  -2    3.23    0.21
   3   3   2    2.87    0.34
   3   3   2    3.01    0.22
  -4  -3  -2   67.79    1.93
  -4  -3  -2   67.20    1.66
  -4  -3  -2   68.42    1.96
  -4  -3  -2   62.88    1.97
   4   3   2   66.29    1.79
  -5  -3  -2    4.89    0.53
  -5  -3  -2    4.62    0.45
  -5  -3  -2    4.45    0.46
  -6  -3  -2    0.75    0.30
  -6  -3  -2    0.45    0.25
  -7  -3  -2    0.68    0.29
  -7  -3  -2    0.73    0.38
  -8  -3  -2    2.82    0.55
  -8  -3  -2    2.44    0.42
  10  -4  -2    0.67    0.33
  10  -4  -2    0.75    0.34
 -10   4   2    0.30    0.32
   9  -4  -2    1.22    0.32
  -9   4   2    1.81    0.37
   8  -4  -2    1.19    0.30
   7  -4  -2    0.01    0.18
   6  -4  -2    6.16    0.43
   6  -4  -2    5.90    0.35
   5  -4  -2    1.62    0.20
   5  -4  -2    1.72    0.24
  -5   4   2    1.59    0.12
   4  -4  -2   39.70    1.19
   4  -4  -2   39.21    1.05
   4  -4  -2   39.65    1.03
   4  -4  -2   38.81    1.02
  -4   4   2   37.45    1.02
   3  -4  -2    9.70    0.37
   3  -4  -2   10.12    0.47
   3  -4  -2    9.65    0.36
  -3   4   2    9.91    0.39
   2  -4  -2   36.15    1.03
   2  -4  -2   35.68    1.02
   2  -4  -2   35.09    0.97
  -2   4   2   35.89    1.03
   1  -4  -2    9.22    0.42
   1  -4  -2    8.91    0.37
   1  -4  -2    8.63    0.41
  -1   4   2    9.02    0.42
   0  -4  -2    0.84    0.20
   0  -4  -2    0.59    0.15
   0  -4  -2    0.73    0.13
   0  -4  -2    0.97    0.20
   0   4   2    0.93    0.22
  -1  -4  -2    7.84    0.44
  -1  -4  -2    7.80    0.43
  -1  -4  -2    7.13    0.31
  -1  -4  -2    7.43    0.40
   1   4   2    7.49    0.42
   1   4   2    7.12    0.43
  -2  -4  -2    1.17    0.17
  -2  -4  -2    0.99    0.14
  -2  -4  -2    0.77    0.22
  -2  -4  -2    1.19    0.25
  -2  -4  -2    1.14    0.25
   2   4   2    0.97    0.24
  -3  -4  -2    5.33    0.28
  -3  -4  -2    5.51    0.42
  -3  -4  -2    5.35    0.27
  -3  -4  -2    4.90    0.46
  -3  -4  -2    5.17    0.42
  -4  -4  -2   16.17    0.59
  -4  -4  -2   15.07    0.73
  -4  -4  -2   16.58    0.81
  -4  -4  -2   15.47    0.76
  -5  -4  -2    0.79    0.31
  -5  -4  -2    0.37    0.26
  -6  -4  -2    1.29    0.40
  -6  -4  -2    0.46    0.29
  -7  -4  -2    0.79    0.33
  -7  -4  -2    0.96    0.36
  10  -5  -2    2.64    0.47
   9  -5  -2   -0.10    0.25
   8  -5  -2    1.45    0.35
   7  -5  -2    1.05    0.34
   7  -5  -2    1.36    0.31
   6  -5  -2    0.51    0.21
   6  -5  -2    0.83    0.17
   5  -5  -2   33.84    1.12
   5  -5  -2   32.27    0.89
   5  -5  -2   33.70    0.90
   5  -5  -2   34.85    0.98
   4  -5  -2   15.60    0.53
   4  -5  -2   15.31    0.53
   4  -5  -2   16.15    0.52
   4  -5  -2   16.51    0.68
  -4   5   2   16.22    0.54
   3  -5  -2   11.45    0.46
   3  -5  -2   12.02    0.45
  -3   5   2   11.09    0.46
   2  -5  -2    2.11    0.24
   2  -5  -2    2.26    0.22
   2  -5  -2    2.20    0.24
  -2   5   2    2.60    0.28
   1  -5  -2   11.75    0.48
   1  -5  -2   11.92    0.54
   1  -5  -2   11.67    0.52
  -1   5   2   12.30    0.55
   0  -5  -2    1.86    0.26
   0  -5  -2    1.94    0.21
   0  -5  -2    1.84    0.26
   0  -5  -2    1.87    0.26
   0   5   2    2.10    0.30
  -1  -5  -2    6.01    0.42
  -1  -5  -2    5.61    0.41
  -1  -5  -2    4.78    0.28
  -1  -5  -2    5.44    0.39
   1   5   2    5.29    0.46
  -2  -5  -2    4.28    0.44
  -2  -5  -2    3.75    0.40
  -2  -5  -2    3.39    0.27
  -2  -5  -2    3.38    0.23
  -2  -5  -2    3.65    0.39
  -3  -5  -2    1.72    0.33
  -3  -5  -2    1.31    0.29
  -3  -5  -2    2.20    0.37
  -3  -5  -2    1.78    0.20
  -4  -5  -2    1.42    0.35
  -4  -5  -2    1.77    0.39
  -4  -5  -2    1.69    0.32
  -5  -5  -2    1.69    0.41
  -5  -5  -2    1.42    0.36
  -6  -5  -2    1.36    0.40
  -6  -5  -2    2.13    0.43
  10  -6  -2    0.21    0.31
   9  -6  -2    1.71    0.40
   8  -6  -2    6.11    0.55
   7  -6  -2    5.53    0.53
   6  -6  -2   27.94    1.05
   6  -6  -2   28.97    0.76
   6  -6  -2   29.69    0.92
   5  -6  -2    1.75    0.18
   5  -6  -2    1.61    0.17
   5  -6  -2    1.46    0.30
   5  -6  -2    1.49    0.20
   4  -6  -2   22.35    0.73
   4  -6  -2   21.64    0.84
   4  -6  -2   22.07    0.71
   3  -6  -2    1.88    0.22
   3  -6  -2    1.86    0.23
   3  -6  -2    2.29    0.25
   2  -6  -2   85.55    2.35
   2  -6  -2   87.48    2.29
   2  -6  -2   85.32    2.33
  -2   6   2   90.14    2.36
   1  -6  -2    7.27    0.45
   1  -6  -2    5.86    0.41
   1  -6  -2    6.04    0.38
   0  -6  -2    0.85    0.19
   0  -6  -2    1.37    0.28
   0  -6  -2    1.15    0.27
   0  -6  -2    1.24    0.24
  -1  -6  -2    0.31    0.20
  -1  -6  -2    0.08    0.12
  -1  -6  -2    0.25    0.18
  -1  -6  -2   -0.22    0.19
  -2  -6  -2    6.83    0.52
  -2  -6  -2    5.60    0.53
  -2  -6  -2    5.73    0.32
  -3  -6  -2    8.65    0.60
  -3  -6  -2    7.86    0.61
  -4  -6  -2    0.05    0.24
  -4  -6  -2   -0.36    0.26
  -5  -6  -2    1.84    0.45
  -5  -6  -2    1.40    0.39
  10  -7  -2    0.02    0.31
   9  -7  -2    4.88    0.57
   8  -7  -2    2.75    0.45
   7  -7  -2    0.52    0.26
   6  -7  -2    2.14    0.37
   6  -7  -2    1.99    0.19
   6  -7  -2    2.29    0.25
   5  -7  -2    3.72    0.28
   5  -7  -2    4.23    0.45
   5  -7  -2    4.14    0.28
   4  -7  -2    2.68    0.28
   4  -7  -2    3.04    0.36
   4  -7  -2    3.09    0.29
   3  -7  -2   -0.02    0.14
   3  -7  -2   -0.04    0.13
   3  -7  -2    0.03    0.13
   2  -7  -2   36.69    1.23
   2  -7  -2   38.70    1.20
   2  -7  -2   39.59    1.27
   1  -7  -2    6.50    0.42
   1  -7  -2    6.56    0.43
   1  -7  -2    6.62    0.47
   1  -7  -2    5.81    0.45
   0  -7  -2    2.71    0.37
   0  -7  -2    2.14    0.36
   0  -7  -2    2.92    0.40
   0  -7  -2    2.30    0.28
  -1  -7  -2    3.58    0.44
  -1  -7  -2    4.13    0.46
  -1  -7  -2    3.45    0.31
  -2  -7  -2    4.26    0.53
  -2  -7  -2    5.73    0.59
  -3  -7  -2    8.00    0.66
  -3  -7  -2    6.54    0.64
  -4  -7  -2    3.18    0.51
  -4  -7  -2    2.26    0.46
   9  -8  -2   -0.07    0.27
   8  -8  -2   -0.12    0.24
   7  -8  -2   -0.18    0.21
   6  -8  -2    4.25    0.51
   5  -8  -2    1.26    0.22
   5  -8  -2    1.40    0.31
   5  -8  -2    1.01    0.20
   4  -8  -2    0.18    0.25
   4  -8  -2    0.13    0.15
   4  -8  -2    0.24    0.16
   4  -8  -2    0.03    0.14
   3  -8  -2    8.44    0.51
   3  -8  -2    9.68    0.50
   3  -8  -2    8.30    0.52
   2  -8  -2    0.77    0.24
   2  -8  -2    0.43    0.20
   2  -8  -2    0.70    0.24
   1  -8  -2    1.14    0.25
   1  -8  -2    1.13    0.26
   1  -8  -2    0.91    0.28
   0  -8  -2    0.60    0.26
   0  -8  -2    0.58    0.28
  -1  -8  -2    3.60    0.48
  -1  -8  -2    3.18    0.45
  -2  -8  -2    0.52    0.31
  -2  -8  -2    0.16    0.29
  -3  -8  -2    0.36    0.32
  -3  -8  -2    0.20    0.29
   8  -9  -2    2.36    0.45
   7  -9  -2    5.14    0.57
   6  -9  -2    9.57    0.68
   5  -9  -2    0.24    0.27
   5  -9  -2    0.27    0.18
   4  -9  -2    6.81    0.46
   4  -9  -2    7.02    0.48
   4  -9  -2    7.53    0.62
   3  -9  -2    4.14    0.44
   3  -9  -2    4.70    0.44
   3  -9  -2    5.37    0.50
   2  -9  -2    0.89    0.26
   2  -9  -2    0.76    0.25
   2  -9  -2    0.79    0.26
   1  -9  -2    0.61    0.27
   1  -9  -2    0.22    0.21
   0  -9  -2    1.39    0.36
   0  -9  -2    2.55    0.40
  -1  -9  -2    0.10    0.25
  -1  -9  -2    0.73    0.31
   7 -10  -2    3.39    0.51
   6 -10  -2    0.34    0.32
   5 -10  -2    0.38    0.29
   4 -10  -2    0.32    0.21
   4 -10  -2    0.01    0.27
   3 -10  -2    8.71    0.61
   3 -10  -2    9.36    0.69
   2 -10  -2    0.60    0.28
   1 -10  -2    1.13    0.34
   2 -11   3    3.30    0.47
   2 -11   3    3.08    0.51
   2 -11   3    3.63    0.64
   2 -11   3    2.51    0.48
   3 -11   3   -0.15    0.23
   3 -11   3   -0.15    0.19
   3 -11   3   -0.37    0.19
   3 -11   3    0.31    0.26
   3 -11   3   -0.29    0.25
   4 -11   3    0.16    0.27
   4 -11   3    0.42    0.26
   4 -11   3    0.12    0.22
   4 -11   3   -0.04    0.26
   4 -11   3    0.16    0.25
   5 -11   3   11.69    0.71
   5 -11   3   11.17    0.83
   6 -11   3   -0.51    0.29
   6 -11   3    0.19    0.27
  -1 -10   3    3.70    0.82
  -1 -10   3    3.07    0.53
  -1 -10   3    3.13    0.52
   0 -10   3   -0.04    0.23
   0 -10   3    0.21    0.33
   0 -10   3    0.07    0.26
   1 -10   3    0.43    0.26
   1 -10   3    0.73    0.34
   1 -10   3    0.88    0.32
   1 -10   3   -0.31    0.24
   1 -10   3    0.52    0.23
   2 -10   3    4.15    0.56
   2 -10   3    5.63    0.61
   2 -10   3    4.30    0.51
   2 -10   3    4.30    0.48
   2 -10   3    5.24    0.46
   3 -10   3    7.99    0.62
   3 -10   3    9.18    0.59
   3 -10   3    9.47    0.66
   3 -10   3    8.08    0.67
   3 -10   3    9.95    0.56
   4 -10   3    1.27    0.39
   4 -10   3    1.15    0.34
   4 -10   3    1.31    0.32
   4 -10   3    1.32    0.28
   4 -10   3    0.96    0.25
   5 -10   3    0.71    0.36
   5 -10   3    0.49    0.26
   6 -10   3   15.91    0.99
   6 -10   3   17.31    0.85
   7 -10   3    0.09    0.30
   7 -10   3    0.17    0.35
   8 -10   3    4.55    0.64
   8 -10   3    6.30    0.66
  -2  -9   3    1.39    0.36
  -2  -9   3    1.79    0.41
  -2  -9   3    3.12    0.55
  -1  -9   3    0.63    0.34
  -1  -9   3    0.37    0.26
   0  -9   3    1.70    0.41
   0  -9   3    1.24    0.34
   0  -9   3    1.87    0.31
   1  -9   3    0.68    0.30
   1  -9   3    0.40    0.26
   1  -9   3    1.50    0.30
   1  -9   3    1.31    0.25
   2  -9   3    2.71    0.40
   2  -9   3    2.99    0.34
   2  -9   3    2.71    0.42
   2  -9   3    3.08    0.40
   2  -9   3    2.82    0.44
   3  -9   3    0.76    0.29
   3  -9   3    1.29    0.26
   3  -9   3    1.58    0.28
   3  -9   3    1.30    0.35
   4  -9   3   -0.05    0.15
   4  -9   3   -0.15    0.25
   4  -9   3    0.09    0.19
   5  -9   3    0.71    0.19
   5  -9   3    0.79    0.25
   5  -9   3    0.99    0.34
   5  -9   3    0.41    0.23
   6  -9   3   -0.13    0.30
   6  -9   3   -0.07    0.25
   7  -9   3    5.88    0.67
   7  -9   3    6.57    0.61
   8  -9   3    1.66    0.42
   8  -9   3    2.00    0.50
   9  -9   3    1.41    0.48
   9  -9   3    1.77    0.46
  -4  -8   3    0.08    0.28
  -4  -8   3   -0.23    0.27
  -3  -8   3    0.71    0.28
  -3  -8   3    0.49    0.36
  -2  -8   3    2.12    0.45
  -2  -8   3    2.73    0.44
  -1  -8   3   21.15    0.96
  -1  -8   3   18.78    0.74
  -1  -8   3   21.46    1.01
   0  -8   3    0.52    0.28
   0  -8   3    1.18    0.32
   0  -8   3    0.81    0.22
   0  -8   3    0.76    0.43
   1  -8   3   -0.12    0.17
   1  -8   3    0.01    0.14
   1  -8   3    0.18    0.18
   1  -8   3   -0.01    0.19
   1  -8   3   -0.43    0.14
   2  -8   3    0.18    0.21
   2  -8   3    0.18    0.20
   2  -8   3    0.52    0.18
   2  -8   3    0.26    0.20
   3  -8   3    3.57    0.45
   3  -8   3    3.66    0.37
   3  -8   3    3.69    0.36
   4  -8   3   13.09    0.58
   4  -8   3   12.59    0.74
   4  -8   3   13.83    0.63
   5  -8   3    5.44    0.58
   5  -8   3    5.10    0.34
   5  -8   3    4.88    0.45
   6  -8   3    3.85    0.49
   6  -8   3    3.04    0.34
   6  -8   3    3.00    0.40
   7  -8   3    8.39    0.62
   7  -8   3    7.25    0.69
   8  -8   3    3.28    0.54
   8  -8   3    3.10    0.48
   9  -8   3    0.18    0.34
   9  -8   3   -0.58    0.29
  10  -8   3    3.66    0.56
  10  -8   3    5.41    0.71
  -5  -7   3   -0.02    0.25
  -5  -7   3    0.02    0.29
  -5  -7   3    0.33    0.35
  -4  -7   3   14.13    0.79
  -4  -7   3   13.21    0.89
  -3  -7   3    0.78    0.28
  -3  -7   3    0.83    0.35
  -2  -7   3    1.48    0.33
  -2  -7   3    1.05    0.19
  -2  -7   3    1.11    0.32
  -1  -7   3    8.53    0.57
  -1  -7   3    7.83    0.42
  -1  -7   3    7.76    0.56
  -1  -7   3    7.88    0.56
   0  -7   3   23.10    0.92
   0  -7   3   22.07    0.82
   0  -7   3   23.39    0.96
   0  -7   3   22.40    0.96
   1  -7   3    4.06    0.31
   1  -7   3    4.45    0.38
   1  -7   3    5.03    0.39
   1  -7   3    5.58    0.53
   2  -7   3    3.56    0.39
   2  -7   3    2.86    0.28
   2  -7   3    2.89    0.40
   2  -7   3    3.43    0.34
   3  -7   3   11.42    0.52
   3  -7   3   10.64    0.51
   3  -7   3   11.24    0.62
   4  -7   3    8.03    0.40
   4  -7   3    7.41    0.56
   4  -7   3    7.77    0.45
   5  -7   3    4.04    0.39
   5  -7   3    4.28    0.51
   5  -7   3    3.20    0.25
   6  -7   3    0.66    0.12
   6  -7   3    0.29    0.22
   6  -7   3    0.68    0.12
   6  -7   3    0.41    0.30
   7  -7   3   16.61    0.80
   7  -7   3   16.72    0.90
   8  -7   3    7.33    0.70
   8  -7   3    5.93    0.58
   9  -7   3    0.94    0.34
   9  -7   3    0.95    0.37
  10  -7   3    3.35    0.55
  10  -7   3    3.36    0.55
  -6  -6   3   -0.15    0.28
  -6  -6   3   -0.13    0.29
  -6  -6   3   -0.25    0.21
  -5  -6   3    5.32    0.57
  -5  -6   3    6.12    0.68
  -4  -6   3    0.48    0.28
  -4  -6   3    0.55    0.27
  -3  -6   3    2.98    0.40
  -3  -6   3    3.35    0.49
  -2  -6   3    0.67    0.25
  -2  -6   3    0.93    0.17
  -2  -6   3    0.94    0.26
  -2  -6   3    0.74    0.29
  -2  -6   3    0.44    0.12
  -1  -6   3   13.63    0.54
  -1  -6   3   15.03    0.71
  -1  -6   3   14.01    0.68
  -1  -6   3   14.78    0.73
   0  -6   3   11.40    0.51
   0  -6   3   11.16    0.60
   0  -6   3   11.45    0.60
   1  -6   3    7.25    0.47
   1  -6   3    7.14    0.35
   1  -6   3    7.53    0.43
   2  -6   3    2.61    0.32
   2  -6   3    2.62    0.25
   3  -6   3    8.56    0.41
   3  -6   3    8.32    0.50
   4  -6   3    5.98    0.49
   4  -6   3    6.74    0.39
   5  -6   3    1.16    0.28
   5  -6   3    1.32    0.15
   5  -6   3    0.92    0.23
   6  -6   3   26.07    0.69
   6  -6   3   25.85    0.69
   6  -6   3   26.67    0.70
   6  -6   3   25.61    0.97
   6  -6   3   26.58    1.08
   7  -6   3   11.67    0.63
   7  -6   3   11.24    0.72
   8  -6   3    1.40    0.39
   8  -6   3    1.21    0.32
   9  -6   3    7.15    0.64
   9  -6   3    7.26    0.70
  10  -6   3   -0.02    0.33
  10  -6   3   -0.17    0.30
  -7  -5   3    6.40    0.75
  -7  -5   3    6.71    0.68
  -7  -5   3    6.58    0.66
  -6  -5   3    1.56    0.37
  -6  -5   3    1.02    0.39
  -5  -5   3    4.06    0.51
  -5  -5   3    3.87    0.47
  -4  -5   3    0.21    0.24
  -4  -5   3   -0.04    0.20
  -4  -5   3    0.33    0.23
  -3  -5   3    1.33    0.18
  -3  -5   3    1.12    0.26
  -3  -5   3    1.31    0.30
  -3  -5   3    1.52    0.29
  -2  -5   3   15.86    0.73
  -2  -5   3   16.39    0.52
  -2  -5   3   16.19    0.55
  -2  -5   3   15.82    0.73
  -1  -5   3   11.59    0.45
  -1  -5   3   12.98    0.61
  -1  -5   3   11.21    0.59
   0  -5   3    8.48    0.40
   0  -5   3    8.32    0.49
   1  -5   3   94.71    2.55
   1  -5   3   94.54    2.48
   1  -5   3   93.14    2.36
   2  -5   3    9.90    0.48
   2  -5   3    9.44    0.40
  -3   5  -3   23.40    0.74
   3  -5   3   23.27    0.87
   3  -5   3   22.73    0.75
   4  -5   3    9.35    0.35
   4  -5   3    8.18    0.52
   4  -5   3    8.71    0.44
   5  -5   3   13.72    0.43
   5  -5   3   14.44    0.61
   5  -5   3   14.59    0.68
   5  -5   3   12.87    0.43
   6  -5   3   48.02    1.57
   6  -5   3   47.84    1.48
   6  -5   3   47.99    1.19
   6  -5   3   48.56    1.18
   7  -5   3    2.69    0.38
   7  -5   3    2.52    0.40
   8  -5   3    0.15    0.23
   8  -5   3   -0.04    0.25
   9  -5   3    1.36    0.38
   9  -5   3    0.67    0.31
  10  -5   3   17.28    0.94
  10  -5   3   16.59    0.93
  -8  -4   3    0.52    0.34
  -8  -4   3    0.94    0.37
  -8  -4   3    0.01    0.28
  -7  -4   3    0.07    0.27
  -7  -4   3   -0.34    0.24
  -7  -4   3    0.06    0.25
  -6  -4   3    0.11    0.24
  -6  -4   3   -0.16    0.23
  -5  -4   3    5.99    0.58
  -5  -4   3    5.56    0.49
  -5  -4   3    6.29    0.55
  -4  -4   3    4.90    0.31
  -4  -4   3    4.65    0.50
  -4  -4   3    4.72    0.45
  -4  -4   3    5.35    0.45
  -3  -4   3    0.11    0.18
  -3  -4   3    0.10    0.11
  -3  -4   3    0.46    0.20
   2   4  -3   35.46    1.23
  -2  -4   3   33.65    1.14
  -2  -4   3   33.80    0.91
  -2  -4   3   33.22    0.93
  -2  -4   3   34.02    1.14
   1   4  -3    0.14    0.15
  -1  -4   3    0.00    0.14
  -1  -4   3    0.15    0.10
  -1  -4   3    0.19    0.15
   0  -4   3    8.41    0.39
   0  -4   3   10.49    0.48
   1  -4   3    0.59    0.18
   1  -4   3    0.67    0.12
   1  -4   3    0.54    0.17
  -2   4  -3    6.58    0.30
   2  -4   3    7.25    0.31
   2  -4   3    7.13    0.40
  -3   4  -3    2.54    0.23
   3  -4   3    2.57    0.19
   3  -4   3    2.31    0.30
   3  -4   3    2.45    0.23
  -4   4  -3    6.07    0.34
   4  -4   3    6.31    0.40
   4  -4   3    6.14    0.27
   4  -4   3    7.16    0.45
   4  -4   3    5.85    0.36
   4  -4   3    5.94    0.26
   5  -4   3    5.89    0.25
   5  -4   3    6.17    0.25
   5  -4   3    6.22    0.45
   5  -4   3    6.35    0.40
   6  -4   3    1.33    0.27
   6  -4   3    1.55    0.13
   6  -4   3    1.61    0.14
   6  -4   3    1.58    0.27
   7  -4   3    6.70    0.51
   7  -4   3    7.14    0.54
   8  -4   3    7.32    0.59
   8  -4   3    7.29    0.57
   9  -4   3   10.60    0.72
   9  -4   3   11.30    0.71
  10  -4   3    0.41    0.33
  10  -4   3    0.30    0.32
  -8  -3   3    1.96    0.44
  -8  -3   3    1.64    0.41
  -8  -3   3    1.67    0.36
  -7  -3   3    7.07    0.68
  -7  -3   3    7.08    0.59
  -6  -3   3    2.27    0.40
  -6  -3   3    3.78    0.48
  -6  -3   3    4.01    0.45
  -5  -3   3    7.93    0.55
  -5  -3   3    8.96    0.53
  -5  -3   3    8.93    0.57
  -4  -3   3   26.42    0.79
  -4  -3   3   24.20    0.95
  -4  -3   3   25.27    0.96
  -3  -3   3    9.68    0.50
  -3  -3   3    9.07    0.35
  -3  -3   3    9.24    0.51
   2   3  -3    4.95    0.22
  -2  -3   3    4.88    0.23
  -2  -3   3    4.70    0.21
  -2  -3   3    4.93    0.35
  -2  -3   3    4.63    0.37
   1   3  -3    8.20    0.32
   1   3  -3    7.96    0.41
  -1  -3   3    7.50    0.32
  -1  -3   3    7.93    0.41
   0   3  -3    0.14    0.11
   0   3  -3    0.47    0.15
   0  -3   3    0.41    0.08
   0  -3   3    0.16    0.11
   0  -3   3    0.09    0.13
  -2   3  -3    0.39    0.11
  -2   3  -3    0.54    0.17
   2  -3   3    0.47    0.12
   2  -3   3    0.44    0.18
   2  -3   3    0.46    0.12
  -3   3  -3    2.33    0.22
  -3   3  -3    2.45    0.27
   3  -3   3    1.85    0.26
   3  -3   3    2.41    0.18
   3  -3   3    2.20    0.18
   3  -3   3    2.21    0.22
  -4   3  -3   11.92    0.48
  -4   3  -3   11.32    0.39
   4  -3   3   13.09    0.56
   4  -3   3   10.94    0.55
   4  -3   3   11.23    0.50
   4  -3   3   12.13    0.39
   4  -3   3   11.50    0.40
  -5   3  -3    0.07    0.09
  -5   3  -3    0.02    0.09
   5  -3   3   -0.03    0.09
   5  -3   3    0.01    0.17
   5  -3   3    0.12    0.16
   5  -3   3   -0.06    0.08
  -6   3  -3    3.60    0.23
  -6   3  -3    3.12    0.21
   6  -3   3    2.83    0.32
   6  -3   3    3.68    0.38
   6  -3   3    3.18    0.22
  -7   3  -3    0.75    0.31
  -7   3  -3    0.43    0.13
  -7   3  -3    0.61    0.14
   7  -3   3   -0.04    0.24
   7  -3   3    0.21    0.22
  -8   3  -3    0.45    0.31
  -8   3  -3    0.87    0.16
   8  -3   3    0.71    0.26
   8  -3   3    0.65    0.28
  -9   3  -3    0.02    0.32
   9  -3   3   -0.13    0.25
   9  -3   3    0.46    0.32
 -10   3  -3    1.00    0.42
  10  -3   3    2.00    0.43
   9   2  -3    3.49    0.44
  -9  -2   3    2.82    0.41
  -9  -2   3    3.62    0.56
   8   2  -3    1.41    0.31
  -8  -2   3    1.14    0.39
  -8  -2   3    1.82    0.41
  -8  -2   3    1.38    0.31
   7   2  -3    4.85    0.42
  -7  -2   3    4.12    0.50
  -7  -2   3    3.97    0.48
  -7  -2   3    5.18    0.47
   6   2  -3    0.87    0.21
  -6  -2   3    1.28    0.26
  -6  -2   3    1.10    0.28
  -6  -2   3    0.82    0.30
   5   2  -3   12.81    0.38
   5   2  -3   12.82    0.52
  -5  -2   3   13.18    0.65
  -5  -2   3   13.24    0.52
  -5  -2   3   12.71    0.65
   4   2  -3   17.03    0.48
   4   2  -3   16.63    0.56
  -4  -2   3   15.93    0.69
  -4  -2   3   15.83    0.68
  -4  -2   3   16.01    0.55
   3   2  -3    0.09    0.17
   3   2  -3    0.05    0.09
   3   2  -3   -0.08    0.13
   3   2  -3    0.01    0.07
  -3  -2   3    0.13    0.15
  -3  -2   3    0.10    0.09
  -3  -2   3   -0.12    0.13
   2   2  -3   16.38    0.49
   2   2  -3   16.54    0.63
   2   2  -3   16.11    0.46
  -2  -2   3   15.93    0.50
  -2  -2   3   15.30    0.61
  -2  -2   3   17.02    0.46
  -2  -2   3   15.52    0.60
   1   2  -3    0.41    0.11
   1   2  -3    0.39    0.15
  -1  -2   3    0.62    0.17
  -1  -2   3    0.38    0.05
  -1  -2   3    0.44    0.11
   0   2  -3  907.26   22.28
   0   2  -3  920.94   22.28
   0  -2   3  990.19   22.69
   0  -2   3  893.65   22.47
   0  -2   3 1000.00   22.12
  -1   2  -3    2.73    0.23
  -1   2  -3    2.33    0.15
   1  -2   3    2.84    0.21
   1  -2   3    2.71    0.16
   1  -2   3    2.17    0.21
  -2   2  -3   19.04    0.64
  -2   2  -3   19.60    0.58
  -2   2  -3   18.83    0.57
   2  -2   3   19.83    0.59
   2  -2   3   18.74    0.58
   2  -2   3   18.73    0.65
   2  -2   3   18.67    0.57
  -3   2  -3    5.55    0.26
  -3   2  -3    5.66    0.33
  -3   2  -3    5.24    0.26
  -3   2  -3    4.97    0.28
   3  -2   3    5.86    0.36
   3  -2   3    5.37    0.30
   3  -2   3    5.83    0.35
   3  -2   3    5.25    0.26
   3  -2   3    5.78    0.28
  -4   2  -3   20.21    0.76
  -4   2  -3   19.35    0.63
  -4   2  -3   21.17    0.64
  -4   2  -3   21.49    0.71
  -4   2  -3   21.11    0.72
   4  -2   3   20.55    0.74
   4  -2   3   22.15    0.78
   4  -2   3   21.10    0.63
   4  -2   3   20.73    0.63
   4  -2   3   19.19    0.70
  -5   2  -3   27.34    0.97
  -5   2  -3   25.16    0.80
  -5   2  -3   27.17    0.79
   5  -2   3   25.77    0.90
   5  -2   3   26.84    0.78
   5  -2   3   27.91    0.91
   5  -2   3   26.22    0.79
  -6   2  -3    0.20    0.13
  -6   2  -3    0.02    0.20
  -6   2  -3    0.60    0.15
   6  -2   3    0.18    0.18
   6  -2   3    0.31    0.20
   6  -2   3    0.21    0.13
  -7   2  -3    3.48    0.45
  -7   2  -3    4.34    0.31
  -7   2  -3    4.15    0.30
   7  -2   3    4.23    0.31
   7  -2   3    2.87    0.36
   7  -2   3    3.75    0.38
  -8   2  -3   10.62    0.73
  -8   2  -3   10.35    0.50
  -8   2  -3   10.90    0.50
   8  -2   3    9.88    0.60
   8  -2   3   11.46    0.67
  -9   2  -3    8.36    0.69
   9  -2   3    9.61    0.67
   9  -2   3    9.11    0.58
 -10   2  -3   -0.07    0.31
  10  -2   3    0.01    0.32
   9   1  -3    0.45    0.25
  -9  -1   3    0.48    0.25
  -9  -1   3    0.58    0.36
   8   1  -3    0.04    0.21
  -8  -1   3   -0.11    0.19
  -8  -1   3   -0.01    0.28
   7   1  -3    4.69    0.41
   7   1  -3    4.30    0.28
  -7  -1   3    4.56    0.51
  -7  -1   3    4.35    0.50
  -7  -1   3    3.93    0.39
   6   1  -3    0.06    0.10
   6   1  -3    0.07    0.15
  -6  -1   3   -0.21    0.20
  -6  -1   3   -0.04    0.18
  -6  -1   3   -0.02    0.15
   5   1  -3    0.54    0.16
   5   1  -3    0.60    0.13
  -5  -1   3    0.60    0.16
  -5  -1   3    0.69    0.23
  -5  -1   3    1.09    0.28
   4   1  -3    0.19    0.10
   4   1  -3   -0.01    0.15
   4   1  -3    0.12    0.11
  -4  -1   3    0.19    0.19
  -4  -1   3    0.18    0.16
  -4  -1   3    0.30    0.12
   3   1  -3    2.77    0.30
   3   1  -3    2.70    0.26
   3   1  -3    2.50    0.19
   3   1  -3    2.53    0.19
  -3  -1   3    2.50    0.18
  -3  -1   3    2.11    0.26
  -3  -1   3    2.72    0.26
   2   1  -3    3.52    0.17
   2   1  -3    4.00    0.23
   2   1  -3    3.44    0.29
  -2  -1   3    3.71    0.26
  -2  -1   3    3.65    0.17
  -2  -1   3    3.38    0.28
   1   1  -3  227.27    5.56
   1   1  -3  241.22    5.63
   1   1  -3  234.50    5.46
  -1  -1   3  235.65    5.63
  -1  -1   3  225.98    5.57
   0   1  -3   50.26    1.30
   0   1  -3   47.51    1.30
   0   1  -3   49.06    1.20
   0  -1   3   49.59    1.30
   0  -1   3   47.65    1.30
   0  -1   3   51.84    1.29
  -1   1  -3   52.73    1.38
  -1   1  -3   53.12    1.40
  -1   1  -3   52.67    1.37
  -1   1  -3   54.44    1.34
   1  -1   3   51.59    1.41
   1  -1   3   55.30    1.38
   1  -1   3   54.66    1.35
   1  -1   3   53.36    1.39
  -2   1  -3   22.97    0.69
  -2   1  -3   23.57    0.72
  -2   1  -3   22.77    0.68
  -2   1  -3   23.28    0.68
  -2   1  -3   23.39    0.74
   2  -1   3   23.45    0.72
   2  -1   3   23.49    0.68
   2  -1   3   23.37    0.69
   2  -1   3   22.73    0.68
   2  -1   3   21.98    0.72
  -3   1  -3    1.25    0.24
  -3   1  -3    1.49    0.20
  -3   1  -3    1.32    0.17
  -3   1  -3    1.24    0.18
  -3   1  -3    1.55    0.19
   3  -1   3    1.23    0.21
   3  -1   3    0.95    0.18
   3  -1   3    1.21    0.16
   3  -1   3    1.11    0.17
   3  -1   3    1.18    0.19
  -4   1  -3   60.62    1.84
  -4   1  -3   70.61    1.82
  -4   1  -3   67.43    1.79
  -4   1  -3   67.66    1.75
  -4   1  -3   68.90    1.75
   4  -1   3   65.98    1.73
   4  -1   3   70.65    1.89
   4  -1   3   67.51    1.79
   4  -1   3   63.44    1.79
   4  -1   3   64.67    1.74
  -5   1  -3    4.05    0.41
  -5   1  -3    3.96    0.28
  -5   1  -3    4.04    0.29
   5  -1   3    3.35    0.33
   5  -1   3    3.69    0.33
   5  -1   3    4.34    0.33
   5  -1   3    3.74    0.27
   5  -1   3    4.50    0.30
  -6   1  -3    6.24    0.37
  -6   1  -3    6.56    0.49
  -6   1  -3    6.83    0.38
   6  -1   3    7.23    0.42
   6  -1   3    6.45    0.47
   6  -1   3    7.03    0.40
  -7   1  -3   23.84    1.02
  -7   1  -3   23.77    0.84
  -7   1  -3   24.51    0.83
   7  -1   3   22.62    0.94
   7  -1   3   23.47    0.85
  -8   1  -3    3.41    0.49
  -8   1  -3    4.43    0.38
  -8   1  -3    4.60    0.39
   8  -1   3    4.00    0.48
   8  -1   3    3.91    0.38
  -9   1  -3    5.62    0.67
   9  -1   3    4.97    0.53
 -10   1  -3    0.58    0.42
  10  -1   3    1.24    0.39
  10   0  -3    0.30    0.27
 -10   0   3   -0.05    0.28
   9   0  -3    7.80    0.56
  -9   0   3    8.00    0.74
   8   0  -3    2.68    0.34
  -8   0   3    2.26    0.30
  -8   0   3    2.43    0.41
   7   0  -3    7.71    0.48
  -7   0   3    7.30    0.60
  -7   0   3    7.00    0.43
  -7   0   3    8.02    0.56
   6   0  -3    1.64    0.24
  -6   0   3    1.64    0.29
  -6   0   3    1.48    0.33
   5   0  -3   31.16    0.96
   5   0  -3   34.54    1.13
  -5   0   3   30.65    1.03
  -5   0   3   30.51    1.11
  -5   0   3   32.75    0.96
   4   0  -3    0.39    0.15
   4   0  -3    0.35    0.13
   4   0  -3    0.18    0.15
  -4   0   3    0.15    0.11
  -4   0   3    0.17    0.15
  -4   0   3    0.33    0.21
   3   0  -3   12.45    0.46
   3   0  -3   12.31    0.43
   3   0  -3   13.12    0.53
  -3   0   3   12.03    0.46
  -3   0   3   11.93    0.53
  -3   0   3   12.51    0.43
   2   0  -3   46.39    1.23
   2   0  -3   45.16    1.27
   2   0  -3   44.45    1.16
  -2   0   3   46.70    1.28
  -2   0   3   43.42    1.18
  -2   0   3   48.07    1.20
   1   0  -3    0.81    0.15
   1   0  -3    0.81    0.13
   1   0  -3    0.67    0.14
  -1   0   3    0.74    0.14
  -1   0   3    0.87    0.16
  -1   0   3    0.74    0.15
  -1   0   3    0.72    0.15
   0   0  -3   19.17    0.57
   0   0  -3   18.49    0.59
   0   0  -3   18.84    0.55
   0   0  -3   19.55    0.58
   0   0   3   18.18    0.55
   0   0   3   18.47    0.60
   0   0   3   19.00    0.57
   0   0   3   18.52    0.58
  -1   0  -3    1.19    0.17
  -1   0  -3    1.11    0.17
  -1   0  -3    1.13    0.17
  -1   0  -3    0.84    0.13
  -1   0  -3    0.95    0.16
   1   0   3    0.93    0.11
   1   0   3    0.86    0.16
   1   0   3    1.07    0.17
   1   0   3    1.03    0.15
   1   0   3    1.03    0.16
  -2   0  -3   58.69    1.59
  -2   0  -3   61.45    1.63
  -2   0  -3   61.79    1.60
  -2   0  -3   63.46    1.60
  -2   0  -3   62.41    1.61
   2   0   3   57.93    1.59
   2   0   3   61.51    1.63
   2   0   3   59.30    1.60
   2   0   3   63.47    1.60
   2   0   3   60.73    1.60
  -3   0  -3    1.56    0.20
  -3   0  -3    0.83    0.17
  -3   0  -3    1.09    0.23
  -3   0  -3    1.33    0.19
  -3   0  -3    1.15    0.17
   3   0   3    1.18    0.20
   3   0   3    0.93    0.20
   3   0   3    1.32    0.19
   3   0   3    0.85    0.16
   3   0   3    0.75    0.16
  -4   0  -3   26.60    0.94
  -4   0  -3   27.06    0.83
  -4   0  -3   26.30    0.86
  -4   0  -3   26.60    0.85
   4   0   3   26.92    0.89
   4   0   3   27.92    0.85
   4   0   3   27.63    0.84
   4   0   3   26.39    0.86
   4   0   3   26.76    0.84
  -5   0  -3    1.47    0.23
  -5   0  -3    2.03    0.25
  -5   0  -3    1.40    0.28
  -5   0  -3    1.76    0.21
   5   0   3    1.26    0.24
   5   0   3    1.50    0.24
   5   0   3    1.91    0.23
   5   0   3    1.89    0.25
  -6   0  -3    0.70    0.20
  -6   0  -3    0.46    0.25
  -6   0  -3    0.40    0.18
   6   0   3    0.58    0.18
   6   0   3    0.35    0.19
   6   0   3    0.53    0.24
  -7   0  -3    1.23    0.25
  -7   0  -3    1.09    0.24
  -7   0  -3    0.47    0.31
   7   0   3    1.27    0.22
   7   0   3    0.75    0.27
  -8   0  -3   -0.09    0.19
  -8   0  -3   -0.25    0.25
  -8   0  -3    0.29    0.21
   8   0   3   -0.30    0.26
  -9   0  -3    2.74    0.38
  -9   0  -3    2.94    0.50
   9   0   3    2.97    0.48
  10  -1  -3    7.94    0.59
 -10   1   3    6.76    0.68
   9  -1  -3    4.71    0.48
  -9   1   3    4.46    0.54
   8  -1  -3    1.74    0.30
  -8   1   3    0.74    0.29
  -8   1   3    0.98    0.20
   7  -1  -3    0.19    0.18
  -7   1   3    0.23    0.21
  -7   1   3    0.15    0.13
   6  -1  -3   50.75    1.45
  -6   1   3   49.32    1.49
   5  -1  -3    3.67    0.28
   5  -1  -3    3.98    0.30
  -5   1   3    4.18    0.31
  -5   1   3    3.84    0.40
  -5   1   3    4.06    0.29
   4  -1  -3    9.46    0.39
   4  -1  -3    8.12    0.39
   4  -1  -3    9.95    0.49
  -4   1   3    9.69    0.36
  -4   1   3    8.99    0.39
  -4   1   3    8.95    0.49
  -4   1   3    9.03    0.40
   3  -1  -3   17.60    0.66
   3  -1  -3   18.27    0.55
   3  -1  -3   18.24    0.59
  -3   1   3   18.32    0.55
  -3   1   3   18.21    0.56
  -3   1   3   18.38    0.55
  -3   1   3   18.89    0.68
   2  -1  -3    9.12    0.35
   2  -1  -3    9.39    0.40
   2  -1  -3    8.88    0.34
  -2   1   3    9.41    0.35
  -2   1   3    8.37    0.39
  -2   1   3    9.01    0.28
  -2   1   3    9.30    0.36
   1  -1  -3  249.88    6.07
   1  -1  -3  254.50    6.06
   1  -1  -3  256.64    6.06
  -1   1   3  253.05    6.06
  -1   1   3  252.21    5.96
  -1   1   3  256.52    6.07
  -1   1   3  256.63    6.06
   0  -1  -3   74.15    1.87
   0  -1  -3   70.78    1.85
   0  -1  -3   72.95    1.76
   0  -1  -3   70.49    1.84
   0  -1  -3   72.07    1.79
   0   1   3   74.13    1.85
   0   1   3   72.46    1.86
   0   1   3   72.03    1.76
   0   1   3   73.56    1.79
  -1  -1  -3    0.84    0.18
  -1  -1  -3    1.05    0.16
  -1  -1  -3    0.90    0.18
  -1  -1  -3    0.89    0.15
   1   1   3    1.01    0.17
   1   1   3    0.80    0.16
   1   1   3    0.59    0.17
   1   1   3    0.53    0.14
  -2  -1  -3   47.48    1.34
  -2  -1  -3   49.46    1.30
  -2  -1  -3   47.10    1.34
  -2  -1  -3   46.60    1.32
  -2  -1  -3   51.97    1.34
   2   1   3   48.03    1.34
   2   1   3   47.97    1.32
   2   1   3   45.32    1.33
   2   1   3   47.08    1.30
   2   1   3   48.87    1.19
  -3  -1  -3    9.48    0.39
  -3  -1  -3    8.53    0.43
  -3  -1  -3    9.20    0.48
  -3  -1  -3    9.73    0.44
  -3  -1  -3    9.43    0.45
   3   1   3    8.48    0.41
   3   1   3    8.97    0.40
   3   1   3    9.06    0.44
   3   1   3    9.56    0.49
   3   1   3    9.34    0.35
  -4  -1  -3   11.65    0.60
  -4  -1  -3   12.03    0.54
  -4  -1  -3   11.43    0.45
  -4  -1  -3   12.63    0.55
   4   1   3   11.72    0.47
   4   1   3   11.88    0.47
   4   1   3   12.91    0.55
  -5  -1  -3    5.24    0.44
  -5  -1  -3    5.30    0.30
  -5  -1  -3    5.28    0.43
  -5  -1  -3    5.22    0.39
   5   1   3    5.65    0.33
   5   1   3    5.47    0.42
   5   1   3    5.30    0.35
  -6  -1  -3   10.40    0.67
  -6  -1  -3   10.47    0.57
  -6  -1  -3   10.73    0.56
   6   1   3   10.74    0.58
   6   1   3   10.04    0.58
   6   1   3   10.90    0.46
  -7  -1  -3   16.19    0.90
  -7  -1  -3   16.16    0.74
  -7  -1  -3   15.96    0.74
  -8  -1  -3    0.22    0.30
  -8  -1  -3    0.37    0.24
  -9  -1  -3    1.47    0.41
  -9  -1  -3    2.67    0.41
  10  -2  -3   -0.03    0.26
 -10   2   3   -0.03    0.31
   9  -2  -3    2.85    0.39
  -9   2   3    3.65    0.46
   8  -2  -3    0.63    0.26
  -8   2   3    0.37    0.25
   7  -2  -3   10.79    0.57
  -7   2   3   10.52    0.59
  -7   2   3   11.92    0.43
  -7   2   3   10.52    0.41
   6  -2  -3   15.38    0.65
   6  -2  -3   15.69    0.62
  -6   2   3   15.52    0.51
  -6   2   3   15.66    0.65
   5  -2  -3    0.19    0.12
   5  -2  -3   -0.04    0.14
  -5   2   3    0.09    0.10
  -5   2   3    0.46    0.16
  -5   2   3    0.14    0.10
   4  -2  -3    7.30    0.38
   4  -2  -3    7.32    0.31
   4  -2  -3    8.35    0.45
  -4   2   3    7.95    0.31
  -4   2   3    6.88    0.30
  -4   2   3    7.38    0.32
   3  -2  -3    0.52    0.11
   3  -2  -3    0.40    0.08
   3  -2  -3    0.53    0.16
   3  -2  -3    0.22    0.16
  -3   2   3    0.36    0.11
  -3   2   3    0.29    0.12
  -3   2   3    0.46    0.10
   2  -2  -3    2.53    0.23
   2  -2  -3    3.32    0.22
   2  -2  -3    2.95    0.21
  -2   2   3    2.64    0.21
  -2   2   3    2.89    0.23
   1  -2  -3  119.22    2.93
   1  -2  -3  117.89    2.94
   1  -2  -3  121.44    2.90
   1  -2  -3  117.29    2.82
  -1   2   3  116.51    2.82
  -1   2   3  119.50    2.93
  -1   2   3  118.30    2.94
   0  -2  -3   65.82    1.65
   0  -2  -3   65.04    1.58
   0  -2  -3   64.68    1.72
   0  -2  -3   61.73    1.70
   0  -2  -3   67.43    1.73
   0   2   3   64.70    1.65
   0   2   3   66.43    1.73
   0   2   3   65.05    1.71
  -1  -2  -3   51.95    1.47
  -1  -2  -3   51.87    1.46
  -1  -2  -3   55.18    1.45
  -1  -2  -3   54.69    1.45
   1   2   3   53.39    1.44
   1   2   3   51.99    1.47
   1   2   3   54.21    1.47
  -2  -2  -3    0.12    0.13
  -2  -2  -3    0.48    0.17
  -2  -2  -3    0.25    0.12
  -2  -2  -3    0.04    0.14
  -2  -2  -3    0.41    0.16
   2   2   3    0.22    0.16
   2   2   3    0.16    0.18
   2   2   3    0.26    0.16
  -3  -2  -3    3.86    0.36
  -3  -2  -3    3.28    0.34
  -3  -2  -3    3.25    0.34
  -3  -2  -3    3.52    0.24
   3   2   3    3.08    0.33
   3   2   3    3.50    0.20
  -4  -2  -3    0.19    0.19
  -4  -2  -3    0.14    0.21
  -4  -2  -3    0.20    0.18
  -4  -2  -3    0.14    0.11
   4   2   3    0.20    0.13
   4   2   3    0.12    0.21
  -5  -2  -3    6.25    0.46
  -5  -2  -3    6.22    0.46
  -5  -2  -3    6.64    0.58
  -5  -2  -3    5.94    0.30
   5   2   3    5.89    0.36
   5   2   3    6.61    0.49
  -6  -2  -3    0.43    0.27
  -6  -2  -3    0.92    0.27
  -6  -2  -3    0.66    0.26
  -7  -2  -3   -0.04    0.22
  -7  -2  -3    0.20    0.30
  -8  -2  -3    8.83    0.62
  -8  -2  -3    8.26    0.80
  10  -3  -3    5.41    0.56
  10  -3  -3    4.26    0.49
 -10   3   3    5.17    0.58
   9  -3  -3    0.69    0.30
  -9   3   3    0.59    0.28
   8  -3  -3    2.29    0.34
  -8   3   3    2.41    0.36
   7  -3  -3   32.06    1.12
  -7   3   3   34.19    0.89
  -7   3   3   33.15    0.88
  -7   3   3   33.90    1.11
  -7   3   3   33.19    0.89
   6  -3  -3   13.71    0.61
   6  -3  -3   13.88    0.55
  -6   3   3   14.21    0.44
  -6   3   3   14.17    0.43
  -6   3   3   14.42    0.57
   5  -3  -3   24.57    0.74
   5  -3  -3   24.11    0.84
  -5   3   3   24.43    0.68
  -5   3   3   24.26    0.69
   4  -3  -3   48.08    1.39
   4  -3  -3   55.11    1.59
   4  -3  -3   47.75    1.24
   4  -3  -3   48.23    1.26
  -4   3   3   47.10    1.26
  -4   3   3   47.47    1.25
   3  -3  -3   38.61    1.13
   3  -3  -3   37.77    1.05
   3  -3  -3   37.68    1.15
   3  -3  -3   37.54    1.04
   3  -3  -3   38.82    0.95
  -3   3   3   38.67    1.04
  -3   3   3   38.44    1.05
   2  -3  -3    1.18    0.16
   2  -3  -3    0.97    0.15
   2  -3  -3    1.00    0.17
   2  -3  -3    0.98    0.08
  -2   3   3    0.90    0.17
  -2   3   3    0.99    0.16
   1  -3  -3   10.46    0.43
   1  -3  -3   10.04    0.43
   1  -3  -3   10.07    0.35
  -1   3   3   11.08    0.45
  -1   3   3   11.51    0.47
   0  -3  -3   36.74    1.10
   0  -3  -3   37.29    1.11
   0  -3  -3   36.19    1.03
   0   3   3   36.88    1.03
   0   3   3   37.64    1.10
   0   3   3   36.65    1.11
  -1  -3  -3   19.87    0.74
  -1  -3  -3   19.92    0.69
  -1  -3  -3   20.76    0.73
  -1  -3  -3   21.70    0.70
   1   3   3   19.87    0.70
   1   3   3   19.87    0.75
  -2  -3  -3   26.72    0.92
  -2  -3  -3   26.80    0.91
  -2  -3  -3   27.00    0.84
  -2  -3  -3   27.89    0.95
   2   3   3   26.81    0.95
  -3  -3  -3    2.96    0.24
  -3  -3  -3    2.66    0.34
  -3  -3  -3    3.10    0.35
  -3  -3  -3    2.80    0.34
   3   3   3    2.30    0.17
   3   3   3    2.65    0.33
  -4  -3  -3   40.51    1.40
  -4  -3  -3   41.98    1.15
  -4  -3  -3   43.68    1.40
  -4  -3  -3   41.74    1.36
   4   3   3   40.99    1.15
   4   3   3   42.49    1.39
  -5  -3  -3   -0.15    0.17
  -5  -3  -3   -0.02    0.23
  -5  -3  -3    0.39    0.21
  -6  -3  -3    4.14    0.49
  -6  -3  -3    3.20    0.48
  -7  -3  -3    0.11    0.27
  -7  -3  -3    0.28    0.34
  -8  -3  -3    0.86    0.33
  -8  -3  -3    1.04    0.49
  10  -4  -3    6.09    0.58
   9  -4  -3   -0.08    0.25
   8  -4  -3    3.89    0.46
   7  -4  -3    7.80    0.53
   7  -4  -3    7.14    0.40
   6  -4  -3    2.39    0.24
   6  -4  -3    2.13    0.31
  -6   4   3    1.69    0.12
  -6   4   3    1.84    0.13
   5  -4  -3   42.26    1.29
   5  -4  -3   41.68    1.11
   5  -4  -3   40.82    1.07
  -5   4   3   40.22    1.08
  -5   4   3   40.56    1.07
   4  -4  -3   19.36    0.61
   4  -4  -3   19.09    0.60
   4  -4  -3   19.39    0.55
   4  -4  -3   18.64    0.73
  -4   4   3   19.73    0.60
  -4   4   3   18.95    0.61
   3  -4  -3   13.69    0.49
   3  -4  -3   13.14    0.57
   3  -4  -3   13.48    0.50
  -3   4   3   13.81    0.49
  -3   4   3   12.80    0.50
   2  -4  -3   24.13    0.68
   2  -4  -3   24.98    0.79
   2  -4  -3   24.04    0.77
  -2   4   3   23.21    0.79
  -2   4   3   25.17    0.78
   1  -4  -3    5.76    0.35
   1  -4  -3    6.28    0.36
   1  -4  -3    6.39    0.30
  -1   4   3    5.47    0.35
  -1   4   3    6.32    0.38
   0  -4  -3    0.75    0.12
   0  -4  -3    1.21    0.23
   0   4   3    0.53    0.19
   0   4   3    0.86    0.18
  -1  -4  -3   60.54    1.49
  -1  -4  -3   59.80    1.69
  -1  -4  -3   59.12    1.74
  -1  -4  -3   61.83    1.67
  -1  -4  -3   60.25    1.73
   1   4   3   59.21    1.74
   1   4   3   58.66    1.68
  -2  -4  -3   10.37    0.33
  -2  -4  -3   10.00    0.54
  -2  -4  -3   10.22    0.53
  -2  -4  -3   10.71    0.46
  -2  -4  -3   11.63    0.58
   2   4   3   11.02    0.58
  -3  -4  -3    0.01    0.11
  -3  -4  -3    0.01    0.17
  -3  -4  -3    0.11    0.22
  -3  -4  -3    0.32    0.21
   3   4   3    0.30    0.22
  -4  -4  -3    0.45    0.25
  -4  -4  -3    0.55    0.26
  -4  -4  -3    0.37    0.26
   4   4   3    0.69    0.43
  -5  -4  -3    2.48    0.39
  -5  -4  -3    1.23    0.34
  -6  -4  -3    0.75    0.38
  -6  -4  -3    1.24    0.37
  -7  -4  -3    0.34    0.37
  -7  -4  -3    0.37    0.33
  10  -5  -3    0.27    0.29
   9  -5  -3    0.44    0.27
   8  -5  -3    5.88    0.56
   7  -5  -3    0.84    0.28
   6  -5  -3    3.60    0.25
   6  -5  -3    3.30    0.38
  -6   5   3    3.46    0.18
   5  -5  -3    1.92    0.17
   5  -5  -3    1.31    0.26
   5  -5  -3    1.48    0.16
   5  -5  -3    1.64    0.17
  -5   5   3    1.48    0.17
   4  -5  -3    0.08    0.10
   4  -5  -3   -0.03    0.07
   4  -5  -3   -0.18    0.14
   4  -5  -3    0.00    0.09
  -4   5   3    0.15    0.13
   3  -5  -3    0.70    0.15
   3  -5  -3    0.72    0.13
   3  -5  -3    0.72    0.16
  -3   5   3    0.66    0.17
   2  -5  -3    7.59    0.41
   2  -5  -3    7.06    0.40
   2  -5  -3    7.47    0.33
  -2   5   3    7.10    0.42
   1  -5  -3   10.65    0.45
   1  -5  -3   10.51    0.51
   1  -5  -3   10.02    0.49
  -1   5   3   10.25    0.51
   0  -5  -3    0.23    0.14
   0  -5  -3    0.23    0.17
   0  -5  -3    0.30    0.11
   0  -5  -3    0.24    0.17
   0   5   3    0.08    0.21
  -1  -5  -3    3.75    0.42
  -1  -5  -3    3.02    0.20
  -1  -5  -3    3.22    0.38
  -1  -5  -3    3.61    0.33
  -1  -5  -3    3.66    0.36
   1   5   3    4.19    0.41
  -2  -5  -3    1.82    0.32
  -2  -5  -3    2.14    0.34
  -2  -5  -3    1.56    0.22
  -2  -5  -3    1.94    0.15
  -2  -5  -3    2.31    0.36
   2   5   3    1.49    0.32
  -3  -5  -3    1.62    0.33
  -3  -5  -3    1.49    0.30
  -4  -5  -3    1.30    0.35
  -4  -5  -3    1.33    0.35
  -5  -5  -3    0.07    0.23
  -5  -5  -3   -0.01    0.28
  -6  -5  -3    0.42    0.31
  -6  -5  -3    0.21    0.34
  10  -6  -3    1.62    0.41
   9  -6  -3    5.03    0.56
   8  -6  -3   18.00    0.88
   7  -6  -3    0.27    0.26
   6  -6  -3   31.34    1.13
   6  -6  -3   30.88    0.86
   5  -6  -3    0.22    0.11
   5  -6  -3    0.12    0.21
   5  -6  -3    0.11    0.09
   5  -6  -3    0.19    0.11
  -5   6   3    0.19    0.13
   4  -6  -3   12.51    0.51
   4  -6  -3   11.72    0.49
   4  -6  -3   11.97    0.61
   4  -6  -3   11.77    0.44
  -4   6   3   12.85    0.52
   3  -6  -3   13.77    0.50
   3  -6  -3   14.09    0.59
   3  -6  -3   14.61    0.58
  -3   6   3   13.36    0.59
   2  -6  -3    5.47    0.38
   2  -6  -3    4.70    0.37
   2  -6  -3    4.94    0.31
  -2   6   3    4.26    0.38
   1  -6  -3    7.14    0.44
   1  -6  -3    6.66    0.39
   1  -6  -3    6.28    0.43
  -1   6   3    8.16    0.51
   0  -6  -3    0.48    0.18
   0  -6  -3    0.32    0.22
   0  -6  -3    0.30    0.22
   0  -6  -3    0.42    0.14
   0   6   3    0.09    0.21
  -1  -6  -3   16.40    0.79
  -1  -6  -3   15.98    0.54
  -1  -6  -3   15.80    0.80
  -1  -6  -3   16.30    0.74
   1   6   3   16.69    0.80
  -2  -6  -3   12.93    0.70
  -3  -6  -3   10.98    0.68
  -3  -6  -3   11.61    0.73
  -4  -6  -3    0.27    0.29
  -4  -6  -3   -0.31    0.25
  -5  -6  -3    0.54    0.30
  -5  -6  -3    0.15    0.30
  10  -7  -3    0.05    0.32
   9  -7  -3    4.46    0.56
   8  -7  -3    1.42    0.34
   7  -7  -3    4.88    0.53
   6  -7  -3    1.28    0.21
   6  -7  -3    1.51    0.34
   5  -7  -3   16.31    0.61
   5  -7  -3   16.02    0.62
   5  -7  -3   16.29    0.79
   4  -7  -3    0.98    0.29
   4  -7  -3    0.83    0.19
   4  -7  -3    0.51    0.15
   4  -7  -3    0.73    0.19
   3  -7  -3    0.36    0.16
   3  -7  -3    0.10    0.13
   3  -7  -3    0.09    0.15
  -3   7   3    0.09    0.20
   2  -7  -3   11.22    0.53
   2  -7  -3   11.77    0.60
   2  -7  -3   12.18    0.61
  -2   7   3   11.83    0.63
   1  -7  -3    1.46    0.28
   1  -7  -3    1.19    0.24
   1  -7  -3    1.48    0.29
   1  -7  -3    1.62    0.24
   0  -7  -3    9.55    0.46
   0  -7  -3   10.33    0.56
  -1  -7  -3    0.17    0.21
  -1  -7  -3   -0.13    0.22
  -2  -7  -3    4.13    0.51
  -2  -7  -3    4.53    0.54
  -3  -7  -3    8.41    0.67
  -3  -7  -3    7.71    0.71
  -4  -7  -3    0.86    0.35
  -4  -7  -3    1.15    0.37
   9  -8  -3    0.24    0.34
   8  -8  -3    0.15    0.29
   7  -8  -3    0.34    0.28
   6  -8  -3    4.80    0.52
   5  -8  -3    6.16    0.60
   5  -8  -3    4.91    0.36
   5  -8  -3    4.60    0.50
   4  -8  -3    1.12    0.35
   4  -8  -3    1.32    0.25
   4  -8  -3    1.76    0.26
   3  -8  -3    0.49    0.21
   3  -8  -3    0.37    0.19
   3  -8  -3    0.18    0.16
   2  -8  -3    1.65    0.29
   2  -8  -3    1.68    0.27
   2  -8  -3    1.36    0.28
   1  -8  -3    0.18    0.24
   1  -8  -3    0.08    0.18
   0  -8  -3    1.65    0.31
   0  -8  -3    1.54    0.36
  -1  -8  -3    2.00    0.41
  -1  -8  -3    1.42    0.34
  -2  -8  -3    1.49    0.39
  -2  -8  -3    1.12    0.36
   8  -9  -3    0.30    0.32
   7  -9  -3    1.95    0.43
   6  -9  -3    1.90    0.41
   5  -9  -3    8.14    0.69
   4  -9  -3   -0.07    0.25
   4  -9  -3    0.01    0.17
   4  -9  -3    0.11    0.25
   3  -9  -3    2.31    0.34
   2  -9  -3    2.60    0.39
   1  -9  -3    2.90    0.58
   1  -9  -3    3.04    0.44
   0  -9  -3   -0.19    0.27
   0  -9  -3    0.42    0.27
  -1  -9  -3    3.18    0.47
  -1  -9  -3    2.95    0.52
   6 -10  -3    0.23    0.33
   5 -10  -3    0.86    0.36
   4 -10  -3    0.42    0.28
   4 -10  -3    0.17    0.21
   3 -10  -3    4.03    0.48
   2 -10  -3    0.19    0.25
   2 -11   4   10.63    0.78
   2 -11   4   11.54    0.74
   2 -11   4   10.28    0.80
   2 -11   4   11.11    0.74
   3 -11   4    0.36    0.29
   3 -11   4   -0.29    0.21
   3 -11   4    0.15    0.31
   3 -11   4   -0.51    0.23
   4 -11   4    0.12    0.22
   4 -11   4    0.41    0.24
   4 -11   4   -0.41    0.28
   4 -11   4    0.01    0.29
   5 -11   4    1.92    0.48
   5 -11   4    2.76    0.53
   5 -11   4    3.20    0.42
   6 -11   4    0.75    0.32
   6 -11   4    0.35    0.40
  -1 -10   4    0.05    0.31
  -1 -10   4    0.21    0.30
   0 -10   4    1.67    0.43
   0 -10   4    1.68    0.41
   1 -10   4   -0.23    0.23
   1 -10   4   -0.06    0.27
   1 -10   4    0.16    0.22
   2 -10   4   22.38    1.00
   2 -10   4   22.06    0.86
   2 -10   4   21.27    1.04
   2 -10   4   23.03    1.10
   3 -10   4   -0.52    0.26
   3 -10   4    0.00    0.25
   3 -10   4   -0.11    0.18
   4 -10   4    3.41    0.50
   4 -10   4    3.53    0.42
   4 -10   4    3.58    0.40
   4 -10   4    3.16    0.52
   5 -10   4    0.18    0.31
   5 -10   4    0.10    0.21
   6 -10   4   20.87    1.12
   6 -10   4   17.49    0.87
   7 -10   4    0.55    0.31
   7 -10   4    0.77    0.38
   8 -10   4    4.58    0.55
   8 -10   4    3.40    0.61
  -3  -9   4    0.76    0.31
  -3  -9   4    0.60    0.37
  -2  -9   4    1.04    0.42
  -2  -9   4    1.76    0.41
  -1  -9   4    0.95    0.38
  -1  -9   4    0.54    0.30
   0  -9   4    0.38    0.18
   0  -9   4   -0.03    0.26
   0  -9   4   -0.06    0.29
   0  -9   4    0.10    0.19
   1  -9   4    0.27    0.27
   1  -9   4    0.36    0.29
   1  -9   4    0.37    0.19
   1  -9   4    0.39    0.21
   2  -9   4   -0.23    0.20
   2  -9   4    0.24    0.26
   2  -9   4   -0.04    0.17
   2  -9   4    0.03    0.15
   3  -9   4    2.14    0.41
   3  -9   4    2.16    0.29
   3  -9   4    2.37    0.33
   3  -9   4    2.15    0.40
   4  -9   4   -0.16    0.17
   4  -9   4    0.02    0.27
   4  -9   4    0.25    0.18
   5  -9   4    3.91    0.40
   5  -9   4    3.88    0.42
   5  -9   4    3.18    0.47
   6  -9   4   -0.24    0.26
   6  -9   4    0.24    0.24
   7  -9   4    0.70    0.31
   7  -9   4    0.38    0.38
   8  -9   4   -0.31    0.28
   8  -9   4    0.15    0.35
   9  -9   4    0.47    0.36
   9  -9   4   -0.26    0.40
  -4  -8   4    1.16    0.36
  -4  -8   4    1.53    0.46
  -3  -8   4    2.25    0.41
  -3  -8   4    3.03    0.53
  -2  -8   4    0.11    0.31
  -2  -8   4   -0.11    0.24
  -1  -8   4    3.77    0.35
  -1  -8   4    4.36    0.53
  -1  -8   4    3.93    0.53
   0  -8   4    2.64    0.33
   0  -8   4    2.47    0.41
   0  -8   4    2.79    0.44
   1  -8   4    0.01    0.16
   1  -8   4    0.01    0.16
   1  -8   4    0.01    0.23
   1  -8   4    0.08    0.23
   1  -8   4    0.06    0.14
   2  -8   4   22.12    0.89
   2  -8   4   23.35    0.80
   2  -8   4   22.45    0.95
   2  -8   4   23.37    1.02
   3  -8   4    0.48    0.19
   3  -8   4    0.40    0.18
   3  -8   4    0.16    0.23
   3  -8   4    0.29    0.24
   4  -8   4   38.20    1.18
   4  -8   4   36.92    1.20
   4  -8   4   35.88    1.36
   5  -8   4    0.72    0.24
   5  -8   4    0.89    0.33
   5  -8   4    0.68    0.18
   6  -8   4   -0.05    0.23
   6  -8   4   -0.15    0.25
   7  -8   4    2.54    0.39
   7  -8   4    2.07    0.42
   8  -8   4    4.60    0.53
   8  -8   4    4.76    0.63
   9  -8   4    1.18    0.41
   9  -8   4    1.08    0.46
  10  -8   4    0.43    0.42
  10  -8   4    1.10    0.46
  -5  -7   4    0.67    0.36
  -5  -7   4    0.64    0.34
  -4  -7   4   20.67    1.01
  -4  -7   4   21.95    1.13
  -3  -7   4    1.08    0.37
  -3  -7   4    0.71    0.28
  -2  -7   4    1.75    0.35
  -2  -7   4    1.96    0.39
  -2  -7   4    1.05    0.18
  -1  -7   4   -0.09    0.17
  -1  -7   4    0.02    0.25
  -1  -7   4    0.03    0.13
  -1  -7   4    0.10    0.21
   0  -7   4    4.34    0.49
   0  -7   4    5.30    0.53
   0  -7   4    4.17    0.36
   1  -7   4   12.89    0.62
   1  -7   4   13.82    0.52
   1  -7   4   13.72    0.73
   2  -7   4    2.00    0.24
   2  -7   4    1.67    0.30
   2  -7   4    1.61    0.33
   3  -7   4   12.73    0.54
   3  -7   4   12.61    0.68
   4  -7   4    7.19    0.56
   4  -7   4    6.12    0.41
   5  -7   4   16.93    0.73
   5  -7   4   17.56    0.88
   5  -7   4   18.84    0.63
   6  -7   4    0.22    0.23
   6  -7   4    0.08    0.12
   6  -7   4    0.43    0.28
   7  -7   4   20.66    0.99
   7  -7   4   19.38    0.87
   8  -7   4    0.23    0.31
   8  -7   4    0.74    0.37
   9  -7   4    4.22    0.50
   9  -7   4    3.80    0.55
  10  -7   4    0.11    0.31
  10  -7   4    0.20    0.38
  -6  -6   4    0.03    0.34
  -6  -6   4   -0.18    0.26
  -5  -6   4    8.05    0.64
  -5  -6   4    5.76    0.65
  -4  -6   4    8.91    0.68
  -4  -6   4    9.47    0.66
  -3  -6   4   10.14    0.69
  -3  -6   4   10.41    0.65
  -2  -6   4    3.84    0.47
  -2  -6   4    4.34    0.27
  -2  -6   4    4.97    0.28
  -2  -6   4    5.20    0.53
  -1  -6   4    6.01    0.48
  -1  -6   4    5.82    0.34
  -1  -6   4    5.99    0.49
   0  -6   4   -0.15    0.16
   0  -6   4   -0.04    0.12
   1  -6   4    1.27    0.17
   1  -6   4    1.62    0.31
   1  -6   4    1.34    0.23
   2  -6   4   21.78    0.83
   2  -6   4   18.92    0.84
   2  -6   4   20.74    0.67
   3  -6   4    0.72    0.26
   3  -6   4    0.40    0.14
   4  -6   4    4.28    0.33
   4  -6   4    4.05    0.28
   4  -6   4    4.90    0.48
   5  -6   4    2.68    0.23
   5  -6   4    3.08    0.25
   5  -6   4    2.56    0.29
   5  -6   4    2.85    0.40
   6  -6   4   18.57    0.91
   6  -6   4   18.29    0.58
   6  -6   4   18.51    0.57
   6  -6   4   20.35    0.81
   7  -6   4    9.39    0.58
   7  -6   4    8.48    0.64
   8  -6   4    0.15    0.26
   8  -6   4    0.16    0.28
   9  -6   4    1.32    0.39
   9  -6   4    2.46    0.48
  10  -6   4    1.50    0.43
  10  -6   4    1.48    0.40
  -7  -5   4    2.87    0.56
  -7  -5   4    2.86    0.51
  -6  -5   4    1.85    0.42
  -6  -5   4    2.59    0.46
  -5  -5   4    4.52    0.57
  -5  -5   4    3.78    0.48
  -4  -5   4    2.41    0.38
  -4  -5   4    2.54    0.40
  -4  -5   4    2.07    0.34
  -3  -5   4    2.65    0.39
  -3  -5   4    3.08    0.24
  -3  -5   4    3.44    0.43
  -3  -5   4    2.57    0.16
  -2  -5   4   27.77    1.04
  -2  -5   4   27.75    0.78
  -2  -5   4   27.06    0.81
  -2  -5   4   25.53    1.03
  -1  -5   4    8.31    0.38
  -1  -5   4    8.23    0.50
  -1  -5   4    8.40    0.53
   0  -5   4    1.29    0.20
   0  -5   4    1.52    0.29
   0  -5   4    1.80    0.15
   1  -5   4    0.48    0.11
   1  -5   4    0.26    0.18
   1  -5   4    0.60    0.18
   2  -5   4   -0.01    0.10
   2  -5   4   -0.09    0.14
  -3   5  -4   57.11    1.54
   3  -5   4   57.23    1.55
   3  -5   4   57.93    1.71
   4  -5   4    2.74    0.23
   4  -5   4    2.87    0.27
   4  -5   4    2.43    0.32
   4  -5   4    2.44    0.21
   5  -5   4    3.40    0.35
   5  -5   4    3.15    0.22
   5  -5   4    3.44    0.39
   5  -5   4    3.55    0.23
   6  -5   4   44.50    1.42
   6  -5   4   46.66    1.21
   6  -5   4   46.33    1.20
   6  -5   4   46.04    1.53
   7  -5   4    6.39    0.55
   7  -5   4    6.11    0.52
   7  -5   4    5.69    0.25
   8  -5   4    1.43    0.33
   8  -5   4    1.94    0.38
   9  -5   4    1.77    0.40
   9  -5   4    1.07    0.33
  10  -5   4   11.02    0.79
  10  -5   4   11.72    0.85
  -8  -4   4    0.91    0.36
  -8  -4   4    0.01    0.31
  -8  -4   4    0.11    0.30
  -7  -4   4    2.45    0.47
  -7  -4   4    3.19    0.51
  -6  -4   4    1.24    0.35
  -6  -4   4    0.61    0.32
  -5  -4   4    5.24    0.55
  -5  -4   4    6.00    0.47
  -5  -4   4    6.16    0.59
  -4  -4   4   11.37    0.65
  -4  -4   4   10.72    0.44
  -4  -4   4   11.54    0.66
  -3  -4   4    1.40    0.16
  -3  -4   4    1.39    0.29
  -3  -4   4    1.55    0.31
   2   4  -4   30.40    0.86
  -2  -4   4   27.82    1.03
  -2  -4   4   30.90    0.81
  -2  -4   4   31.41    0.87
  -2  -4   4   28.77    1.07
   1   4  -4    9.90    0.40
   1   4  -4   10.24    0.57
  -1  -4   4    9.35    0.52
  -1  -4   4    9.30    0.40
  -1  -4   4    9.62    0.52
   0   4  -4    1.91    0.22
   0  -4   4    1.12    0.23
   0  -4   4    1.76    0.21
   0  -4   4    1.78    0.13
  -1   4  -4   20.46    0.72
   1  -4   4   20.29    0.78
   1  -4   4   20.91    0.73
   1  -4   4   21.04    0.59
  -2   4  -4    5.31    0.26
  -2   4  -4    5.16    0.35
   2  -4   4    5.47    0.37
   2  -4   4    5.20    0.26
  -3   4  -4   28.82    1.04
  -3   4  -4   27.75    0.84
   3  -4   4   27.98    0.85
   3  -4   4   30.14    0.85
   3  -4   4   27.76    0.97
  -4   4  -4    4.40    0.31
   4  -4   4    5.49    0.35
   4  -4   4    5.39    0.42
   4  -4   4    5.20    0.27
   4  -4   4    4.88    0.28
   5  -4   4    9.83    0.38
   5  -4   4    9.39    0.48
   5  -4   4    9.22    0.53
   5  -4   4    9.59    0.37
   6  -4   4   14.23    0.71
   6  -4   4   13.63    0.47
   6  -4   4   13.69    0.46
   6  -4   4   13.04    0.62
  -7   4  -4   41.61    1.14
   7  -4   4   43.78    1.41
   7  -4   4   41.70    1.14
   7  -4   4   42.34    1.44
   8  -4   4   -0.01    0.26
   8  -4   4    0.01    0.23
   9  -4   4    2.86    0.46
   9  -4   4    2.83    0.45
  10  -4   4    2.13    0.43
  10  -4   4    1.73    0.42
  -8  -3   4    1.28    0.39
  -8  -3   4    1.47    0.41
  -7  -3   4    0.91    0.33
  -7  -3   4    0.60    0.31
  -6  -3   4    2.06    0.33
  -6  -3   4    2.21    0.39
  -6  -3   4    2.46    0.41
  -5  -3   4    0.79    0.29
  -5  -3   4    0.62    0.25
  -5  -3   4    0.85    0.18
   4   3  -4   14.66    0.44
  -4  -3   4   15.57    0.71
  -4  -3   4   15.32    0.52
  -4  -3   4   13.00    0.68
   3   3  -4    2.22    0.17
  -3  -3   4    2.16    0.31
  -3  -3   4    2.33    0.18
  -3  -3   4    2.26    0.30
   2   3  -4   18.99    0.75
   2   3  -4   19.65    0.60
  -2  -3   4   18.85    0.61
  -2  -3   4   19.66    0.73
  -2  -3   4   17.31    0.74
  -2  -3   4   19.83    0.52
   1   3  -4    0.97    0.22
   1   3  -4    1.00    0.15
  -1  -3   4    0.74    0.14
  -1  -3   4    1.17    0.23
   0   3  -4    8.34    0.42
   0   3  -4    7.92    0.37
   0  -3   4    8.01    0.24
   0  -3   4    8.36    0.45
   0  -3   4    8.46    0.39
  -1   3  -4    1.91    0.21
  -1   3  -4    1.91    0.14
   1  -3   4    1.73    0.21
   1  -3   4    1.72    0.23
   1  -3   4    2.01    0.15
  -2   3  -4    0.51    0.17
  -2   3  -4    0.56    0.12
   2  -3   4    0.51    0.13
   2  -3   4    0.38    0.17
   2  -3   4    0.44    0.14
  -3   3  -4   11.11    0.44
  -3   3  -4   11.38    0.51
   3  -3   4   10.74    0.45
   3  -3   4   11.51    0.54
   3  -3   4   11.23    0.42
   3  -3   4   11.12    0.43
  -4   3  -4   21.40    0.70
  -4   3  -4   22.97    0.77
  -4   3  -4   28.00    1.19
   4  -3   4   22.79    0.72
   4  -3   4   23.80    0.71
   4  -3   4   23.61    0.86
   4  -3   4   23.39    0.79
  -5   3  -4   19.88    0.63
  -5   3  -4   19.27    0.63
   5  -3   4   20.21    0.75
   5  -3   4   19.32    0.62
   5  -3   4   19.35    0.79
   5  -3   4   19.65    0.63
  -6   3  -4    3.51    0.26
  -6   3  -4    4.09    0.27
   6  -3   4    4.07    0.27
   6  -3   4    4.34    0.27
   6  -3   4    3.92    0.40
   6  -3   4    4.26    0.41
  -7   3  -4   17.85    0.64
  -7   3  -4   18.52    0.64
   7  -3   4   18.44    0.80
   7  -3   4   18.64    0.64
   7  -3   4   18.71    0.83
  -8   3  -4    0.33    0.32
  -8   3  -4    0.36    0.15
   8  -3   4    0.32    0.24
   8  -3   4    0.13    0.25
  -9   3  -4   -0.07    0.30
   9  -3   4   -0.45    0.25
   9  -3   4    0.27    0.28
 -10   3  -4   -0.16    0.35
  10  -3   4    0.01    0.29
  -9  -2   4    0.35    0.27
  -9  -2   4    0.48    0.37
   8   2  -4    9.37    0.57
  -8  -2   4    9.51    0.74
  -8  -2   4   11.06    0.78
   7   2  -4    7.51    0.46
  -7  -2   4    7.41    0.62
  -7  -2   4    8.49    0.54
  -7  -2   4    8.02    0.63
   6   2  -4   10.28    0.48
  -6  -2   4    9.92    0.64
  -6  -2   4   10.64    0.62
   5   2  -4    3.26    0.27
   5   2  -4    2.85    0.20
  -5  -2   4    3.56    0.28
  -5  -2   4    3.44    0.40
  -5  -2   4    2.86    0.39
   4   2  -4   32.61    0.95
   4   2  -4   35.04    0.94
  -4  -2   4   33.82    1.12
  -4  -2   4   33.69    0.95
  -4  -2   4   33.50    1.16
   3   2  -4   32.29    0.84
   3   2  -4   30.39    0.88
  -3  -2   4   31.54    1.01
  -3  -2   4   31.26    0.84
  -3  -2   4   31.15    1.07
   2   2  -4   11.83    0.44
   2   2  -4   12.24    0.56
   2   2  -4   11.65    0.34
  -2  -2   4   11.73    0.34
  -2  -2   4   11.57    0.55
  -2  -2   4   12.02    0.51
  -2  -2   4   11.89    0.45
   1   2  -4    0.65    0.17
   1   2  -4    0.73    0.15
  -1  -2   4    0.46    0.20
  -1  -2   4    0.96    0.17
   0   2  -4  586.38   13.85
   0   2  -4  577.22   13.79
   0   2  -4  571.19   13.89
   0  -2   4  575.58   13.89
   0  -2   4  620.28   13.85
   0  -2   4  584.55   13.85
  -1   2  -4    1.35    0.13
  -1   2  -4    1.13    0.18
   1  -2   4    1.89    0.20
   1  -2   4    1.67    0.20
   1  -2   4    1.24    0.20
   1  -2   4    1.18    0.13
   1  -2   4    1.47    0.22
  -2   2  -4    7.23    0.36
  -2   2  -4    6.41    0.32
  -2   2  -4    6.62    0.30
   2  -2   4    7.78    0.35
   2  -2   4    7.35    0.33
   2  -2   4    6.50    0.37
   2  -2   4    6.69    0.31
  -3   2  -4   69.66    1.82
  -3   2  -4   69.58    1.83
  -3   2  -4   72.36    1.85
  -3   2  -4   72.57    1.91
   3  -2   4   69.91    1.83
   3  -2   4   69.20    1.90
   3  -2   4   70.01    1.93
   3  -2   4   71.89    1.82
   3  -2   4   70.38    1.85
  -4   2  -4    0.41    0.17
  -4   2  -4    0.36    0.13
  -4   2  -4    0.40    0.14
   4  -2   4    0.46    0.17
   4  -2   4    0.57    0.15
   4  -2   4    0.24    0.18
   4  -2   4    0.49    0.14
  -5   2  -4   28.83    1.04
  -5   2  -4   28.96    0.89
  -5   2  -4   27.11    0.87
   5  -2   4   29.20    0.89
   5  -2   4   30.41    0.98
   5  -2   4   29.28    0.87
   5  -2   4   29.27    0.99
  -6   2  -4    6.24    0.49
  -6   2  -4    7.13    0.39
  -6   2  -4    6.15    0.36
   6  -2   4    6.88    0.46
   6  -2   4    6.71    0.37
   6  -2   4    6.79    0.35
   6  -2   4    6.76    0.46
  -7   2  -4   -0.02    0.15
  -7   2  -4   -0.05    0.22
  -7   2  -4    0.25    0.15
   7  -2   4   -0.07    0.15
   7  -2   4   -0.18    0.20
   7  -2   4    0.03    0.21
  -8   2  -4   -0.10    0.15
  -8   2  -4    0.25    0.17
  -8   2  -4   -0.04    0.29
   8  -2   4    0.18    0.23
   8  -2   4    0.13    0.29
  -9   2  -4    7.21    0.72
   9  -2   4    8.47    0.59
   9  -2   4    8.18    0.63
 -10   2  -4    2.59    0.51
  10  -2   4    2.44    0.49
   9   1  -4    0.09    0.22
  -9  -1   4    0.16    0.30
   8   1  -4    0.03    0.19
  -8  -1   4   -0.09    0.25
  -8  -1   4    0.22    0.31
  -8  -1   4   -0.20    0.18
   7   1  -4    1.26    0.25
  -7  -1   4    1.68    0.29
  -7  -1   4    1.05    0.35
  -7  -1   4    1.46    0.32
   6   1  -4    1.12    0.21
   6   1  -4    1.26    0.18
  -6  -1   4    1.70    0.37
  -6  -1   4    1.44    0.31
   5   1  -4    5.88    0.32
   5   1  -4    5.79    0.33
  -5  -1   4    5.49    0.39
  -5  -1   4    5.72    0.32
  -5  -1   4    5.60    0.45
   4   1  -4    4.12    0.30
   4   1  -4    3.48    0.23
   4   1  -4    3.71    0.26
  -4  -1   4    3.45    0.33
  -4  -1   4    3.61    0.23
  -4  -1   4    3.33    0.37
   3   1  -4   65.01    1.77
   3   1  -4   60.96    1.55
   3   1  -4   60.46    1.62
  -3  -1   4   61.71    1.67
  -3  -1   4   62.16    1.55
  -3  -1   4   58.87    1.74
   2   1  -4    0.07    0.13
   2   1  -4    0.27    0.12
   2   1  -4    0.28    0.08
  -2  -1   4    0.05    0.12
  -2  -1   4   -0.03    0.12
  -2  -1   4    0.12    0.15
   1   1  -4   54.34    1.47
   1   1  -4   53.72    1.44
  -1  -1   4   51.94    1.44
  -1  -1   4   55.35    1.42
  -1  -1   4   51.76    1.46
   0   1  -4    0.39    0.15
   0   1  -4    0.37    0.14
   0   1  -4    0.17    0.11
   0  -1   4    0.20    0.14
   0  -1   4    0.29    0.13
   0  -1   4    0.36    0.15
   0  -1   4    0.15    0.12
  -1   1  -4    8.97    0.40
  -1   1  -4    8.80    0.32
  -1   1  -4    8.19    0.36
  -1   1  -4    8.03    0.35
   1  -1   4    8.17    0.41
   1  -1   4    8.75    0.39
   1  -1   4    9.04    0.38
   1  -1   4    8.04    0.36
  -2   1  -4   91.38    2.31
  -2   1  -4   89.35    2.29
  -2   1  -4   89.34    2.32
  -2   1  -4   95.05    2.36
   2  -1   4   89.65    2.35
   2  -1   4   88.28    2.29
   2  -1   4   91.75    2.32
   2  -1   4   92.41    2.36
   2  -1   4   94.38    2.31
  -3   1  -4    0.62    0.15
  -3   1  -4    0.67    0.17
  -3   1  -4    0.53    0.14
  -3   1  -4    0.81    0.21
  -3   1  -4    0.85    0.17
   3  -1   4    0.41    0.17
   3  -1   4    0.39    0.14
   3  -1   4    0.75    0.17
   3  -1   4    0.67    0.19
   3  -1   4    0.67    0.18
  -4   1  -4   29.71    0.92
  -4   1  -4   29.05    0.91
  -4   1  -4   27.52    0.99
  -4   1  -4   30.15    0.94
   4  -1   4   29.59    0.95
   4  -1   4   29.78    0.96
   4  -1   4   28.91    0.91
   4  -1   4   30.87    0.90
  -5   1  -4   26.55    0.90
  -5   1  -4   27.07    0.89
  -5   1  -4   27.69    1.01
  -5   1  -4   26.89    0.87
   5  -1   4   25.92    0.92
   5  -1   4   27.13    0.88
   5  -1   4   26.02    0.91
   5  -1   4   26.83    0.86
  -6   1  -4   30.79    1.15
  -6   1  -4   31.13    1.00
  -6   1  -4   29.63    0.97
   6  -1   4   30.70    1.00
   6  -1   4   30.88    1.04
   6  -1   4   29.55    1.06
  -7   1  -4    9.71    0.51
  -7   1  -4    9.77    0.66
  -7   1  -4    9.12    0.51
   7  -1   4    9.44    0.54
   7  -1   4    9.50    0.61
   7  -1   4    9.84    0.52
  -8   1  -4    1.76    0.41
  -8   1  -4    1.74    0.29
  -8   1  -4    1.63    0.28
   8  -1   4    1.65    0.35
   8  -1   4    1.94    0.31
  -9   1  -4    2.81    0.50
   9  -1   4    2.35    0.42
  10   0  -4    0.22    0.26
 -10   0   4   -0.12    0.33
   9   0  -4    4.78    0.47
  -9   0   4    4.47    0.56
   8   0  -4    2.74    0.35
  -8   0   4    2.77    0.42
  -8   0   4    3.14    0.34
   7   0  -4    1.01    0.24
  -7   0   4    1.53    0.33
  -7   0   4    1.38    0.35
   6   0  -4    0.06    0.15
  -6   0   4    0.28    0.22
  -6   0   4    0.11    0.20
   5   0  -4    0.06    0.15
   5   0  -4    0.22    0.13
  -5   0   4    0.07    0.15
  -5   0   4    0.18    0.20
  -5   0   4    0.09    0.13
   4   0  -4   60.00    1.63
   4   0  -4   65.23    1.69
  -4   0   4   62.95    1.69
  -4   0   4   63.91    1.64
  -4   0   4   59.61    1.80
   3   0  -4   10.68    0.49
   3   0  -4   10.79    0.45
   3   0  -4   10.86    0.39
  -3   0   4   11.02    0.43
  -3   0   4   10.69    0.51
  -3   0   4   10.23    0.41
   2   0  -4   26.52    0.84
   2   0  -4   27.61    0.87
   2   0  -4   27.64    0.76
  -2   0   4   27.74    0.81
  -2   0   4   28.08    0.87
  -2   0   4   26.50    0.76
   1   0  -4    0.17    0.13
   1   0  -4   -0.06    0.11
   1   0  -4   -0.04    0.11
  -1   0   4    0.14    0.16
  -1   0   4    0.19    0.12
  -1   0   4    0.28    0.13
  -1   0   4    0.18    0.14
   0   0  -4   44.87    1.22
   0   0  -4   44.44    1.19
   0   0  -4   44.88    1.23
   0   0  -4   46.40    1.26
   0   0   4   45.20    1.23
   0   0   4   45.06    1.19
   0   0   4   45.90    1.22
   0   0   4   43.06    1.25
  -1   0  -4    7.89    0.37
  -1   0  -4    8.24    0.34
  -1   0  -4    8.52    0.39
  -1   0  -4    8.87    0.39
   1   0   4    8.16    0.40
   1   0   4    8.08    0.31
   1   0   4    8.48    0.38
   1   0   4    8.28    0.37
   1   0   4    8.68    0.40
  -2   0  -4    7.85    0.40
  -2   0  -4    7.59    0.38
  -2   0  -4    7.43    0.36
  -2   0  -4    7.75    0.38
  -2   0  -4    8.08    0.36
   2   0   4    7.50    0.36
   2   0   4    7.10    0.38
   2   0   4    7.34    0.37
   2   0   4    7.01    0.39
  -3   0  -4   12.23    0.54
  -3   0  -4   13.03    0.50
  -3   0  -4   11.99    0.50
  -3   0  -4   12.63    0.52
  -3   0  -4   12.29    0.51
   3   0   4   12.08    0.51
   3   0   4   12.46    0.56
   3   0   4   12.61    0.50
   3   0   4   12.17    0.53
  -4   0  -4    7.75    0.39
  -4   0  -4    7.70    0.46
  -4   0  -4    8.23    0.41
  -4   0  -4    7.68    0.42
   4   0   4    7.65    0.37
   4   0   4    8.13    0.42
   4   0   4    7.43    0.44
   4   0   4    7.53    0.42
   4   0   4    7.94    0.41
  -5   0  -4    5.30    0.37
  -5   0  -4    5.58    0.35
  -5   0  -4    6.35    0.46
  -5   0  -4    5.89    0.39
   5   0   4    5.81    0.43
   5   0   4    5.01    0.36
   5   0   4    6.27    0.40
   5   0   4    5.87    0.37
  -6   0  -4    0.64    0.20
  -6   0  -4    0.21    0.18
  -6   0  -4    0.19    0.15
  -6   0  -4    0.16    0.26
   6   0   4    0.57    0.23
   6   0   4    0.70    0.23
   6   0   4    0.34    0.24
   6   0   4    0.54    0.20
  -7   0  -4    2.17    0.31
  -7   0  -4    2.13    0.43
  -7   0  -4    2.33    0.32
   7   0   4    1.87    0.28
   7   0   4    2.67    0.34
   7   0   4    1.75    0.36
  -8   0  -4    0.91    0.35
  -8   0  -4    0.67    0.25
  -8   0  -4    0.50    0.24
   8   0   4    1.17    0.37
  -9   0  -4    0.54    0.39
  -9   0  -4    0.33    0.26
  10  -1  -4    3.64    0.44
 -10   1   4    3.64    0.53
   9  -1  -4   -0.37    0.21
  -9   1   4    0.10    0.27
   8  -1  -4    1.04    0.26
  -8   1   4    0.89    0.20
  -8   1   4    1.18    0.32
   7  -1  -4   18.04    0.74
  -7   1   4   18.60    0.79
   6  -1  -4   16.18    0.65
  -6   1   4   15.89    0.82
  -6   1   4   17.57    0.60
  -6   1   4   15.88    0.67
   5  -1  -4   32.15    1.00
   5  -1  -4   34.19    1.01
  -5   1   4   33.03    1.01
  -5   1   4   33.82    0.96
  -5   1   4   33.53    1.16
  -5   1   4   30.81    1.00
   4  -1  -4    0.06    0.12
   4  -1  -4    0.32    0.12
  -4   1   4    0.27    0.13
  -4   1   4    0.34    0.19
  -4   1   4    0.29    0.13
   3  -1  -4   66.49    1.74
   3  -1  -4   71.82    1.87
  -3   1   4   68.48    1.87
  -3   1   4   65.25    1.74
  -3   1   4   64.76    1.68
  -3   1   4   67.94    1.74
   2  -1  -4    0.50    0.13
   2  -1  -4    0.68    0.16
  -2   1   4    0.54    0.08
  -2   1   4    0.41    0.14
  -2   1   4    0.52    0.13
  -2   1   4    0.58    0.17
   1  -1  -4  146.94    3.49
   1  -1  -4  145.11    3.51
   1  -1  -4  139.71    3.52
   1  -1  -4  144.00    3.57
  -1   1   4  143.13    3.40
  -1   1   4  141.65    3.49
  -1   1   4  140.11    3.52
  -1   1   4  142.14    3.51
   0  -1  -4   12.34    0.49
   0  -1  -4   11.09    0.46
   0  -1  -4   11.81    0.37
   0  -1  -4   11.58    0.39
   0  -1  -4   11.01    0.47
   0   1   4   11.40    0.49
   0   1   4   11.65    0.49
   0   1   4   12.44    0.47
   0   1   4   11.32    0.40
   0   1   4   11.67    0.38
  -1  -1  -4   91.53    2.39
  -1  -1  -4   96.04    2.39
  -1  -1  -4   91.69    2.37
  -1  -1  -4   90.70    2.34
   1   1   4   97.21    2.39
   1   1   4   93.95    2.35
   1   1   4   92.44    2.39
   1   1   4   88.49    2.38
   1   1   4   91.29    2.20
  -2  -1  -4    0.26    0.14
  -2  -1  -4    0.52    0.16
  -2  -1  -4    0.60    0.17
  -2  -1  -4    0.60    0.15
  -2  -1  -4    0.39    0.15
   2   1   4    0.26    0.16
   2   1   4    0.45    0.07
   2   1   4    0.33    0.19
   2   1   4    0.37    0.18
   2   1   4    0.52    0.18
  -3  -1  -4    4.80    0.33
  -3  -1  -4    5.30    0.31
  -3  -1  -4    4.50    0.36
  -3  -1  -4    4.71    0.33
   3   1   4    4.50    0.36
   3   1   4    4.12    0.32
   3   1   4    4.93    0.23
  -4  -1  -4   26.60    0.93
  -4  -1  -4   26.22    0.98
  -4  -1  -4   27.94    0.96
  -4  -1  -4   27.56    0.87
   4   1   4   27.61    0.82
   4   1   4   27.48    0.88
   4   1   4   27.33    0.94
  -5  -1  -4    0.37    0.23
  -5  -1  -4    0.42    0.21
  -5  -1  -4    0.60    0.17
  -5  -1  -4    0.84    0.23
   5   1   4    0.51    0.17
   5   1   4    0.50    0.18
   5   1   4    0.29    0.22
  -6  -1  -4    0.07    0.19
  -6  -1  -4    0.16    0.20
  -6  -1  -4   -0.09    0.22
   6   1   4    0.12    0.16
   6   1   4    0.08    0.20
  -7  -1  -4   12.01    0.67
  -7  -1  -4   12.24    0.77
  -7  -1  -4   12.29    0.67
   7   1   4   13.03    0.69
  -8  -1  -4    4.57    0.63
  -8  -1  -4    3.81    0.44
  -9  -1  -4    0.16    0.60
  -9  -1  -4    0.76    0.31
  10  -2  -4    0.34    0.27
 -10   2   4    1.09    0.37
   9  -2  -4    4.80    0.48
  -9   2   4    4.68    0.52
   8  -2  -4    0.47    0.23
  -8   2   4    0.57    0.26
   7  -2  -4    1.17    0.25
  -7   2   4    1.29    0.27
  -7   2   4    1.10    0.17
   6  -2  -4    1.85    0.25
   6  -2  -4    2.44    0.26
  -6   2   4    1.88    0.20
  -6   2   4    1.62    0.25
  -6   2   4    2.12    0.21
   5  -2  -4    9.20    0.46
   5  -2  -4    9.92    0.40
  -5   2   4   10.03    0.39
  -5   2   4    9.75    0.40
  -5   2   4    8.97    0.41
   4  -2  -4    0.21    0.09
   4  -2  -4    0.09    0.14
  -4   2   4    0.27    0.12
  -4   2   4    0.38    0.11
  -4   2   4    0.14    0.12
   3  -2  -4   12.50    0.53
   3  -2  -4   12.43    0.46
   3  -2  -4   13.11    0.50
   3  -2  -4   13.17    0.46
  -3   2   4   13.56    0.48
  -3   2   4   12.32    0.48
   2  -2  -4   23.88    0.74
   2  -2  -4   23.52    0.73
   2  -2  -4   23.21    0.75
  -2   2   4   24.28    0.73
  -2   2   4   23.34    0.75
   1  -2  -4   10.53    0.45
   1  -2  -4   10.55    0.45
   1  -2  -4   11.24    0.33
   1  -2  -4   11.25    0.40
   1  -2  -4   10.72    0.49
  -1   2   4   11.03    0.33
  -1   2   4   11.05    0.47
  -1   2   4   11.39    0.46
   0  -2  -4   21.59    0.74
   0  -2  -4   21.46    0.58
   0  -2  -4   22.01    0.65
   0  -2  -4   22.57    0.76
   0  -2  -4   22.03    0.73
   0   2   4   21.34    0.65
   0   2   4   22.73    0.74
   0   2   4   21.39    0.75
  -1  -2  -4    1.59    0.20
  -1  -2  -4    1.51    0.22
  -1  -2  -4    1.49    0.20
  -1  -2  -4    1.52    0.22
   1   2   4    1.12    0.18
   1   2   4    1.08    0.19
   1   2   4    1.19    0.21
  -2  -2  -4    2.00    0.26
  -2  -2  -4    2.63    0.28
  -2  -2  -4    2.52    0.25
  -2  -2  -4    1.69    0.24
   2   2   4    1.93    0.27
   2   2   4    2.34    0.27
  -3  -2  -4    6.35    0.41
  -3  -2  -4    5.34    0.39
  -3  -2  -4    5.54    0.40
  -3  -2  -4    4.96    0.32
   3   2   4    5.68    0.40
   3   2   4    5.61    0.20
  -4  -2  -4   28.34    1.08
  -4  -2  -4   28.79    0.90
  -4  -2  -4   29.98    1.05
  -4  -2  -4   29.95    1.04
   4   2   4   29.43    0.92
   4   2   4   27.55    0.82
   4   2   4   29.46    1.06
  -5  -2  -4    0.09    0.22
  -5  -2  -4    0.17    0.21
  -5  -2  -4    0.12    0.19
  -5  -2  -4    0.03    0.13
   5   2   4    0.32    0.25
  -6  -2  -4    0.80    0.31
  -6  -2  -4    1.04    0.30
  -6  -2  -4    1.68    0.33
   6   2   4    1.13    0.35
  -7  -2  -4    0.18    0.28
  -7  -2  -4    0.37    0.26
  -8  -2  -4    7.04    0.63
  -8  -2  -4    5.59    0.69
  10  -3  -4    5.59    0.56
 -10   3   4    4.24    0.53
   9  -3  -4    0.38    0.27
  -9   3   4    0.05    0.25
   8  -3  -4    1.25    0.29
  -8   3   4    1.49    0.29
   7  -3  -4    6.91    0.40
   7  -3  -4    6.91    0.48
  -7   3   4    6.91    0.44
  -7   3   4    6.42    0.31
   6  -3  -4   11.01    0.54
   6  -3  -4   10.47    0.45
  -6   3   4   10.44    0.46
  -6   3   4   11.06    0.40
  -6   3   4   11.41    0.42
   5  -3  -4    7.23    0.30
   5  -3  -4    7.08    0.42
  -5   3   4    7.10    0.33
  -5   3   4    6.34    0.31
   4  -3  -4    1.97    0.19
   4  -3  -4    1.51    0.23
   4  -3  -4    1.47    0.11
  -4   3   4    1.52    0.18
  -4   3   4    1.62    0.19
   3  -3  -4   43.15    1.20
   3  -3  -4   42.89    1.29
   3  -3  -4   43.74    1.21
  -3   3   4   43.85    1.20
  -3   3   4   43.40    1.21
   2  -3  -4    0.16    0.11
   2  -3  -4   -0.08    0.10
   2  -3  -4    0.07    0.12
  -2   3   4   -0.10    0.12
  -2   3   4    0.06    0.14
   1  -3  -4   86.22    2.13
   1  -3  -4   83.06    2.22
   1  -3  -4   85.95    2.22
   1  -3  -4   83.08    2.08
  -1   3   4   85.18    2.21
  -1   3   4   85.68    2.09
  -1   3   4   83.86    2.23
   0  -3  -4   22.06    0.78
   0  -3  -4   22.10    0.59
   0  -3  -4   22.06    0.69
   0  -3  -4   23.12    0.79
   0  -3  -4   22.35    0.77
   0   3   4   21.56    0.80
   0   3   4   22.53    0.70
  -1  -3  -4   11.32    0.50
  -1  -3  -4   10.44    0.47
  -1  -3  -4   10.67    0.52
  -1  -3  -4   11.87    0.53
   1   3   4   10.37    0.53
   1   3   4   11.22    0.48
  -2  -3  -4    2.93    0.33
  -2  -3  -4    2.79    0.31
  -2  -3  -4    3.28    0.30
  -2  -3  -4    3.25    0.35
   2   3   4    2.91    0.32
  -3  -3  -4    2.26    0.33
  -3  -3  -4    2.24    0.33
  -3  -3  -4    1.80    0.30
  -3  -3  -4    2.41    0.26
   3   3   4    1.41    0.28
  -4  -3  -4    2.17    0.35
  -4  -3  -4    2.78    0.39
  -4  -3  -4    2.99    0.28
  -4  -3  -4    3.48    0.41
   4   3   4    2.64    0.39
  -5  -3  -4    5.83    0.57
  -5  -3  -4    5.51    0.52
  -6  -3  -4    7.87    0.74
  -6  -3  -4    7.98    0.61
  -7  -3  -4    0.20    0.26
  -7  -3  -4    0.12    0.30
  10  -4  -4    6.31    0.61
   9  -4  -4    0.92    0.34
   8  -4  -4    0.45    0.27
   7  -4  -4   17.55    0.77
  -7   4   4   15.62    0.55
   6  -4  -4    4.09    0.39
   6  -4  -4    4.31    0.26
  -6   4   4    4.18    0.23
  -6   4   4    4.24    0.24
   5  -4  -4    2.38    0.30
   5  -4  -4    2.59    0.22
   5  -4  -4    2.66    0.17
  -5   4   4    2.98    0.22
  -5   4   4    3.29    0.24
   4  -4  -4    1.36    0.24
   4  -4  -4    1.47    0.18
   4  -4  -4    1.53    0.18
  -4   4   4    1.26    0.19
  -4   4   4    1.23    0.17
   3  -4  -4    3.95    0.28
   3  -4  -4    4.33    0.32
   3  -4  -4    4.00    0.28
  -3   4   4    4.29    0.28
  -3   4   4    3.67    0.30
   2  -4  -4   51.35    1.47
   2  -4  -4   50.63    1.45
   2  -4  -4   51.51    1.30
   2  -4  -4   52.73    1.44
  -2   4   4   52.20    1.48
  -2   4   4   52.50    1.46
   1  -4  -4   10.86    0.51
   1  -4  -4   10.59    0.50
   1  -4  -4   10.80    0.40
   1  -4  -4   10.60    0.41
  -1   4   4   11.83    0.54
   0  -4  -4    1.23    0.11
   0  -4  -4    1.17    0.23
   0  -4  -4    1.18    0.23
   0  -4  -4    1.17    0.18
   0   4   4    1.21    0.23
   0   4   4    0.96    0.19
  -1  -4  -4   45.51    1.38
  -1  -4  -4   49.18    1.40
  -1  -4  -4   48.12    1.47
  -1  -4  -4   44.21    1.43
   1   4   4   47.12    1.40
   1   4   4   45.85    1.45
  -2  -4  -4    4.73    0.35
  -2  -4  -4    4.40    0.42
  -2  -4  -4    4.79    0.39
  -2  -4  -4    4.16    0.42
   2   4   4    4.80    0.44
  -3  -4  -4    3.72    0.30
  -3  -4  -4    2.84    0.37
  -3  -4  -4    4.00    0.46
  -3  -4  -4    4.10    0.46
   3   4   4    2.91    0.40
  -4  -4  -4    0.60    0.29
  -4  -4  -4    0.48    0.27
  -5  -4  -4    2.08    0.43
  -5  -4  -4    2.73    0.43
  -6  -4  -4   10.52    0.77
  -6  -4  -4   10.70    0.71
  -7  -4  -4    0.35    0.33
  -7  -4  -4    0.14    0.37
  10  -5  -4    0.13    0.32
   9  -5  -4    4.74    0.55
   8  -5  -4    0.01    0.25
   7  -5  -4   -0.45    0.21
   6  -5  -4    4.68    0.45
   6  -5  -4    4.77    0.25
  -6   5   4    4.14    0.25
   5  -5  -4    4.57    0.27
   5  -5  -4    4.08    0.18
   5  -5  -4    3.66    0.38
   5  -5  -4    4.18    0.27
  -5   5   4    4.38    0.27
  -5   5   4    4.05    0.28
   4  -5  -4    1.99    0.22
   4  -5  -4    2.05    0.31
   4  -5  -4    1.65    0.21
  -4   5   4    1.53    0.23
  -4   5   4    1.50    0.20
   3  -5  -4   14.97    0.59
   3  -5  -4   15.61    0.64
   3  -5  -4   15.94    0.62
   3  -5  -4   16.02    0.46
  -3   5   4   16.05    0.67
  -3   5   4   15.73    0.62
   2  -5  -4   53.64    1.55
   2  -5  -4   54.45    1.58
   2  -5  -4   56.46    1.53
   2  -5  -4   53.46    1.41
  -2   5   4   51.72    1.56
   1  -5  -4    6.51    0.42
   1  -5  -4    6.77    0.44
   1  -5  -4    6.69    0.34
  -1   5   4    6.47    0.46
   0  -5  -4    9.69    0.47
   0  -5  -4   10.14    0.55
   0  -5  -4    9.92    0.55
   0  -5  -4    9.60    0.35
   0   5   4   10.22    0.58
  -1  -5  -4    1.68    0.31
  -1  -5  -4    2.17    0.33
  -1  -5  -4    2.22    0.29
   1   5   4    2.44    0.37
  -2  -5  -4    1.68    0.33
  -2  -5  -4    1.99    0.33
  -2  -5  -4    1.48    0.33
   2   5   4    1.25    0.38
  -3  -5  -4    1.27    0.33
  -3  -5  -4    1.02    0.29
  -4  -5  -4    0.08    0.27
  -4  -5  -4    0.11    0.26
  -5  -5  -4    0.26    0.33
  -5  -5  -4    0.38    0.32
  -6  -5  -4    0.12    0.34
  -6  -5  -4    0.26    0.31
  10  -6  -4    2.04    0.45
   9  -6  -4    2.31    0.43
   8  -6  -4   10.12    0.67
   7  -6  -4    4.20    0.47
   6  -6  -4    7.07    0.34
   6  -6  -4    7.02    0.54
   5  -6  -4    8.08    0.41
   5  -6  -4    8.39    0.53
   5  -6  -4    8.08    0.40
   5  -6  -4    7.94    0.28
  -5   6   4    8.84    0.42
   4  -6  -4    0.03    0.19
   4  -6  -4    0.21    0.08
   4  -6  -4    0.18    0.13
   4  -6  -4    0.32    0.09
   4  -6  -4    0.44    0.15
  -4   6   4    0.43    0.18
   3  -6  -4   35.60    1.15
   3  -6  -4   37.34    1.01
   3  -6  -4   37.13    1.18
  -3   6   4   36.48    1.18
   2  -6  -4    0.17    0.18
   2  -6  -4    0.26    0.18
   2  -6  -4    0.35    0.13
  -2   6   4   -0.26    0.19
   1  -6  -4    0.45    0.16
   1  -6  -4    0.71    0.21
   1  -6  -4    0.60    0.20
  -1   6   4    0.20    0.20
   0  -6  -4    0.25    0.17
   0  -6  -4    0.90    0.27
   0  -6  -4    0.55    0.24
   0  -6  -4    0.40    0.12
   0   6   4    0.26    0.26
  -1  -6  -4   13.21    0.64
  -1  -6  -4   11.55    0.67
  -2  -6  -4    1.79    0.33
  -2  -6  -4    1.82    0.38
  -3  -6  -4   -0.12    0.28
  -3  -6  -4    0.07    0.24
  -4  -6  -4    1.63    0.38
  -4  -6  -4    1.67    0.38
  -5  -6  -4    0.04    0.36
  -5  -6  -4   -0.03    0.30
   9  -7  -4    6.40    0.62
   8  -7  -4    0.93    0.34
   7  -7  -4    3.87    0.47
   6  -7  -4    9.23    0.64
   5  -7  -4   12.61    0.56
   5  -7  -4   12.76    0.54
   5  -7  -4   11.91    0.71
  -5   7   4   12.48    0.58
   4  -7  -4    6.69    0.43
   4  -7  -4    7.39    0.61
   4  -7  -4    6.62    0.41
  -4   7   4    6.57    0.46
   3  -7  -4    0.07    0.12
   3  -7  -4    0.04    0.16
   3  -7  -4    0.09    0.15
  -3   7   4   -0.27    0.19
   2  -7  -4    1.01    0.26
   2  -7  -4    1.09    0.20
   2  -7  -4    1.45    0.29
  -2   7   4    1.17    0.31
   1  -7  -4    7.16    0.40
   1  -7  -4    7.35    0.44
   1  -7  -4    6.58    0.52
   1  -7  -4    7.54    0.55
  -1   7   4    8.37    0.67
   0  -7  -4   26.84    1.00
   0  -7  -4   29.07    1.14
  -1  -7  -4    0.00    0.19
  -1  -7  -4   -0.05    0.26
  -2  -7  -4    0.07    0.23
  -2  -7  -4    0.15    0.26
  -3  -7  -4   -0.06    0.31
  -3  -7  -4    0.04    0.27
   8  -8  -4   -0.38    0.27
   7  -8  -4    0.22    0.28
   6  -8  -4    0.27    0.28
   5  -8  -4    0.21    0.25
   5  -8  -4    0.11    0.16
   4  -8  -4   -0.12    0.26
   4  -8  -4    0.17    0.18
   4  -8  -4    0.19    0.17
   3  -8  -4    2.99    0.37
   3  -8  -4    3.13    0.37
   2  -8  -4    0.87    0.27
   1  -8  -4    0.03    0.19
   1  -8  -4    0.35    0.26
   0  -8  -4    3.17    0.46
   0  -8  -4    3.23    0.40
  -1  -8  -4    1.57    0.40
  -1  -8  -4    1.78    0.35
  -2  -8  -4    1.48    0.37
  -2  -8  -4    0.42    0.34
   7  -9  -4    7.50    0.72
   6  -9  -4    0.70    0.35
   5  -9  -4   -0.22    0.23
   4  -9  -4    3.44    0.39
   4  -9  -4    4.27    0.55
   3  -9  -4    0.85    0.26
   2  -9  -4    2.19    0.38
   1  -9  -4    0.31    0.28
   0  -9  -4    1.21    0.38
   2 -11   5    9.91    0.71
   2 -11   5   10.21    0.79
   2 -11   5   10.22    0.82
   3 -11   5    0.67    0.30
   3 -11   5    0.36    0.36
   3 -11   5    0.49    0.36
   4 -11   5    0.29    0.36
   4 -11   5   -0.30    0.26
   4 -11   5    0.08    0.32
   5 -11   5    3.79    0.60
   5 -11   5    3.41    0.43
   5 -11   5    3.07    0.59
   6 -11   5    0.19    0.26
   6 -11   5    0.39    0.40
  -1 -10   5    2.34    0.53
  -1 -10   5    2.01    0.46
   0 -10   5    1.83    0.46
   0 -10   5    1.72    0.43
   1 -10   5    0.11    0.28
   1 -10   5    0.22    0.22
   1 -10   5   -0.15    0.29
   2 -10   5   21.20    0.99
   2 -10   5   21.08    1.09
   2 -10   5   20.92    1.06
   3 -10   5    2.95    0.51
   3 -10   5    3.98    0.40
   3 -10   5    3.84    0.51
   4 -10   5    0.05    0.19
   4 -10   5   -0.12    0.19
   4 -10   5   -0.45    0.25
   4 -10   5   -0.09    0.28
   5 -10   5    0.85    0.27
   5 -10   5    0.79    0.39
   6 -10   5   12.25    0.71
   6 -10   5    9.96    0.81
   7 -10   5    5.97    0.71
   7 -10   5    6.57    0.59
   8 -10   5    0.25    0.34
   8 -10   5   -0.46    0.35
  -3  -9   5    0.89    0.36
  -3  -9   5    1.64    0.73
  -2  -9   5    0.29    0.30
  -2  -9   5    0.10    0.28
  -1  -9   5    2.58    0.46
  -1  -9   5    2.58    0.49
   0  -9   5    5.01    0.62
   0  -9   5    3.91    0.56
   0  -9   5    4.11    0.42
   1  -9   5    2.86    0.48
   1  -9   5    3.15    0.31
   1  -9   5    2.96    0.47
   1  -9   5    3.57    0.43
   2  -9   5   -0.14    0.14
   2  -9   5    0.32    0.22
   2  -9   5    0.09    0.22
   2  -9   5    0.34    0.28
   3  -9   5    9.90    0.51
   3  -9   5    8.81    0.69
   3  -9   5    9.27    0.55
   3  -9   5    9.76    0.66
   4  -9   5    1.24    0.24
   4  -9   5    0.97    0.34
   4  -9   5    1.49    0.38
   4  -9   5    1.68    0.28
   5  -9   5    4.84    0.44
   5  -9   5    5.61    0.49
   5  -9   5    4.61    0.56
   6  -9   5    0.28    0.35
   6  -9   5    0.25    0.25
   7  -9   5    1.02    0.32
   7  -9   5   -0.04    0.31
   8  -9   5    2.10    0.41
   8  -9   5    1.68    0.45
   9  -9   5    0.49    0.36
   9  -9   5    0.01    0.38
  -4  -8   5    4.50    0.64
  -4  -8   5    5.27    0.64
  -3  -8   5    1.73    0.42
  -3  -8   5    0.45    0.34
  -2  -8   5    1.59    0.39
  -2  -8   5    1.44    0.39
  -1  -8   5    0.19    0.16
  -1  -8   5    0.45    0.28
  -1  -8   5    0.14    0.26
   0  -8   5    3.04    0.36
   0  -8   5    2.90    0.46
   0  -8   5    2.59    0.42
   0  -8   5    2.93    0.27
   1  -8   5    0.97    0.18
   1  -8   5    0.72    0.30
   1  -8   5    0.53    0.23
   2  -8   5    3.76    0.49
   2  -8   5    3.70    0.44
   2  -8   5    4.25    0.31
   3  -8   5    0.90    0.20
   3  -8   5    1.38    0.33
   3  -8   5    1.61    0.39
   4  -8   5    1.10    0.34
   4  -8   5    1.15    0.23
   5  -8   5    1.00    0.33
   5  -8   5    1.12    0.26
   6  -8   5    1.65    0.33
   6  -8   5    1.45    0.39
   7  -8   5    2.57    0.49
   7  -8   5    2.12    0.36
   8  -8   5    1.74    0.39
   8  -8   5    1.12    0.39
   9  -8   5    5.84    0.70
   9  -8   5    5.01    0.59
  -5  -7   5    0.12    0.30
  -5  -7   5    0.03    0.30
  -4  -7   5    8.26    0.70
  -4  -7   5    7.39    0.74
  -3  -7   5    0.42    0.28
  -3  -7   5    0.14    0.31
  -2  -7   5    0.20    0.14
  -2  -7   5    0.70    0.29
  -2  -7   5    0.59    0.29
  -1  -7   5   21.74    0.99
  -1  -7   5   21.97    1.00
  -1  -7   5   21.31    0.78
   0  -7   5    0.06    0.24
   0  -7   5   -0.03    0.20
   0  -7   5    0.10    0.12
   0  -7   5   -0.03    0.14
   1  -7   5   63.41    1.68
   1  -7   5   63.72    2.00
   1  -7   5   64.50    1.88
   2  -7   5    0.06    0.22
   2  -7   5    0.14    0.20
   2  -7   5    0.07    0.12
   3  -7   5   13.97    0.71
   3  -7   5   14.15    0.57
   4  -7   5    0.04    0.16
   4  -7   5    0.18    0.25
   5  -7   5   25.45    0.83
   5  -7   5   25.80    1.08
   5  -7   5   25.43    0.92
   6  -7   5    9.59    0.69
   6  -7   5    8.74    0.56
   6  -7   5    8.71    0.41
   7  -7   5   15.62    0.79
   7  -7   5   15.98    0.88
   8  -7   5   -0.05    0.31
   8  -7   5   -0.13    0.27
   9  -7   5    0.27    0.30
   9  -7   5    0.05    0.35
  10  -7   5    5.64    0.65
  10  -7   5    5.30    0.66
  -6  -6   5    0.34    0.31
  -6  -6   5   -0.04    0.33
  -5  -6   5    5.53    0.62
  -5  -6   5    6.72    0.73
  -4  -6   5    2.76    0.46
  -4  -6   5    2.90    0.49
  -3  -6   5    1.27    0.35
  -3  -6   5    1.47    0.34
  -3  -6   5    1.67    0.25
  -2  -6   5    2.02    0.18
  -2  -6   5    2.17    0.23
  -2  -6   5    1.99    0.36
  -2  -6   5    2.33    0.41
  -1  -6   5    1.64    0.32
  -1  -6   5    1.72    0.23
  -1  -6   5    1.79    0.33
   0  -6   5    0.06    0.14
   0  -6   5   -0.03    0.21
   0  -6   5    0.00    0.09
   1  -6   5    1.80    0.27
   1  -6   5    1.74    0.18
   1  -6   5    1.61    0.31
   2  -6   5   16.93    0.78
   2  -6   5   17.26    0.59
   2  -6   5   17.83    0.75
   3  -6   5    0.71    0.25
   3  -6   5    0.56    0.15
   4  -6   5    3.89    0.31
   4  -6   5    3.14    0.30
   4  -6   5    4.01    0.43
   5  -6   5    0.17    0.19
   5  -6   5   -0.03    0.11
   5  -6   5   -0.20    0.19
   5  -6   5    0.11    0.13
   6  -6   5    5.64    0.32
   6  -6   5    4.88    0.30
   6  -6   5    6.52    0.61
   6  -6   5    5.19    0.45
   7  -6   5    0.94    0.28
   7  -6   5    1.03    0.36
   8  -6   5    3.51    0.50
   8  -6   5    3.92    0.49
   9  -6   5    2.33    0.49
   9  -6   5    2.67    0.45
  10  -6   5    1.18    0.38
  10  -6   5    1.03    0.42
  -7  -5   5    0.36    0.33
  -7  -5   5    0.60    0.39
  -6  -5   5    6.68    0.69
  -6  -5   5    5.73    0.65
  -5  -5   5    2.77    0.46
  -5  -5   5    3.08    0.49
  -4  -5   5    7.45    0.60
  -4  -5   5    7.13    0.56
  -3  -5   5   -0.05    0.22
  -3  -5   5    0.19    0.11
  -3  -5   5    0.01    0.22
  -3  -5   5    0.03    0.09
  -2  -5   5   20.56    0.57
  -2  -5   5   20.16    0.86
  -2  -5   5   17.49    0.87
  -2  -5   5   20.99    0.68
   1   5  -5    1.80    0.21
  -1  -5   5    1.87    0.12
  -1  -5   5    1.84    0.22
  -1  -5   5    2.02    0.33
  -1  -5   5    1.84    0.30
  -1  -5   5    1.89    0.13
   0   5  -5    0.11    0.12
   0  -5   5    0.22    0.08
   0  -5   5    0.16    0.20
   0  -5   5    0.08    0.13
  -1   5  -5   19.04    0.72
   1  -5   5   18.16    0.71
   1  -5   5   18.18    0.78
   1  -5   5   19.18    0.56
   2  -5   5    0.50    0.23
   2  -5   5    0.57    0.12
   2  -5   5    0.48    0.19
  -3   5  -5   94.81    2.36
   3  -5   5   88.65    2.35
   3  -5   5   92.34    2.54
   3  -5   5   92.76    2.39
   4  -5   5    8.52    0.41
   4  -5   5    8.54    0.39
   4  -5   5    8.24    0.43
   4  -5   5    8.77    0.54
   5  -5   5    0.13    0.12
   5  -5   5    0.15    0.13
   5  -5   5    0.01    0.17
   5  -5   5    0.01    0.20
   6  -5   5    5.52    0.30
   6  -5   5    5.94    0.56
   6  -5   5    5.38    0.32
   6  -5   5    5.67    0.43
   7  -5   5    0.24    0.12
   7  -5   5    0.16    0.27
   7  -5   5    0.01    0.25
   8  -5   5    1.93    0.36
   8  -5   5    1.40    0.39
   9  -5   5    0.34    0.32
   9  -5   5    0.37    0.30
  10  -5   5    1.97    0.45
  10  -5   5    1.99    0.46
  -8  -4   5    1.26    0.42
  -8  -4   5    1.22    0.43
  -7  -4   5    4.37    0.60
  -7  -4   5    4.08    0.60
  -6  -4   5   -0.27    0.22
  -6  -4   5    0.02    0.28
  -5  -4   5    7.80    0.62
  -5  -4   5    8.46    0.63
   4   4  -5   12.73    0.41
  -4  -4   5   12.18    0.72
  -4  -4   5   13.58    0.46
  -4  -4   5   12.79    0.71
   3   4  -5    7.74    0.33
  -3  -4   5    6.74    0.51
  -3  -4   5    6.79    0.49
  -3  -4   5    8.35    0.30
  -3  -4   5    7.92    0.35
   2   4  -5    0.15    0.11
  -2  -4   5    0.41    0.23
  -2  -4   5    0.27    0.12
  -2  -4   5    0.04    0.19
  -2  -4   5    0.16    0.06
   1   4  -5    0.10    0.12
  -1  -4   5    0.11    0.12
  -1  -4   5    0.24    0.21
   0   4  -5   94.70    2.42
   0  -4   5   86.17    2.40
   0  -4   5   93.21    2.53
   0  -4   5   94.96    2.20
  -1   4  -5    0.11    0.07
  -1   4  -5   -0.07    0.13
   1  -4   5    0.06    0.07
   1  -4   5    0.16    0.16
   1  -4   5    0.18    0.18
  -2   4  -5    2.82    0.20
  -2   4  -5    2.76    0.29
   2  -4   5    2.86    0.21
   2  -4   5    3.47    0.35
   2  -4   5    2.65    0.25
  -3   4  -5   32.13    0.91
   3  -4   5   30.38    0.94
   3  -4   5   30.81    0.92
   3  -4   5   31.86    0.93
   3  -4   5   28.67    1.03
   4  -4   5   46.74    1.48
   4  -4   5   48.94    1.31
   4  -4   5   46.59    1.35
   4  -4   5   45.81    1.31
   5  -4   5    2.06    0.21
   5  -4   5    2.85    0.25
   5  -4   5    2.43    0.28
   5  -4   5    2.47    0.35
  -6   4  -5    0.65    0.16
   6  -4   5    0.85    0.16
   6  -4   5    0.33    0.25
   6  -4   5    0.87    0.27
   6  -4   5    0.52    0.16
  -7   4  -5   24.23    0.77
   7  -4   5   23.94    1.01
   7  -4   5   23.89    0.77
   7  -4   5   23.66    0.96
   8  -4   5   13.15    0.75
   8  -4   5   10.99    0.70
   9  -4   5    1.25    0.37
   9  -4   5    1.56    0.41
  10  -4   5    1.72    0.41
  10  -4   5    2.16    0.44
  -8  -3   5    0.64    0.34
  -8  -3   5    0.65    0.35
  -7  -3   5    1.51    0.43
  -7  -3   5    0.69    0.35
  -6  -3   5    4.73    0.56
  -6  -3   5    3.61    0.47
  -5  -3   5    3.14    0.25
  -5  -3   5    3.18    0.40
  -5  -3   5    2.82    0.41
   4   3  -5    5.80    0.28
  -4  -3   5    6.18    0.46
  -4  -3   5    6.29    0.51
  -4  -3   5    5.80    0.28
   3   3  -5    1.84    0.18
  -3  -3   5    1.82    0.31
  -3  -3   5    1.88    0.29
  -3  -3   5    1.65    0.13
   2   3  -5    0.10    0.10
  -2  -3   5   -0.09    0.19
  -2  -3   5    0.09    0.14
  -2  -3   5    0.25    0.12
   1   3  -5  107.49    2.89
   1   3  -5  108.98    2.77
  -1  -3   5  114.50    2.79
  -1  -3   5  107.41    2.91
   0   3  -5   17.03    0.62
   0   3  -5   17.10    0.67
   0  -3   5   16.62    0.62
   0  -3   5   16.22    0.67
  -1   3  -5    4.43    0.30
  -1   3  -5    4.68    0.21
   1  -3   5    4.19    0.33
   1  -3   5    4.83    0.32
   1  -3   5    4.61    0.21
   1  -3   5    4.30    0.32
  -2   3  -5    0.19    0.10
  -2   3  -5    0.16    0.14
   2  -3   5    0.33    0.14
   2  -3   5    0.52    0.13
   2  -3   5    0.34    0.16
   2  -3   5    0.22    0.16
  -3   3  -5    2.74    0.32
  -3   3  -5    2.99    0.25
  -3   3  -5    2.93    0.26
   3  -3   5    2.49    0.24
   3  -3   5    2.18    0.28
   3  -3   5    2.78    0.49
   3  -3   5    2.93    0.26
   3  -3   5    2.60    0.25
  -4   3  -5   27.17    0.83
   4  -3   5   26.53    0.88
   4  -3   5   26.65    0.84
   4  -3   5   26.74    0.82
   4  -3   5   26.50    0.96
  -5   3  -5    5.47    0.32
  -5   3  -5    5.60    0.33
   5  -3   5    6.43    0.41
   5  -3   5    5.20    0.44
   5  -3   5    5.96    0.33
   5  -3   5    5.91    0.34
  -6   3  -5    0.65    0.16
  -6   3  -5    0.23    0.15
   6  -3   5    0.67    0.25
   6  -3   5    0.16    0.23
   6  -3   5    0.20    0.15
   6  -3   5    0.37    0.16
  -7   3  -5   -0.04    0.13
  -7   3  -5    0.05    0.14
   7  -3   5    0.19    0.14
   7  -3   5    0.21    0.16
   7  -3   5    0.15    0.25
   7  -3   5   -0.11    0.20
  -8   3  -5    1.87    0.24
   8  -3   5    1.68    0.36
   8  -3   5    2.21    0.38
   9  -3   5    3.51    0.51
   9  -3   5    3.70    0.46
  10  -3   5    0.82    0.38
  -9  -2   5    1.47    0.41
  -9  -2   5    0.58    0.41
   8   2  -5    2.81    0.34
  -8  -2   5    2.37    0.44
  -8  -2   5    1.86    0.46
   7   2  -5    8.77    0.49
  -7  -2   5   10.06    0.68
  -7  -2   5   10.37    0.75
   6   2  -5   10.87    0.49
  -6  -2   5    9.88    0.66
  -6  -2   5   10.59    0.65
   5   2  -5   18.51    0.64
   5   2  -5   19.48    0.65
  -5  -2   5   19.71    0.83
  -5  -2   5   17.89    0.85
  -5  -2   5   20.38    0.64
   4   2  -5   23.11    0.72
   4   2  -5   25.95    0.79
  -4  -2   5   26.06    0.73
  -4  -2   5   25.28    0.99
  -4  -2   5   24.94    0.91
   3   2  -5   17.23    0.49
   3   2  -5   16.74    0.59
  -3  -2   5   16.92    0.49
  -3  -2   5   16.16    0.72
  -3  -2   5   16.49    0.66
   2   2  -5   42.37    1.04
   2   2  -5   44.84    1.34
   2   2  -5   43.49    1.21
  -2  -2   5   41.12    1.22
  -2  -2   5   42.91    1.25
  -2  -2   5   42.24    1.33
   1   2  -5    2.39    0.24
   1   2  -5    2.42    0.28
  -1  -2   5    2.54    0.25
  -1  -2   5    2.03    0.26
  -1  -2   5    1.97    0.23
   0   2  -5    8.04    0.26
   0   2  -5    7.59    0.40
   0   2  -5    7.82    0.38
   0  -2   5    7.80    0.42
   0  -2   5    8.55    0.42
  -1   2  -5    9.72    0.40
  -1   2  -5    8.88    0.44
  -1   2  -5    9.02    0.32
   1  -2   5    8.43    0.41
   1  -2   5    9.41    0.43
   1  -2   5    7.61    0.41
   1  -2   5    9.07    0.33
  -2   2  -5   89.92    2.38
  -2   2  -5   95.04    2.35
  -2   2  -5   96.31    2.46
   2  -2   5   95.64    2.39
   2  -2   5   92.99    2.40
   2  -2   5   92.38    2.35
   2  -2   5   91.74    2.46
  -3   2  -5   21.83    0.70
  -3   2  -5   20.58    0.70
  -3   2  -5   22.09    0.71
  -3   2  -5   21.06    0.76
   3  -2   5   20.27    0.69
   3  -2   5   21.08    0.77
   3  -2   5   20.28    0.77
   3  -2   5   20.80    0.71
   3  -2   5   20.64    0.70
  -4   2  -5    9.93    0.45
  -4   2  -5    9.33    0.43
   4  -2   5    9.93    0.45
   4  -2   5   10.12    0.49
   4  -2   5    9.83    0.43
   4  -2   5   10.06    0.52
  -5   2  -5   18.95    0.67
  -5   2  -5   17.81    0.67
  -5   2  -5   17.67    0.79
   5  -2   5   18.03    0.67
   5  -2   5   17.25    0.71
   5  -2   5   17.70    0.65
   5  -2   5   18.17    0.75
  -6   2  -5    2.39    0.40
  -6   2  -5    2.27    0.27
  -6   2  -5    1.97    0.26
   6  -2   5    2.19    0.27
   6  -2   5    2.09    0.31
   6  -2   5    2.44    0.34
  -7   2  -5    0.07    0.27
  -7   2  -5   -0.31    0.15
  -7   2  -5    0.02    0.17
   7  -2   5    0.11    0.23
   7  -2   5   -0.06    0.16
   7  -2   5   -0.07    0.25
  -8   2  -5    3.64    0.36
  -8   2  -5    2.98    0.37
  -8   2  -5    3.67    0.51
   8  -2   5    3.51    0.48
   8  -2   5    4.32    0.38
   8  -2   5    3.64    0.45
  -9   2  -5    4.64    0.63
   9  -2   5    3.18    0.69
   9  -2   5    4.36    0.55
   9   1  -5    3.03    0.39
  -9  -1   5    2.19    0.46
   8   1  -5    1.11    0.25
  -8  -1   5    0.93    0.33
  -8  -1   5    0.95    0.38
  -8  -1   5    1.40    0.29
   7   1  -5    0.98    0.21
  -7  -1   5    0.83    0.30
  -7  -1   5    1.00    0.37
   6   1  -5   12.64    0.53
   6   1  -5   11.95    0.52
  -6  -1   5   12.35    0.65
  -6  -1   5   12.80    0.75
   5   1  -5    5.46    0.33
   5   1  -5    5.00    0.30
  -5  -1   5    5.21    0.51
  -5  -1   5    5.37    0.40
  -5  -1   5    5.02    0.30
   4   1  -5    1.35    0.20
   4   1  -5    1.64    0.17
  -4  -1   5    1.18    0.16
  -4  -1   5    0.92    0.27
  -4  -1   5    1.32    0.22
   3   1  -5   70.65    1.91
   3   1  -5   71.37    1.78
  -3  -1   5   70.98    1.90
  -3  -1   5   73.23    2.03
   2   1  -5    2.74    0.31
   2   1  -5    3.03    0.28
   2   1  -5    2.26    0.15
  -2  -1   5    2.69    0.25
  -2  -1   5    2.16    0.25
  -2  -1   5    2.38    0.25
  -2  -1   5    2.37    0.29
   1   1  -5    6.44    0.36
   1   1  -5    6.44    0.38
  -1  -1   5    5.99    0.36
  -1  -1   5    6.90    0.39
  -1  -1   5    6.61    0.37
  -1  -1   5    6.80    0.35
   0   1  -5    8.19    0.40
   0   1  -5    8.21    0.37
   0   1  -5    7.45    0.38
   0  -1   5    7.24    0.38
   0  -1   5    7.60    0.39
   0  -1   5    9.06    0.39
   0  -1   5    8.21    0.41
  -1   1  -5    0.51    0.12
  -1   1  -5    0.36    0.17
  -1   1  -5    0.39    0.15
  -1   1  -5    0.32    0.14
   1  -1   5    0.56    0.16
   1  -1   5    0.38    0.18
   1  -1   5    0.43    0.17
   1  -1   5    0.50    0.14
  -2   1  -5   45.62    1.29
  -2   1  -5   43.81    1.25
  -2   1  -5   44.46    1.22
  -2   1  -5   43.66    1.26
   2  -1   5   44.49    1.25
   2  -1   5   43.22    1.26
   2  -1   5   44.36    1.28
  -3   1  -5    7.65    0.41
  -3   1  -5    6.71    0.43
  -3   1  -5    7.37    0.39
  -3   1  -5    7.31    0.38
  -3   1  -5    7.04    0.38
   3  -1   5    7.27    0.42
   3  -1   5    7.79    0.39
   3  -1   5    7.29    0.44
   3  -1   5    6.45    0.36
   3  -1   5    7.45    0.40
  -4   1  -5    0.60    0.17
  -4   1  -5    0.58    0.21
  -4   1  -5    0.30    0.15
  -4   1  -5    0.34    0.15
   4  -1   5    0.50    0.20
   4  -1   5    0.24    0.17
   4  -1   5    0.27    0.15
   4  -1   5    0.21    0.19
  -5   1  -5    0.45    0.17
  -5   1  -5    0.53    0.25
  -5   1  -5    0.46    0.18
   5  -1   5    0.41    0.19
   5  -1   5    0.20    0.19
   5  -1   5    0.29    0.20
  -6   1  -5   29.75    1.00
  -6   1  -5   28.38    1.13
  -6   1  -5   30.13    1.02
   6  -1   5   27.86    0.98
   6  -1   5   30.51    1.03
   6  -1   5   27.29    1.06
  -7   1  -5    1.65    0.29
  -7   1  -5    1.74    0.29
  -7   1  -5    1.15    0.34
   7  -1   5    1.62    0.29
   7  -1   5    1.50    0.32
   7  -1   5    1.65    0.31
  -8   1  -5    0.06    0.34
  -8   1  -5    0.31    0.21
  -8   1  -5    0.06    0.20
   8  -1   5   -0.01    0.30
   8  -1   5    0.04    0.22
   8  -1   5    0.46    0.24
  -9   1  -5    1.66    0.47
   9  -1   5    1.51    0.39
  10   0  -5   -0.24    0.24
 -10   0   5    0.19    0.35
   9   0  -5    2.52    0.36
  -9   0   5    2.95    0.48
   8   0  -5    0.96    0.25
  -8   0   5    0.84    0.39
  -8   0   5    0.79    0.31
   7   0  -5    8.69    0.49
  -7   0   5    8.60    0.68
  -7   0   5    9.44    0.59
   6   0  -5    2.24    0.26
   6   0  -5    2.65    0.30
  -6   0   5    2.74    0.33
  -6   0   5    2.43    0.39
   5   0  -5    0.97    0.17
   5   0  -5    1.02    0.21
   5   0  -5    0.71    0.18
  -5   0   5    0.50    0.15
  -5   0   5    0.57    0.19
  -5   0   5    1.03    0.29
  -5   0   5    0.91    0.19
   4   0  -5    0.11    0.13
   4   0  -5   -0.14    0.10
  -4   0   5   -0.05    0.13
  -4   0   5   -0.01    0.17
  -4   0   5    0.22    0.14
   3   0  -5    0.15    0.16
   3   0  -5    0.24    0.14
   3   0  -5    0.30    0.11
  -3   0   5   -0.06    0.13
  -3   0   5    0.41    0.13
  -3   0   5    0.23    0.20
   2   0  -5   12.93    0.53
   2   0  -5   14.26    0.56
  -2   0   5   12.01    0.54
  -2   0   5   13.72    0.51
  -2   0   5   12.70    0.52
  -2   0   5   12.48    0.44
   1   0  -5   15.09    0.56
   1   0  -5   16.68    0.58
   1   0  -5   15.52    0.60
  -1   0   5   14.87    0.60
  -1   0   5   16.02    0.59
  -1   0   5   16.03    0.58
  -1   0   5   15.37    0.58
   0   0  -5    9.15    0.38
   0   0  -5    9.74    0.46
   0   0  -5    8.96    0.43
   0   0  -5    9.43    0.42
   0   0   5    9.11    0.37
   0   0   5    8.37    0.44
   0   0   5    8.92    0.38
   0   0   5    9.20    0.43
   0   0   5    8.79    0.46
  -1   0  -5    5.14    0.34
  -1   0  -5    5.75    0.34
  -1   0  -5    5.32    0.35
  -1   0  -5    5.60    0.31
   1   0   5    5.51    0.36
   1   0   5    5.67    0.32
   1   0   5    5.14    0.27
   1   0   5    5.84    0.35
   1   0   5    5.33    0.38
  -2   0  -5    5.18    0.35
  -2   0  -5    5.97    0.34
  -2   0  -5    6.22    0.37
  -2   0  -5    5.21    0.35
  -2   0  -5    5.65    0.36
   2   0   5    6.62    0.37
   2   0   5    5.96    0.38
   2   0   5    5.65    0.27
   2   0   5    5.57    0.37
   2   0   5    4.94    0.37
  -3   0  -5   19.42    0.74
  -3   0  -5   20.26    0.71
  -3   0  -5   19.02    0.72
  -3   0  -5   18.18    0.69
   3   0   5   19.24    0.71
   3   0   5   21.11    0.78
   3   0   5   17.67    0.70
  -4   0  -5   28.02    0.93
  -4   0  -5   26.94    1.00
  -4   0  -5   27.16    0.94
  -4   0  -5   28.31    0.92
   4   0   5   27.25    0.93
   4   0   5   27.72    0.95
  -5   0  -5    9.36    0.50
  -5   0  -5    7.76    0.53
  -5   0  -5    8.61    0.48
   5   0   5    8.42    0.43
   5   0   5    8.99    0.51
   5   0   5    8.08    0.48
  -6   0  -5    2.93    0.35
  -6   0  -5    2.95    0.35
  -6   0  -5    1.92    0.36
   6   0   5    2.84    0.36
   6   0   5    2.64    0.32
  -7   0  -5    2.17    0.45
  -7   0  -5    1.71    0.31
  -7   0  -5    1.75    0.31
   7   0   5    1.95    0.31
   7   0   5    1.51    0.32
  -8   0  -5    1.97    0.34
  -8   0  -5    2.68    0.52
  -9   0  -5    1.49    0.43
  -9   0  -5    1.02    0.41
  10  -1  -5   -0.37    0.23
 -10   1   5    0.04    0.31
   9  -1  -5    1.42    0.31
  -9   1   5    1.50    0.37
   8  -1  -5   -0.13    0.19
  -8   1   5    0.20    0.24
   7  -1  -5   58.91    1.71
  -7   1   5   61.97    1.77
  -7   1   5   56.01    1.94
   6  -1  -5    0.41    0.19
   6  -1  -5    0.67    0.19
  -6   1   5    0.71    0.29
  -6   1   5    0.86    0.19
  -6   1   5    0.56    0.20
   5  -1  -5   24.62    0.83
   5  -1  -5   26.80    0.82
  -5   1   5   24.83    0.83
  -5   1   5   26.74    0.83
  -5   1   5   24.43    0.99
  -5   1   5   26.22    0.84
   4  -1  -5    3.38    0.25
  -4   1   5    3.37    0.37
  -4   1   5    3.29    0.27
  -4   1   5    3.27    0.27
  -4   1   5    3.41    0.24
   3  -1  -5  102.48    2.58
   3  -1  -5   95.70    2.45
   3  -1  -5   98.44    2.56
  -3   1   5   90.99    2.56
  -3   1   5   95.75    2.36
  -3   1   5   95.45    2.47
  -3   1   5   97.37    2.46
   2  -1  -5    2.91    0.29
   2  -1  -5    2.55    0.24
   2  -1  -5    3.01    0.27
   2  -1  -5    2.29    0.24
  -2   1   5    2.33    0.14
  -2   1   5    2.62    0.28
  -2   1   5    2.24    0.23
  -2   1   5    2.43    0.24
   1  -1  -5  131.66    3.21
   1  -1  -5  126.79    3.25
   1  -1  -5  133.19    3.30
   1  -1  -5  127.26    3.23
  -1   1   5  130.72    3.11
  -1   1   5  126.40    3.25
  -1   1   5  124.65    3.20
  -1   1   5  133.59    3.24
   0  -1  -5   12.04    0.49
   0  -1  -5   11.68    0.50
   0  -1  -5   13.03    0.42
   0  -1  -5   12.54    0.53
   0   1   5   12.31    0.50
   0   1   5   11.98    0.56
   0   1   5   12.51    0.44
   0   1   5   12.51    0.42
   0   1   5   11.83    0.51
  -1  -1  -5    1.40    0.22
  -1  -1  -5    1.20    0.18
  -1  -1  -5    1.21    0.22
  -1  -1  -5    1.27    0.21
   1   1   5    1.07    0.19
   1   1   5    1.06    0.11
   1   1   5    0.81    0.18
   1   1   5    0.79    0.19
   1   1   5    1.20    0.23
  -2  -1  -5   35.79    1.11
  -2  -1  -5   35.80    1.12
  -2  -1  -5   36.75    1.15
  -2  -1  -5   36.30    1.12
   2   1   5   35.36    1.13
   2   1   5   37.62    1.13
   2   1   5   37.89    1.15
   2   1   5   36.78    0.91
  -3  -1  -5    0.09    0.15
  -3  -1  -5    0.43    0.16
  -3  -1  -5    0.16    0.15
  -3  -1  -5    0.43    0.17
   3   1   5    0.17    0.17
   3   1   5    0.27    0.09
   3   1   5    0.15    0.17
  -4  -1  -5   72.58    1.92
  -4  -1  -5   67.23    1.95
  -4  -1  -5   71.23    2.00
  -4  -1  -5   67.62    2.02
   4   1   5   70.31    1.93
   4   1   5   67.75    1.77
   4   1   5   69.76    1.99
  -5  -1  -5    4.69    0.48
  -5  -1  -5    4.83    0.45
  -5  -1  -5    4.87    0.44
  -5  -1  -5    4.80    0.36
   5   1   5    4.48    0.30
   5   1   5    4.76    0.44
   5   1   5    4.94    0.38
  -6  -1  -5    0.24    0.23
  -6  -1  -5   -0.16    0.20
  -6  -1  -5   -0.02    0.20
   6   1   5   -0.04    0.17
   6   1   5   -0.09    0.19
  -7  -1  -5    1.11    0.29
  -7  -1  -5    1.67    0.39
  -8  -1  -5    3.56    0.46
  -8  -1  -5    3.14    0.56
  10  -2  -5    0.28    0.28
 -10   2   5    0.33    0.31
   9  -2  -5    0.78    0.28
  -9   2   5    1.17    0.32
   8  -2  -5    1.34    0.30
  -8   2   5    1.86    0.32
   7  -2  -5    0.54    0.22
  -7   2   5    1.02    0.25
  -7   2   5    0.56    0.17
   6  -2  -5    2.94    0.28
   6  -2  -5    2.45    0.29
  -6   2   5    3.06    0.28
  -6   2   5    3.48    0.27
  -6   2   5    3.15    0.30
   5  -2  -5    0.96    0.15
   5  -2  -5    0.82    0.20
  -5   2   5    0.99    0.17
  -5   2   5    0.93    0.17
  -5   2   5    0.81    0.18
   4  -2  -5   25.63    0.85
  -4   2   5   26.65    0.81
  -4   2   5   25.46    0.71
  -4   2   5   25.83    0.96
  -4   2   5   26.15    0.82
   3  -2  -5    4.86    0.30
   3  -2  -5    5.59    0.35
   3  -2  -5    5.03    0.31
  -3   2   5    4.87    0.38
  -3   2   5    4.99    0.32
  -3   2   5    5.50    0.35
   2  -2  -5   75.80    2.03
   2  -2  -5   79.52    2.04
   2  -2  -5   79.75    2.14
   2  -2  -5   74.23    2.04
  -2   2   5   78.03    2.05
  -2   2   5   77.57    2.03
  -2   2   5   76.32    2.04
   1  -2  -5   13.01    0.46
   1  -2  -5   13.04    0.54
   1  -2  -5   13.02    0.53
   1  -2  -5   13.80    0.59
  -1   2   5   13.49    0.57
  -1   2   5   13.89    0.41
  -1   2   5   13.78    0.55
   0  -2  -5   -0.02    0.13
   0  -2  -5    0.05    0.10
   0  -2  -5   -0.01    0.07
   0  -2  -5   -0.16    0.13
   0  -2  -5   -0.07    0.13
   0   2   5   -0.08    0.14
   0   2   5    0.02    0.11
   0   2   5   -0.09    0.16
  -1  -2  -5    6.48    0.34
  -1  -2  -5    7.15    0.40
  -1  -2  -5    6.11    0.38
  -1  -2  -5    6.22    0.38
   1   2   5    6.12    0.35
   1   2   5    5.95    0.43
  -2  -2  -5   13.33    0.58
  -2  -2  -5   13.46    0.62
  -2  -2  -5   12.89    0.60
  -2  -2  -5   13.66    0.59
   2   2   5   14.62    0.63
   2   2   5   12.78    0.58
  -3  -2  -5   -0.01    0.15
  -3  -2  -5    0.10    0.17
  -3  -2  -5    0.21    0.16
  -3  -2  -5   -0.19    0.14
   3   2   5   -0.37    0.18
  -4  -2  -5   28.57    0.94
  -4  -2  -5   29.05    1.09
  -4  -2  -5   29.04    1.05
  -4  -2  -5   26.37    1.01
   4   2   5   28.26    0.95
   4   2   5   27.95    1.04
   4   2   5   26.81    0.73
  -5  -2  -5    0.22    0.25
  -5  -2  -5    0.51    0.22
  -5  -2  -5    0.32    0.21
   5   2   5    0.85    0.30
  -6  -2  -5    1.12    0.32
  -6  -2  -5    1.60    0.40
  -7  -2  -5    1.11    0.40
  -7  -2  -5    1.80    0.36
  -8  -2  -5    2.59    0.45
  -8  -2  -5    3.35    0.58
  10  -3  -5    2.20    0.40
   9  -3  -5    0.39    0.28
  -9   3   5    0.52    0.28
   8  -3  -5    0.22    0.23
  -8   3   5    0.51    0.22
   7  -3  -5    0.21    0.20
  -7   3   5    0.37    0.14
  -7   3   5    0.12    0.17
   6  -3  -5   -0.02    0.10
   6  -3  -5   -0.37    0.15
  -6   3   5   -0.05    0.11
  -6   3   5    0.02    0.13
  -6   3   5    0.02    0.12
   5  -3  -5   33.91    1.12
  -5   3   5   35.66    1.04
  -5   3   5   35.70    1.02
   4  -3  -5    7.15    0.41
   4  -3  -5    6.64    0.35
  -4   3   5    6.84    0.38
  -4   3   5    7.89    0.37
   3  -3  -5    9.79    0.43
   3  -3  -5    9.90    0.47
   3  -3  -5    8.96    0.43
  -3   3   5    9.81    0.46
  -3   3   5    9.12    0.43
   2  -3  -5    0.91    0.17
   2  -3  -5    0.57    0.15
   2  -3  -5    0.97    0.17
  -2   3   5    0.63    0.17
  -2   3   5    0.63    0.18
   1  -3  -5    7.94    0.33
   1  -3  -5    7.80    0.29
   1  -3  -5    6.96    0.40
   1  -3  -5    8.04    0.43
  -1   3   5    7.82    0.45
  -1   3   5    7.37    0.29
   0  -3  -5    0.88    0.15
   0  -3  -5    1.02    0.22
   0  -3  -5    0.68    0.08
   0  -3  -5    0.75    0.21
   0   3   5    0.65    0.16
   0   3   5    0.50    0.19
  -1  -3  -5    6.85    0.43
  -1  -3  -5    7.52    0.48
  -1  -3  -5    6.11    0.44
  -1  -3  -5    6.56    0.38
   1   3   5    7.55    0.50
   1   3   5    6.92    0.39
  -2  -3  -5   17.12    0.68
  -2  -3  -5   15.82    0.69
  -2  -3  -5   16.57    0.74
  -2  -3  -5   16.09    0.72
   2   3   5   16.75    0.75
  -3  -3  -5   -0.12    0.19
  -3  -3  -5    0.20    0.20
  -3  -3  -5    0.17    0.19
  -3  -3  -5    0.10    0.15
   3   3   5    0.46    0.25
  -4  -3  -5    0.82    0.26
  -4  -3  -5    0.70    0.24
  -4  -3  -5    0.88    0.29
   4   3   5    0.90    0.31
  -5  -3  -5    1.00    0.35
  -5  -3  -5    0.50    0.25
  -6  -3  -5    1.20    0.32
  -6  -3  -5    0.25    0.32
  -7  -3  -5    0.54    0.30
  -7  -3  -5    0.19    0.36
  10  -4  -5    0.44    0.32
   9  -4  -5    1.32    0.33
   8  -4  -5    6.92    0.52
   7  -4  -5    8.27    0.55
   6  -4  -5   16.10    0.51
   6  -4  -5   16.97    0.72
  -6   4   5   16.37    0.58
  -6   4   5   18.00    0.70
   5  -4  -5    4.03    0.38
   5  -4  -5    5.16    0.31
  -5   4   5    5.81    0.34
  -5   4   5    5.02    0.31
   4  -4  -5   17.95    0.62
   4  -4  -5   16.85    0.71
   4  -4  -5   17.79    0.64
  -4   4   5   17.01    0.64
  -4   4   5   16.49    0.62
   3  -4  -5    1.84    0.23
   3  -4  -5    1.73    0.23
   3  -4  -5    1.99    0.26
  -3   4   5    1.77    0.25
  -3   4   5    1.66    0.23
   2  -4  -5   55.38    1.62
   2  -4  -5   56.77    1.39
   2  -4  -5   58.71    1.56
   2  -4  -5   54.87    1.60
  -2   4   5   56.90    1.63
   1  -4  -5    2.55    0.29
   1  -4  -5    2.85    0.30
   1  -4  -5    2.49    0.20
   1  -4  -5    2.54    0.19
  -1   4   5    2.92    0.35
   0  -4  -5    2.99    0.28
   0  -4  -5    3.41    0.37
   0  -4  -5    3.03    0.35
   0   4   5    3.24    0.27
   0   4   5    3.25    0.38
  -1  -4  -5    0.52    0.18
  -1  -4  -5    1.22    0.27
  -1  -4  -5    0.95    0.26
   1   4   5    0.61    0.23
  -2  -4  -5   23.36    0.90
  -2  -4  -5   23.60    0.96
  -2  -4  -5   24.23    0.95
   2   4   5   23.12    0.95
  -3  -4  -5   17.81    0.82
  -3  -4  -5   17.73    0.84
  -4  -4  -5    0.50    0.28
  -4  -4  -5    0.70    0.30
  -5  -4  -5    0.50    0.33
  -5  -4  -5    0.00    0.24
  -6  -4  -5    4.38    0.54
  -6  -4  -5    5.21    0.65
  10  -5  -5   -0.38    0.26
   9  -5  -5    1.69    0.35
   8  -5  -5    3.50    0.44
   7  -5  -5    2.15    0.35
   6  -5  -5   11.56    0.63
   6  -5  -5   11.22    0.46
  -6   5   5   11.64    0.47
   5  -5  -5    0.08    0.13
   5  -5  -5    0.10    0.12
   5  -5  -5    0.08    0.20
  -5   5   5    0.07    0.14
  -5   5   5    0.23    0.16
   4  -5  -5    0.14    0.13
   4  -5  -5    0.19    0.15
   4  -5  -5    0.14    0.18
  -4   5   5   -0.02    0.17
   3  -5  -5    2.27    0.28
   3  -5  -5    2.20    0.28
   3  -5  -5    2.06    0.27
  -3   5   5    2.41    0.31
   2  -5  -5   31.38    1.07
   2  -5  -5   31.98    0.88
   2  -5  -5   31.60    1.06
   2  -5  -5   32.85    1.00
  -2   5   5   31.29    1.08
   1  -5  -5    3.04    0.22
   1  -5  -5    3.58    0.38
   1  -5  -5    4.11    0.40
   1  -5  -5    2.90    0.25
  -1   5   5    3.01    0.36
   0  -5  -5    0.84    0.24
   0  -5  -5    1.19    0.21
   0  -5  -5    0.85    0.24
   0   5   5    0.71    0.25
  -1  -5  -5    2.51    0.32
  -1  -5  -5    2.45    0.37
  -1  -5  -5    2.69    0.39
   1   5   5    1.19    0.31
  -2  -5  -5   11.67    0.69
  -2  -5  -5   11.94    0.65
  -3  -5  -5   13.12    0.73
  -3  -5  -5   12.72    0.73
  -4  -5  -5    3.41    0.48
  -4  -5  -5    3.55    0.49
  -5  -5  -5    2.17    0.40
  -5  -5  -5    3.34    0.54
   9  -6  -5    0.11    0.27
   8  -6  -5    0.40    0.28
   7  -6  -5   -0.02    0.25
   6  -6  -5    7.83    0.40
   6  -6  -5    8.71    0.60
   5  -6  -5    5.43    0.36
   5  -6  -5    5.91    0.53
   5  -6  -5    5.11    0.37
  -5   6   5    5.59    0.37
   4  -6  -5    0.35    0.16
   4  -6  -5    0.22    0.15
  -4   6   5    0.32    0.18
   3  -6  -5    9.32    0.33
   3  -6  -5    9.54    0.51
   3  -6  -5    9.77    0.53
  -3   6   5    9.47    0.55
   2  -6  -5    2.94    0.23
   2  -6  -5    3.65    0.40
   2  -6  -5    3.43    0.35
   2  -6  -5    3.83    0.39
  -2   6   5    3.28    0.39
   1  -6  -5    1.59    0.31
   1  -6  -5    1.06    0.20
   1  -6  -5    1.01    0.27
  -1   6   5    0.47    0.27
   0  -6  -5    1.95    0.54
   0  -6  -5    1.85    0.36
   0  -6  -5    2.19    0.29
  -1  -6  -5    1.24    0.31
  -1  -6  -5    1.65    0.31
  -2  -6  -5    0.38    0.26
  -2  -6  -5    0.27    0.26
  -3  -6  -5    0.12    0.27
  -3  -6  -5    0.20    0.26
  -4  -6  -5    4.24    0.57
  -4  -6  -5    3.75    0.55
   9  -7  -5    0.90    0.32
   8  -7  -5    3.79    0.52
   7  -7  -5    2.40    0.42
   6  -7  -5    4.07    0.50
   5  -7  -5    0.24    0.17
   5  -7  -5    0.54    0.18
   5  -7  -5    0.28    0.27
   4  -7  -5    3.10    0.34
   4  -7  -5    3.31    0.36
  -4   7   5    3.64    0.38
   3  -7  -5    1.98    0.31
   3  -7  -5    1.78    0.30
  -3   7   5    1.52    0.31
   2  -7  -5    3.65    0.40
   2  -7  -5    3.15    0.39
   2  -7  -5    4.72    0.47
  -2   7   5    4.89    0.48
   1  -7  -5    0.52    0.26
   1  -7  -5    0.15    0.15
   0  -7  -5    2.71    0.34
   0  -7  -5    1.96    0.39
  -1  -7  -5    0.71    0.25
  -1  -7  -5    0.37    0.27
  -2  -7  -5    0.32    0.25
  -2  -7  -5   -0.58    0.23
  -3  -7  -5    2.10    0.48
  -3  -7  -5    2.23    0.43
   8  -8  -5    0.89    0.33
   7  -8  -5    5.69    0.62
   6  -8  -5    0.31    0.28
   5  -8  -5    0.27    0.29
   5  -8  -5    0.31    0.18
   4  -8  -5    3.83    0.40
   4  -8  -5    4.23    0.43
   3  -8  -5   13.66    0.70
   2  -8  -5    0.81    0.27
   1  -8  -5    0.46    0.28
   0  -8  -5   -0.34    0.24
  -1  -8  -5    0.23    0.29
   6  -9  -5    3.59    0.53
   5  -9  -5    1.68    0.40
   4  -9  -5    2.11    0.35
   4  -9  -5    3.01    0.49
   3  -9  -5    1.72    0.35
   2  -9  -5    2.84    0.45
   1  -9  -5    2.98    0.45
   2 -11   6    2.60    0.51
   2 -11   6    1.33    0.34
   2 -11   6    1.27    0.39
   3 -11   6    0.13    0.33
   3 -11   6   -0.18    0.26
   4 -11   6   -0.13    0.34
   4 -11   6   -0.30    0.27
   5 -11   6    1.06    0.47
   5 -11   6    1.21    0.43
  -1 -10   6    7.68    0.82
  -1 -10   6    9.27    0.78
   0 -10   6    1.02    0.38
   0 -10   6    0.89    0.36
   1 -10   6    0.30    0.25
   1 -10   6    0.15    0.31
   1 -10   6   -0.16    0.25
   2 -10   6   -0.19    0.23
   2 -10   6   -0.30    0.26
   3 -10   6    0.39    0.30
   3 -10   6    0.02    0.31
   4 -10   6    9.27    0.75
   4 -10   6    8.60    0.53
   4 -10   6    9.80    0.62
   4 -10   6    8.85    0.87
   5 -10   6    3.13    0.40
   5 -10   6    3.14    0.58
   5 -10   6    2.73    0.49
   6 -10   6    0.22    0.25
   6 -10   6    0.01    0.36
   7 -10   6   11.15    0.73
   7 -10   6    9.20    0.91
   8 -10   6    2.60    0.43
  -2  -9   6    0.30    0.35
  -2  -9   6    0.37    0.33
  -1  -9   6    4.56    0.62
  -1  -9   6    3.50    0.54
   0  -9   6    4.81    0.60
   0  -9   6    6.93    0.74
   0  -9   6    4.53    0.44
   1  -9   6    0.05    0.30
   1  -9   6    0.15    0.21
   1  -9   6    0.89    0.34
   2  -9   6   -0.26    0.22
   2  -9   6    0.07    0.14
   2  -9   6   -0.23    0.20
   3  -9   6    8.03    0.71
   3  -9   6    8.85    0.65
   3  -9   6    8.53    0.47
   4  -9   6    1.84    0.43
   4  -9   6    1.51    0.36
   4  -9   6    1.88    0.29
   5  -9   6    1.42    0.28
   5  -9   6    1.81    0.42
   6  -9   6    0.19    0.24
   6  -9   6    0.67    0.38
   7  -9   6    4.40    0.63
   7  -9   6    3.81    0.47
   8  -9   6    4.37    0.67
   8  -9   6    5.43    0.60
  -4  -8   6   -0.13    0.30
  -4  -8   6   -0.15    0.35
  -3  -8   6    3.66    0.56
  -3  -8   6    3.49    0.58
  -2  -8   6    0.20    0.29
  -2  -8   6   -0.08    0.29
  -1  -8   6    4.13    0.56
  -1  -8   6    4.32    0.40
  -1  -8   6    4.45    0.58
   0  -8   6    5.66    0.43
   0  -8   6    5.20    0.45
   0  -8   6    5.28    0.63
   0  -8   6    5.70    0.62
   1  -8   6    8.51    0.67
   1  -8   6    6.79    0.35
   1  -8   6    7.92    0.52
   2  -8   6    0.63    0.26
   2  -8   6    0.96    0.18
   2  -8   6    0.79    0.30
   3  -8   6    0.04    0.14
   3  -8   6    0.51    0.29
   3  -8   6    0.57    0.28
   4  -8   6    2.43    0.43
   4  -8   6    1.51    0.25
   5  -8   6    0.15    0.31
   5  -8   6    0.59    0.23
   6  -8   6   19.25    0.83
   6  -8   6   19.18    0.99
   7  -8   6    3.93    0.46
   7  -8   6    5.79    0.67
   8  -8   6    0.37    0.31
   8  -8   6    1.38    0.45
   9  -8   6    4.54    0.63
   9  -8   6    5.02    0.59
  -5  -7   6    1.44    0.45
  -5  -7   6    2.13    0.48
  -4  -7   6    0.49    0.34
  -4  -7   6    0.16    0.33
  -3  -7   6    0.24    0.28
  -3  -7   6    0.19    0.26
  -2  -7   6    0.84    0.31
  -2  -7   6    0.91    0.19
  -2  -7   6    0.81    0.34
  -1  -7   6   15.46    0.49
  -1  -7   6   14.31    0.83
  -1  -7   6   16.43    0.67
   0  -7   6    1.03    0.14
   0  -7   6    0.74    0.34
   0  -7   6    0.88    0.21
   1  -7   6   23.52    0.72
   1  -7   6   26.39    1.10
   1  -7   6   23.58    0.93
   2  -7   6    0.01    0.24
   2  -7   6   -0.05    0.12
   2  -7   6    0.14    0.20
   3  -7   6    3.72    0.47
   3  -7   6    2.96    0.42
   3  -7   6    3.63    0.30
   4  -7   6    5.59    0.38
   4  -7   6    5.77    0.59
   5  -7   6    5.39    0.43
   5  -7   6    5.31    0.39
   5  -7   6    5.86    0.58
   6  -7   6   38.29    1.32
   6  -7   6   41.10    1.20
   6  -7   6   40.39    1.51
   7  -7   6    0.24    0.30
   7  -7   6   -0.06    0.26
   8  -7   6    0.21    0.35
   8  -7   6    0.75    0.34
   9  -7   6   -0.08    0.37
   9  -7   6    0.24    0.33
  -6  -6   6   -0.13    0.29
  -6  -6   6    0.38    0.36
  -5  -6   6    1.71    0.44
  -5  -6   6    2.36    0.49
  -4  -6   6    1.48    0.39
  -4  -6   6    1.73    0.42
  -3  -6   6    2.16    0.42
  -3  -6   6    2.26    0.40
  -3  -6   6    2.70    0.25
  -2  -6   6   19.09    0.96
  -2  -6   6   19.06    0.69
  -2  -6   6   17.46    0.88
  -1  -6   6    0.91    0.20
  -1  -6   6    1.16    0.32
  -1  -6   6    1.14    0.10
  -1  -6   6    1.25    0.10
  -1  -6   6    1.00    0.28
   0  -6   6    0.04    0.23
   0  -6   6    0.08    0.08
   0  -6   6    0.09    0.15
   1  -6   6    1.74    0.34
   1  -6   6    1.92    0.17
   1  -6   6    1.88    0.30
   2  -6   6   15.78    0.73
   2  -6   6   16.72    0.55
   2  -6   6   16.28    0.79
  -3   6  -6    0.22    0.13
   3  -6   6    0.00    0.12
   3  -6   6    0.20    0.24
   4  -6   6    4.17    0.36
   4  -6   6    4.31    0.35
   4  -6   6    5.24    0.53
   5  -6   6    0.05    0.19
   5  -6   6    0.19    0.14
   5  -6   6   -0.15    0.22
   5  -6   6    0.24    0.16
   6  -6   6    0.29    0.21
   6  -6   6    0.48    0.17
   6  -6   6    0.32    0.28
   7  -6   6    5.43    0.57
   7  -6   6    5.57    0.51
   8  -6   6    4.89    0.53
   8  -6   6    4.18    0.56
   9  -6   6    4.97    0.58
   9  -6   6    5.84    0.65
  10  -6   6   -0.11    0.35
  10  -6   6    0.71    0.40
  -7  -5   6    2.22    0.48
  -7  -5   6    2.37    0.51
  -6  -5   6    1.28    0.38
  -6  -5   6    0.75    0.37
  -5  -5   6    2.80    0.50
  -5  -5   6    3.12    0.52
  -4  -5   6   11.52    0.73
  -4  -5   6   11.56    0.73
  -3  -5   6    1.90    0.13
  -3  -5   6    1.67    0.33
  -3  -5   6    1.69    0.22
  -3  -5   6    1.49    0.36
   2   5  -6    0.18    0.12
  -2  -5   6    0.01    0.21
  -2  -5   6    0.53    0.15
  -2  -5   6    0.36    0.24
   1   5  -6   10.70    0.49
  -1  -5   6   10.69    0.63
  -1  -5   6   10.70    0.50
   0   5  -6    0.66    0.20
   0  -5   6    0.84    0.08
   0  -5   6    0.62    0.24
   0  -5   6    0.78    0.19
   1  -5   6    2.23    0.29
   1  -5   6    1.82    0.15
   1  -5   6    1.53    0.31
  -2   5  -6    0.28    0.11
   2  -5   6    0.04    0.20
   2  -5   6    0.37    0.12
   2  -5   6    0.26    0.22
  -3   5  -6    2.02    0.22
   3  -5   6    1.37    0.29
   3  -5   6    1.72    0.21
   3  -5   6    1.68    0.24
   4  -5   6   17.98    0.64
   4  -5   6   16.65    0.77
   4  -5   6   17.16    0.66
   4  -5   6   17.48    0.66
   5  -5   6    2.20    0.36
   5  -5   6    2.15    0.30
   5  -5   6    2.21    0.24
   5  -5   6    2.05    0.25
   6  -5   6    0.31    0.16
   6  -5   6    0.25    0.29
   6  -5   6    0.09    0.20
   6  -5   6   -0.19    0.11
   7  -5   6   -0.07    0.25
   7  -5   6   -0.10    0.26
   7  -5   6    0.30    0.15
   8  -5   6    1.52    0.39
   8  -5   6    1.05    0.35
   9  -5   6   -0.38    0.25
   9  -5   6   -0.45    0.30
  10  -5   6    0.54    0.38
  10  -5   6    0.47    0.34
  -7  -4   6    3.45    0.53
  -7  -4   6    3.31    0.53
  -6  -4   6    0.06    0.25
  -6  -4   6    0.05    0.28
  -5  -4   6    4.22    0.49
  -5  -4   6    4.57    0.57
  -4  -4   6    2.45    0.40
  -4  -4   6    2.09    0.41
  -4  -4   6    2.36    0.17
   3   4  -6    1.11    0.18
  -3  -4   6    1.12    0.19
  -3  -4   6    1.22    0.09
  -3  -4   6    0.79    0.28
  -3  -4   6    1.36    0.31
   2   4  -6    7.62    0.39
  -2  -4   6    7.81    0.41
  -2  -4   6    7.79    0.50
  -2  -4   6    8.00    0.56
   1   4  -6    1.19    0.20
  -1  -4   6    1.30    0.27
  -1  -4   6    1.32    0.21
   0   4  -6  325.15    7.81
   0  -4   6  318.00    7.93
   0  -4   6  322.96    7.82
  -1   4  -6    4.31    0.20
   1  -4   6    4.83    0.39
   1  -4   6    4.38    0.37
   1  -4   6    4.85    0.21
  -2   4  -6   10.72    0.39
   2  -4   6   11.08    0.57
   2  -4   6    8.83    0.51
   2  -4   6   10.89    0.49
   2  -4   6   11.05    0.41
  -3   4  -6    1.74    0.21
   3  -4   6    1.22    0.20
   3  -4   6    1.25    0.19
   3  -4   6    1.56    0.24
   3  -4   6    0.89    0.24
   4  -4   6   27.66    0.91
   4  -4   6   27.48    1.04
   4  -4   6   28.11    0.92
   4  -4   6   29.29    0.90
  -5   4  -6    6.29    0.36
   5  -4   6    6.54    0.50
   5  -4   6    6.94    0.45
   5  -4   6    6.22    0.38
   5  -4   6    6.22    0.36
  -6   4  -6    9.75    0.45
   6  -4   6    9.36    0.57
   6  -4   6    9.57    0.47
   6  -4   6    9.77    0.45
   6  -4   6    9.45    0.64
  -7   4  -6    6.81    0.39
   7  -4   6    5.76    0.52
   7  -4   6    5.72    0.56
   7  -4   6    6.36    0.39
   8  -4   6    9.26    0.66
   8  -4   6    9.13    0.70
   9  -4   6    6.11    0.61
   9  -4   6    5.67    0.56
  10  -4   6    0.03    0.33
  10  -4   6   -0.03    0.35
  -8  -3   6    0.21    0.34
  -8  -3   6    0.14    0.36
  -7  -3   6    2.46    0.51
  -7  -3   6    2.80    0.47
  -6  -3   6    0.73    0.31
  -6  -3   6    0.78    0.30
  -5  -3   6    0.76    0.30
  -5  -3   6    0.89    0.17
  -5  -3   6    0.71    0.29
   4   3  -6    0.07    0.10
  -4  -3   6   -0.09    0.19
  -4  -3   6    0.10    0.09
  -4  -3   6    0.22    0.21
   3   3  -6    1.46    0.19
  -3  -3   6    1.35    0.26
  -3  -3   6    1.28    0.30
  -3  -3   6    1.35    0.21
   2   3  -6    2.42    0.24
  -2  -3   6    2.51    0.27
  -2  -3   6    2.04    0.28
  -2  -3   6    2.12    0.32
   1   3  -6   21.17    0.75
  -1  -3   6   22.17    0.87
  -1  -3   6   22.43    0.78
   0   3  -6   11.05    0.31
   0   3  -6   11.08    0.54
   0   3  -6   11.02    0.50
   0  -3   6   10.45    0.55
   0  -3   6   11.59    0.53
   0  -3   6   12.85    0.53
  -1   3  -6    3.23    0.17
  -1   3  -6    2.80    0.29
   1  -3   6    1.91    0.26
   1  -3   6    2.21    0.26
   1  -3   6    3.19    0.30
   1  -3   6    2.53    0.17
  -2   3  -6    1.89    0.19
   2  -3   6    1.53    0.24
   2  -3   6    1.96    0.24
   2  -3   6    1.47    0.24
   2  -3   6    1.82    0.19
   2  -3   6    1.61    0.27
  -3   3  -6    6.31    0.33
  -3   3  -6    5.78    0.34
   3  -3   6    6.44    0.37
   3  -3   6    5.99    0.37
   3  -3   6    6.26    0.45
   3  -3   6    5.77    0.34
  -4   3  -6   14.97    0.58
   4  -3   6   15.05    0.58
   4  -3   6   15.12    0.70
   4  -3   6   15.12    0.62
   4  -3   6   15.43    0.61
  -5   3  -6   14.96    0.60
  -5   3  -6   15.41    0.60
   5  -3   6   15.69    0.62
   5  -3   6   13.87    0.63
   5  -3   6   15.34    0.59
   5  -3   6   14.32    0.69
  -6   3  -6    1.99    0.26
  -6   3  -6    2.53    0.28
   6  -3   6    2.39    0.28
   6  -3   6    2.57    0.38
   6  -3   6    1.58    0.29
  -7   3  -6    8.67    0.47
  -7   3  -6    9.21    0.49
   7  -3   6    9.40    0.50
   7  -3   6    8.59    0.61
   7  -3   6    8.72    0.61
  -8   3  -6    0.67    0.20
   8  -3   6    0.84    0.34
   8  -3   6    0.62    0.35
   9  -3   6    8.09    0.68
   9  -3   6    7.38    0.68
  -9  -2   6    3.30    0.57
  -9  -2   6    4.11    0.61
  -8  -2   6    0.93    0.37
  -8  -2   6    0.33    0.32
   7   2  -6    3.86    0.36
  -7  -2   6    5.73    0.59
  -7  -2   6    4.56    0.58
   6   2  -6    0.35    0.16
  -6  -2   6    0.24    0.24
  -6  -2   6    0.11    0.25
   5   2  -6   11.50    0.43
   5   2  -6   10.13    0.47
  -5  -2   6   10.84    0.43
  -5  -2   6   10.83    0.67
  -5  -2   6   10.55    0.58
   4   2  -6    6.50    0.37
   4   2  -6    6.55    0.28
  -4  -2   6    6.19    0.43
  -4  -2   6    6.19    0.52
   3   2  -6    3.21    0.17
   3   2  -6    3.70    0.29
  -3  -2   6    3.80    0.35
  -3  -2   6    3.28    0.40
   2   2  -6    2.48    0.27
   2   2  -6    2.34    0.11
  -2  -2   6    2.41    0.28
  -2  -2   6    2.27    0.31
   1   2  -6   11.95    0.55
   1   2  -6   12.19    0.34
   1   2  -6   11.34    0.51
  -1  -2   6   11.80    0.56
  -1  -2   6   11.64    0.54
  -1  -2   6   12.08    0.53
   0   2  -6   43.99    1.13
   0   2  -6   48.19    1.34
   0   2  -6   44.59    1.33
   0  -2   6   42.34    1.31
   0  -2   6   45.56    1.31
   0  -2   6   43.38    1.33
  -1   2  -6    2.67    0.25
  -1   2  -6    2.78    0.19
  -1   2  -6    2.77    0.29
   1  -2   6    2.49    0.26
   1  -2   6    1.96    0.25
   1  -2   6    2.45    0.27
   1  -2   6    2.86    0.26
  -2   2  -6   17.25    0.66
  -2   2  -6   19.01    0.72
  -2   2  -6   17.40    0.60
   2  -2   6   18.38    0.69
   2  -2   6   19.97    0.72
   2  -2   6   17.75    0.61
   2  -2   6   18.67    0.68
   2  -2   6   17.96    0.72
   2  -2   6   19.22    0.67
  -3   2  -6   29.66    0.96
  -3   2  -6   30.08    0.95
  -3   2  -6   30.52    0.93
   3  -2   6   28.80    0.96
   3  -2   6   29.56    0.92
   3  -2   6   29.31    1.01
   3  -2   6   30.24    0.94
  -4   2  -6    4.19    0.32
  -4   2  -6    4.14    0.34
   4  -2   6    3.33    0.36
   4  -2   6    3.43    0.32
   4  -2   6    3.51    0.35
   4  -2   6    2.90    0.30
  -5   2  -6    2.89    0.31
  -5   2  -6    3.03    0.33
   5  -2   6    2.66    0.36
   5  -2   6    2.79    0.35
   5  -2   6    2.67    0.31
  -6   2  -6    7.52    0.46
  -6   2  -6    7.29    0.57
  -6   2  -6    7.90    0.47
   6  -2   6    7.54    0.52
   6  -2   6    7.74    0.57
   6  -2   6    8.50    0.49
  -7   2  -6    1.67    0.28
  -7   2  -6    1.54    0.27
  -7   2  -6    0.57    0.29
   7  -2   6    1.74    0.36
   7  -2   6    1.56    0.27
   7  -2   6    1.48    0.34
  -8   2  -6    0.17    0.33
  -8   2  -6    0.08    0.20
   8  -2   6    0.56    0.31
   8  -2   6   -0.05    0.25
   8  -2   6    0.52    0.29
  -9   2  -6    4.49    0.64
   9  -2   6    3.62    0.53
  -9  -1   6    4.37    0.57
  -9  -1   6    3.72    0.59
   8   1  -6    2.02    0.30
  -8  -1   6    2.04    0.49
  -8  -1   6    2.58    0.44
   7   1  -6    0.02    0.16
  -7  -1   6    0.24    0.24
  -7  -1   6    0.52    0.31
   6   1  -6   22.05    0.76
   6   1  -6   22.79    0.84
  -6  -1   6   21.97    1.04
  -6  -1   6   22.24    0.90
   5   1  -6   14.07    0.60
   5   1  -6   14.26    0.52
  -5  -1   6   14.33    0.53
  -5  -1   6   14.61    0.76
  -5  -1   6   14.74    0.65
   4   1  -6    2.98    0.30
   4   1  -6    2.82    0.22
  -4  -1   6    2.88    0.31
  -4  -1   6    2.77    0.39
   3   1  -6    2.48    0.28
   3   1  -6    2.27    0.17
  -3  -1   6    1.83    0.30
  -3  -1   6    2.71    0.27
   2   1  -6   12.21    0.57
   2   1  -6   12.32    0.53
   2   1  -6   11.89    0.39
  -2  -1   6   12.39    0.52
  -2  -1   6   11.45    0.57
  -2  -1   6   11.19    0.53
   1   1  -6   65.86    1.78
   1   1  -6   64.68    1.78
  -1  -1   6   65.33    1.78
  -1  -1   6   58.37    1.76
  -1  -1   6   63.91    1.73
  -1  -1   6   63.53    1.75
   0   1  -6    9.12    0.42
   0   1  -6    8.81    0.45
   0   1  -6    8.61    0.42
   0  -1   6    8.75    0.44
   0  -1   6    9.66    0.44
   0  -1   6    8.52    0.43
   0  -1   6    8.05    0.47
  -1   1  -6    0.11    0.13
  -1   1  -6    0.14    0.11
  -1   1  -6    0.20    0.15
  -1   1  -6    0.24    0.14
   1  -1   6    0.26    0.16
   1  -1   6    0.33    0.17
   1  -1   6    0.06    0.14
   1  -1   6    0.20    0.18
   1  -1   6    0.12    0.17
  -2   1  -6  113.10    2.92
  -2   1  -6  114.38    2.94
  -2   1  -6  118.22    2.89
  -2   1  -6  118.09    2.98
   2  -1   6  108.74    2.96
   2  -1   6  118.36    2.93
   2  -1   6  111.50    2.94
   2  -1   6  111.88    2.94
   2  -1   6  111.44    2.87
  -3   1  -6   17.19    0.67
  -3   1  -6   16.28    0.65
   3  -1   6   16.66    0.67
   3  -1   6   16.20    0.69
  -4   1  -6    1.67    0.25
  -4   1  -6    1.49    0.31
  -4   1  -6    1.53    0.23
   4  -1   6    1.71    0.28
   4  -1   6    1.57    0.28
   4  -1   6    1.25    0.23
  -5   1  -6    3.66    0.44
  -5   1  -6    3.65    0.36
  -5   1  -6    3.41    0.34
   5  -1   6    3.38    0.38
   5  -1   6    3.66    0.39
   5  -1   6    3.34    0.35
  -6   1  -6    4.94    0.55
  -6   1  -6    5.00    0.43
  -6   1  -6    5.56    0.43
   6  -1   6    4.86    0.46
   6  -1   6    5.35    0.43
   6  -1   6    4.80    0.48
  -7   1  -6   14.14    0.71
  -7   1  -6   13.93    0.69
  -7   1  -6   13.90    0.82
   7  -1   6   13.43    0.68
   7  -1   6   15.41    0.74
   7  -1   6   13.04    0.74
  -8   1  -6    0.47    0.24
  -8   1  -6   -0.05    0.21
  -8   1  -6    0.26    0.30
   8  -1   6   -0.21    0.26
   8  -1   6    0.15    0.25
   8  -1   6    0.22    0.25
  -9   1  -6    1.01    0.40
   9   0  -6    0.92    0.28
  -9   0   6    1.72    0.40
   8   0  -6   -0.03    0.19
  -8   0   6    0.60    0.34
  -8   0   6   -0.03    0.25
   7   0  -6    7.26    0.43
  -7   0   6    7.49    0.64
  -7   0   6    8.49    0.55
   6   0  -6   10.00    0.49
  -6   0   6   11.31    0.58
  -6   0   6   12.07    0.74
   5   0  -6   -0.03    0.12
  -5   0   6    0.02    0.15
  -5   0   6    0.46    0.28
   4   0  -6    5.82    0.31
  -4   0   6    6.21    0.38
  -4   0   6    6.30    0.35
  -4   0   6    6.13    0.49
   3   0  -6    0.37    0.17
   3   0  -6    0.52    0.13
  -3   0   6    0.29    0.13
  -3   0   6    0.09    0.15
  -3   0   6    0.30    0.16
  -3   0   6   -0.01    0.19
   2   0  -6    8.25    0.44
   2   0  -6    7.96    0.41
   2   0  -6    8.35    0.45
  -2   0   6    7.96    0.44
  -2   0   6    8.37    0.41
  -2   0   6    7.52    0.46
   1   0  -6   20.32    0.74
   1   0  -6   19.14    0.67
   1   0  -6   18.79    0.67
  -1   0   6   17.78    0.72
  -1   0   6   18.92    0.68
  -1   0   6   18.99    0.69
  -1   0   6   18.00    0.67
   0   0  -6    8.85    0.38
   0   0  -6    9.17    0.44
   0   0  -6    8.31    0.42
   0   0  -6    8.43    0.45
   0   0   6    8.45    0.40
   0   0   6    8.94    0.38
   0   0   6    9.05    0.44
   0   0   6    8.43    0.44
   0   0   6    8.05    0.46
  -1   0  -6   19.19    0.72
  -1   0  -6   18.23    0.70
  -1   0  -6   20.39    0.75
  -1   0  -6   20.86    0.69
   1   0   6   20.00    0.77
   1   0   6   19.47    0.63
   1   0   6   19.71    0.74
   1   0   6   20.02    0.68
   1   0   6   20.92    0.73
  -2   0  -6    6.56    0.39
  -2   0  -6    5.60    0.40
  -2   0  -6    6.45    0.40
   2   0   6    6.33    0.40
   2   0   6    5.95    0.37
   2   0   6    5.47    0.39
   2   0   6    6.02    0.29
  -3   0  -6    3.36    0.33
  -3   0  -6    2.99    0.34
  -3   0  -6    3.70    0.33
   3   0   6    3.80    0.36
   3   0   6    3.07    0.33
  -4   0  -6    1.48    0.32
  -4   0  -6    0.81    0.24
  -4   0  -6    0.92    0.24
   4   0   6    0.91    0.24
   4   0   6    0.62    0.22
  -5   0  -6    0.55    0.20
  -5   0  -6    0.56    0.25
  -5   0  -6    0.43    0.20
   5   0   6    0.67    0.24
   5   0   6    0.35    0.16
   5   0   6    0.37    0.24
  -6   0  -6    0.50    0.23
  -6   0  -6    0.33    0.23
  -6   0  -6    0.07    0.26
   6   0   6    0.28    0.24
   6   0   6    0.01    0.22
  -7   0  -6   -0.14    0.21
  -7   0  -6   -0.10    0.26
  -7   0  -6   -0.05    0.22
   7   0   6    0.22    0.23
   7   0   6    0.34    0.26
  -8   0  -6   11.92    0.69
  -8   0  -6   11.46    0.87
  10  -1  -6    1.50    0.34
   9  -1  -6    2.00    0.33
  -9   1   6    1.70    0.38
   8  -1  -6    0.11    0.21
  -8   1   6    0.17    0.25
   7  -1  -6   29.24    1.00
  -7   1   6   28.59    1.02
  -7   1   6   28.24    1.23
   6  -1  -6    5.28    0.37
  -6   1   6    6.04    0.53
  -6   1   6    5.14    0.39
  -6   1   6    5.70    0.40
   5  -1  -6    7.73    0.41
  -5   1   6    7.95    0.44
  -5   1   6    7.59    0.42
  -5   1   6    7.65    0.39
  -5   1   6    8.12    0.58
   4  -1  -6   12.94    0.50
  -4   1   6   12.02    0.53
  -4   1   6   11.48    0.62
  -4   1   6   11.73    0.44
  -4   1   6   12.47    0.51
   3  -1  -6   27.22    0.85
   3  -1  -6   28.88    1.03
   3  -1  -6   26.37    0.87
  -3   1   6   27.94    0.98
  -3   1   6   28.23    0.89
  -3   1   6   27.21    0.75
  -3   1   6   27.18    0.90
   2  -1  -6    4.62    0.32
   2  -1  -6    4.91    0.34
   2  -1  -6    4.84    0.33
  -2   1   6    4.39    0.35
  -2   1   6    4.34    0.36
  -2   1   6    5.63    0.35
   1  -1  -6    6.25    0.44
   1  -1  -6    5.17    0.31
   1  -1  -6    5.38    0.35
   1  -1  -6    5.40    0.33
  -1   1   6    4.96    0.25
  -1   1   6    4.57    0.32
  -1   1   6    4.97    0.35
  -1   1   6    5.42    0.38
   0  -1  -6   56.68    1.63
   0  -1  -6   57.63    1.46
   0  -1  -6   55.62    1.57
   0  -1  -6   54.66    1.58
   0   1   6   54.26    1.45
   0   1   6   54.61    1.62
   0   1   6   55.10    1.88
   0   1   6   55.51    1.47
   0   1   6   54.81    1.59
  -1  -1  -6   33.64    1.11
  -1  -1  -6   32.17    0.97
  -1  -1  -6   31.54    1.02
  -1  -1  -6   32.13    1.05
   1   1   6   31.52    0.84
   1   1   6   30.05    1.03
   1   1   6   30.28    1.05
   1   1   6   31.14    0.96
  -2  -1  -6    7.10    0.45
  -2  -1  -6    8.03    0.47
  -2  -1  -6    7.17    0.42
   2   1   6    8.22    0.49
   2   1   6    7.49    0.44
   2   1   6    7.81    0.26
   2   1   6    8.47    0.48
  -3  -1  -6    0.35    0.19
  -3  -1  -6    0.00    0.15
  -3  -1  -6   -0.06    0.15
   3   1   6   -0.10    0.07
   3   1   6   -0.07    0.18
   3   1   6   -0.23    0.17
   3   1   6    0.01    0.07
  -4  -1  -6   43.38    1.40
  -4  -1  -6   43.83    1.43
  -4  -1  -6   40.17    1.35
   4   1   6   44.34    1.40
   4   1   6   43.51    1.36
   4   1   6   42.51    1.13
  -5  -1  -6    0.54    0.27
  -5  -1  -6    0.25    0.20
  -5  -1  -6    0.74    0.25
   5   1   6    0.17    0.23
   5   1   6    0.60    0.24
  -6  -1  -6    6.43    0.49
  -6  -1  -6    7.29    0.62
   6   1   6    6.97    0.49
  -7  -1  -6    0.40    0.32
  -7  -1  -6    0.10    0.26
  -8  -1  -6    0.97    0.42
  -8  -1  -6    0.54    0.30
  10  -2  -6    6.58    0.60
   9  -2  -6    0.58    0.26
   8  -2  -6    1.59    0.30
  -8   2   6    1.76    0.31
   7  -2  -6    0.87    0.23
  -7   2   6    0.10    0.17
  -7   2   6    0.59    0.20
   6  -2  -6    9.16    0.50
  -6   2   6    9.10    0.45
  -6   2   6    8.86    0.43
  -6   2   6    9.56    0.47
   5  -2  -6    1.62    0.24
  -5   2   6    2.01    0.36
  -5   2   6    2.37    0.21
  -5   2   6    1.76    0.24
  -5   2   6    2.19    0.25
   4  -2  -6   21.50    0.74
   4  -2  -6   21.97    0.76
  -4   2   6   21.53    0.59
  -4   2   6   21.75    0.77
  -4   2   6   20.82    0.86
  -4   2   6   22.13    0.75
   3  -2  -6   10.91    0.48
   3  -2  -6   10.82    0.49
   3  -2  -6   10.89    0.52
  -3   2   6   11.61    0.50
  -3   2   6   11.23    0.56
  -3   2   6   10.12    0.51
   2  -2  -6    2.91    0.28
   2  -2  -6    2.75    0.28
   2  -2  -6    3.34    0.27
  -2   2   6    3.07    0.29
  -2   2   6    3.15    0.31
  -2   2   6    3.42    0.32
   1  -2  -6   10.75    0.43
   1  -2  -6   11.68    0.51
   1  -2  -6   10.69    0.50
  -1   2   6   10.95    0.45
  -1   2   6   11.09    0.37
  -1   2   6   10.83    0.54
   0  -2  -6    0.22    0.11
   0  -2  -6    0.23    0.17
   0  -2  -6    0.23    0.09
   0  -2  -6    0.22    0.17
   0   2   6    0.32    0.13
   0   2   6    0.25    0.18
  -1  -2  -6   29.87    1.03
  -1  -2  -6   29.13    0.93
  -1  -2  -6   29.59    1.01
   1   2   6   29.80    1.04
   1   2   6   29.70    0.94
  -2  -2  -6   18.50    0.76
  -2  -2  -6   18.14    0.72
  -2  -2  -6   18.08    0.74
   2   2   6   18.49    0.79
  -3  -2  -6    0.14    0.21
  -3  -2  -6    0.22    0.20
  -3  -2  -6    0.13    0.19
   3   2   6    0.23    0.24
  -4  -2  -6    1.59    0.30
  -4  -2  -6    1.90    0.33
  -4  -2  -6    1.86    0.31
   4   2   6    2.36    0.36
  -5  -2  -6    4.82    0.50
  -5  -2  -6    6.28    0.62
  -6  -2  -6    1.10    0.37
  -6  -2  -6    1.09    0.32
  -7  -2  -6    0.37    0.28
  -7  -2  -6    0.08    0.29
  10  -3  -6   -0.15    0.25
   9  -3  -6    0.96    0.32
   8  -3  -6    4.04    0.44
   7  -3  -6    1.38    0.29
  -7   3   6    1.75    0.35
  -7   3   6    1.92    0.24
   6  -3  -6    0.03    0.19
  -6   3   6    0.15    0.14
  -6   3   6    0.10    0.16
   5  -3  -6    1.24    0.23
  -5   3   6    1.57    0.21
  -5   3   6    1.45    0.23
   4  -3  -6    0.02    0.16
   4  -3  -6   -0.01    0.13
  -4   3   6    0.05    0.17
  -4   3   6   -0.08    0.14
   3  -3  -6    1.92    0.26
   3  -3  -6    1.29    0.20
   3  -3  -6    1.27    0.21
  -3   3   6    1.01    0.22
   2  -3  -6   15.65    0.63
   2  -3  -6   15.63    0.64
   2  -3  -6   16.46    0.60
  -2   3   6   15.75    0.66
   1  -3  -6    2.61    0.30
   1  -3  -6    1.86    0.28
   1  -3  -6    1.95    0.19
  -1   3   6    2.29    0.31
  -1   3   6    2.07    0.17
   0  -3  -6    1.71    0.11
   0  -3  -6    2.13    0.22
   0  -3  -6    1.74    0.29
   0  -3  -6    1.37    0.27
   0   3   6    1.86    0.31
   0   3   6    2.09    0.22
  -1  -3  -6    6.31    0.45
  -1  -3  -6    6.34    0.45
  -1  -3  -6    5.83    0.37
   1   3   6    5.47    0.38
   1   3   6    5.14    0.45
  -2  -3  -6    0.28    0.18
  -2  -3  -6    0.11    0.16
  -2  -3  -6    0.07    0.16
   2   3   6    0.03    0.20
  -3  -3  -6    3.84    0.42
  -3  -3  -6    3.58    0.43
  -3  -3  -6    3.76    0.44
   3   3   6    2.96    0.39
  -4  -3  -6    0.80    0.30
  -4  -3  -6    1.27    0.32
  -5  -3  -6    0.10    0.25
  -5  -3  -6    0.30    0.29
  -6  -3  -6   -0.04    0.30
  -6  -3  -6    0.21    0.29
  -7  -3  -6    1.21    0.41
  -7  -3  -6    1.46    0.40
  10  -4  -6    1.15    0.37
   9  -4  -6    1.81    0.38
   8  -4  -6   13.75    0.75
   7  -4  -6   -0.16    0.21
   6  -4  -6   25.29    0.97
  -6   4   6   24.57    0.82
   5  -4  -6    4.60    0.44
   5  -4  -6    3.87    0.32
  -5   4   6    4.10    0.34
  -5   4   6    3.87    0.32
   4  -4  -6   16.00    0.69
   4  -4  -6   15.84    0.62
   4  -4  -6   14.58    0.61
  -4   4   6   15.19    0.63
   3  -4  -6    7.28    0.43
   3  -4  -6    6.59    0.41
   3  -4  -6    6.96    0.42
  -3   4   6    6.61    0.46
   2  -4  -6   22.11    0.83
   2  -4  -6   23.28    0.77
   2  -4  -6   22.60    0.85
  -2   4   6   22.12    0.86
   1  -4  -6    8.08    0.34
   1  -4  -6    8.40    0.34
   1  -4  -6    8.16    0.48
   1  -4  -6    7.97    0.48
  -1   4   6    8.44    0.51
   0  -4  -6   -0.05    0.19
   0  -4  -6    0.37    0.20
   0  -4  -6    0.04    0.12
   0   4   6   -0.20    0.19
   0   4   6    0.11    0.14
  -1  -4  -6   23.25    0.94
  -1  -4  -6   23.92    0.97
  -1  -4  -6   23.31    0.84
   1   4   6   22.66    0.95
  -2  -4  -6    4.33    0.44
  -2  -4  -6    4.24    0.48
  -2  -4  -6    3.74    0.45
   2   4   6    3.94    0.67
  -3  -4  -6    8.87    0.63
  -3  -4  -6    8.89    0.59
  -4  -4  -6    0.02    0.26
  -4  -4  -6    0.43    0.28
  -5  -4  -6   -0.23    0.27
  -5  -4  -6    0.34    0.32
  -6  -4  -6   -0.46    0.27
  -6  -4  -6    0.27    0.34
   9  -5  -6    2.38    0.39
   8  -5  -6    2.36    0.37
   7  -5  -6    5.81    0.54
   6  -5  -6    0.53    0.25
   6  -5  -6    0.57    0.17
  -6   5   6    0.55    0.26
   5  -5  -6   13.92    0.59
   5  -5  -6   13.90    0.70
   5  -5  -6   14.13    0.60
  -5   5   6   14.79    0.62
   4  -5  -6    0.11    0.14
   4  -5  -6   -0.07    0.13
  -4   5   6   -0.24    0.17
   3  -5  -6    3.34    0.35
   3  -5  -6    3.75    0.36
  -3   5   6    3.23    0.37
   2  -5  -6   10.69    0.58
   2  -5  -6   11.02    0.36
   2  -5  -6   11.12    0.49
   2  -5  -6   10.42    0.56
  -2   5   6   10.99    0.61
   1  -5  -6    1.25    0.16
   1  -5  -6    1.26    0.18
   1  -5  -6    1.23    0.27
   1  -5  -6    1.81    0.31
  -1   5   6    1.46    0.29
   0  -5  -6    6.92    0.49
   0  -5  -6    6.15    0.39
   0  -5  -6    5.18    0.49
   0   5   6    7.41    0.56
  -1  -5  -6    3.66    0.38
  -1  -5  -6    4.06    0.46
  -2  -5  -6    0.00    0.20
  -2  -5  -6    0.19    0.26
  -3  -5  -6   15.24    0.81
  -3  -5  -6   15.29    0.86
  -4  -5  -6    1.81    0.42
  -4  -5  -6    2.60    0.45
  -5  -5  -6    1.29    0.40
  -5  -5  -6    1.00    0.36
   9  -6  -6    0.84    0.37
   8  -6  -6    0.74    0.33
   7  -6  -6   -0.08    0.23
   6  -6  -6    5.09    0.55
   6  -6  -6    5.52    0.37
   5  -6  -6    0.33    0.17
   5  -6  -6    0.28    0.23
   5  -6  -6    0.57    0.18
  -5   6   6    0.12    0.20
   4  -6  -6    0.17    0.16
   4  -6  -6    0.17    0.16
  -4   6   6   -0.04    0.18
   3  -6  -6    0.91    0.22
   3  -6  -6    0.96    0.23
  -3   6   6    1.03    0.26
   2  -6  -6    0.29    0.20
   2  -6  -6    0.11    0.13
   2  -6  -6    0.06    0.19
  -2   6   6    0.18    0.24
   1  -6  -6    1.73    0.33
   1  -6  -6    1.48    0.21
   1  -6  -6    1.15    0.31
   0  -6  -6    3.25    0.45
   0  -6  -6    3.17    0.34
  -1  -6  -6    8.40    0.53
  -1  -6  -6    8.05    0.60
  -2  -6  -6    0.96    0.29
  -2  -6  -6    0.41    0.31
  -3  -6  -6    0.09    0.26
  -3  -6  -6    0.35    0.33
  -4  -6  -6    3.42    0.54
   8  -7  -6    1.83    0.39
   7  -7  -6    2.73    0.47
   6  -7  -6    9.76    0.65
   5  -7  -6    5.96    0.43
   5  -7  -6    5.47    0.57
   5  -7  -6    5.39    0.58
   4  -7  -6    1.37    0.27
   4  -7  -6    1.05    0.25
  -4   7   6    0.94    0.28
   3  -7  -6    8.89    0.56
   3  -7  -6    9.51    0.59
  -3   7   6    7.72    0.58
   2  -7  -6    1.86    0.33
   1  -7  -6    5.99    0.58
   0  -7  -6    0.23    0.25
  -1  -7  -6    4.60    0.52
  -1  -7  -6    6.06    0.64
  -2  -7  -6    2.11    0.39
  -2  -7  -6    1.93    0.42
   7  -8  -6    5.31    0.60
   6  -8  -6    0.14    0.31
   5  -8  -6    3.07    0.45
   5  -8  -6    3.09    0.49
   4  -8  -6    0.37    0.21
   3  -8  -6    2.53    0.39
   2  -8  -6    0.63    0.28
   1  -8  -6    0.76    0.30
   0  -8  -6    3.41    0.48
   4  -9  -6    0.48    0.26
   3  -9  -6    1.05    0.31
   3 -11   7    1.85    0.41
   3 -11   7    1.27    0.49
   4 -11   7   -0.04    0.34
   4 -11   7    0.57    0.34
   5 -11   7    0.62    0.42
   5 -11   7    0.60    0.45
   0 -10   7    0.85    0.41
   0 -10   7    1.07    0.40
   1 -10   7    0.11    0.32
   1 -10   7    0.24    0.23
   1 -10   7   -0.24    0.24
   2 -10   7    5.79    0.74
   2 -10   7    5.30    0.58
   3 -10   7    1.34    0.35
   3 -10   7    0.71    0.40
   4 -10   7    9.73    0.76
   4 -10   7   10.10    0.81
   5 -10   7    0.70    0.44
   5 -10   7    0.59    0.25
   5 -10   7    0.76    0.35
   6 -10   7    0.17    0.38
   6 -10   7    0.96    0.30
   7 -10   7    0.40    0.45
   7 -10   7    1.03    0.34
  -2  -9   7    0.13    0.34
  -2  -9   7    0.05    0.35
  -1  -9   7    0.40    0.32
  -1  -9   7    0.61    0.37
   0  -9   7    2.20    0.49
   0  -9   7    1.43    0.39
   0  -9   7    2.01    0.34
   1  -9   7    3.58    0.58
   1  -9   7    2.52    0.38
   2  -9   7    4.27    0.50
   2  -9   7    3.06    0.53
   3  -9   7    0.11    0.25
   3  -9   7    0.34    0.34
   3  -9   7    0.14    0.16
   4  -9   7    7.79    0.47
   4  -9   7    7.69    0.65
   4  -9   7    7.54    0.76
   5  -9   7    9.55    0.80
   5  -9   7   10.30    0.57
   6  -9   7    1.10    0.30
   6  -9   7    1.24    0.41
   7  -9   7    6.22    0.72
   7  -9   7    7.55    0.61
   8  -9   7    1.67    0.50
   8  -9   7    1.68    0.41
  -4  -8   7    2.41    0.51
  -4  -8   7    2.75    0.90
  -3  -8   7    3.30    0.57
  -3  -8   7    3.14    0.58
  -2  -8   7    0.33    0.29
  -2  -8   7    0.30    0.35
  -1  -8   7    3.85    0.38
  -1  -8   7    5.75    0.65
  -1  -8   7    4.80    0.61
   0  -8   7    0.31    0.31
   0  -8   7    1.05    0.39
   0  -8   7    0.72    0.24
   1  -8   7    0.77    0.36
   1  -8   7    0.44    0.23
   2  -8   7   10.15    0.44
   2  -8   7   11.50    0.77
   2  -8   7   11.73    0.69
   3  -8   7    2.96    0.48
   3  -8   7    3.08    0.45
   3  -8   7    3.00    0.29
   4  -8   7    1.05    0.36
   4  -8   7    0.85    0.34
   4  -8   7    1.32    0.23
   5  -8   7    1.43    0.29
   5  -8   7    0.78    0.38
   5  -8   7    1.26    0.27
   6  -8   7    7.45    0.52
   6  -8   7    5.63    0.63
   7  -8   7    8.85    0.82
   7  -8   7    8.62    0.61
   8  -8   7    0.11    0.31
   8  -8   7   -0.13    0.35
   9  -8   7    0.73    0.44
   9  -8   7    0.77    0.39
  -5  -7   7    1.50    0.44
  -5  -7   7    2.03    0.51
  -4  -7   7    2.48    0.49
  -4  -7   7    3.12    0.56
  -3  -7   7    1.95    0.44
  -3  -7   7    1.75    0.41
  -2  -7   7   17.78    0.99
  -2  -7   7   16.64    0.69
  -2  -7   7   18.27    0.93
  -1  -7   7    1.35    0.24
  -1  -7   7    1.21    0.37
  -1  -7   7    1.28    0.35
   0  -7   7    0.70    0.32
   0  -7   7    0.70    0.10
   0  -7   7    1.13    0.26
   1  -7   7    0.27    0.21
   1  -7   7    0.12    0.27
   1  -7   7    0.11    0.10
   2  -7   7    0.95    0.27
   2  -7   7    0.66    0.28
   2  -7   7    0.60    0.15
   3  -7   7   12.58    0.77
   3  -7   7   13.12    0.53
   3  -7   7   10.88    0.67
   4  -7   7    3.01    0.44
   4  -7   7    4.02    0.35
   5  -7   7    0.87    0.34
   5  -7   7    1.18    0.25
   5  -7   7    0.96    0.26
   6  -7   7   23.29    0.84
   6  -7   7   23.09    1.08
   6  -7   7   23.18    0.92
   7  -7   7    0.71    0.30
   7  -7   7    1.36    0.41
   8  -7   7    2.70    0.51
   8  -7   7    3.03    0.46
   9  -7   7   -0.13    0.32
   9  -7   7    0.45    0.39
  -6  -6   7   -0.06    0.34
  -6  -6   7    0.22    0.35
  -5  -6   7    2.18    0.50
  -5  -6   7    1.12    0.38
  -4  -6   7    8.08    0.66
  -4  -6   7    9.24    0.71
  -3  -6   7   -0.11    0.22
  -3  -6   7   -0.17    0.25
  -3  -6   7    0.27    0.16
  -2  -6   7    7.70    0.45
  -2  -6   7    7.75    0.59
  -2  -6   7    7.78    0.66
  -1  -6   7    0.00    0.20
  -1  -6   7    0.12    0.27
  -1  -6   7    0.06    0.16
   0  -6   7   -0.02    0.25
   0  -6   7   -0.01    0.16
   1  -6   7    9.73    0.34
   1  -6   7    9.25    0.62
   1  -6   7    9.13    0.55
   2  -6   7    0.60    0.25
   2  -6   7    0.13    0.24
   2  -6   7    0.25    0.12
  -3   6  -7   20.61    0.70
   3  -6   7   21.86    0.72
   3  -6   7   23.00    0.98
   3  -6   7   21.53    0.94
   4  -6   7    0.94    0.22
   4  -6   7    0.84    0.31
   4  -6   7    0.53    0.21
   5  -6   7    1.62    0.27
   5  -6   7    1.53    0.27
   5  -6   7    1.97    0.40
   6  -6   7   -0.02    0.29
   6  -6   7   -0.04    0.22
   6  -6   7    0.04    0.17
   7  -6   7   23.42    0.96
   7  -6   7   20.74    1.05
   8  -6   7    0.28    0.28
   8  -6   7    0.92    0.38
   9  -6   7    1.06    0.41
   9  -6   7    1.31    0.40
  -7  -5   7    0.64    0.37
  -7  -5   7    0.03    0.30
  -6  -5   7    0.42    0.33
  -6  -5   7    1.13    0.37
  -5  -5   7    0.44    0.32
  -5  -5   7   -0.03    0.30
  -4  -5   7    7.49    0.62
  -4  -5   7    7.73    0.64
  -3  -5   7    1.83    0.26
  -3  -5   7    1.94    0.37
  -3  -5   7    1.80    0.40
   2   5  -7   12.96    0.57
  -2  -5   7   13.46    0.70
  -2  -5   7   13.86    0.77
  -2  -5   7   13.92    0.60
  -1  -5   7    1.14    0.33
  -1  -5   7    0.35    0.17
   0  -5   7    2.15    0.36
   0  -5   7    2.18    0.29
   1  -5   7    0.99    0.11
   1  -5   7    0.70    0.23
   1  -5   7    0.59    0.26
  -2   5  -7    0.05    0.09
   2  -5   7    0.27    0.23
   2  -5   7    0.26    0.12
   2  -5   7    0.16    0.18
  -3   5  -7    5.61    0.31
   3  -5   7    5.09    0.44
   3  -5   7    5.62    0.34
   3  -5   7    5.64    0.41
   3  -5   7    5.66    0.48
   4  -5   7   15.16    0.63
   4  -5   7   12.84    0.70
   4  -5   7   14.15    0.60
   5  -5   7   15.35    0.81
   5  -5   7   16.35    0.69
   5  -5   7   15.56    0.65
   6  -5   7    0.56    0.26
   6  -5   7    0.30    0.30
   6  -5   7    0.85    0.22
   7  -5   7    3.23    0.32
   7  -5   7    2.74    0.41
   7  -5   7    3.35    0.45
   8  -5   7    0.68    0.33
   8  -5   7    0.34    0.35
   9  -5   7    0.74    0.35
   9  -5   7   -0.14    0.27
  -7  -4   7    2.40    0.47
  -7  -4   7    2.55    0.48
  -6  -4   7    5.62    0.66
  -6  -4   7    5.55    0.60
  -5  -4   7    0.58    0.26
  -5  -4   7    0.48    0.32
  -4  -4   7   14.67    0.85
  -4  -4   7   17.11    0.83
   3   4  -7    7.30    0.39
  -3  -4   7    7.43    0.51
  -3  -4   7    7.43    0.42
  -3  -4   7    6.29    0.53
   2   4  -7   12.54    0.54
  -2  -4   7   12.12    0.56
  -2  -4   7   11.57    0.61
  -2  -4   7   10.46    0.68
   1   4  -7    0.01    0.15
  -1  -4   7    0.02    0.20
  -1  -4   7   -0.03    0.15
   0  -4   7  160.05    4.03
   0  -4   7  154.75    4.12
  -1   4  -7    0.63    0.10
   1  -4   7    0.68    0.20
   1  -4   7    0.39    0.20
   1  -4   7    0.75    0.11
  -2   4  -7    0.92    0.14
   2  -4   7    0.65    0.21
   2  -4   7    0.98    0.16
   2  -4   7    1.16    0.28
   2  -4   7    0.70    0.23
  -3   4  -7    9.34    0.40
   3  -4   7    8.52    0.54
   3  -4   7    8.75    0.56
   3  -4   7    8.15    0.48
   3  -4   7    8.72    0.42
   4  -4   7   -0.11    0.23
   4  -4   7    0.08    0.17
   4  -4   7    0.40    0.19
  -5   4  -7   34.21    1.06
   5  -4   7   32.28    1.11
   5  -4   7   34.69    1.24
   5  -4   7   34.11    1.09
  -6   4  -7    1.88    0.27
   6  -4   7    2.09    0.35
   6  -4   7    1.71    0.33
   6  -4   7    2.18    0.29
  -7   4  -7    0.12    0.18
   7  -4   7    0.04    0.18
   7  -4   7    0.49    0.29
   7  -4   7   -0.32    0.25
   8  -4   7    0.16    0.28
   8  -4   7    0.10    0.32
   9  -4   7    4.61    0.54
   9  -4   7    6.15    0.66
  -8  -3   7    0.20    0.29
  -8  -3   7    0.37    0.35
  -7  -3   7    0.80    0.39
  -7  -3   7    0.30    0.28
  -6  -3   7   -0.02    0.27
  -6  -3   7   -0.02    0.24
  -5  -3   7    3.94    0.47
  -5  -3   7    3.50    0.49
   4   3  -7    0.27    0.15
  -4  -3   7    0.07    0.24
  -4  -3   7    0.37    0.21
   3   3  -7   24.72    0.85
  -3  -3   7   22.80    0.97
  -3  -3   7   24.95    0.93
  -3  -3   7   24.61    0.86
   2   3  -7    0.26    0.15
  -2  -3   7    0.29    0.22
  -2  -3   7    0.59    0.20
   1   3  -7   -0.28    0.13
  -1  -3   7    0.04    0.21
  -1  -3   7   -0.17    0.16
   0   3  -7    2.91    0.14
   0  -3   7    2.48    0.30
   0  -3   7    3.43    0.38
  -1   3  -7   22.79    0.66
   1  -3   7   22.75    0.86
   1  -3   7   22.15    0.81
  -2   3  -7    0.12    0.15
  -2   3  -7   -0.04    0.09
   2  -3   7    0.04    0.18
   2  -3   7    0.07    0.20
   2  -3   7    0.03    0.18
   2  -3   7    0.10    0.12
  -3   3  -7    1.57    0.21
  -3   3  -7    1.49    0.23
   3  -3   7    1.36    0.23
   3  -3   7    1.28    0.29
   3  -3   7    1.40    0.22
   3  -3   7    1.07    0.25
  -4   3  -7    9.77    0.50
   4  -3   7   11.51    0.55
   4  -3   7   10.42    0.62
   4  -3   7   11.07    0.53
  -5   3  -7    2.02    0.27
  -5   3  -7    2.00    0.28
   5  -3   7    1.44    0.31
   5  -3   7    2.66    0.34
   5  -3   7    1.70    0.27
  -6   3  -7   19.04    0.77
  -6   3  -7   19.20    0.75
   6  -3   7   19.98    0.91
   6  -3   7   19.65    0.83
   6  -3   7   18.56    0.76
  -7   3  -7    5.37    0.44
  -7   3  -7    5.89    0.43
   7  -3   7    5.06    0.50
   7  -3   7    5.15    0.54
   7  -3   7    5.08    0.43
  -8   3  -7    0.85    0.25
   8  -3   7    0.23    0.34
   8  -3   7    0.88    0.36
   9  -3   7    1.98    0.41
   9  -3   7    2.17    0.44
  -8  -2   7    0.35    0.31
  -8  -2   7    0.78    0.36
  -7  -2   7    0.53    0.28
  -7  -2   7    0.69    0.35
   6   2  -7    0.38    0.14
  -6  -2   7    0.22    0.24
  -6  -2   7    0.38    0.28
   5   2  -7    1.94    0.26
   5   2  -7    1.73    0.19
  -5  -2   7    1.66    0.32
  -5  -2   7    1.55    0.37
   4   2  -7   13.99    0.44
   4   2  -7   13.35    0.59
  -4  -2   7   12.60    0.73
  -4  -2   7   13.34    0.63
   3   2  -7    0.34    0.16
   3   2  -7    0.32    0.08
  -3  -2   7    0.81    0.22
  -3  -2   7    0.62    0.26
   2   2  -7   18.20    0.49
   2   2  -7   19.30    0.72
  -2  -2   7   17.62    0.73
  -2  -2   7   17.24    0.76
   1   2  -7    0.31    0.07
   1   2  -7    0.14    0.17
  -1  -2   7    0.27    0.20
  -1  -2   7    0.17    0.19
   0   2  -7    5.52    0.24
   0   2  -7    5.22    0.36
   0  -2   7    5.22    0.40
   0  -2   7    5.94    0.39
   0  -2   7    5.11    0.39
  -1   2  -7    5.26    0.27
  -1   2  -7    4.66    0.33
   1  -2   7    4.91    0.36
   1  -2   7    4.62    0.38
   1  -2   7    4.79    0.37
  -2   2  -7    0.30    0.17
  -2   2  -7    0.35    0.13
   2  -2   7    0.09    0.18
   2  -2   7    0.16    0.18
   2  -2   7    0.27    0.17
  -3   2  -7    6.47    0.41
  -3   2  -7    6.17    0.40
   3  -2   7    7.07    0.42
   3  -2   7    6.12    0.46
   3  -2   7    6.22    0.40
  -4   2  -7    0.75    0.21
  -4   2  -7    0.92    0.22
   4  -2   7    1.00    0.24
   4  -2   7    0.99    0.24
   4  -2   7    1.34    0.27
  -5   2  -7    0.33    0.19
  -5   2  -7    0.21    0.18
   5  -2   7   -0.05    0.19
   5  -2   7    0.18    0.23
   5  -2   7    0.20    0.25
  -6   2  -7    0.67    0.23
  -6   2  -7    0.65    0.23
   6  -2   7    0.57    0.28
   6  -2   7    0.29    0.20
   6  -2   7    0.60    0.28
  -7   2  -7    4.12    0.43
  -7   2  -7    4.96    0.45
   7  -2   7    5.93    0.56
   7  -2   7    4.23    0.48
   7  -2   7    4.68    0.45
  -8   2  -7    0.26    0.21
   8  -2   7   -0.03    0.29
   8  -2   7    0.61    0.32
   9  -2   7   -0.03    0.32
  -9  -1   7    0.72    0.37
  -9  -1   7    0.78    0.43
  -8  -1   7   -0.01    0.35
  -8  -1   7    0.19    0.29
   7   1  -7   10.48    0.51
  -7  -1   7   11.55    0.80
  -7  -1   7   11.40    0.67
   6   1  -7    6.15    0.36
  -6  -1   7    7.38    0.51
  -6  -1   7    8.06    0.67
   5   1  -7    3.34    0.25
  -5  -1   7    3.83    0.49
  -5  -1   7    3.85    0.39
   4   1  -7    4.70    0.26
  -4  -1   7    5.10    0.35
  -4  -1   7    3.54    0.42
   3   1  -7   55.62    1.42
  -3  -1   7   51.86    1.68
  -3  -1   7   57.77    1.56
  -2  -1   7    3.51    0.35
  -2  -1   7    2.53    0.32
  -2  -1   7    2.41    0.32
   1   1  -7   76.52    2.04
   1   1  -7   70.76    1.98
  -1  -1   7   71.25    2.03
  -1  -1   7   74.53    2.07
   0   1  -7   33.08    1.02
   0   1  -7   30.13    1.01
   0  -1   7   34.14    1.10
   0  -1   7   30.77    1.03
   0  -1   7   31.28    1.01
  -1   1  -7    8.15    0.44
  -1   1  -7    8.88    0.39
  -1   1  -7    9.40    0.47
   1  -1   7    8.33    0.47
   1  -1   7    8.53    0.52
   1  -1   7    9.49    0.46
   1  -1   7    8.99    0.45
  -2   1  -7    0.17    0.13
  -2   1  -7    0.37    0.18
  -2   1  -7    0.24    0.17
   2  -1   7    0.30    0.19
   2  -1   7    0.23    0.14
   2  -1   7    0.05    0.18
   2  -1   7    0.54    0.19
  -3   1  -7    0.82    0.21
  -3   1  -7    0.80    0.21
   3  -1   7    0.74    0.24
   3  -1   7    0.94    0.19
   3  -1   7    0.69    0.21
  -4   1  -7   31.54    1.09
  -4   1  -7   33.72    1.12
   4  -1   7   30.80    1.09
   4  -1   7   34.12    1.15
  -5   1  -7    0.52    0.22
  -5   1  -7    0.91    0.31
  -5   1  -7    0.55    0.22
   5  -1   7    0.49    0.26
   5  -1   7    0.45    0.24
  -6   1  -7    2.47    0.34
  -6   1  -7    2.92    0.46
  -6   1  -7    2.97    0.37
   6  -1   7    2.35    0.36
   6  -1   7    2.51    0.38
  -7   1  -7   11.09    0.63
  -7   1  -7   11.00    0.63
  -7   1  -7   10.35    0.73
   7  -1   7   11.01    0.67
   7  -1   7   11.01    0.64
  -8   1  -7    2.21    0.47
  -8   1  -7    2.68    0.39
  -9   0   7    2.30    0.43
   8   0  -7    0.16    0.19
  -8   0   7    0.45    0.29
  -8   0   7    0.04    0.35
   7   0  -7    2.29    0.30
  -7   0   7    2.75    0.36
  -7   0   7    2.17    0.47
   6   0  -7    0.41    0.17
  -6   0   7    0.64    0.22
  -6   0   7    0.65    0.32
   5   0  -7    4.79    0.31
  -5   0   7    5.41    0.57
  -5   0   7    5.02    0.36
   4   0  -7    2.16    0.21
  -4   0   7    2.33    0.25
  -4   0   7    2.05    0.34
  -4   0   7    1.94    0.27
   3   0  -7    1.70    0.19
  -3   0   7    1.32    0.27
  -3   0   7    1.20    0.18
  -3   0   7    1.69    0.27
   2   0  -7    3.60    0.35
   2   0  -7    2.57    0.27
  -2   0   7    2.79    0.34
  -2   0   7    2.95    0.32
   1   0  -7   26.46    0.87
   1   0  -7   25.06    0.86
  -1   0   7   26.47    0.89
  -1   0   7   25.27    0.93
  -1   0   7   23.67    0.85
   0   0  -7   36.41    1.13
   0   0  -7   35.94    1.05
   0   0  -7   33.81    1.10
   0   0   7   34.23    1.17
   0   0   7   35.46    1.04
   0   0   7   34.27    1.12
   0   0   7   36.35    1.06
  -1   0  -7    6.31    0.42
  -1   0  -7    6.63    0.36
  -1   0  -7    6.07    0.41
   1   0   7    6.37    0.42
   1   0   7    6.71    0.45
   1   0   7    6.24    0.33
   1   0   7    6.11    0.37
  -2   0  -7   20.35    0.79
  -2   0  -7   19.86    0.77
   2   0   7   20.05    0.65
   2   0   7   20.09    0.82
   2   0   7   20.25    0.81
   2   0   7   21.53    0.89
  -3   0  -7   -0.04    0.19
  -3   0  -7    0.15    0.16
  -3   0  -7    0.58    0.20
   3   0   7    0.28    0.12
   3   0   7    0.24    0.22
   3   0   7    0.33    0.23
  -4   0  -7   24.48    0.96
  -4   0  -7   22.99    0.91
  -4   0  -7   23.13    0.89
   4   0   7   21.58    0.90
   4   0   7   24.75    0.95
  -5   0  -7    2.36    0.35
  -5   0  -7    2.25    0.33
  -5   0  -7    1.94    0.36
   5   0   7    2.08    0.36
   5   0   7    2.15    0.35
  -6   0  -7    0.30    0.24
  -6   0  -7    0.02    0.22
  -6   0  -7    0.20    0.25
   6   0   7   -0.28    0.22
   6   0   7    0.02    0.25
  -7   0  -7    0.43    0.31
  -7   0  -7    0.03    0.24
   7   0   7    0.14    0.26
  -8   0  -7    9.36    0.68
  -8   0  -7   10.11    0.83
   9  -1  -7   -0.39    0.19
   8  -1  -7    0.51    0.22
  -8   1   7    0.45    0.25
   7  -1  -7    2.91    0.33
  -7   1   7    2.23    0.44
  -7   1   7    2.98    0.34
  -7   1   7    3.70    0.37
   6  -1  -7    6.22    0.41
  -6   1   7    5.53    0.42
  -6   1   7    5.27    0.37
  -6   1   7    5.36    0.57
   5  -1  -7    2.16    0.26
  -5   1   7    2.15    0.29
  -5   1   7    2.87    0.26
  -5   1   7    2.10    0.40
   4  -1  -7    3.65    0.31
  -4   1   7    3.75    0.44
  -4   1   7    3.71    0.36
  -4   1   7    3.17    0.23
   3  -1  -7    8.54    0.44
  -3   1   7    8.73    0.52
  -3   1   7    8.67    0.48
  -3   1   7    8.51    0.32
   2  -1  -7   -0.02    0.13
   2  -1  -7   -0.17    0.12
   2  -1  -7   -0.05    0.12
  -2   1   7   -0.03    0.16
  -2   1   7    0.27    0.19
   1  -1  -7   25.39    0.89
   1  -1  -7   26.19    0.90
   1  -1  -7   26.78    0.85
  -1   1   7   25.55    0.93
  -1   1   7   26.01    0.85
  -1   1   7   26.73    0.76
   0  -1  -7    5.89    0.40
   0  -1  -7    6.40    0.31
   0  -1  -7    5.86    0.41
   0   1   7    5.85    0.32
   0   1   7    5.48    0.31
   0   1   7    5.27    0.42
  -1  -1  -7    0.59    0.21
  -1  -1  -7    0.28    0.18
   1   1   7    0.34    0.17
   1   1   7    0.32    0.20
   1   1   7    0.39    0.12
   1   1   7    0.47    0.23
  -2  -1  -7   34.37    1.15
  -2  -1  -7   35.60    1.18
  -2  -1  -7   34.11    1.12
   2   1   7   36.37    1.20
   2   1   7   33.84    1.18
   2   1   7   34.42    0.89
  -3  -1  -7    1.93    0.32
  -3  -1  -7    2.91    0.36
  -3  -1  -7    2.41    0.35
   3   1   7    1.71    0.33
   3   1   7    1.71    0.32
  -4  -1  -7    2.49    0.38
  -4  -1  -7    2.15    0.35
  -4  -1  -7    2.06    0.35
   4   1   7    1.58    0.31
   4   1   7    1.94    0.15
   4   1   7    1.78    0.32
  -5  -1  -7    9.94    0.67
  -5  -1  -7    9.99    0.63
  -5  -1  -7    8.22    0.58
   5   1   7    8.46    0.55
   5   1   7   11.02    0.76
  -6  -1  -7    6.74    0.66
  -6  -1  -7    5.72    0.55
   6   1   7    6.19    0.53
  -7  -1  -7    0.06    0.27
  -7  -1  -7   -0.05    0.29
   9  -2  -7    0.61    0.27
   8  -2  -7    0.03    0.21
   7  -2  -7    8.16    0.52
  -7   2   7    9.13    0.52
  -7   2   7    9.66    0.48
   6  -2  -7    1.34    0.26
  -6   2   7    1.54    0.20
  -6   2   7    1.09    0.36
  -6   2   7    1.62    0.27
   5  -2  -7   21.95    0.82
  -5   2   7   22.04    0.66
  -5   2   7   22.70    1.00
  -5   2   7   24.60    0.84
   4  -2  -7    1.29    0.23
   4  -2  -7    1.23    0.22
  -4   2   7    0.85    0.22
  -4   2   7    1.05    0.29
   3  -2  -7    5.29    0.37
  -3   2   7    5.52    0.43
  -3   2   7    5.35    0.41
   2  -2  -7    6.76    0.42
   2  -2  -7    7.69    0.41
   2  -2  -7    7.73    0.44
  -2   2   7    6.90    0.43
  -2   2   7    7.44    0.44
   1  -2  -7   14.03    0.53
   1  -2  -7   13.69    0.63
   1  -2  -7   13.29    0.61
  -1   2   7   14.78    0.47
  -1   2   7   14.34    0.64
  -1   2   7   13.32    0.53
   0  -2  -7    0.28    0.17
   0  -2  -7    0.11    0.15
   0  -2  -7    0.04    0.08
   0   2   7    0.30    0.14
   0   2   7    0.03    0.19
  -1  -2  -7   73.74    2.02
  -1  -2  -7   75.58    2.14
  -1  -2  -7   72.52    2.11
   1   2   7   76.42    2.15
   1   2   7   75.72    2.03
  -2  -2  -7    1.78    0.31
  -2  -2  -7    1.59    0.26
  -2  -2  -7    1.54    0.30
   2   2   7    2.26    0.34
  -3  -2  -7    2.29    0.34
  -3  -2  -7    2.04    0.33
  -3  -2  -7    2.44    0.36
   3   2   7    3.10    0.43
  -4  -2  -7    0.13    0.21
  -4  -2  -7    0.53    0.24
  -5  -2  -7    0.46    0.30
  -5  -2  -7    0.57    0.29
  -6  -2  -7   13.61    0.85
  -6  -2  -7   12.15    0.76
  -7  -2  -7    0.01    0.27
  -7  -2  -7   -0.06    0.33
   9  -3  -7    3.60    0.46
   8  -3  -7    0.55    0.25
   7  -3  -7    0.22    0.21
   6  -3  -7   16.44    0.71
  -6   3   7   15.62    0.66
   5  -3  -7    0.21    0.19
  -5   3   7    0.19    0.18
   4  -3  -7    0.83    0.23
   4  -3  -7    0.98    0.22
  -4   3   7    0.70    0.23
   3  -3  -7   19.63    0.76
   3  -3  -7   19.40    0.75
  -3   3   7   19.26    0.78
   2  -3  -7   33.42    1.02
   2  -3  -7   31.64    1.09
   2  -3  -7   31.95    1.07
  -2   3   7   31.23    1.09
   1  -3  -7    1.27    0.18
   1  -3  -7    1.41    0.27
   1  -3  -7    1.60    0.27
  -1   3   7    0.73    0.24
  -1   3   7    1.17    0.14
   0  -3  -7    4.48    0.29
   0  -3  -7    4.41    0.43
   0  -3  -7    4.36    0.43
   0  -3  -7    4.19    0.18
   0   3   7    4.41    0.30
   0   3   7    4.23    0.41
  -1  -3  -7   -0.01    0.14
  -1  -3  -7    0.18    0.21
  -1  -3  -7   -0.02    0.20
   1   3   7   -0.07    0.17
   1   3   7    0.18    0.22
  -2  -3  -7    3.21    0.37
  -2  -3  -7    3.58    0.41
  -2  -3  -7    3.86    0.44
   2   3   7    3.53    0.42
  -3  -3  -7    0.26    0.23
  -3  -3  -7    0.26    0.23
  -4  -3  -7    0.15    0.25
  -4  -3  -7    0.34    0.27
  -5  -3  -7    0.00    0.24
  -5  -3  -7   -0.02    0.27
  -6  -3  -7    0.16    0.31
  -6  -3  -7    0.06    0.30
   9  -4  -7    2.71    0.43
   8  -4  -7    8.15    0.59
   7  -4  -7    2.52    0.38
   6  -4  -7    6.01    0.53
  -6   4   7    5.90    0.42
   5  -4  -7    1.31    0.29
   5  -4  -7    1.06    0.21
  -5   4   7    0.94    0.23
   4  -4  -7    0.91    0.21
   4  -4  -7    1.03    0.23
  -4   4   7    1.22    0.26
   3  -4  -7   44.54    1.41
   3  -4  -7   45.12    1.39
  -3   4   7   45.22    1.42
   2  -4  -7    6.08    0.36
   2  -4  -7    6.01    0.44
   2  -4  -7    6.71    0.45
  -2   4   7    6.48    0.49
   1  -4  -7    3.60    0.39
   1  -4  -7    3.43    0.23
   1  -4  -7    3.63    0.40
   1  -4  -7    3.41    0.23
  -1   4   7    3.33    0.38
  -1   4   7    3.51    0.24
   0  -4  -7    1.06    0.28
   0  -4  -7    0.61    0.25
   0  -4  -7    0.87    0.18
   0   4   7    0.50    0.26
   0   4   7    0.90    0.21
  -1  -4  -7    7.10    0.44
  -1  -4  -7    7.90    0.56
  -1  -4  -7    7.70    0.57
   1   4   7    6.60    0.67
  -2  -4  -7    1.01    0.31
  -2  -4  -7    1.22    0.28
  -3  -4  -7    0.09    0.22
  -3  -4  -7    0.08    0.23
  -4  -4  -7    2.00    0.39
  -4  -4  -7    2.42    0.44
  -5  -4  -7   -0.11    0.28
  -5  -4  -7    0.11    0.28
   9  -5  -7    3.62    0.49
   8  -5  -7   -0.16    0.25
   7  -5  -7    5.02    0.51
   6  -5  -7   -0.14    0.14
   6  -5  -7   -0.06    0.21
   5  -5  -7   13.66    0.63
   5  -5  -7   14.53    0.62
   5  -5  -7   14.34    0.73
  -5   5   7   13.47    0.65
   4  -5  -7    1.35    0.24
   4  -5  -7    1.52    0.26
  -4   5   7    1.22    0.27
   3  -5  -7    0.05    0.18
   3  -5  -7    0.04    0.17
  -3   5   7    0.34    0.23
   2  -5  -7    0.29    0.19
   2  -5  -7    0.31    0.20
  -2   5   7    0.18    0.25
   1  -5  -7    4.15    0.45
   1  -5  -7    4.23    0.28
   1  -5  -7    5.07    0.50
  -1   5   7    4.39    0.46
   0  -5  -7   17.33    0.67
   0  -5  -7   15.62    0.78
  -1  -5  -7    2.71    0.35
  -1  -5  -7    1.93    0.39
  -2  -5  -7    1.01    0.32
  -2  -5  -7    1.42    0.31
  -3  -5  -7   -0.18    0.22
  -3  -5  -7    0.05    0.25
  -4  -5  -7    0.03    0.26
  -4  -5  -7    0.23    0.30
   9  -6  -7    0.71    0.34
   8  -6  -7   -0.14    0.23
   7  -6  -7   -0.13    0.23
   6  -6  -7    0.30    0.23
   6  -6  -7    0.06    0.18
   5  -6  -7    0.10    0.18
   5  -6  -7    0.18    0.23
   5  -6  -7    0.01    0.16
   4  -6  -7    0.74    0.23
   4  -6  -7    0.59    0.23
  -4   6   7    0.98    0.28
   3  -6  -7    2.13    0.33
   3  -6  -7    2.67    0.36
  -3   6   7    2.15    0.36
   2  -6  -7    0.98    0.29
   2  -6  -7    0.75    0.27
   1  -6  -7    0.90    0.29
   0  -6  -7    7.69    0.65
  -1  -6  -7    1.06    0.33
  -1  -6  -7    0.93    0.26
  -2  -6  -7    2.40    0.43
  -2  -6  -7    2.64    0.40
  -3  -6  -7    0.85    0.34
  -3  -6  -7    0.18    0.33
   8  -7  -7    0.21    0.31
   7  -7  -7    3.26    0.49
   6  -7  -7    1.59    0.36
   5  -7  -7    2.69    0.46
   5  -7  -7    2.94    0.37
   4  -7  -7    3.02    0.39
   4  -7  -7    3.43    0.40
  -4   7   7    2.97    0.50
   3  -7  -7    0.86    0.27
   2  -7  -7    4.64    0.50
   1  -7  -7   -0.03    0.24
   0  -7  -7    0.79    0.35
  -1  -7  -7    0.22    0.27
   6  -8  -7    2.84    0.49
   5  -8  -7    0.77    0.35
   4  -8  -7    2.91    0.39
   3  -8  -7    0.14    0.24
   2  -8  -7    1.39    0.35
   1  -8  -7    0.39    0.30
   0 -10   8    1.74    0.45
   0 -10   8    2.19    0.56
   1 -10   8    0.91    0.38
   1 -10   8    0.86    0.31
   1 -10   8    0.64    0.43
   2 -10   8    2.31    0.50
   2 -10   8    3.97    0.53
   3 -10   8    0.11    0.34
   3 -10   8    0.44    0.32
   4 -10   8    3.71    0.58
   4 -10   8    2.63    0.51
   5 -10   8   -0.16    0.35
   5 -10   8   -0.44    0.25
   6 -10   8    1.73    0.47
   6 -10   8    1.10    0.41
   6 -10   8    1.69    0.34
   7 -10   8    1.58    0.78
   7 -10   8    1.19    0.35
  -2  -9   8    1.49    0.45
  -2  -9   8    0.69    0.42
  -1  -9   8    7.18    0.78
  -1  -9   8    6.79    0.78
   0  -9   8    0.03    0.33
   0  -9   8    0.13    0.22
   0  -9   8   -0.62    0.21
   1  -9   8   15.97    0.85
   1  -9   8   17.60    1.02
   2  -9   8   -0.04    0.34
   2  -9   8    0.08    0.24
   3  -9   8    5.92    0.62
   3  -9   8    7.66    0.77
   4  -9   8    0.30    0.35
   4  -9   8    0.50    0.22
   4  -9   8    0.73    0.34
   5  -9   8    5.61    0.47
   5  -9   8    6.14    0.71
   5  -9   8    6.10    0.73
   6  -9   8    9.99    0.83
   6  -9   8    9.21    0.62
   7  -9   8    5.90    0.56
   7  -9   8    7.05    0.79
   8  -9   8   -0.28    0.34
   8  -9   8   -0.09    0.30
  -3  -8   8    0.28    0.33
  -3  -8   8    0.47    0.37
  -2  -8   8   -0.03    0.29
  -2  -8   8    0.11    0.34
  -1  -8   8   -0.11    0.25
  -1  -8   8    0.08    0.29
  -1  -8   8    0.43    0.22
   0  -8   8    1.67    0.43
   0  -8   8    2.79    0.38
   1  -8   8    4.45    0.50
   1  -8   8    4.01    0.56
   2  -8   8   14.28    0.89
   2  -8   8   14.51    0.79
   3  -8   8   -0.05    0.23
   3  -8   8    0.11    0.15
   3  -8   8    0.56    0.34
   4  -8   8    0.40    0.31
   4  -8   8    0.77    0.35
   4  -8   8    0.80    0.22
   5  -8   8    1.56    0.29
   5  -8   8    1.46    0.40
   5  -8   8    1.26    0.38
   5  -8   8    1.77    0.32
   6  -8   8    0.19    0.25
   6  -8   8    0.16    0.31
   7  -8   8    0.48    0.35
   7  -8   8    0.22    0.30
   8  -8   8    0.74    0.42
   8  -8   8    1.36    0.39
  -5  -7   8    0.56    0.38
  -5  -7   8    0.54    0.39
  -4  -7   8    3.12    0.54
  -4  -7   8    2.58    0.50
  -3  -7   8    0.08    0.33
  -3  -7   8   -0.04    0.28
  -2  -7   8    4.65    0.43
  -2  -7   8    4.64    0.58
  -2  -7   8    5.89    0.68
  -1  -7   8    4.53    0.43
  -1  -7   8    3.87    0.55
  -1  -7   8    4.15    0.53
   0  -7   8    1.83    0.31
   0  -7   8    1.82    0.41
   1  -7   8    0.74    0.32
   1  -7   8    0.28    0.24
   1  -7   8    0.86    0.12
   2  -7   8    0.49    0.27
   2  -7   8   -0.01    0.23
   2  -7   8    0.35    0.13
   3  -7   8   35.78    1.36
   3  -7   8   36.86    1.09
   3  -7   8   36.59    1.43
   4  -7   8    1.36    0.24
   4  -7   8    1.55    0.39
   4  -7   8    1.30    0.37
   4  -7   8    1.56    0.30
   5  -7   8    2.32    0.34
   5  -7   8    2.28    0.32
   5  -7   8    1.50    0.43
   6  -7   8    4.36    0.41
   6  -7   8    5.30    0.59
   6  -7   8    4.85    0.47
   7  -7   8    0.00    0.34
   7  -7   8    0.57    0.29
   8  -7   8    2.62    0.45
   8  -7   8    1.28    0.41
   9  -7   8    0.27    0.41
   9  -7   8    0.42    0.33
  -5  -6   8    2.86    0.52
  -5  -6   8    5.16    0.69
  -4  -6   8    3.06    0.51
  -4  -6   8    3.40    0.50
  -3  -6   8    1.76    0.44
  -3  -6   8    1.40    0.25
  -3  -6   8    1.35    0.36
  -2  -6   8    0.14    0.28
  -2  -6   8   -0.13    0.21
  -2  -6   8    0.16    0.18
  -1  -6   8    2.56    0.44
  -1  -6   8    3.76    0.39
   0  -6   8   14.00    0.68
   0  -6   8   14.50    0.84
   1  -6   8    2.63    0.38
   1  -6   8    2.13    0.39
   1  -6   8    2.92    0.17
   2  -6   8    0.52    0.13
   2  -6   8    0.02    0.24
   2  -6   8    0.16    0.23
  -3   6  -8    7.98    0.38
   3  -6   8    7.13    0.55
   3  -6   8    7.85    0.59
   3  -6   8    9.15    0.55
   3  -6   8    7.93    0.41
   4  -6   8   13.04    0.65
   4  -6   8   13.73    0.76
   4  -6   8   12.76    0.74
   4  -6   8   13.73    0.60
   5  -6   8    0.87    0.32
   5  -6   8    0.59    0.24
   5  -6   8    0.50    0.21
   6  -6   8    4.09    0.39
   6  -6   8    5.12    0.56
   6  -6   8    3.95    0.42
   7  -6   8   19.31    0.89
   7  -6   8   20.20    1.04
   8  -6   8    3.95    0.58
   8  -6   8    4.44    0.53
   9  -6   8    0.48    0.39
   9  -6   8    0.23    0.34
  -6  -5   8    1.98    0.52
  -6  -5   8    2.58    0.50
  -5  -5   8   -0.15    0.31
  -5  -5   8    0.05    0.27
  -4  -5   8    1.06    0.36
  -4  -5   8    1.00    0.35
  -3  -5   8   -0.05    0.25
  -3  -5   8   -0.47    0.20
  -3  -5   8    0.08    0.17
  -2  -5   8    0.02    0.25
  -2  -5   8    0.02    0.20
  -2  -5   8    0.09    0.18
  -1  -5   8   35.28    1.34
  -1  -5   8   34.53    1.18
   0  -5   8   17.04    0.84
   0  -5   8   14.42    0.71
   1  -5   8    0.16    0.18
   1  -5   8    0.08    0.22
  -2   5  -8    1.08    0.14
   2  -5   8    1.34    0.18
   2  -5   8    0.95    0.28
   2  -5   8    1.18    0.30
   2  -5   8    0.90    0.28
  -3   5  -8    3.40    0.26
   3  -5   8    3.15    0.36
   3  -5   8    3.65    0.30
   3  -5   8    3.57    0.43
   3  -5   8    3.21    0.44
   4  -5   8   15.97    0.70
   4  -5   8   14.56    0.78
   4  -5   8   15.48    0.64
   5  -5   8   -0.34    0.21
   5  -5   8   -0.16    0.20
   5  -5   8    0.19    0.19
   6  -5   8    0.88    0.25
   6  -5   8    1.02    0.30
   6  -5   8    0.41    0.32
   7  -5   8    0.96    0.36
   7  -5   8    0.62    0.34
   7  -5   8    0.50    0.31
   8  -5   8   -0.26    0.33
   8  -5   8    0.19    0.32
   9  -5   8    4.63    0.57
   9  -5   8    5.58    0.65
  -7  -4   8    3.28    0.58
  -7  -4   8    3.21    0.55
  -6  -4   8    4.18    0.56
  -6  -4   8    4.80    0.66
  -5  -4   8   10.54    0.70
  -5  -4   8    9.71    0.77
  -4  -4   8    7.98    0.67
  -4  -4   8    8.08    0.60
  -3  -4   8    9.77    0.66
  -3  -4   8    9.34    0.52
  -3  -4   8    9.63    0.59
  -2  -4   8    6.84    0.58
  -2  -4   8    7.42    0.53
  -2  -4   8    7.32    0.48
  -1  -4   8    0.12    0.17
  -1  -4   8   -0.16    0.19
   0  -4   8    5.39    0.46
   0  -4   8    5.36    0.41
  -1   4  -8    1.54    0.14
   1  -4   8    2.11    0.35
   1  -4   8    1.22    0.27
   1  -4   8    1.00    0.27
  -2   4  -8   14.84    0.51
   2  -4   8   14.74    0.68
   2  -4   8   14.21    0.71
   2  -4   8   14.16    0.71
   2  -4   8   14.90    0.53
  -3   4  -8   37.73    1.10
   3  -4   8   35.81    1.30
   3  -4   8   37.83    1.11
   3  -4   8   36.77    1.27
   3  -4   8   35.61    1.20
  -4   4  -8    0.38    0.18
   4  -4   8    0.14    0.27
   4  -4   8    0.00    0.18
   4  -4   8   -0.22    0.17
  -5   4  -8   10.60    0.54
   5  -4   8   11.86    0.59
   5  -4   8   11.44    0.72
   5  -4   8   11.22    0.57
  -6   4  -8    1.83    0.28
   6  -4   8    2.04    0.42
   6  -4   8    2.11    0.31
   6  -4   8    1.46    0.33
  -7   4  -8    2.31    0.32
   7  -4   8    1.88    0.40
   7  -4   8    1.53    0.29
   7  -4   8    2.11    0.37
   8  -4   8    0.25    0.34
   8  -4   8    1.34    0.43
   9  -4   8    4.56    0.59
   9  -4   8    5.63    0.61
  -8  -3   8    0.69    0.39
  -8  -3   8    0.99    0.39
  -7  -3   8   -0.07    0.31
  -7  -3   8    0.74    0.33
  -6  -3   8    3.98    0.58
  -6  -3   8    3.77    0.47
  -5  -3   8    9.66    0.61
  -5  -3   8    7.44    0.64
  -4  -3   8    0.28    0.22
  -4  -3   8    0.11    0.25
  -3  -3   8   17.71    0.74
  -3  -3   8   17.13    0.76
  -3  -3   8   15.88    0.83
  -2  -3   8    0.26    0.19
  -2  -3   8    0.32    0.25
  -1  -3   8    0.26    0.23
  -1  -3   8    0.51    0.21
   0   3  -8    5.06    0.21
   0  -3   8    5.19    0.44
   0  -3   8    5.26    0.41
   0  -3   8    4.76    0.44
  -1   3  -8    3.91    0.23
   1  -3   8    3.95    0.41
   1  -3   8    3.32    0.37
   1  -3   8    4.38    0.40
  -2   3  -8   87.81    2.38
  -2   3  -8   90.39    2.27
   2  -3   8   91.10    2.43
   2  -3   8   87.54    2.42
   2  -3   8   83.57    2.46
  -3   3  -8   11.54    0.55
   3  -3   8   10.21    0.60
   3  -3   8   12.72    0.61
   3  -3   8   11.13    0.51
   3  -3   8   12.20    0.61
  -4   3  -8    1.95    0.29
   4  -3   8    1.27    0.26
   4  -3   8    1.38    0.33
   4  -3   8    1.11    0.26
  -5   3  -8    7.73    0.48
  -5   3  -8    7.54    0.49
   5  -3   8    7.80    0.51
   5  -3   8    7.85    0.53
   5  -3   8    7.64    0.59
  -6   3  -8   21.89    0.87
  -6   3  -8   23.12    0.87
   6  -3   8   20.88    0.91
   6  -3   8   22.59    0.89
   6  -3   8   23.45    1.02
  -7   3  -8    0.03    0.20
  -7   3  -8   -0.02    0.18
   7  -3   8    0.38    0.23
   7  -3   8   -0.23    0.28
   7  -3   8    0.52    0.32
  -8   3  -8    0.66    0.25
   8  -3   8    0.05    0.34
   8  -3   8    0.61    0.35
   9  -3   8    1.13    0.41
   9  -3   8    0.98    0.43
  -8  -2   8    0.82    0.37
  -8  -2   8    0.72    0.38
  -7  -2   8    4.49    0.65
  -7  -2   8    4.05    0.51
  -6  -2   8    1.78    0.44
  -6  -2   8    1.10    0.31
   5   2  -8    0.20    0.10
  -5  -2   8   -0.38    0.16
  -5  -2   8   -0.07    0.25
   4   2  -8    2.21    0.17
  -4  -2   8    2.00    0.40
  -4  -2   8    2.40    0.33
   3   2  -8    2.96    0.17
  -3  -2   8    3.61    0.36
  -3  -2   8    3.13    0.40
   2   2  -8    5.57    0.22
  -2  -2   8    5.37    0.50
  -2  -2   8    5.35    0.44
   1   2  -8    0.10    0.07
  -1  -2   8    0.04    0.18
  -1  -2   8    0.26    0.19
  -1  -2   8    0.12    0.18
   0   2  -8    3.49    0.22
   0  -2   8    3.51    0.38
   0  -2   8    3.99    0.40
   0  -2   8    3.71    0.41
  -1   2  -8    6.44    0.42
  -1   2  -8    6.73    0.32
   1  -2   8    6.08    0.43
   1  -2   8    6.23    0.48
   1  -2   8    7.50    0.48
  -2   2  -8    0.81    0.17
  -2   2  -8    0.78    0.22
   2  -2   8    0.66    0.21
   2  -2   8    0.82    0.22
   2  -2   8    0.69    0.26
  -3   2  -8    3.26    0.34
  -3   2  -8    2.50    0.30
   3  -2   8    3.44    0.35
   3  -2   8    3.44    0.41
   3  -2   8    2.88    0.33
  -4   2  -8    8.90    0.52
  -4   2  -8    8.89    0.52
   4  -2   8    8.18    0.53
   4  -2   8    8.66    0.57
   4  -2   8    9.71    0.52
  -5   2  -8    1.32    0.26
  -5   2  -8    1.64    0.30
   5  -2   8    1.14    0.34
   5  -2   8    1.19    0.28
  -6   2  -8    1.07    0.27
  -6   2  -8    0.73    0.25
   6  -2   8    2.48    0.41
   6  -2   8    1.69    0.33
  -7   2  -8    0.17    0.22
  -7   2  -8   -0.06    0.20
   7  -2   8    0.23    0.31
   7  -2   8   -0.44    0.22
  -8   2  -8    2.43    0.36
   8  -2   8    1.93    0.42
  -8  -1   8   -0.50    0.32
  -8  -1   8    0.19    0.29
   7   1  -8   33.40    1.26
  -7  -1   8   34.52    1.25
  -7  -1   8   30.87    1.42
   6   1  -8   -0.29    0.11
  -6  -1   8    0.09    0.27
  -6  -1   8    0.51    0.22
   5   1  -8   13.57    0.51
  -5  -1   8   12.82    0.77
  -5  -1   8   14.00    0.64
   4   1  -8    1.62    0.18
  -4  -1   8    1.79    0.27
  -4  -1   8    1.45    0.32
   3   1  -8   32.64    0.94
  -3  -1   8   34.24    1.06
  -3  -1   8   34.65    1.16
  -3  -1   8   35.10    1.23
  -2  -1   8    4.31    0.41
  -2  -1   8    4.35    0.42
  -2  -1   8    4.30    0.43
   1   1  -8   25.56    0.89
  -1  -1   8   25.91    0.93
  -1  -1   8   24.37    0.95
  -1  -1   8   24.49    0.91
   0   1  -8   15.00    0.61
   0   1  -8   14.04    0.62
   0  -1   8   13.33    0.68
   0  -1   8   14.16    0.64
   0  -1   8   13.95    0.62
  -1   1  -8    1.30    0.24
  -1   1  -8    1.34    0.20
  -1   1  -8    1.39    0.26
   1  -1   8    1.49    0.30
   1  -1   8    1.69    0.26
   1  -1   8    1.19    0.22
   1  -1   8    1.70    0.27
  -2   1  -8   15.03    0.67
  -2   1  -8   16.55    0.70
   2  -1   8   16.00    0.69
   2  -1   8   15.62    0.62
   2  -1   8   15.18    0.72
  -3   1  -8    5.46    0.42
  -3   1  -8    6.53    0.43
   3  -1   8    6.64    0.52
   3  -1   8    6.51    0.46
   3  -1   8    6.16    0.38
  -4   1  -8   57.64    1.77
  -4   1  -8   56.98    1.74
   4  -1   8   59.18    1.63
   4  -1   8   57.56    1.80
   4  -1   8   58.57    1.76
  -5   1  -8    7.56    0.49
  -5   1  -8    7.55    0.52
   5  -1   8    7.77    0.54
   5  -1   8    8.26    0.59
  -6   1  -8    2.64    0.37
  -6   1  -8    1.58    0.32
   6  -1   8    2.42    0.40
   6  -1   8    1.34    0.33
  -7   1  -8    1.36    0.32
  -7   1  -8    2.28    0.45
   7  -1   8    1.50    0.37
  -8   1  -8    1.48    0.35
  -8   1  -8    2.51    0.52
  -9   0   8    0.65    0.49
   8   0  -8    0.16    0.22
  -8   0   8    0.03    0.32
  -8   0   8    0.17    0.26
   7   0  -8    1.52    0.25
  -7   0   8    0.77    0.35
  -7   0   8    1.12    0.29
  -7   0   8    1.22    0.31
   6   0  -8    4.86    0.35
  -6   0   8    5.41    0.42
  -6   0   8    5.30    0.58
  -6   0   8    6.05    0.47
   5   0  -8    2.76    0.26
  -5   0   8    2.45    0.40
  -5   0   8    2.18    0.28
  -5   0   8    2.58    0.35
   4   0  -8    7.48    0.37
  -4   0   8    7.25    0.57
  -4   0   8    6.99    0.38
  -4   0   8    8.16    0.50
   3   0  -8   16.77    0.59
  -3   0   8   16.17    0.59
  -3   0   8   15.84    0.76
  -3   0   8   18.38    0.75
   2   0  -8    0.42    0.19
  -2   0   8    0.50    0.23
  -2   0   8    0.05    0.19
   1   0  -8    0.63    0.19
   1   0  -8    0.67    0.19
  -1   0   8    0.60    0.25
  -1   0   8    0.85    0.22
  -1   0   8    0.78    0.23
   0   0  -8    0.01    0.12
   0   0  -8   -0.12    0.17
   0   0  -8    0.03    0.17
   0   0   8    0.04    0.20
   0   0   8    0.14    0.22
   0   0   8    0.18    0.16
   0   0   8    0.12    0.16
  -1   0  -8    0.92    0.23
  -1   0  -8    0.86    0.24
   1   0   8    0.46    0.21
   1   0   8    0.81    0.18
   1   0   8    0.64    0.26
   1   0   8    1.08    0.23
  -2   0  -8    1.22    0.25
  -2   0  -8    0.81    0.24
   2   0   8    0.80    0.25
   2   0   8    1.15    0.29
   2   0   8    1.11    0.19
  -3   0  -8    0.15    0.20
  -3   0  -8   -0.28    0.18
   3   0   8   -0.13    0.12
   3   0   8   -0.10    0.22
   3   0   8   -0.13    0.22
  -4   0  -8   24.15    0.98
  -4   0  -8   24.20    0.96
  -4   0  -8   24.10    0.99
   4   0   8   25.54    1.01
   4   0   8   25.79    1.01
   4   0   8   23.52    0.76
  -5   0  -8    1.95    0.31
  -5   0  -8    1.16    0.27
  -5   0  -8    2.27    0.42
   5   0   8    1.91    0.36
   5   0   8    2.17    0.38
  -6   0  -8    1.39    0.32
  -6   0  -8    1.88    0.42
   6   0   8    1.09    0.34
  -7   0  -8    0.63    0.29
  -7   0  -8    0.47    0.36
   7   0   8   -0.21    0.33
  -8   0  -8    2.99    0.44
  -8   0  -8    2.02    0.52
   9  -1  -8   -0.14    0.32
   8  -1  -8    0.47    0.23
  -8   1   8    0.59    0.43
   7  -1  -8    2.01    0.29
  -7   1   8    2.37    0.31
  -7   1   8    1.70    0.45
  -7   1   8    2.18    0.33
   6  -1  -8    2.89    0.31
  -6   1   8    3.89    0.52
  -6   1   8    3.57    0.32
  -6   1   8    3.35    0.37
   5  -1  -8   12.78    0.55
  -5   1   8   12.15    0.72
  -5   1   8   12.22    0.49
  -5   1   8   11.53    0.62
   4  -1  -8    7.65    0.41
  -4   1   8    7.59    0.58
  -4   1   8    7.83    0.34
  -4   1   8    8.17    0.50
   3  -1  -8   24.04    0.86
  -3   1   8   23.97    0.90
  -3   1   8   24.91    0.71
  -3   1   8   25.86    0.97
   2  -1  -8    1.07    0.24
   2  -1  -8    0.76    0.20
  -2   1   8    0.99    0.14
  -2   1   8    0.71    0.23
  -2   1   8    0.82    0.24
   1  -1  -8    4.55    0.36
   1  -1  -8    4.21    0.38
   1  -1  -8    3.99    0.32
  -1   1   8    4.29    0.27
  -1   1   8    4.29    0.34
  -1   1   8    4.36    0.42
   0  -1  -8    0.07    0.17
   0  -1  -8    0.21    0.20
   0  -1  -8    0.53    0.14
   0   1   8    0.21    0.15
   0   1   8    0.03    0.19
   0   1   8    0.20    0.14
  -1  -1  -8    0.37    0.19
  -1  -1  -8    0.36    0.20
   1   1   8    0.26    0.23
   1   1   8    0.28    0.18
   1   1   8    0.25    0.26
   1   1   8    0.05    0.12
  -2  -1  -8    1.48    0.27
  -2  -1  -8    1.76    0.29
   2   1   8    1.56    0.30
   2   1   8    1.48    0.32
   2   1   8    1.39    0.14
  -3  -1  -8    1.02    0.28
  -3  -1  -8    1.07    0.27
  -3  -1  -8    1.30    0.28
   3   1   8    0.59    0.30
   3   1   8    1.13    0.28
  -4  -1  -8   -0.27    0.20
  -4  -1  -8   -0.05    0.22
  -4  -1  -8   -0.02    0.20
   4   1   8    0.50    0.29
   4   1   8   -0.38    0.34
  -5  -1  -8    1.55    0.38
  -5  -1  -8    1.12    0.32
   5   1   8    0.99    0.32
  -6  -1  -8    1.73    0.40
  -6  -1  -8    2.42    0.42
   6   1   8    1.56    0.37
  -7  -1  -8   -0.16    0.25
  -7  -1  -8   -0.13    0.30
   9  -2  -8    0.65    0.29
   8  -2  -8    2.56    0.37
   7  -2  -8    8.49    0.54
   6  -2  -8    2.32    0.31
  -6   2   8    2.49    0.44
  -6   2   8    2.65    0.33
   5  -2  -8    3.49    0.35
  -5   2   8    2.43    0.32
  -5   2   8    2.78    0.18
  -5   2   8    2.97    0.42
   4  -2  -8    5.40    0.41
   4  -2  -8    6.35    0.41
  -4   2   8    5.64    0.50
  -4   2   8    6.29    0.47
   3  -2  -8   -0.19    0.15
  -3   2   8   -0.04    0.20
  -3   2   8   -0.10    0.20
   2  -2  -8   33.48    1.14
   2  -2  -8   35.59    1.10
   2  -2  -8   32.39    1.12
  -2   2   8   33.97    1.10
  -2   2   8   33.41    1.16
  -2   2   8   33.73    0.86
   1  -2  -8    5.70    0.48
   1  -2  -8    6.08    0.44
   1  -2  -8    5.91    0.34
  -1   2   8    5.27    0.28
  -1   2   8    5.71    0.36
  -1   2   8    5.76    0.45
   0  -2  -8    2.05    0.20
   0  -2  -8    1.50    0.29
   0  -2  -8    1.70    0.30
   0   2   8    1.94    0.23
   0   2   8    1.86    0.33
  -1  -2  -8    0.81    0.22
  -1  -2  -8    0.60    0.21
   1   2   8    0.47    0.19
   1   2   8    0.58    0.25
  -2  -2  -8    7.93    0.48
  -2  -2  -8    7.44    0.51
  -2  -2  -8    7.16    0.52
   2   2   8    8.84    0.62
  -3  -2  -8   19.92    0.87
  -3  -2  -8   20.60    0.92
  -4  -2  -8    0.06    0.26
  -4  -2  -8    0.89    0.28
  -5  -2  -8    0.21    0.26
  -5  -2  -8   -0.11    0.25
  -6  -2  -8    4.22    0.58
  -6  -2  -8    5.21    0.58
   9  -3  -8    1.60    0.35
   8  -3  -8    2.92    0.40
   7  -3  -8    4.08    0.44
   6  -3  -8    3.65    0.39
  -6   3   8    3.95    0.38
   5  -3  -8    0.79    0.24
   5  -3  -8    0.50    0.20
  -5   3   8    0.28    0.21
   4  -3  -8    1.49    0.26
   4  -3  -8    1.69    0.27
  -4   3   8    1.52    0.29
   3  -3  -8    3.59    0.38
   3  -3  -8    2.98    0.36
  -3   3   8    3.36    0.40
   2  -3  -8   32.88    1.17
   2  -3  -8   35.31    1.11
   2  -3  -8   36.57    1.22
  -2   3   8   35.96    1.22
   1  -3  -8    5.72    0.50
   1  -3  -8    4.97    0.30
   1  -3  -8    5.13    0.47
  -1   3   8    5.50    0.50
  -1   3   8    4.32    0.25
   0  -3  -8    2.45    0.35
   0  -3  -8    2.75    0.39
   0   3   8    2.47    0.26
   0   3   8    2.96    0.37
  -1  -3  -8   21.31    0.91
  -1  -3  -8   20.76    0.79
  -1  -3  -8   21.58    0.92
   1   3   8   21.13    0.95
  -2  -3  -8    0.42    0.24
  -2  -3  -8    0.46    0.22
  -3  -3  -8   10.82    0.65
  -3  -3  -8   10.65    0.69
  -4  -3  -8    1.55    0.37
  -4  -3  -8    1.85    0.40
  -5  -3  -8    1.07    0.36
  -5  -3  -8    1.11    0.39
  -6  -3  -8    0.14    0.33
  -6  -3  -8    0.48    0.33
   9  -4  -8    0.02    0.25
   8  -4  -8    0.74    0.29
   7  -4  -8    0.19    0.22
   6  -4  -8    4.14    0.45
   5  -4  -8    0.96    0.28
   5  -4  -8    0.63    0.22
  -5   4   8    0.61    0.25
   4  -4  -8    0.03    0.17
   4  -4  -8    0.06    0.16
  -4   4   8    0.29    0.22
   3  -4  -8   13.45    0.66
   3  -4  -8   14.12    0.68
  -3   4   8   13.84    0.70
   2  -4  -8    4.42    0.44
   2  -4  -8    4.67    0.45
  -2   4   8    4.51    0.47
   1  -4  -8    1.42    0.27
   1  -4  -8    1.26    0.27
  -1   4   8    1.60    0.34
   0  -4  -8    0.10    0.22
   0  -4  -8    0.36    0.36
   0  -4  -8    0.38    0.16
  -1  -4  -8   15.38    0.69
  -1  -4  -8   16.15    0.82
  -2  -4  -8    2.10    0.34
  -2  -4  -8    2.23    0.41
  -3  -4  -8    0.37    0.30
  -3  -4  -8    0.34    0.25
  -4  -4  -8    4.66    0.58
  -4  -4  -8    3.77    0.50
  -5  -4  -8    1.87    0.47
  -5  -4  -8    2.14    0.47
   8  -5  -8    4.58    0.54
   7  -5  -8    0.77    0.32
   6  -5  -8   14.84    0.66
   6  -5  -8   14.32    0.75
   5  -5  -8    0.84    0.23
   5  -5  -8    0.65    0.28
   5  -5  -8    0.64    0.22
  -5   5   8    0.24    0.24
   4  -5  -8    4.73    0.45
   4  -5  -8    4.58    0.43
  -4   5   8    4.59    0.46
   3  -5  -8    2.39    0.35
   3  -5  -8    2.27    0.34
  -3   5   8    2.53    0.38
   2  -5  -8    4.62    0.46
   2  -5  -8    4.16    0.45
  -2   5   8    5.08    0.53
   1  -5  -8   -0.05    0.23
   0  -5  -8    9.08    0.53
   0  -5  -8   10.10    0.67
  -1  -5  -8    3.23    0.37
  -1  -5  -8    3.07    0.46
  -2  -5  -8    0.09    0.24
  -2  -5  -8    0.16    0.22
  -3  -5  -8    3.13    0.46
  -3  -5  -8    3.10    0.48
   8  -6  -8    0.68    0.32
   7  -6  -8    3.75    0.47
   6  -6  -8    1.40    0.34
   5  -6  -8    0.78    0.25
   5  -6  -8    0.47    0.26
   5  -6  -8    0.50    0.23
   4  -6  -8    1.47    0.30
   4  -6  -8    1.47    0.31
  -4   6   8    1.13    0.33
   3  -6  -8    7.91    0.56
   2  -6  -8    0.92    0.28
   1  -6  -8    0.68    0.32
   0  -6  -8   -0.29    0.24
  -1  -6  -8    0.16    0.29
  -2  -6  -8    1.37    0.41
   7  -7  -8    0.10    0.30
   6  -7  -8    0.98    0.32
   5  -7  -8    0.14    0.20
   5  -7  -8    0.44    0.32
   4  -7  -8    5.77    0.53
   3  -7  -8    2.15    0.36
   2  -7  -8    3.07    0.46
   1  -7  -8    0.62    0.31
   0  -7  -8    1.54    0.42
   4  -8  -8    0.44    0.26
   3  -8  -8    0.83    0.30
   1 -10   9    0.84    0.46
   1 -10   9    1.15    0.34
   2 -10   9    3.03    0.57
   2 -10   9    2.96    0.49
   3 -10   9    0.58    0.33
   3 -10   9    0.41    0.40
   4 -10   9    0.07    0.32
   4 -10   9   -0.26    0.35
   5 -10   9    0.73    0.40
   5 -10   9    0.20    0.41
   6 -10   9    8.89    0.90
   6 -10   9    7.91    0.94
  -2  -9   9    0.18    0.42
  -1  -9   9    7.25    0.76
  -1  -9   9    7.17    0.82
   0  -9   9   -0.26    0.29
   0  -9   9   -0.04    0.22
   0  -9   9   -0.18    0.32
   1  -9   9   11.51    0.76
   1  -9   9   10.43    0.88
   2  -9   9    0.32    0.30
   2  -9   9   -0.21    0.30
   3  -9   9    1.69    0.43
   3  -9   9    1.34    0.37
   4  -9   9    2.55    0.52
   4  -9   9    2.22    0.49
   5  -9   9    3.64    0.44
   5  -9   9    3.51    0.64
   5  -9   9    3.29    0.52
   6  -9   9   14.30    0.98
   6  -9   9   13.07    0.72
   6  -9   9   13.58    0.98
   7  -9   9    0.53    0.33
   7  -9   9    0.26    0.39
  -3  -8   9   -0.24    0.31
  -3  -8   9    0.06    0.34
  -2  -8   9    5.18    0.72
  -2  -8   9    3.15    0.52
  -1  -8   9    0.51    0.31
  -1  -8   9   -0.06    0.30
  -1  -8   9    0.48    0.23
   0  -8   9    0.12    0.33
   0  -8   9    0.64    0.26
   1  -8   9    0.05    0.30
   1  -8   9    0.03    0.25
   2  -8   9    2.75    0.49
   2  -8   9    2.54    0.43
   3  -8   9    1.91    0.46
   3  -8   9    1.09    0.33
   4  -8   9    1.95    0.43
   4  -8   9    2.24    0.37
   4  -8   9    1.50    0.41
   4  -8   9    1.96    0.27
   5  -8   9    1.47    0.44
   5  -8   9    1.71    0.34
   5  -8   9    1.34    0.42
   5  -8   9    1.70    0.31
   6  -8   9    2.61    0.38
   6  -8   9    3.34    0.57
   7  -8   9    3.45    0.45
   7  -8   9    3.90    0.63
   8  -8   9    2.54    0.53
   8  -8   9    3.56    0.49
  -4  -7   9    2.66    0.53
  -4  -7   9    1.75    0.47
  -3  -7   9    1.22    0.42
  -3  -7   9    1.82    0.51
  -2  -7   9    0.58    0.31
  -2  -7   9    0.61    0.24
  -2  -7   9    1.06    0.39
  -1  -7   9    3.04    0.40
  -1  -7   9    2.94    0.49
  -1  -7   9    3.57    0.58
   0  -7   9    0.08    0.28
   0  -7   9    0.32    0.23
   1  -7   9   10.42    0.74
   1  -7   9   11.27    0.69
   2  -7   9    3.10    0.49
   2  -7   9    3.74    0.25
   2  -7   9    3.46    0.47
   3  -7   9    7.46    0.39
   3  -7   9    7.24    0.67
   3  -7   9    6.11    0.65
   4  -7   9    8.43    0.70
   4  -7   9    9.23    0.73
   4  -7   9    8.97    0.59
   4  -7   9    9.14    0.49
   5  -7   9    7.95    0.78
   5  -7   9    6.64    0.47
   5  -7   9    7.73    0.73
   5  -7   9    6.04    0.52
   6  -7   9   -0.02    0.33
   6  -7   9    0.20    0.24
   7  -7   9   -0.20    0.29
   7  -7   9   -0.14    0.27
   8  -7   9    2.02    0.51
   8  -7   9    2.10    0.43
  -5  -6   9    0.83    0.44
  -5  -6   9    1.36    0.45
  -4  -6   9    3.32    0.58
  -4  -6   9    4.23    0.60
  -3  -6   9    0.27    0.33
  -3  -6   9    0.44    0.23
  -3  -6   9    0.36    0.31
  -2  -6   9    1.76    0.38
  -2  -6   9    2.40    0.34
  -2  -6   9    1.81    0.45
  -1  -6   9    0.56    0.33
  -1  -6   9    0.51    0.24
   0  -6   9   95.51    2.83
   0  -6   9   90.95    2.64
   1  -6   9    2.24    0.42
   1  -6   9    2.32    0.38
   2  -6   9    6.53    0.60
   2  -6   9    5.69    0.30
   2  -6   9    4.81    0.54
   3  -6   9    0.10    0.25
   3  -6   9    0.11    0.28
   3  -6   9    0.32    0.24
   3  -6   9    0.18    0.17
   4  -6   9   11.15    0.63
   4  -6   9   10.64    0.75
   4  -6   9   10.16    0.52
   4  -6   9   11.06    0.71
   5  -6   9    4.03    0.41
   5  -6   9    3.88    0.51
   5  -6   9    3.89    0.40
   5  -6   9    3.97    0.54
   6  -6   9    0.47    0.24
   6  -6   9    0.59    0.29
   6  -6   9    0.62    0.36
   7  -6   9    3.66    0.53
   7  -6   9    4.28    0.47
   8  -6   9    3.91    0.52
   8  -6   9    4.24    0.60
  -6  -5   9    0.32    0.35
  -6  -5   9    0.66    0.34
  -5  -5   9    0.03    0.30
  -5  -5   9    0.00    0.33
  -4  -5   9    0.36    0.26
  -4  -5   9    0.47    0.33
  -3  -5   9    0.15    0.27
  -3  -5   9    0.04    0.25
  -3  -5   9    0.17    0.21
  -2  -5   9    1.81    0.40
  -2  -5   9    1.98    0.33
  -2  -5   9    2.34    0.40
  -1  -5   9   23.59    1.07
  -1  -5   9   23.95    0.97
   0  -5   9   14.60    0.73
   0  -5   9   14.90    0.80
  -1   5  -9    3.22    0.17
   1  -5   9    2.62    0.40
   1  -5   9    3.51    0.41
  -2   5  -9    3.38    0.23
   2  -5   9    2.53    0.37
   2  -5   9    3.06    0.39
   2  -5   9    3.23    0.43
  -3   5  -9    0.61    0.16
   3  -5   9    0.46    0.27
   3  -5   9    0.61    0.25
   3  -5   9    0.63    0.19
   3  -5   9    0.77    0.31
   4  -5   9    6.13    0.42
   4  -5   9    4.72    0.52
   4  -5   9    6.71    0.50
   4  -5   9    6.55    0.63
   5  -5   9   -0.09    0.27
   5  -5   9    0.16    0.22
   5  -5   9    0.27    0.24
   6  -5   9    0.92    0.28
   6  -5   9    1.32    0.32
   6  -5   9    0.92    0.39
   7  -5   9    2.41    0.42
   7  -5   9    2.23    0.45
   8  -5   9   -0.35    0.33
   8  -5   9    0.48    0.34
   9  -5   9    3.10    0.58
   9  -5   9    3.03    0.53
  -7  -4   9    0.62    0.39
  -7  -4   9    1.04    0.38
  -6  -4   9    0.72    0.40
  -6  -4   9    0.46    0.30
  -5  -4   9    4.80    0.63
  -5  -4   9    4.29    0.52
  -4  -4   9    2.12    0.44
  -4  -4   9    1.92    0.35
  -3  -4   9    1.51    0.33
  -3  -4   9    0.40    0.33
  -3  -4   9    1.11    0.28
  -2  -4   9    5.60    0.48
  -2  -4   9    5.35    0.56
  -1  -4   9    2.68    0.38
  -1  -4   9    2.31    0.39
   0   4  -9    7.53    0.23
   0  -4   9    8.05    0.55
   0  -4   9    8.31    0.59
  -1   4  -9   -0.01    0.08
   1  -4   9    0.16    0.24
   1  -4   9    0.04    0.24
   1  -4   9    0.11    0.21
  -2   4  -9   10.11    0.41
   2  -4   9    9.24    0.62
   2  -4   9   10.94    0.59
   2  -4   9    8.58    0.57
   3  -4   9   10.33    0.63
   3  -4   9   10.94    0.61
   3  -4   9   10.98    0.68
  -4   4  -9    7.43    0.49
   4  -4   9    8.05    0.63
   4  -4   9    7.41    0.53
   4  -4   9    7.76    0.57
   4  -4   9    8.29    0.49
  -5   4  -9    0.08    0.18
   5  -4   9   -0.08    0.20
   5  -4   9   -0.09    0.22
   5  -4   9   -0.47    0.27
  -6   4  -9    6.83    0.49
   6  -4   9    7.19    0.69
   6  -4   9    7.29    0.59
   6  -4   9    7.77    0.54
  -7   4  -9    1.77    0.31
   7  -4   9    1.85    0.34
   7  -4   9    2.08    0.42
   7  -4   9    1.81    0.43
   8  -4   9    0.29    0.36
   8  -4   9    0.76    0.38
  -7  -3   9    0.02    0.27
  -7  -3   9   -0.26    0.32
  -6  -3   9    7.83    0.80
  -6  -3   9    7.17    0.61
  -5  -3   9    1.37    0.39
  -5  -3   9    2.12    0.36
  -4  -3   9    1.16    0.39
  -4  -3   9    1.40    0.32
  -3  -3   9   -0.05    0.20
  -3  -3   9    0.13    0.23
  -3  -3   9   -0.02    0.21
  -2  -3   9    1.20    0.32
  -2  -3   9    1.02    0.28
   1   3  -9    4.99    0.18
  -1  -3   9    5.06    0.46
  -1  -3   9    4.18    0.43
  -1  -3   9    5.95    0.49
   0   3  -9   14.49    0.46
   0  -3   9   14.07    0.69
   0  -3   9   13.97    0.69
   0  -3   9   14.49    0.73
  -1   3  -9    0.84    0.14
   1  -3   9    0.65    0.26
   1  -3   9    0.60    0.26
   1  -3   9    0.82    0.27
  -2   3  -9   21.34    0.73
  -2   3  -9   22.77    0.87
   2  -3   9   23.67    0.91
   2  -3   9   22.43    0.90
   2  -3   9   21.10    0.94
  -3   3  -9    3.35    0.37
   3  -3   9    2.75    0.40
   3  -3   9    2.17    0.33
   3  -3   9    2.12    0.34
  -4   3  -9    9.33    0.55
   4  -3   9    9.46    0.63
   4  -3   9    9.02    0.56
   4  -3   9    8.65    0.56
  -5   3  -9    1.35    0.28
  -5   3  -9    1.87    0.31
   5  -3   9    1.10    0.28
   5  -3   9    0.98    0.34
  -6   3  -9    7.52    0.54
  -6   3  -9    8.70    0.56
   6  -3   9    8.24    0.59
   6  -3   9    8.20    0.68
   6  -3   9    9.17    0.63
  -7   3  -9   10.11    0.60
  -7   3  -9    9.32    0.59
   7  -3   9   11.41    0.75
   7  -3   9    9.66    0.64
   7  -3   9   11.99    0.80
  -8   3  -9    1.19    0.30
   8  -3   9    1.21    0.41
  -8  -2   9   -0.10    0.38
  -8  -2   9   -0.26    0.29
  -7  -2   9    5.48    0.59
  -7  -2   9    5.52    0.70
  -6  -2   9    1.57    0.41
  -6  -2   9    2.11    0.38
  -5  -2   9   -0.25    0.25
  -5  -2   9   -0.04    0.21
   4   2  -9    0.99    0.13
  -4  -2   9    1.06    0.32
  -4  -2   9    0.66    0.25
   3   2  -9    1.10    0.12
  -3  -2   9    1.23    0.25
  -3  -2   9    0.72    0.28
   2   2  -9    7.07    0.28
  -2  -2   9    7.82    0.53
  -2  -2   9    8.09    0.55
   1   2  -9   26.80    0.78
  -1  -2   9   29.04    1.04
  -1  -2   9   27.00    1.04
  -1  -2   9   27.12    1.05
   0   2  -9   13.73    0.65
   0   2  -9   15.39    0.53
   0  -2   9   15.57    0.75
   0  -2   9   14.45    0.70
   0  -2   9   17.03    0.75
  -1   2  -9    3.05    0.27
  -1   2  -9    3.42    0.38
   1  -2   9    2.48    0.35
   1  -2   9    2.68    0.37
   1  -2   9    3.40    0.37
  -2   2  -9    2.59    0.32
   2  -2   9    3.70    0.44
   2  -2   9    2.78    0.35
   2  -2   9    3.28    0.35
  -3   2  -9    8.21    0.54
  -3   2  -9    9.28    0.54
   3  -2   9    8.19    0.53
   3  -2   9    9.31    0.52
   3  -2   9    9.18    0.59
  -4   2  -9    0.45    0.23
  -4   2  -9    0.43    0.22
   4  -2   9    0.32    0.25
   4  -2   9    0.49    0.22
   4  -2   9    0.22    0.28
  -5   2  -9    2.49    0.34
  -5   2  -9    2.40    0.35
   5  -2   9    3.04    0.38
   5  -2   9    3.43    0.41
   5  -2   9    2.90    0.44
  -6   2  -9    2.00    0.34
  -6   2  -9    2.06    0.35
   6  -2   9    2.35    0.42
   6  -2   9    2.30    0.38
  -7   2  -9    0.20    0.22
   7  -2   9    0.03    0.30
  -8   2  -9    9.98    0.65
   8  -2   9   10.39    0.78
  -8  -1   9   -0.53    0.28
  -8  -1   9   -0.02    0.27
  -7  -1   9   15.99    0.99
  -7  -1   9   17.59    0.84
   6   1  -9    3.70    0.33
  -6  -1   9    4.50    0.45
  -6  -1   9    4.53    0.60
   5   1  -9    3.41    0.26
  -5  -1   9    3.67    0.50
  -5  -1   9    3.75    0.39
  -5  -1   9    4.12    0.45
   4   1  -9   10.14    0.41
  -4  -1   9    8.71    0.66
  -4  -1   9   10.55    0.61
  -4  -1   9   10.51    0.52
   3   1  -9    8.33    0.35
  -3  -1   9    8.42    0.57
  -3  -1   9    7.78    0.44
  -2  -1   9    0.43    0.22
  -2  -1   9    0.07    0.22
  -2  -1   9    0.36    0.24
   1   1  -9    0.91    0.24
  -1  -1   9    0.81    0.27
  -1  -1   9    0.98    0.26
  -1  -1   9    1.21    0.30
   0   1  -9    6.59    0.46
   0   1  -9    6.74    0.36
   0  -1   9    7.07    0.48
   0  -1   9    6.60    0.44
   0  -1   9    6.04    0.49
  -1   1  -9    3.65    0.39
  -1   1  -9    3.77    0.40
   1  -1   9    3.08    0.37
   1  -1   9    2.96    0.33
   1  -1   9    2.72    0.40
  -2   1  -9   16.15    0.74
  -2   1  -9   18.10    0.79
   2  -1   9   17.75    0.85
   2  -1   9   18.30    0.78
   2  -1   9   17.27    0.68
  -3   1  -9    1.99    0.32
  -3   1  -9    2.28    0.34
   3  -1   9    1.69    0.36
   3  -1   9    1.13    0.24
   3  -1   9    1.07    0.31
  -4   1  -9   20.64    0.86
  -4   1  -9   20.35    0.89
   4  -1   9   19.50    0.93
   4  -1   9   19.14    0.72
   4  -1   9   19.55    0.88
  -5   1  -9    0.28    0.23
  -5   1  -9    0.05    0.21
   5  -1   9    0.78    0.32
   5  -1   9    0.17    0.18
   5  -1   9    0.11    0.25
  -6   1  -9    4.89    0.51
   6  -1   9    4.13    0.52
  -7   1  -9    0.15    0.26
   7  -1   9    0.23    0.32
  -8   1  -9    0.73    0.31
  -8   0   9    0.00    0.37
   7   0  -9    0.37    0.19
  -7   0   9    0.52    0.28
  -7   0   9    0.32    0.23
  -7   0   9    0.68    0.39
   6   0  -9    4.66    0.38
  -6   0   9    5.39    0.41
  -6   0   9    5.54    0.63
  -6   0   9    4.96    0.48
   5   0  -9    4.63    0.33
  -5   0   9    4.51    0.44
  -5   0   9    4.75    0.36
  -5   0   9    4.37    0.53
   4   0  -9    3.06    0.28
  -4   0   9    3.15    0.44
  -4   0   9    2.65    0.38
  -4   0   9    2.99    0.28
   3   0  -9    5.65    0.34
  -3   0   9    5.49    0.33
  -3   0   9    5.88    0.51
  -3   0   9    6.67    0.53
   2   0  -9   10.92    0.57
  -2   0   9   12.34    0.63
  -2   0   9   12.29    0.64
   1   0  -9   34.51    1.16
  -1   0   9   34.21    1.14
  -1   0   9   35.61    1.05
  -1   0   9   35.44    1.20
  -1   0   9   32.91    1.23
   0   0  -9    9.20    0.46
   0   0  -9    8.39    0.52
   0   0  -9    8.61    0.51
   0   0   9    9.08    0.48
   0   0   9    8.35    0.60
   0   0   9    9.44    0.46
   0   0   9    8.13    0.56
  -1   0  -9   44.37    1.43
  -1   0  -9   42.94    1.40
   1   0   9   42.30    1.41
   1   0   9   43.83    1.27
   1   0   9   43.69    1.49
  -2   0  -9    1.76    0.29
  -2   0  -9    1.18    0.28
   2   0   9    1.21    0.32
   2   0   9    1.34    0.21
   2   0   9    1.67    0.33
  -3   0  -9    0.53    0.23
  -3   0  -9    1.43    0.29
   3   0   9    0.55    0.17
   3   0   9    0.45    0.30
   3   0   9    0.71    0.27
  -4   0  -9    6.91    0.58
  -4   0  -9    7.20    0.56
   4   0   9    8.54    0.96
   4   0   9    7.55    0.61
  -5   0  -9    2.63    0.41
   5   0   9    3.57    0.48
  -6   0  -9    0.22    0.31
  -6   0  -9    1.06    0.34
   6   0   9    0.77    0.34
  -7   0  -9    0.28    0.35
  -7   0  -9    0.27    0.30
   8  -1  -9    2.74    0.36
  -8   1   9    1.99    0.51
   7  -1  -9    0.36    0.20
  -7   1   9    0.20    0.32
   6  -1  -9    1.98    0.27
  -6   1   9    1.65    0.32
  -6   1   9    1.27    0.39
   5  -1  -9    8.89    0.47
  -5   1   9    9.59    0.58
  -5   1   9    9.05    0.68
  -5   1   9    9.28    0.41
   4  -1  -9    1.13    0.22
  -4   1   9    0.96    0.34
  -4   1   9    1.34    0.17
  -4   1   9    0.59    0.26
   3  -1  -9    2.83    0.32
  -3   1   9    3.29    0.41
  -3   1   9    2.55    0.36
  -3   1   9    3.19    0.21
   2  -1  -9   14.10    0.65
  -2   1   9   13.20    0.69
  -2   1   9   13.81    0.49
  -2   1   9   14.52    0.68
   1  -1  -9    1.19    0.25
   1  -1  -9    0.78    0.22
   1  -1  -9    0.83    0.20
  -1   1   9    1.25    0.25
  -1   1   9    0.92    0.17
  -1   1   9    0.51    0.24
   0  -1  -9    0.98    0.24
   0  -1  -9    0.76    0.23
   0  -1  -9    0.85    0.18
   0   1   9    1.17    0.30
   0   1   9    1.10    0.21
   0   1   9    0.98    0.20
  -1  -1  -9   18.88    0.81
  -1  -1  -9   18.67    0.83
   1   1   9   19.66    0.87
   1   1   9   18.87    0.87
   1   1   9   18.62    0.62
  -2  -1  -9    2.89    0.39
  -2  -1  -9    3.36    0.41
   2   1   9    3.43    0.47
   2   1   9    2.90    0.19
   2   1   9    3.38    0.43
  -3  -1  -9    0.93    0.30
   3   1   9    1.76    0.38
  -4  -1  -9    0.13    0.24
  -4  -1  -9    0.48    0.27
   4   1   9    0.09    0.29
  -5  -1  -9    0.20    0.28
  -5  -1  -9    0.00    0.25
   5   1   9    0.13    0.30
  -6  -1  -9    0.10    0.31
  -6  -1  -9    0.14    0.27
   6   1   9    0.28    0.38
   9  -2  -9    0.98    0.32
   8  -2  -9    8.76    0.56
   7  -2  -9   -0.08    0.19
   6  -2  -9   20.63    0.81
  -6   2   9   17.58    1.01
  -6   2   9   20.09    0.84
   5  -2  -9    2.16    0.30
  -5   2   9    1.84    0.33
  -5   2   9    2.48    0.45
   4  -2  -9    9.07    0.54
   4  -2  -9    9.72    0.52
  -4   2   9   10.33    0.66
  -4   2   9    8.15    0.58
   3  -2  -9    5.27    0.45
  -3   2   9    4.84    0.47
  -3   2   9    4.24    0.42
   2  -2  -9   17.79    0.78
   2  -2  -9   15.69    0.73
  -2   2   9   16.86    0.72
  -2   2   9   17.96    0.81
  -2   2   9   16.51    0.49
   1  -2  -9    4.33    0.44
   1  -2  -9    4.01    0.41
   1  -2  -9    3.84    0.31
  -1   2   9    3.60    0.25
  -1   2   9    3.86    0.44
  -1   2   9    4.09    0.34
   0  -2  -9    0.24    0.20
   0  -2  -9    0.00    0.10
   0  -2  -9    0.12    0.19
   0   2   9    0.01    0.15
   0   2   9    0.24    0.26
  -1  -2  -9    3.62    0.42
  -1  -2  -9    4.42    0.47
   1   2   9    4.50    0.50
  -2  -2  -9    9.55    0.62
  -3  -2  -9    8.50    0.57
  -3  -2  -9    8.32    0.61
  -4  -2  -9    0.83    0.32
  -4  -2  -9    0.68    0.29
  -5  -2  -9   -0.37    0.26
  -5  -2  -9   -0.19    0.26
  -6  -2  -9   -0.31    0.30
  -6  -2  -9    0.28    0.30
   9  -3  -9    0.86    0.31
   8  -3  -9    4.13    0.46
   7  -3  -9    4.64    0.46
   6  -3  -9    1.33    0.31
  -6   3   9    1.13    0.28
   5  -3  -9    7.02    0.50
   5  -3  -9    6.33    0.46
  -5   3   9    6.43    0.52
   4  -3  -9    0.05    0.18
  -4   3   9    0.21    0.23
   3  -3  -9    2.05    0.32
   3  -3  -9    1.93    0.31
  -3   3   9    2.09    0.34
   2  -3  -9    6.52    0.40
   2  -3  -9    6.19    0.48
   2  -3  -9    6.00    0.47
  -2   3   9    7.47    0.52
   1  -3  -9    0.26    0.21
   1  -3  -9    0.25    0.20
  -1   3   9    0.14    0.25
   0  -3  -9    1.17    0.33
   0  -3  -9    0.50    0.26
  -1  -3  -9   -0.10    0.22
  -2  -3  -9    0.71    0.28
  -2  -3  -9    0.28    0.22
  -3  -3  -9   11.18    0.69
  -3  -3  -9   12.62    0.78
  -4  -3  -9    2.32    0.45
  -4  -3  -9    1.93    0.40
  -5  -3  -9    0.58    0.32
  -5  -3  -9   -0.07    0.29
   8  -4  -9    0.18    0.26
   7  -4  -9    0.06    0.24
   6  -4  -9    6.83    0.59
   5  -4  -9    0.70    0.23
   5  -4  -9    0.87    0.29
  -5   4   9    1.00    0.30
   4  -4  -9   -0.06    0.17
   4  -4  -9    0.13    0.19
  -4   4   9    0.11    0.24
   3  -4  -9    0.86    0.25
   3  -4  -9    0.48    0.23
  -3   4   9    1.14    0.32
   2  -4  -9    0.71    0.26
   2  -4  -9    0.42    0.24
  -2   4   9    0.86    0.33
   1  -4  -9    3.59    0.46
   0  -4  -9    0.90    0.29
  -1  -4  -9    0.66    0.22
  -1  -4  -9    0.77    0.29
  -2  -4  -9   -0.05    0.27
  -2  -4  -9   -0.18    0.19
  -3  -4  -9    0.19    0.31
  -3  -4  -9    0.19    0.26
  -4  -4  -9    4.45    0.59
  -4  -4  -9    4.84    0.57
   8  -5  -9    1.12    0.35
   7  -5  -9    1.79    0.38
   6  -5  -9    3.40    0.43
   6  -5  -9    3.34    0.37
   5  -5  -9    4.71    0.53
   5  -5  -9    4.21    0.44
   4  -5  -9    0.01    0.22
   4  -5  -9    0.63    0.24
  -4   5   9    0.57    0.31
   3  -5  -9    1.83    0.34
   2  -5  -9    2.87    0.41
   1  -5  -9    1.57    0.37
   0  -5  -9    1.09    0.34
  -1  -5  -9    1.29    0.36
  -2  -5  -9    1.72    0.39
   7  -6  -9    2.30    0.40
   6  -6  -9   -0.14    0.27
   5  -6  -9    3.22    0.48
   5  -6  -9    2.36    0.35
   4  -6  -9    0.44    0.25
   3  -6  -9    3.37    0.43
   2  -6  -9    0.19    0.25
   1  -6  -9    1.44    0.37
   0  -6  -9    9.64    0.74
  -1  -6  -9    1.65    0.44
   5  -7  -9    0.23    0.36
   5  -7  -9    0.23    0.33
   4  -7  -9    0.65    0.27
   3  -7  -9    1.00    0.33
   2  -7  -9    0.07    0.26
   1  -7  -9    0.26    0.28
   1 -10  10    0.66    0.33
   2 -10  10    0.40    0.34
   2 -10  10    1.27    0.48
   3 -10  10   -0.29    0.35
   3 -10  10    0.47    0.37
   4 -10  10    3.39    0.56
   4 -10  10    2.29    0.56
   5 -10  10    1.71    0.51
  -1  -9  10    3.82    0.62
  -1  -9  10    4.00    0.68
   0  -9  10   -0.17    0.31
   0  -9  10    0.13    0.40
   0  -9  10    0.23    0.27
   1  -9  10    0.35    0.28
   1  -9  10    0.36    0.40
   2  -9  10    0.52    0.32
   2  -9  10   -0.20    0.29
   3  -9  10    6.07    0.76
   3  -9  10    6.24    0.70
   4  -9  10    0.33    0.34
   4  -9  10   -0.03    0.36
   5  -9  10    1.84    0.52
   5  -9  10    0.87    0.43
   6  -9  10   14.92    1.05
   6  -9  10   16.68    1.07
  -3  -8  10    0.72    0.40
  -3  -8  10    0.91    0.47
  -2  -8  10    5.03    0.68
  -2  -8  10    5.23    0.76
  -1  -8  10    0.62    0.34
  -1  -8  10    1.47    0.34
  -1  -8  10    1.12    0.44
   0  -8  10    0.05    0.35
   0  -8  10   -0.07    0.24
   1  -8  10    2.39    0.41
   1  -8  10    3.97    0.62
   2  -8  10    0.00    0.28
   2  -8  10    0.08    0.35
   3  -8  10    2.36    0.48
   3  -8  10    2.72    0.50
   4  -8  10   -0.33    0.26
   4  -8  10    0.08    0.34
   5  -8  10   -0.26    0.28
   5  -8  10   -0.32    0.28
   5  -8  10   -0.16    0.22
   5  -8  10    0.19    0.37
   6  -8  10    0.36    0.36
   6  -8  10    0.31    0.39
   6  -8  10    0.57    0.29
   7  -8  10    6.56    0.72
   7  -8  10    6.42    0.57
  -4  -7  10    3.23    0.64
  -4  -7  10    2.28    0.49
  -3  -7  10    0.72    0.42
  -3  -7  10    1.29    0.42
  -2  -7  10    2.22    0.52
  -2  -7  10    3.26    0.54
  -2  -7  10    2.26    0.37
  -1  -7  10    0.35    0.25
  -1  -7  10    0.33    0.34
   0  -7  10    0.86    0.36
   0  -7  10    0.42    0.29
   1  -7  10   -0.38    0.30
   1  -7  10   -0.33    0.24
   2  -7  10    3.53    0.55
   2  -7  10    3.23    0.48
   3  -7  10    5.43    0.62
   3  -7  10    6.40    0.69
   3  -7  10    6.42    0.38
   3  -7  10    7.26    0.86
   4  -7  10   13.70    0.77
   4  -7  10   13.99    0.91
   4  -7  10   14.72    0.88
   4  -7  10   14.60    0.63
   5  -7  10    2.69    0.40
   5  -7  10    4.77    0.43
   5  -7  10    2.62    0.50
   5  -7  10    3.76    0.58
   6  -7  10    1.61    0.34
   6  -7  10    0.79    0.41
   6  -7  10    1.22    0.46
   7  -7  10    0.81    0.45
   7  -7  10    0.07    0.30
   8  -7  10   -0.31    0.30
   8  -7  10    0.20    0.37
  -5  -6  10    0.77    0.45
  -5  -6  10    0.70    0.37
  -4  -6  10    4.23    0.64
  -4  -6  10    5.78    0.68
  -3  -6  10    0.70    0.26
  -3  -6  10    0.15    0.30
  -3  -6  10    0.53    0.30
  -2  -6  10    8.80    0.68
  -2  -6  10    8.58    0.59
  -2  -6  10    9.11    0.77
  -1  -6  10    0.01    0.23
  -1  -6  10    0.36    0.31
   0  -6  10   49.90    1.79
   0  -6  10   49.82    1.66
   1  -6  10    0.58    0.35
   1  -6  10    0.45    0.28
   2  -6  10    1.92    0.38
   2  -6  10    1.76    0.37
   2  -6  10    1.94    0.43
   3  -6  10    3.40    0.50
   3  -6  10    4.05    0.33
   3  -6  10    4.90    0.59
   3  -6  10    3.52    0.44
   4  -6  10   -0.15    0.26
   4  -6  10   -0.28    0.17
   4  -6  10    0.16    0.24
   4  -6  10   -0.20    0.31
   5  -6  10   16.95    0.81
   5  -6  10   16.55    0.94
   5  -6  10   16.36    0.95
   5  -6  10   16.77    0.75
   6  -6  10    0.25    0.29
   6  -6  10    0.11    0.35
   6  -6  10    0.04    0.24
   6  -6  10    0.13    0.37
   7  -6  10    0.41    0.31
   7  -6  10    0.20    0.39
   8  -6  10    1.39    0.41
   8  -6  10    2.10    0.55
  -6  -5  10   -0.21    0.27
  -6  -5  10    0.08    0.37
  -5  -5  10    4.57    0.69
  -5  -5  10    3.47    0.52
  -4  -5  10   -0.07    0.29
  -4  -5  10    0.75    0.33
  -3  -5  10    9.10    0.60
  -3  -5  10   10.32    0.75
  -3  -5  10    8.99    0.64
  -2  -5  10    0.17    0.27
  -2  -5  10   -0.23    0.29
  -2  -5  10    0.14    0.25
  -1  -5  10    0.61    0.32
  -1  -5  10    0.19    0.27
   0  -5  10    0.32    0.30
   0  -5  10    0.01    0.25
   1  -5  10    2.43    0.39
   1  -5  10    3.02    0.44
   1  -5  10    2.43    0.42
   2  -5  10    2.76    0.45
   2  -5  10    2.13    0.40
   2  -5  10    3.00    0.42
   3  -5  10    0.43    0.32
   3  -5  10    1.00    0.31
   3  -5  10    0.85    0.34
   4  -5  10    2.44    0.31
   4  -5  10    2.85    0.38
   4  -5  10    1.76    0.39
   4  -5  10    2.17    0.40
   5  -5  10    7.24    0.56
   5  -5  10    8.29    0.55
   5  -5  10    8.37    0.75
   5  -5  10    8.15    0.65
   6  -5  10   12.89    0.87
   6  -5  10   12.20    0.71
   6  -5  10   12.43    0.70
   7  -5  10    5.02    0.56
   7  -5  10    5.28    0.67
   8  -5  10    0.35    0.40
   8  -5  10    0.52    0.37
  -6  -4  10   -0.27    0.35
  -6  -4  10    0.05    0.28
  -5  -4  10    0.33    0.34
  -5  -4  10    0.45    0.30
  -4  -4  10    5.84    0.60
  -4  -4  10    7.57    0.77
  -3  -4  10    0.93    0.36
  -3  -4  10    0.67    0.28
  -3  -4  10    1.06    0.29
  -2  -4  10    5.57    0.64
  -2  -4  10    5.71    0.56
  -1  -4  10    0.10    0.25
  -1  -4  10    0.54    0.27
   0   4 -10    9.91    0.37
   0  -4  10    9.64    0.61
   0  -4  10    7.97    0.58
   0  -4  10    9.05    0.66
  -1   4 -10    0.02    0.09
   1  -4  10    0.46    0.28
   1  -4  10   -0.06    0.25
   1  -4  10    0.46    0.25
  -2   4 -10    1.20    0.18
   2  -4  10    0.51    0.28
   2  -4  10    1.10    0.33
   2  -4  10    1.39    0.34
   3  -4  10    2.10    0.33
   3  -4  10    2.50    0.39
   3  -4  10    2.08    0.39
  -4   4 -10    1.74    0.31
   4  -4  10    0.75    0.27
   4  -4  10    0.71    0.35
   4  -4  10    1.33    0.33
  -5   4 -10    0.32    0.22
   5  -4  10   -0.02    0.23
   5  -4  10   -0.38    0.23
   5  -4  10   -0.17    0.31
  -6   4 -10    0.59    0.26
   6  -4  10    0.38    0.31
   6  -4  10   -0.05    0.29
   6  -4  10    0.23    0.26
   6  -4  10    0.31    0.30
  -7   4 -10    1.30    0.30
   7  -4  10    2.20    0.50
   7  -4  10    2.03    0.41
   8  -4  10    0.28    0.38
   8  -4  10    0.17    0.38
  -7  -3  10    7.07    0.69
  -7  -3  10    6.20    0.78
  -6  -3  10    3.56    0.60
  -6  -3  10    3.04    0.47
  -5  -3  10    4.85    0.64
  -5  -3  10    3.23    0.45
  -4  -3  10    1.38    0.33
  -4  -3  10    0.92    0.34
  -3  -3  10   21.46    0.89
  -3  -3  10   19.66    1.00
  -3  -3  10   20.01    0.91
  -2  -3  10    0.34    0.30
  -2  -3  10    0.36    0.27
  -2  -3  10    0.21    0.30
   1   3 -10   25.75    0.68
  -1  -3  10   24.01    1.03
  -1  -3  10   26.76    1.04
  -1  -3  10   23.16    1.02
   0   3 -10   10.33    0.39
   0  -3  10   12.13    0.66
   0  -3  10    9.90    0.66
   0  -3  10   11.06    0.66
  -1   3 -10    3.38    0.25
   1  -3  10    2.46    0.37
   1  -3  10    4.04    0.45
   1  -3  10    3.62    0.44
  -2   3 -10    0.19    0.21
   2  -3  10   -0.08    0.24
   2  -3  10    0.28    0.25
   2  -3  10    0.08    0.23
  -3   3 -10    0.60    0.24
   3  -3  10    0.83    0.29
   3  -3  10    0.79    0.31
   3  -3  10    1.18    0.32
  -4   3 -10   15.36    0.75
   4  -3  10   15.32    0.76
   4  -3  10   14.15    0.84
   4  -3  10   16.33    0.79
  -5   3 -10    0.58    0.26
   5  -3  10    0.61    0.36
   5  -3  10    0.11    0.25
   5  -3  10    0.37    0.28
  -6   3 -10   -0.24    0.21
   6  -3  10   -0.30    0.25
   6  -3  10    0.49    0.36
  -7   3 -10    9.13    0.62
   7  -3  10   10.25    0.82
  -8   3 -10    0.59    0.42
   8  -3  10    0.46    0.38
  -7  -2  10    0.77    0.31
  -7  -2  10    0.03    0.36
  -6  -2  10    0.61    0.28
  -6  -2  10    0.80    0.39
  -5  -2  10    1.56    0.32
  -5  -2  10    1.46    0.43
  -4  -2  10    0.04    0.27
  -4  -2  10   -0.01    0.19
  -4  -2  10    0.18    0.31
   3   2 -10    4.38    0.22
  -3  -2  10    4.43    0.51
  -3  -2  10    4.74    0.50
  -3  -2  10    4.71    0.43
   2   2 -10    6.01    0.27
  -2  -2  10    6.34    0.60
  -2  -2  10    7.22    0.60
  -2  -2  10    6.11    0.57
   1   2 -10   12.05    0.45
  -1  -2  10   12.77    0.70
  -1  -2  10   12.54    0.72
  -1  -2  10   11.73    0.69
   0   2 -10    5.78    0.50
   0   2 -10    5.41    0.31
   0  -2  10    5.20    0.49
   0  -2  10    6.13    0.57
   0  -2  10    7.25    0.52
  -1   2 -10    2.64    0.34
   1  -2  10    3.11    0.38
   1  -2  10    3.66    0.42
   1  -2  10    3.26    0.46
  -2   2 -10    1.10    0.27
   2  -2  10    1.22    0.30
   2  -2  10    1.50    0.36
   2  -2  10    1.56    0.30
  -3   2 -10   -0.16    0.16
  -3   2 -10    0.11    0.19
   3  -2  10    0.02    0.26
   3  -2  10    0.56    0.24
   3  -2  10    0.39    0.27
  -4   2 -10   16.12    0.78
  -4   2 -10   16.06    0.77
   4  -2  10   15.81    0.81
   4  -2  10   15.97    0.88
   4  -2  10   14.64    0.70
  -5   2 -10    0.01    0.22
   5  -2  10    0.20    0.31
   5  -2  10    0.26    0.22
  -6   2 -10    0.12    0.24
   6  -2  10    0.28    0.34
  -7   2 -10    0.72    0.31
   7  -2  10    0.23    0.34
  -8  -1  10   -0.52    0.31
  -7  -1  10    4.03    0.63
  -7  -1  10    3.90    0.58
  -6  -1  10    3.31    0.55
  -6  -1  10    3.06    0.39
   5   1 -10    1.31    0.21
  -5  -1  10    1.13    0.30
  -5  -1  10    1.14    0.41
  -5  -1  10    1.43    0.28
   4   1 -10    0.44    0.13
  -4  -1  10    0.43    0.29
  -4  -1  10    0.20    0.26
  -4  -1  10    0.31    0.20
   3   1 -10   12.95    0.49
  -3  -1  10   13.32    0.76
  -3  -1  10   13.64    0.74
  -3  -1  10   13.31    0.59
  -2  -1  10   -0.34    0.20
  -2  -1  10   -0.09    0.21
   1   1 -10   12.38    0.65
  -1  -1  10   14.59    0.71
  -1  -1  10   11.64    0.73
  -1  -1  10   12.89    0.66
   0   1 -10   13.67    0.69
   0  -1  10   12.86    0.74
   0  -1  10   14.18    0.74
   0  -1  10   13.93    0.67
  -1   1 -10   13.40    0.69
  -1   1 -10   13.21    0.67
   1  -1  10   13.66    0.64
   1  -1  10   13.69    0.71
   1  -1  10   13.81    0.78
  -2   1 -10    6.56    0.55
  -2   1 -10    6.69    0.50
   2  -1  10    6.20    0.60
   2  -1  10    5.40    0.40
   2  -1  10    5.20    0.50
  -3   1 -10    1.51    0.31
  -3   1 -10    1.45    0.31
   3  -1  10    1.42    0.27
   3  -1  10    1.92    0.41
   3  -1  10    1.24    0.30
  -4   1 -10    2.32    0.36
   4  -1  10    4.14    0.35
   4  -1  10    3.40    0.48
  -5   1 -10    1.56    0.33
   5  -1  10    2.08    0.44
  -6   1 -10    5.49    0.58
   6  -1  10    4.91    0.59
  -7   1 -10    0.05    0.25
   7  -1  10    0.38    0.37
  -8   0  10    0.11    0.36
  -7   0  10    3.24    0.58
   6   0 -10    0.00    0.15
  -6   0  10    0.34    0.34
  -6   0  10    0.56    0.30
   5   0 -10    6.40    0.38
  -5   0  10    7.08    0.68
  -5   0  10    7.10    0.56
  -5   0  10    6.39    0.40
   4   0 -10    0.43    0.16
  -4   0  10    0.70    0.18
  -4   0  10    0.78    0.30
  -4   0  10    0.68    0.33
  -3   0  10    0.31    0.15
  -3   0  10   -0.02    0.25
  -3   0  10    0.10    0.23
   2   0 -10    0.11    0.20
  -2   0  10   -0.15    0.22
  -2   0  10    0.05    0.25
   1   0 -10    6.82    0.49
  -1   0  10    8.22    0.43
  -1   0  10    6.81    0.55
  -1   0  10    7.56    0.49
   0   0 -10    2.25    0.29
   0   0 -10    2.15    0.32
   0   0 -10    2.47    0.34
   0   0  10    1.98    0.27
   0   0  10    2.34    0.36
   0   0  10    1.82    0.37
   0   0  10    2.35    0.31
  -1   0 -10    7.29    0.52
  -1   0 -10    7.42    0.51
   1   0  10    7.62    0.43
   1   0  10    6.55    0.53
   1   0  10    6.73    0.56
  -2   0 -10    0.86    0.26
  -2   0 -10    0.61    0.24
   2   0  10    0.91    0.30
   2   0  10    0.74    0.36
   2   0  10    0.96    0.20
  -3   0 -10    2.00    0.36
   3   0  10    2.14    0.43
  -4   0 -10    1.25    0.33
   4   0  10    1.27    0.40
  -5   0 -10    0.47    0.29
   5   0  10    0.59    0.35
  -6   0 -10    8.47    0.64
   6   0  10   10.29    0.77
  -8   1  10    0.60    0.43
   7  -1 -10    0.25    0.20
  -7   1  10   -0.33    0.32
   6  -1 -10    3.14    0.34
  -6   1  10    3.20    0.42
  -6   1  10    3.47    0.54
   5  -1 -10    1.38    0.25
  -5   1  10    1.50    0.38
  -5   1  10    0.67    0.28
   4  -1 -10    5.24    0.39
  -4   1  10    5.25    0.51
  -4   1  10    5.93    0.58
   3  -1 -10   16.87    0.78
  -3   1  10   19.97    0.87
  -3   1  10   17.90    0.58
  -3   1  10   19.33    0.88
   2  -1 -10   23.13    0.96
  -2   1  10   24.59    1.02
  -2   1  10   26.01    0.97
   1  -1 -10    0.30    0.19
   1  -1 -10    0.23    0.18
  -1   1  10    0.00    0.19
  -1   1  10   -0.14    0.25
   0  -1 -10    1.37    0.21
   0  -1 -10    1.60    0.32
   0  -1 -10    1.39    0.32
   0   1  10    1.18    0.23
   0   1  10    1.33    0.29
   0   1  10    1.00    0.33
  -1  -1 -10   -0.13    0.17
  -1  -1 -10    0.00    0.20
   1   1  10    0.23    0.14
  -2  -1 -10    0.58    0.28
   2   1  10    0.38    0.33
  -3  -1 -10    0.19    0.24
   3   1  10    0.34    0.30
  -4  -1 -10    0.05    0.22
   4   1  10   -0.12    0.29
  -5  -1 -10   -0.25    0.23
   5   1  10   -0.17    0.29
  -6  -1 -10    0.20    0.32
   8  -2 -10    3.80    0.43
   7  -2 -10    0.99    0.26
   6  -2 -10    1.83    0.30
  -6   2  10    1.73    0.47
  -6   2  10    2.01    0.34
   5  -2 -10    0.01    0.18
  -5   2  10    0.11    0.30
  -5   2  10    0.10    0.25
   4  -2 -10    1.84    0.32
   4  -2 -10    1.73    0.30
  -4   2  10    1.77    0.38
  -4   2  10    2.52    0.36
   3  -2 -10   23.37    0.96
  -3   2  10   24.90    1.00
  -3   2  10   24.28    1.00
   2  -2 -10    5.81    0.50
   2  -2 -10    6.44    0.50
  -2   2  10    6.01    0.47
  -2   2  10    6.20    0.56
   1  -2 -10    4.03    0.43
   1  -2 -10    3.89    0.42
  -1   2  10    3.88    0.35
  -1   2  10    3.28    0.42
   0  -2 -10    0.03    0.20
  -1  -2 -10   20.76    0.93
  -2  -2 -10    0.61    0.29
  -3  -2 -10    0.38    0.26
  -4  -2 -10    3.35    0.50
  -5  -2 -10    0.21    0.31
  -5  -2 -10    0.33    0.26
   8  -3 -10    0.18    0.25
   7  -3 -10    3.14    0.41
   6  -3 -10    0.58    0.26
   5  -3 -10    8.20    0.53
   5  -3 -10    7.66    0.54
  -5   3  10    8.52    0.59
   4  -3 -10    0.23    0.23
  -4   3  10    0.01    0.25
   3  -3 -10    0.78    0.27
   3  -3 -10    0.87    0.26
  -3   3  10    0.52    0.30
   2  -3 -10    0.14    0.34
   2  -3 -10    0.36    0.25
   1  -3 -10    2.65    0.38
   0  -3 -10   19.43    0.92
  -1  -3 -10    0.29    0.28
  -2  -3 -10    0.18    0.24
  -3  -3 -10   -0.12    0.25
  -3  -3 -10    0.20    0.25
  -4  -3 -10   -0.30    0.25
  -4  -3 -10    0.02    0.27
   8  -4 -10    0.29    0.28
   7  -4 -10    1.38    0.34
   6  -4 -10    0.54    0.27
   5  -4 -10   -0.10    0.19
   5  -4 -10    0.07    0.22
  -5   4  10   -0.14    0.26
   4  -4 -10    1.26    0.35
   4  -4 -10    0.73    0.26
   3  -4 -10    1.60    0.35
   2  -4 -10   -0.06    0.21
   1  -4 -10    1.33    0.32
   0  -4 -10   11.97    0.75
  -1  -4 -10    3.20    0.49
  -2  -4 -10    1.15    0.36
  -3  -4 -10    0.04    0.31
   7  -5 -10    1.91    0.41
   6  -5 -10   -0.03    0.27
   6  -5 -10    0.18    0.33
   5  -5 -10    1.83    0.38
   5  -5 -10    1.27    0.30
   4  -5 -10    3.42    0.42
   3  -5 -10    0.74    0.29
   2  -5 -10    2.49    0.41
   1  -5 -10    1.05    0.32
   0  -5 -10    0.55    0.29
  -1  -5 -10    5.04    0.62
   6  -6 -10    1.06    0.34
   5  -6 -10    2.29    0.46
   5  -6 -10    1.45    0.31
   4  -6 -10    2.62    0.42
   3  -6 -10    0.01    0.24
   2  -6 -10    3.23    0.47
   1  -6 -10   -0.40    0.24
   0  -6 -10    0.71    0.35
   0  -9  11    0.16    0.38
   0  -9  11   -0.22    0.26
   1  -9  11    2.57    0.49
   1  -9  11    1.77    0.53
   2  -9  11    0.74    0.36
   2  -9  11    0.21    0.36
   3  -9  11    8.51    0.82
   3  -9  11    8.33    0.86
   4  -9  11    2.42    0.56
   4  -9  11    2.34    0.55
   5  -9  11   -0.45    0.34
   5  -9  11    0.05    0.40
  -2  -8  11    0.07    0.32
  -2  -8  11   -0.46    0.34
  -1  -8  11   -0.09    0.26
  -1  -8  11    0.32    0.37
  -1  -8  11    0.51    0.33
   0  -8  11    9.55    0.70
   0  -8  11    9.65    0.83
   1  -8  11    0.14    0.36
   1  -8  11    0.27    0.31
   2  -8  11    0.80    0.36
   2  -8  11    0.41    0.36
   3  -8  11    5.83    0.65
   3  -8  11    5.04    0.65
   4  -8  11    7.00    0.78
   4  -8  11    6.29    0.72
   5  -8  11    1.15    0.48
   5  -8  11    0.41    0.37
   6  -8  11    1.27    0.48
   6  -8  11    2.08    0.58
   6  -8  11    0.69    0.45
   7  -8  11   12.08    0.77
  -3  -7  11    0.68    0.43
  -3  -7  11   -0.44    0.30
  -2  -7  11    0.13    0.41
  -2  -7  11    0.38    0.32
  -2  -7  11    0.63    0.30
  -1  -7  11   11.48    0.88
  -1  -7  11    8.87    0.69
   0  -7  11    4.70    0.62
   0  -7  11    4.41    0.53
   1  -7  11    0.04    0.28
   1  -7  11   -0.31    0.26
   2  -7  11    0.31    0.36
   2  -7  11    0.10    0.27
   3  -7  11    1.52    0.40
   3  -7  11    1.36    0.43
   4  -7  11    5.20    0.68
   4  -7  11    3.98    0.56
   4  -7  11    5.32    0.52
   5  -7  11    0.43    0.26
   5  -7  11    0.54    0.43
   5  -7  11    0.12    0.31
   6  -7  11   -0.41    0.35
   6  -7  11    0.06    0.36
   6  -7  11   -0.19    0.26
   7  -7  11    0.77    0.42
   7  -7  11    1.08    0.37
   7  -7  11    0.75    0.47
  -4  -6  11    1.23    0.42
  -4  -6  11    1.39    0.50
  -3  -6  11    4.02    0.48
  -3  -6  11    2.72    0.53
  -3  -6  11    2.49    0.49
  -2  -6  11    0.90    0.38
  -2  -6  11    1.57    0.39
  -2  -6  11    1.64    0.38
  -1  -6  11    1.73    0.39
  -1  -6  11    1.17    0.40
   0  -6  11    3.15    0.51
   0  -6  11    3.11    0.44
   1  -6  11    0.05    0.33
   1  -6  11    0.52    0.32
   2  -6  11    3.66    0.54
   2  -6  11    2.69    0.50
   3  -6  11   17.48    0.98
   3  -6  11   17.00    0.96
   4  -6  11   -0.62    0.28
   4  -6  11   -0.24    0.30
   5  -6  11    7.28    0.73
   5  -6  11    6.94    0.73
   5  -6  11    6.45    0.52
   6  -6  11    0.75    0.39
   6  -6  11    0.75    0.38
   6  -6  11    1.01    0.33
   7  -6  11    1.05    0.37
   7  -6  11    1.91    0.46
   7  -6  11    1.31    0.45
  -5  -5  11    2.78    0.56
  -5  -5  11    4.84    0.61
  -4  -5  11   -0.41    0.33
  -4  -5  11    0.15    0.26
  -3  -5  11    4.30    0.59
  -3  -5  11    4.55    0.56
  -3  -5  11    5.00    0.52
  -2  -5  11   -0.47    0.26
  -2  -5  11    0.07    0.27
  -2  -5  11    0.06    0.24
  -1  -5  11   -0.17    0.29
  -1  -5  11   -0.10    0.26
   0  -5  11    0.75    0.31
   0  -5  11    0.30    0.32
   1  -5  11    0.31    0.33
   1  -5  11    0.85    0.34
   2  -5  11   16.94    0.90
   2  -5  11   14.58    0.84
   3  -5  11    1.17    0.38
   3  -5  11    1.20    0.38
   4  -5  11    0.46    0.31
   4  -5  11   -0.22    0.33
   5  -5  11    3.22    0.53
   5  -5  11    3.09    0.48
   6  -5  11   11.98    0.72
   6  -5  11   11.40    0.79
   6  -5  11   12.02    0.89
   7  -5  11   -0.08    0.36
   7  -5  11   -0.38    0.31
   7  -5  11   -0.23    0.35
  -6  -4  11    0.23    0.39
  -6  -4  11    0.42    0.33
  -5  -4  11   -0.23    0.35
  -5  -4  11    0.04    0.26
  -4  -4  11    1.18    0.33
  -4  -4  11    1.16    0.44
  -3  -4  11    0.07    0.26
  -3  -4  11   -0.16    0.26
  -3  -4  11    0.38    0.28
  -2  -4  11    0.88    0.34
  -2  -4  11    0.46    0.34
  -1  -4  11    0.12    0.27
  -1  -4  11   -0.17    0.29
   0  -4  11    0.21    0.29
   0  -4  11    0.77    0.34
   1  -4  11    1.23    0.36
   1  -4  11    1.74    0.38
   1  -4  11    2.28    0.46
   2  -4  11    2.93    0.45
   2  -4  11    4.03    0.46
   2  -4  11    3.87    0.50
   3  -4  11    7.56    0.69
   3  -4  11    7.44    0.60
   3  -4  11    7.24    0.67
  -4   4 -11    2.41    0.39
   4  -4  11    2.44    0.41
   4  -4  11    2.21    0.47
  -5   4 -11    0.56    0.26
   5  -4  11    0.37    0.30
   5  -4  11    0.38    0.38
  -6   4 -11   -0.04    0.21
   6  -4  11    0.78    0.40
   6  -4  11    0.34    0.32
  -7   4 -11    0.97    0.32
   7  -4  11    0.91    0.45
  -6  -3  11    0.09    0.33
  -6  -3  11   -0.54    0.24
  -5  -3  11    2.54    0.41
  -5  -3  11    2.83    0.52
  -4  -3  11    0.15    0.30
  -4  -3  11   -0.43    0.19
  -3  -3  11   18.37    0.85
  -3  -3  11   19.33    1.01
  -2  -3  11    0.52    0.31
  -2  -3  11   -0.28    0.24
  -1  -3  11   10.78    0.71
  -1  -3  11   10.43    0.71
   0  -3  11    6.64    0.62
   0  -3  11    7.28    0.59
   0  -3  11    7.12    0.57
   1  -3  11    0.46    0.30
   1  -3  11    0.12    0.26
   1  -3  11    0.27    0.27
  -2   3 -11    5.14    0.49
   2  -3  11    5.38    0.53
   2  -3  11    5.04    0.50
   2  -3  11    5.29    0.58
  -3   3 -11    0.89    0.27
   3  -3  11    0.55    0.28
   3  -3  11    1.03    0.34
  -4   3 -11   24.02    1.02
   4  -3  11   23.39    1.13
   4  -3  11   25.57    1.03
  -5   3 -11    2.34    0.37
   5  -3  11    2.22    0.38
   5  -3  11    2.48    0.51
  -6   3 -11    0.21    0.26
   6  -3  11    0.01    0.35
  -7   3 -11    0.70    0.30
   7  -3  11    0.03    0.37
  -7  -2  11    0.14    0.37
  -6  -2  11    2.94    0.42
  -6  -2  11    4.10    0.64
  -5  -2  11    1.34    0.40
  -5  -2  11    1.18    0.30
  -4  -2  11    1.00    0.38
  -4  -2  11    1.93    0.33
  -3  -2  11    4.50    0.45
  -3  -2  11    5.86    0.63
  -2  -2  11    0.07    0.28
  -2  -2  11   -0.10    0.22
  -2  -2  11    0.32    0.46
  -1  -2  11    2.22    0.42
  -1  -2  11    2.79    0.41
  -1  -2  11    2.16    0.36
   0   2 -11   -0.15    0.18
   0   2 -11    0.27    0.15
   0  -2  11    0.35    0.28
   0  -2  11    0.51    0.30
   0  -2  11    0.13    0.25
  -1   2 -11    1.46    0.32
   1  -2  11    1.42    0.32
   1  -2  11    1.83    0.41
   1  -2  11    1.04    0.30
  -2   2 -11    8.93    0.60
   2  -2  11    8.85    0.55
   2  -2  11    8.59    0.69
  -3   2 -11    4.26    0.49
   3  -2  11    3.83    0.42
   3  -2  11    4.58    0.59
  -4   2 -11   28.16    1.13
   4  -2  11   28.85    1.05
   4  -2  11   30.01    1.28
  -5   2 -11    0.19    0.26
   5  -2  11    0.16    0.35
  -6   2 -11   -0.15    0.24
   6  -2  11    0.73    0.39
  -7   2 -11   -0.17    0.27
   7  -2  11    0.10    0.37
  -7  -1  11    0.34    0.37
  -6  -1  11    0.37    0.35
  -5  -1  11    5.99    0.66
  -5  -1  11    7.06    0.48
   4   1 -11    2.30    0.25
  -4  -1  11    2.32    0.46
  -4  -1  11    1.63    0.28
   3   1 -11    3.57    0.27
  -3  -1  11    4.35    0.36
  -3  -1  11    5.50    0.59
  -2  -1  11    0.42    0.26
  -2  -1  11   -0.12    0.27
   1   1 -11    6.54    0.50
  -1  -1  11    7.09    0.55
  -1  -1  11    7.37    0.55
  -1  -1  11    7.58    0.64
   0   1 -11    0.08    0.22
   0  -1  11    0.18    0.23
   0  -1  11   -0.47    0.25
   0  -1  11   -0.23    0.22
  -1   1 -11    6.31    0.57
   1  -1  11    5.55    0.45
   1  -1  11    5.14    0.55
  -2   1 -11   10.62    0.65
   2  -1  11   10.82    0.77
   2  -1  11   11.03    0.58
  -3   1 -11    0.13    0.22
   3  -1  11   -0.41    0.32
   3  -1  11   -0.07    0.18
  -4   1 -11    0.15    0.27
   4  -1  11    0.34    0.35
  -5   1 -11    3.17    0.45
   5  -1  11    2.25    0.46
  -6   1 -11    2.81    0.44
   6  -1  11    2.83    0.51
  -7   0  11    2.43    0.58
  -6   0  11    1.50    0.43
   5   0 -11    3.62    0.33
  -5   0  11    3.96    0.58
   4   0 -11    8.34    0.43
  -4   0  11    8.13    0.67
  -3   0  11    0.81    0.31
  -3   0  11    1.06    0.37
  -3   0  11    1.06    0.20
   2   0 -11   22.95    0.97
  -2   0  11   25.45    1.02
  -2   0  11   25.67    1.07
   1   0 -11    2.63    0.36
  -1   0  11    2.59    0.37
  -1   0  11    1.50    0.38
   0   0 -11   -0.12    0.20
   0   0  11    0.08    0.20
   0   0  11   -0.16    0.26
  -1   0 -11    6.60    0.56
   1   0  11    6.01    0.61
   1   0  11    6.29    0.42
  -2   0 -11    0.22    0.28
   2   0  11    0.92    0.39
  -3   0 -11    8.27    0.60
   3   0  11    8.00    0.73
  -4   0 -11    0.09    0.27
   4   0  11   -0.20    0.33
  -5   0 -11    0.38    0.27
   5   0  11   -0.49    0.32
  -6   0 -11    3.32    0.48
   6   0  11    3.56    0.56
  -7   1  11    1.68    0.48
   6  -1 -11    3.73    0.38
  -6   1  11    3.15    0.55
   5  -1 -11    0.40    0.20
  -5   1  11    0.00    0.31
   4  -1 -11    0.25    0.19
  -4   1  11    0.15    0.30
   3  -1 -11    0.47    0.24
  -3   1  11    0.42    0.30
   2  -1 -11   12.31    0.70
  -2   1  11   12.54    0.67
   1  -1 -11    0.80    0.26
  -1   1  11    1.24    0.27
   0  -1 -11    8.64    0.59
   0   1  11    9.17    0.48
  -1  -1 -11   11.76    0.68
  -2  -1 -11   -0.07    0.24
  -3  -1 -11    5.37    0.55
   3   1  11    5.75    0.62
  -4  -1 -11    1.12    0.37
   4   1  11    1.40    0.42
  -5  -1 -11    0.12    0.30
   5   1  11    0.84    0.39
   7  -2 -11    0.04    0.20
   6  -2 -11    1.08    0.27
  -6   2  11    1.27    0.45
   5  -2 -11    0.28    0.21
  -5   2  11    0.30    0.34
   4  -2 -11   -0.15    0.20
   4  -2 -11   -0.10    0.20
  -4   2  11   -0.24    0.27
   3  -2 -11   20.99    0.91
  -3   2  11   21.35    0.94
   2  -2 -11    5.41    0.53
  -2   2  11    5.16    0.45
   1  -2 -11    0.15    0.27
  -1   2  11    0.07    0.21
   0  -2 -11    0.49    0.25
  -1  -2 -11    4.75    0.55
  -2  -2 -11    1.34    0.37
  -3  -2 -11    1.27    0.39
  -4  -2 -11    4.40    0.55
   7  -3 -11    0.18    0.25
   6  -3 -11    6.94    0.59
   5  -3 -11   -0.08    0.23
   4  -3 -11    1.63    0.34
   3  -3 -11   -0.01    0.23
   2  -3 -11    3.61    0.45
   1  -3 -11   -0.27    0.20
   0  -3 -11    1.33    0.33
  -1  -3 -11   -0.17    0.23
  -2  -3 -11    0.34    0.32
  -3  -3 -11    1.49    0.42
   7  -4 -11    0.54    0.30
   6  -4 -11    1.57    0.35
   5  -4 -11    0.57    0.28
   5  -4 -11    0.92    0.28
   4  -4 -11    3.04    0.43
   3  -4 -11    3.89    0.45
   2  -4 -11   -0.06    0.24
   1  -4 -11   -0.37    0.23
   0  -4 -11    0.17    0.26
  -1  -4 -11   -0.07    0.24
  -2  -4 -11    0.47    0.34
   6  -5 -11    0.80    0.31
   5  -5 -11   -0.03    0.24
   5  -5 -11   -0.38    0.22
   4  -5 -11    3.50    0.44
   3  -5 -11    2.21    0.41
   2  -5 -11    2.05    0.41
   1  -5 -11    0.40    0.32
   0  -5 -11    1.51    0.42
   1  -9  12    0.71    0.39
   2  -9  12   -0.07    0.41
   2  -9  12   -0.08    0.32
   3  -9  12    1.98    0.52
   3  -9  12    2.02    0.48
   4  -9  12    2.95    0.62
   4  -9  12    3.42    0.72
  -1  -8  12    0.31    0.32
  -1  -8  12    0.50    0.46
  -1  -8  12    0.08    0.34
   0  -8  12   14.37    0.90
   0  -8  12   13.40    0.97
   1  -8  12   -0.29    0.31
   1  -8  12   -0.07    0.33
   2  -8  12    0.39    0.40
   2  -8  12   -0.02    0.33
   3  -8  12    0.42    0.38
   3  -8  12   -0.21    0.32
   4  -8  12    1.78    0.46
   4  -8  12    2.84    0.58
   5  -8  12    3.64    0.66
   5  -8  12    2.31    0.57
  -3  -7  12   -0.08    0.29
  -2  -7  12    0.54    0.31
  -2  -7  12   -0.16    0.26
  -2  -7  12   -0.47    0.31
  -1  -7  12   14.50    0.86
  -1  -7  12   13.19    0.99
   0  -7  12   10.27    0.76
   0  -7  12    9.83    0.81
   1  -7  12    4.50    0.58
   1  -7  12    3.89    0.62
   2  -7  12    0.20    0.38
   2  -7  12    0.47    0.38
   3  -7  12   -0.33    0.31
   3  -7  12    0.31    0.37
   4  -7  12    2.94    0.50
   4  -7  12    3.48    0.60
   5  -7  12   -0.21    0.36
   5  -7  12   -0.49    0.28
   6  -7  12   -0.01    0.29
   6  -7  12    0.53    0.40
   6  -7  12   -0.15    0.37
  -4  -6  12    0.05    0.31
  -4  -6  12    0.03    0.61
  -3  -6  12    1.36    0.41
  -3  -6  12    0.95    0.34
  -3  -6  12    0.71    0.39
  -2  -6  12    0.52    0.35
  -2  -6  12    0.74    0.44
  -2  -6  12    0.90    0.36
  -1  -6  12    0.69    0.39
  -1  -6  12    2.28    0.43
   0  -6  12    4.06    0.54
   0  -6  12    4.53    0.63
   1  -6  12    0.40    0.33
   1  -6  12    0.12    0.31
   2  -6  12    5.01    0.62
   2  -6  12    3.05    0.52
   3  -6  12    7.17    0.70
   3  -6  12    5.09    0.61
   4  -6  12    1.35    0.42
   4  -6  12    1.29    0.41
   5  -6  12   -0.25    0.30
   5  -6  12   -0.23    0.36
   6  -6  12    6.01    0.71
   6  -6  12    3.20    0.59
   7  -6  12    1.50    0.52
   7  -6  12    1.66    0.51
  -5  -5  12    0.97    0.36
  -4  -5  12    0.33    0.34
  -4  -5  12    0.25    0.38
  -3  -5  12    0.40    0.33
  -3  -5  12   -0.20    0.25
  -3  -5  12    0.09    0.36
  -2  -5  12    0.36    0.34
  -2  -5  12   -0.10    0.28
  -1  -5  12    0.95    0.36
  -1  -5  12    1.15    0.43
   0  -5  12    7.44    0.70
   0  -5  12    8.53    0.69
   1  -5  12    1.11    0.37
   1  -5  12    0.96    0.39
   2  -5  12   14.87    0.92
   2  -5  12   16.08    0.89
   3  -5  12    1.44    0.43
   3  -5  12    2.13    0.43
   4  -5  12    1.99    0.49
   4  -5  12    1.56    0.42
   5  -5  12    0.62    0.38
   5  -5  12    0.46    0.41
   6  -5  12    3.32    0.53
   6  -5  12    2.78    0.54
   7  -5  12    2.33    0.52
   7  -5  12    3.56    0.60
  -5  -4  12    0.14    0.28
  -5  -4  12   -0.62    0.32
  -4  -4  12    0.36    0.37
  -4  -4  12   -0.10    0.26
  -3  -4  12    0.53    0.30
  -3  -4  12    0.50    0.31
  -3  -4  12    0.50    0.39
  -2  -4  12    2.10    0.41
  -2  -4  12    1.49    0.39
  -1  -4  12    8.58    0.69
  -1  -4  12    8.64    0.71
   0  -4  12    4.29    0.56
   0  -4  12    5.12    0.61
   1  -4  12    1.24    0.38
   1  -4  12    1.71    0.44
   2  -4  12    0.81    0.39
   2  -4  12    0.81    0.34
   3  -4  12    0.92    0.39
   3  -4  12    0.96    0.37
  -4   4 -12    0.01    0.24
   4  -4  12    0.90    0.40
   4  -4  12    0.22    0.31
  -5   4 -12    0.28    0.24
   5  -4  12   -0.13    0.29
   5  -4  12   -0.32    0.35
  -6   4 -12    0.69    0.30
   6  -4  12    1.41    0.47
   6  -4  12    1.08    0.53
  -7   4 -12    1.13    0.33
   7  -4  12    0.96    0.48
  -6  -3  12    1.71    0.40
  -6  -3  12    1.68    0.49
  -5  -3  12    0.77    0.44
  -5  -3  12    1.32    0.35
  -4  -3  12    4.48    0.61
  -4  -3  12    3.90    0.47
  -3  -3  12    2.37    0.38
  -3  -3  12    2.10    0.47
  -2  -3  12    2.30    0.42
  -2  -3  12    3.01    0.50
  -1  -3  12    0.06    0.29
  -1  -3  12    0.67    0.31
   0  -3  12    6.66    0.64
   0  -3  12    6.84    0.69
   1  -3  12    2.91    0.44
   1  -3  12    2.37    0.44
  -2   3 -12    8.21    0.61
   2  -3  12    9.60    0.66
   2  -3  12    8.93    0.71
  -3   3 -12   -0.10    0.20
   3  -3  12    0.08    0.34
   3  -3  12    0.19    0.28
  -4   3 -12   16.79    0.84
   4  -3  12   16.85    0.84
   4  -3  12   18.13    1.03
  -5   3 -12    0.24    0.29
   5  -3  12    0.70    0.41
  -6   3 -12    1.89    0.38
   6  -3  12    1.39    0.51
  -6  -2  12    2.39    0.52
  -5  -2  12    0.51    0.36
  -5  -2  12    0.30    0.25
  -4  -2  12    2.51    0.37
  -4  -2  12    1.60    0.45
  -3  -2  12    4.09    0.42
  -3  -2  12    3.76    0.51
  -2  -2  12    2.52    0.46
  -2  -2  12    2.94    0.50
  -1  -2  12    7.50    0.59
  -1  -2  12    6.25    0.64
   0  -2  12    0.21    0.26
   0  -2  12    0.27    0.30
  -1   2 -12    5.13    0.53
   1  -2  12    5.12    0.51
   1  -2  12    3.41    0.55
  -2   2 -12   -0.10    0.24
   2  -2  12    0.43    0.27
   2  -2  12    0.57    0.34
  -3   2 -12    0.13    0.25
   3  -2  12   -0.44    0.28
   3  -2  12   -0.16    0.24
  -4   2 -12    1.34    0.36
   4  -2  12    1.03    0.43
  -5   2 -12    0.32    0.27
   5  -2  12   -0.12    0.33
  -6   2 -12    0.34    0.26
   6  -2  12    0.39    0.39
  -7  -1  12    0.04    0.58
  -6  -1  12    0.08    0.39
  -5  -1  12    1.75    0.47
  -4  -1  12    0.03    0.28
   3   1 -12    0.73    0.25
  -3  -1  12    0.54    0.21
  -3  -1  12    0.95    0.35
  -2  -1  12    1.10    0.35
   1   1 -12    1.41    0.34
  -1  -1  12    0.86    0.32
  -1  -1  12    0.59    0.35
   0   1 -12   11.07    0.69
   0  -1  12   11.88    0.82
   0  -1  12   13.03    0.68
  -1   1 -12   10.86    0.68
   1  -1  12   12.08    0.84
   1  -1  12   10.57    0.61
  -2   1 -12    0.68    0.30
   2  -1  12    1.05    0.27
   2  -1  12    0.57    0.39
  -3   1 -12    0.87    0.32
   3  -1  12    1.04    0.43
  -4   1 -12    0.94    0.31
   4  -1  12    0.85    0.41
  -5   1 -12   -0.34    0.25
   5  -1  12    0.17    0.36
  -6   1 -12    0.29    0.30
   6  -1  12    0.36    0.41
  -7   0  12    0.49    0.41
  -6   0  12    2.82    0.57
  -5   0  12   -0.11    0.37
   4   0 -12    3.36    0.32
  -4   0  12    4.18    0.57
  -3   0  12    3.94    0.52
   2   0 -12    0.70    0.28
  -2   0  12    1.04    0.34
   1   0 -12    6.32    0.59
  -1   0  12    6.20    0.52
   0   0 -12    0.23    0.27
   0   0  12   -0.08    0.20
  -1   0 -12    7.99    0.61
   1   0  12    6.87    0.67
  -2   0 -12   10.50    0.69
   2   0  12   11.84    0.80
  -3   0 -12   12.68    0.79
   3   0  12   11.81    0.85
  -4   0 -12    0.48    0.30
   4   0  12   -0.29    0.35
  -5   0 -12   -0.07    0.25
   5   0  12   -0.29    0.37
  -7   1  12    6.59    0.81
  -6   1  12    2.22    0.53
   5  -1 -12    2.77    0.34
  -5   1  12    2.13    0.48
   4  -1 -12   -0.24    0.15
  -4   1  12   -0.43    0.30
   3  -1 -12    0.48    0.25
  -3   1  12    0.18    0.31
   2  -1 -12    5.97    0.56
  -2   1  12    7.08    0.58
   1  -1 -12    0.23    0.27
  -1   1  12    0.40    0.24
   0  -1 -12    0.47    0.26
  -1  -1 -12    3.60    0.51
  -2  -1 -12    0.19    0.29
  -3  -1 -12    6.21    0.60
  -4  -1 -12    1.78    0.42
   6  -2 -12    1.41    0.31
  -6   2  12    1.97    0.54
   5  -2 -12    0.12    0.23
  -5   2  12    0.14    0.34
   4  -2 -12    0.46    0.27
   4  -2 -12   -0.29    0.19
  -4   2  12    0.18    0.32
   3  -2 -12    0.79    0.29
  -3   2  12    0.52    0.30
   2  -2 -12    0.07    0.25
   1  -2 -12    5.19    0.55
   0  -2 -12    5.40    0.58
  -1  -2 -12    2.67    0.44
  -2  -2 -12    0.22    0.29
  -3  -2 -12   -0.11    0.28
   6  -3 -12    4.29    0.47
   5  -3 -12    4.07    0.46
   4  -3 -12    0.37    0.27
   3  -3 -12    2.29    0.41
   2  -3 -12    3.38    0.46
   1  -3 -12    0.48    0.32
   0  -3 -12   -0.16    0.22
  -1  -3 -12    2.01    0.42
  -2  -3 -12    0.48    0.33
   5  -4 -12    1.51    0.35
   5  -4 -12    1.82    0.38
   4  -4 -12   -0.24    0.24
   3  -4 -12    2.89    0.44
   2  -4 -12    0.34    0.29
   1  -4 -12    2.34    0.45
   0  -4 -12    2.35    0.46
   0  -8  13   17.50    1.02
   1  -8  13    0.78    0.46
   1  -8  13    0.41    0.39
   2  -8  13    0.47    0.44
   2  -8  13   -0.02    0.36
   3  -8  13    4.57    0.67
   3  -8  13    3.87    0.64
   4  -8  13    0.65    0.42
   4  -8  13    0.47    0.43
  -2  -7  13    0.77    0.38
  -2  -7  13    0.64    0.35
  -1  -7  13    2.45    0.51
  -1  -7  13    2.57    0.58
   0  -7  13    0.79    0.41
   0  -7  13    1.69    0.53
   1  -7  13   -0.77    0.29
   1  -7  13    0.57    0.42
   2  -7  13    0.50    0.43
   2  -7  13    0.44    0.35
   3  -7  13    0.00    0.34
   3  -7  13    0.10    0.38
   4  -7  13    0.29    0.41
   4  -7  13    0.04    0.39
   5  -7  13    2.65    0.54
   5  -7  13    2.82    0.57
  -3  -6  13    0.26    0.43
  -3  -6  13    0.92    0.47
  -3  -6  13    0.87    0.41
  -2  -6  13    4.80    0.71
  -2  -6  13    3.29    0.53
  -2  -6  13    3.14    0.54
  -1  -6  13   -0.44    0.32
  -1  -6  13    0.11    0.32
   0  -6  13    2.16    0.47
   0  -6  13    0.96    0.41
   1  -6  13    0.08    0.33
   1  -6  13    0.13    0.36
   2  -6  13    0.28    0.39
   2  -6  13    0.41    0.40
   3  -6  13    2.37    0.53
   3  -6  13    1.63    0.45
   4  -6  13   -0.50    0.31
   4  -6  13   -0.18    0.34
   5  -6  13    0.03    0.38
   5  -6  13    0.27    0.37
   6  -6  13    0.88    0.46
  -4  -5  13    0.87    0.47
  -4  -5  13    0.45    0.33
  -3  -5  13    5.52    0.65
  -3  -5  13    6.15    0.74
  -3  -5  13    6.23    0.64
  -2  -5  13    0.39    0.35
  -2  -5  13   -0.36    0.29
  -1  -5  13    3.97    0.60
  -1  -5  13    3.63    0.53
   0  -5  13    7.56    0.78
   0  -5  13    7.36    0.75
   1  -5  13   -0.16    0.34
   1  -5  13   -0.11    0.34
   2  -5  13   -0.21    0.35
   2  -5  13   -0.04    0.33
   3  -5  13    0.48    0.37
   3  -5  13    0.62    0.37
   4  -5  13   10.68    0.89
   4  -5  13   10.29    0.77
   5  -5  13   -0.29    0.38
   5  -5  13   -0.13    0.34
   6  -5  13    0.66    0.43
   6  -5  13    0.69    0.38
  -4  -4  13   -0.17    0.37
  -4  -4  13    0.14    0.29
  -3  -4  13    1.72    0.39
  -3  -4  13    2.15    0.48
  -2  -4  13    3.43    0.52
  -2  -4  13    3.64    0.52
  -1  -4  13    4.56    0.60
  -1  -4  13    3.17    0.51
   0  -4  13    2.80    0.52
   0  -4  13    2.65    0.49
   1  -4  13    0.42    0.34
   1  -4  13    0.60    0.36
   2  -4  13    1.01    0.39
   2  -4  13    0.60    0.36
   3  -4  13    0.34    0.33
   3  -4  13    0.02    0.32
  -4   4 -13    7.14    0.65
   4  -4  13    7.27    0.77
   4  -4  13    7.43    0.69
  -5   4 -13   -0.07    0.25
   5  -4  13   -0.38    0.42
   5  -4  13    0.64    0.43
  -6   4 -13    1.65    0.37
   6  -4  13    1.64    0.49
  -5  -3  13    0.33    0.38
  -4  -3  13    0.41    0.40
  -4  -3  13    0.16    0.25
  -3  -3  13    3.88    0.57
  -3  -3  13    3.38    0.44
  -2  -3  13    0.05    0.28
  -2  -3  13   -0.01    0.32
  -1  -3  13    3.11    0.51
  -1  -3  13    3.36    0.52
   0  -3  13    4.72    0.59
   0  -3  13    4.30    0.54
   1  -3  13    1.98    0.44
   1  -3  13    1.61    0.39
  -2   3 -13    5.85    0.58
   2  -3  13    5.16    0.63
   2  -3  13    5.29    0.56
  -3   3 -13    0.07    0.22
   3  -3  13    0.19    0.30
   3  -3  13    0.36    0.39
  -4   3 -13    0.21    0.28
   4  -3  13    1.15    0.44
  -5   3 -13    2.47    0.43
   5  -3  13    3.10    0.60
  -5  -2  13    3.83    0.58
  -4  -2  13    0.35    0.37
  -3  -2  13   -0.06    0.21
  -3  -2  13    1.17    0.41
  -2  -2  13   -0.04    0.30
  -1  -2  13   11.25    0.75
  -1  -2  13   10.69    0.77
   0  -2  13    0.76    0.33
   0  -2  13    1.33    0.43
  -1   2 -13   13.52    0.78
   1  -2  13   13.51    0.75
   1  -2  13   13.04    0.90
  -2   2 -13    2.07    0.38
   2  -2  13    1.52    0.44
   2  -2  13    2.37    0.39
  -3   2 -13    0.02    0.24
   3  -2  13    0.31    0.37
  -4   2 -13   -0.04    0.27
   4  -2  13    0.18    0.35
  -5   2 -13    1.29    0.40
   5  -2  13    1.01    0.47
  -6  -1  13    1.58    0.53
  -5  -1  13    0.19    0.37
  -4  -1  13    0.34    0.36
  -3  -1  13    2.78    0.49
  -2  -1  13    9.01    0.71
   1   1 -13    0.28    0.27
  -1  -1  13    0.14    0.28
   0   1 -13    0.76    0.28
   0  -1  13    0.68    0.30
   0  -1  13    0.60    0.40
  -1   1 -13    0.28    0.27
   1  -1  13    0.33    0.26
   1  -1  13    0.28    0.34
  -2   1 -13    0.11    0.29
   2  -1  13   -0.34    0.33
  -3   1 -13    0.59    0.34
   3  -1  13   -0.21    0.39
  -4   1 -13    0.49    0.32
   4  -1  13    0.85    0.46
  -5   1 -13    1.47    0.40
   5  -1  13    1.69    0.51
  -6   0  13    1.38    0.48
  -5   0  13    1.51    0.50
  -4   0  13    0.02    0.33
  -3   0  13   24.25    1.12
   2   0 -13    1.76    0.37
  -2   0  13    2.45    0.42
   1   0 -13    0.90    0.29
  -1   0  13    0.87    0.32
   0   0 -13   -0.19    0.25
  -1   0 -13   13.53    0.83
   1   0  13   15.11    0.94
  -2   0 -13    1.27    0.37
   2   0  13    1.03    0.44
  -3   0 -13    0.18    0.27
   3   0  13    0.14    0.36
  -4   0 -13    2.56    0.46
   4   0  13    3.92    0.63
  -6   1  13    0.25    0.41
  -5   1  13    2.25    0.49
   4  -1 -13    0.08    0.19
  -4   1  13   -0.38    0.30
   3  -1 -13    1.26    0.34
  -3   1  13    2.17    0.43
   2  -1 -13    0.13    0.27
  -2   1  13    0.06    0.28
   1  -1 -13    1.42    0.37
   0  -1 -13    5.20    0.58
  -1  -1 -13    0.32    0.27
  -2  -1 -13   -0.18    0.28
  -3  -1 -13   -0.09    0.26
   5  -2 -13    0.15    0.23
  -5   2  13   -0.22    0.35
   4  -2 -13    0.69    0.28
  -4   2  13    0.46    0.35
   3  -2 -13    0.58    0.29
   2  -2 -13    0.22    0.30
   1  -2 -13    2.26    0.41
   0  -2 -13    1.95    0.43
  -1  -2 -13    1.29    0.38
  -2  -2 -13    0.65    0.37
   5  -3 -13    0.15    0.28
   4  -3 -13    2.55    0.43
   3  -3 -13    0.01    0.27
   2  -3 -13    0.88    0.35
   1  -3 -13    1.96    0.43
   0  -3 -13    2.23    0.44
   0  -7  14    2.03    0.47
   0  -7  14    0.93    0.48
   1  -7  14   -0.04    0.34
   1  -7  14   -0.05    0.35
   2  -7  14    5.09    0.70
   2  -7  14    4.79    0.72
   3  -7  14    0.62    0.40
   3  -7  14    0.03    0.41
  -2  -6  14    0.32    0.48
  -2  -6  14   -0.23    0.30
  -2  -6  14   -0.09    0.35
  -1  -6  14    1.30    0.44
  -1  -6  14    0.86    0.46
   0  -6  14    0.92    0.42
   0  -6  14    1.98    0.53
   1  -6  14   -0.25    0.36
   1  -6  14   -0.32    0.32
   2  -6  14    0.94    0.43
   2  -6  14    1.35    0.48
   3  -6  14    0.84    0.49
   3  -6  14    2.76    0.55
   4  -6  14    0.42    0.42
   4  -6  14   -0.07    0.39
  -3  -5  14    5.64    0.65
  -3  -5  14    6.78    0.85
  -2  -5  14   -0.08    0.34
  -2  -5  14    0.17    0.36
  -1  -5  14    4.19    0.61
  -1  -5  14    5.36    0.67
   0  -5  14    2.45    0.54
   0  -5  14    2.34    0.53
   1  -5  14    0.55    0.39
   1  -5  14   -0.11    0.33
   2  -5  14    2.23    0.53
   2  -5  14    4.03    0.62
   3  -5  14    0.98    0.48
   3  -5  14    0.37    0.37
   4  -5  14    9.71    0.80
   4  -5  14    8.29    0.82
  -3  -4  14    4.41    0.67
  -3  -4  14    3.32    0.50
  -2  -4  14    0.71    0.40
  -2  -4  14    0.35    0.35
  -1  -4  14    0.25    0.35
  -1  -4  14   -0.36    0.33
   0  -4  14   -0.27    0.34
   0  -4  14   -0.59    0.31
   1  -4  14   -0.15    0.33
   1  -4  14   -0.22    0.33
   2  -4  14    2.86    0.51
   2  -4  14    3.86    0.61
   3  -4  14    4.00    0.64
   3  -4  14    2.66    0.50
   4  -4  14   14.73    1.04
  -4  -3  14    0.53    0.41
  -3  -3  14    1.38    0.49
  -3  -3  14    2.27    0.61
  -2  -3  14    0.11    0.32
  -2  -3  14   -0.27    0.32
  -1  -3  14    0.61    0.41
  -1  -3  14    0.39    0.34
   0  -3  14    0.01    0.32
   0  -3  14    0.09    0.39
   1  -3  14    0.33    0.40
   1  -3  14    0.70    0.34
   2  -3  14    1.30    0.47
   2  -3  14    1.25    0.38
  -3   3 -14    2.50    0.44
   3  -3  14    2.33    0.57
  -4   3 -14    1.81    0.40
   4  -3  14    1.17    0.47
  -4  -2  14    1.93    0.52
  -3  -2  14    0.43    0.37
  -2  -2  14    1.98    0.46
  -1  -2  14    2.05    0.44
  -1  -2  14    1.94    0.45
   0  -2  14   -0.23    0.29
   0  -2  14    0.43    0.41
  -1   2 -14    0.14    0.26
   1  -2  14    0.48    0.29
   1  -2  14   -0.14    0.32
  -2   2 -14    3.71    0.52
   2  -2  14    3.61    0.63
  -3   2 -14    9.10    0.78
   3  -2  14    9.39    0.81
  -4   2 -14   -0.11    0.30
   4  -2  14    0.33    0.38
  -5  -1  14    0.13    0.39
  -4  -1  14    1.81    0.48
  -3  -1  14    5.68    0.66
  -2  -1  14    8.66    0.71
  -1  -1  14    0.43    0.32
   0   1 -14    0.12    0.27
   0  -1  14    0.20    0.37
   0  -1  14    0.03    0.36
  -1   1 -14    3.44    0.51
   1  -1  14    3.44    0.58
  -2   1 -14   -0.09    0.27
   2  -1  14    0.05    0.39
  -3   1 -14    1.73    0.43
   3  -1  14    1.30    0.44
  -5   0  14    0.14    0.38
  -4   0  14    0.03    0.36
  -3   0  14    5.65    0.64
   2   0 -14    1.30    0.35
  -2   0  14    2.49    0.45
   1   0 -14    0.22    0.28
   0   0 -14    0.23    0.29
  -1   0 -14    1.84    0.43
  -2   0 -14    0.61    0.35
  -4   1  14    0.31    0.35
   2  -1 -14    2.73    0.43
   1  -1 -14    0.30    0.32
   0  -1 -14    0.96    0.37
  -1  -1 -14    1.02    0.37
   3  -2 -14    2.23    0.45
   2  -2 -14    0.00    0.27
   1  -2 -14    0.14    0.32
   0  -2 -14    0.05    0.31
   1  -6  15    0.26    0.43
   1  -6  15    0.25    0.38
  -1  -5  15   -0.08    0.38
  -1  -5  15    0.67    0.45
   0  -5  15    2.46    0.54
   0  -5  15    3.14    0.59
   1  -5  15    0.85    0.41
   1  -5  15    1.10    0.44
   2  -5  15    2.80    0.54
   2  -5  15    1.88    0.55
   3  -5  15   -0.20    0.39
  -2  -4  15    0.63    0.45
  -2  -4  15    0.19    0.38
  -1  -4  15    5.06    0.67
  -1  -4  15    3.90    0.61
   0  -4  15    0.64    0.45
   0  -4  15    0.72    0.39
   1  -4  15    2.01    0.50
   1  -4  15    2.31    0.50
   2  -4  15    0.20    0.36
   2  -4  15   -0.18    0.42
   3  -4  15    0.98    0.77
  -3  -3  15   -0.34    0.37
  -2  -3  15    1.17    0.44
  -1  -3  15   -0.26    0.34
  -1  -3  15   -0.02    0.36
   0  -3  15    2.25    0.54
   0  -3  15    2.15    0.45
   1  -3  15    4.09    0.57
   1  -3  15    4.36    0.70
   2  -3  15    0.90    0.47
  -3   3 -15    0.18    0.33
   3  -3  15   -0.29    0.63
  -3  -2  15    3.16    0.59
  -2  -2  15    1.28    0.43
  -1  -2  15   -0.10    0.33
   0  -2  15   -0.13    0.29
   0  -2  15    0.44    0.37
  -1   2 -15    2.72    0.47
   1  -2  15    1.83    0.56
  -2   2 -15    1.61    0.39
   2  -2  15    2.07    0.58
  -3  -1  15    0.47    0.40
  -2  -1  15    0.93    0.40
   0   1 -15    0.17    0.32
  -1   1 -15    3.13    0.49
   1  -1  15    4.92    0.71
   1   0 -15    1.34    0.39
   0   0 -15    0.76    0.36
   0   0   0    0.00    0.00
;
_shelx_hkl_checksum              31339
_olex2_submission_special_instructions 'No special instructions were received'
loop_
_space_group_symop_operation_xyz
'x, y, z'
'-x, -y, -z'
loop_
_atom_site_label
_atom_site_type_symbol
_atom_site_fract_x
_atom_site_fract_y
_atom_site_fract_z
_atom_site_U_iso_or_equiv
_atom_site_adp_type
_atom_site_occupancy
_atom_site_site_symmetry_order
_atom_site_calc_flag
_atom_site_refinement_flags_posn
Cl1 Cl 0.90864(13) 0.02223(12) -0.14663(9) 0.0437(3) Uani 1 1 d .
Cl2 Cl 0.54029(12) -0.08933(11) -0.21792(8) 0.0383(3) Uani 1 1 d .
Cl3 Cl 1.08367(10) 0.32578(11) 0.05376(8) 0.0363(2) Uani 1 1 d .
Cl4 Cl 0.34344(10) 0.11662(11) -0.09944(7) 0.0311(2) Uani 1 1 d .
O1 O 0.6968(3) 0.6648(3) 0.2571(2) 0.0350(6) Uani 1 1 d .
O2 O 0.4321(3) 0.4334(3) 0.1022(2) 0.0306(6) Uani 1 1 d .
O3 O 0.9720(3) 0.5834(3) 0.2153(2) 0.0428(7) Uani 1 1 d .
N1 N 0.7043(3) 0.5419(4) 0.1697(2) 0.0291(6) Uani 1 1 d .
C1 C 0.8021(4) 0.1334(4) -0.0794(3) 0.0287(8) Uani 1 1 d .
C2 C 0.8810(4) 0.2697(4) 0.0104(3) 0.0279(8) Uani 1 1 d .
C3 C 0.7922(4) 0.3566(4) 0.0623(3) 0.0249(7) Uani 1 1 d .
C4 C 0.8446(4) 0.5060(4) 0.1585(3) 0.0296(8) Uani 1 1 d .
C5 C 0.6345(5) 0.6042(5) 0.3462(3) 0.0411(10) Uani 1 1 d .
C6 C 0.6322(7) 0.7428(7) 0.4402(3) 0.0653(16) Uani 1 1 d .
H6 H 0.6879 0.8299 0.4050 0.078 Uiso 1 1 calc R
C7 C 0.7670(7) 0.7904(7) 0.5249(5) 0.089(2) Uani 1 1 d .
H7A H 0.8112 0.9094 0.5441 0.107 Uiso 1 1 calc R
H7B H 0.7129 0.7618 0.5877 0.107 Uiso 1 1 calc R
C8 C 0.8981(11) 0.7544(9) 0.5301(6) 0.160(5) Uani 1 1 d .
H8A H 0.9428 0.7667 0.4614 0.192 Uiso 1 1 calc R
H8B H 0.8530 0.6371 0.5220 0.192 Uiso 1 1 calc R
C9 C 1.0384(8) 0.8132(8) 0.6066(5) 0.090(2) Uani 1 1 d .
H9A H 1.1294 0.8717 0.5711 0.108 Uiso 1 1 calc R
H9B H 1.0249 0.8951 0.6674 0.108 Uiso 1 1 calc R
C10 C 1.0864(15) 0.7225(8) 0.6502(8) 0.196(7) Uani 1 1 d .
H10A H 1.1149 0.6478 0.5937 0.294 Uiso 1 1 calc GR
H10B H 1.0001 0.6614 0.6865 0.294 Uiso 1 1 calc GR
H10C H 1.1801 0.7906 0.7029 0.294 Uiso 1 1 calc GR
C11 C 0.6361(4) 0.0846(4) -0.1126(3) 0.0265(7) Uani 1 1 d .
C12 C 0.6275(4) 0.3113(4) 0.0277(3) 0.0230(7) Uani 1 1 d .
C13 C 0.5657(4) 0.4287(4) 0.1001(3) 0.0238(7) Uani 1 1 d .
C14 C 0.4911(8) 0.7661(10) 0.4430(6) 0.144(4) Uani 1 1 d .
H14A H 0.5233 0.8826 0.4778 0.173 Uiso 1 1 calc R
H14B H 0.4347 0.7111 0.4964 0.173 Uiso 1 1 calc R
C15 C 0.3642(6) 0.7289(6) 0.3570(4) 0.0536(12) Uani 1 1 d .
H15A H 0.3575 0.6332 0.3005 0.080 Uiso 1 1 calc GR
H15B H 0.3890 0.8203 0.3260 0.080 Uiso 1 1 calc GR
H15C H 0.2616 0.7086 0.3871 0.080 Uiso 1 1 calc GR
O16 O 0.5931(4) 0.4635(4) 0.3423(2) 0.0493(8) Uani 1 1 d .
C17 C 0.5473(4) 0.1756(4) -0.0592(3) 0.0244(7) Uani 1 1 d .
loop_
_atom_site_aniso_label
_atom_site_aniso_U_11
_atom_site_aniso_U_22
_atom_site_aniso_U_33
_atom_site_aniso_U_23
_atom_site_aniso_U_13
_atom_site_aniso_U_12
Cl1 0.0504(6) 0.0415(5) 0.0539(6) 0.0158(5) 0.0186(5) 0.0320(5)
Cl2 0.0524(6) 0.0280(4) 0.0310(5) 0.0043(4) 0.0040(4) 0.0140(4)
Cl3 0.0233(4) 0.0393(5) 0.0569(6) 0.0242(4) 0.0067(4) 0.0165(4)
Cl4 0.0253(4) 0.0348(5) 0.0313(5) 0.0104(4) -0.0039(3) 0.0087(4)
O1 0.0511(16) 0.0283(13) 0.0286(14) 0.0020(11) -0.0032(12) 0.0222(12)
O2 0.0253(12) 0.0426(14) 0.0302(13) 0.0107(11) 0.0047(10) 0.0194(11)
O3 0.0314(14) 0.0312(14) 0.0570(18) 0.0049(13) -0.0167(13) 0.0071(12)
N1 0.0303(15) 0.0317(15) 0.0251(15) 0.0024(12) 0.0006(12) 0.0152(13)
C1 0.0335(18) 0.0266(17) 0.036(2) 0.0173(16) 0.0120(15) 0.0170(15)
C2 0.0233(16) 0.0281(17) 0.040(2) 0.0189(16) 0.0060(15) 0.0122(14)
C3 0.0216(16) 0.0253(16) 0.0313(18) 0.0136(15) 0.0025(14) 0.0091(14)
C4 0.0274(18) 0.0266(17) 0.037(2) 0.0122(16) -0.0006(15) 0.0104(15)
C5 0.064(3) 0.047(2) 0.0228(19) 0.0061(17) -0.0054(18) 0.036(2)
C6 0.116(4) 0.073(3) 0.025(2) -0.007(2) -0.011(2) 0.070(3)
C7 0.071(4) 0.078(4) 0.083(4) -0.054(3) -0.022(3) 0.038(3)
C8 0.218(9) 0.119(6) 0.137(6) -0.099(5) -0.141(6) 0.145(6)
C9 0.107(5) 0.084(4) 0.076(4) -0.024(3) -0.018(4) 0.064(4)
C10 0.348(15) 0.063(4) 0.155(8) -0.041(5) -0.173(10) 0.103(7)
C11 0.0369(19) 0.0223(16) 0.0227(17) 0.0098(14) 0.0055(14) 0.0116(14)
C12 0.0228(16) 0.0269(16) 0.0244(17) 0.0127(14) 0.0035(13) 0.0116(14)
C13 0.0269(17) 0.0289(17) 0.0206(17) 0.0123(14) 0.0039(13) 0.0126(14)
C14 0.086(5) 0.162(7) 0.136(6) -0.109(6) -0.051(4) 0.091(5)
C15 0.076(3) 0.059(3) 0.042(3) 0.018(2) 0.012(2) 0.040(3)
O16 0.083(2) 0.0447(17) 0.0284(15) 0.0140(13) 0.0064(14) 0.0314(16)
C17 0.0247(16) 0.0270(17) 0.0237(17) 0.0121(14) 0.0017(13) 0.0089(14)
loop_
_atom_type_symbol
_atom_type_description
_atom_type_scat_dispersion_real
_atom_type_scat_dispersion_imag
_atom_type_scat_source
C C 0.0033 0.0016 'International Tables Vol C Tables 4.2.6.8 and 6.1.1.4'
H H 0.0000 0.0000 'International Tables Vol C Tables 4.2.6.8 and 6.1.1.4'
Cl Cl 0.1484 0.1585 'International Tables Vol C Tables 4.2.6.8 and 6.1.1.4'
N N 0.0061 0.0033 'International Tables Vol C Tables 4.2.6.8 and 6.1.1.4'
O O 0.0106 0.0060 'International Tables Vol C Tables 4.2.6.8 and 6.1.1.4'
loop_
_geom_angle_atom_site_label_1
_geom_angle_atom_site_label_2
_geom_angle_atom_site_label_3
_geom_angle
N1 O1 C5 111.7(3)
O1 N1 C4 121.4(3)
O1 N1 C13 121.9(3)
C13 N1 C4 115.7(3)
C2 C1 Cl1 119.5(3)
C11 C1 Cl1 119.8(3)
C11 C1 C2 120.6(3)
C1 C2 Cl3 120.6(3)
C3 C2 Cl3 121.4(3)
C3 C2 C1 118.1(3)
C2 C3 C4 129.5(3)
C2 C3 C12 121.6(3)
C12 C3 C4 108.9(3)
O3 C4 N1 125.2(3)
O3 C4 C3 131.8(3)
N1 C4 C3 103.0(3)
O1 C5 C6 109.8(4)
O16 C5 O1 121.8(3)
O16 C5 C6 128.4(4)
C5 C6 H6 95.4
C7 C6 C5 110.2(4)
C7 C6 H6 95.4
C14 C6 C5 115.1(4)
C14 C6 H6 95.4
C14 C6 C7 132.0(5)
C6 C7 H7A 103.6
C6 C7 H7B 103.6
H7A C7 H7B 105.3
C8 C7 C6 134.3(5)
C8 C7 H7A 103.6
C8 C7 H7B 103.6
C7 C8 H8A 103.5
C7 C8 H8B 103.5
C7 C8 C9 134.7(5)
H8A C8 H8B 105.3
C9 C8 H8A 103.5
C9 C8 H8B 103.5
C8 C9 H9A 106.2
C8 C9 H9B 106.2
H9A C9 H9B 106.3
C10 C9 C8 124.7(7)
C10 C9 H9A 106.2
C10 C9 H9B 106.2
C9 C10 H10A 109.5
C9 C10 H10B 109.5
C9 C10 H10C 109.5
H10A C10 H10B 109.5
H10A C10 H10C 109.5
H10B C10 H10C 109.5
C1 C11 Cl2 119.5(3)
C1 C11 C17 120.5(3)
C17 C11 Cl2 119.9(3)
C3 C12 C13 108.9(3)
C17 C12 C3 121.0(3)
C17 C12 C13 130.1(3)
O2 C13 N1 125.2(3)
O2 C13 C12 131.5(3)
N1 C13 C12 103.3(3)
C6 C14 H14A 104.4
C6 C14 H14B 104.4
C6 C14 C15 131.4(6)
H14A C14 H14B 105.6
C15 C14 H14A 104.4
C15 C14 H14B 104.4
C14 C15 H15A 109.5
C14 C15 H15B 109.5
C14 C15 H15C 109.5
H15A C15 H15B 109.5
H15A C15 H15C 109.5
H15B C15 H15C 109.5
C11 C17 Cl4 120.8(3)
C12 C17 Cl4 121.0(3)
C12 C17 C11 118.1(3)
loop_
_geom_bond_atom_site_label_1
_geom_bond_atom_site_label_2
_geom_bond_distance
Cl1 C1 1.712(3)
Cl2 C11 1.712(3)
Cl3 C2 1.720(3)
Cl4 C17 1.717(3)
O1 N1 1.383(4)
O1 C5 1.401(5)
O2 C13 1.202(4)
O3 C4 1.197(4)
N1 C4 1.398(4)
N1 C13 1.392(4)
C1 C2 1.398(5)
C1 C11 1.398(5)
C2 C3 1.373(5)
C3 C4 1.496(5)
C3 C12 1.396(4)
C5 C6 1.507(5)
C5 O16 1.183(5)
C6 H6 0.9800
C6 C7 1.458(7)
C6 C14 1.344(7)
C7 H7A 0.9700
C7 H7B 0.9700
C7 C8 1.326(8)
C8 H8A 0.9700
C8 H8B 0.9700
C8 C9 1.414(8)
C9 H9A 0.9700
C9 H9B 0.9700
C9 C10 1.284(8)
C10 H10A 0.9600
C10 H10B 0.9600
C10 H10C 0.9600
C11 C17 1.405(5)
C12 C13 1.493(5)
C12 C17 1.376(5)
C14 H14A 0.9700
C14 H14B 0.9700
C14 C15 1.441(8)
C15 H15A 0.9600
C15 H15B 0.9600
C15 H15C 0.9600
loop_
_geom_torsion_atom_site_label_1
_geom_torsion_atom_site_label_2
_geom_torsion_atom_site_label_3
_geom_torsion_atom_site_label_4
_geom_torsion
Cl1 C1 C2 Cl3 -0.2(4)
Cl1 C1 C2 C3 179.8(3)
Cl1 C1 C11 Cl2 1.8(4)
Cl1 C1 C11 C17 -179.2(3)
Cl2 C11 C17 Cl4 -1.0(4)
Cl2 C11 C17 C12 177.7(2)
Cl3 C2 C3 C4 0.4(5)
Cl3 C2 C3 C12 -179.7(2)
O1 N1 C4 O3 -6.6(5)
O1 N1 C4 C3 173.9(3)
O1 N1 C13 O2 6.6(5)
O1 N1 C13 C12 -174.0(3)
O1 C5 C6 C7 -103.3(5)
O1 C5 C6 C14 93.1(7)
N1 O1 C5 C6 178.7(3)
N1 O1 C5 O16 -0.9(5)
C1 C2 C3 C4 -179.6(3)
C1 C2 C3 C12 0.3(5)
C1 C11 C17 Cl4 180.0(2)
C1 C11 C17 C12 -1.3(5)
C2 C1 C11 Cl2 -176.4(3)
C2 C1 C11 C17 2.6(5)
C2 C3 C4 O3 -2.3(6)
C2 C3 C4 N1 177.1(3)
C2 C3 C12 C13 179.9(3)
C2 C3 C12 C17 1.0(5)
C3 C12 C13 O2 -177.5(3)
C3 C12 C13 N1 3.1(3)
C3 C12 C17 Cl4 178.3(2)
C3 C12 C17 C11 -0.4(5)
C4 N1 C13 O2 175.3(3)
C4 N1 C13 C12 -5.3(4)
C4 C3 C12 C13 -0.2(4)
C4 C3 C12 C17 -179.1(3)
C5 O1 N1 C4 -91.4(4)
C5 O1 N1 C13 76.7(4)
C5 C6 C7 C8 10.5(13)
C5 C6 C14 C15 -26.1(14)
C6 C7 C8 C9 171.5(10)
C7 C6 C14 C15 174.8(8)
C7 C8 C9 C10 125.8(14)
C11 C1 C2 Cl3 178.0(2)
C11 C1 C2 C3 -2.0(5)
C12 C3 C4 O3 177.8(4)
C12 C3 C4 N1 -2.8(4)
C13 N1 C4 O3 -175.4(3)
C13 N1 C4 C3 5.2(4)
C13 C12 C17 Cl4 -0.4(5)
C13 C12 C17 C11 -179.1(3)
C14 C6 C7 C8 170.4(11)
O16 C5 C6 C7 76.2(7)
O16 C5 C6 C14 -87.4(8)
C17 C12 C13 O2 1.3(6)
C17 C12 C13 N1 -178.1(3)
